culgi_00
 OpenBabel02221918133D

 34 36  0  0  0  0  0  0  0  0999 V2000
   -1.2975   -0.7670    0.0108 C   0  0  0  0  0  0  0  0  0  0  0  0
    0.0021   -0.0041    0.0020 C   0  0  0  0  0  0  0  0  0  0  0  0
    1.2038   -0.6966   -0.0132 C   0  0  0  0  0  0  0  0  0  0  0  0
    2.3980   -0.0098   -0.0213 C   0  0  0  0  0  0  0  0  0  0  0  0
    2.3915    1.3852   -0.0137 C   0  0  0  0  0  0  0  0  0  0  0  0
    3.6563    2.1480   -0.0217 C   0  0  0  0  0  0  0  0  0  0  0  0
    4.7381    1.5906   -0.0354 O   0  0  0  0  0  0  0  0  0  0  0  0
    3.5435    3.6207   -0.0119 C   0  0  0  0  0  0  0  0  0  0  0  0
    4.6833    4.4251   -0.0175 C   0  0  0  0  0  0  0  0  0  0  0  0
    4.5495    5.7961   -0.0085 C   0  0  0  0  0  0  0  0  0  0  0  0
    3.2880    6.3728    0.0062 C   0  0  0  0  0  0  0  0  0  0  0  0
    2.1549    5.5882    0.0115 C   0  0  0  0  0  0  0  0  0  0  0  0
    2.2659    4.2010    0.0030 C   0  0  0  0  0  0  0  0  0  0  0  0
    1.1551    3.4369    0.0095 O   0  0  0  0  0  0  0  0  0  0  0  0
    1.1775    2.0888    0.0020 C   0  0  0  0  0  0  0  0  0  0  0  0
   -0.0166    1.3740    0.0096 C   0  0  0  0  0  0  0  0  0  0  0  0
   -1.3326    2.1082    0.0198 C   0  0  0  0  0  0  0  0  0  0  0  0
    0.7933    6.2337    0.0275 C   0  0  0  0  0  0  0  0  0  0  0  0
    0.2993    6.3293    1.4480 C   0  0  0  0  0  0  0  0  0  0  0  0
    0.9828    5.9158    2.3544 O   0  0  0  0  0  0  0  0  0  0  0  0
   -1.6210   -0.9454   -1.0147 H   0  0  0  0  0  0  0  0  0  0  0  0
   -1.1553   -1.7212    0.5181 H   0  0  0  0  0  0  0  0  0  0  0  0
   -2.0562   -0.1862    0.5353 H   0  0  0  0  0  0  0  0  0  0  0  0
    1.2033   -1.7766   -0.0189 H   0  0  0  0  0  0  0  0  0  0  0  0
    3.3341   -0.5484   -0.0338 H   0  0  0  0  0  0  0  0  0  0  0  0
    5.6652    3.9754   -0.0286 H   0  0  0  0  0  0  0  0  0  0  0  0
    5.4286    6.4234   -0.0132 H   0  0  0  0  0  0  0  0  0  0  0  0
    3.1927    7.4486    0.0129 H   0  0  0  0  0  0  0  0  0  0  0  0
   -1.6450    2.2796    1.0499 H   0  0  0  0  0  0  0  0  0  0  0  0
   -1.2187    3.0652   -0.4894 H   0  0  0  0  0  0  0  0  0  0  0  0
   -2.0860    1.5108   -0.4937 H   0  0  0  0  0  0  0  0  0  0  0  0
    0.8599    7.2333   -0.4021 H   0  0  0  0  0  0  0  0  0  0  0  0
    0.0990    5.6318   -0.5589 H   0  0  0  0  0  0  0  0  0  0  0  0
   -0.9001    6.8739    1.7063 O   0  5  0  0  0  0  0  0  0  0  0  0
  1  2  1  0  0  0  0
  1 21  1  0  0  0  0
  1 22  1  0  0  0  0
  1 23  1  0  0  0  0
  2 16  2  0  0  0  0
  2  3  1  0  0  0  0
  3  4  2  0  0  0  0
  3 24  1  0  0  0  0
  4  5  1  0  0  0  0
  4 25  1  0  0  0  0
  5 15  2  0  0  0  0
  5  6  1  0  0  0  0
  6  7  2  0  0  0  0
  6  8  1  0  0  0  0
  8 13  2  0  0  0  0
  8  9  1  0  0  0  0
  9 10  2  0  0  0  0
  9 26  1  0  0  0  0
 10 11  1  0  0  0  0
 10 27  1  0  0  0  0
 11 12  2  0  0  0  0
 11 28  1  0  0  0  0
 12 13  1  0  0  0  0
 12 18  1  0  0  0  0
 13 14  1  0  0  0  0
 14 15  1  0  0  0  0
 15 16  1  0  0  0  0
 16 17  1  0  0  0  0
 17 29  1  0  0  0  0
 17 30  1  0  0  0  0
 17 31  1  0  0  0  0
 18 19  1  0  0  0  0
 18 32  1  0  0  0  0
 18 33  1  0  0  0  0
 19 20  2  0  0  0  0
 19 34  1  0  0  0  0
M  CHG  1  34  -1
M  END
