culgi_01
 OpenBabel02221920233D

 16 16  0  0  0  0  0  0  0  0999 V2000
   -2.4440    1.5484   -0.0724 C   0  0  0  0  0  0  0  0  0  0  0  0
   -1.2956    2.2062    0.0202 C   0  0  0  0  0  0  0  0  0  0  0  0
   -0.0178    1.4662    0.0085 C   0  0  0  0  0  0  0  0  0  0  0  0
    1.1758    2.1297   -0.0115 C   0  0  0  0  0  0  0  0  0  0  0  0
    2.3398    1.4168   -0.0267 N   0  0  0  0  0  0  0  0  0  0  0  0
    3.2125    1.9049   -0.0403 H   0  0  0  0  0  0  0  0  0  0  0  0
    2.3379    0.0740   -0.0238 C   0  0  0  0  0  0  0  0  0  0  0  0
    3.3998   -0.5180   -0.0382 O   0  0  0  0  0  0  0  0  0  0  0  0
    1.1955   -0.6347   -0.0049 N   0  0  0  0  0  0  0  0  0  0  0  0
    1.2300   -1.6341   -0.0033 H   0  0  0  0  0  0  0  0  0  0  0  0
    0.0024   -0.0040    0.0119 C   0  0  0  0  0  0  0  0  0  0  0  0
   -1.0357   -0.6392    0.0290 O   0  0  0  0  0  0  0  0  0  0  0  0
   -3.3738    2.0929   -0.1464 H   0  0  0  0  0  0  0  0  0  0  0  0
   -2.4491    0.4684   -0.0738 H   0  0  0  0  0  0  0  0  0  0  0  0
   -1.2954    3.2830    0.1042 H   0  0  0  0  0  0  0  0  0  0  0  0
    1.1985    3.2094   -0.0142 H   0  0  0  0  0  0  0  0  0  0  0  0
  1  2  2  0  0  0  0
  1 13  1  0  0  0  0
  1 14  1  0  0  0  0
  2  3  1  0  0  0  0
  2 15  1  0  0  0  0
  3 11  1  0  0  0  0
  3  4  2  0  0  0  0
  4  5  1  0  0  0  0
  4 16  1  0  0  0  0
  5  6  1  0  0  0  0
  5  7  1  0  0  0  0
  7  8  2  0  0  0  0
  7  9  1  0  0  0  0
  9 10  1  0  0  0  0
  9 11  1  0  0  0  0
 11 12  2  0  0  0  0
M  END
