culgi_11
 OpenBabel02221919443D

 46 49  0  0  1  0  0  0  0  0999 V2000
   -2.7364    1.9044    0.3653 C   0  0  0  0  0  0  0  0  0  0  0  0
   -2.2496    1.4762   -1.0205 C   0  0  2  0  0  0  0  0  0  0  0  0
   -2.2334   -0.0354   -1.1088 C   0  0  0  0  0  0  0  0  0  0  0  0
   -1.3724   -0.5629    0.0549 C   0  0  0  0  0  0  0  0  0  0  0  0
    0.0269    0.0326   -0.0006 C   0  0  2  0  0  0  0  0  0  0  0  0
    0.4912   -0.2887   -0.9330 H   0  0  0  0  0  0  0  0  0  0  0  0
    0.8767   -0.4638    1.1324 C   0  0  0  0  0  0  0  0  0  0  0  0
    0.6926   -1.7689    1.5693 C   0  0  0  0  0  0  0  0  0  0  0  0
    1.4531   -2.2788    2.5998 C   0  0  0  0  0  0  0  0  0  0  0  0
    2.4129   -1.4801    3.2051 C   0  0  0  0  0  0  0  0  0  0  0  0
    2.5941   -0.1783    2.7720 C   0  0  0  0  0  0  0  0  0  0  0  0
    1.8236    0.3361    1.7377 C   0  0  0  0  0  0  0  0  0  0  0  0
    2.0601    1.7683    1.3363 C   0  0  0  0  0  0  0  0  0  0  0  0
    1.4255    2.0763   -0.0194 C   0  0  0  0  0  0  0  0  0  0  0  0
   -0.0153    1.5661    0.0005 C   0  0  1  0  0  0  0  0  0  0  0  0
   -0.5190    1.9203    0.8999 H   0  0  0  0  0  0  0  0  0  0  0  0
   -0.7790    1.9870   -1.2383 C   0  0  2  0  0  0  0  0  0  0  0  0
   -0.3302    1.5484   -2.1295 H   0  0  0  0  0  0  0  0  0  0  0  0
   -1.0212    3.4925   -1.4003 C   0  0  0  0  0  0  0  0  0  0  0  0
   -2.2821    3.5546   -2.3050 C   0  0  0  0  0  0  0  0  0  0  0  0
   -3.0387    2.2196   -2.0922 C   0  0  1  0  0  0  0  0  0  0  0  0
   -3.0611    1.4411   -3.3413 C   0  0  0  0  0  0  0  0  0  0  0  0
   -3.0790    0.8203   -4.3376 C   0  0  0  0  0  0  0  0  0  0  0  0
   -4.3709    2.4718   -1.6407 O   0  0  0  0  0  0  0  0  0  0  0  0
    3.1713   -1.9740    4.2189 O   0  0  0  0  0  0  0  0  0  0  0  0
   -2.1288    1.4200    1.1296 H   0  0  0  0  0  0  0  0  0  0  0  0
   -2.6484    2.9865    0.4630 H   0  0  0  0  0  0  0  0  0  0  0  0
   -3.7790    1.6119    0.4906 H   0  0  0  0  0  0  0  0  0  0  0  0
   -1.7997   -0.3455   -2.0595 H   0  0  0  0  0  0  0  0  0  0  0  0
   -3.2490   -0.4215   -1.0217 H   0  0  0  0  0  0  0  0  0  0  0  0
   -1.3037   -1.6487   -0.0124 H   0  0  0  0  0  0  0  0  0  0  0  0
   -1.8413   -0.2912    1.0006 H   0  0  0  0  0  0  0  0  0  0  0  0
   -0.0539   -2.3904    1.0974 H   0  0  0  0  0  0  0  0  0  0  0  0
    1.3024   -3.2945    2.9345 H   0  0  0  0  0  0  0  0  0  0  0  0
    3.3413    0.4432    3.2429 H   0  0  0  0  0  0  0  0  0  0  0  0
    1.6284    2.4263    2.0903 H   0  0  0  0  0  0  0  0  0  0  0  0
    3.1333    1.9497    1.2765 H   0  0  0  0  0  0  0  0  0  0  0  0
    1.9829    1.5729   -0.8094 H   0  0  0  0  0  0  0  0  0  0  0  0
    1.4321    3.1525   -0.1924 H   0  0  0  0  0  0  0  0  0  0  0  0
   -0.1679    3.9556   -1.8957 H   0  0  0  0  0  0  0  0  0  0  0  0
   -1.2125    3.9692   -0.4389 H   0  0  0  0  0  0  0  0  0  0  0  0
   -1.9883    3.6557   -3.3498 H   0  0  0  0  0  0  0  0  0  0  0  0
   -2.9134    4.3933   -2.0114 H   0  0  0  0  0  0  0  0  0  0  0  0
   -3.0950    0.2650   -5.2286 H   0  0  0  0  0  0  0  0  0  0  0  0
   -4.9208    2.9428   -2.2816 H   0  0  0  0  0  0  0  0  0  0  0  0
    3.9914   -2.3954    3.9273 H   0  0  0  0  0  0  0  0  0  0  0  0
  1 26  1  0  0  0  0
  1 27  1  0  0  0  0
  1 28  1  0  0  0  0
  2  1  1  1  0  0  0
  2 17  1  0  0  0  0
  2 21  1  0  0  0  0
  2  3  1  0  0  0  0
  3  4  1  0  0  0  0
  3 29  1  0  0  0  0
  3 30  1  0  0  0  0
  4  5  1  0  0  0  0
  4 31  1  0  0  0  0
  4 32  1  0  0  0  0
  5  6  1  6  0  0  0
  5 15  1  0  0  0  0
  5  7  1  0  0  0  0
  7 12  2  0  0  0  0
  7  8  1  0  0  0  0
  8  9  2  0  0  0  0
  8 33  1  0  0  0  0
  9 10  1  0  0  0  0
  9 34  1  0  0  0  0
 10 11  2  0  0  0  0
 10 25  1  0  0  0  0
 11 12  1  0  0  0  0
 11 35  1  0  0  0  0
 12 13  1  0  0  0  0
 13 14  1  0  0  0  0
 13 36  1  0  0  0  0
 13 37  1  0  0  0  0
 14 15  1  0  0  0  0
 14 38  1  0  0  0  0
 14 39  1  0  0  0  0
 15 16  1  1  0  0  0
 15 17  1  0  0  0  0
 17 18  1  6  0  0  0
 17 19  1  0  0  0  0
 19 20  1  0  0  0  0
 19 40  1  0  0  0  0
 19 41  1  0  0  0  0
 20 21  1  0  0  0  0
 20 42  1  0  0  0  0
 20 43  1  0  0  0  0
 21 22  1  6  0  0  0
 21 24  1  0  0  0  0
 22 23  3  0  0  0  0
 23 44  1  0  0  0  0
 24 45  1  0  0  0  0
 25 46  1  0  0  0  0
M  END
