culgi_04
 OpenBabel02221919193D

 27 26  0  0  1  0  0  0  0  0999 V2000
   -0.6210   -0.7277    1.1186 C   0  0  0  0  0  0  0  0  0  0  0  0
   -0.0101   -1.6408    0.0538 C   0  0  0  0  0  0  0  0  0  0  0  0
   -0.2207   -3.1025    0.4538 C   0  0  1  0  0  0  0  0  0  0  0  0
   -1.2820   -3.2832    0.6244 H   0  0  0  0  0  0  0  0  0  0  0  0
    0.2707   -4.0015   -0.6514 C   0  0  0  0  0  0  0  0  0  0  0  0
    1.3565   -4.5249   -0.5667 O   0  0  0  0  0  0  0  0  0  0  0  0
   -0.4104    0.7341    0.7187 C   0  0  0  0  0  0  0  0  0  0  0  0
   -0.9954    1.6085    1.7383 N   0  0  0  0  0  0  0  0  0  0  0  0
   -0.9279    2.9740    1.5935 C   0  0  0  0  0  0  0  0  0  0  0  0
   -0.3116    3.5190    0.4921 N   0  0  0  0  0  0  0  0  0  0  0  0
   -0.1387   -0.9149    2.0780 H   0  0  0  0  0  0  0  0  0  0  0  0
   -1.6885   -0.9311    1.2028 H   0  0  0  0  0  0  0  0  0  0  0  0
   -0.4924   -1.4535   -0.9055 H   0  0  0  0  0  0  0  0  0  0  0  0
    1.0574   -1.4373   -0.0302 H   0  0  0  0  0  0  0  0  0  0  0  0
    0.3545   -4.3269    2.0058 H   0  0  0  0  0  0  0  0  0  0  0  0
    1.5158   -3.2259    1.5528 H   0  0  0  0  0  0  0  0  0  0  0  0
    0.6571    0.9376    0.6346 H   0  0  0  0  0  0  0  0  0  0  0  0
   -0.8927    0.9214   -0.2407 H   0  0  0  0  0  0  0  0  0  0  0  0
   -1.4303    1.2240    2.5153 H   0  0  0  0  0  0  0  0  0  0  0  0
   -1.4515    4.7274    2.4881 H   0  0  0  0  0  0  0  0  0  0  0  0
    0.0758    2.9401   -0.1830 H   0  0  0  0  0  0  0  0  0  0  0  0
   -0.2639    4.4824    0.3900 H   0  0  0  0  0  0  0  0  0  0  0  0
   -0.4977   -4.2208   -1.7298 O   0  5  0  0  0  0  0  0  0  0  0  0
    0.5181   -3.3688    1.7006 N   0  3  0  0  0  0  0  0  0  0  0  0
    0.1919   -2.7244    2.4304 H   0  0  0  0  0  0  0  0  0  0  0  0
   -1.4759    3.7094    2.5501 N   0  3  0  0  0  0  0  0  0  0  0  0
   -1.9250    3.2546    3.3537 H   0  0  0  0  0  0  0  0  0  0  0  0
  1  2  1  0  0  0  0
  1  7  1  0  0  0  0
  1 11  1  0  0  0  0
  1 12  1  0  0  0  0
  2  3  1  0  0  0  0
  2 13  1  0  0  0  0
  2 14  1  0  0  0  0
  3  4  1  1  0  0  0
  3  5  1  0  0  0  0
  3 24  1  0  0  0  0
  5  6  2  0  0  0  0
  5 23  1  0  0  0  0
  7  8  1  0  0  0  0
  7 17  1  0  0  0  0
  7 18  1  0  0  0  0
  8  9  1  0  0  0  0
  8 19  1  0  0  0  0
  9 10  1  0  0  0  0
  9 26  2  0  0  0  0
 10 21  1  0  0  0  0
 10 22  1  0  0  0  0
 15 24  1  0  0  0  0
 16 24  1  0  0  0  0
 20 26  1  0  0  0  0
 24 25  1  0  0  0  0
 26 27  1  0  0  0  0
M  CHG  3  23  -1  24   1  26   1
M  END
