culgi_03
 OpenBabel02221920233D

 52 56  0  0  1  0  0  0  0  0999 V2000
    5.6107   -2.1140   -5.1801 C   0  0  0  0  0  0  0  0  0  0  0  0
    5.5315   -3.4301   -5.5913 C   0  0  0  0  0  0  0  0  0  0  0  0
    4.5993   -4.2783   -5.0163 C   0  0  0  0  0  0  0  0  0  0  0  0
    3.7497   -3.7984   -4.0257 C   0  0  0  0  0  0  0  0  0  0  0  0
    3.8356   -2.4748   -3.6147 C   0  0  0  0  0  0  0  0  0  0  0  0
    4.7635   -1.6334   -4.1938 C   0  0  0  0  0  0  0  0  0  0  0  0
    4.8823   -0.1895   -3.7797 C   0  0  1  0  0  0  0  0  0  0  0  0
    4.4291    0.4412   -4.5446 H   0  0  0  0  0  0  0  0  0  0  0  0
    4.2169    0.0246   -2.5355 O   0  0  0  0  0  0  0  0  0  0  0  0
    2.8697   -0.4613   -2.5264 C   0  0  1  0  0  0  0  0  0  0  0  0
    2.3446   -0.1017   -3.4113 H   0  0  0  0  0  0  0  0  0  0  0  0
    2.9016   -1.9907   -2.5337 C   0  0  0  0  0  0  0  0  0  0  0  0
    2.1536    0.0321   -1.2676 C   0  0  2  0  0  0  0  0  0  0  0  0
    0.7182   -0.4975   -1.2568 C   0  0  0  0  0  0  0  0  0  0  0  0
    0.0021   -0.0041    0.0020 C   0  0  2  0  0  0  0  0  0  0  0  0
   -0.0187    1.5258    0.0104 C   0  0  0  0  0  0  0  0  0  0  0  0
    1.4167    2.0553   -0.0004 C   0  0  2  0  0  0  0  0  0  0  0  0
    2.1328    1.5619   -1.2592 C   0  0  0  0  0  0  0  0  0  0  0  0
    2.1567    1.5485    1.2391 C   0  0  0  0  0  0  0  0  0  0  0  0
    2.1775    0.0187    1.2307 C   0  0  1  0  0  0  0  0  0  0  0  0
    0.7421   -0.5109    1.2415 C   0  0  0  0  0  0  0  0  0  0  0  0
    2.8936   -0.4747   -0.0281 C   0  0  0  0  0  0  0  0  0  0  0  0
    6.3608    0.1755   -3.6329 C   0  0  0  0  0  0  0  0  0  0  0  0
    2.8325   -4.6268   -3.4584 O   0  0  0  0  0  0  0  0  0  0  0  0
    4.5151   -5.5745   -5.4193 O   0  0  0  0  0  0  0  0  0  0  0  0
    6.3378   -1.4545   -5.6304 H   0  0  0  0  0  0  0  0  0  0  0  0
    6.1949   -3.7973   -6.3604 H   0  0  0  0  0  0  0  0  0  0  0  0
    3.2532   -2.3505   -1.5667 H   0  0  0  0  0  0  0  0  0  0  0  0
    1.8979   -2.3733   -2.7188 H   0  0  0  0  0  0  0  0  0  0  0  0
    0.7330   -1.5874   -1.2628 H   0  0  0  0  0  0  0  0  0  0  0  0
    0.1910   -0.1364   -2.1398 H   0  0  0  0  0  0  0  0  0  0  0  0
   -1.0205   -0.3814    0.0098 H   0  0  0  0  0  0  0  0  0  0  0  0
   -0.5459    1.8868   -0.8726 H   0  0  0  0  0  0  0  0  0  0  0  0
   -0.5289    1.8773    0.9072 H   0  0  0  0  0  0  0  0  0  0  0  0
    1.4019    3.1452    0.0056 H   0  0  0  0  0  0  0  0  0  0  0  0
    1.6057    1.9230   -2.1423 H   0  0  0  0  0  0  0  0  0  0  0  0
    3.1554    1.9392   -1.2670 H   0  0  0  0  0  0  0  0  0  0  0  0
    1.6465    1.9000    2.1359 H   0  0  0  0  0  0  0  0  0  0  0  0
    3.1793    1.9258    1.2314 H   0  0  0  0  0  0  0  0  0  0  0  0
    2.7046   -0.3424    2.1137 H   0  0  0  0  0  0  0  0  0  0  0  0
    0.2319   -0.1594    2.1383 H   0  0  0  0  0  0  0  0  0  0  0  0
    0.7568   -1.6008    1.2356 H   0  0  0  0  0  0  0  0  0  0  0  0
    3.9162   -0.0975   -0.0359 H   0  0  0  0  0  0  0  0  0  0  0  0
    2.9084   -1.5646   -0.0341 H   0  0  0  0  0  0  0  0  0  0  0  0
    6.8149   -0.4500   -2.8644 H   0  0  0  0  0  0  0  0  0  0  0  0
    6.8712    0.0128   -4.5822 H   0  0  0  0  0  0  0  0  0  0  0  0
    5.9612    1.7785   -2.4045 H   0  0  0  0  0  0  0  0  0  0  0  0
    7.4485    1.8540   -3.1450 H   0  0  0  0  0  0  0  0  0  0  0  0
    1.9782   -4.6367   -3.9113 H   0  0  0  0  0  0  0  0  0  0  0  0
    3.9016   -5.7193   -6.1525 H   0  0  0  0  0  0  0  0  0  0  0  0
    6.4700    1.5991   -3.2686 N   0  3  0  0  0  0  0  0  0  0  0  0
    6.0670    2.1716   -4.0197 H   0  0  0  0  0  0  0  0  0  0  0  0
  1  6  2  0  0  0  0
  1  2  1  0  0  0  0
  1 26  1  0  0  0  0
  2  3  2  0  0  0  0
  2 27  1  0  0  0  0
  3  4  1  0  0  0  0
  3 25  1  0  0  0  0
  4  5  2  0  0  0  0
  4 24  1  0  0  0  0
  5 12  1  0  0  0  0
  5  6  1  0  0  0  0
  6  7  1  0  0  0  0
  7  8  1  6  0  0  0
  7  9  1  0  0  0  0
  7 23  1  0  0  0  0
  9 10  1  0  0  0  0
 10 11  1  6  0  0  0
 10 12  1  0  0  0  0
 10 13  1  0  0  0  0
 12 28  1  0  0  0  0
 12 29  1  0  0  0  0
 13 18  1  1  0  0  0
 13 22  1  0  0  0  0
 13 14  1  0  0  0  0
 14 15  1  0  0  0  0
 14 30  1  0  0  0  0
 14 31  1  0  0  0  0
 15 21  1  0  0  0  0
 15 16  1  0  0  0  0
 15 32  1  1  0  0  0
 16 17  1  0  0  0  0
 16 33  1  0  0  0  0
 16 34  1  0  0  0  0
 17 18  1  0  0  0  0
 17 19  1  0  0  0  0
 17 35  1  1  0  0  0
 18 36  1  0  0  0  0
 18 37  1  0  0  0  0
 19 20  1  0  0  0  0
 19 38  1  0  0  0  0
 19 39  1  0  0  0  0
 20 21  1  0  0  0  0
 20 22  1  0  0  0  0
 20 40  1  1  0  0  0
 21 41  1  0  0  0  0
 21 42  1  0  0  0  0
 22 43  1  0  0  0  0
 22 44  1  0  0  0  0
 23 45  1  0  0  0  0
 23 46  1  0  0  0  0
 23 51  1  0  0  0  0
 24 49  1  0  0  0  0
 25 50  1  0  0  0  0
 47 51  1  0  0  0  0
 48 51  1  0  0  0  0
 51 52  1  0  0  0  0
M  CHG  1  51   1
M  END
