mol24
 OpenBabel02221920213D

 41 43  0  0  1  0  0  0  0  0999 V2000
   -3.6895   -7.1203   -5.4413 C   0  0  0  0  0  0  0  0  0  0  0  0
   -3.6435   -6.6821   -4.0368 C   0  0  0  0  0  0  0  0  0  0  0  0
   -3.6068   -6.3327   -2.9166 C   0  0  0  0  0  0  0  0  0  0  0  0
   -3.5608   -5.8945   -1.5121 C   0  0  0  0  0  0  0  0  0  0  0  0
   -3.2470   -4.4779   -1.4570 O   0  0  0  0  0  0  0  0  0  0  0  0
   -3.1667   -3.9159   -0.2344 C   0  0  0  0  0  0  0  0  0  0  0  0
   -3.3539   -4.5916    0.7586 O   0  0  0  0  0  0  0  0  0  0  0  0
   -2.8527   -2.4857   -0.1019 C   0  0  0  0  0  0  0  0  0  0  0  0
   -3.8963   -1.5558   -0.0845 C   0  0  0  0  0  0  0  0  0  0  0  0
   -2.4308    0.1613    0.1344 C   0  0  0  0  0  0  0  0  0  0  0  0
   -1.2920   -0.6806    0.1292 C   0  0  0  0  0  0  0  0  0  0  0  0
   -1.5065   -2.0832    0.0043 C   0  0  0  0  0  0  0  0  0  0  0  0
   -0.4637   -2.9890   -0.0111 N   0  0  0  0  0  0  0  0  0  0  0  0
   -0.0036   -0.0149    0.2534 C   0  0  0  0  0  0  0  0  0  0  0  0
   -0.0241    1.3323    0.3598 C   0  0  0  0  0  0  0  0  0  0  0  0
   -1.7411    1.7788    0.3086 S   0  0  0  0  0  0  0  0  0  0  0  0
    1.1524    2.2491    0.4979 C   0  0  0  0  0  0  0  0  0  0  0  0
    2.3819    1.4101    0.8735 C   0  0  1  0  0  0  0  0  0  0  0  0
    2.2947    1.0711    1.9057 H   0  0  0  0  0  0  0  0  0  0  0  0
    2.4530    0.1988   -0.0610 C   0  0  0  0  0  0  0  0  0  0  0  0
    1.3203   -0.7747    0.2651 C   0  0  0  0  0  0  0  0  0  0  0  0
    3.5641    2.1993    0.7263 O   0  0  0  0  0  0  0  0  0  0  0  0
   -5.3152   -2.0497   -0.2024 C   0  0  0  0  0  0  0  0  0  0  0  0
   -3.9251   -8.1837   -5.4826 H   0  0  0  0  0  0  0  0  0  0  0  0
   -4.4568   -6.5572   -5.9726 H   0  0  0  0  0  0  0  0  0  0  0  0
   -2.7207   -6.9443   -5.9087 H   0  0  0  0  0  0  0  0  0  0  0  0
   -2.7935   -6.4576   -0.9807 H   0  0  0  0  0  0  0  0  0  0  0  0
   -4.5297   -6.0704   -1.0447 H   0  0  0  0  0  0  0  0  0  0  0  0
    0.4051   -2.7345    0.3371 H   0  0  0  0  0  0  0  0  0  0  0  0
   -0.6002   -3.8797   -0.3703 H   0  0  0  0  0  0  0  0  0  0  0  0
    1.3326    2.7588   -0.4485 H   0  0  0  0  0  0  0  0  0  0  0  0
    0.9557    2.9820    1.2804 H   0  0  0  0  0  0  0  0  0  0  0  0
    3.4114   -0.3037    0.0695 H   0  0  0  0  0  0  0  0  0  0  0  0
    2.3577    0.5324   -1.0944 H   0  0  0  0  0  0  0  0  0  0  0  0
    1.4839   -1.2078    1.2519 H   0  0  0  0  0  0  0  0  0  0  0  0
    1.2931   -1.5670   -0.4831 H   0  0  0  0  0  0  0  0  0  0  0  0
    3.5857    2.9844    1.2904 H   0  0  0  0  0  0  0  0  0  0  0  0
   -5.7136   -2.2511    0.7920 H   0  0  0  0  0  0  0  0  0  0  0  0
   -5.9250   -1.2898   -0.6911 H   0  0  0  0  0  0  0  0  0  0  0  0
   -5.3332   -2.9654   -0.7933 H   0  0  0  0  0  0  0  0  0  0  0  0
   -3.7212   -0.2189    0.0321 N   0  0  0  0  0  0  0  0  0  0  0  0
  1  2  1  0  0  0  0
  1 24  1  0  0  0  0
  1 25  1  0  0  0  0
  1 26  1  0  0  0  0
  2  3  3  0  0  0  0
  3  4  1  0  0  0  0
  4  5  1  0  0  0  0
  4 27  1  0  0  0  0
  4 28  1  0  0  0  0
  5  6  1  0  0  0  0
  6  7  2  0  0  0  0
  6  8  1  0  0  0  0
  8 12  2  0  0  0  0
  8  9  1  0  0  0  0
  9 23  1  0  0  0  0
  9 41  2  0  0  0  0
 10 16  1  0  0  0  0
 10 11  2  0  0  0  0
 10 41  1  0  0  0  0
 11 12  1  0  0  0  0
 11 14  1  0  0  0  0
 12 13  1  0  0  0  0
 13 29  1  0  0  0  0
 13 30  1  0  0  0  0
 14 21  1  0  0  0  0
 14 15  2  0  0  0  0
 15 16  1  0  0  0  0
 15 17  1  0  0  0  0
 17 18  1  0  0  0  0
 17 31  1  0  0  0  0
 17 32  1  0  0  0  0
 18 19  1  1  0  0  0
 18 20  1  0  0  0  0
 18 22  1  0  0  0  0
 20 21  1  0  0  0  0
 20 33  1  0  0  0  0
 20 34  1  0  0  0  0
 21 35  1  0  0  0  0
 21 36  1  0  0  0  0
 22 37  1  0  0  0  0
 23 38  1  0  0  0  0
 23 39  1  0  0  0  0
 23 40  1  0  0  0  0
M  END
