1a28_STR_1_A_1__C__
 OpenBabel08091015423D
Created by: Ligand Depot
 53 56  0  0  0  0  0  0  0  0999 V2000
   21.2060    9.9350   63.0810 C   0  0  0  0  0  0  0  0  0  0  0  0
   21.2410    9.4460   64.5510 C   0  0  0  0  0  0  0  0  0  0  0  0
   22.0000    8.1250   64.6300 C   0  0  0  0  0  0  0  0  0  0  0  0
   21.7010    7.3010   65.5120 O   0  0  0  0  0  0  0  0  0  0  0  0
   23.1180    7.8720   63.7340 C   0  0  0  0  0  0  0  0  0  0  0  0
   23.4530    8.7270   62.7850 C   0  0  0  0  0  0  0  0  0  0  0  0
   24.6970    8.4430   61.9510 C   0  0  0  0  0  0  0  0  0  0  0  0
   24.4490    8.6370   60.4430 C   0  0  0  0  0  0  0  0  0  0  0  0
   23.7890    9.9970   60.0980 C   0  0  2  0  0  0  0  0  0  0  0  0
   22.4340   10.0950   60.8720 C   0  0  1  0  0  0  0  0  0  0  0  0
   22.6140   10.0230   62.4340 C   0  0  1  0  0  0  0  0  0  0  0  0
   21.6330   11.3540   60.4500 C   0  0  0  0  0  0  0  0  0  0  0  0
   21.4320   11.4340   58.9110 C   0  0  0  0  0  0  0  0  0  0  0  0
   22.7860   11.4040   58.1690 C   0  0  1  0  0  0  0  0  0  0  0  0
   23.4830   10.0600   58.5980 C   0  0  1  0  0  0  0  0  0  0  0  0
   24.6740    9.9180   57.6180 C   0  0  0  0  0  0  0  0  0  0  0  0
   24.0720   10.4500   56.2670 C   0  0  0  0  0  0  0  0  0  0  0  0
   22.7140   11.1490   56.6270 C   0  0  2  0  0  0  0  0  0  0  0  0
   23.6590   12.6770   58.4540 C   0  0  0  0  0  0  0  0  0  0  0  0
   23.4270   11.2460   63.0070 C   0  0  0  0  0  0  0  0  0  0  0  0
   22.3750   12.3880   55.7810 C   0  0  0  0  0  0  0  0  0  0  0  0
   23.2120   12.8760   55.0520 O   0  0  0  0  0  0  0  0  0  0  0  0
   21.0090   12.9760   55.8570 C   0  0  0  0  0  0  0  0  0  0  0  0
   20.7276   10.8908   63.0317 H   0  0  0  0  0  0  0  0  0  0  0  0
   20.6527    9.2078   62.5243 H   0  0  0  0  0  0  0  0  0  0  0  0
   20.2458    9.3244   64.9248 H   0  0  0  0  0  0  0  0  0  0  0  0
   21.7412   10.1758   65.1528 H   0  0  0  0  0  0  0  0  0  0  0  0
   23.6630    7.0024   63.8428 H   0  0  0  0  0  0  0  0  0  0  0  0
   25.0364    7.4453   62.1362 H   0  0  0  0  0  0  0  0  0  0  0  0
   25.4467    9.1476   62.2449 H   0  0  0  0  0  0  0  0  0  0  0  0
   23.8391    7.8388   60.0744 H   0  0  0  0  0  0  0  0  0  0  0  0
   25.4085    8.6310   59.9695 H   0  0  0  0  0  0  0  0  0  0  0  0
   24.4496   10.7944   60.3676 H   0  0  0  0  0  0  0  0  0  0  0  0
   21.8644    9.2323   60.5958 H   0  0  0  0  0  0  0  0  0  0  0  0
   22.1333   12.2343   60.7960 H   0  0  0  0  0  0  0  0  0  0  0  0
   20.6637   11.2834   60.8976 H   0  0  0  0  0  0  0  0  0  0  0  0
   20.8968   12.3254   58.6584 H   0  0  0  0  0  0  0  0  0  0  0  0
   20.8651   10.5799   58.6043 H   0  0  0  0  0  0  0  0  0  0  0  0
   22.8549    9.1982   58.5100 H   0  0  0  0  0  0  0  0  0  0  0  0
   24.9920    8.9000   57.5319 H   0  0  0  0  0  0  0  0  0  0  0  0
   25.5473   10.4506   57.9320 H   0  0  0  0  0  0  0  0  0  0  0  0
   23.9144    9.6459   55.5789 H   0  0  0  0  0  0  0  0  0  0  0  0
   24.7422   11.1360   55.7925 H   0  0  0  0  0  0  0  0  0  0  0  0
   21.8840   10.5207   56.3794 H   0  0  0  0  0  0  0  0  0  0  0  0
   23.7063   12.8487   59.5091 H   0  0  0  0  0  0  0  0  0  0  0  0
   23.2439   13.5295   57.9582 H   0  0  0  0  0  0  0  0  0  0  0  0
   24.6482   12.5163   58.0791 H   0  0  0  0  0  0  0  0  0  0  0  0
   23.5197   11.1475   64.0684 H   0  0  0  0  0  0  0  0  0  0  0  0
   22.9363   12.1646   62.7617 H   0  0  0  0  0  0  0  0  0  0  0  0
   24.4028   11.2563   62.5682 H   0  0  0  0  0  0  0  0  0  0  0  0
   20.4160   12.4137   56.5477 H   0  0  0  0  0  0  0  0  0  0  0  0
   20.5512   12.9757   54.8899 H   0  0  0  0  0  0  0  0  0  0  0  0
   21.0801   13.9880   56.1971 H   0  0  0  0  0  0  0  0  0  0  0  0
  1  2  1  0  0  0  0
  1 11  1  0  0  0  0
  1 24  1  0  0  0  0
  1 25  1  0  0  0  0
  2  3  1  0  0  0  0
  2 26  1  0  0  0  0
  2 27  1  0  0  0  0
  3  4  2  0  0  0  0
  3  5  1  0  0  0  0
  5  6  2  0  0  0  0
  5 28  1  0  0  0  0
  6  7  1  0  0  0  0
  6 11  1  0  0  0  0
  7  8  1  0  0  0  0
  7 29  1  0  0  0  0
  7 30  1  0  0  0  0
  8 31  1  0  0  0  0
  8 32  1  0  0  0  0
  9  8  1  0  0  0  0
  9 33  1  6  0  0  0
 10  9  1  1  0  0  0
 10 11  1  0  0  0  0
 10 12  1  0  0  0  0
 10 34  1  0  0  0  0
 11 20  1  1  0  0  0
 12 13  1  0  0  0  0
 12 35  1  0  0  0  0
 12 36  1  0  0  0  0
 13 14  1  0  0  0  0
 13 37  1  0  0  0  0
 13 38  1  0  0  0  0
 14 19  1  1  0  0  0
 15 14  1  1  0  0  0
 15  9  1  0  0  0  0
 15 16  1  0  0  0  0
 15 39  1  0  0  0  0
 16 17  1  0  0  0  0
 16 40  1  0  0  0  0
 16 41  1  0  0  0  0
 17 18  1  0  0  0  0
 17 42  1  0  0  0  0
 17 43  1  0  0  0  0
 18 14  1  0  0  0  0
 18 21  1  1  0  0  0
 18 44  1  0  0  0  0
 19 45  1  0  0  0  0
 19 46  1  0  0  0  0
 19 47  1  0  0  0  0
 20 48  1  0  0  0  0
 20 49  1  0  0  0  0
 20 50  1  0  0  0  0
 21 22  2  0  0  0  0
 21 23  1  0  0  0  0
 23 51  1  0  0  0  0
 23 52  1  0  0  0  0
 23 53  1  0  0  0  0
M  END
$$$$
