10GS_VWW_A_210
     RDKit          3D

 60 61  0  0  0  0  0  0  0  0999 V2000
   15.0880   10.7980   23.5470 N   0  0  0  0  0  0  0  0  0  0  0  0
   15.0100    9.9870   24.7920 C   0  0  0  0  0  0  0  0  0  0  0  0
   16.1150    8.9240   24.8300 C   0  0  0  0  0  0  0  0  0  0  0  0
   16.5200    8.5150   25.9400 O   0  0  0  0  0  0  0  0  0  0  0  0
   13.6350    9.3270   24.9080 C   0  0  0  0  0  0  0  0  0  0  0  0
   13.3940    8.7080   26.2710 C   0  0  0  0  0  0  0  0  0  0  0  0
   12.0450    8.0460   26.4020 C   0  0  0  0  0  0  0  0  0  0  0  0
   11.2930    7.9360   25.4350 O   0  0  0  0  0  0  0  0  0  0  0  0
   16.5780    8.5240   23.7440 O   0  0  0  0  0  0  0  0  0  0  0  0
   11.7260    7.6420   27.6280 N   0  0  0  0  0  0  0  0  0  0  0  0
   10.4720    6.9670   27.9340 C   0  0  0  0  0  0  0  0  0  0  0  0
   10.7260    5.4840   28.2060 C   0  0  0  0  0  0  0  0  0  0  0  0
   11.2910    4.5240   26.8100 S   0  0  0  0  0  0  0  0  0  0  0  0
    9.7290    3.8040   26.2620 C   0  0  0  0  0  0  0  0  0  0  0  0
    8.9300    3.1710   27.3700 C   0  0  0  0  0  0  0  0  0  0  0  0
    7.6400    3.6140   27.6500 C   0  0  0  0  0  0  0  0  0  0  0  0
    9.4640    2.1350   28.1330 C   0  0  0  0  0  0  0  0  0  0  0  0
    6.8930    3.0370   28.6730 C   0  0  0  0  0  0  0  0  0  0  0  0
    8.7230    1.5500   29.1610 C   0  0  0  0  0  0  0  0  0  0  0  0
    7.4370    2.0010   29.4300 C   0  0  0  0  0  0  0  0  0  0  0  0
    9.8340    7.5500   29.1800 C   0  0  0  0  0  0  0  0  0  0  0  0
   10.5220    8.0230   30.0840 O   0  0  0  0  0  0  0  0  0  0  0  0
    8.5120    7.4680   29.2290 N   0  0  0  0  0  0  0  0  0  0  0  0
    7.7400    7.9330   30.3660 C   0  0  0  0  0  0  0  0  0  0  0  0
    6.5550    7.0620   30.6330 C   0  0  0  0  0  0  0  0  0  0  0  0
    5.3300    7.3150   30.0270 C   0  0  0  0  0  0  0  0  0  0  0  0
    4.2500    6.4590   30.2200 C   0  0  0  0  0  0  0  0  0  0  0  0
    4.3920    5.3390   31.0270 C   0  0  0  0  0  0  0  0  0  0  0  0
    5.6110    5.0810   31.6400 C   0  0  0  0  0  0  0  0  0  0  0  0
    6.6830    5.9410   31.4410 C   0  0  0  0  0  0  0  0  0  0  0  0
    7.4520    9.4330   30.3540 C   0  0  0  0  0  0  0  0  0  0  0  0
    7.1160    9.9570   31.4330 O   0  0  0  0  0  0  0  0  0  0  0  0
    7.5690   10.0680   29.2840 O   0  0  0  0  0  0  0  0  0  0  0  0
   15.1838   11.7940   23.7915 H   0  0  0  0  0  0  0  0  0  0  0  0
   15.9042   10.5002   22.9938 H   0  0  0  0  0  0  0  0  0  0  0  0
   15.1567   10.6613   25.6486 H   0  0  0  0  0  0  0  0  0  0  0  0
   12.8628   10.0891   24.7265 H   0  0  0  0  0  0  0  0  0  0  0  0
   13.5921    8.5177   24.1642 H   0  0  0  0  0  0  0  0  0  0  0  0
   14.1719    7.9517   26.4522 H   0  0  0  0  0  0  0  0  0  0  0  0
   13.4261    9.5247   27.0071 H   0  0  0  0  0  0  0  0  0  0  0  0
   17.3271    7.8768   23.7336 H   0  0  0  0  0  0  0  0  0  0  0  0
   12.3936    7.8135   28.3934 H   0  0  0  0  0  0  0  0  0  0  0  0
    9.8070    7.1009   27.0680 H   0  0  0  0  0  0  0  0  0  0  0  0
   11.4878    5.4113   28.9962 H   0  0  0  0  0  0  0  0  0  0  0  0
    9.7502    5.0598   28.4853 H   0  0  0  0  0  0  0  0  0  0  0  0
    9.1210    4.5998   25.8069 H   0  0  0  0  0  0  0  0  0  0  0  0
    9.9775    3.0042   25.5489 H   0  0  0  0  0  0  0  0  0  0  0  0
    7.2055    4.4307   27.0549 H   0  0  0  0  0  0  0  0  0  0  0  0
   10.4815    1.7738   27.9229 H   0  0  0  0  0  0  0  0  0  0  0  0
    5.8755    3.3980   28.8835 H   0  0  0  0  0  0  0  0  0  0  0  0
    9.1565    0.7334   29.7570 H   0  0  0  0  0  0  0  0  0  0  0  0
    6.8495    1.5416   30.2385 H   0  0  0  0  0  0  0  0  0  0  0  0
    8.0124    7.0575   28.4273 H   0  0  0  0  0  0  0  0  0  0  0  0
    8.3868    7.8195   31.2485 H   0  0  0  0  0  0  0  0  0  0  0  0
    5.2129    8.2022   29.3874 H   0  0  0  0  0  0  0  0  0  0  0  0
    3.2859    6.6696   29.7340 H   0  0  0  0  0  0  0  0  0  0  0  0
    3.5419    4.6580   31.1805 H   0  0  0  0  0  0  0  0  0  0  0  0
    5.7274    4.1960   32.2828 H   0  0  0  0  0  0  0  0  0  0  0  0
    7.6457    5.7310   31.9300 H   0  0  0  0  0  0  0  0  0  0  0  0
    7.7484   11.0414   29.3032 H   0  0  0  0  0  0  0  0  0  0  0  0
  1  2  1  0
  2  3  1  0
  2  5  1  0
  3  4  2  0
  3  9  1  0
  5  6  1  0
  6  7  1  0
  7  8  2  0
 10 11  1  0
 11 12  1  0
 11 21  1  0
 12 13  1  0
 13 14  1  0
 14 15  1  0
 15 16  2  0
 15 17  1  0
 16 18  1  0
 17 19  2  0
 18 20  2  0
 19 20  1  0
 21 22  2  0
 23 24  1  0
 24 25  1  0
 24 31  1  0
 25 26  2  0
 25 30  1  0
 26 27  1  0
 27 28  2  0
 28 29  1  0
 29 30  2  0
 31 32  2  0
 31 33  1  0
  7 10  1  0
 21 23  1  0
  1 34  1  0
  1 35  1  0
  2 36  1  0
  5 37  1  0
  5 38  1  0
  6 39  1  0
  6 40  1  0
  9 41  1  0
 10 42  1  0
 11 43  1  0
 12 44  1  0
 12 45  1  0
 14 46  1  0
 14 47  1  0
 16 48  1  0
 17 49  1  0
 18 50  1  0
 19 51  1  0
 20 52  1  0
 23 53  1  0
 24 54  1  0
 26 55  1  0
 27 56  1  0
 28 57  1  0
 29 58  1  0
 30 59  1  0
 33 60  1  0
A    1
N
A    2
CA
A    3
C
A    4
O
A    5
CB
A    6
CG
A    7
CD
A    8
OE1
A    9
OXT
A   10
N1
A   11
CA1
A   12
CB1
A   13
SG
A   14
CD1
A   15
CE
A   16
CZ1
A   17
CZ2
A   18
CT1
A   19
CT2
A   20
CH
A   21
C1
A   22
O1
A   23
N2
A   24
CA2
A   25
CB2
A   26
CG1
A   27
CD11
A   28
CE1
A   29
CD2
A   30
CG2
A   31
C2
A   32
O2
A   33
OXT1
M  END
