1A4Q_DPC_A_466
     RDKit          3D

 55 56  0  0  0  0  0  0  0  0999 V2000
   -2.4160   58.3090   -5.4640 C   0  0  0  0  0  0  0  0  0  0  0  0
   -3.3710   59.0640   -5.3230 O   0  0  0  0  0  0  0  0  0  0  0  0
   -1.5990   58.1890   -4.5610 O   0  0  0  0  0  0  0  0  0  0  0  0
   -2.3440   57.4690   -6.6730 C   0  0  0  0  0  0  0  0  0  0  0  0
   -1.4120   56.5180   -6.7960 C   0  0  0  0  0  0  0  0  0  0  0  0
   -1.3790   55.6270   -8.0080 C   0  0  0  0  0  0  0  0  0  0  0  0
   -2.2120   56.1910   -9.1560 C   0  0  0  0  0  0  0  0  0  0  0  0
   -2.4990   55.1260  -10.1100 N   0  0  0  0  0  0  0  0  0  0  0  0
   -2.1370   55.1410  -11.4020 C   0  0  0  0  0  0  0  0  0  0  0  0
   -1.5630   56.1000  -11.8890 O   0  0  0  0  0  0  0  0  0  0  0  0
   -2.4430   53.8710  -12.2170 C   0  0  0  0  0  0  0  0  0  0  0  0
   -3.5280   56.7290   -8.5990 C   0  0  0  0  0  0  0  0  0  0  0  0
   -3.2930   57.6710   -7.5870 O   0  0  0  0  0  0  0  0  0  0  0  0
   -4.2550   57.5050   -9.6740 C   0  0  0  0  0  0  0  0  0  0  0  0
   -3.7430   58.2630   -9.9970 O   0  0  0  0  0  0  0  0  0  0  0  0
   -5.3800   57.0300  -10.1910 N   0  0  0  0  0  0  0  0  0  0  0  0
   -5.9710   57.8100  -11.3010 C   0  0  0  0  0  0  0  0  0  0  0  0
   -5.3950   57.4170  -12.6650 C   0  0  0  0  0  0  0  0  0  0  0  0
   -6.0130   58.3010  -13.7300 C   0  0  0  0  0  0  0  0  0  0  0  0
   -5.5860   59.6390  -13.8840 C   0  0  0  0  0  0  0  0  0  0  0  0
   -7.0380   57.8160  -14.5550 C   0  0  0  0  0  0  0  0  0  0  0  0
   -6.2020   60.4850  -14.8230 C   0  0  0  0  0  0  0  0  0  0  0  0
   -7.6510   58.6560  -15.4900 C   0  0  0  0  0  0  0  0  0  0  0  0
   -7.2490   59.9920  -15.6230 C   0  0  0  0  0  0  0  0  0  0  0  0
   -6.0810   55.8520   -9.6850 C   0  0  0  0  0  0  0  0  0  0  0  0
   -6.9620   56.1710   -8.4650 C   0  0  0  0  0  0  0  0  0  0  0  0
   -7.8370   57.4310   -8.6020 C   0  0  0  0  0  0  0  0  0  0  0  0
   -0.0140   55.4590   -8.4300 N   0  0  0  0  0  0  0  0  0  0  0  0
   -1.8945   58.2324   -3.6171 H   0  0  0  0  0  0  0  0  0  0  0  0
   -0.6615   56.3857   -6.0027 H   0  0  0  0  0  0  0  0  0  0  0  0
   -1.8169   54.6563   -7.7323 H   0  0  0  0  0  0  0  0  0  0  0  0
   -1.6576   56.9988   -9.6561 H   0  0  0  0  0  0  0  0  0  0  0  0
   -3.0164   54.3038   -9.7677 H   0  0  0  0  0  0  0  0  0  0  0  0
   -2.6445   53.0349  -11.5312 H   0  0  0  0  0  0  0  0  0  0  0  0
   -3.3247   54.0458  -12.8510 H   0  0  0  0  0  0  0  0  0  0  0  0
   -1.5784   53.6250  -12.8510 H   0  0  0  0  0  0  0  0  0  0  0  0
   -4.0984   55.8635   -8.2309 H   0  0  0  0  0  0  0  0  0  0  0  0
   -7.0574   57.6380  -11.3139 H   0  0  0  0  0  0  0  0  0  0  0  0
   -5.7317   58.8699  -11.1296 H   0  0  0  0  0  0  0  0  0  0  0  0
   -4.3036   57.5539  -12.6586 H   0  0  0  0  0  0  0  0  0  0  0  0
   -5.6231   56.3620  -12.8768 H   0  0  0  0  0  0  0  0  0  0  0  0
   -4.7632   60.0227  -13.2629 H   0  0  0  0  0  0  0  0  0  0  0  0
   -7.3618   56.7685  -14.4661 H   0  0  0  0  0  0  0  0  0  0  0  0
   -5.8670   61.5271  -14.9316 H   0  0  0  0  0  0  0  0  0  0  0  0
   -8.4571   58.2641  -16.1277 H   0  0  0  0  0  0  0  0  0  0  0  0
   -7.7489   60.6509  -16.3482 H   0  0  0  0  0  0  0  0  0  0  0  0
   -6.7191   55.4500  -10.4857 H   0  0  0  0  0  0  0  0  0  0  0  0
   -5.3222   55.1214   -9.3681 H   0  0  0  0  0  0  0  0  0  0  0  0
   -7.6266   55.3120   -8.2908 H   0  0  0  0  0  0  0  0  0  0  0  0
   -6.2714   56.3670   -7.6315 H   0  0  0  0  0  0  0  0  0  0  0  0
   -8.0979   57.8067   -7.6016 H   0  0  0  0  0  0  0  0  0  0  0  0
   -7.2813   58.2054   -9.1511 H   0  0  0  0  0  0  0  0  0  0  0  0
   -8.7567   57.1808   -9.1511 H   0  0  0  0  0  0  0  0  0  0  0  0
    0.5945   55.3841   -7.6023 H   0  0  0  0  0  0  0  0  0  0  0  0
    0.0677   54.6016   -8.9949 H   0  0  0  0  0  0  0  0  0  0  0  0
  1  2  2  0
  1  3  1  0
  1  4  1  0
  4  5  2  0
  4 13  1  0
  5  6  1  0
  6  7  1  0
  6 28  1  0
  7  8  1  0
  7 12  1  0
  8  9  1  0
  9 10  2  0
  9 11  1  0
 12 13  1  0
 12 14  1  0
 14 15  2  0
 14 16  1  0
 16 17  1  0
 16 25  1  0
 17 18  1  0
 18 19  1  0
 19 20  2  0
 19 21  1  0
 20 22  1  0
 21 23  2  0
 22 24  2  0
 23 24  1  0
 25 26  1  0
 26 27  1  0
  3 29  1  0
  5 30  1  0
  6 31  1  0
  7 32  1  0
  8 33  1  0
 11 34  1  0
 11 35  1  0
 11 36  1  0
 12 37  1  0
 17 38  1  0
 17 39  1  0
 18 40  1  0
 18 41  1  0
 20 42  1  0
 21 43  1  0
 22 44  1  0
 23 45  1  0
 24 46  1  0
 25 47  1  0
 25 48  1  0
 26 49  1  0
 26 50  1  0
 27 51  1  0
 27 52  1  0
 27 53  1  0
 28 54  1  0
 28 55  1  0
A    1
C1
A    2
O1A
A    3
O1B
A    4
C2
A    5
C3
A    6
C4
A    7
C5
A    8
N5
A    9
C10
A   10
O10
A   11
C11
A   12
C6
A   13
O6
A   14
C7
A   15
O7
A   16
N8
A   17
C81
A   18
C82
A   19
CG
A   20
CD1
A   21
CD2
A   22
CE1
A   23
CE2
A   24
CZ
A   25
C9
A   26
C91
A   27
C92
A   28
NE
M  END
