1A5V_Y3_A_1
     RDKit          3D

 34 35  0  0  0  0  0  0  0  0999 V2000
   37.2550   26.6020   58.5650 C   0  0  0  0  0  0  0  0  0  0  0  0
   36.7650   25.3980   58.1140 C   0  0  0  0  0  0  0  0  0  0  0  0
   37.6340   24.3720   57.8150 C   0  0  0  0  0  0  0  0  0  0  0  0
   38.9990   24.5560   57.9280 C   0  0  0  0  0  0  0  0  0  0  0  0
   39.4930   25.7680   58.3650 C   0  0  0  0  0  0  0  0  0  0  0  0
   38.6250   26.8000   58.6820 C   0  0  0  0  0  0  0  0  0  0  0  0
   39.1290   28.0210   59.1110 C   0  0  0  0  0  0  0  0  0  0  0  0
   40.5050   28.1920   59.2220 C   0  0  0  0  0  0  0  0  0  0  0  0
   41.3660   27.1500   58.9090 C   0  0  0  0  0  0  0  0  0  0  0  0
   40.8580   25.9420   58.4820 C   0  0  0  0  0  0  0  0  0  0  0  0
   36.9840   22.7880   57.2870 S   0  0  0  0  0  0  0  0  0  0  0  0
   36.2700   22.2070   58.3790 O   0  0  0  0  0  0  0  0  0  0  0  0
   38.0650   21.9290   56.9130 O   0  0  0  0  0  0  0  0  0  0  0  0
   36.1060   22.9840   56.1740 O   0  0  0  0  0  0  0  0  0  0  0  0
   38.2810   29.0120   59.4140 N   0  0  0  0  0  0  0  0  0  0  0  0
   38.6060   30.3040   59.4440 C   0  0  0  0  0  0  0  0  0  0  0  0
   39.7330   30.7300   59.1980 O   0  0  0  0  0  0  0  0  0  0  0  0
   37.4790   31.2650   59.8130 C   0  0  0  0  0  0  0  0  0  0  0  0
   43.1540   27.3440   59.0480 S   0  0  0  0  0  0  0  0  0  0  0  0
   43.7810   26.2680   58.3560 O   0  0  0  0  0  0  0  0  0  0  0  0
   43.5280   27.3100   60.4180 O   0  0  0  0  0  0  0  0  0  0  0  0
   43.5620   28.5970   58.4910 O   0  0  0  0  0  0  0  0  0  0  0  0
   36.3780   27.6000   58.8850 O   0  0  0  0  0  0  0  0  0  0  0  0
   35.6811   25.2550   57.9924 H   0  0  0  0  0  0  0  0  0  0  0  0
   39.6892   23.7391   57.6705 H   0  0  0  0  0  0  0  0  0  0  0  0
   40.9119   29.1567   59.5591 H   0  0  0  0  0  0  0  0  0  0  0  0
   41.5405   25.1157   58.2342 H   0  0  0  0  0  0  0  0  0  0  0  0
   35.1951   23.1874   56.5041 H   0  0  0  0  0  0  0  0  0  0  0  0
   37.3088   28.7577   59.6398 H   0  0  0  0  0  0  0  0  0  0  0  0
   37.3990   31.3332   60.9080 H   0  0  0  0  0  0  0  0  0  0  0  0
   37.6956   32.2606   59.3985 H   0  0  0  0  0  0  0  0  0  0  0  0
   36.5301   30.8938   59.3985 H   0  0  0  0  0  0  0  0  0  0  0  0
   43.7686   29.2316   59.2223 H   0  0  0  0  0  0  0  0  0  0  0  0
   36.1929   27.8107   59.8344 H   0  0  0  0  0  0  0  0  0  0  0  0
  1  2  2  0
  1  6  1  0
  1 23  1  0
  2  3  1  0
  3  4  2  0
  3 11  1  0
  4  5  1  0
  5  6  2  0
  5 10  1  0
  6  7  1  0
  7  8  2  0
  7 15  1  0
  8  9  1  0
  9 10  2  0
  9 19  1  0
 11 12  2  0
 11 13  2  0
 11 14  1  0
 15 16  1  0
 16 17  2  0
 16 18  1  0
 19 20  2  0
 19 21  2  0
 19 22  1  0
  2 24  1  0
  4 25  1  0
  8 26  1  0
 10 27  1  0
 14 28  1  0
 15 29  1  0
 18 30  1  0
 18 31  1  0
 18 32  1  0
 22 33  1  0
 23 34  1  0
A    1
C1
A    2
C2
A    3
C3
A    4
C4
A    5
C5
A    6
C6
A    7
C7
A    8
C8
A    9
C9
A   10
C10
A   11
S11
A   12
O12
A   13
O13
A   14
O14
A   15
N15
A   16
C16
A   17
O17
A   18
C18
A   19
S19
A   20
O20
A   21
O21
A   22
O22
A   23
O23
M  END
