1A72_PAD_A_378
     RDKit          3D

 71 75  0  0  0  0  0  0  0  0999 V2000
   13.2850    7.2780   26.7100 P   0  0  0  0  0  0  0  0  0  0  0  0
   12.0920    6.3560   26.7570 O   0  0  0  0  0  0  0  0  0  0  0  0
   14.4270    6.8800   25.8240 O   0  0  0  0  0  0  0  0  0  0  0  0
   13.9730    7.5990   28.1590 O   0  0  0  0  0  0  0  0  0  0  0  0
   13.7980    6.7580   29.3210 C   0  0  0  0  0  0  0  0  0  0  0  0
   15.1430    6.9470   30.0160 C   0  0  0  0  0  0  0  0  0  0  0  0
   15.1220    6.4420   31.3810 O   0  0  0  0  0  0  0  0  0  0  0  0
   16.2720    6.2820   29.2220 C   0  0  0  0  0  0  0  0  0  0  0  0
   17.4740    7.0600   29.2630 O   0  0  0  0  0  0  0  0  0  0  0  0
   16.5430    5.0720   30.0730 C   0  0  0  0  0  0  0  0  0  0  0  0
   17.9510    4.8030   29.9970 O   0  0  0  0  0  0  0  0  0  0  0  0
   16.2200    5.5450   31.4750 C   0  0  0  0  0  0  0  0  0  0  0  0
   15.9800    4.4660   32.4390 N   0  0  0  0  0  0  0  0  0  0  0  0
   15.4240    3.2520   32.2220 C   0  0  0  0  0  0  0  0  0  0  0  0
   15.3140    2.5900   33.3770 N   0  0  0  0  0  0  0  0  0  0  0  0
   15.8120    3.4370   34.2820 C   0  0  0  0  0  0  0  0  0  0  0  0
   15.8920    3.1780   35.6390 C   0  0  0  0  0  0  0  0  0  0  0  0
   15.6700    1.9730   36.1240 N   0  0  0  0  0  0  0  0  0  0  0  0
   16.4230    4.1580   36.3790 N   0  0  0  0  0  0  0  0  0  0  0  0
   16.8470    5.2990   35.8180 C   0  0  0  0  0  0  0  0  0  0  0  0
   16.7910    5.5520   34.5130 N   0  0  0  0  0  0  0  0  0  0  0  0
   16.2520    4.6150   33.7220 C   0  0  0  0  0  0  0  0  0  0  0  0
   12.9150    8.8450   26.4980 O   0  0  0  0  0  0  0  0  0  0  0  0
   11.6550    9.7330   27.0310 P   0  0  0  0  0  0  0  0  0  0  0  0
   11.3500   10.8240   26.0430 O   0  0  0  0  0  0  0  0  0  0  0  0
   12.0340   10.2310   28.4060 O   0  0  0  0  0  0  0  0  0  0  0  0
   10.5620    8.5170   27.0310 O   0  0  0  0  0  0  0  0  0  0  0  0
   10.4860    7.8810   28.3280 C   0  0  0  0  0  0  0  0  0  0  0  0
    9.2990    8.3790   29.1030 C   0  0  0  0  0  0  0  0  0  0  0  0
    9.1670    9.8020   29.2630 O   0  0  0  0  0  0  0  0  0  0  0  0
    8.1920    7.8510   28.2500 C   0  0  0  0  0  0  0  0  0  0  0  0
    8.1690    6.4290   28.3390 O   0  0  0  0  0  0  0  0  0  0  0  0
    7.0300    8.6550   28.7890 C   0  0  0  0  0  0  0  0  0  0  0  0
    6.5220    7.9370   29.9210 O   0  0  0  0  0  0  0  0  0  0  0  0
    7.7380    9.9510   29.1560 C   0  0  0  0  0  0  0  0  0  0  0  0
    7.5860   10.7680   27.9400 C   0  0  0  0  0  0  0  0  0  0  0  0
    8.2940   10.4270   26.7620 N   0  0  0  0  0  0  0  0  0  0  0  0
    8.2110   11.2490   25.6340 C   0  0  0  0  0  0  0  0  0  0  0  0
    8.9190   10.8770   24.3280 C   0  0  0  0  0  0  0  0  0  0  0  0
    9.2240   11.8070   23.5760 O   0  0  0  0  0  0  0  0  0  0  0  0
    9.1650    9.5750   24.0750 N   0  0  0  0  0  0  0  0  0  0  0  0
    7.4620   12.4230   25.6790 C   0  0  0  0  0  0  0  0  0  0  0  0
    6.7520   12.7410   26.8530 C   0  0  0  0  0  0  0  0  0  0  0  0
    6.8060   11.9150   27.9760 C   0  0  0  0  0  0  0  0  0  0  0  0
   15.1993    6.6109   26.3819 H   0  0  0  0  0  0  0  0  0  0  0  0
   12.9650    7.1050   29.9501 H   0  0  0  0  0  0  0  0  0  0  0  0
   13.5466    5.7118   29.0923 H   0  0  0  0  0  0  0  0  0  0  0  0
   15.3333    8.0296   30.0591 H   0  0  0  0  0  0  0  0  0  0  0  0
   16.0044    6.1184   28.1677 H   0  0  0  0  0  0  0  0  0  0  0  0
   17.7285    7.2247   30.2054 H   0  0  0  0  0  0  0  0  0  0  0  0
   15.9770    4.1764   29.7773 H   0  0  0  0  0  0  0  0  0  0  0  0
   18.3232    4.7319   30.9116 H   0  0  0  0  0  0  0  0  0  0  0  0
   17.1046    6.0548   31.8844 H   0  0  0  0  0  0  0  0  0  0  0  0
   15.1094    2.8673   31.2407 H   0  0  0  0  0  0  0  0  0  0  0  0
   15.6427    1.8249   37.1429 H   0  0  0  0  0  0  0  0  0  0  0  0
   15.5238    1.1792   35.4841 H   0  0  0  0  0  0  0  0  0  0  0  0
   17.2669    6.0735   36.4767 H   0  0  0  0  0  0  0  0  0  0  0  0
   10.3954    6.7934   28.1906 H   0  0  0  0  0  0  0  0  0  0  0  0
   11.3992    8.1234   28.8913 H   0  0  0  0  0  0  0  0  0  0  0  0
    9.3450    8.0514   30.1521 H   0  0  0  0  0  0  0  0  0  0  0  0
    8.2400    7.9755   27.1581 H   0  0  0  0  0  0  0  0  0  0  0  0
    8.1646    6.1580   29.2912 H   0  0  0  0  0  0  0  0  0  0  0  0
    6.1686    8.8321   28.1282 H   0  0  0  0  0  0  0  0  0  0  0  0
    6.8308    8.3734   30.7543 H   0  0  0  0  0  0  0  0  0  0  0  0
    7.3334   10.3337   30.1046 H   0  0  0  0  0  0  0  0  0  0  0  0
    8.8700    9.5735   26.7361 H   0  0  0  0  0  0  0  0  0  0  0  0
    9.2900    8.9135   24.8546 H   0  0  0  0  0  0  0  0  0  0  0  0
    9.2279    9.2423   23.1022 H   0  0  0  0  0  0  0  0  0  0  0  0
    7.4256   13.0936   24.8078 H   0  0  0  0  0  0  0  0  0  0  0  0
    6.1440   13.6571   26.8851 H   0  0  0  0  0  0  0  0  0  0  0  0
    6.2357   12.1706   28.8813 H   0  0  0  0  0  0  0  0  0  0  0  0
  1  2  2  0
  1  3  1  0
  1  4  1  0
  1 23  1  0
  4  5  1  0
  5  6  1  0
  6  7  1  0
  6  8  1  0
  7 12  1  0
  8  9  1  0
  8 10  1  0
 10 11  1  0
 10 12  1  0
 12 13  1  0
 13 14  1  0
 13 22  1  0
 14 15  2  0
 15 16  1  0
 16 17  1  0
 16 22  2  0
 17 18  1  0
 17 19  2  0
 19 20  1  0
 20 21  2  0
 21 22  1  0
 23 24  1  0
 24 25  2  0
 24 26  1  0
 24 27  1  0
 27 28  1  0
 28 29  1  0
 29 30  1  0
 29 31  1  0
 30 35  1  0
 31 32  1  0
 31 33  1  0
 33 34  1  0
 33 35  1  0
 35 36  1  0
 36 37  2  0
 36 44  1  0
 37 38  1  0
 38 39  1  0
 38 42  2  0
 39 40  2  0
 39 41  1  0
 42 43  1  0
 43 44  2  0
  3 45  1  0
  5 46  1  0
  5 47  1  0
  6 48  1  0
  8 49  1  0
  9 50  1  0
 10 51  1  0
 11 52  1  0
 12 53  1  0
 14 54  1  0
 18 55  1  0
 18 56  1  0
 20 57  1  0
 28 58  1  0
 28 59  1  0
 29 60  1  0
 31 61  1  0
 32 62  1  0
 33 63  1  0
 34 64  1  0
 35 65  1  0
 37 66  1  0
 41 67  1  0
 41 68  1  0
 42 69  1  0
 43 70  1  0
 44 71  1  0
M  CHG  2  26  -1  37   1
A    1
PA
A    2
O1A
A    3
O2A
A    4
O5B
A    5
C5B
A    6
C4B
A    7
O4B
A    8
C3B
A    9
O3B
A   10
C2B
A   11
O2B
A   12
C1B
A   13
N9A
A   14
C8A
A   15
N7A
A   16
C5A
A   17
C6A
A   18
N6A
A   19
N1A
A   20
C2A
A   21
N3A
A   22
C4A
A   23
O3
A   24
PN
A   25
O1N
A   26
O2N
A   27
O5D
A   28
C5D
A   29
C4D
A   30
O4D
A   31
C3D
A   32
O3D
A   33
C2D
A   34
O2D
A   35
C1D
A   36
C1N
A   37
N2N
A   38
C3N
A   39
C7N
A   40
O7N
A   41
N7N
A   42
C4N
A   43
C5N
A   44
C6N
M  END
