1A82_DNN_A_801
     RDKit          3D

 33 32  0  0  0  0  0  0  0  0999 V2000
   -6.5030   28.3430    6.9480 C   0  0  0  0  0  0  0  0  0  0  0  0
   -5.7950   29.2060    6.4050 O   0  0  0  0  0  0  0  0  0  0  0  0
   -7.3710   27.6910    6.3290 O   0  0  0  0  0  0  0  0  0  0  0  0
   -6.2890   28.0930    8.4330 C   0  0  0  0  0  0  0  0  0  0  0  0
   -5.6430   26.7380    8.7240 C   0  0  0  0  0  0  0  0  0  0  0  0
   -5.0590   26.6730   10.1360 C   0  0  0  0  0  0  0  0  0  0  0  0
   -4.6310   25.2650   10.4670 C   0  0  0  0  0  0  0  0  0  0  0  0
   -3.6500   25.1570   11.6540 C   0  0  0  0  0  0  0  0  0  0  0  0
   -3.8450   23.8830   12.4870 C   0  0  0  0  0  0  0  0  0  0  0  0
   -3.7890   22.6320   11.5990 C   0  0  0  0  0  0  0  0  0  0  0  0
   -4.9650   21.7660   11.9350 C   0  0  0  0  0  0  0  0  0  0  0  0
   -2.9290   23.8170   13.6680 N   0  0  0  0  0  0  0  0  0  0  0  0
   -2.5110   21.8520   11.7340 N   0  0  0  0  0  0  0  0  0  0  0  0
   -8.0544   27.1777    6.8286 H   0  0  0  0  0  0  0  0  0  0  0  0
   -5.6374   28.8847    8.8314 H   0  0  0  0  0  0  0  0  0  0  0  0
   -7.2788   28.0954    8.9129 H   0  0  0  0  0  0  0  0  0  0  0  0
   -6.4046   25.9514    8.6182 H   0  0  0  0  0  0  0  0  0  0  0  0
   -4.8197   26.5936    8.0089 H   0  0  0  0  0  0  0  0  0  0  0  0
   -4.1868   27.3404   10.1979 H   0  0  0  0  0  0  0  0  0  0  0  0
   -5.8300   26.9884   10.8544 H   0  0  0  0  0  0  0  0  0  0  0  0
   -5.5306   24.6806   10.7104 H   0  0  0  0  0  0  0  0  0  0  0  0
   -4.0970   24.8843    9.5839 H   0  0  0  0  0  0  0  0  0  0  0  0
   -2.6230   25.1631   11.2601 H   0  0  0  0  0  0  0  0  0  0  0  0
   -3.8441   26.0132   12.3168 H   0  0  0  0  0  0  0  0  0  0  0  0
   -4.8558   23.9206   12.9193 H   0  0  0  0  0  0  0  0  0  0  0  0
   -3.8230   22.9631   10.5506 H   0  0  0  0  0  0  0  0  0  0  0  0
   -5.0655   21.6920   13.0279 H   0  0  0  0  0  0  0  0  0  0  0  0
   -5.8789   22.2084   11.5119 H   0  0  0  0  0  0  0  0  0  0  0  0
   -4.8138   20.7620   11.5119 H   0  0  0  0  0  0  0  0  0  0  0  0
   -3.4834   23.8569   14.5351 H   0  0  0  0  0  0  0  0  0  0  0  0
   -2.3969   22.9355   13.6410 H   0  0  0  0  0  0  0  0  0  0  0  0
   -2.2936   21.7193   12.7320 H   0  0  0  0  0  0  0  0  0  0  0  0
   -2.6200   20.9333   11.2812 H   0  0  0  0  0  0  0  0  0  0  0  0
  1  2  2  0
  1  3  1  0
  1  4  1  0
  4  5  1  0
  5  6  1  0
  6  7  1  0
  7  8  1  0
  8  9  1  0
  9 10  1  0
  9 12  1  0
 10 11  1  0
 10 13  1  0
  3 14  1  0
  4 15  1  0
  4 16  1  0
  5 17  1  0
  5 18  1  0
  6 19  1  0
  6 20  1  0
  7 21  1  0
  7 22  1  0
  8 23  1  0
  8 24  1  0
  9 25  1  0
 10 26  1  0
 11 27  1  0
 11 28  1  0
 11 29  1  0
 12 30  1  0
 12 31  1  0
 13 32  1  0
 13 33  1  0
A    1
C1
A    2
O1
A    3
O2
A    4
C2
A    5
C3
A    6
C4
A    7
C5
A    8
C6
A    9
C7
A   10
C8
A   11
C9
A   12
N7
A   13
N8
M  END
