1A85_0DY_A_1
     RDKit          3D

 55 55  0  0  0  0  0  0  0  0999 V2000
   25.6970   59.9730   53.9180 N   0  0  0  0  0  0  0  0  0  0  0  0
   24.7240   58.9940   54.0170 O   0  0  0  0  0  0  0  0  0  0  0  0
   26.9920   59.6330   53.9010 C   0  0  0  0  0  0  0  0  0  0  0  0
   27.3890   58.4410   53.9480 O   0  0  0  0  0  0  0  0  0  0  0  0
   27.9370   60.7550   53.4380 C   0  0  0  0  0  0  0  0  0  0  0  0
   29.2270   60.8700   54.3090 C   0  0  0  0  0  0  0  0  0  0  0  0
   30.0990   62.1060   54.1260 C   0  0  0  0  0  0  0  0  0  0  0  0
   29.7750   63.0730   55.2430 C   0  0  0  0  0  0  0  0  0  0  0  0
   31.5530   61.6930   54.1660 C   0  0  0  0  0  0  0  0  0  0  0  0
   28.2790   60.4970   51.9860 C   0  0  0  0  0  0  0  0  0  0  0  0
   27.8040   61.2060   51.0980 O   0  0  0  0  0  0  0  0  0  0  0  0
   29.0890   59.4860   51.7210 N   0  0  0  0  0  0  0  0  0  0  0  0
   29.4430   59.2330   50.3360 C   0  0  0  0  0  0  0  0  0  0  0  0
   28.3500   58.4080   49.6300 C   0  0  0  0  0  0  0  0  0  0  0  0
   28.5010   58.0280   48.4590 O   0  0  0  0  0  0  0  0  0  0  0  0
   30.7990   58.5590   50.2130 C   0  0  0  0  0  0  0  0  0  0  0  0
   31.2200   58.3710   48.7540 C   0  0  0  0  0  0  0  0  0  0  0  0
   31.5670   57.2660   48.3610 O   0  0  0  0  0  0  0  0  0  0  0  0
   31.2300   59.4580   47.9560 N   0  0  0  0  0  0  0  0  0  0  0  0
   27.2920   58.0690   50.3740 N   0  0  0  0  0  0  0  0  0  0  0  0
   26.1430   57.3420   49.8480 C   0  0  0  0  0  0  0  0  0  0  0  0
   26.0560   55.9240   49.3880 C   0  0  0  0  0  0  0  0  0  0  0  0
   26.8460   54.9160   49.9950 C   0  0  0  0  0  0  0  0  0  0  0  0
   26.6850   53.5720   49.6810 C   0  0  0  0  0  0  0  0  0  0  0  0
   25.1110   55.5570   48.4270 C   0  0  0  0  0  0  0  0  0  0  0  0
   24.9480   54.2090   48.1140 C   0  0  0  0  0  0  0  0  0  0  0  0
   25.7300   53.2130   48.7240 C   0  0  0  0  0  0  0  0  0  0  0  0
   23.9800   53.9090   47.2730 N   0  0  0  0  0  0  0  0  0  0  0  0
   25.4247   60.9645   53.8573 H   0  0  0  0  0  0  0  0  0  0  0  0
   24.5390   58.8079   54.9716 H   0  0  0  0  0  0  0  0  0  0  0  0
   27.4246   61.7213   53.5551 H   0  0  0  0  0  0  0  0  0  0  0  0
   28.9147   60.8418   55.3634 H   0  0  0  0  0  0  0  0  0  0  0  0
   29.8598   60.0328   53.9793 H   0  0  0  0  0  0  0  0  0  0  0  0
   29.9075   62.5926   53.1582 H   0  0  0  0  0  0  0  0  0  0  0  0
   29.9398   62.5812   56.2130 H   0  0  0  0  0  0  0  0  0  0  0  0
   30.4264   63.9559   55.1642 H   0  0  0  0  0  0  0  0  0  0  0  0
   28.7232   63.3852   55.1642 H   0  0  0  0  0  0  0  0  0  0  0  0
   31.8792   61.6003   55.2124 H   0  0  0  0  0  0  0  0  0  0  0  0
   31.6734   60.7251   53.6573 H   0  0  0  0  0  0  0  0  0  0  0  0
   32.1642   62.4531   53.6573 H   0  0  0  0  0  0  0  0  0  0  0  0
   29.4592   58.8933   52.4777 H   0  0  0  0  0  0  0  0  0  0  0  0
   29.5166   60.2086   49.8332 H   0  0  0  0  0  0  0  0  0  0  0  0
   31.5510   59.1802   50.7216 H   0  0  0  0  0  0  0  0  0  0  0  0
   30.7246   57.5632   50.6743 H   0  0  0  0  0  0  0  0  0  0  0  0
   31.2387   60.4010   48.3703 H   0  0  0  0  0  0  0  0  0  0  0  0
   31.2290   59.3453   46.9322 H   0  0  0  0  0  0  0  0  0  0  0  0
   27.2886   58.3349   51.3691 H   0  0  0  0  0  0  0  0  0  0  0  0
   25.3850   57.4185   50.6415 H   0  0  0  0  0  0  0  0  0  0  0  0
   26.0911   57.8276   48.8623 H   0  0  0  0  0  0  0  0  0  0  0  0
   27.6071   55.2054   50.7346 H   0  0  0  0  0  0  0  0  0  0  0  0
   27.2976   52.8041   50.1761 H   0  0  0  0  0  0  0  0  0  0  0  0
   24.5029   56.3229   47.9234 H   0  0  0  0  0  0  0  0  0  0  0  0
   25.5917   52.1566   48.4502 H   0  0  0  0  0  0  0  0  0  0  0  0
   23.0573   53.6231   47.6305 H   0  0  0  0  0  0  0  0  0  0  0  0
   24.1456   53.9603   46.2577 H   0  0  0  0  0  0  0  0  0  0  0  0
  1  2  1  0
  1  3  1  0
  3  4  2  0
  3  5  1  0
  5  6  1  0
  5 10  1  0
  6  7  1  0
  7  8  1  0
  7  9  1  0
 10 11  2  0
 12 13  1  0
 13 14  1  0
 13 16  1  0
 14 15  2  0
 16 17  1  0
 17 18  2  0
 17 19  1  0
 20 21  1  0
 21 22  1  0
 22 23  2  0
 22 25  1  0
 23 24  1  0
 24 27  2  0
 25 26  2  0
 26 27  1  0
 26 28  1  0
 10 12  1  0
 14 20  1  0
  1 29  1  0
  2 30  1  0
  5 31  1  0
  6 32  1  0
  6 33  1  0
  7 34  1  0
  8 35  1  0
  8 36  1  0
  8 37  1  0
  9 38  1  0
  9 39  1  0
  9 40  1  0
 12 41  1  0
 13 42  1  0
 16 43  1  0
 16 44  1  0
 19 45  1  0
 19 46  1  0
 20 47  1  0
 21 48  1  0
 21 49  1  0
 23 50  1  0
 24 51  1  0
 25 52  1  0
 27 53  1  0
 28 54  1  0
 28 55  1  0
A    1
N
A    2
OH
A    3
C1
A    4
O1
A    5
CA
A    6
CB
A    7
CG
A    8
CD1
A    9
CD2
A   10
C
A   11
O
A   12
N1
A   13
CA1
A   14
C2
A   15
O2
A   16
CB1
A   17
CG1
A   18
OD1
A   19
ND2
A   20
N2
A   21
CB2
A   22
CG2
A   23
CD11
A   24
CE1
A   25
CD21
A   26
CE2
A   27
CZ
A   28
NE2
M  END
