1A86_0ZB_A_1
     RDKit          3D

 52 52  0  0  0  0  0  0  0  0999 V2000
   25.1650   59.6390   53.3200 N   0  0  0  0  0  0  0  0  0  0  0  0
   24.3590   58.8820   54.1730 O   0  0  0  0  0  0  0  0  0  0  0  0
   26.3830   59.3710   53.7470 C   0  0  0  0  0  0  0  0  0  0  0  0
   26.6800   58.2420   54.1830 O   0  0  0  0  0  0  0  0  0  0  0  0
   27.4380   60.4370   53.3710 C   0  0  0  0  0  0  0  0  0  0  0  0
   28.5690   60.5180   54.4160 C   0  0  0  0  0  0  0  0  0  0  0  0
   28.4070   61.4390   55.6420 C   0  0  0  0  0  0  0  0  0  0  0  0
   28.4010   62.8960   55.2200 C   0  0  0  0  0  0  0  0  0  0  0  0
   27.1420   61.1310   56.4160 C   0  0  0  0  0  0  0  0  0  0  0  0
   28.0190   60.3780   51.9550 C   0  0  0  0  0  0  0  0  0  0  0  0
   27.9030   61.3360   51.1850 O   0  0  0  0  0  0  0  0  0  0  0  0
   28.6190   59.2480   51.6030 N   0  0  0  0  0  0  0  0  0  0  0  0
   29.1740   59.0960   50.2690 C   0  0  0  0  0  0  0  0  0  0  0  0
   28.2140   58.2700   49.4040 C   0  0  0  0  0  0  0  0  0  0  0  0
   28.5730   57.8160   48.3120 O   0  0  0  0  0  0  0  0  0  0  0  0
   30.5550   58.4370   50.3320 C   0  0  0  0  0  0  0  0  0  0  0  0
   31.3150   58.5460   49.0250 C   0  0  0  0  0  0  0  0  0  0  0  0
   31.8390   59.6400   48.7240 O   0  0  0  0  0  0  0  0  0  0  0  0
   31.3890   57.5330   48.3020 O   0  0  0  0  0  0  0  0  0  0  0  0
   26.9940   58.0710   49.9020 N   0  0  0  0  0  0  0  0  0  0  0  0
   25.9380   57.3280   49.2210 C   0  0  0  0  0  0  0  0  0  0  0  0
   25.9320   55.8400   48.9830 C   0  0  0  0  0  0  0  0  0  0  0  0
   25.1160   55.2830   47.9870 C   0  0  0  0  0  0  0  0  0  0  0  0
   25.0800   53.9040   47.7880 C   0  0  0  0  0  0  0  0  0  0  0  0
   25.8610   53.0490   48.5820 C   0  0  0  0  0  0  0  0  0  0  0  0
   26.6820   53.5940   49.5770 C   0  0  0  0  0  0  0  0  0  0  0  0
   26.7100   54.9850   49.7690 C   0  0  0  0  0  0  0  0  0  0  0  0
   24.8780   60.2557   52.5466 H   0  0  0  0  0  0  0  0  0  0  0  0
   24.5841   59.0934   55.1136 H   0  0  0  0  0  0  0  0  0  0  0  0
   26.8468   61.3646   53.3759 H   0  0  0  0  0  0  0  0  0  0  0  0
   28.7231   59.4988   54.7999 H   0  0  0  0  0  0  0  0  0  0  0  0
   29.4017   60.9732   53.8598 H   0  0  0  0  0  0  0  0  0  0  0  0
   29.2675   61.2516   56.3011 H   0  0  0  0  0  0  0  0  0  0  0  0
   28.3984   63.5367   56.1141 H   0  0  0  0  0  0  0  0  0  0  0  0
   29.2983   63.1076   54.6199 H   0  0  0  0  0  0  0  0  0  0  0  0
   27.5020   63.1002   54.6199 H   0  0  0  0  0  0  0  0  0  0  0  0
   27.3507   61.1818   57.4948 H   0  0  0  0  0  0  0  0  0  0  0  0
   26.3658   61.8664   56.1576 H   0  0  0  0  0  0  0  0  0  0  0  0
   26.7908   60.1211   56.1576 H   0  0  0  0  0  0  0  0  0  0  0  0
   28.6916   58.4744   52.2792 H   0  0  0  0  0  0  0  0  0  0  0  0
   29.2962   60.0901   49.8143 H   0  0  0  0  0  0  0  0  0  0  0  0
   31.1427   58.9262   51.1227 H   0  0  0  0  0  0  0  0  0  0  0  0
   30.4038   57.3676   50.5404 H   0  0  0  0  0  0  0  0  0  0  0  0
   31.4546   56.6349   48.7134 H   0  0  0  0  0  0  0  0  0  0  0  0
   26.7822   58.4677   50.8287 H   0  0  0  0  0  0  0  0  0  0  0  0
   25.0210   57.5354   49.7921 H   0  0  0  0  0  0  0  0  0  0  0  0
   26.0800   57.6886   48.1915 H   0  0  0  0  0  0  0  0  0  0  0  0
   24.4989   55.9407   47.3573 H   0  0  0  0  0  0  0  0  0  0  0  0
   24.4349   53.4824   47.0031 H   0  0  0  0  0  0  0  0  0  0  0  0
   25.8283   51.9609   48.4239 H   0  0  0  0  0  0  0  0  0  0  0  0
   27.3014   52.9364   50.2046 H   0  0  0  0  0  0  0  0  0  0  0  0
   27.3557   55.4093   50.5519 H   0  0  0  0  0  0  0  0  0  0  0  0
  1  2  1  0
  1  3  1  0
  3  4  2  0
  3  5  1  0
  5  6  1  0
  5 10  1  0
  6  7  1  0
  7  8  1  0
  7  9  1  0
 10 11  2  0
 12 13  1  0
 13 14  1  0
 13 16  1  0
 14 15  2  0
 16 17  1  0
 17 18  2  0
 17 19  1  0
 20 21  1  0
 21 22  1  0
 22 23  2  0
 22 27  1  0
 23 24  1  0
 24 25  2  0
 25 26  1  0
 26 27  2  0
 10 12  1  0
 14 20  1  0
  1 28  1  0
  2 29  1  0
  5 30  1  0
  6 31  1  0
  6 32  1  0
  7 33  1  0
  8 34  1  0
  8 35  1  0
  8 36  1  0
  9 37  1  0
  9 38  1  0
  9 39  1  0
 12 40  1  0
 13 41  1  0
 16 42  1  0
 16 43  1  0
 19 44  1  0
 20 45  1  0
 21 46  1  0
 21 47  1  0
 23 48  1  0
 24 49  1  0
 25 50  1  0
 26 51  1  0
 27 52  1  0
A    1
N
A    2
OH
A    3
C1
A    4
O1
A    5
CA
A    6
CB
A    7
CG
A    8
CD1
A    9
CD2
A   10
C
A   11
O
A   12
N1
A   13
CA1
A   14
C2
A   15
O2
A   16
CB1
A   17
CG1
A   18
OD1
A   19
OD2
A   20
N2
A   21
C3
A   22
C11
A   23
C21
A   24
C31
A   25
C4
A   26
C5
A   27
C6
M  END
