1AAX_BPM_A_402
     RDKit          3D

 37 38  0  0  0  0  0  0  0  0999 V2000
   44.4710   11.6820    0.7760 C   0  0  0  0  0  0  0  0  0  0  0  0
   45.0280   12.7150    1.7580 C   0  0  0  0  0  0  0  0  0  0  0  0
   44.4410   13.9710    1.8110 C   0  0  0  0  0  0  0  0  0  0  0  0
   44.8420   14.9130    2.7450 C   0  0  0  0  0  0  0  0  0  0  0  0
   46.4650   13.3560    3.6190 C   0  0  0  0  0  0  0  0  0  0  0  0
   46.0430   12.4210    2.6640 C   0  0  0  0  0  0  0  0  0  0  0  0
   45.8590   14.6070    3.6550 C   0  0  0  0  0  0  0  0  0  0  0  0
   46.3310   15.5610    4.5800 O   0  0  0  0  0  0  0  0  0  0  0  0
   45.5540   16.0350    5.7360 P   0  0  0  0  0  0  0  0  0  0  0  0
   44.2380   16.4890    5.3810 O   0  0  0  0  0  0  0  0  0  0  0  0
   45.4560   14.9990    6.7000 O   0  0  0  0  0  0  0  0  0  0  0  0
   46.5230   16.9510    6.2220 O   0  0  0  0  0  0  0  0  0  0  0  0
   45.3180   11.4090   -0.4680 C   0  0  0  0  0  0  0  0  0  0  0  0
   45.4000   10.1380   -1.0380 C   0  0  0  0  0  0  0  0  0  0  0  0
   46.1680    9.9360   -2.1960 C   0  0  0  0  0  0  0  0  0  0  0  0
   46.7920   12.2750   -2.2250 C   0  0  0  0  0  0  0  0  0  0  0  0
   46.0160   12.4450   -1.0720 C   0  0  0  0  0  0  0  0  0  0  0  0
   46.8710   11.0110   -2.8040 C   0  0  0  0  0  0  0  0  0  0  0  0
   47.5740   10.7980   -4.0890 O   0  0  0  0  0  0  0  0  0  0  0  0
   48.9220   11.2740   -4.5160 P   0  0  0  0  0  0  0  0  0  0  0  0
   49.0460   12.7330   -4.4200 O   0  0  0  0  0  0  0  0  0  0  0  0
   49.9970   10.7330   -3.6570 O   0  0  0  0  0  0  0  0  0  0  0  0
   49.1540   10.8790   -5.9150 O   0  0  0  0  0  0  0  0  0  0  0  0
   44.3546   10.7320    1.3181 H   0  0  0  0  0  0  0  0  0  0  0  0
   43.5281   12.1083    0.4029 H   0  0  0  0  0  0  0  0  0  0  0  0
   43.6422   14.2239    1.0982 H   0  0  0  0  0  0  0  0  0  0  0  0
   44.3603   15.9016    2.7706 H   0  0  0  0  0  0  0  0  0  0  0  0
   47.2650   13.1036    4.3306 H   0  0  0  0  0  0  0  0  0  0  0  0
   46.5247   11.4327    2.6297 H   0  0  0  0  0  0  0  0  0  0  0  0
   45.4929   15.3895    7.6090 H   0  0  0  0  0  0  0  0  0  0  0  0
   46.5160   16.9444    7.2120 H   0  0  0  0  0  0  0  0  0  0  0  0
   44.8630    9.2942   -0.5801 H   0  0  0  0  0  0  0  0  0  0  0  0
   46.2264    8.9309   -2.6391 H   0  0  0  0  0  0  0  0  0  0  0  0
   47.3307   13.1264   -2.6665 H   0  0  0  0  0  0  0  0  0  0  0  0
   45.9569   13.4477   -0.6236 H   0  0  0  0  0  0  0  0  0  0  0  0
   49.7525   10.8560   -2.7056 H   0  0  0  0  0  0  0  0  0  0  0  0
   49.6552   10.0256   -5.9382 H   0  0  0  0  0  0  0  0  0  0  0  0
  1  2  1  0
  1 13  1  0
  2  3  2  0
  2  6  1  0
  3  4  1  0
  4  7  2  0
  5  6  2  0
  5  7  1  0
  7  8  1  0
  8  9  1  0
  9 10  2  0
  9 11  1  0
  9 12  1  0
 13 14  2  0
 13 17  1  0
 14 15  1  0
 15 18  2  0
 16 17  2  0
 16 18  1  0
 18 19  1  0
 19 20  1  0
 20 21  2  0
 20 22  1  0
 20 23  1  0
  1 24  1  0
  1 25  1  0
  3 26  1  0
  4 27  1  0
  5 28  1  0
  6 29  1  0
 11 30  1  0
 12 31  1  0
 14 32  1  0
 15 33  1  0
 16 34  1  0
 17 35  1  0
 22 36  1  0
 23 37  1  0
A    1
C0
A    2
C1A
A    3
C2A
A    4
C3A
A    5
C5A
A    6
C6A
A    7
C4A
A    8
O1A
A    9
PA
A   10
O2A
A   11
O3A
A   12
O4A
A   13
C1B
A   14
C2B
A   15
C3B
A   16
C5B
A   17
C6B
A   18
C4B
A   19
O1B
A   20
PB
A   21
O2B
A   22
O3B
A   23
O4B
M  END
