1AC4_TMT_A_296
     RDKit          3D

 18 18  0  0  0  0  0  0  0  0999 V2000
   -9.0270   53.9290  111.8510 S   0  0  0  0  0  0  0  0  0  0  0  0
   -8.7930   52.3280  111.3020 C   0  0  0  0  0  0  0  0  0  0  0  0
   -9.7960   51.9420  110.5030 N   0  0  0  0  0  0  0  0  0  0  0  0
  -10.7910   52.9100  110.2930 C   0  0  0  0  0  0  0  0  0  0  0  0
  -10.5090   54.0560  110.9690 C   0  0  0  0  0  0  0  0  0  0  0  0
   -7.6130   51.4950  111.6840 C   0  0  0  0  0  0  0  0  0  0  0  0
   -9.8700   50.6110  109.8710 C   0  0  0  0  0  0  0  0  0  0  0  0
  -11.9770   52.6330  109.4250 C   0  0  0  0  0  0  0  0  0  0  0  0
  -11.1453   54.9532  110.9563 H   0  0  0  0  0  0  0  0  0  0  0  0
   -7.5400   51.4435  112.7804 H   0  0  0  0  0  0  0  0  0  0  0  0
   -7.7331   50.4804  111.2764 H   0  0  0  0  0  0  0  0  0  0  0  0
   -6.6971   51.9478  111.2764 H   0  0  0  0  0  0  0  0  0  0  0  0
   -9.9131   49.8366  110.6510 H   0  0  0  0  0  0  0  0  0  0  0  0
  -10.7728   50.5518  109.2454 H   0  0  0  0  0  0  0  0  0  0  0  0
   -8.9793   50.4521  109.2454 H   0  0  0  0  0  0  0  0  0  0  0  0
  -12.8539   52.4282  110.0567 H   0  0  0  0  0  0  0  0  0  0  0  0
  -12.1790   53.5081  108.7899 H   0  0  0  0  0  0  0  0  0  0  0  0
  -11.7704   51.7589  108.7899 H   0  0  0  0  0  0  0  0  0  0  0  0
  1  2  1  0
  1  5  1  0
  2  3  2  0
  2  6  1  0
  3  4  1  0
  3  7  1  0
  4  5  2  0
  4  8  1  0
  5  9  1  0
  6 10  1  0
  6 11  1  0
  6 12  1  0
  7 13  1  0
  7 14  1  0
  7 15  1  0
  8 16  1  0
  8 17  1  0
  8 18  1  0
M  CHG  1   3   1
A    1
S1
A    2
C2
A    3
N3
A    4
C4
A    5
C5
A    6
C6
A    7
C7
A    8
C8
M  END
