1ADF_TAD_A_378
     RDKit          3D

 70 74  0  0  0  0  0  0  0  0999 V2000
   13.3710    6.9930   27.3760 P   0  0  0  0  0  0  0  0  0  0  0  0
   12.5700    5.7240   27.2580 O   0  0  0  0  0  0  0  0  0  0  0  0
   14.7670    6.9720   26.8400 O   0  0  0  0  0  0  0  0  0  0  0  0
   13.3000    7.4050   28.9340 O   0  0  0  0  0  0  0  0  0  0  0  0
   13.7270    6.4920   29.9610 C   0  0  0  0  0  0  0  0  0  0  0  0
   15.0370    6.9800   30.5600 C   0  0  0  0  0  0  0  0  0  0  0  0
   15.2220    6.3800   31.8490 O   0  0  0  0  0  0  0  0  0  0  0  0
   16.2530    6.5760   29.7590 C   0  0  0  0  0  0  0  0  0  0  0  0
   17.2090    7.6360   29.7560 O   0  0  0  0  0  0  0  0  0  0  0  0
   16.7890    5.3560   30.4810 C   0  0  0  0  0  0  0  0  0  0  0  0
   18.2070    5.2800   30.2780 O   0  0  0  0  0  0  0  0  0  0  0  0
   16.4690    5.6870   31.9130 C   0  0  0  0  0  0  0  0  0  0  0  0
   16.3450    4.5300   32.8230 N   0  0  0  0  0  0  0  0  0  0  0  0
   15.6490    3.4040   32.5690 C   0  0  0  0  0  0  0  0  0  0  0  0
   15.4370    2.7000   33.6920 N   0  0  0  0  0  0  0  0  0  0  0  0
   16.0540    3.4070   34.6300 C   0  0  0  0  0  0  0  0  0  0  0  0
   16.0430    3.0480   35.9600 C   0  0  0  0  0  0  0  0  0  0  0  0
   15.4460    1.9320   36.3700 N   0  0  0  0  0  0  0  0  0  0  0  0
   16.6330    3.9410   36.7770 N   0  0  0  0  0  0  0  0  0  0  0  0
   17.1680    5.0770   36.3240 C   0  0  0  0  0  0  0  0  0  0  0  0
   17.1890    5.4060   35.0360 N   0  0  0  0  0  0  0  0  0  0  0  0
   16.6210    4.5630   34.1400 C   0  0  0  0  0  0  0  0  0  0  0  0
   12.8290    8.4810   26.5220 C   0  0  0  0  0  0  0  0  0  0  0  0
   12.3240    9.8950   27.5450 P   0  0  0  0  0  0  0  0  0  0  0  0
   12.5530   11.1220   26.7060 O   0  0  0  0  0  0  0  0  0  0  0  0
   13.0290    9.9420   28.8760 O   0  0  0  0  0  0  0  0  0  0  0  0
   10.7080    9.6650   27.6530 O   0  0  0  0  0  0  0  0  0  0  0  0
   10.0180    8.6010   26.9320 C   0  0  0  0  0  0  0  0  0  0  0  0
   10.1380    7.3080   27.7350 C   0  0  0  0  0  0  0  0  0  0  0  0
    9.9010    7.7280   29.0740 O   0  0  0  0  0  0  0  0  0  0  0  0
    9.0660    6.3250   27.3190 C   0  0  0  0  0  0  0  0  0  0  0  0
    9.6520    5.2360   26.5850 O   0  0  0  0  0  0  0  0  0  0  0  0
    8.6750    5.7020   28.6470 C   0  0  0  0  0  0  0  0  0  0  0  0
    9.5150    4.5720   28.9890 O   0  0  0  0  0  0  0  0  0  0  0  0
    8.8310    6.9110   29.5710 C   0  0  0  0  0  0  0  0  0  0  0  0
    7.7110    7.8670   29.3790 C   0  0  0  0  0  0  0  0  0  0  0  0
    6.5170    7.3920   29.0220 N   0  0  0  0  0  0  0  0  0  0  0  0
    5.7250    8.4540   28.8670 C   0  0  0  0  0  0  0  0  0  0  0  0
    6.2650    9.6870   29.0660 C   0  0  0  0  0  0  0  0  0  0  0  0
    7.9390    9.6180   29.5740 S   0  0  0  0  0  0  0  0  0  0  0  0
    4.3190    8.1320   28.4970 C   0  0  0  0  0  0  0  0  0  0  0  0
    3.3670    8.9060   28.5710 O   0  0  0  0  0  0  0  0  0  0  0  0
    4.1960    6.8820   28.0690 N   0  0  0  0  0  0  0  0  0  0  0  0
   15.4095    6.9623   27.5931 H   0  0  0  0  0  0  0  0  0  0  0  0
   12.9603    6.4409   30.7482 H   0  0  0  0  0  0  0  0  0  0  0  0
   13.8726    5.4923   29.5257 H   0  0  0  0  0  0  0  0  0  0  0  0
   14.9581    8.0768   30.5871 H   0  0  0  0  0  0  0  0  0  0  0  0
   16.0235    6.3609   28.7049 H   0  0  0  0  0  0  0  0  0  0  0  0
   17.4313    7.8825   30.6887 H   0  0  0  0  0  0  0  0  0  0  0  0
   16.3711    4.3937   30.1502 H   0  0  0  0  0  0  0  0  0  0  0  0
   18.6651    5.2554   31.1553 H   0  0  0  0  0  0  0  0  0  0  0  0
   17.3015    6.2663   32.3389 H   0  0  0  0  0  0  0  0  0  0  0  0
   15.3000    3.1012   31.5707 H   0  0  0  0  0  0  0  0  0  0  0  0
   15.3446    1.7424   37.3773 H   0  0  0  0  0  0  0  0  0  0  0  0
   15.0852    1.2576   35.6801 H   0  0  0  0  0  0  0  0  0  0  0  0
   17.6123    5.7735   37.0503 H   0  0  0  0  0  0  0  0  0  0  0  0
   13.6595    8.8158   25.8831 H   0  0  0  0  0  0  0  0  0  0  0  0
   11.9163    8.1812   25.9862 H   0  0  0  0  0  0  0  0  0  0  0  0
   12.3608    9.8975   29.6051 H   0  0  0  0  0  0  0  0  0  0  0  0
    8.9569    8.8641   26.8104 H   0  0  0  0  0  0  0  0  0  0  0  0
   10.4695    8.4680   25.9378 H   0  0  0  0  0  0  0  0  0  0  0  0
   11.1073    6.8078   27.5928 H   0  0  0  0  0  0  0  0  0  0  0  0
    8.2718    6.8040   26.7276 H   0  0  0  0  0  0  0  0  0  0  0  0
   10.0122    4.5666   27.2192 H   0  0  0  0  0  0  0  0  0  0  0  0
    7.6717    5.2524   28.6840 H   0  0  0  0  0  0  0  0  0  0  0  0
    9.5749    4.4915   29.9739 H   0  0  0  0  0  0  0  0  0  0  0  0
    8.9354    6.5118   30.5907 H   0  0  0  0  0  0  0  0  0  0  0  0
    5.7097   10.6258   28.9231 H   0  0  0  0  0  0  0  0  0  0  0  0
    4.1201    6.1105   28.7472 H   0  0  0  0  0  0  0  0  0  0  0  0
    4.1764    6.6832   27.0586 H   0  0  0  0  0  0  0  0  0  0  0  0
  1  2  2  0
  1  3  1  0
  1  4  1  0
  1 23  1  0
  4  5  1  0
  5  6  1  0
  6  7  1  0
  6  8  1  0
  7 12  1  0
  8  9  1  0
  8 10  1  0
 10 11  1  0
 10 12  1  0
 12 13  1  0
 13 14  1  0
 13 22  1  0
 14 15  2  0
 15 16  1  0
 16 17  1  0
 16 22  2  0
 17 18  1  0
 17 19  2  0
 19 20  1  0
 20 21  2  0
 21 22  1  0
 23 24  1  0
 24 25  2  0
 24 26  1  0
 24 27  1  0
 27 28  1  0
 28 29  1  0
 29 30  1  0
 29 31  1  0
 30 35  1  0
 31 32  1  0
 31 33  1  0
 33 34  1  0
 33 35  1  0
 35 36  1  0
 36 37  2  0
 36 40  1  0
 37 38  1  0
 38 39  2  0
 38 41  1  0
 39 40  1  0
 41 42  2  0
 41 43  1  0
  3 44  1  0
  5 45  1  0
  5 46  1  0
  6 47  1  0
  8 48  1  0
  9 49  1  0
 10 50  1  0
 11 51  1  0
 12 52  1  0
 14 53  1  0
 18 54  1  0
 18 55  1  0
 20 56  1  0
 23 57  1  0
 23 58  1  0
 26 59  1  0
 28 60  1  0
 28 61  1  0
 29 62  1  0
 31 63  1  0
 32 64  1  0
 33 65  1  0
 34 66  1  0
 35 67  1  0
 39 68  1  0
 43 69  1  0
 43 70  1  0
A    1
PA
A    2
O1A
A    3
O2A
A    4
O5B
A    5
C5B
A    6
C4B
A    7
O4B
A    8
C3B
A    9
O3B
A   10
C2B
A   11
O2B
A   12
C1B
A   13
N9A
A   14
C8A
A   15
N7A
A   16
C5A
A   17
C6A
A   18
N6A
A   19
N1A
A   20
C2A
A   21
N3A
A   22
C4A
A   23
C3
A   24
PN
A   25
O1N
A   26
O2N
A   27
O5D
A   28
C5D
A   29
C4D
A   30
O4D
A   31
C3D
A   32
O3D
A   33
C2D
A   34
O2D
A   35
C1D
A   36
C2N
A   37
N3N
A   38
C4N
A   39
C5N
A   40
S1N
A   41
C6N
A   42
O6N
A   43
N6N
M  END
