1ADG_SAD_A_378
     RDKit          3D

 70 74  0  0  0  0  0  0  0  0999 V2000
   13.5800    7.3250   27.4360 P   0  0  0  0  0  0  0  0  0  0  0  0
   13.0550    5.9240   27.2840 O   0  0  0  0  0  0  0  0  0  0  0  0
   14.9860    7.6680   27.0120 O   0  0  0  0  0  0  0  0  0  0  0  0
   13.2920    7.7340   28.9780 O   0  0  0  0  0  0  0  0  0  0  0  0
   13.6100    6.8040   30.0380 C   0  0  0  0  0  0  0  0  0  0  0  0
   14.9960    7.1190   30.6220 C   0  0  0  0  0  0  0  0  0  0  0  0
   15.1570    6.4090   31.8490 O   0  0  0  0  0  0  0  0  0  0  0  0
   16.1800    6.6790   29.7550 C   0  0  0  0  0  0  0  0  0  0  0  0
   17.1000    7.7780   29.5930 O   0  0  0  0  0  0  0  0  0  0  0  0
   16.6490    5.3390   30.3710 C   0  0  0  0  0  0  0  0  0  0  0  0
   18.0220    5.0370   30.1050 O   0  0  0  0  0  0  0  0  0  0  0  0
   16.3600    5.6110   31.8290 C   0  0  0  0  0  0  0  0  0  0  0  0
   16.2600    4.4760   32.7960 N   0  0  0  0  0  0  0  0  0  0  0  0
   15.6890    3.2610   32.6310 C   0  0  0  0  0  0  0  0  0  0  0  0
   15.6450    2.5960   33.7980 N   0  0  0  0  0  0  0  0  0  0  0  0
   16.2420    3.4200   34.6650 C   0  0  0  0  0  0  0  0  0  0  0  0
   16.2590    3.2400   36.0470 C   0  0  0  0  0  0  0  0  0  0  0  0
   15.8500    2.1270   36.6560 N   0  0  0  0  0  0  0  0  0  0  0  0
   16.7650    4.2810   36.7340 N   0  0  0  0  0  0  0  0  0  0  0  0
   17.2300    5.3870   36.1470 C   0  0  0  0  0  0  0  0  0  0  0  0
   17.2150    5.5410   34.8340 N   0  0  0  0  0  0  0  0  0  0  0  0
   16.6850    4.5740   34.0630 C   0  0  0  0  0  0  0  0  0  0  0  0
   12.6760    8.5390   26.4700 C   0  0  0  0  0  0  0  0  0  0  0  0
   12.1430   10.0490   27.2990 P   0  0  0  0  0  0  0  0  0  0  0  0
   12.1580   11.0760   26.2240 O   0  0  0  0  0  0  0  0  0  0  0  0
   12.8630   10.3970   28.5810 O   0  0  0  0  0  0  0  0  0  0  0  0
   10.6030    9.7520   27.6420 O   0  0  0  0  0  0  0  0  0  0  0  0
    9.9400    8.6070   27.0710 C   0  0  0  0  0  0  0  0  0  0  0  0
   10.1470    7.3790   27.9680 C   0  0  0  0  0  0  0  0  0  0  0  0
    9.6250    7.7650   29.2340 O   0  0  0  0  0  0  0  0  0  0  0  0
    9.2580    6.3360   27.3510 C   0  0  0  0  0  0  0  0  0  0  0  0
   10.0730    5.4570   26.5460 O   0  0  0  0  0  0  0  0  0  0  0  0
    8.6630    5.6920   28.5920 C   0  0  0  0  0  0  0  0  0  0  0  0
    9.5170    4.6760   29.1320 O   0  0  0  0  0  0  0  0  0  0  0  0
    8.5380    6.8830   29.5500 C   0  0  0  0  0  0  0  0  0  0  0  0
    7.3850    7.8210   29.4990 C   0  0  0  0  0  0  0  0  0  0  0  0
    6.1400    7.4390   29.1820 N   0  0  0  0  0  0  0  0  0  0  0  0
    5.4150    8.5590   29.2060 C   0  0  0  0  0  0  0  0  0  0  0  0
    6.0770    9.7190   29.4460 C   0  0  0  0  0  0  0  0  0  0  0  0
    7.7370    9.5230   29.8220 Se  0  0  0  0  0  2  0  0  0  0  0  0
    3.9520    8.4610   29.0010 C   0  0  0  0  0  0  0  0  0  0  0  0
    3.1880    9.4410   29.0540 O   0  0  0  0  0  0  0  0  0  0  0  0
    3.5740    7.2130   28.7670 N   0  0  0  0  0  0  0  0  0  0  0  0
   15.5486    7.8053   27.8150 H   0  0  0  0  0  0  0  0  0  0  0  0
   12.8537    6.8861   30.8325 H   0  0  0  0  0  0  0  0  0  0  0  0
   13.6162    5.7826   29.6296 H   0  0  0  0  0  0  0  0  0  0  0  0
   15.0140    8.2147   30.7171 H   0  0  0  0  0  0  0  0  0  0  0  0
   15.9716    6.4518   28.6991 H   0  0  0  0  0  0  0  0  0  0  0  0
   17.3778    8.1098   30.4834 H   0  0  0  0  0  0  0  0  0  0  0  0
   16.1515    4.4465   29.9637 H   0  0  0  0  0  0  0  0  0  0  0  0
   18.5082    4.9301   30.9608 H   0  0  0  0  0  0  0  0  0  0  0  0
   17.2637    6.1041   32.2165 H   0  0  0  0  0  0  0  0  0  0  0  0
   15.3126    2.8711   31.6738 H   0  0  0  0  0  0  0  0  0  0  0  0
   15.8325    2.0795   37.6848 H   0  0  0  0  0  0  0  0  0  0  0  0
   15.5514    1.3145   36.0978 H   0  0  0  0  0  0  0  0  0  0  0  0
   17.6374    6.1934   36.7745 H   0  0  0  0  0  0  0  0  0  0  0  0
   13.3217    8.8365   25.6306 H   0  0  0  0  0  0  0  0  0  0  0  0
   11.7404    8.0308   26.1938 H   0  0  0  0  0  0  0  0  0  0  0  0
   12.3072   10.1284   29.3550 H   0  0  0  0  0  0  0  0  0  0  0  0
    8.8637    8.8160   26.9823 H   0  0  0  0  0  0  0  0  0  0  0  0
   10.3637    8.4032   26.0765 H   0  0  0  0  0  0  0  0  0  0  0  0
   11.1825    7.0215   28.0676 H   0  0  0  0  0  0  0  0  0  0  0  0
    8.4731    6.6837   26.6633 H   0  0  0  0  0  0  0  0  0  0  0  0
   10.6131    4.8745   27.1369 H   0  0  0  0  0  0  0  0  0  0  0  0
    7.7112    5.1758   28.3979 H   0  0  0  0  0  0  0  0  0  0  0  0
    9.4873    4.7113   30.1209 H   0  0  0  0  0  0  0  0  0  0  0  0
    8.4678    6.3666   30.5187 H   0  0  0  0  0  0  0  0  0  0  0  0
    5.5883   10.7036   29.4027 H   0  0  0  0  0  0  0  0  0  0  0  0
    3.3814    6.5771   29.5540 H   0  0  0  0  0  0  0  0  0  0  0  0
    3.4727    6.8787   27.7981 H   0  0  0  0  0  0  0  0  0  0  0  0
  1  2  2  0
  1  3  1  0
  1  4  1  0
  1 23  1  0
  4  5  1  0
  5  6  1  0
  6  7  1  0
  6  8  1  0
  7 12  1  0
  8  9  1  0
  8 10  1  0
 10 11  1  0
 10 12  1  0
 12 13  1  0
 13 14  1  0
 13 22  1  0
 14 15  2  0
 15 16  1  0
 16 17  1  0
 16 22  2  0
 17 18  1  0
 17 19  2  0
 19 20  1  0
 20 21  2  0
 21 22  1  0
 23 24  1  0
 24 25  2  0
 24 26  1  0
 24 27  1  0
 27 28  1  0
 28 29  1  0
 29 30  1  0
 29 31  1  0
 30 35  1  0
 31 32  1  0
 31 33  1  0
 33 34  1  0
 33 35  1  0
 35 36  1  0
 36 37  2  0
 36 40  1  0
 37 38  1  0
 38 39  2  0
 38 41  1  0
 39 40  1  0
 41 42  2  0
 41 43  1  0
  3 44  1  0
  5 45  1  0
  5 46  1  0
  6 47  1  0
  8 48  1  0
  9 49  1  0
 10 50  1  0
 11 51  1  0
 12 52  1  0
 14 53  1  0
 18 54  1  0
 18 55  1  0
 20 56  1  0
 23 57  1  0
 23 58  1  0
 26 59  1  0
 28 60  1  0
 28 61  1  0
 29 62  1  0
 31 63  1  0
 32 64  1  0
 33 65  1  0
 34 66  1  0
 35 67  1  0
 39 68  1  0
 43 69  1  0
 43 70  1  0
A    1
PA
A    2
O1A
A    3
O2A
A    4
O5B
A    5
C5B
A    6
C4B
A    7
O4B
A    8
C3B
A    9
O3B
A   10
C2B
A   11
O2B
A   12
C1B
A   13
N9A
A   14
C8A
A   15
N7A
A   16
C5A
A   17
C6A
A   18
N6A
A   19
N1A
A   20
C2A
A   21
N3A
A   22
C4A
A   23
C3
A   24
PN
A   25
O1N
A   26
O2N
A   27
O5D
A   28
C5D
A   29
C4D
A   30
O4D
A   31
C3D
A   32
O3D
A   33
C2D
A   34
O2D
A   35
C1D
A   36
C2N
A   37
N3N
A   38
C4N
A   39
C5N
A   40
SE1N
A   41
C6N
A   42
O6N
A   43
N6N
M  END
