1AEB_3MT_A_296
     RDKit          3D

 12 12  0  0  0  0  0  0  0  0999 V2000
   33.7990   92.5870   47.7630 C   0  0  0  0  0  0  0  0  0  0  0  0
   32.4910   93.2520   47.9520 N   0  0  0  0  0  0  0  0  0  0  0  0
   31.5320   93.3090   46.9510 C   0  0  0  0  0  0  0  0  0  0  0  0
   30.4100   93.9650   47.3430 C   0  0  0  0  0  0  0  0  0  0  0  0
   30.5560   94.5140   48.9800 S   0  0  0  0  0  0  0  0  0  0  0  0
   32.1140   93.8450   49.0800 C   0  0  0  0  0  0  0  0  0  0  0  0
   34.2413   92.3621   48.7448 H   0  0  0  0  0  0  0  0  0  0  0  0
   33.6571   91.6516   47.2019 H   0  0  0  0  0  0  0  0  0  0  0  0
   34.4712   93.2528   47.2019 H   0  0  0  0  0  0  0  0  0  0  0  0
   31.6659   92.8712   45.9508 H   0  0  0  0  0  0  0  0  0  0  0  0
   29.5271   94.1263   46.7071 H   0  0  0  0  0  0  0  0  0  0  0  0
   32.7429   93.8969   49.9810 H   0  0  0  0  0  0  0  0  0  0  0  0
  1  2  1  0
  2  3  1  0
  2  6  2  0
  3  4  2  0
  4  5  1  0
  5  6  1  0
  1  7  1  0
  1  8  1  0
  1  9  1  0
  3 10  1  0
  4 11  1  0
  6 12  1  0
M  CHG  1   2   1
A    1
C1
A    2
N7
A    3
C5
A    4
C11
A    5
S10
A    6
C8
M  END
