1AEG_4AP_A_296
     RDKit          3D

 14 14  0  0  0  0  0  0  0  0999 V2000
   33.1860   93.2160   48.7420 N   0  0  0  0  0  0  0  0  0  0  0  0
   33.4020   92.9950   47.4170 C   0  0  0  0  0  0  0  0  0  0  0  0
   32.4020   93.2020   46.5060 C   0  0  0  0  0  0  0  0  0  0  0  0
   31.1220   93.6510   46.9450 C   0  0  0  0  0  0  0  0  0  0  0  0
   30.9450   93.8690   48.3420 C   0  0  0  0  0  0  0  0  0  0  0  0
   31.9830   93.6460   49.2040 C   0  0  0  0  0  0  0  0  0  0  0  0
   30.1250   93.8610   46.0760 N   0  0  0  0  0  0  0  0  0  0  0  0
   33.9526   93.0535   49.4105 H   0  0  0  0  0  0  0  0  0  0  0  0
   34.3881   92.6472   47.0754 H   0  0  0  0  0  0  0  0  0  0  0  0
   32.5855   93.0222   45.4364 H   0  0  0  0  0  0  0  0  0  0  0  0
   29.9747   94.2162   48.7266 H   0  0  0  0  0  0  0  0  0  0  0  0
   31.8425   93.8164   50.2816 H   0  0  0  0  0  0  0  0  0  0  0  0
   29.1752   94.0611   46.4205 H   0  0  0  0  0  0  0  0  0  0  0  0
   30.3080   93.8225   45.0631 H   0  0  0  0  0  0  0  0  0  0  0  0
  1  2  2  0
  1  6  1  0
  2  3  1  0
  3  4  2  0
  4  5  1  0
  4  7  1  0
  5  6  2  0
  1  8  1  0
  2  9  1  0
  3 10  1  0
  5 11  1  0
  6 12  1  0
  7 13  1  0
  7 14  1  0
M  CHG  1   1   1
A    1
N1
A    2
C2
A    3
C3
A    4
C4
A    5
C5
A    6
C6
A    7
N4
M  END
