1AEJ_NVI_A_296
     RDKit          3D

 14 14  0  0  0  0  0  0  0  0999 V2000
   31.5580   93.5970   47.8900 N   0  0  0  0  0  0  0  0  0  0  0  0
   32.1730   93.4270   49.0690 C   0  0  0  0  0  0  0  0  0  0  0  0
   33.3610   92.8600   48.8360 N   0  0  0  0  0  0  0  0  0  0  0  0
   33.5180   92.6440   47.4790 C   0  0  0  0  0  0  0  0  0  0  0  0
   32.3830   93.1050   46.8850 C   0  0  0  0  0  0  0  0  0  0  0  0
   30.2630   94.1820   47.6850 C   0  0  0  0  0  0  0  0  0  0  0  0
   29.6220   94.1190   46.5230 C   0  0  0  0  0  0  0  0  0  0  0  0
   31.7710   93.7050   50.0544 H   0  0  0  0  0  0  0  0  0  0  0  0
   34.0549   92.6201   49.5584 H   0  0  0  0  0  0  0  0  0  0  0  0
   34.3866   92.1903   46.9793 H   0  0  0  0  0  0  0  0  0  0  0  0
   32.1598   93.0908   45.8080 H   0  0  0  0  0  0  0  0  0  0  0  0
   29.7815   94.7041   48.5250 H   0  0  0  0  0  0  0  0  0  0  0  0
   28.6306   94.5834   46.4159 H   0  0  0  0  0  0  0  0  0  0  0  0
   30.0827   93.6024   45.6680 H   0  0  0  0  0  0  0  0  0  0  0  0
  1  2  2  0
  1  5  1  0
  1  6  1  0
  2  3  1  0
  3  4  1  0
  4  5  2  0
  6  7  2  3
  2  8  1  0
  3  9  1  0
  4 10  1  0
  5 11  1  0
  6 12  1  0
  7 13  1  0
  7 14  1  0
M  CHG  1   1   1
A    1
N1
A    2
C2
A    3
N3
A    4
C4
A    5
C5
A    6
C6
A    7
C7
M  END
