1AET_1MZ_A_296
     RDKit          3D

 13 13  0  0  0  0  0  0  0  0999 V2000
   -9.5780   52.4910  110.8370 N   0  0  0  0  0  0  0  0  0  0  0  0
   -9.9400   53.6570  111.3230 C   0  0  0  0  0  0  0  0  0  0  0  0
  -11.2250   53.8100  111.0970 N   0  0  0  0  0  0  0  0  0  0  0  0
  -11.6860   52.7780  110.4350 C   0  0  0  0  0  0  0  0  0  0  0  0
  -10.6090   51.9000  110.2800 C   0  0  0  0  0  0  0  0  0  0  0  0
   -8.1800   51.9070  110.8730 C   0  0  0  0  0  0  0  0  0  0  0  0
   -9.2824   54.3784  111.8301 H   0  0  0  0  0  0  0  0  0  0  0  0
  -11.7862   54.6204  111.3957 H   0  0  0  0  0  0  0  0  0  0  0  0
  -12.7145   52.6315  110.0734 H   0  0  0  0  0  0  0  0  0  0  0  0
  -10.6229   50.9148  109.7909 H   0  0  0  0  0  0  0  0  0  0  0  0
   -7.8645   51.7752  111.9185 H   0  0  0  0  0  0  0  0  0  0  0  0
   -8.1766   50.9322  110.3633 H   0  0  0  0  0  0  0  0  0  0  0  0
   -7.4842   52.5897  110.3633 H   0  0  0  0  0  0  0  0  0  0  0  0
  1  2  1  0
  1  5  1  0
  1  6  1  0
  2  3  2  0
  3  4  1  0
  4  5  2  0
  2  7  1  0
  3  8  1  0
  4  9  1  0
  5 10  1  0
  6 11  1  0
  6 12  1  0
  6 13  1  0
M  CHG  1   3   1
A    1
N1
A    2
C2
A    3
N3
A    4
C4
A    5
C5
A    6
CM1
M  END
