1AEU_2MZ_A_296
     RDKit          3D

 12 12  0  0  0  0  0  0  0  0999 V2000
   -9.4840   52.4930  110.8570 N   0  0  0  0  0  0  0  0  0  0  0  0
  -10.6710   52.9950  110.4770 C   0  0  0  0  0  0  0  0  0  0  0  0
  -10.8760   54.0730  111.2530 N   0  0  0  0  0  0  0  0  0  0  0  0
   -9.8170   54.2560  112.1280 C   0  0  0  0  0  0  0  0  0  0  0  0
   -8.9340   53.2540  111.8770 C   0  0  0  0  0  0  0  0  0  0  0  0
  -11.5880   52.4460  109.4420 C   0  0  0  0  0  0  0  0  0  0  0  0
   -9.0432   51.6574  110.4468 H   0  0  0  0  0  0  0  0  0  0  0  0
   -9.7120   55.0544  112.8774 H   0  0  0  0  0  0  0  0  0  0  0  0
   -7.9728   53.0809  112.3831 H   0  0  0  0  0  0  0  0  0  0  0  0
  -12.4330   51.9401  109.9319 H   0  0  0  0  0  0  0  0  0  0  0  0
  -11.9658   53.2666  108.8144 H   0  0  0  0  0  0  0  0  0  0  0  0
  -11.0431   51.7254  108.8144 H   0  0  0  0  0  0  0  0  0  0  0  0
  1  2  1  0
  1  5  1  0
  2  3  2  0
  2  6  1  0
  3  4  1  0
  4  5  2  0
  1  7  1  0
  4  8  1  0
  5  9  1  0
  6 10  1  0
  6 11  1  0
  6 12  1  0
A    1
N1
A    2
C2
A    3
N3
A    4
C4
A    5
C5
A    6
C6
M  END
