1AFL_ATR_A_125
     RDKit          3D

 47 49  0  0  0  0  0  0  0  0999 V2000
   37.2410   -2.7860   23.0660 P   0  0  0  0  0  0  0  0  0  0  0  0
   37.8370   -2.2840   24.2990 O   0  0  0  0  0  0  0  0  0  0  0  0
   35.7750   -2.8980   23.1260 O   0  0  0  0  0  0  0  0  0  0  0  0
   37.8130   -2.1830   21.8570 O   0  0  0  0  0  0  0  0  0  0  0  0
   38.9650   -5.3250   22.7600 P   0  0  0  0  0  0  0  0  0  0  0  0
   38.3980   -6.7290   22.7470 O   0  0  0  0  0  0  0  0  0  0  0  0
   40.1970   -4.9690   23.6130 O   0  0  0  0  0  0  0  0  0  0  0  0
   37.5640   -4.3250   22.9850 O   0  0  0  0  0  0  0  0  0  0  0  0
   39.2910   -5.0010   21.1570 O   0  0  0  0  0  0  0  0  0  0  0  0
   38.0080   -5.0480   20.5090 C   0  0  0  0  0  0  0  0  0  0  0  0
   37.7680   -6.3040   19.8480 C   0  0  0  0  0  0  0  0  0  0  0  0
   36.8740   -5.7220   18.9300 O   0  0  0  0  0  0  0  0  0  0  0  0
   38.9460   -7.0410   19.0570 C   0  0  0  0  0  0  0  0  0  0  0  0
   39.5370   -8.2850   19.6940 O   0  0  0  0  0  0  0  0  0  0  0  0
   38.1080   -7.4720   17.8680 C   0  0  0  0  0  0  0  0  0  0  0  0
   37.4760   -8.6980   18.1800 O   0  0  0  0  0  0  0  0  0  0  0  0
   36.7040   -9.4600   16.9420 P   0  0  0  0  0  0  0  0  0  0  0  0
   35.5790   -8.5940   16.4960 O   0  0  0  0  0  0  0  0  0  0  0  0
   37.7790   -9.6880   15.9180 O   0  0  0  0  0  0  0  0  0  0  0  0
   36.3620  -10.5970   17.8500 O   0  0  0  0  0  0  0  0  0  0  0  0
   36.9470   -6.4800   17.7560 C   0  0  0  0  0  0  0  0  0  0  0  0
   36.9050   -5.6480   16.4670 N   0  0  0  0  0  0  0  0  0  0  0  0
   36.1340   -6.0340   15.3550 C   0  0  0  0  0  0  0  0  0  0  0  0
   36.0170   -5.1590   14.4050 N   0  0  0  0  0  0  0  0  0  0  0  0
   36.7960   -4.0540   14.9090 C   0  0  0  0  0  0  0  0  0  0  0  0
   37.0430   -2.7400   14.3850 C   0  0  0  0  0  0  0  0  0  0  0  0
   36.6280   -2.3860   13.1430 N   0  0  0  0  0  0  0  0  0  0  0  0
   37.7940   -1.8900   15.1790 N   0  0  0  0  0  0  0  0  0  0  0  0
   38.2670   -2.3180   16.3460 C   0  0  0  0  0  0  0  0  0  0  0  0
   38.1250   -3.4940   16.9330 N   0  0  0  0  0  0  0  0  0  0  0  0
   37.3540   -4.3430   16.1620 C   0  0  0  0  0  0  0  0  0  0  0  0
   35.4842   -2.9202   24.0721 H   0  0  0  0  0  0  0  0  0  0  0  0
   38.4710   -1.4893   22.1138 H   0  0  0  0  0  0  0  0  0  0  0  0
   39.9643   -5.0362   24.5729 H   0  0  0  0  0  0  0  0  0  0  0  0
   37.2250   -4.8928   21.2659 H   0  0  0  0  0  0  0  0  0  0  0  0
   37.9926   -4.2594   19.7422 H   0  0  0  0  0  0  0  0  0  0  0  0
   37.5015   -7.1238   20.5313 H   0  0  0  0  0  0  0  0  0  0  0  0
   39.8347   -6.4058   18.9278 H   0  0  0  0  0  0  0  0  0  0  0  0
   39.4974   -8.2016   20.6797 H   0  0  0  0  0  0  0  0  0  0  0  0
   38.7384   -7.5348   16.9687 H   0  0  0  0  0  0  0  0  0  0  0  0
   38.6376   -9.8701   16.3759 H   0  0  0  0  0  0  0  0  0  0  0  0
   36.4498  -10.3050   18.7919 H   0  0  0  0  0  0  0  0  0  0  0  0
   36.0252   -7.0721   17.6579 H   0  0  0  0  0  0  0  0  0  0  0  0
   35.6569   -7.0233   15.2948 H   0  0  0  0  0  0  0  0  0  0  0  0
   35.8491   -1.7216   13.0302 H   0  0  0  0  0  0  0  0  0  0  0  0
   37.0918   -2.7816   12.3128 H   0  0  0  0  0  0  0  0  0  0  0  0
   38.8654   -1.5844   16.9061 H   0  0  0  0  0  0  0  0  0  0  0  0
  1  2  2  0
  1  3  1  0
  1  4  1  0
  1  8  1  0
  5  6  2  0
  5  7  1  0
  5  8  1  0
  5  9  1  0
  9 10  1  0
 10 11  1  0
 11 12  1  0
 11 13  1  0
 12 21  1  0
 13 14  1  0
 13 15  1  0
 15 16  1  0
 15 21  1  0
 16 17  1  0
 17 18  2  0
 17 19  1  0
 17 20  1  0
 21 22  1  0
 22 23  1  0
 22 31  1  0
 23 24  2  0
 24 25  1  0
 25 26  1  0
 25 31  2  0
 26 27  1  0
 26 28  2  0
 28 29  1  0
 29 30  2  0
 30 31  1  0
  3 32  1  0
  4 33  1  0
  7 34  1  0
 10 35  1  0
 10 36  1  0
 11 37  1  0
 13 38  1  0
 14 39  1  0
 15 40  1  0
 19 41  1  0
 20 42  1  0
 21 43  1  0
 23 44  1  0
 27 45  1  0
 27 46  1  0
 29 47  1  0
A    1
PB
A    2
O1B
A    3
O2B
A    4
O3B
A    5
PA
A    6
O1A
A    7
O2A
A    8
O3A
A    9
O5'
A   10
C5'
A   11
C4'
A   12
O4'
A   13
C3'
A   14
O3'
A   15
C2'
A   16
O2'
A   17
P2'
A   18
O1P
A   19
O2P
A   20
O3P
A   21
C1'
A   22
N9
A   23
C8
A   24
N7
A   25
C5
A   26
C6
A   27
N6
A   28
N1
A   29
C2
A   30
N3
A   31
C4
M  END
