1AGW_SU2_A_1001
     RDKit          3D

 46 49  0  0  0  0  0  0  0  0999 V2000
    5.7630    2.5310   20.3220 N   0  0  0  0  0  0  0  0  0  0  0  0
    6.4340    2.9940   21.4270 C   0  0  0  0  0  0  0  0  0  0  0  0
    6.3730    2.3820   22.4940 O   0  0  0  0  0  0  0  0  0  0  0  0
    7.0950    4.1650   21.1310 C   0  0  0  0  0  0  0  0  0  0  0  0
    7.1970    5.4450   18.8500 C   0  0  0  0  0  0  0  0  0  0  0  0
    6.7240    5.4000   17.5470 C   0  0  0  0  0  0  0  0  0  0  0  0
    5.8900    4.3560   17.1140 C   0  0  0  0  0  0  0  0  0  0  0  0
    5.5170    3.3380   17.9550 C   0  0  0  0  0  0  0  0  0  0  0  0
    5.9880    3.3830   19.2720 C   0  0  0  0  0  0  0  0  0  0  0  0
    6.8240    4.4240   19.7400 C   0  0  0  0  0  0  0  0  0  0  0  0
    7.9420    5.0530   22.0360 C   0  0  0  0  0  0  0  0  0  0  0  0
    8.7500    4.6160   23.2540 C   0  0  0  0  0  0  0  0  0  0  0  0
    9.7100    5.4700   23.7810 C   0  0  0  0  0  0  0  0  0  0  0  0
   10.4610    5.1000   24.8980 C   0  0  0  0  0  0  0  0  0  0  0  0
   10.2640    3.8680   25.5130 C   0  0  0  0  0  0  0  0  0  0  0  0
    9.2980    3.0170   24.9820 C   0  0  0  0  0  0  0  0  0  0  0  0
    8.5480    3.3860   23.8630 C   0  0  0  0  0  0  0  0  0  0  0  0
   12.4930    2.7110   29.1520 N   0  0  0  0  0  0  0  0  0  0  0  0
   13.2630    2.2770   30.2810 C   0  0  0  0  0  0  0  0  0  0  0  0
   14.2360    2.8450   30.7850 O   0  0  0  0  0  0  0  0  0  0  0  0
   11.7640    1.7130   28.3060 C   0  0  0  0  0  0  0  0  0  0  0  0
   10.6690    2.2640   27.4210 C   0  0  0  0  0  0  0  0  0  0  0  0
   11.0300    3.4890   26.6500 N   0  0  0  0  0  0  0  0  0  0  0  0
   11.7510    4.5220   27.4680 C   0  0  0  0  0  0  0  0  0  0  0  0
   12.8190    3.9910   28.4260 C   0  0  0  0  0  0  0  0  0  0  0  0
    5.1836    1.6801   20.2876 H   0  0  0  0  0  0  0  0  0  0  0  0
    7.9890    3.5892   20.8496 H   0  0  0  0  0  0  0  0  0  0  0  0
    7.8519    6.2647   19.1804 H   0  0  0  0  0  0  0  0  0  0  0  0
    7.0066    6.1949   16.8411 H   0  0  0  0  0  0  0  0  0  0  0  0
    5.5271    4.3545   16.0756 H   0  0  0  0  0  0  0  0  0  0  0  0
    4.8721    2.5175   17.6071 H   0  0  0  0  0  0  0  0  0  0  0  0
    8.6741    5.5257   21.3648 H   0  0  0  0  0  0  0  0  0  0  0  0
    7.1382    5.6047   22.5454 H   0  0  0  0  0  0  0  0  0  0  0  0
    9.8808    6.4504   23.3123 H   0  0  0  0  0  0  0  0  0  0  0  0
   11.2180    5.7913   25.2968 H   0  0  0  0  0  0  0  0  0  0  0  0
    9.1227    2.0379   25.4517 H   0  0  0  0  0  0  0  0  0  0  0  0
    7.7913    2.6960   23.4615 H   0  0  0  0  0  0  0  0  0  0  0  0
   12.9517    1.3322   30.7505 H   0  0  0  0  0  0  0  0  0  0  0  0
   12.5027    1.2185   27.6581 H   0  0  0  0  0  0  0  0  0  0  0  0
   11.2601    1.0382   29.0136 H   0  0  0  0  0  0  0  0  0  0  0  0
   10.3863    1.4808   26.7022 H   0  0  0  0  0  0  0  0  0  0  0  0
    9.8513    2.5583   28.0954 H   0  0  0  0  0  0  0  0  0  0  0  0
   12.2394    5.2211   26.7732 H   0  0  0  0  0  0  0  0  0  0  0  0
   10.9835    4.9849   28.1057 H   0  0  0  0  0  0  0  0  0  0  0  0
   13.0046    4.7670   29.1832 H   0  0  0  0  0  0  0  0  0  0  0  0
   13.6869    3.7543   27.7930 H   0  0  0  0  0  0  0  0  0  0  0  0
  1  2  1  0
  1  9  1  0
  2  3  2  0
  2  4  1  0
  4 10  1  0
  4 11  1  0
  5  6  1  0
  5 10  2  0
  6  7  2  0
  7  8  1  0
  8  9  2  0
  9 10  1  0
 11 12  1  0
 12 13  2  0
 12 17  1  0
 13 14  1  0
 14 15  2  0
 15 16  1  0
 15 23  1  0
 16 17  2  0
 18 19  1  0
 18 21  1  0
 18 25  1  0
 19 20  2  0
 21 22  1  0
 22 23  1  0
 23 24  1  0
 24 25  1  0
  1 26  1  0
  4 27  1  0
  5 28  1  0
  6 29  1  0
  7 30  1  0
  8 31  1  0
 11 32  1  0
 11 33  1  0
 13 34  1  0
 14 35  1  0
 16 36  1  0
 17 37  1  0
 19 38  1  0
 21 39  1  0
 21 40  1  0
 22 41  1  0
 22 42  1  0
 24 43  1  0
 24 44  1  0
 25 45  1  0
 25 46  1  0
A    1
N1
A    2
C2
A    3
O2
A    4
C3
A    5
C4
A    6
C5
A    7
C6
A    8
C7
A    9
C8
A   10
C9
A   11
C10
A   12
C1'
A   13
C2'
A   14
C3'
A   15
C4'
A   16
C5'
A   17
C6'
A   18
N1'
A   19
C11
A   20
O3
A   21
C2B
A   22
C3B
A   23
N4'
A   24
C5B
A   25
C6B
M  END
