1AJ2_2PH_A_283
     RDKit          3D

 33 34  0  0  0  0  0  0  0  0999 V2000
   41.3480    3.4140    6.7740 N   0  0  0  0  0  0  0  0  0  0  0  0
   42.0050    4.5320    6.9410 C   0  0  0  0  0  0  0  0  0  0  0  0
   42.6320    4.9630    8.2010 C   0  0  0  0  0  0  0  0  0  0  0  0
   42.3410    4.0470    9.2700 N   0  0  0  0  0  0  0  0  0  0  0  0
   41.3560    1.9750   10.1770 N   0  0  0  0  0  0  0  0  0  0  0  0
   40.7760    0.8070    9.9050 C   0  0  0  0  0  0  0  0  0  0  0  0
   40.5370   -0.0980   10.9010 N   0  0  0  0  0  0  0  0  0  0  0  0
   40.3560    0.4620    8.6060 N   0  0  0  0  0  0  0  0  0  0  0  0
   40.5790    1.3000    7.5250 C   0  0  0  0  0  0  0  0  0  0  0  0
   40.3440    0.9330    6.3660 O   0  0  0  0  0  0  0  0  0  0  0  0
   41.1470    2.5250    7.8080 C   0  0  0  0  0  0  0  0  0  0  0  0
   41.5910    2.8450    9.1520 C   0  0  0  0  0  0  0  0  0  0  0  0
   42.1240    5.4530    5.8120 C   0  0  0  0  0  0  0  0  0  0  0  0
   43.0430    6.4830    6.2050 O   0  0  0  0  0  0  0  0  0  0  0  0
   43.1700    7.8600    5.4350 P   0  0  0  0  0  0  0  0  0  0  0  0
   44.3590    8.5690    6.0270 O   0  0  0  0  0  0  0  0  0  0  0  0
   43.0870    7.5320    3.9880 O   0  0  0  0  0  0  0  0  0  0  0  0
   41.8700    8.6030    5.8890 O   0  0  0  0  0  0  0  0  0  0  0  0
   40.5240    8.8240    6.5760 P   0  0  0  0  0  0  0  0  0  0  0  0
   39.9510   10.1400    6.2650 O   0  0  0  0  0  0  0  0  0  0  0  0
   40.7600    8.8790    8.0940 O   0  0  0  0  0  0  0  0  0  0  0  0
   39.5510    7.7330    6.3270 O   0  0  0  0  0  0  0  0  0  0  0  0
   43.7217    5.0141    8.0597 H   0  0  0  0  0  0  0  0  0  0  0  0
   42.2274    5.9499    8.4700 H   0  0  0  0  0  0  0  0  0  0  0  0
   42.7080    4.2821   10.2032 H   0  0  0  0  0  0  0  0  0  0  0  0
   40.6129    0.1895   11.8872 H   0  0  0  0  0  0  0  0  0  0  0  0
   40.2810   -1.0675   10.6654 H   0  0  0  0  0  0  0  0  0  0  0  0
   39.8716   -0.4344    8.4557 H   0  0  0  0  0  0  0  0  0  0  0  0
   42.5082    4.9208    4.9293 H   0  0  0  0  0  0  0  0  0  0  0  0
   41.1450    5.8801    5.5493 H   0  0  0  0  0  0  0  0  0  0  0  0
   42.8456    6.5781    3.8792 H   0  0  0  0  0  0  0  0  0  0  0  0
   39.9130    8.6816    8.5670 H   0  0  0  0  0  0  0  0  0  0  0  0
   39.2302    7.3732    7.1917 H   0  0  0  0  0  0  0  0  0  0  0  0
  1  2  2  0
  1 11  1  0
  2  3  1  0
  2 13  1  0
  3  4  1  0
  4 12  1  0
  5  6  2  0
  5 12  1  0
  6  7  1  0
  6  8  1  0
  8  9  1  0
  9 10  2  0
  9 11  1  0
 11 12  2  0
 13 14  1  0
 14 15  1  0
 15 16  2  0
 15 17  1  0
 15 18  1  0
 18 19  1  0
 19 20  2  0
 19 21  1  0
 19 22  1  0
  3 23  1  0
  3 24  1  0
  4 25  1  0
  7 26  1  0
  7 27  1  0
  8 28  1  0
 13 29  1  0
 13 30  1  0
 17 31  1  0
 21 32  1  0
 22 33  1  0
A    1
N1
A    2
C2
A    3
C3
A    4
N4
A    5
N5
A    6
C6
A    7
N6
A    8
N7
A    9
C8
A   10
O8
A   11
C9
A   12
C10
A   13
C11
A   14
O4
A   15
P1
A   16
O1P
A   17
O2P
A   18
O3P
A   19
P2
A   20
O4P
A   21
O5P
A   22
O6P
M  END
