1AJX_AH1_A_500
     RDKit          3D

 74 78  0  0  0  0  0  0  0  0999 V2000
   11.7410   23.3430    5.9890 N   0  0  0  0  0  0  0  0  0  0  0  0
   12.2650   22.0280    6.0510 C   0  0  0  0  0  0  0  0  0  0  0  0
   13.5070   21.7390    5.6380 N   0  0  0  0  0  0  0  0  0  0  0  0
   14.6520   22.6630    5.7600 C   0  0  0  0  0  0  0  0  0  0  0  0
   14.5740   23.8290    4.6740 C   0  0  0  0  0  0  0  0  0  0  0  0
   13.4310   24.8510    4.9420 C   0  0  0  0  0  0  0  0  0  0  0  0
   11.9940   24.2680    4.8390 C   0  0  0  0  0  0  0  0  0  0  0  0
   10.4530   23.6120    6.6690 C   0  0  0  0  0  0  0  0  0  0  0  0
   10.2850   24.9540    7.2810 C   0  0  0  0  0  0  0  0  0  0  0  0
    9.1800   25.7370    6.9680 C   0  0  0  0  0  0  0  0  0  0  0  0
    9.0390   27.0110    7.5220 C   0  0  0  0  0  0  0  0  0  0  0  0
   10.0110   27.5260    8.3960 C   0  0  0  0  0  0  0  0  0  0  0  0
   11.1000   26.7320    8.6960 C   0  0  0  0  0  0  0  0  0  0  0  0
   11.2270   25.4360    8.1300 C   0  0  0  0  0  0  0  0  0  0  0  0
   11.5490   21.0910    6.5030 O   0  0  0  0  0  0  0  0  0  0  0  0
   13.9250   20.3890    5.4920 C   0  0  0  0  0  0  0  0  0  0  0  0
   14.8410   19.9560    4.3600 C   0  0  0  0  0  0  0  0  0  0  0  0
   16.1120   19.3650    4.6200 C   0  0  0  0  0  0  0  0  0  0  0  0
   16.8900   18.9310    3.5390 C   0  0  0  0  0  0  0  0  0  0  0  0
   16.4590   19.0590    2.2170 C   0  0  0  0  0  0  0  0  0  0  0  0
   15.2220   19.6500    1.9380 C   0  0  0  0  0  0  0  0  0  0  0  0
   14.3990   20.0990    3.0000 C   0  0  0  0  0  0  0  0  0  0  0  0
   14.6030   23.2930    7.1160 C   0  0  0  0  0  0  0  0  0  0  0  0
   14.7440   22.4950    8.3370 O   0  0  0  0  0  0  0  0  0  0  0  0
   15.7820   21.7740    8.6600 C   0  0  0  0  0  0  0  0  0  0  0  0
   15.6250   20.6030    9.4660 C   0  0  0  0  0  0  0  0  0  0  0  0
   16.7780   19.8550    9.8220 C   0  0  0  0  0  0  0  0  0  0  0  0
   18.0690   20.2700    9.3680 C   0  0  0  0  0  0  0  0  0  0  0  0
   18.2260   21.4180    8.5550 C   0  0  0  0  0  0  0  0  0  0  0  0
   17.0840   22.1670    8.2090 C   0  0  0  0  0  0  0  0  0  0  0  0
   15.7460   24.5390    4.7420 O   0  0  0  0  0  0  0  0  0  0  0  0
   13.5500   25.8400    3.9840 O   0  0  0  0  0  0  0  0  0  0  0  0
   11.8320   23.4520    3.5150 C   0  0  0  0  0  0  0  0  0  0  0  0
   10.4610   23.1350    3.0630 O   0  0  0  0  0  0  0  0  0  0  0  0
    9.5240   24.0830    2.7470 C   0  0  0  0  0  0  0  0  0  0  0  0
    9.9090   25.3270    2.2310 C   0  0  0  0  0  0  0  0  0  0  0  0
    8.9450   26.3100    1.8800 C   0  0  0  0  0  0  0  0  0  0  0  0
    7.5650   26.0600    2.0520 C   0  0  0  0  0  0  0  0  0  0  0  0
    7.1750   24.8090    2.5880 C   0  0  0  0  0  0  0  0  0  0  0  0
    8.1710   23.8260    2.9270 C   0  0  0  0  0  0  0  0  0  0  0  0
   15.5801   22.0933    5.6051 H   0  0  0  0  0  0  0  0  0  0  0  0
   14.3919   23.3508    3.7003 H   0  0  0  0  0  0  0  0  0  0  0  0
   13.5468   25.2025    5.9779 H   0  0  0  0  0  0  0  0  0  0  0  0
   11.2802   25.1049    4.8526 H   0  0  0  0  0  0  0  0  0  0  0  0
    9.6517   23.4825    5.9266 H   0  0  0  0  0  0  0  0  0  0  0  0
   10.4203   22.9059    7.5118 H   0  0  0  0  0  0  0  0  0  0  0  0
    8.4129   25.3512    6.2805 H   0  0  0  0  0  0  0  0  0  0  0  0
    8.1568   27.6183    7.2712 H   0  0  0  0  0  0  0  0  0  0  0  0
    9.9075   28.5321    8.8285 H   0  0  0  0  0  0  0  0  0  0  0  0
   11.8761   27.1068    9.3795 H   0  0  0  0  0  0  0  0  0  0  0  0
   12.0994   24.8155    8.3829 H   0  0  0  0  0  0  0  0  0  0  0  0
   14.4400   20.1216    6.4265 H   0  0  0  0  0  0  0  0  0  0  0  0
   12.9839   19.8777    5.2411 H   0  0  0  0  0  0  0  0  0  0  0  0
   16.4756   19.2517    5.6520 H   0  0  0  0  0  0  0  0  0  0  0  0
   17.8711   18.4751    3.7378 H   0  0  0  0  0  0  0  0  0  0  0  0
   17.0924   18.6950    1.3946 H   0  0  0  0  0  0  0  0  0  0  0  0
   14.8891   19.7658    0.8960 H   0  0  0  0  0  0  0  0  0  0  0  0
   13.4224   20.5567    2.7839 H   0  0  0  0  0  0  0  0  0  0  0  0
   15.4088   24.0414    7.1397 H   0  0  0  0  0  0  0  0  0  0  0  0
   13.5605   23.6383    7.1785 H   0  0  0  0  0  0  0  0  0  0  0  0
   14.6272   20.2871    9.8045 H   0  0  0  0  0  0  0  0  0  0  0  0
   16.6782   18.9556   10.4475 H   0  0  0  0  0  0  0  0  0  0  0  0
   18.9560   19.6866    9.6558 H   0  0  0  0  0  0  0  0  0  0  0  0
   19.2222   21.7201    8.1996 H   0  0  0  0  0  0  0  0  0  0  0  0
   17.1934   23.0657    7.5842 H   0  0  0  0  0  0  0  0  0  0  0  0
   15.9883   24.6858    5.6906 H   0  0  0  0  0  0  0  0  0  0  0  0
   13.6557   26.7185    4.4280 H   0  0  0  0  0  0  0  0  0  0  0  0
   12.3165   24.0285    2.7132 H   0  0  0  0  0  0  0  0  0  0  0  0
   12.2834   22.4736    3.7362 H   0  0  0  0  0  0  0  0  0  0  0  0
   10.9781   25.5471    2.0949 H   0  0  0  0  0  0  0  0  0  0  0  0
    9.2764   27.2755    1.4702 H   0  0  0  0  0  0  0  0  0  0  0  0
    6.8148   26.8161    1.7772 H   0  0  0  0  0  0  0  0  0  0  0  0
    6.1091   24.5876    2.7458 H   0  0  0  0  0  0  0  0  0  0  0  0
    7.8549   22.8548    3.3355 H   0  0  0  0  0  0  0  0  0  0  0  0
  1  2  1  0
  1  7  1  0
  1  8  1  0
  2  3  1  0
  2 15  2  0
  3  4  1  0
  3 16  1  0
  4  5  1  0
  4 23  1  0
  5  6  1  0
  5 31  1  0
  6  7  1  0
  6 32  1  0
  7 33  1  0
  8  9  1  0
  9 10  2  0
  9 14  1  0
 10 11  1  0
 11 12  2  0
 12 13  1  0
 13 14  2  0
 16 17  1  0
 17 18  2  0
 17 22  1  0
 18 19  1  0
 19 20  2  0
 20 21  1  0
 21 22  2  0
 23 24  1  0
 24 25  1  0
 25 26  2  0
 25 30  1  0
 26 27  1  0
 27 28  2  0
 28 29  1  0
 29 30  2  0
 33 34  1  0
 34 35  1  0
 35 36  2  0
 35 40  1  0
 36 37  1  0
 37 38  2  0
 38 39  1  0
 39 40  2  0
  4 41  1  0
  5 42  1  0
  6 43  1  0
  7 44  1  0
  8 45  1  0
  8 46  1  0
 10 47  1  0
 11 48  1  0
 12 49  1  0
 13 50  1  0
 14 51  1  0
 16 52  1  0
 16 53  1  0
 18 54  1  0
 19 55  1  0
 20 56  1  0
 21 57  1  0
 22 58  1  0
 23 59  1  0
 23 60  1  0
 26 61  1  0
 27 62  1  0
 28 63  1  0
 29 64  1  0
 30 65  1  0
 31 66  1  0
 32 67  1  0
 33 68  1  0
 33 69  1  0
 36 70  1  0
 37 71  1  0
 38 72  1  0
 39 73  1  0
 40 74  1  0
A    1
N01
A    2
C02
A    3
N03
A    4
C04
A    5
C05
A    6
C06
A    7
C07
A    8
C08
A    9
C09
A   10
C10
A   11
C11
A   12
C12
A   13
C13
A   14
C14
A   15
O15
A   16
C16
A   17
C17
A   18
C18
A   19
C19
A   20
C20
A   21
C21
A   22
C22
A   23
C23
A   24
O24
A   25
C25
A   26
C26
A   27
C27
A   28
C28
A   29
C29
A   30
C30
A   31
O31
A   32
O32
A   33
C33
A   34
O34
A   35
C35
A   36
C36
A   37
C37
A   38
C38
A   39
C39
A   40
C40
M  END
