1AL8_DHP_A_361
     RDKit          3D

 41 41  0  0  0  0  0  0  0  0999 V2000
   24.3430   71.5920   -4.9150 N   0  0  0  0  0  0  0  0  0  0  0  0
   24.5940   71.4280   -7.0310 C   0  0  0  0  0  0  0  0  0  0  0  0
   24.9670   71.1230   -8.1090 O   0  0  0  0  0  0  0  0  0  0  0  0
   25.0730   71.0360   -5.8620 C   0  0  0  0  0  0  0  0  0  0  0  0
   26.1220   70.2170   -5.5960 O   0  0  0  0  0  0  0  0  0  0  0  0
   23.4580   72.4250   -5.5130 C   0  0  0  0  0  0  0  0  0  0  0  0
   22.8420   73.0620   -4.3450 O   0  0  0  0  0  0  0  0  0  0  0  0
   23.5260   72.2910   -6.8530 C   0  0  0  0  0  0  0  0  0  0  0  0
   22.6320   72.9080   -7.9440 C   0  0  0  0  0  0  0  0  0  0  0  0
   23.2680   74.1170   -8.6570 C   0  0  0  0  0  0  0  0  0  0  0  0
   22.3660   74.6850   -9.7710 C   0  0  0  0  0  0  0  0  0  0  0  0
   22.2790   73.7670  -11.0050 C   0  0  0  0  0  0  0  0  0  0  0  0
   22.5100   74.5270  -12.3220 C   0  0  0  0  0  0  0  0  0  0  0  0
   22.6420   73.5990  -13.5460 C   0  0  0  0  0  0  0  0  0  0  0  0
   24.0440   73.6590  -14.1820 C   0  0  0  0  0  0  0  0  0  0  0  0
   24.0060   73.7420  -15.7190 C   0  0  0  0  0  0  0  0  0  0  0  0
   24.3820   72.4130  -16.3980 C   0  0  0  0  0  0  0  0  0  0  0  0
   25.7620   72.4990  -17.1330 C   0  0  0  0  0  0  0  0  0  0  0  0
   24.4301   71.4232   -3.9027 H   0  0  0  0  0  0  0  0  0  0  0  0
   25.7293   70.4997   -8.2111 H   0  0  0  0  0  0  0  0  0  0  0  0
   22.4184   72.1344   -8.6962 H   0  0  0  0  0  0  0  0  0  0  0  0
   21.7216   73.2719   -7.4452 H   0  0  0  0  0  0  0  0  0  0  0  0
   23.4527   74.9076   -7.9148 H   0  0  0  0  0  0  0  0  0  0  0  0
   24.2034   73.7760   -9.1247 H   0  0  0  0  0  0  0  0  0  0  0  0
   21.3530   74.8228   -9.3650 H   0  0  0  0  0  0  0  0  0  0  0  0
   22.8106   75.6358  -10.1002 H   0  0  0  0  0  0  0  0  0  0  0  0
   23.0419   72.9798  -10.9135 H   0  0  0  0  0  0  0  0  0  0  0  0
   21.2638   73.3447  -11.0365 H   0  0  0  0  0  0  0  0  0  0  0  0
   21.6597   75.2049  -12.4878 H   0  0  0  0  0  0  0  0  0  0  0  0
   23.4605   75.0715  -12.2217 H   0  0  0  0  0  0  0  0  0  0  0  0
   22.4426   72.5650  -13.2281 H   0  0  0  0  0  0  0  0  0  0  0  0
   21.9170   73.9362  -14.3015 H   0  0  0  0  0  0  0  0  0  0  0  0
   24.5659   74.5471  -13.7961 H   0  0  0  0  0  0  0  0  0  0  0  0
   24.5653   72.7275  -13.9162 H   0  0  0  0  0  0  0  0  0  0  0  0
   22.9885   74.0203  -16.0308 H   0  0  0  0  0  0  0  0  0  0  0  0
   24.7477   74.4932  -16.0283 H   0  0  0  0  0  0  0  0  0  0  0  0
   24.4363   71.6257  -15.6317 H   0  0  0  0  0  0  0  0  0  0  0  0
   23.6110   72.1853  -17.1488 H   0  0  0  0  0  0  0  0  0  0  0  0
   26.5710   72.5494  -16.3894 H   0  0  0  0  0  0  0  0  0  0  0  0
   25.8981   71.6076  -17.7630 H   0  0  0  0  0  0  0  0  0  0  0  0
   25.7864   73.4004  -17.7630 H   0  0  0  0  0  0  0  0  0  0  0  0
  1  4  1  0
  1  6  1  0
  2  3  1  0
  2  4  1  0
  2  8  2  0
  4  5  2  0
  6  7  2  0
  6  8  1  0
  8  9  1  0
  9 10  1  0
 10 11  1  0
 11 12  1  0
 12 13  1  0
 13 14  1  0
 14 15  1  0
 15 16  1  0
 16 17  1  0
 17 18  1  0
  1 19  1  0
  3 20  1  0
  9 21  1  0
  9 22  1  0
 10 23  1  0
 10 24  1  0
 11 25  1  0
 11 26  1  0
 12 27  1  0
 12 28  1  0
 13 29  1  0
 13 30  1  0
 14 31  1  0
 14 32  1  0
 15 33  1  0
 15 34  1  0
 16 35  1  0
 16 36  1  0
 17 37  1  0
 17 38  1  0
 18 39  1  0
 18 40  1  0
 18 41  1  0
A    1
N1
A    2
C1
A    3
O3
A    4
C2
A    5
O2
A    6
C3
A    7
O1
A    8
C4
A    9
C5
A   10
C6
A   11
C7
A   12
C8
A   13
C9
A   14
C10
A   15
C11
A   16
C12
A   17
C13
A   18
C14
M  END
