1ALN_CTD_A_295
     RDKit          3D

 31 32  0  0  0  0  0  0  0  0999 V2000
   35.2340   48.7950    9.5110 N   0  0  0  0  0  0  0  0  0  0  0  0
   36.0890   47.9700    8.8320 C   0  0  0  0  0  0  0  0  0  0  0  0
   35.6480   46.6370    8.6150 C   0  0  0  0  0  0  0  0  0  0  0  0
   34.3890   46.2780    8.9020 C   0  0  0  0  0  0  0  0  0  0  0  0
   33.5420   47.1930    9.6010 C   0  0  0  0  0  0  0  0  0  0  0  0
   33.9790   48.4280    9.9000 C   0  0  0  0  0  0  0  0  0  0  0  0
   37.1450   48.3570    8.3290 O   0  0  0  0  0  0  0  0  0  0  0  0
   33.9460   45.0830    8.5420 N   0  0  0  0  0  0  0  0  0  0  0  0
   35.7540   50.2830    9.8620 C   0  0  0  0  0  0  0  0  0  0  0  0
   35.6610   51.6400    9.2710 C   0  0  0  0  0  0  0  0  0  0  0  0
   36.5530   51.7510    8.1300 O   0  0  0  0  0  0  0  0  0  0  0  0
   35.9890   52.4540   10.4320 C   0  0  0  0  0  0  0  0  0  0  0  0
   35.5040   51.6020   11.6040 C   0  0  0  0  0  0  0  0  0  0  0  0
   35.7070   50.2340   11.2890 O   0  0  0  0  0  0  0  0  0  0  0  0
   37.3770   52.6210   10.5450 O   0  0  0  0  0  0  0  0  0  0  0  0
   34.1470   51.8980   12.0940 C   0  0  0  0  0  0  0  0  0  0  0  0
   33.2480   51.6520   11.0210 O   0  0  0  0  0  0  0  0  0  0  0  0
   36.3470   45.8919    8.2073 H   0  0  0  0  0  0  0  0  0  0  0  0
   32.5280   46.8848    9.8955 H   0  0  0  0  0  0  0  0  0  0  0  0
   33.3356   49.1312   10.4492 H   0  0  0  0  0  0  0  0  0  0  0  0
   33.6894   44.3909    9.2604 H   0  0  0  0  0  0  0  0  0  0  0  0
   33.8580   44.8457    7.5436 H   0  0  0  0  0  0  0  0  0  0  0  0
   36.5626   50.3619    9.1204 H   0  0  0  0  0  0  0  0  0  0  0  0
   34.6974   51.9383    8.8323 H   0  0  0  0  0  0  0  0  0  0  0  0
   37.4832   51.8668    8.4484 H   0  0  0  0  0  0  0  0  0  0  0  0
   35.5399   53.4569   10.3819 H   0  0  0  0  0  0  0  0  0  0  0  0
   36.1162   51.8755   12.4760 H   0  0  0  0  0  0  0  0  0  0  0  0
   37.6289   52.6513   11.5019 H   0  0  0  0  0  0  0  0  0  0  0  0
   33.9038   51.2462   12.9460 H   0  0  0  0  0  0  0  0  0  0  0  0
   34.0738   52.9422   12.4322 H   0  0  0  0  0  0  0  0  0  0  0  0
   32.3596   51.4089   11.3840 H   0  0  0  0  0  0  0  0  0  0  0  0
  1  2  1  0
  1  6  1  0
  1  9  1  0
  2  3  1  0
  2  7  2  0
  3  4  2  0
  4  5  1  0
  4  8  1  0
  5  6  2  0
  9 10  1  0
  9 14  1  0
 10 11  1  0
 10 12  1  0
 12 13  1  0
 12 15  1  0
 13 14  1  0
 13 16  1  0
 16 17  1  0
  3 18  1  0
  5 19  1  0
  6 20  1  0
  8 21  1  0
  8 22  1  0
  9 23  1  0
 10 24  1  0
 11 25  1  0
 12 26  1  0
 13 27  1  0
 15 28  1  0
 16 29  1  0
 16 30  1  0
 17 31  1  0
A    1
N1
A    2
C2
A    3
C3
A    4
C4
A    5
C5
A    6
C6
A    7
O2
A    8
N4
A    9
C1'
A   10
C2'
A   11
O2'
A   12
C3'
A   13
C4'
A   14
O4'
A   15
O3'
A   16
C5'
A   17
O5'
M  END
