1ALW_ISA_A_11
     RDKit          3D

 22 22  0  0  0  0  0  0  0  0999 V2000
    7.1160  -49.1470   38.4980 I   0  0  0  0  0  0  0  0  0  0  0  0
    8.6510  -49.7830   37.4240 C   0  0  0  0  0  0  0  0  0  0  0  0
    8.9710  -49.0630   36.2960 C   0  0  0  0  0  0  0  0  0  0  0  0
    9.8710  -49.5360   35.4390 C   0  0  0  0  0  0  0  0  0  0  0  0
    9.2470  -50.9610   37.7170 C   0  0  0  0  0  0  0  0  0  0  0  0
   10.1790  -51.4610   36.8290 C   0  0  0  0  0  0  0  0  0  0  0  0
   10.4930  -50.7460   35.6640 C   0  0  0  0  0  0  0  0  0  0  0  0
   11.3660  -51.2980   34.6640 C   0  0  0  0  0  0  0  0  0  0  0  0
   10.6520  -52.2670   33.6740 C   0  0  0  0  0  0  0  0  0  0  0  0
   11.8800  -53.0310   32.7030 S   0  0  0  0  0  0  0  0  0  0  0  0
    9.6110  -51.5540   32.8530 C   0  0  0  0  0  0  0  0  0  0  0  0
    9.9350  -50.4380   32.3120 O   0  0  0  0  0  0  0  0  0  0  0  0
    8.4560  -52.1140   32.7060 O   0  0  0  0  0  0  0  0  0  0  0  0
    8.4825  -48.0965   36.1032 H   0  0  0  0  0  0  0  0  0  0  0  0
   10.1225  -48.9549   34.5395 H   0  0  0  0  0  0  0  0  0  0  0  0
    8.9960  -51.5067   38.6385 H   0  0  0  0  0  0  0  0  0  0  0  0
   10.6754  -52.4206   37.0355 H   0  0  0  0  0  0  0  0  0  0  0  0
   11.7999  -50.4688   34.0860 H   0  0  0  0  0  0  0  0  0  0  0  0
   12.1301  -51.8857   35.1938 H   0  0  0  0  0  0  0  0  0  0  0  0
   10.0967  -53.0405   34.2247 H   0  0  0  0  0  0  0  0  0  0  0  0
   12.8132  -53.6116   33.5208 H   0  0  0  0  0  0  0  0  0  0  0  0
    7.9257  -52.3711   33.5015 H   0  0  0  0  0  0  0  0  0  0  0  0
  1  2  1  0
  2  3  2  0
  2  5  1  0
  3  4  1  0
  4  7  2  0
  5  6  2  0
  6  7  1  0
  7  8  1  0
  8  9  1  0
  9 10  1  0
  9 11  1  0
 11 12  2  0
 11 13  1  0
  3 14  1  0
  4 15  1  0
  5 16  1  0
  6 17  1  0
  8 18  1  0
  8 19  1  0
  9 20  1  0
 10 21  1  0
 13 22  1  0
A    1
I
A    2
CZ
A    3
CE1
A    4
CD1
A    5
CE2
A    6
CD2
A    7
CG
A    8
C4
A    9
C3
A   10
S3
A   11
C2
A   12
O3
A   13
O2
M  END
