1AMI_MIC_A_755
     RDKit          3D

 24 23  0  0  0  0  0  0  0  0999 V2000
   35.1320   34.7900   69.7840 C   0  0  0  0  0  0  0  0  0  0  0  0
   34.8330   36.0210   69.9410 O   0  0  0  0  0  0  0  0  0  0  0  0
   34.5770   34.1150   68.9120 O   0  0  0  0  0  0  0  0  0  0  0  0
   36.1740   34.0680   70.6680 C   0  0  0  0  0  0  0  0  0  0  0  0
   37.5430   34.5270   70.2680 C   0  0  0  0  0  0  0  0  0  0  0  0
   36.2340   32.6800   70.4200 O   0  0  0  0  0  0  0  0  0  0  0  0
   35.7260   34.3110   72.1410 C   0  0  0  0  0  0  0  0  0  0  0  0
   36.6350   33.9840   73.2800 C   0  0  0  0  0  0  0  0  0  0  0  0
   37.7830   34.8860   73.3900 C   0  0  0  0  0  0  0  0  0  0  0  0
   37.6780   36.1150   73.3340 O   0  0  0  0  0  0  0  0  0  0  0  0
   38.9160   34.3700   73.4540 O   0  0  0  0  0  0  0  0  0  0  0  0
   34.2500   33.9950   72.5810 C   0  0  0  0  0  0  0  0  0  0  0  0
   33.9450   33.9370   73.7730 O   0  0  0  0  0  0  0  0  0  0  0  0
   33.3390   33.7880   71.7660 O   0  0  0  0  0  0  0  0  0  0  0  0
   33.9698   33.3766   69.1693 H   0  0  0  0  0  0  0  0  0  0  0  0
   38.1405   34.7273   71.1696 H   0  0  0  0  0  0  0  0  0  0  0  0
   38.0323   33.7438   69.6704 H   0  0  0  0  0  0  0  0  0  0  0  0
   37.4613   35.4469   69.6704 H   0  0  0  0  0  0  0  0  0  0  0  0
   36.2551   32.1916   71.2809 H   0  0  0  0  0  0  0  0  0  0  0  0
   35.8062   35.3927   71.9579 H   0  0  0  0  0  0  0  0  0  0  0  0
   36.0568   34.0411   74.2141 H   0  0  0  0  0  0  0  0  0  0  0  0
   37.0332   32.9752   73.0962 H   0  0  0  0  0  0  0  0  0  0  0  0
   39.3258   34.1834   74.3356 H   0  0  0  0  0  0  0  0  0  0  0  0
   32.4257   33.5805   72.0867 H   0  0  0  0  0  0  0  0  0  0  0  0
  1  2  2  0
  1  3  1  0
  1  4  1  0
  4  5  1  0
  4  6  1  0
  4  7  1  0
  7  8  1  0
  7 12  1  0
  8  9  1  0
  9 10  2  0
  9 11  1  0
 12 13  2  0
 12 14  1  0
  3 15  1  0
  5 16  1  0
  5 17  1  0
  5 18  1  0
  6 19  1  0
  7 20  1  0
  8 21  1  0
  8 22  1  0
 11 23  1  0
 14 24  1  0
A    1
C1
A    2
O1
A    3
O2
A    4
C2
A    5
CM2
A    6
O7
A    7
C3
A    8
C4
A    9
C5
A   10
O3
A   11
O4
A   12
C6
A   13
O5
A   14
O6
M  END
