1AHY_MAE_A_411
     RDKit          3D

 12 11  0  0  0  0  0  0  0  0999 V2000
   -9.5480   53.2920   24.8840 C   0  0  0  0  0  0  0  0  0  0  0  0
   -9.1740   52.0800   24.9770 O   0  0  0  0  0  0  0  0  0  0  0  0
  -10.2880   53.8910   25.7420 O   0  0  0  0  0  0  0  0  0  0  0  0
   -9.1070   54.1020   23.7050 C   0  0  0  0  0  0  0  0  0  0  0  0
   -9.4240   55.3490   23.3490 C   0  0  0  0  0  0  0  0  0  0  0  0
  -10.3320   56.3460   24.0030 C   0  0  0  0  0  0  0  0  0  0  0  0
  -11.4260   56.6050   23.4540 O   0  0  0  0  0  0  0  0  0  0  0  0
   -9.9720   56.9270   25.0550 O   0  0  0  0  0  0  0  0  0  0  0  0
  -10.1277   53.7612   26.7103 H   0  0  0  0  0  0  0  0  0  0  0  0
   -8.4119   53.5886   23.0244 H   0  0  0  0  0  0  0  0  0  0  0  0
   -8.9404   55.7019   22.4262 H   0  0  0  0  0  0  0  0  0  0  0  0
  -10.2086   56.5451   25.9372 H   0  0  0  0  0  0  0  0  0  0  0  0
  1  2  2  0
  1  3  1  0
  1  4  1  0
  4  5  2  0
  5  6  1  0
  6  7  2  0
  6  8  1  0
  3  9  1  0
  4 10  1  0
  5 11  1  0
  8 12  1  0
A    1
C1
A    2
O1
A    3
O2
A    4
C2
A    5
C3
A    6
C4
A    7
O3
A    8
O4
M  END
