1AQV_0HG_A_2201
     RDKit          3D

 51 51  0  0  0  0  0  0  0  0999 V2000
   17.7080    0.8830   24.0960 N   0  0  0  0  0  0  0  0  0  0  0  0
   17.4320    1.6350   25.3590 C   0  0  0  0  0  0  0  0  0  0  0  0
   16.4650    2.7760   25.0280 C   0  0  0  0  0  0  0  0  0  0  0  0
   15.6970    3.2150   25.9200 O   0  0  0  0  0  0  0  0  0  0  0  0
   18.7300    2.2050   25.9240 C   0  0  0  0  0  0  0  0  0  0  0  0
   18.5570    2.8710   27.2730 C   0  0  0  0  0  0  0  0  0  0  0  0
   19.8720    3.2670   27.8770 C   0  0  0  0  0  0  0  0  0  0  0  0
   20.9240    3.1970   27.2150 O   0  0  0  0  0  0  0  0  0  0  0  0
   16.4490    3.1550   23.8330 O   0  0  0  0  0  0  0  0  0  0  0  0
   21.0250    4.1120   29.8630 C   0  0  0  0  0  0  0  0  0  0  0  0
   20.9900    3.5660   31.2900 C   0  0  0  0  0  0  0  0  0  0  0  0
   19.9220    3.4010   31.8690 O   0  0  0  0  0  0  0  0  0  0  0  0
   19.8260    3.6830   29.1400 N   0  0  0  0  0  0  0  0  0  0  0  0
   20.9740    5.6770   30.0980 C   0  0  0  0  0  0  0  0  0  0  0  0
   21.0190    6.6640   28.5710 S   0  0  0  0  0  0  0  0  0  0  0  0
   24.0710    9.9990   33.8260 Br  0  0  0  0  0  0  0  0  0  0  0  0
   23.0680    7.7880   29.7630 C   0  0  0  0  0  0  0  0  0  0  0  0
   24.0990    7.3110   30.5800 C   0  0  0  0  0  0  0  0  0  0  0  0
   24.4130    7.9560   31.7890 C   0  0  0  0  0  0  0  0  0  0  0  0
   23.7000    9.0910   32.2020 C   0  0  0  0  0  0  0  0  0  0  0  0
   22.6750    9.5630   31.3800 C   0  0  0  0  0  0  0  0  0  0  0  0
   22.3590    8.9230   30.1780 C   0  0  0  0  0  0  0  0  0  0  0  0
   22.7280    7.1530   28.5510 C   0  0  0  0  0  0  0  0  0  0  0  0
   22.1580    3.5050   31.9070 N   0  0  0  0  0  0  0  0  0  0  0  0
   22.2300    3.0140   33.2640 C   0  0  0  0  0  0  0  0  0  0  0  0
   22.6110    1.5550   33.3630 C   0  0  0  0  0  0  0  0  0  0  0  0
   22.7820    0.8850   32.3140 O   0  0  0  0  0  0  0  0  0  0  0  0
   22.7660    1.0920   34.5040 O   0  0  0  0  0  0  0  0  0  0  0  0
   18.0539   -0.0595   24.3262 H   0  0  0  0  0  0  0  0  0  0  0  0
   16.8406    0.8055   23.5460 H   0  0  0  0  0  0  0  0  0  0  0  0
   18.4196    1.3851   23.5460 H   0  0  0  0  0  0  0  0  0  0  0  0
   16.9919    0.9641   26.1114 H   0  0  0  0  0  0  0  0  0  0  0  0
   19.4541    1.3839   26.0307 H   0  0  0  0  0  0  0  0  0  0  0  0
   19.0781    2.9775   25.2225 H   0  0  0  0  0  0  0  0  0  0  0  0
   17.9382    3.7717   27.1476 H   0  0  0  0  0  0  0  0  0  0  0  0
   18.0762    2.1489   27.9493 H   0  0  0  0  0  0  0  0  0  0  0  0
   16.4082    4.1211   23.6206 H   0  0  0  0  0  0  0  0  0  0  0  0
   21.8938    3.7758   29.2780 H   0  0  0  0  0  0  0  0  0  0  0  0
   18.9175    3.7040   29.6249 H   0  0  0  0  0  0  0  0  0  0  0  0
   20.0438    5.9148   30.6348 H   0  0  0  0  0  0  0  0  0  0  0  0
   21.8762    5.9396   30.6699 H   0  0  0  0  0  0  0  0  0  0  0  0
   24.6697    6.4221   30.2731 H   0  0  0  0  0  0  0  0  0  0  0  0
   25.2269    7.5662   32.4180 H   0  0  0  0  0  0  0  0  0  0  0  0
   22.1060   10.4542   31.6835 H   0  0  0  0  0  0  0  0  0  0  0  0
   21.5446    9.3149   29.5510 H   0  0  0  0  0  0  0  0  0  0  0  0
   23.3592    6.2619   28.4184 H   0  0  0  0  0  0  0  0  0  0  0  0
   22.8901    7.8557   27.7204 H   0  0  0  0  0  0  0  0  0  0  0  0
   23.0146    3.8069   31.4213 H   0  0  0  0  0  0  0  0  0  0  0  0
   22.9802    3.6065   33.8083 H   0  0  0  0  0  0  0  0  0  0  0  0
   21.2230    3.1131   33.6954 H   0  0  0  0  0  0  0  0  0  0  0  0
   22.5776    1.6548   35.2964 H   0  0  0  0  0  0  0  0  0  0  0  0
  1  2  1  0
  2  3  1  0
  2  5  1  0
  3  4  2  0
  3  9  1  0
  5  6  1  0
  6  7  1  0
  7  8  2  0
 10 11  1  0
 10 13  1  0
 10 14  1  0
 11 12  2  0
 14 15  1  0
 15 23  1  0
 16 20  1  0
 17 18  2  0
 17 22  1  0
 17 23  1  0
 18 19  1  0
 19 20  2  0
 20 21  1  0
 21 22  2  0
 24 25  1  0
 25 26  1  0
 26 27  2  0
 26 28  1  0
  7 13  1  0
 11 24  1  0
  1 29  1  0
  1 30  1  0
  1 31  1  0
  2 32  1  0
  5 33  1  0
  5 34  1  0
  6 35  1  0
  6 36  1  0
  9 37  1  0
 10 38  1  0
 13 39  1  0
 14 40  1  0
 14 41  1  0
 18 42  1  0
 19 43  1  0
 21 44  1  0
 22 45  1  0
 23 46  1  0
 23 47  1  0
 24 48  1  0
 25 49  1  0
 25 50  1  0
 28 51  1  0
M  CHG  1   1   1
A    1
N
A    2
CA
A    3
C
A    4
O
A    5
CB
A    6
CG
A    7
CD
A    8
OE1
A    9
OXT
A   10
CA1
A   11
C1
A   12
O1
A   13
N1
A   14
CB1
A   15
SG
A   16
BR
A   17
C11
A   18
C2
A   19
C3
A   20
C4
A   21
C5
A   22
C6
A   23
C7
A   24
N2
A   25
CA2
A   26
C8
A   27
O2
A   28
OXT1
M  END
