1A2B_GSP_A_538
     RDKit          3D

 48 50  0  0  0  0  0  0  0  0999 V2000
    8.4140   29.9140   26.7600 P   0  0  0  0  0  0  0  0  0  0  0  0
    9.7490   29.0980   27.4300 O   0  0  0  0  0  0  0  0  0  0  0  0
    7.3590   30.3480   28.2900 S   0  0  0  0  0  0  0  0  0  0  0  0
    8.9680   31.1250   26.0820 O   0  0  0  0  0  0  0  0  0  0  0  0
    7.8360   28.8930   25.8210 O   0  0  0  0  0  0  0  0  0  0  0  0
   11.1620   28.6580   26.8020 P   0  0  0  0  0  0  0  0  0  0  0  0
   11.0350   27.2470   26.4810 O   0  0  0  0  0  0  0  0  0  0  0  0
   11.6020   29.5360   25.6480 O   0  0  0  0  0  0  0  0  0  0  0  0
   13.4950   29.7620   28.2830 P   0  0  0  0  0  0  0  0  0  0  0  0
   14.4040   29.5200   27.1490 O   0  0  0  0  0  0  0  0  0  0  0  0
   12.9870   31.1530   28.4690 O   0  0  0  0  0  0  0  0  0  0  0  0
   12.2440   28.7330   28.0130 O   0  0  0  0  0  0  0  0  0  0  0  0
   14.1500   29.2130   29.6710 O   0  0  0  0  0  0  0  0  0  0  0  0
   13.4480   28.5810   30.7250 C   0  0  0  0  0  0  0  0  0  0  0  0
   14.2160   28.6240   32.0160 C   0  0  0  0  0  0  0  0  0  0  0  0
   15.2880   27.6270   32.0370 O   0  0  0  0  0  0  0  0  0  0  0  0
   14.9130   29.9750   32.1750 C   0  0  0  0  0  0  0  0  0  0  0  0
   14.9600   30.3820   33.5500 O   0  0  0  0  0  0  0  0  0  0  0  0
   16.3490   29.7310   31.6550 C   0  0  0  0  0  0  0  0  0  0  0  0
   17.3160   30.5890   32.2230 O   0  0  0  0  0  0  0  0  0  0  0  0
   16.6170   28.2580   32.0380 C   0  0  0  0  0  0  0  0  0  0  0  0
   17.4600   27.5600   31.0280 N   0  0  0  0  0  0  0  0  0  0  0  0
   17.4870   27.6970   29.6450 C   0  0  0  0  0  0  0  0  0  0  0  0
   18.3290   26.9340   29.0420 N   0  0  0  0  0  0  0  0  0  0  0  0
   18.9230   26.2250   30.0890 C   0  0  0  0  0  0  0  0  0  0  0  0
   19.9620   25.1890   30.0600 C   0  0  0  0  0  0  0  0  0  0  0  0
   20.5610   24.6970   29.0910 O   0  0  0  0  0  0  0  0  0  0  0  0
   20.2690   24.7350   31.3480 N   0  0  0  0  0  0  0  0  0  0  0  0
   19.6730   25.2040   32.5010 C   0  0  0  0  0  0  0  0  0  0  0  0
   20.0480   24.7040   33.6630 N   0  0  0  0  0  0  0  0  0  0  0  0
   18.7180   26.1520   32.5220 N   0  0  0  0  0  0  0  0  0  0  0  0
   18.3940   26.6100   31.2890 C   0  0  0  0  0  0  0  0  0  0  0  0
    9.2665   31.7775   26.7641 H   0  0  0  0  0  0  0  0  0  0  0  0
    7.4217   28.1612   26.3435 H   0  0  0  0  0  0  0  0  0  0  0  0
   12.0163   30.3627   26.0016 H   0  0  0  0  0  0  0  0  0  0  0  0
   12.9146   31.3513   29.4362 H   0  0  0  0  0  0  0  0  0  0  0  0
   12.4846   29.0925   30.8673 H   0  0  0  0  0  0  0  0  0  0  0  0
   13.3007   27.5258   30.4514 H   0  0  0  0  0  0  0  0  0  0  0  0
   13.4848   28.4358   32.8159 H   0  0  0  0  0  0  0  0  0  0  0  0
   14.3827   30.7706   31.6312 H   0  0  0  0  0  0  0  0  0  0  0  0
   14.8682   29.5870   34.1328 H   0  0  0  0  0  0  0  0  0  0  0  0
   16.4258   29.9362   30.5770 H   0  0  0  0  0  0  0  0  0  0  0  0
   17.2611   30.5403   33.2103 H   0  0  0  0  0  0  0  0  0  0  0  0
   17.1472   28.2003   33.0001 H   0  0  0  0  0  0  0  0  0  0  0  0
   16.8380   28.4038   29.1073 H   0  0  0  0  0  0  0  0  0  0  0  0
   20.9871   24.0026   31.4414 H   0  0  0  0  0  0  0  0  0  0  0  0
   19.7230   25.1373   34.5391 H   0  0  0  0  0  0  0  0  0  0  0  0
   20.6657   23.8804   33.6940 H   0  0  0  0  0  0  0  0  0  0  0  0
  1  2  1  0
  1  3  2  0
  1  4  1  0
  1  5  1  0
  2  6  1  0
  6  7  2  0
  6  8  1  0
  6 12  1  0
  9 10  2  0
  9 11  1  0
  9 12  1  0
  9 13  1  0
 13 14  1  0
 14 15  1  0
 15 16  1  0
 15 17  1  0
 16 21  1  0
 17 18  1  0
 17 19  1  0
 19 20  1  0
 19 21  1  0
 21 22  1  0
 22 23  1  0
 22 32  1  0
 23 24  2  0
 24 25  1  0
 25 26  1  0
 25 32  2  0
 26 27  2  0
 26 28  1  0
 28 29  1  0
 29 30  1  0
 29 31  2  0
 31 32  1  0
  4 33  1  0
  5 34  1  0
  8 35  1  0
 11 36  1  0
 14 37  1  0
 14 38  1  0
 15 39  1  0
 17 40  1  0
 18 41  1  0
 19 42  1  0
 20 43  1  0
 21 44  1  0
 23 45  1  0
 28 46  1  0
 30 47  1  0
 30 48  1  0
A    1
PG
A    2
O3B
A    3
S1G
A    4
O2G
A    5
O3G
A    6
PB
A    7
O1B
A    8
O2B
A    9
PA
A   10
O1A
A   11
O2A
A   12
O3A
A   13
O5'
A   14
C5'
A   15
C4'
A   16
O4'
A   17
C3'
A   18
O3'
A   19
C2'
A   20
O2'
A   21
C1'
A   22
N9
A   23
C8
A   24
N7
A   25
C5
A   26
C6
A   27
O6
A   28
N1
A   29
C2
A   30
N2
A   31
N3
A   32
C4
M  END
