1AT1_PCT_A_311
     RDKit          3D

 14 13  0  0  0  0  0  0  0  0999 V2000
   45.9390   29.5470   16.1140 P   0  0  0  0  0  0  0  0  0  0  0  0
   45.8250   30.0420   17.6310 O   0  0  0  0  0  0  0  0  0  0  0  0
   46.9430   28.3390   15.9780 O   0  0  0  0  0  0  0  0  0  0  0  0
   46.2250   30.8100   15.1920 O   0  0  0  0  0  0  0  0  0  0  0  0
   44.2540   28.8050   15.7670 C   0  0  0  0  0  0  0  0  0  0  0  0
   43.2520   29.7860   15.1200 C   0  0  0  0  0  0  0  0  0  0  0  0
   43.5140   30.9990   14.9500 O   0  0  0  0  0  0  0  0  0  0  0  0
   42.0430   29.3360   14.8130 N   0  0  0  0  0  0  0  0  0  0  0  0
   47.2046   28.0242   16.8794 H   0  0  0  0  0  0  0  0  0  0  0  0
   46.4039   31.6002   15.7610 H   0  0  0  0  0  0  0  0  0  0  0  0
   44.3868   27.9497   15.0882 H   0  0  0  0  0  0  0  0  0  0  0  0
   43.8297   28.5150   16.7396 H   0  0  0  0  0  0  0  0  0  0  0  0
   41.3799   29.0892   15.5615 H   0  0  0  0  0  0  0  0  0  0  0  0
   41.7670   29.2333   13.8260 H   0  0  0  0  0  0  0  0  0  0  0  0
  1  2  2  0
  1  3  1  0
  1  4  1  0
  1  5  1  0
  5  6  1  0
  6  7  2  0
  6  8  1  0
  3  9  1  0
  4 10  1  0
  5 11  1  0
  5 12  1  0
  8 13  1  0
  8 14  1  0
A    1
P
A    2
O1P
A    3
O2P
A    4
O3P
A    5
C1P
A    6
C1
A    7
O1
A    8
N1
M  END
