1ATL_0QI_A_301
     RDKit          3D

 48 48  0  0  0  0  0  0  0  0999 V2000
    2.1320   23.7440    0.5680 C   0  0  0  0  0  0  0  0  0  0  0  0
    1.3330   24.4110   -0.1070 O   0  0  0  0  0  0  0  0  0  0  0  0
    2.2330   22.2130    0.4330 C   0  0  0  0  0  0  0  0  0  0  0  0
    0.8610   21.5510    0.2790 C   0  0  0  0  0  0  0  0  0  0  0  0
   -0.1070   21.4440    1.8150 S   0  0  0  0  0  0  0  0  0  0  0  0
    3.0820   21.8570   -0.7940 C   0  0  0  0  0  0  0  0  0  0  0  0
    4.3910   22.6360   -1.0190 C   0  0  0  0  0  0  0  0  0  0  0  0
    4.9790   22.2740   -2.3840 C   0  0  0  0  0  0  0  0  0  0  0  0
    5.4060   22.3680    0.1000 C   0  0  0  0  0  0  0  0  0  0  0  0
    2.9960   24.2880    1.4160 N   0  0  0  0  0  0  0  0  0  0  0  0
    3.0760   25.7180    1.6560 C   0  0  0  0  0  0  0  0  0  0  0  0
    4.2870   26.0300    2.5510 C   0  0  0  0  0  0  0  0  0  0  0  0
    4.7820   27.1690    2.5610 O   0  0  0  0  0  0  0  0  0  0  0  0
    1.7530   26.2330    2.2490 C   0  0  0  0  0  0  0  0  0  0  0  0
    1.2290   25.4990    3.4710 C   0  0  0  0  0  0  0  0  0  0  0  0
    1.8870   24.3840    3.9840 C   0  0  0  0  0  0  0  0  0  0  0  0
    0.0860   25.9470    4.1280 C   0  0  0  0  0  0  0  0  0  0  0  0
    1.4300   23.7410    5.1130 C   0  0  0  0  0  0  0  0  0  0  0  0
   -0.3820   25.3120    5.2640 C   0  0  0  0  0  0  0  0  0  0  0  0
    0.2960   24.2040    5.7530 C   0  0  0  0  0  0  0  0  0  0  0  0
   -0.1470   23.5450    6.8820 O   0  0  0  0  0  0  0  0  0  0  0  0
    4.7930   25.0850    3.1840 O   0  0  0  0  0  0  0  0  0  0  0  0
    0.3660   23.3430    8.2010 C   0  0  0  0  0  0  0  0  0  0  0  0
    2.6971   21.8383    1.3572 H   0  0  0  0  0  0  0  0  0  0  0  0
    0.2802   22.1321   -0.4524 H   0  0  0  0  0  0  0  0  0  0  0  0
    1.0494   20.5161   -0.0426 H   0  0  0  0  0  0  0  0  0  0  0  0
    0.7342   21.5370    2.8923 H   0  0  0  0  0  0  0  0  0  0  0  0
    3.3453   20.7922   -0.7116 H   0  0  0  0  0  0  0  0  0  0  0  0
    2.4503   22.1281   -1.6528 H   0  0  0  0  0  0  0  0  0  0  0  0
    4.1614   23.7116   -0.9992 H   0  0  0  0  0  0  0  0  0  0  0  0
    5.9080   21.7021   -2.2430 H   0  0  0  0  0  0  0  0  0  0  0  0
    4.2551   21.6650   -2.9453 H   0  0  0  0  0  0  0  0  0  0  0  0
    5.1968   23.1946   -2.9453 H   0  0  0  0  0  0  0  0  0  0  0  0
    4.9173   22.4970    1.0770 H   0  0  0  0  0  0  0  0  0  0  0  0
    5.7849   21.3390    0.0126 H   0  0  0  0  0  0  0  0  0  0  0  0
    6.2435   23.0758    0.0126 H   0  0  0  0  0  0  0  0  0  0  0  0
    3.6394   23.6673    1.9275 H   0  0  0  0  0  0  0  0  0  0  0  0
    3.2273   26.2485    0.7043 H   0  0  0  0  0  0  0  0  0  0  0  0
    1.8996   27.2866    2.5289 H   0  0  0  0  0  0  0  0  0  0  0  0
    0.9988   26.0703    1.4650 H   0  0  0  0  0  0  0  0  0  0  0  0
    2.7890   24.0096    3.4778 H   0  0  0  0  0  0  0  0  0  0  0  0
   -0.4543   26.8215    3.7365 H   0  0  0  0  0  0  0  0  0  0  0  0
    1.9652   22.8629    5.5035 H   0  0  0  0  0  0  0  0  0  0  0  0
   -1.2831   25.6816    5.7752 H   0  0  0  0  0  0  0  0  0  0  0  0
    4.7884   25.0936    4.1740 H   0  0  0  0  0  0  0  0  0  0  0  0
   -0.3928   23.6418    8.9393 H   0  0  0  0  0  0  0  0  0  0  0  0
    0.6137   22.2802    8.3393 H   0  0  0  0  0  0  0  0  0  0  0  0
    1.2718   23.9516    8.3393 H   0  0  0  0  0  0  0  0  0  0  0  0
  1  2  2  0
  1  3  1  0
  3  4  1  0
  3  6  1  0
  4  5  1  0
  6  7  1  0
  7  8  1  0
  7  9  1  0
 10 11  1  0
 11 12  1  0
 11 14  1  0
 12 13  2  0
 12 22  1  0
 14 15  1  0
 15 16  2  0
 15 17  1  0
 16 18  1  0
 17 19  2  0
 18 20  2  0
 19 20  1  0
 20 21  1  0
  1 10  1  0
 21 23  1  0
  3 24  1  0
  4 25  1  0
  4 26  1  0
  5 27  1  0
  6 28  1  0
  6 29  1  0
  7 30  1  0
  8 31  1  0
  8 32  1  0
  8 33  1  0
  9 34  1  0
  9 35  1  0
  9 36  1  0
 10 37  1  0
 11 38  1  0
 14 39  1  0
 14 40  1  0
 16 41  1  0
 17 42  1  0
 18 43  1  0
 19 44  1  0
 22 45  1  0
 23 46  1  0
 23 47  1  0
 23 48  1  0
A    1
C1
A    2
O1
A    3
C2
A    4
CH
A    5
S
A    6
C3
A    7
C4
A    8
CM
A    9
C5
A   10
N
A   11
CA
A   12
C
A   13
O
A   14
CB
A   15
CG
A   16
CD1
A   17
CD2
A   18
CE1
A   19
CE2
A   20
CZ
A   21
OH
A   22
OXT
A   23
C6
M  END
