1AZ8_IN4_A_1
     RDKit          3D

 50 51  0  0  0  0  0  0  0  0999 V2000
   28.7160   15.6230   17.6590 C   0  0  0  0  0  0  0  0  0  0  0  0
   28.5060   14.9230   18.8410 C   0  0  0  0  0  0  0  0  0  0  0  0
   28.7820   13.5560   18.8730 C   0  0  0  0  0  0  0  0  0  0  0  0
   29.2670   12.9080   17.7210 C   0  0  0  0  0  0  0  0  0  0  0  0
   29.5080   13.6250   16.5660 C   0  0  0  0  0  0  0  0  0  0  0  0
   29.2410   14.9760   16.5360 C   0  0  0  0  0  0  0  0  0  0  0  0
   29.5850   11.4860   17.6480 C   0  0  0  0  0  0  0  0  0  0  0  0
   31.0690   11.3560   17.9310 C   0  0  0  0  0  0  0  0  0  0  0  0
   31.6200    9.9640   17.7050 C   0  0  0  0  0  0  0  0  0  0  0  0
   33.1260   10.0330   17.8150 C   0  0  0  0  0  0  0  0  0  0  0  0
   29.4890   15.7280   15.2710 C   0  0  0  0  0  0  0  0  0  0  0  0
   30.0110   15.1830   14.1970 N   0  0  0  0  0  0  0  0  0  0  0  0
   29.1310   16.9790   15.2230 N   0  0  0  0  0  0  0  0  0  0  0  0
   33.8520   10.4790   16.7160 C   0  0  0  0  0  0  0  0  0  0  0  0
   35.2400   10.6050   16.8120 C   0  0  0  0  0  0  0  0  0  0  0  0
   35.9330   10.2280   17.9800 C   0  0  0  0  0  0  0  0  0  0  0  0
   37.4550   10.3150   18.0100 C   0  0  0  0  0  0  0  0  0  0  0  0
   35.1940    9.7490   19.0750 C   0  0  0  0  0  0  0  0  0  0  0  0
   33.8000    9.6770   18.9960 C   0  0  0  0  0  0  0  0  0  0  0  0
   38.1210    9.8960   19.0690 N   0  0  0  0  0  0  0  0  0  0  0  0
   38.1610   10.7920   16.9820 N   0  0  0  0  0  0  0  0  0  0  0  0
   28.7020   10.5770   18.5370 C   0  0  0  0  0  0  0  0  0  0  0  0
   27.1800   10.7960   18.4520 C   0  0  0  0  0  0  0  0  0  0  0  0
   26.6350   10.9600   17.3600 O   0  0  0  0  0  0  0  0  0  0  0  0
   26.4550   10.7490   19.6240 O   0  0  0  0  0  0  0  0  0  0  0  0
   25.0400   10.8690   19.7260 C   0  0  0  0  0  0  0  0  0  0  0  0
   28.4676   16.6933   17.6064 H   0  0  0  0  0  0  0  0  0  0  0  0
   28.1284   15.4383   19.7365 H   0  0  0  0  0  0  0  0  0  0  0  0
   28.6206   12.9841   19.7987 H   0  0  0  0  0  0  0  0  0  0  0  0
   29.9107   13.1205   15.6753 H   0  0  0  0  0  0  0  0  0  0  0  0
   29.3487   11.1114   16.6411 H   0  0  0  0  0  0  0  0  0  0  0  0
   31.6089   12.0527   17.2728 H   0  0  0  0  0  0  0  0  0  0  0  0
   31.2105   11.5847   18.9976 H   0  0  0  0  0  0  0  0  0  0  0  0
   31.2214    9.2769   18.4659 H   0  0  0  0  0  0  0  0  0  0  0  0
   31.3264    9.5940   16.7116 H   0  0  0  0  0  0  0  0  0  0  0  0
   30.1595   15.7517   13.3512 H   0  0  0  0  0  0  0  0  0  0  0  0
   28.9804   17.5054   16.0954 H   0  0  0  0  0  0  0  0  0  0  0  0
   28.9985   17.4422   14.3126 H   0  0  0  0  0  0  0  0  0  0  0  0
   33.3368   10.7309   15.7773 H   0  0  0  0  0  0  0  0  0  0  0  0
   35.8042   11.0071   15.9576 H   0  0  0  0  0  0  0  0  0  0  0  0
   35.7112    9.4314   19.9924 H   0  0  0  0  0  0  0  0  0  0  0  0
   33.2234    9.3375   19.8691 H   0  0  0  0  0  0  0  0  0  0  0  0
   39.1491    9.9555   19.0876 H   0  0  0  0  0  0  0  0  0  0  0  0
   39.0024   11.3605   17.1547 H   0  0  0  0  0  0  0  0  0  0  0  0
   37.8642   10.5915   16.0163 H   0  0  0  0  0  0  0  0  0  0  0  0
   28.9052    9.5339   18.2530 H   0  0  0  0  0  0  0  0  0  0  0  0
   28.9738   10.8321   19.5719 H   0  0  0  0  0  0  0  0  0  0  0  0
   24.7496   10.8936   20.7867 H   0  0  0  0  0  0  0  0  0  0  0  0
   24.7145   11.7980   19.2351 H   0  0  0  0  0  0  0  0  0  0  0  0
   24.5627   10.0081   19.2351 H   0  0  0  0  0  0  0  0  0  0  0  0
  1  2  2  0
  1  6  1  0
  2  3  1  0
  3  4  2  0
  4  5  1  0
  4  7  1  0
  5  6  2  0
  6 11  1  0
  7  8  1  0
  7 22  1  0
  8  9  1  0
  9 10  1  0
 10 14  2  0
 10 19  1  0
 11 12  2  3
 11 13  1  0
 14 15  1  0
 15 16  2  0
 16 17  1  0
 16 18  1  0
 17 20  2  3
 17 21  1  0
 18 19  2  0
 22 23  1  0
 23 24  2  0
 23 25  1  0
 25 26  1  0
  1 27  1  0
  2 28  1  0
  3 29  1  0
  5 30  1  0
  7 31  1  0
  8 32  1  0
  8 33  1  0
  9 34  1  0
  9 35  1  0
 12 36  1  0
 13 37  1  0
 13 38  1  0
 14 39  1  0
 15 40  1  0
 18 41  1  0
 19 42  1  0
 20 43  1  0
 21 44  1  0
 21 45  1  0
 22 46  1  0
 22 47  1  0
 26 48  1  0
 26 49  1  0
 26 50  1  0
A    1
C1
A    2
C2
A    3
C3
A    4
C4
A    5
C5
A    6
C6
A    7
C10
A    8
C9
A    9
C11
A   10
C12
A   11
C20
A   12
N3
A   13
N4
A   14
C7
A   15
C13
A   16
C15
A   17
C16
A   18
C17
A   19
C19
A   20
N2
A   21
N1
A   22
C14
A   23
C22
A   24
O3
A   25
O4
A   26
C8
M  END
