1B3D_S27_B_401
     RDKit          3D

 53 54  0  0  0  0  0  0  0  0999 V2000
  -21.9780   30.3140    1.8130 C   0  0  0  0  0  0  0  0  0  0  0  0
  -22.1200   29.2620    2.8140 C   0  0  0  0  0  0  0  0  0  0  0  0
  -21.8300   29.5540    4.2110 C   0  0  0  0  0  0  0  0  0  0  0  0
  -21.3850   30.8630    4.6440 C   0  0  0  0  0  0  0  0  0  0  0  0
  -21.2200   31.9020    3.6440 C   0  0  0  0  0  0  0  0  0  0  0  0
  -21.5120   31.6270    2.2440 C   0  0  0  0  0  0  0  0  0  0  0  0
  -22.6440   30.1410    0.0940 P   0  0  0  0  0  0  0  0  0  0  0  0
  -22.2880   31.3090   -0.7260 O   0  0  0  0  0  0  0  0  0  0  0  0
  -24.4920   30.1970    0.2040 C   0  0  0  0  0  0  0  0  0  0  0  0
  -22.1750   28.7580   -0.8000 N   0  0  0  0  0  0  0  0  0  0  0  0
  -22.6930   27.4270   -0.3620 C   0  0  0  0  0  0  0  0  0  0  0  0
  -23.8070   26.8670   -1.2180 C   0  0  0  0  0  0  0  0  0  0  0  0
  -24.3390   27.5030   -2.4030 C   0  0  0  0  0  0  0  0  0  0  0  0
  -25.4450   26.8970   -3.1260 C   0  0  0  0  0  0  0  0  0  0  0  0
  -26.0110   25.6460   -2.6490 C   0  0  0  0  0  0  0  0  0  0  0  0
  -25.4770   25.0010   -1.4610 C   0  0  0  0  0  0  0  0  0  0  0  0
  -24.3690   25.6120   -0.7400 C   0  0  0  0  0  0  0  0  0  0  0  0
  -20.7930   28.8990   -1.3380 C   0  0  0  0  0  0  0  0  0  0  0  0
  -19.6960   29.0180   -0.2630 C   0  0  0  0  0  0  0  0  0  0  0  0
  -18.8530   30.0530   -0.3340 N   0  0  0  0  0  0  0  0  0  0  0  0
  -17.5710   29.8190    0.2350 O   0  0  0  0  0  0  0  0  0  0  0  0
  -19.4630   28.1160    0.5710 O   0  0  0  0  0  0  0  0  0  0  0  0
  -20.5110   27.6980   -2.2630 C   0  0  0  0  0  0  0  0  0  0  0  0
  -19.2300   27.6820   -3.1030 C   0  0  0  0  0  0  0  0  0  0  0  0
  -19.1960   28.9140   -3.9880 C   0  0  0  0  0  0  0  0  0  0  0  0
  -19.1790   26.4210   -3.9540 C   0  0  0  0  0  0  0  0  0  0  0  0
  -22.4442   28.2542    2.5152 H   0  0  0  0  0  0  0  0  0  0  0  0
  -21.9524   28.7572    4.9594 H   0  0  0  0  0  0  0  0  0  0  0  0
  -21.1772   31.0646    5.7052 H   0  0  0  0  0  0  0  0  0  0  0  0
  -20.8729   32.9015    3.9449 H   0  0  0  0  0  0  0  0  0  0  0  0
  -21.3786   32.4243    1.4979 H   0  0  0  0  0  0  0  0  0  0  0  0
  -24.7963   30.2062    1.2610 H   0  0  0  0  0  0  0  0  0  0  0  0
  -24.8614   31.1068   -0.2919 H   0  0  0  0  0  0  0  0  0  0  0  0
  -24.9158   29.3113   -0.2919 H   0  0  0  0  0  0  0  0  0  0  0  0
  -21.8569   26.7123   -0.3779 H   0  0  0  0  0  0  0  0  0  0  0  0
  -23.1183   27.5752    0.6416 H   0  0  0  0  0  0  0  0  0  0  0  0
  -23.9050   28.4491   -2.7586 H   0  0  0  0  0  0  0  0  0  0  0  0
  -25.8503   27.3812   -4.0267 H   0  0  0  0  0  0  0  0  0  0  0  0
  -26.8494   25.1842   -3.1910 H   0  0  0  0  0  0  0  0  0  0  0  0
  -25.9089   24.0532   -1.1072 H   0  0  0  0  0  0  0  0  0  0  0  0
  -23.9597   25.1287    0.1594 H   0  0  0  0  0  0  0  0  0  0  0  0
  -20.7539   29.8514   -1.8870 H   0  0  0  0  0  0  0  0  0  0  0  0
  -19.1121   30.9507   -0.7674 H   0  0  0  0  0  0  0  0  0  0  0  0
  -17.6409   29.8318    1.2224 H   0  0  0  0  0  0  0  0  0  0  0  0
  -20.4882   26.8013   -1.6263 H   0  0  0  0  0  0  0  0  0  0  0  0
  -21.3134   27.7537   -3.0134 H   0  0  0  0  0  0  0  0  0  0  0  0
  -18.3548   27.6888   -2.4367 H   0  0  0  0  0  0  0  0  0  0  0  0
  -19.1711   29.8164   -3.3595 H   0  0  0  0  0  0  0  0  0  0  0  0
  -18.2983   28.8846   -4.6231 H   0  0  0  0  0  0  0  0  0  0  0  0
  -20.0939   28.9342   -4.6231 H   0  0  0  0  0  0  0  0  0  0  0  0
  -19.1433   25.5379   -3.2991 H   0  0  0  0  0  0  0  0  0  0  0  0
  -20.0758   26.3706   -4.5889 H   0  0  0  0  0  0  0  0  0  0  0  0
  -18.2810   26.4432   -4.5889 H   0  0  0  0  0  0  0  0  0  0  0  0
  1  2  2  0
  1  6  1  0
  1  7  1  0
  2  3  1  0
  3  4  2  0
  4  5  1  0
  5  6  2  0
  7  8  2  0
  7  9  1  0
  7 10  1  0
 10 11  1  0
 10 18  1  0
 11 12  1  0
 12 13  2  0
 12 17  1  0
 13 14  1  0
 14 15  2  0
 15 16  1  0
 16 17  2  0
 18 19  1  0
 18 23  1  0
 19 20  1  0
 19 22  2  0
 20 21  1  0
 23 24  1  0
 24 25  1  0
 24 26  1  0
  2 27  1  0
  3 28  1  0
  4 29  1  0
  5 30  1  0
  6 31  1  0
  9 32  1  0
  9 33  1  0
  9 34  1  0
 11 35  1  0
 11 36  1  0
 13 37  1  0
 14 38  1  0
 15 39  1  0
 16 40  1  0
 17 41  1  0
 18 42  1  0
 20 43  1  0
 21 44  1  0
 23 45  1  0
 23 46  1  0
 24 47  1  0
 25 48  1  0
 25 49  1  0
 25 50  1  0
 26 51  1  0
 26 52  1  0
 26 53  1  0
A    1
C1
A    2
C2
A    3
C3
A    4
C4
A    5
C5
A    6
C6
A    7
P7
A    8
O8
A    9
C9
A   10
N10
A   11
C11
A   12
C12
A   13
C13
A   14
C14
A   15
C15
A   16
C16
A   17
C17
A   18
C18
A   19
C
A   20
NA
A   21
OA
A   22
OB
A   23
C7
A   24
C8
A   25
C10
A   26
C23
M  END
