1B42_M1A_A_600
     RDKit          3D

 19 20  0  0  0  0  0  0  0  0999 V2000
   18.5840   12.3140   19.6800 N   0  0  0  0  0  0  0  0  0  0  0  0
   18.9520   13.3950   18.9240 C   0  0  0  0  0  0  0  0  0  0  0  0
   18.3390   14.5040   19.2460 N   0  0  0  0  0  0  0  0  0  0  0  0
   17.4970   14.1420   20.3050 C   0  0  0  0  0  0  0  0  0  0  0  0
   16.5740   14.8800   21.1070 C   0  0  0  0  0  0  0  0  0  0  0  0
   16.3460   16.1760   20.9850 N   0  0  0  0  0  0  0  0  0  0  0  0
   15.9140   14.2170   22.0590 N   0  0  0  0  0  0  0  0  0  0  0  0
   16.1580   12.9120   22.2200 C   0  0  0  0  0  0  0  0  0  0  0  0
   16.9980   12.0940   21.5610 N   0  0  0  0  0  0  0  0  0  0  0  0
   17.6440   12.7980   20.5810 C   0  0  0  0  0  0  0  0  0  0  0  0
   14.9780   14.9840   22.8580 C   0  0  0  0  0  0  0  0  0  0  0  0
   18.9306   11.3475   19.5980 H   0  0  0  0  0  0  0  0  0  0  0  0
   19.6974   13.3355   18.1172 H   0  0  0  0  0  0  0  0  0  0  0  0
   16.2429   16.7621   21.8257 H   0  0  0  0  0  0  0  0  0  0  0  0
   16.2714   16.5999   20.0493 H   0  0  0  0  0  0  0  0  0  0  0  0
   15.5781   12.4297   23.0207 H   0  0  0  0  0  0  0  0  0  0  0  0
   15.1833   14.8158   23.9255 H   0  0  0  0  0  0  0  0  0  0  0  0
   15.0896   16.0537   22.6273 H   0  0  0  0  0  0  0  0  0  0  0  0
   13.9511   14.6643   22.6273 H   0  0  0  0  0  0  0  0  0  0  0  0
  1  2  1  0
  1 10  1  0
  2  3  2  0
  3  4  1  0
  4  5  1  0
  4 10  2  0
  5  6  1  0
  5  7  2  0
  7  8  1  0
  7 11  1  0
  8  9  2  0
  9 10  1  0
  1 12  1  0
  2 13  1  0
  6 14  1  0
  6 15  1  0
  8 16  1  0
 11 17  1  0
 11 18  1  0
 11 19  1  0
M  CHG  1   7   1
A    1
N9
A    2
C8
A    3
N7
A    4
C5
A    5
C6
A    6
N6
A    7
N1
A    8
C2
A    9
N3
A   10
C4
A   11
CN1
M  END
