1B48_HAG_A_223
     RDKit          3D

 64 64  0  0  0  0  0  0  0  0999 V2000
   34.3580   16.8880   30.1630 C   0  0  0  0  0  0  0  0  0  0  0  0
   32.4890   17.4790   36.0980 C   0  0  0  0  0  0  0  0  0  0  0  0
   35.2570   17.5880   38.3290 C   0  0  0  0  0  0  0  0  0  0  0  0
   35.1460   19.0510   29.0720 N   0  0  0  0  0  0  0  0  0  0  0  0
   35.2050   18.1420   30.3250 C   0  0  0  0  0  0  0  0  0  0  0  0
   33.8920   16.0930   31.0610 O   0  0  0  0  0  0  0  0  0  0  0  0
   33.9660   16.4040   28.8980 O   0  0  0  0  0  0  0  0  0  0  0  0
   34.7330   19.1240   31.4630 C   0  0  0  0  0  0  0  0  0  0  0  0
   35.1600   18.4890   32.7700 C   0  0  0  0  0  0  0  0  0  0  0  0
   34.4300   19.0240   33.9620 C   0  0  0  0  0  0  0  0  0  0  0  0
   34.9140   19.7520   34.8830 O   0  0  0  0  0  0  0  0  0  0  0  0
   33.1030   18.6700   34.0450 N   0  0  0  0  0  0  0  0  0  0  0  0
   32.4730   18.8820   35.3860 C   0  0  0  0  0  0  0  0  0  0  0  0
   32.0340   16.6200   35.3440 O   0  0  0  0  0  0  0  0  0  0  0  0
   31.0200   19.4060   35.2060 C   0  0  0  0  0  0  0  0  0  0  0  0
   30.8010   20.5700   36.5340 S   0  0  0  0  0  0  0  0  0  0  0  0
   32.9950   17.5150   37.3460 N   0  0  0  0  0  0  0  0  0  0  0  0
   34.1080   18.4100   37.7540 C   0  0  0  0  0  0  0  0  0  0  0  0
   35.2680   17.2580   39.5730 O   0  0  0  0  0  0  0  0  0  0  0  0
   36.2170   17.2570   37.4510 O   0  0  0  0  0  0  0  0  0  0  0  0
   31.2530   22.3010   36.2080 C   0  0  0  0  0  0  0  0  0  0  0  0
   32.6530   22.5860   35.7730 C   0  0  0  0  0  0  0  0  0  0  0  0
   33.5040   23.5860   33.5810 O   0  0  0  0  0  0  0  0  0  0  0  0
   32.5900   22.5930   34.2230 C   0  0  0  0  0  0  0  0  0  0  0  0
   31.2370   22.9170   33.9020 O   0  0  0  0  0  0  0  0  0  0  0  0
   30.3200   22.7810   35.0550 C   0  0  0  0  0  0  0  0  0  0  0  0
   29.7380   24.1870   35.4140 C   0  0  0  0  0  0  0  0  0  0  0  0
   28.7690   24.7630   34.3050 C   0  0  0  0  0  0  0  0  0  0  0  0
   27.8670   23.8980   33.3660 C   0  0  0  0  0  0  0  0  0  0  0  0
   27.0810   22.7490   34.0020 C   0  0  0  0  0  0  0  0  0  0  0  0
   26.5510   22.8470   35.4070 C   0  0  0  0  0  0  0  0  0  0  0  0
   35.0820   20.0363   29.3653 H   0  0  0  0  0  0  0  0  0  0  0  0
   35.9976   18.9150   28.5088 H   0  0  0  0  0  0  0  0  0  0  0  0
   36.1956   17.7143   30.5388 H   0  0  0  0  0  0  0  0  0  0  0  0
   34.0153   16.3034   32.0205 H   0  0  0  0  0  0  0  0  0  0  0  0
   35.2117   20.1069   31.3418 H   0  0  0  0  0  0  0  0  0  0  0  0
   33.6451   19.2834   31.4304 H   0  0  0  0  0  0  0  0  0  0  0  0
   34.9767   17.4062   32.7069 H   0  0  0  0  0  0  0  0  0  0  0  0
   36.2251   18.7252   32.9109 H   0  0  0  0  0  0  0  0  0  0  0  0
   32.5816   18.2873   33.2434 H   0  0  0  0  0  0  0  0  0  0  0  0
   33.0130   19.6292   35.9860 H   0  0  0  0  0  0  0  0  0  0  0  0
   30.9030   19.9015   34.2309 H   0  0  0  0  0  0  0  0  0  0  0  0
   30.2762   18.5960   35.2317 H   0  0  0  0  0  0  0  0  0  0  0  0
   32.5883   16.8884   38.0552 H   0  0  0  0  0  0  0  0  0  0  0  0
   33.7470   19.1148   38.5175 H   0  0  0  0  0  0  0  0  0  0  0  0
   34.4664   18.9636   36.8736 H   0  0  0  0  0  0  0  0  0  0  0  0
   35.2446   17.9593   40.2714 H   0  0  0  0  0  0  0  0  0  0  0  0
   31.1504   22.8155   37.1748 H   0  0  0  0  0  0  0  0  0  0  0  0
   32.9856   23.5636   36.1521 H   0  0  0  0  0  0  0  0  0  0  0  0
   33.3676   21.8432   36.1572 H   0  0  0  0  0  0  0  0  0  0  0  0
   33.9774   24.1003   34.2821 H   0  0  0  0  0  0  0  0  0  0  0  0
   32.9162   21.6139   33.8423 H   0  0  0  0  0  0  0  0  0  0  0  0
   29.4770   22.1002   34.8658 H   0  0  0  0  0  0  0  0  0  0  0  0
   29.1786   24.1031   36.3574 H   0  0  0  0  0  0  0  0  0  0  0  0
   30.5878   24.8805   35.4971 H   0  0  0  0  0  0  0  0  0  0  0  0
   28.0792   25.4339   34.8379 H   0  0  0  0  0  0  0  0  0  0  0  0
   29.5024   25.1446   33.5794 H   0  0  0  0  0  0  0  0  0  0  0  0
   27.1385   24.5741   32.8946 H   0  0  0  0  0  0  0  0  0  0  0  0
   28.5699   23.4081   32.6761 H   0  0  0  0  0  0  0  0  0  0  0  0
   26.2110   22.5705   33.3530 H   0  0  0  0  0  0  0  0  0  0  0  0
   27.8418   21.9593   34.0889 H   0  0  0  0  0  0  0  0  0  0  0  0
   27.3740   22.6948   36.1208 H   0  0  0  0  0  0  0  0  0  0  0  0
   26.1091   23.8421   35.5636 H   0  0  0  0  0  0  0  0  0  0  0  0
   25.7825   22.0757   35.5636 H   0  0  0  0  0  0  0  0  0  0  0  0
  1  5  1  0
  1  6  1  0
  1  7  2  0
  2 13  1  0
  2 14  2  0
  2 17  1  0
  3 18  1  0
  3 19  1  0
  3 20  2  0
  4  5  1  0
  5  8  1  0
  8  9  1  0
  9 10  1  0
 10 11  2  0
 10 12  1  0
 12 13  1  0
 13 15  1  0
 15 16  1  0
 16 21  1  0
 17 18  1  0
 21 22  1  0
 21 26  1  0
 22 24  1  0
 23 24  1  0
 24 25  1  0
 25 26  1  0
 26 27  1  0
 27 28  1  0
 28 29  1  0
 29 30  1  0
 30 31  1  0
  4 32  1  0
  4 33  1  0
  5 34  1  0
  6 35  1  0
  8 36  1  0
  8 37  1  0
  9 38  1  0
  9 39  1  0
 12 40  1  0
 13 41  1  0
 15 42  1  0
 15 43  1  0
 17 44  1  0
 18 45  1  0
 18 46  1  0
 19 47  1  0
 21 48  1  0
 22 49  1  0
 22 50  1  0
 23 51  1  0
 24 52  1  0
 26 53  1  0
 27 54  1  0
 27 55  1  0
 28 56  1  0
 28 57  1  0
 29 58  1  0
 29 59  1  0
 30 60  1  0
 30 61  1  0
 31 62  1  0
 31 63  1  0
 31 64  1  0
A    1
C1
A    2
C2
A    3
C3
A    4
N1
A    5
CA1
A    6
O11
A    7
O12
A    8
CB1
A    9
CG1
A   10
CD1
A   11
OE1
A   12
N2
A   13
CA2
A   14
O2
A   15
CB2
A   16
SG2
A   17
N3
A   18
CA3
A   19
O31
A   20
O32
A   21
C41
A   22
C42
A   23
O42
A   24
C43
A   25
O43
A   26
C44
A   27
C45
A   28
C46
A   29
C47
A   30
C48
A   31
C49
M  END
