1B5Q_MD2_A_590
     RDKit          3D

 34 33  0  0  0  0  0  0  0  0999 V2000
  132.7260   64.9910   -4.8570 C   0  0  0  0  0  0  0  0  0  0  0  0
  131.0990   60.5010   -6.6660 C   0  0  0  0  0  0  0  0  0  0  0  0
  130.1230   59.4620   -7.1890 C   0  0  0  0  0  0  0  0  0  0  0  0
  126.7980   57.4520   -4.6310 C   0  0  0  0  0  0  0  0  0  0  0  0
  125.5450   56.6120   -4.8860 C   0  0  0  0  0  0  0  0  0  0  0  0
  131.9940   64.5400   -5.8670 C   0  0  0  0  0  0  0  0  0  0  0  0
  131.2250   64.1150   -6.8570 C   0  0  0  0  0  0  0  0  0  0  0  0
  130.4540   62.8180   -6.6660 C   0  0  0  0  0  0  0  0  0  0  0  0
  131.0790   61.7390   -7.4310 N   0  0  0  0  0  0  0  0  0  0  0  0
  129.6180   58.6620   -5.9750 C   0  0  0  0  0  0  0  0  0  0  0  0
  128.1610   58.2990   -6.2610 C   0  0  0  0  0  0  0  0  0  0  0  0
  127.9600   57.0880   -5.4660 N   0  0  0  0  0  0  0  0  0  0  0  0
  124.9300   56.7460   -6.0550 C   0  0  0  0  0  0  0  0  0  0  0  0
  124.3410   56.8800   -7.2360 C   0  0  0  0  0  0  0  0  0  0  0  0
  133.7832   64.6997   -4.7709 H   0  0  0  0  0  0  0  0  0  0  0  0
  132.2758   65.6563   -4.1055 H   0  0  0  0  0  0  0  0  0  0  0  0
  130.8399   60.7304   -5.6218 H   0  0  0  0  0  0  0  0  0  0  0  0
  132.1097   60.0762   -6.7557 H   0  0  0  0  0  0  0  0  0  0  0  0
  129.2791   59.9568   -7.6920 H   0  0  0  0  0  0  0  0  0  0  0  0
  130.6113   58.7991   -7.9184 H   0  0  0  0  0  0  0  0  0  0  0  0
  126.5508   58.5058   -4.8270 H   0  0  0  0  0  0  0  0  0  0  0  0
  127.0922   57.2658   -3.5876 H   0  0  0  0  0  0  0  0  0  0  0  0
  125.1646   55.9171   -4.1228 H   0  0  0  0  0  0  0  0  0  0  0  0
  131.1456   64.6855   -7.7942 H   0  0  0  0  0  0  0  0  0  0  0  0
  130.4507   62.5515   -5.5988 H   0  0  0  0  0  0  0  0  0  0  0  0
  129.4228   62.9587   -7.0222 H   0  0  0  0  0  0  0  0  0  0  0  0
  132.0460   62.0071   -7.6632 H   0  0  0  0  0  0  0  0  0  0  0  0
  130.2178   57.7488   -5.8471 H   0  0  0  0  0  0  0  0  0  0  0  0
  129.7039   59.2514   -5.0502 H   0  0  0  0  0  0  0  0  0  0  0  0
  127.4828   59.1019   -5.9364 H   0  0  0  0  0  0  0  0  0  0  0  0
  127.9532   58.1536   -7.3314 H   0  0  0  0  0  0  0  0  0  0  0  0
  128.7858   56.8804   -4.8865 H   0  0  0  0  0  0  0  0  0  0  0  0
  123.2442   56.9327   -7.3008 H   0  0  0  0  0  0  0  0  0  0  0  0
  124.9494   56.9385   -8.1506 H   0  0  0  0  0  0  0  0  0  0  0  0
  1  6  2  3
  2  3  1  0
  2  9  1  0
  3 10  1  0
  4  5  1  0
  4 12  1  0
  5 13  2  3
  6  7  2  3
  7  8  1  0
  8  9  1  0
 10 11  1  0
 11 12  1  0
 13 14  2  3
  1 15  1  0
  1 16  1  0
  2 17  1  0
  2 18  1  0
  3 19  1  0
  3 20  1  0
  4 21  1  0
  4 22  1  0
  5 23  1  0
  7 24  1  0
  8 25  1  0
  8 26  1  0
  9 27  1  0
 10 28  1  0
 10 29  1  0
 11 30  1  0
 11 31  1  0
 12 32  1  0
 14 33  1  0
 14 34  1  0
A    1
C1
A    2
C6
A    3
C7
A    4
C11
A    5
C12
A    6
C2
A    7
C3
A    8
C4
A    9
N5
A   10
C8
A   11
C9
A   12
N10
A   13
C13
A   14
C14
M  END
