1B7Y_FYA_A_1002
     RDKit          3D

 58 61  0  0  0  0  0  0  0  0999 V2000
   17.7110   63.5150   18.9870 C   0  0  0  0  0  0  0  0  0  0  0  0
   19.2000   63.3630   18.5880 C   0  0  0  0  0  0  0  0  0  0  0  0
   19.6730   61.9460   18.6830 N   0  0  0  0  0  0  0  0  0  0  0  0
   19.4540   63.8790   17.1690 C   0  0  0  0  0  0  0  0  0  0  0  0
   20.7280   64.6710   17.0370 C   0  0  0  0  0  0  0  0  0  0  0  0
   20.7030   66.0640   17.0250 C   0  0  0  0  0  0  0  0  0  0  0  0
   21.9580   64.0280   16.9360 C   0  0  0  0  0  0  0  0  0  0  0  0
   21.8860   66.8110   16.9150 C   0  0  0  0  0  0  0  0  0  0  0  0
   23.1430   64.7630   16.8260 C   0  0  0  0  0  0  0  0  0  0  0  0
   23.1040   66.1630   16.8160 C   0  0  0  0  0  0  0  0  0  0  0  0
   15.2460   63.8630   18.3800 P   0  0  0  0  0  0  0  0  0  0  0  0
   14.9350   63.7750   19.8230 O   0  0  0  0  0  0  0  0  0  0  0  0
   14.5580   64.8650   17.5470 O   0  0  0  0  0  0  0  0  0  0  0  0
   16.8780   64.0670   18.2000 O   0  0  0  0  0  0  0  0  0  0  0  0
   14.9840   62.4120   17.7100 O   0  0  0  0  0  0  0  0  0  0  0  0
   15.6850   62.0370   16.5170 C   0  0  0  0  0  0  0  0  0  0  0  0
   14.7430   61.7300   15.3350 C   0  0  0  0  0  0  0  0  0  0  0  0
   13.9160   60.5800   15.6250 O   0  0  0  0  0  0  0  0  0  0  0  0
   13.8200   62.8940   15.0600 C   0  0  0  0  0  0  0  0  0  0  0  0
   14.3390   63.7440   14.0370 O   0  0  0  0  0  0  0  0  0  0  0  0
   12.5020   62.2710   14.6680 C   0  0  0  0  0  0  0  0  0  0  0  0
   12.3420   62.2590   13.2400 O   0  0  0  0  0  0  0  0  0  0  0  0
   12.5590   60.8420   15.2100 C   0  0  0  0  0  0  0  0  0  0  0  0
   11.6600   60.6800   16.3710 N   0  0  0  0  0  0  0  0  0  0  0  0
   11.6100   61.4130   17.5360 C   0  0  0  0  0  0  0  0  0  0  0  0
   10.7150   60.9900   18.3860 N   0  0  0  0  0  0  0  0  0  0  0  0
   10.1070   59.9180   17.7330 C   0  0  0  0  0  0  0  0  0  0  0  0
    9.0840   59.0340   18.1090 C   0  0  0  0  0  0  0  0  0  0  0  0
    8.4440   59.1120   19.2740 N   0  0  0  0  0  0  0  0  0  0  0  0
    8.7340   58.0790   17.2180 N   0  0  0  0  0  0  0  0  0  0  0  0
    9.3880   58.0020   16.0620 C   0  0  0  0  0  0  0  0  0  0  0  0
   10.3610   58.7700   15.5960 N   0  0  0  0  0  0  0  0  0  0  0  0
   10.6910   59.7100   16.5110 C   0  0  0  0  0  0  0  0  0  0  0  0
   17.3334   62.5003   19.1816 H   0  0  0  0  0  0  0  0  0  0  0  0
   17.7554   64.2213   19.8291 H   0  0  0  0  0  0  0  0  0  0  0  0
   19.7692   63.9703   19.3072 H   0  0  0  0  0  0  0  0  0  0  0  0
   19.7620   61.6795   19.6739 H   0  0  0  0  0  0  0  0  0  0  0  0
   18.9935   61.3255   18.2202 H   0  0  0  0  0  0  0  0  0  0  0  0
   19.5085   63.0159   16.4892 H   0  0  0  0  0  0  0  0  0  0  0  0
   18.6244   64.5562   16.9176 H   0  0  0  0  0  0  0  0  0  0  0  0
   19.7388   66.5876   17.1031 H   0  0  0  0  0  0  0  0  0  0  0  0
   21.9989   62.9288   16.9427 H   0  0  0  0  0  0  0  0  0  0  0  0
   21.8447   67.9102   16.9075 H   0  0  0  0  0  0  0  0  0  0  0  0
   24.1077   64.2403   16.7472 H   0  0  0  0  0  0  0  0  0  0  0  0
   24.0349   66.7428   16.7301 H   0  0  0  0  0  0  0  0  0  0  0  0
   14.1052   65.5244   18.1304 H   0  0  0  0  0  0  0  0  0  0  0  0
   16.3519   62.8627   16.2282 H   0  0  0  0  0  0  0  0  0  0  0  0
   16.2438   61.1161   16.7398 H   0  0  0  0  0  0  0  0  0  0  0  0
   15.3808   61.5359   14.4600 H   0  0  0  0  0  0  0  0  0  0  0  0
   13.7077   63.5450   15.9395 H   0  0  0  0  0  0  0  0  0  0  0  0
   14.8075   64.5113   14.4516 H   0  0  0  0  0  0  0  0  0  0  0  0
   11.6497   62.8363   15.0730 H   0  0  0  0  0  0  0  0  0  0  0  0
   11.3803   62.1869   13.0163 H   0  0  0  0  0  0  0  0  0  0  0  0
   12.2378   60.1407   14.4258 H   0  0  0  0  0  0  0  0  0  0  0  0
   12.2642   62.2754   17.7318 H   0  0  0  0  0  0  0  0  0  0  0  0
    8.9712   59.0477   20.1565 H   0  0  0  0  0  0  0  0  0  0  0  0
    7.4217   59.2366   19.2927 H   0  0  0  0  0  0  0  0  0  0  0  0
    9.0756   57.1827   15.3978 H   0  0  0  0  0  0  0  0  0  0  0  0
  1  2  1  0
  1 14  1  0
  2  3  1  0
  2  4  1  0
  4  5  1  0
  5  6  2  0
  5  7  1  0
  6  8  1  0
  7  9  2  0
  8 10  2  0
  9 10  1  0
 11 12  2  0
 11 13  1  0
 11 14  1  0
 11 15  1  0
 15 16  1  0
 16 17  1  0
 17 18  1  0
 17 19  1  0
 18 23  1  0
 19 20  1  0
 19 21  1  0
 21 22  1  0
 21 23  1  0
 23 24  1  0
 24 25  1  0
 24 33  1  0
 25 26  2  0
 26 27  1  0
 27 28  1  0
 27 33  2  0
 28 29  1  0
 28 30  2  0
 30 31  1  0
 31 32  2  0
 32 33  1  0
  1 34  1  0
  1 35  1  0
  2 36  1  0
  3 37  1  0
  3 38  1  0
  4 39  1  0
  4 40  1  0
  6 41  1  0
  7 42  1  0
  8 43  1  0
  9 44  1  0
 10 45  1  0
 13 46  1  0
 16 47  1  0
 16 48  1  0
 17 49  1  0
 19 50  1  0
 20 51  1  0
 21 52  1  0
 22 53  1  0
 23 54  1  0
 25 55  1  0
 29 56  1  0
 29 57  1  0
 31 58  1  0
A    1
C
A    2
CA
A    3
N
A    4
CB
A    5
CG
A    6
CD1
A    7
CD2
A    8
CE1
A    9
CE2
A   10
CZ
A   11
P
A   12
O1P
A   13
O2P
A   14
O3P
A   15
O5'
A   16
C5'
A   17
C4'
A   18
O4'
A   19
C3'
A   20
O3'
A   21
C2'
A   22
O2'
A   23
C1'
A   24
N9
A   25
C8
A   26
N7
A   27
C5
A   28
C6
A   29
N6
A   30
N1
A   31
C2
A   32
N3
A   33
C4
M  END
