1B8N_IMG_A_600
     RDKit          3D

 35 37  0  0  0  0  0  0  0  0999 V2000
  -66.6900   90.3810   97.6050 O   0  0  0  0  0  0  0  0  0  0  0  0
  -65.3860   90.2550   97.0230 C   0  0  0  0  0  0  0  0  0  0  0  0
  -65.0230   88.8980   96.3610 C   0  0  0  0  0  0  0  0  0  0  0  0
  -66.0870   88.7440   95.3660 N   0  0  0  0  0  0  0  0  0  0  0  0
  -63.7130   88.8060   95.5100 C   0  0  0  0  0  0  0  0  0  0  0  0
  -63.1890   87.4580   95.3440 O   0  0  0  0  0  0  0  0  0  0  0  0
  -64.1210   89.3510   94.0980 C   0  0  0  0  0  0  0  0  0  0  0  0
  -63.5970   88.5380   93.0400 O   0  0  0  0  0  0  0  0  0  0  0  0
  -65.6640   89.2910   94.0800 C   0  0  0  0  0  0  0  0  0  0  0  0
  -66.3690   90.7420   93.8760 C   0  0  0  0  0  0  0  0  0  0  0  0
  -67.6470   91.0320   94.1550 C   0  0  0  0  0  0  0  0  0  0  0  0
  -67.9010   92.4140   93.8430 N   0  0  0  0  0  0  0  0  0  0  0  0
  -66.6630   92.9030   93.3710 C   0  0  0  0  0  0  0  0  0  0  0  0
  -66.3870   94.2710   92.9020 C   0  0  0  0  0  0  0  0  0  0  0  0
  -67.1280   95.2670   92.8890 O   0  0  0  0  0  0  0  0  0  0  0  0
  -65.0700   94.3360   92.5080 N   0  0  0  0  0  0  0  0  0  0  0  0
  -62.9040   93.5180   91.9370 N   0  0  0  0  0  0  0  0  0  0  0  0
  -64.1390   93.3000   92.5200 C   0  0  0  0  0  0  0  0  0  0  0  0
  -64.4690   92.0930   92.9490 N   0  0  0  0  0  0  0  0  0  0  0  0
  -65.7330   91.9400   93.3610 C   0  0  0  0  0  0  0  0  0  0  0  0
  -66.6130   90.3736   98.5920 H   0  0  0  0  0  0  0  0  0  0  0  0
  -65.2934   91.0331   96.2510 H   0  0  0  0  0  0  0  0  0  0  0  0
  -64.6913   90.3473   97.8708 H   0  0  0  0  0  0  0  0  0  0  0  0
  -64.8971   88.1710   97.1769 H   0  0  0  0  0  0  0  0  0  0  0  0
  -66.3049   87.7435   95.2542 H   0  0  0  0  0  0  0  0  0  0  0  0
  -62.9158   89.3676   96.0191 H   0  0  0  0  0  0  0  0  0  0  0  0
  -63.0317   87.0532   96.2337 H   0  0  0  0  0  0  0  0  0  0  0  0
  -63.7243   90.3643   93.9375 H   0  0  0  0  0  0  0  0  0  0  0  0
  -63.1032   87.7718   93.4262 H   0  0  0  0  0  0  0  0  0  0  0  0
  -65.9715   88.6707   93.2252 H   0  0  0  0  0  0  0  0  0  0  0  0
  -68.3862   90.3248   94.5592 H   0  0  0  0  0  0  0  0  0  0  0  0
  -68.7867   92.9304   93.9418 H   0  0  0  0  0  0  0  0  0  0  0  0
  -64.7368   95.2492   92.1675 H   0  0  0  0  0  0  0  0  0  0  0  0
  -62.0738   93.6645   92.5288 H   0  0  0  0  0  0  0  0  0  0  0  0
  -62.8144   93.5338   90.9110 H   0  0  0  0  0  0  0  0  0  0  0  0
  1  2  1  0
  2  3  1  0
  3  4  1  0
  3  5  1  0
  4  9  1  0
  5  6  1  0
  5  7  1  0
  7  8  1  0
  7  9  1  0
  9 10  1  0
 10 11  2  0
 10 20  1  0
 11 12  1  0
 12 13  1  0
 13 14  1  0
 13 20  2  0
 14 15  2  0
 14 16  1  0
 16 18  1  0
 17 18  1  0
 18 19  2  0
 19 20  1  0
  1 21  1  0
  2 22  1  0
  2 23  1  0
  3 24  1  0
  4 25  1  0
  5 26  1  0
  6 27  1  0
  7 28  1  0
  8 29  1  0
  9 30  1  0
 11 31  1  0
 12 32  1  0
 16 33  1  0
 17 34  1  0
 17 35  1  0
A    1
O5'
A    2
C5'
A    3
C4'
A    4
N4'
A    5
C3'
A    6
O3'
A    7
C2'
A    8
O2'
A    9
C1'
A   10
C9
A   11
C8
A   12
N7
A   13
C5
A   14
C6
A   15
O6
A   16
N1
A   17
N2
A   18
C2
A   19
N3
A   20
C4
M  END
