1BB6_UMG_A_130
     RDKit          3D

102106  0  0  0  0  0  0  0  0999 V2000
   48.3150   44.0060   26.4060 O   0  0  0  0  0  0  0  0  0  0  0  0
   46.7230   40.5070   25.2980 C   0  0  0  0  0  0  0  0  0  0  0  0
   50.4340   44.7860   25.9810 O   0  0  0  0  0  0  0  0  0  0  0  0
   45.4630   40.7480   25.9200 C   0  0  0  0  0  0  0  0  0  0  0  0
   44.9670   41.8590   26.6470 C   0  0  0  0  0  0  0  0  0  0  0  0
   45.6830   43.0660   26.9560 C   0  0  0  0  0  0  0  0  0  0  0  0
   47.0750   43.0390   26.4120 C   0  0  0  0  0  0  0  0  0  0  0  0
   49.8240   42.6550   25.1630 C   0  0  0  0  0  0  0  0  0  0  0  0
   48.9540   41.5510   24.9600 C   0  0  0  0  0  0  0  0  0  0  0  0
   47.6090   41.6820   25.5440 C   0  0  0  0  0  0  0  0  0  0  0  0
   49.6490   43.9010   25.8410 C   0  0  0  0  0  0  0  0  0  0  0  0
   49.3040   40.2880   24.2060 C   0  0  0  0  0  0  0  0  0  0  0  0
   43.6700   41.7700   27.0960 O   0  0  0  0  0  0  0  0  0  0  0  0
   43.0560   42.3520   28.1990 C   0  0  0  0  0  0  0  0  0  0  0  0
   41.4360   42.5380   28.1130 C   0  0  0  0  0  0  0  0  0  0  0  0
   40.8620   44.0630   28.1640 C   0  0  0  0  0  0  0  0  0  0  0  0
   41.6920   44.6540   29.3580 C   0  0  0  0  0  0  0  0  0  0  0  0
   43.1950   44.6940   28.9710 C   0  0  0  0  0  0  0  0  0  0  0  0
   43.7320   43.3730   28.9320 O   0  0  0  0  0  0  0  0  0  0  0  0
   40.9880   41.9900   26.8330 N   0  0  0  0  0  0  0  0  0  0  0  0
   43.9650   45.4110   30.1070 C   0  0  0  0  0  0  0  0  0  0  0  0
   43.6780   46.8090   30.1730 O   0  0  0  0  0  0  0  0  0  0  0  0
   40.4680   40.7580   26.7810 C   0  0  0  0  0  0  0  0  0  0  0  0
   40.6860   39.8330   27.5130 O   0  0  0  0  0  0  0  0  0  0  0  0
   39.3630   41.2980   25.1460 C   0  0  0  0  0  0  0  0  0  0  0  0
   41.0130   45.9160   29.4720 O   0  0  0  0  0  0  0  0  0  0  0  0
   39.5680   43.8550   28.7510 O   0  0  0  0  0  0  0  0  0  0  0  0
   40.7360   46.2020   30.8240 C   0  0  0  0  0  0  0  0  0  0  0  0
   40.2450   47.6390   31.0280 C   0  0  0  0  0  0  0  0  0  0  0  0
   39.6470   47.8220   32.4340 C   0  0  0  0  0  0  0  0  0  0  0  0
   38.4870   46.8820   32.7420 C   0  0  0  0  0  0  0  0  0  0  0  0
   38.4430   45.4710   32.1080 C   0  0  0  0  0  0  0  0  0  0  0  0
   39.6030   45.3520   31.2250 O   0  0  0  0  0  0  0  0  0  0  0  0
   41.5260   48.3810   31.0580 N   0  0  0  0  0  0  0  0  0  0  0  0
   37.6570   46.9410   33.9260 O   0  0  0  0  0  0  0  0  0  0  0  0
   37.1350   45.2350   31.3880 C   0  0  0  0  0  0  0  0  0  0  0  0
   36.2880   46.3680   31.2270 O   0  0  0  0  0  0  0  0  0  0  0  0
   41.8130   49.5610   30.4860 C   0  0  0  0  0  0  0  0  0  0  0  0
   41.3550   49.7180   29.3350 O   0  0  0  0  0  0  0  0  0  0  0  0
   42.6730   50.5250   31.3380 C   0  0  0  0  0  0  0  0  0  0  0  0
   39.1340   49.1520   32.5870 O   0  0  0  0  0  0  0  0  0  0  0  0
   36.4770   47.6970   33.7340 C   0  0  0  0  0  0  0  0  0  0  0  0
   35.3130   47.4610   34.7070 C   0  0  0  0  0  0  0  0  0  0  0  0
   34.0120   48.3640   34.8380 C   0  0  0  0  0  0  0  0  0  0  0  0
   34.2790   49.6480   34.0900 C   0  0  0  0  0  0  0  0  0  0  0  0
   35.5050   49.8310   33.1890 C   0  0  0  0  0  0  0  0  0  0  0  0
   36.6780   49.0940   33.6020 O   0  0  0  0  0  0  0  0  0  0  0  0
   35.1670   46.1180   35.1470 N   0  0  0  0  0  0  0  0  0  0  0  0
   33.1010   50.0370   33.3340 O   0  0  0  0  0  0  0  0  0  0  0  0
   35.8970   51.3170   33.1310 C   0  0  0  0  0  0  0  0  0  0  0  0
   35.9780   51.6890   31.7510 O   0  0  0  0  0  0  0  0  0  0  0  0
   33.8400   48.5570   36.2370 O   0  0  0  0  0  0  0  0  0  0  0  0
   34.1890   45.2780   34.8150 C   0  0  0  0  0  0  0  0  0  0  0  0
   33.3910   45.4190   33.8970 O   0  0  0  0  0  0  0  0  0  0  0  0
   33.9800   44.0170   35.6460 C   0  0  0  0  0  0  0  0  0  0  0  0
   46.9965   39.6049   24.7311 H   0  0  0  0  0  0  0  0  0  0  0  0
   44.7450   39.9211   25.8169 H   0  0  0  0  0  0  0  0  0  0  0  0
   45.2585   43.9072   27.5236 H   0  0  0  0  0  0  0  0  0  0  0  0
   50.8200   42.5271   24.7139 H   0  0  0  0  0  0  0  0  0  0  0  0
   49.5270   39.4833   24.9221 H   0  0  0  0  0  0  0  0  0  0  0  0
   48.4543   39.9911   23.5737 H   0  0  0  0  0  0  0  0  0  0  0  0
   50.1853   40.4708   23.5737 H   0  0  0  0  0  0  0  0  0  0  0  0
   43.2140   41.5060   28.8841 H   0  0  0  0  0  0  0  0  0  0  0  0
   41.0568   42.0302   29.0121 H   0  0  0  0  0  0  0  0  0  0  0  0
   40.8786   44.6414   27.2285 H   0  0  0  0  0  0  0  0  0  0  0  0
   41.7259   44.1121   30.3147 H   0  0  0  0  0  0  0  0  0  0  0  0
   43.2913   45.1930   27.9954 H   0  0  0  0  0  0  0  0  0  0  0  0
   41.0726   42.5512   25.9734 H   0  0  0  0  0  0  0  0  0  0  0  0
   43.6870   44.9494   31.0660 H   0  0  0  0  0  0  0  0  0  0  0  0
   45.0397   45.3027   29.8987 H   0  0  0  0  0  0  0  0  0  0  0  0
   43.6204   47.0897   31.1206 H   0  0  0  0  0  0  0  0  0  0  0  0
   38.4203   41.7587   25.4764 H   0  0  0  0  0  0  0  0  0  0  0  0
   39.9316   42.0198   24.5413 H   0  0  0  0  0  0  0  0  0  0  0  0
   39.1429   40.4059   24.5413 H   0  0  0  0  0  0  0  0  0  0  0  0
   39.6473   43.8678   29.7377 H   0  0  0  0  0  0  0  0  0  0  0  0
   41.6607   46.0390   31.3970 H   0  0  0  0  0  0  0  0  0  0  0  0
   39.4980   47.9369   30.2774 H   0  0  0  0  0  0  0  0  0  0  0  0
   40.4772   47.6035   33.1218 H   0  0  0  0  0  0  0  0  0  0  0  0
   38.0069   47.6505   32.1184 H   0  0  0  0  0  0  0  0  0  0  0  0
   38.4936   44.6917   32.8827 H   0  0  0  0  0  0  0  0  0  0  0  0
   42.2924   47.9363   31.5832 H   0  0  0  0  0  0  0  0  0  0  0  0
   37.3698   44.8475   30.3857 H   0  0  0  0  0  0  0  0  0  0  0  0
   36.5721   44.5374   32.0255 H   0  0  0  0  0  0  0  0  0  0  0  0
   36.0285   46.7151   32.1171 H   0  0  0  0  0  0  0  0  0  0  0  0
   42.4967   50.3273   32.4056 H   0  0  0  0  0  0  0  0  0  0  0  0
   43.7370   50.3685   31.1070 H   0  0  0  0  0  0  0  0  0  0  0  0
   42.3966   51.5643   31.1070 H   0  0  0  0  0  0  0  0  0  0  0  0
   39.0518   49.3652   33.5503 H   0  0  0  0  0  0  0  0  0  0  0  0
   36.1658   47.2724   32.7681 H   0  0  0  0  0  0  0  0  0  0  0  0
   35.8022   48.1297   35.4305 H   0  0  0  0  0  0  0  0  0  0  0  0
   33.0963   47.9266   34.4135 H   0  0  0  0  0  0  0  0  0  0  0  0
   34.5400   50.2923   34.9425 H   0  0  0  0  0  0  0  0  0  0  0  0
   35.1933   49.4366   32.2106 H   0  0  0  0  0  0  0  0  0  0  0  0
   35.8899   45.7584   35.7866 H   0  0  0  0  0  0  0  0  0  0  0  0
   32.3722   50.2777   33.9593 H   0  0  0  0  0  0  0  0  0  0  0  0
   35.1353   51.9261   33.6397 H   0  0  0  0  0  0  0  0  0  0  0  0
   36.8616   51.4823   33.6332 H   0  0  0  0  0  0  0  0  0  0  0  0
   36.1881   52.6539   31.6811 H   0  0  0  0  0  0  0  0  0  0  0  0
   34.4108   47.9165   36.7311 H   0  0  0  0  0  0  0  0  0  0  0  0
   34.0222   44.2714   36.7153 H   0  0  0  0  0  0  0  0  0  0  0  0
   32.9975   43.5817   35.4111 H   0  0  0  0  0  0  0  0  0  0  0  0
   34.7696   43.2880   35.4111 H   0  0  0  0  0  0  0  0  0  0  0  0
  1  7  1  0
  1 11  1  0
  2  4  1  0
  2 10  2  0
  3 11  2  0
  4  5  2  0
  5  6  1  0
  5 13  1  0
  6  7  2  0
  7 10  1  0
  8  9  2  0
  8 11  1  0
  9 10  1  0
  9 12  1  0
 13 14  1  0
 14 15  1  0
 14 19  1  0
 15 16  1  0
 15 20  1  0
 16 17  1  0
 16 27  1  0
 17 18  1  0
 17 26  1  0
 18 19  1  0
 18 21  1  0
 20 23  1  0
 21 22  1  0
 23 24  2  0
 23 25  1  0
 26 28  1  0
 28 29  1  0
 28 33  1  0
 29 30  1  0
 29 34  1  0
 30 31  1  0
 30 41  1  0
 31 32  1  0
 31 35  1  0
 32 33  1  0
 32 36  1  0
 34 38  1  0
 35 42  1  0
 36 37  1  0
 38 39  2  0
 38 40  1  0
 42 43  1  0
 42 47  1  0
 43 44  1  0
 43 48  1  0
 44 45  1  0
 44 52  1  0
 45 46  1  0
 45 49  1  0
 46 47  1  0
 46 50  1  0
 48 53  1  0
 50 51  1  0
 53 54  2  0
 53 55  1  0
  2 56  1  0
  4 57  1  0
  6 58  1  0
  8 59  1  0
 12 60  1  0
 12 61  1  0
 12 62  1  0
 14 63  1  0
 15 64  1  0
 16 65  1  0
 17 66  1  0
 18 67  1  0
 20 68  1  0
 21 69  1  0
 21 70  1  0
 22 71  1  0
 25 72  1  0
 25 73  1  0
 25 74  1  0
 27 75  1  0
 28 76  1  0
 29 77  1  0
 30 78  1  0
 31 79  1  0
 32 80  1  0
 34 81  1  0
 36 82  1  0
 36 83  1  0
 37 84  1  0
 40 85  1  0
 40 86  1  0
 40 87  1  0
 41 88  1  0
 42 89  1  0
 43 90  1  0
 44 91  1  0
 45 92  1  0
 46 93  1  0
 48 94  1  0
 49 95  1  0
 50 96  1  0
 50 97  1  0
 51 98  1  0
 52 99  1  0
 55100  1  0
 55101  1  0
 55102  1  0
A    1
O1
A    2
C2
A    3
O2
A    4
C3
A    5
C4
A    6
C5
A    7
C6
A    8
C7
A    9
C8
A   10
C1
A   11
C9
A   12
C10
A   13
O3
A   14
C11
A   15
C12
A   16
C13
A   17
C14
A   18
C15
A   19
O4
A   20
N1
A   21
C16
A   22
O5
A   23
C17
A   24
O6
A   25
C18
A   26
O7
A   27
O8
A   28
C19
A   29
C20
A   30
C21
A   31
C22
A   32
C23
A   33
O9
A   34
N2
A   35
O10
A   36
C24
A   37
O11
A   38
C25
A   39
O12
A   40
C26
A   41
O13
A   42
C27
A   43
C28
A   44
C29
A   45
C30
A   46
C31
A   47
O14
A   48
N3
A   49
O15
A   50
C32
A   51
O16
A   52
O17
A   53
C33
A   54
O18
A   55
C34
M  END
