1BDU_DUR_A_301
     RDKit          3D

 28 29  0  0  0  0  0  0  0  0999 V2000
  -28.4870   -8.9880   20.1920 N   0  0  0  0  0  0  0  0  0  0  0  0
  -27.4880   -8.0200   20.2280 C   0  0  0  0  0  0  0  0  0  0  0  0
  -27.9120   -6.7230   20.0940 N   0  0  0  0  0  0  0  0  0  0  0  0
  -29.2280   -6.3070   19.9160 C   0  0  0  0  0  0  0  0  0  0  0  0
  -30.1960   -7.3930   19.8760 C   0  0  0  0  0  0  0  0  0  0  0  0
  -29.7700   -8.7150   20.0150 C   0  0  0  0  0  0  0  0  0  0  0  0
  -26.2920   -8.2590   20.3260 O   0  0  0  0  0  0  0  0  0  0  0  0
  -29.5160   -5.1080   19.8830 O   0  0  0  0  0  0  0  0  0  0  0  0
  -28.1250  -10.4010   20.4190 C   0  0  0  0  0  0  0  0  0  0  0  0
  -28.2520  -10.8290   21.8730 C   0  0  0  0  0  0  0  0  0  0  0  0
  -28.1080  -12.3320   21.7930 C   0  0  0  0  0  0  0  0  0  0  0  0
  -29.0830  -12.5690   20.6330 C   0  0  0  0  0  0  0  0  0  0  0  0
  -26.7730  -12.6370   21.3780 O   0  0  0  0  0  0  0  0  0  0  0  0
  -28.8340  -11.4620   19.6880 O   0  0  0  0  0  0  0  0  0  0  0  0
  -30.5370  -12.5260   21.1440 C   0  0  0  0  0  0  0  0  0  0  0  0
  -31.4960  -12.7610   20.1060 O   0  0  0  0  0  0  0  0  0  0  0  0
  -27.1901   -5.9891   20.1282 H   0  0  0  0  0  0  0  0  0  0  0  0
  -31.2644   -7.1718   19.7361 H   0  0  0  0  0  0  0  0  0  0  0  0
  -30.5038   -9.5336   19.9773 H   0  0  0  0  0  0  0  0  0  0  0  0
  -27.0969  -10.3431   20.0321 H   0  0  0  0  0  0  0  0  0  0  0  0
  -27.4541  -10.3866   22.4875 H   0  0  0  0  0  0  0  0  0  0  0  0
  -29.1932  -10.5058   22.3417 H   0  0  0  0  0  0  0  0  0  0  0  0
  -28.2945  -12.9102   22.7100 H   0  0  0  0  0  0  0  0  0  0  0  0
  -28.9367  -13.5517   20.1609 H   0  0  0  0  0  0  0  0  0  0  0  0
  -26.2012  -12.7676   22.1756 H   0  0  0  0  0  0  0  0  0  0  0  0
  -30.6606  -13.2975   21.9183 H   0  0  0  0  0  0  0  0  0  0  0  0
  -30.7192  -11.5168   21.5418 H   0  0  0  0  0  0  0  0  0  0  0  0
  -32.3738  -12.9761   20.5102 H   0  0  0  0  0  0  0  0  0  0  0  0
  1  2  1  0
  1  6  1  0
  1  9  1  0
  2  3  1  0
  2  7  2  0
  3  4  1  0
  4  5  1  0
  4  8  2  0
  5  6  2  0
  9 10  1  0
  9 14  1  0
 10 11  1  0
 11 12  1  0
 11 13  1  0
 12 14  1  0
 12 15  1  0
 15 16  1  0
  3 17  1  0
  5 18  1  0
  6 19  1  0
  9 20  1  0
 10 21  1  0
 10 22  1  0
 11 23  1  0
 12 24  1  0
 13 25  1  0
 15 26  1  0
 15 27  1  0
 16 28  1  0
A    1
N1
A    2
C2
A    3
N3
A    4
C4
A    5
C5
A    6
C6
A    7
O2
A    8
O4
A    9
C1'
A   10
C2'
A   11
C3'
A   12
C4'
A   13
O3'
A   14
O4'
A   15
C5'
A   16
O5'
M  END
