1BG9_AF1_A_803
     RDKit          3D

 45 46  0  0  0  0  0  0  0  0999 V2000
    7.4420   42.6180   41.6770 C   0  0  0  0  0  0  0  0  0  0  0  0
    6.7160   43.9850   41.7190 C   0  0  0  0  0  0  0  0  0  0  0  0
    5.4650   43.8760   40.9000 C   0  0  0  0  0  0  0  0  0  0  0  0
    5.8180   43.5980   39.4230 C   0  0  0  0  0  0  0  0  0  0  0  0
    6.8880   42.4360   39.3170 C   0  0  0  0  0  0  0  0  0  0  0  0
    7.0500   41.4430   38.1750 C   0  0  0  0  0  0  0  0  0  0  0  0
    8.4130   42.5430   42.7340 O   0  0  0  0  0  0  0  0  0  0  0  0
    6.4050   44.2680   43.0740 O   0  0  0  0  0  0  0  0  0  0  0  0
    4.5500   44.9750   40.9430 O   0  0  0  0  0  0  0  0  0  0  0  0
    7.9250   42.4000   40.3270 O   0  0  0  0  0  0  0  0  0  0  0  0
    4.4890   43.1890   39.0160 N   0  0  0  0  0  0  0  0  0  0  0  0
    3.8440   43.5920   37.8130 C   0  0  0  0  0  0  0  0  0  0  0  0
    2.3380   43.7100   38.0000 C   0  0  0  0  0  0  0  0  0  0  0  0
    1.7130   42.3510   37.8880 C   0  0  0  0  0  0  0  0  0  0  0  0
    2.0410   41.7840   36.4750 C   0  0  0  0  0  0  0  0  0  0  0  0
    3.4800   42.0740   35.9320 C   0  0  0  0  0  0  0  0  0  0  0  0
    4.2660   43.0260   36.5680 C   0  0  0  0  0  0  0  0  0  0  0  0
    4.0690   41.3510   34.6950 C   0  0  0  0  0  0  0  0  0  0  0  0
    2.0570   44.2250   39.2920 O   0  0  0  0  0  0  0  0  0  0  0  0
    0.3130   42.4840   38.1300 O   0  0  0  0  0  0  0  0  0  0  0  0
    1.0210   41.0400   35.7610 O   0  0  0  0  0  0  0  0  0  0  0  0
    5.4260   40.8880   34.8430 O   0  0  0  0  0  0  0  0  0  0  0  0
    6.7708   41.7720   41.8863 H   0  0  0  0  0  0  0  0  0  0  0  0
    7.3410   44.7931   41.3111 H   0  0  0  0  0  0  0  0  0  0  0  0
    4.9308   43.0426   41.3797 H   0  0  0  0  0  0  0  0  0  0  0  0
    6.2731   44.4076   38.8335 H   0  0  0  0  0  0  0  0  0  0  0  0
    6.1901   41.7478   39.8164 H   0  0  0  0  0  0  0  0  0  0  0  0
    7.2143   40.4358   38.5855 H   0  0  0  0  0  0  0  0  0  0  0  0
    6.1400   41.4432   37.5571 H   0  0  0  0  0  0  0  0  0  0  0  0
    7.9128   41.7324   37.5571 H   0  0  0  0  0  0  0  0  0  0  0  0
    7.9515   42.5786   43.6092 H   0  0  0  0  0  0  0  0  0  0  0  0
    6.9920   43.7339   43.6658 H   0  0  0  0  0  0  0  0  0  0  0  0
    4.3569   45.2069   41.8859 H   0  0  0  0  0  0  0  0  0  0  0  0
    4.5168   42.1600   38.9814 H   0  0  0  0  0  0  0  0  0  0  0  0
    4.2492   44.6012   37.6481 H   0  0  0  0  0  0  0  0  0  0  0  0
    1.9326   44.3813   37.2287 H   0  0  0  0  0  0  0  0  0  0  0  0
    2.1086   41.6410   38.6292 H   0  0  0  0  0  0  0  0  0  0  0  0
    1.6802   42.7167   36.0170 H   0  0  0  0  0  0  0  0  0  0  0  0
    5.2154   43.3459   36.1137 H   0  0  0  0  0  0  0  0  0  0  0  0
    3.4342   40.4798   34.4758 H   0  0  0  0  0  0  0  0  0  0  0  0
    4.0873   42.0961   33.8860 H   0  0  0  0  0  0  0  0  0  0  0  0
    2.3987   43.5987   39.9784 H   0  0  0  0  0  0  0  0  0  0  0  0
    0.1468   42.4998   39.1058 H   0  0  0  0  0  0  0  0  0  0  0  0
    0.4177   40.6000   36.4110 H   0  0  0  0  0  0  0  0  0  0  0  0
    5.6460   40.8129   35.8053 H   0  0  0  0  0  0  0  0  0  0  0  0
  1  2  1  0
  1  7  1  0
  1 10  1  0
  2  3  1  0
  2  8  1  0
  3  4  1  0
  3  9  1  0
  4  5  1  0
  4 11  1  0
  5  6  1  0
  5 10  1  0
 11 12  1  0
 12 13  1  0
 12 17  1  0
 13 14  1  0
 13 19  1  0
 14 15  1  0
 14 20  1  0
 15 16  1  0
 15 21  1  0
 16 17  2  0
 16 18  1  0
 18 22  1  0
  1 23  1  0
  2 24  1  0
  3 25  1  0
  4 26  1  0
  5 27  1  0
  6 28  1  0
  6 29  1  0
  6 30  1  0
  7 31  1  0
  8 32  1  0
  9 33  1  0
 11 34  1  0
 12 35  1  0
 13 36  1  0
 14 37  1  0
 15 38  1  0
 17 39  1  0
 18 40  1  0
 18 41  1  0
 19 42  1  0
 20 43  1  0
 21 44  1  0
 22 45  1  0
A    1
C1
A    2
C2
A    3
C3
A    4
C4
A    5
C5
A    6
C6
A    7
O1
A    8
O2
A    9
O3
A   10
O5
A   11
N4
A   12
C1H
A   13
C2H
A   14
C3H
A   15
C4H
A   16
C5H
A   17
C6H
A   18
C7H
A   19
O2H
A   20
O3H
A   21
O4H
A   22
O7H
M  END
