1BIL_0IU_A_391
     RDKit          3D

 98100  0  0  0  0  0  0  0  0999 V2000
   42.6780   61.3260   49.5400 C   0  0  0  0  0  0  0  0  0  0  0  0
   43.8000   62.4050   47.5520 C   0  0  0  0  0  0  0  0  0  0  0  0
   41.6350   61.3190   47.3170 C   0  0  0  0  0  0  0  0  0  0  0  0
   41.6010   61.6280   46.1740 O   0  0  0  0  0  0  0  0  0  0  0  0
   42.6860   61.6600   48.1050 N   0  0  0  0  0  0  0  0  0  0  0  0
   39.5960   60.0250   46.8630 N   0  0  0  0  0  0  0  0  0  0  0  0
   38.8020   60.9020   46.2930 C   0  0  0  0  0  0  0  0  0  0  0  0
   38.9480   62.0460   46.6140 O   0  0  0  0  0  0  0  0  0  0  0  0
   40.5160   60.4930   47.9050 C   0  0  0  0  0  0  0  0  0  0  0  0
   39.5960   58.6350   46.4440 C   0  0  0  0  0  0  0  0  0  0  0  0
   41.0710   58.3440   46.0070 C   0  0  0  0  0  0  0  0  0  0  0  0
   39.2750   57.7620   47.6730 C   0  0  0  0  0  0  0  0  0  0  0  0
   40.0460   56.7350   47.9830 C   0  0  0  0  0  0  0  0  0  0  0  0
   38.2760   58.0740   48.4460 C   0  0  0  0  0  0  0  0  0  0  0  0
   39.8170   56.0270   49.0960 C   0  0  0  0  0  0  0  0  0  0  0  0
   38.0320   57.3560   49.5440 C   0  0  0  0  0  0  0  0  0  0  0  0
   38.7890   56.3200   49.8620 C   0  0  0  0  0  0  0  0  0  0  0  0
   36.2920   61.0310   43.5100 C   0  0  0  0  0  0  0  0  0  0  0  0
   36.5720   60.1740   42.6580 O   0  0  0  0  0  0  0  0  0  0  0  0
   37.4220   61.6330   44.2900 C   0  0  0  0  0  0  0  0  0  0  0  0
   37.7980   60.4680   45.2390 C   0  0  0  0  0  0  0  0  0  0  0  0
   38.6110   61.9110   43.3530 C   0  0  0  0  0  0  0  0  0  0  0  0
   38.4330   63.2880   42.7490 C   0  0  0  0  0  0  0  0  0  0  0  0
   37.8310   63.4240   41.5910 C   0  0  0  0  0  0  0  0  0  0  0  0
   37.6200   65.1320   41.1860 S   0  0  0  0  0  0  0  0  0  0  0  0
   38.4270   65.4480   42.6970 C   0  0  0  0  0  0  0  0  0  0  0  0
   38.7640   64.4180   43.3590 N   0  0  0  0  0  0  0  0  0  0  0  0
   38.6720   66.6810   43.0370 N   0  0  0  0  0  0  0  0  0  0  0  0
   32.9370   61.5410   42.5010 C   0  0  0  0  0  0  0  0  0  0  0  0
   33.8720   60.5950   43.2990 C   0  0  0  0  0  0  0  0  0  0  0  0
   33.0270   59.8490   44.3920 C   0  0  0  0  0  0  0  0  0  0  0  0
   33.8770   59.1580   45.4910 C   0  0  0  0  0  0  0  0  0  0  0  0
   32.9940   58.8390   46.7460 C   0  0  0  0  0  0  0  0  0  0  0  0
   33.8070   57.9750   47.7630 C   0  0  0  0  0  0  0  0  0  0  0  0
   34.1990   56.6280   47.0890 C   0  0  0  0  0  0  0  0  0  0  0  0
   35.1680   56.9920   45.9410 C   0  0  0  0  0  0  0  0  0  0  0  0
   34.3530   57.8270   44.9140 C   0  0  0  0  0  0  0  0  0  0  0  0
   35.0080   61.2930   43.9130 N   0  0  0  0  0  0  0  0  0  0  0  0
   32.7980   62.8060   43.1460 O   0  0  0  0  0  0  0  0  0  0  0  0
   33.5000   61.7800   41.0910 C   0  0  0  0  0  0  0  0  0  0  0  0
   32.5460   62.7620   40.3350 C   0  0  0  0  0  0  0  0  0  0  0  0
   33.1650   63.1330   38.9640 C   0  0  0  0  0  0  0  0  0  0  0  0
   32.1240   63.6600   37.9810 C   0  0  0  0  0  0  0  0  0  0  0  0
   34.2660   64.1800   39.1790 C   0  0  0  0  0  0  0  0  0  0  0  0
   33.4940   60.5190   40.4480 O   0  0  0  0  0  0  0  0  0  0  0  0
   42.7002   62.2527   50.1323 H   0  0  0  0  0  0  0  0  0  0  0  0
   41.7660   60.7595   49.7795 H   0  0  0  0  0  0  0  0  0  0  0  0
   43.5618   60.7165   49.7795 H   0  0  0  0  0  0  0  0  0  0  0  0
   44.4106   62.8133   48.3708 H   0  0  0  0  0  0  0  0  0  0  0  0
   44.4166   61.7369   46.9328 H   0  0  0  0  0  0  0  0  0  0  0  0
   43.4180   63.2300   46.9328 H   0  0  0  0  0  0  0  0  0  0  0  0
   39.9577   61.1076   48.6265 H   0  0  0  0  0  0  0  0  0  0  0  0
   40.9556   59.6148   48.4006 H   0  0  0  0  0  0  0  0  0  0  0  0
   38.8686   58.4316   45.6443 H   0  0  0  0  0  0  0  0  0  0  0  0
   41.7004   58.2198   46.9005 H   0  0  0  0  0  0  0  0  0  0  0  0
   41.1006   57.4227   45.4067 H   0  0  0  0  0  0  0  0  0  0  0  0
   41.4483   59.1850   45.4067 H   0  0  0  0  0  0  0  0  0  0  0  0
   40.8814   56.4598   47.3225 H   0  0  0  0  0  0  0  0  0  0  0  0
   37.6324   58.9298   48.1943 H   0  0  0  0  0  0  0  0  0  0  0  0
   40.4888   55.2001   49.3698 H   0  0  0  0  0  0  0  0  0  0  0  0
   37.1883   57.6303   50.1943 H   0  0  0  0  0  0  0  0  0  0  0  0
   38.5630   55.7137   50.7516 H   0  0  0  0  0  0  0  0  0  0  0  0
   37.1679   62.5784   44.7917 H   0  0  0  0  0  0  0  0  0  0  0  0
   36.8873   60.1092   45.7408 H   0  0  0  0  0  0  0  0  0  0  0  0
   38.2572   59.6703   44.6366 H   0  0  0  0  0  0  0  0  0  0  0  0
   39.5503   61.8747   43.9242 H   0  0  0  0  0  0  0  0  0  0  0  0
   38.6504   61.1521   42.5577 H   0  0  0  0  0  0  0  0  0  0  0  0
   37.5017   62.5874   40.9572 H   0  0  0  0  0  0  0  0  0  0  0  0
   38.7235   66.9402   44.0325 H   0  0  0  0  0  0  0  0  0  0  0  0
   38.8143   67.3970   42.3104 H   0  0  0  0  0  0  0  0  0  0  0  0
   31.9528   61.0529   42.4455 H   0  0  0  0  0  0  0  0  0  0  0  0
   34.3056   59.8741   42.5903 H   0  0  0  0  0  0  0  0  0  0  0  0
   32.3661   60.5824   44.8772 H   0  0  0  0  0  0  0  0  0  0  0  0
   32.4724   59.0528   43.8739 H   0  0  0  0  0  0  0  0  0  0  0  0
   34.7089   59.8136   45.7880 H   0  0  0  0  0  0  0  0  0  0  0  0
   32.6911   59.7804   47.2276 H   0  0  0  0  0  0  0  0  0  0  0  0
   32.1016   58.2799   46.4281 H   0  0  0  0  0  0  0  0  0  0  0  0
   34.7171   58.5162   48.0610 H   0  0  0  0  0  0  0  0  0  0  0  0
   33.1939   57.7781   48.6548 H   0  0  0  0  0  0  0  0  0  0  0  0
   34.6970   55.9682   47.8147 H   0  0  0  0  0  0  0  0  0  0  0  0
   33.3142   56.0923   46.7147 H   0  0  0  0  0  0  0  0  0  0  0  0
   36.0092   57.5852   46.3291 H   0  0  0  0  0  0  0  0  0  0  0  0
   35.5838   56.0873   45.4733 H   0  0  0  0  0  0  0  0  0  0  0  0
   33.4745   57.2431   44.6021 H   0  0  0  0  0  0  0  0  0  0  0  0
   35.0137   58.0482   44.0628 H   0  0  0  0  0  0  0  0  0  0  0  0
   34.8386   61.9873   44.6548 H   0  0  0  0  0  0  0  0  0  0  0  0
   32.8119   62.6791   44.1277 H   0  0  0  0  0  0  0  0  0  0  0  0
   34.5115   62.2117   41.1119 H   0  0  0  0  0  0  0  0  0  0  0  0
   31.5711   62.2773   40.1777 H   0  0  0  0  0  0  0  0  0  0  0  0
   32.4103   63.6744   40.9342 H   0  0  0  0  0  0  0  0  0  0  0  0
   33.5877   62.2185   38.5223 H   0  0  0  0  0  0  0  0  0  0  0  0
   31.2777   64.0885   38.5379 H   0  0  0  0  0  0  0  0  0  0  0  0
   32.5776   64.4371   37.3482 H   0  0  0  0  0  0  0  0  0  0  0  0
   31.7662   62.8344   37.3482 H   0  0  0  0  0  0  0  0  0  0  0  0
   34.4238   64.3300   40.2572 H   0  0  0  0  0  0  0  0  0  0  0  0
   35.2007   63.8294   38.7169 H   0  0  0  0  0  0  0  0  0  0  0  0
   33.9628   65.1311   38.7169 H   0  0  0  0  0  0  0  0  0  0  0  0
   33.4906   59.8010   41.1296 H   0  0  0  0  0  0  0  0  0  0  0  0
  1  5  1  0
  2  5  1  0
  3  4  2  0
  3  5  1  0
  6  7  1  0
  6  9  1  0
  6 10  1  0
  7  8  2  0
 10 11  1  0
 10 12  1  0
 12 13  2  0
 12 14  1  0
 13 15  1  0
 14 16  2  0
 15 17  2  0
 16 17  1  0
 18 19  2  0
 18 20  1  0
 20 21  1  0
 20 22  1  0
 22 23  1  0
 23 24  2  0
 23 27  1  0
 24 25  1  0
 25 26  1  0
 26 27  2  0
 26 28  1  0
 29 30  1  0
 29 39  1  0
 30 31  1  0
 30 38  1  0
 31 32  1  0
 32 33  1  0
 32 37  1  0
 33 34  1  0
 34 35  1  0
 35 36  1  0
 36 37  1  0
 40 41  1  0
 40 45  1  0
 41 42  1  0
 42 43  1  0
 42 44  1  0
  3  9  1  0
  7 21  1  0
 18 38  1  0
 29 40  1  0
  1 46  1  0
  1 47  1  0
  1 48  1  0
  2 49  1  0
  2 50  1  0
  2 51  1  0
  9 52  1  0
  9 53  1  0
 10 54  1  0
 11 55  1  0
 11 56  1  0
 11 57  1  0
 13 58  1  0
 14 59  1  0
 15 60  1  0
 16 61  1  0
 17 62  1  0
 20 63  1  0
 21 64  1  0
 21 65  1  0
 22 66  1  0
 22 67  1  0
 24 68  1  0
 28 69  1  0
 28 70  1  0
 29 71  1  0
 30 72  1  0
 31 73  1  0
 31 74  1  0
 32 75  1  0
 33 76  1  0
 33 77  1  0
 34 78  1  0
 34 79  1  0
 35 80  1  0
 35 81  1  0
 36 82  1  0
 36 83  1  0
 37 84  1  0
 37 85  1  0
 38 86  1  0
 39 87  1  0
 40 88  1  0
 41 89  1  0
 41 90  1  0
 42 91  1  0
 43 92  1  0
 43 93  1  0
 43 94  1  0
 44 95  1  0
 44 96  1  0
 44 97  1  0
 45 98  1  0
A    1
C1
A    2
C2
A    3
C
A    4
O
A    5
N
A    6
N1
A    7
C3
A    8
O1
A    9
CA
A   10
CB
A   11
CG2
A   12
CG
A   13
CD1
A   14
CD2
A   15
CE1
A   16
CE2
A   17
CZ
A   18
C4
A   19
O2
A   20
CA1
A   21
CN
A   22
CB1
A   23
CG1
A   24
CD21
A   25
SE2
A   26
CE11
A   27
ND1
A   28
NZ
A   29
C11
A   30
C21
A   31
C31
A   32
C1'
A   33
C2'
A   34
C3'
A   35
C4'
A   36
C5'
A   37
C6'
A   38
N2
A   39
O11
A   40
C12
A   41
C22
A   42
C32
A   43
C41
A   44
C5
A   45
O12
M  END
