1BIM_0QB_A_391
     RDKit          3D

102105  0  0  0  0  0  0  0  0999 V2000
   43.0340   61.0890   48.8730 C   0  0  0  0  0  0  0  0  0  0  0  0
   43.6860   62.6050   47.0220 C   0  0  0  0  0  0  0  0  0  0  0  0
   41.5260   61.4670   46.9880 C   0  0  0  0  0  0  0  0  0  0  0  0
   41.3470   61.9620   45.9400 O   0  0  0  0  0  0  0  0  0  0  0  0
   42.6860   61.7270   47.6150 N   0  0  0  0  0  0  0  0  0  0  0  0
   39.5920   60.1220   46.4970 N   0  0  0  0  0  0  0  0  0  0  0  0
   38.6110   60.9360   46.0590 C   0  0  0  0  0  0  0  0  0  0  0  0
   38.4800   62.0600   46.4600 O   0  0  0  0  0  0  0  0  0  0  0  0
   40.4930   60.5570   47.5680 C   0  0  0  0  0  0  0  0  0  0  0  0
   39.6150   58.7620   46.0070 C   0  0  0  0  0  0  0  0  0  0  0  0
   41.0300   58.5410   45.4730 C   0  0  0  0  0  0  0  0  0  0  0  0
   39.1830   57.8390   47.1730 C   0  0  0  0  0  0  0  0  0  0  0  0
   39.9930   56.8620   47.5970 C   0  0  0  0  0  0  0  0  0  0  0  0
   38.0190   58.0380   47.8010 C   0  0  0  0  0  0  0  0  0  0  0  0
   39.6280   56.0880   48.6330 C   0  0  0  0  0  0  0  0  0  0  0  0
   37.6500   57.2460   48.8200 C   0  0  0  0  0  0  0  0  0  0  0  0
   38.4480   56.2730   49.2350 C   0  0  0  0  0  0  0  0  0  0  0  0
   36.1270   60.9350   43.2480 C   0  0  0  0  0  0  0  0  0  0  0  0
   36.4230   60.0650   42.4830 O   0  0  0  0  0  0  0  0  0  0  0  0
   37.2820   61.5240   44.0390 C   0  0  0  0  0  0  0  0  0  0  0  0
   37.6760   60.3910   44.9980 C   0  0  0  0  0  0  0  0  0  0  0  0
   38.4440   61.7430   43.0450 C   0  0  0  0  0  0  0  0  0  0  0  0
   38.2710   63.1290   42.3880 C   0  0  0  0  0  0  0  0  0  0  0  0
   37.8130   63.2570   41.1440 C   0  0  0  0  0  0  0  0  0  0  0  0
   37.6750   64.9940   40.7120 S   0  0  0  0  0  0  0  0  0  0  0  0
   38.2670   65.3290   42.3370 C   0  0  0  0  0  0  0  0  0  0  0  0
   38.5120   64.2890   43.0470 N   0  0  0  0  0  0  0  0  0  0  0  0
   38.3810   66.5610   42.7250 N   0  0  0  0  0  0  0  0  0  0  0  0
   32.8300   61.7010   41.9250 C   0  0  0  0  0  0  0  0  0  0  0  0
   33.6700   60.6620   42.7430 C   0  0  0  0  0  0  0  0  0  0  0  0
   32.7340   59.9840   43.8030 C   0  0  0  0  0  0  0  0  0  0  0  0
   33.5630   59.1690   44.8190 C   0  0  0  0  0  0  0  0  0  0  0  0
   32.9620   59.2690   46.2580 C   0  0  0  0  0  0  0  0  0  0  0  0
   33.7150   58.3510   47.2640 C   0  0  0  0  0  0  0  0  0  0  0  0
   33.6750   56.8850   46.7780 C   0  0  0  0  0  0  0  0  0  0  0  0
   34.2870   56.7900   45.3440 C   0  0  0  0  0  0  0  0  0  0  0  0
   33.5140   57.7030   44.3480 C   0  0  0  0  0  0  0  0  0  0  0  0
   34.8120   61.2980   43.4700 N   0  0  0  0  0  0  0  0  0  0  0  0
   32.5860   62.8260   42.7790 O   0  0  0  0  0  0  0  0  0  0  0  0
   32.8920   62.1410   38.3470 N   0  0  0  0  0  0  0  0  0  0  0  0
   33.2300   61.3470   39.4030 C   0  0  0  0  0  0  0  0  0  0  0  0
   33.3560   60.0740   39.3260 O   0  0  0  0  0  0  0  0  0  0  0  0
   33.6080   62.1480   40.6410 C   0  0  0  0  0  0  0  0  0  0  0  0
   33.2880   63.6170   40.1620 C   0  0  0  0  0  0  0  0  0  0  0  0
   32.8100   63.5250   38.6600 C   0  0  0  0  0  0  0  0  0  0  0  0
   32.4770   61.6360   37.0810 C   0  0  0  0  0  0  0  0  0  0  0  0
   31.3000   63.8770   38.4600 C   0  0  0  0  0  0  0  0  0  0  0  0
   33.6980   64.4360   37.7510 C   0  0  0  0  0  0  0  0  0  0  0  0
   42.6918   61.7163   49.7093 H   0  0  0  0  0  0  0  0  0  0  0  0
   42.5484   60.1037   48.9311 H   0  0  0  0  0  0  0  0  0  0  0  0
   44.1253   60.9639   48.9311 H   0  0  0  0  0  0  0  0  0  0  0  0
   44.2549   63.1045   47.8201 H   0  0  0  0  0  0  0  0  0  0  0  0
   44.3717   62.0118   46.3991 H   0  0  0  0  0  0  0  0  0  0  0  0
   43.1865   63.3616   46.3991 H   0  0  0  0  0  0  0  0  0  0  0  0
   39.9195   61.0925   48.3389 H   0  0  0  0  0  0  0  0  0  0  0  0
   40.9794   59.6828   48.0254 H   0  0  0  0  0  0  0  0  0  0  0  0
   38.9173   58.5408   45.1859 H   0  0  0  0  0  0  0  0  0  0  0  0
   41.7274   58.4321   46.3166 H   0  0  0  0  0  0  0  0  0  0  0  0
   41.0519   57.6286   44.8590 H   0  0  0  0  0  0  0  0  0  0  0  0
   41.3290   59.4033   44.8590 H   0  0  0  0  0  0  0  0  0  0  0  0
   40.9581   56.6924   47.0972 H   0  0  0  0  0  0  0  0  0  0  0  0
   37.3588   58.8572   47.4799 H   0  0  0  0  0  0  0  0  0  0  0  0
   40.3044   55.2967   48.9885 H   0  0  0  0  0  0  0  0  0  0  0  0
   36.6798   57.4056   49.3132 H   0  0  0  0  0  0  0  0  0  0  0  0
   38.1425   55.6226   50.0679 H   0  0  0  0  0  0  0  0  0  0  0  0
   37.0444   62.4656   44.5557 H   0  0  0  0  0  0  0  0  0  0  0  0
   36.7732   59.9846   45.4773 H   0  0  0  0  0  0  0  0  0  0  0  0
   38.1816   59.5916   44.4364 H   0  0  0  0  0  0  0  0  0  0  0  0
   39.4036   61.7036   43.5813 H   0  0  0  0  0  0  0  0  0  0  0  0
   38.4352   60.9571   42.2754 H   0  0  0  0  0  0  0  0  0  0  0  0
   37.5565   62.4200   40.4780 H   0  0  0  0  0  0  0  0  0  0  0  0
   38.4017   66.7845   43.7302 H   0  0  0  0  0  0  0  0  0  0  0  0
   38.4509   67.3161   42.0280 H   0  0  0  0  0  0  0  0  0  0  0  0
   31.8805   61.2530   41.5967 H   0  0  0  0  0  0  0  0  0  0  0  0
   34.0814   59.9316   42.0307 H   0  0  0  0  0  0  0  0  0  0  0  0
   32.1706   60.7626   44.3381 H   0  0  0  0  0  0  0  0  0  0  0  0
   32.0436   59.3040   43.2825 H   0  0  0  0  0  0  0  0  0  0  0  0
   34.5913   59.5570   44.8653 H   0  0  0  0  0  0  0  0  0  0  0  0
   33.0356   60.3109   46.6030 H   0  0  0  0  0  0  0  0  0  0  0  0
   31.9132   58.9401   46.2141 H   0  0  0  0  0  0  0  0  0  0  0  0
   34.7618   58.6796   47.3430 H   0  0  0  0  0  0  0  0  0  0  0  0
   33.2264   58.4176   48.2473 H   0  0  0  0  0  0  0  0  0  0  0  0
   34.2573   56.2552   47.4667 H   0  0  0  0  0  0  0  0  0  0  0  0
   32.6317   56.5374   46.7531 H   0  0  0  0  0  0  0  0  0  0  0  0
   35.3398   57.1068   45.3801 H   0  0  0  0  0  0  0  0  0  0  0  0
   34.2106   55.7487   44.9978 H   0  0  0  0  0  0  0  0  0  0  0  0
   32.4657   57.3743   44.2930 H   0  0  0  0  0  0  0  0  0  0  0  0
   33.9842   57.6297   43.3563 H   0  0  0  0  0  0  0  0  0  0  0  0
   34.6109   62.0340   44.1619 H   0  0  0  0  0  0  0  0  0  0  0  0
   32.6477   62.5415   43.7252 H   0  0  0  0  0  0  0  0  0  0  0  0
   34.6501   62.0167   40.9677 H   0  0  0  0  0  0  0  0  0  0  0  0
   32.4921   64.0515   40.7848 H   0  0  0  0  0  0  0  0  0  0  0  0
   34.1771   64.2587   40.2501 H   0  0  0  0  0  0  0  0  0  0  0  0
   31.7851   60.7941   37.2310 H   0  0  0  0  0  0  0  0  0  0  0  0
   31.9688   62.4322   36.5173 H   0  0  0  0  0  0  0  0  0  0  0  0
   33.3566   61.2918   36.5173 H   0  0  0  0  0  0  0  0  0  0  0  0
   30.8166   63.9897   39.4417 H   0  0  0  0  0  0  0  0  0  0  0  0
   31.2143   64.8192   37.8988 H   0  0  0  0  0  0  0  0  0  0  0  0
   30.8065   63.0698   37.8988 H   0  0  0  0  0  0  0  0  0  0  0  0
   34.3271   65.0814   38.3817 H   0  0  0  0  0  0  0  0  0  0  0  0
   34.3390   63.8068   37.1159 H   0  0  0  0  0  0  0  0  0  0  0  0
   33.0527   65.0607   37.1159 H   0  0  0  0  0  0  0  0  0  0  0  0
  1  5  1  0
  2  5  1  0
  3  4  2  0
  3  5  1  0
  6  7  1  0
  6  9  1  0
  6 10  1  0
  7  8  2  0
 10 11  1  0
 10 12  1  0
 12 13  2  0
 12 14  1  0
 13 15  1  0
 14 16  2  0
 15 17  2  0
 16 17  1  0
 18 19  2  0
 18 20  1  0
 20 21  1  0
 20 22  1  0
 22 23  1  0
 23 24  2  0
 23 27  1  0
 24 25  1  0
 25 26  1  0
 26 27  2  0
 26 28  1  0
 29 30  1  0
 29 39  1  0
 30 31  1  0
 30 38  1  0
 31 32  1  0
 32 33  1  0
 32 37  1  0
 33 34  1  0
 34 35  1  0
 35 36  1  0
 36 37  1  0
 40 41  1  0
 40 45  1  0
 40 46  1  0
 41 42  2  0
 41 43  1  0
 43 44  1  0
 44 45  1  0
 45 47  1  0
 45 48  1  0
  3  9  1  0
  7 21  1  0
 18 38  1  0
 29 43  1  0
  1 49  1  0
  1 50  1  0
  1 51  1  0
  2 52  1  0
  2 53  1  0
  2 54  1  0
  9 55  1  0
  9 56  1  0
 10 57  1  0
 11 58  1  0
 11 59  1  0
 11 60  1  0
 13 61  1  0
 14 62  1  0
 15 63  1  0
 16 64  1  0
 17 65  1  0
 20 66  1  0
 21 67  1  0
 21 68  1  0
 22 69  1  0
 22 70  1  0
 24 71  1  0
 28 72  1  0
 28 73  1  0
 29 74  1  0
 30 75  1  0
 31 76  1  0
 31 77  1  0
 32 78  1  0
 33 79  1  0
 33 80  1  0
 34 81  1  0
 34 82  1  0
 35 83  1  0
 35 84  1  0
 36 85  1  0
 36 86  1  0
 37 87  1  0
 37 88  1  0
 38 89  1  0
 39 90  1  0
 43 91  1  0
 44 92  1  0
 44 93  1  0
 46 94  1  0
 46 95  1  0
 46 96  1  0
 47 97  1  0
 47 98  1  0
 47 99  1  0
 48100  1  0
 48101  1  0
 48102  1  0
A    1
C1
A    2
C2
A    3
C
A    4
O
A    5
N
A    6
N1
A    7
C3
A    8
O1
A    9
CA
A   10
CB
A   11
CG2
A   12
CG
A   13
CD1
A   14
CD2
A   15
CE1
A   16
CE2
A   17
CZ
A   18
C4
A   19
O2
A   20
CA1
A   21
CN
A   22
CB1
A   23
CG1
A   24
CD21
A   25
SE2
A   26
CE11
A   27
ND1
A   28
NZ
A   29
C11
A   30
C21
A   31
C31
A   32
C1'
A   33
C2'
A   34
C3'
A   35
C4'
A   36
C5'
A   37
C6'
A   38
N2
A   39
O11
A   40
N11
A   41
C22
A   42
O21
A   43
C32
A   44
C41
A   45
C5
A   46
CM1
A   47
CM2
A   48
CM3
M  END
