1BJU_GP6_A_910
     RDKit          3D

 33 34  0  0  0  0  0  0  0  0999 V2000
   -2.7990   13.9840   14.4490 N   0  0  0  0  0  0  0  0  0  0  0  0
   -2.0060   12.2130   15.6660 N   0  0  0  0  0  0  0  0  0  0  0  0
   -2.3010   13.5080   15.5820 C   0  0  0  0  0  0  0  0  0  0  0  0
   -1.8870   14.3700   16.6050 C   0  0  0  0  0  0  0  0  0  0  0  0
   -1.9370   15.7610   16.4670 C   0  0  0  0  0  0  0  0  0  0  0  0
   -1.5410   16.6110   17.5040 C   0  0  0  0  0  0  0  0  0  0  0  0
   -1.0780   16.0860   18.7200 C   0  0  0  0  0  0  0  0  0  0  0  0
   -1.0270   14.6990   18.8660 C   0  0  0  0  0  0  0  0  0  0  0  0
   -1.4250   13.8630   17.8200 C   0  0  0  0  0  0  0  0  0  0  0  0
   -0.6720   16.8760   19.7460 N   0  0  0  0  0  0  0  0  0  0  0  0
    0.2400   17.8600   19.6510 C   0  0  0  0  0  0  0  0  0  0  0  0
    0.7740   18.1990   18.5840 O   0  0  0  0  0  0  0  0  0  0  0  0
    0.5310   18.4530   20.8150 N   0  0  0  0  0  0  0  0  0  0  0  0
    1.5460   19.2940   21.0740 C   0  0  0  0  0  0  0  0  0  0  0  0
    1.3980   20.2380   22.0940 C   0  0  0  0  0  0  0  0  0  0  0  0
    2.4440   21.1080   22.4110 C   0  0  0  0  0  0  0  0  0  0  0  0
    3.6410   21.0470   21.6980 C   0  0  0  0  0  0  0  0  0  0  0  0
    3.7940   20.1190   20.6750 C   0  0  0  0  0  0  0  0  0  0  0  0
    2.7500   19.2470   20.3620 C   0  0  0  0  0  0  0  0  0  0  0  0
    4.9500   22.0990   22.0540 Cl  0  0  0  0  0  0  0  0  0  0  0  0
   -3.0322   14.9841   14.3689 H   0  0  0  0  0  0  0  0  0  0  0  0
   -1.9043   11.7668   16.5887 H   0  0  0  0  0  0  0  0  0  0  0  0
   -1.8793   11.6570   14.8083 H   0  0  0  0  0  0  0  0  0  0  0  0
   -2.2956   16.1955   15.5222 H   0  0  0  0  0  0  0  0  0  0  0  0
   -1.5929   17.7010   17.3653 H   0  0  0  0  0  0  0  0  0  0  0  0
   -0.6713   14.2614   19.8104 H   0  0  0  0  0  0  0  0  0  0  0  0
   -1.3726   12.7730   17.9583 H   0  0  0  0  0  0  0  0  0  0  0  0
   -1.0955   16.7090   20.6699 H   0  0  0  0  0  0  0  0  0  0  0  0
   -0.0961   18.2398   21.6038 H   0  0  0  0  0  0  0  0  0  0  0  0
    0.4513   20.2963   22.6510 H   0  0  0  0  0  0  0  0  0  0  0  0
    2.3236   21.8407   23.2225 H   0  0  0  0  0  0  0  0  0  0  0  0
    4.7378   20.0716   20.1119 H   0  0  0  0  0  0  0  0  0  0  0  0
    2.8746   18.5167   19.5489 H   0  0  0  0  0  0  0  0  0  0  0  0
  1  3  2  3
  2  3  1  0
  3  4  1  0
  4  5  2  0
  4  9  1  0
  5  6  1  0
  6  7  2  0
  7  8  1  0
  7 10  1  0
  8  9  2  0
 10 11  1  0
 11 12  2  0
 11 13  1  0
 13 14  1  0
 14 15  2  0
 14 19  1  0
 15 16  1  0
 16 17  2  0
 17 18  1  0
 17 20  1  0
 18 19  2  0
  1 21  1  0
  2 22  1  0
  2 23  1  0
  5 24  1  0
  6 25  1  0
  8 26  1  0
  9 27  1  0
 10 28  1  0
 13 29  1  0
 15 30  1  0
 16 31  1  0
 18 32  1  0
 19 33  1  0
A    1
N1
A    2
N2
A    3
C1
A    4
C2
A    5
C3
A    6
C4
A    7
C5
A    8
C6
A    9
C7
A   10
N3
A   11
C8
A   12
O1
A   13
N4
A   14
C9
A   15
C10
A   16
C11
A   17
C12
A   18
C13
A   19
C14
A   20
CL
M  END
