1BKE_B3I_A_2001
     RDKit          3D

 15 15  0  0  0  0  0  0  0  0999 V2000
   35.1250   14.5740    9.7460 C   0  0  0  0  0  0  0  0  0  0  0  0
   35.9630   15.3920    8.9170 C   0  0  0  0  0  0  0  0  0  0  0  0
   34.0150   16.0340    7.6320 C   0  0  0  0  0  0  0  0  0  0  0  0
   33.1870   15.2520    8.4360 C   0  0  0  0  0  0  0  0  0  0  0  0
   32.8580   13.7400   10.2760 C   0  0  0  0  0  0  0  0  0  0  0  0
   32.8700   12.4890   10.1880 O   0  0  0  0  0  0  0  0  0  0  0  0
   32.0540   14.3030   11.0620 O   0  0  0  0  0  0  0  0  0  0  0  0
   33.7190   14.5140    9.4960 C   0  0  0  0  0  0  0  0  0  0  0  0
   35.3910   16.1160    7.8570 C   0  0  0  0  0  0  0  0  0  0  0  0
   35.9440   13.5040   11.2550 I   0  0  0  0  0  0  0  0  0  0  0  0
   38.0030   15.5260    9.2300 I   0  0  0  0  0  0  0  0  0  0  0  0
   33.1760   17.0350    6.1120 I   0  0  0  0  0  0  0  0  0  0  0  0
   32.1063   15.2158    8.2341 H   0  0  0  0  0  0  0  0  0  0  0  0
   32.1765   14.2172   12.0406 H   0  0  0  0  0  0  0  0  0  0  0  0
   36.0221   16.7424    7.2095 H   0  0  0  0  0  0  0  0  0  0  0  0
  1  2  2  0
  1  8  1  0
  1 10  1  0
  2  9  1  0
  2 11  1  0
  3  4  1  0
  3  9  2  0
  3 12  1  0
  4  8  2  0
  5  6  2  0
  5  7  1  0
  5  8  1  0
  4 13  1  0
  7 14  1  0
  9 15  1  0
A    1
C2
A    2
C3
A    3
C5
A    4
C6
A    5
C
A    6
O1
A    7
O2
A    8
C1
A    9
C4
A   10
I1
A   11
I2
A   12
I3
M  END
