1BF3_PHB_A_396
     RDKit          3D

 16 16  0  0  0  0  0  0  0  0999 V2000
   17.2660   96.5060   45.6140 C   0  0  0  0  0  0  0  0  0  0  0  0
   16.2850   97.1340   45.1660 O   0  0  0  0  0  0  0  0  0  0  0  0
   18.2350   97.1080   46.1090 O   0  0  0  0  0  0  0  0  0  0  0  0
   17.3310   95.0800   45.6070 C   0  0  0  0  0  0  0  0  0  0  0  0
   16.3010   94.3390   45.0600 C   0  0  0  0  0  0  0  0  0  0  0  0
   16.3240   92.9470   45.0260 C   0  0  0  0  0  0  0  0  0  0  0  0
   17.4050   92.2850   45.5460 C   0  0  0  0  0  0  0  0  0  0  0  0
   18.4660   92.9750   46.1040 C   0  0  0  0  0  0  0  0  0  0  0  0
   18.4140   94.3570   46.1280 C   0  0  0  0  0  0  0  0  0  0  0  0
   17.3970   90.9760   45.5090 O   0  0  0  0  0  0  0  0  0  0  0  0
   18.3308   97.1675   47.0926 H   0  0  0  0  0  0  0  0  0  0  0  0
   15.4334   94.8665   44.6370 H   0  0  0  0  0  0  0  0  0  0  0  0
   15.4853   92.3864   44.5874 H   0  0  0  0  0  0  0  0  0  0  0  0
   19.3311   92.4371   46.5191 H   0  0  0  0  0  0  0  0  0  0  0  0
   19.2543   94.9102   46.5728 H   0  0  0  0  0  0  0  0  0  0  0  0
   17.3938   90.4570   46.3520 H   0  0  0  0  0  0  0  0  0  0  0  0
  1  2  2  0
  1  3  1  0
  1  4  1  0
  4  5  2  0
  4  9  1  0
  5  6  1  0
  6  7  2  0
  7  8  1  0
  7 10  1  0
  8  9  2  0
  3 11  1  0
  5 12  1  0
  6 13  1  0
  8 14  1  0
  9 15  1  0
 10 16  1  0
A    1
C1'
A    2
O1'
A    3
O2'
A    4
C1
A    5
C2
A    6
C3
A    7
C4
A    8
C5
A    9
C6
A   10
O4
M  END
