1BL4_AP1_A_108
     RDKit          3D

 97100  0  0  0  0  0  0  0  0999 V2000
    6.5130    1.1850   -3.4200 C   0  0  0  0  0  0  0  0  0  0  0  0
    5.0160    1.5050   -3.4870 C   0  0  0  0  0  0  0  0  0  0  0  0
    4.0720    0.7010   -2.5580 C   0  0  0  0  0  0  0  0  0  0  0  0
    4.0060   -0.7900   -3.0250 C   0  0  0  0  0  0  0  0  0  0  0  0
    3.4390   -0.8850   -4.4630 C   0  0  0  0  0  0  0  0  0  0  0  0
    4.3100   -0.0500   -5.4230 C   0  0  0  0  0  0  0  0  0  0  0  0
    4.4860    2.4000   -5.7520 C   0  0  0  0  0  0  0  0  0  0  0  0
    4.0740    2.1860   -7.2080 C   0  0  0  0  0  0  0  0  0  0  0  0
    5.2780    1.7120   -8.0250 C   0  0  0  0  0  0  0  0  0  0  0  0
    6.4360    2.5060   -8.1080 C   0  0  0  0  0  0  0  0  0  0  0  0
    7.5810    2.0460   -8.7940 C   0  0  0  0  0  0  0  0  0  0  0  0
    7.5420    0.7970   -9.4140 C   0  0  0  0  0  0  0  0  0  0  0  0
    6.3750    0.0000   -9.3550 C   0  0  0  0  0  0  0  0  0  0  0  0
    6.3520   -1.2400   -9.9810 O   0  0  0  0  0  0  0  0  0  0  0  0
    2.0590    3.7820   -7.1820 C   0  0  0  0  0  0  0  0  0  0  0  0
    8.7460    2.8080   -8.8680 O   0  0  0  0  0  0  0  0  0  0  0  0
    5.3220   -2.1900   -9.6560 C   0  0  0  0  0  0  0  0  0  0  0  0
    8.7060    0.6920  -11.4940 C   0  0  0  0  0  0  0  0  0  0  0  0
    8.8100    4.0970   -8.2310 C   0  0  0  0  0  0  0  0  0  0  0  0
   12.4770    1.2830    1.2960 C   0  0  0  0  0  0  0  0  0  0  0  0
    8.2750   -1.2250   -6.5440 C   0  0  0  0  0  0  0  0  0  0  0  0
    8.2480   -2.5460   -7.0220 C   0  0  0  0  0  0  0  0  0  0  0  0
    8.4320   -3.6130   -6.1390 C   0  0  0  0  0  0  0  0  0  0  0  0
    8.4890   -0.9420   -5.1890 C   0  0  0  0  0  0  0  0  0  0  0  0
    8.4950    0.4960   -4.6400 C   0  0  0  0  0  0  0  0  0  0  0  0
    9.3220    1.4810   -5.5120 C   0  0  0  0  0  0  0  0  0  0  0  0
   10.8290    1.4840   -5.1660 C   0  0  0  0  0  0  0  0  0  0  0  0
   11.1830    1.6610   -3.6810 C   0  0  0  0  0  0  0  0  0  0  0  0
   11.3100    2.9570   -3.1730 C   0  0  0  0  0  0  0  0  0  0  0  0
   11.6380    3.1750   -1.8220 C   0  0  0  0  0  0  0  0  0  0  0  0
   11.8430    2.0830   -0.9640 C   0  0  0  0  0  0  0  0  0  0  0  0
   11.7160    0.7820   -1.4670 C   0  0  0  0  0  0  0  0  0  0  0  0
   11.3890    0.5790   -2.8110 C   0  0  0  0  0  0  0  0  0  0  0  0
    8.6500   -3.3630   -4.7680 C   0  0  0  0  0  0  0  0  0  0  0  0
    8.8190   -4.4130   -3.8280 O   0  0  0  0  0  0  0  0  0  0  0  0
    9.9960   -5.2510   -3.7220 C   0  0  0  0  0  0  0  0  0  0  0  0
   10.4530   -5.6720   -5.1030 C   0  0  0  0  0  0  0  0  0  0  0  0
   11.5000   -5.1490   -5.5780 O   0  0  0  0  0  0  0  0  0  0  0  0
    9.7610   -6.5390   -5.7260 O   0  0  0  0  0  0  0  0  0  0  0  0
    8.6770   -2.0240   -4.3100 C   0  0  0  0  0  0  0  0  0  0  0  0
   11.1230    5.5950   -1.8920 C   0  0  0  0  0  0  0  0  0  0  0  0
    4.5320    1.3440   -4.9000 N   0  0  0  0  0  0  0  0  0  0  0  0
    7.0840    0.8510   -4.5990 O   0  0  0  0  0  0  0  0  0  0  0  0
    7.0900    1.2300   -2.3480 O   0  0  0  0  0  0  0  0  0  0  0  0
    4.7630    3.5220   -5.3860 O   0  0  0  0  0  0  0  0  0  0  0  0
    3.4470    3.4820   -7.8060 C   0  0  0  0  0  0  0  0  0  0  0  0
    5.2510    0.4690   -8.6630 C   0  0  0  0  0  0  0  0  0  0  0  0
    8.6710    0.3420  -10.0960 O   0  0  0  0  0  0  0  0  0  0  0  0
   11.7730    4.4680   -1.2870 O   0  0  0  0  0  0  0  0  0  0  0  0
   12.1730    2.3510    0.3760 O   0  0  0  0  0  0  0  0  0  0  0  0
    4.9596    2.5399   -3.1185 H   0  0  0  0  0  0  0  0  0  0  0  0
    4.4525    0.7434   -1.5268 H   0  0  0  0  0  0  0  0  0  0  0  0
    3.0636    1.1383   -2.6013 H   0  0  0  0  0  0  0  0  0  0  0  0
    5.0183   -1.2201   -3.0062 H   0  0  0  0  0  0  0  0  0  0  0  0
    3.3441   -1.3462   -2.3449 H   0  0  0  0  0  0  0  0  0  0  0  0
    3.4414   -1.9359   -4.7880 H   0  0  0  0  0  0  0  0  0  0  0  0
    2.4100   -0.4964   -4.4745 H   0  0  0  0  0  0  0  0  0  0  0  0
    5.2847   -0.5456   -5.5429 H   0  0  0  0  0  0  0  0  0  0  0  0
    3.7853    0.0239   -6.3870 H   0  0  0  0  0  0  0  0  0  0  0  0
    3.3011    1.4044   -7.2497 H   0  0  0  0  0  0  0  0  0  0  0  0
    6.4497    3.4978   -7.6325 H   0  0  0  0  0  0  0  0  0  0  0  0
    2.1387    3.7648   -6.0850 H   0  0  0  0  0  0  0  0  0  0  0  0
    1.7167    4.7749   -7.5092 H   0  0  0  0  0  0  0  0  0  0  0  0
    1.3372    3.0191   -7.5092 H   0  0  0  0  0  0  0  0  0  0  0  0
    5.2317   -2.2733   -8.5629 H   0  0  0  0  0  0  0  0  0  0  0  0
    4.3644   -1.8514  -10.0783 H   0  0  0  0  0  0  0  0  0  0  0  0
    5.5822   -3.1718  -10.0783 H   0  0  0  0  0  0  0  0  0  0  0  0
    8.8150    1.7818  -11.5965 H   0  0  0  0  0  0  0  0  0  0  0  0
    9.5586    0.1913  -11.9761 H   0  0  0  0  0  0  0  0  0  0  0  0
    7.7712    0.3700  -11.9761 H   0  0  0  0  0  0  0  0  0  0  0  0
    8.8035    3.9669   -7.1387 H   0  0  0  0  0  0  0  0  0  0  0  0
    9.7347    4.6101   -8.5337 H   0  0  0  0  0  0  0  0  0  0  0  0
    7.9406    4.6992   -8.5337 H   0  0  0  0  0  0  0  0  0  0  0  0
   12.3732    1.6478    2.3285 H   0  0  0  0  0  0  0  0  0  0  0  0
   11.7810    0.4474    1.1306 H   0  0  0  0  0  0  0  0  0  0  0  0
   13.5087    0.9391    1.1306 H   0  0  0  0  0  0  0  0  0  0  0  0
    8.1247   -0.3946   -7.2496 H   0  0  0  0  0  0  0  0  0  0  0  0
    8.0819   -2.7402   -8.0919 H   0  0  0  0  0  0  0  0  0  0  0  0
    8.4069   -4.6473   -6.5127 H   0  0  0  0  0  0  0  0  0  0  0  0
    8.9828    0.5584   -3.6561 H   0  0  0  0  0  0  0  0  0  0  0  0
    9.2064    1.1947   -6.5678 H   0  0  0  0  0  0  0  0  0  0  0  0
    8.9394    2.4931   -5.3137 H   0  0  0  0  0  0  0  0  0  0  0  0
   11.2521    0.5252   -5.5001 H   0  0  0  0  0  0  0  0  0  0  0  0
   11.2467    2.3648   -5.6756 H   0  0  0  0  0  0  0  0  0  0  0  0
   11.1514    3.8184   -3.8385 H   0  0  0  0  0  0  0  0  0  0  0  0
   11.8738   -0.0812   -0.8037 H   0  0  0  0  0  0  0  0  0  0  0  0
   11.2914   -0.4476   -3.1937 H   0  0  0  0  0  0  0  0  0  0  0  0
   10.8012   -4.6885   -3.2267 H   0  0  0  0  0  0  0  0  0  0  0  0
    9.7518   -6.1466   -3.1319 H   0  0  0  0  0  0  0  0  0  0  0  0
    9.2299   -7.2044   -5.2208 H   0  0  0  0  0  0  0  0  0  0  0  0
    8.8490   -1.8249   -3.2419 H   0  0  0  0  0  0  0  0  0  0  0  0
   10.7384    6.2618   -1.1062 H   0  0  0  0  0  0  0  0  0  0  0  0
   11.8441    6.1423   -2.5168 H   0  0  0  0  0  0  0  0  0  0  0  0
   10.2881    5.2449   -2.5168 H   0  0  0  0  0  0  0  0  0  0  0  0
    4.1194    4.3294   -7.6064 H   0  0  0  0  0  0  0  0  0  0  0  0
    3.3144    3.3339   -8.8879 H   0  0  0  0  0  0  0  0  0  0  0  0
    4.3399   -0.1460   -8.6215 H   0  0  0  0  0  0  0  0  0  0  0  0
  1  2  1  0
  1 43  1  0
  1 44  2  0
  2  3  1  0
  2 42  1  0
  3  4  1  0
  4  5  1  0
  5  6  1  0
  6 42  1  0
  7  8  1  0
  7 42  1  0
  7 45  2  0
  8  9  1  0
  8 46  1  0
  9 10  2  0
  9 47  1  0
 10 11  1  0
 11 12  2  0
 11 16  1  0
 12 13  1  0
 12 48  1  0
 13 14  1  0
 13 47  2  0
 14 17  1  0
 15 46  1  0
 16 19  1  0
 18 48  1  0
 20 50  1  0
 21 22  2  0
 21 24  1  0
 22 23  1  0
 23 34  2  0
 24 25  1  0
 24 40  2  0
 25 26  1  0
 25 43  1  0
 26 27  1  0
 27 28  1  0
 28 29  2  0
 28 33  1  0
 29 30  1  0
 30 31  2  0
 30 49  1  0
 31 32  1  0
 31 50  1  0
 32 33  2  0
 34 35  1  0
 34 40  1  0
 35 36  1  0
 36 37  1  0
 37 38  2  0
 37 39  1  0
 41 49  1  0
  2 51  1  0
  3 52  1  0
  3 53  1  0
  4 54  1  0
  4 55  1  0
  5 56  1  0
  5 57  1  0
  6 58  1  0
  6 59  1  0
  8 60  1  0
 10 61  1  0
 15 62  1  0
 15 63  1  0
 15 64  1  0
 17 65  1  0
 17 66  1  0
 17 67  1  0
 18 68  1  0
 18 69  1  0
 18 70  1  0
 19 71  1  0
 19 72  1  0
 19 73  1  0
 20 74  1  0
 20 75  1  0
 20 76  1  0
 21 77  1  0
 22 78  1  0
 23 79  1  0
 25 80  1  0
 26 81  1  0
 26 82  1  0
 27 83  1  0
 27 84  1  0
 29 85  1  0
 32 86  1  0
 33 87  1  0
 36 88  1  0
 36 89  1  0
 39 90  1  0
 40 91  1  0
 41 92  1  0
 41 93  1  0
 41 94  1  0
 46 95  1  0
 46 96  1  0
 47 97  1  0
A    1
C1
A    2
C2
A    3
C3
A    4
C4
A    5
C5
A    6
C6
A    7
C8
A    8
C9
A    9
C10
A   10
C11
A   11
C12
A   12
C13
A   13
C14
A   14
O15
A   15
C16
A   16
O17
A   17
C18
A   18
C19
A   19
C20
A   20
C21
A   21
C22
A   22
C23
A   23
C24
A   24
C25
A   25
C26
A   26
C27
A   27
C28
A   28
C29
A   29
C30
A   30
C31
A   31
C32
A   32
C33
A   33
C34
A   34
C35
A   35
O36
A   36
C37
A   37
C38
A   38
O39
A   39
O40
A   40
C41
A   41
C42
A   42
N7
A   43
O43
A   44
O44
A   45
O45
A   46
C46
A   47
C47
A   48
O48
A   49
O49
A   50
O50
M  END
