1BN3_AL6_A_555
     RDKit          3D

 35 37  0  0  0  0  0  0  0  0999 V2000
   -5.2650    1.9590   15.9200 C   0  0  0  0  0  0  0  0  0  0  0  0
   -0.9340    9.4020   15.5110 O   0  0  0  0  0  0  0  0  0  0  0  0
   -2.4550    4.9840   13.7630 C   0  0  0  0  0  0  0  0  0  0  0  0
   -2.5930    3.7050   14.2800 C   0  0  0  0  0  0  0  0  0  0  0  0
   -2.9660    7.2090   13.5990 C   0  0  0  0  0  0  0  0  0  0  0  0
   -3.3770    8.0350   12.5370 C   0  0  0  0  0  0  0  0  0  0  0  0
   -2.9400    9.3550   12.4680 C   0  0  0  0  0  0  0  0  0  0  0  0
   -2.1020    9.8560   13.4610 C   0  0  0  0  0  0  0  0  0  0  0  0
   -1.7040    9.0120   14.5310 C   0  0  0  0  0  0  0  0  0  0  0  0
   -2.1320    7.6890   14.6040 C   0  0  0  0  0  0  0  0  0  0  0  0
   -5.2880    0.7240   18.0410 O   0  0  0  0  0  0  0  0  0  0  0  0
   -7.2870    0.7870   16.8540 O   0  0  0  0  0  0  0  0  0  0  0  0
   -5.4860   -0.7710   16.1350 N   0  0  0  0  0  0  0  0  0  0  0  0
   -5.8870    0.6240   16.7890 S   0  0  0  0  0  0  0  0  0  0  0  0
   -3.9950    2.0400   15.3980 C   0  0  0  0  0  0  0  0  0  0  0  0
   -3.8050    3.2560   14.7890 C   0  0  0  0  0  0  0  0  0  0  0  0
   -4.9210    4.0680   14.7970 C   0  0  0  0  0  0  0  0  0  0  0  0
   -6.1980    3.3560   15.6260 S   0  0  0  0  0  0  0  0  0  0  0  0
   -4.8740    5.5810   14.0070 S   0  0  0  0  0  0  0  0  0  0  0  0
   -5.4900    5.3090   12.7750 O   0  0  0  0  0  0  0  0  0  0  0  0
   -5.7290    6.4750   14.7310 O   0  0  0  0  0  0  0  0  0  0  0  0
   -3.4630    5.9640   13.6250 N   0  0  0  0  0  0  0  0  0  0  0  0
   -0.4480   10.7670   15.4990 C   0  0  0  0  0  0  0  0  0  0  0  0
   -1.4482    5.2673   13.4222 H   0  0  0  0  0  0  0  0  0  0  0  0
   -1.7237    3.0310   14.2873 H   0  0  0  0  0  0  0  0  0  0  0  0
   -4.0453    7.6369   11.7592 H   0  0  0  0  0  0  0  0  0  0  0  0
   -3.2550    9.9988   11.6336 H   0  0  0  0  0  0  0  0  0  0  0  0
   -1.7511   10.8976   13.4167 H   0  0  0  0  0  0  0  0  0  0  0  0
   -1.8188    7.0399   15.4350 H   0  0  0  0  0  0  0  0  0  0  0  0
   -5.2893   -1.4552   16.8793 H   0  0  0  0  0  0  0  0  0  0  0  0
   -6.2629   -1.1125   15.5513 H   0  0  0  0  0  0  0  0  0  0  0  0
   -3.2387    1.2436   15.4597 H   0  0  0  0  0  0  0  0  0  0  0  0
   -0.3221   11.1205   16.5330 H   0  0  0  0  0  0  0  0  0  0  0  0
    0.5197   10.8071   14.9774 H   0  0  0  0  0  0  0  0  0  0  0  0
   -1.1726   11.4096   14.9774 H   0  0  0  0  0  0  0  0  0  0  0  0
  1 14  1  0
  1 15  2  0
  1 18  1  0
  2  9  1  0
  2 23  1  0
  3  4  2  0
  3 22  1  0
  4 16  1  0
  5  6  2  0
  5 10  1  0
  5 22  1  0
  6  7  1  0
  7  8  2  0
  8  9  1  0
  9 10  2  0
 11 14  2  0
 12 14  2  0
 13 14  1  0
 15 16  1  0
 16 17  2  0
 17 18  1  0
 17 19  1  0
 19 20  2  0
 19 21  2  0
 19 22  1  0
  3 24  1  0
  4 25  1  0
  6 26  1  0
  7 27  1  0
  8 28  1  0
 10 29  1  0
 13 30  1  0
 13 31  1  0
 15 32  1  0
 23 33  1  0
 23 34  1  0
 23 35  1  0
A    1
C3
A    2
O5
A    3
C9
A    4
C10
A    5
C11
A    6
C12
A    7
C13
A    8
C14
A    9
C15
A   10
C16
A   11
O1A
A   12
O2A
A   13
N21
A   14
S1
A   15
C4
A   16
C5
A   17
C6
A   18
S2
A   19
S7
A   20
O3B
A   21
O4B
A   22
N8
A   23
C17
M  END
