1BNM_AL8_A_555
     RDKit          3D

 42 44  0  0  0  0  0  0  0  0999 V2000
   -5.4000    1.9440   15.9240 C   0  0  0  0  0  0  0  0  0  0  0  0
   -2.4630    4.8670   13.9500 C   0  0  0  0  0  0  0  0  0  0  0  0
   -2.8930    3.4230   13.6810 C   0  0  0  0  0  0  0  0  0  0  0  0
   -1.7410    2.8760   12.0540 C   0  0  0  0  0  0  0  0  0  0  0  0
   -2.7850    9.0350   12.1510 C   0  0  0  0  0  0  0  0  0  0  0  0
   -2.0570    9.6170   13.1770 C   0  0  0  0  0  0  0  0  0  0  0  0
   -1.8380    8.8910   14.3630 C   0  0  0  0  0  0  0  0  0  0  0  0
   -2.3290    7.6200   14.5370 C   0  0  0  0  0  0  0  0  0  0  0  0
   -0.6130   10.6880   15.2670 C   0  0  0  0  0  0  0  0  0  0  0  0
   -5.5380   -0.6170   16.2430 N   0  0  0  0  0  0  0  0  0  0  0  0
   -5.9500    0.6570   16.8730 S   0  0  0  0  0  0  0  0  0  0  0  0
   -5.3910    0.7990   18.1650 O   0  0  0  0  0  0  0  0  0  0  0  0
   -7.3510    0.9550   16.9350 O   0  0  0  0  0  0  0  0  0  0  0  0
   -6.2800    3.4070   15.8760 S   0  0  0  0  0  0  0  0  0  0  0  0
   -5.0780    4.0110   14.8260 C   0  0  0  0  0  0  0  0  0  0  0  0
   -4.0830    3.0570   14.5530 C   0  0  0  0  0  0  0  0  0  0  0  0
   -4.2700    1.8750   15.1870 C   0  0  0  0  0  0  0  0  0  0  0  0
   -3.5320    5.8130   13.6450 N   0  0  0  0  0  0  0  0  0  0  0  0
   -4.9100    5.6420   14.3140 S   0  0  0  0  0  0  0  0  0  0  0  0
   -6.1270    6.0410   13.5250 O   0  0  0  0  0  0  0  0  0  0  0  0
   -4.9680    6.5100   15.5190 O   0  0  0  0  0  0  0  0  0  0  0  0
   -3.1500    3.2010   12.2660 N   0  0  0  0  0  0  0  0  0  0  0  0
   -3.0530    7.0560   13.5040 C   0  0  0  0  0  0  0  0  0  0  0  0
   -3.2870    7.7480   12.3110 C   0  0  0  0  0  0  0  0  0  0  0  0
   -1.1630    9.3500   15.3770 O   0  0  0  0  0  0  0  0  0  0  0  0
   -2.1907    4.9663   15.0111 H   0  0  0  0  0  0  0  0  0  0  0  0
   -1.6054    5.0967   13.3005 H   0  0  0  0  0  0  0  0  0  0  0  0
   -2.0651    2.7518   13.9530 H   0  0  0  0  0  0  0  0  0  0  0  0
   -1.2409    2.7606   13.0269 H   0  0  0  0  0  0  0  0  0  0  0  0
   -1.6627    1.9362   11.4877 H   0  0  0  0  0  0  0  0  0  0  0  0
   -1.2589    3.6865   11.4877 H   0  0  0  0  0  0  0  0  0  0  0  0
   -2.9644    9.5873   11.2168 H   0  0  0  0  0  0  0  0  0  0  0  0
   -1.6549   10.6348   13.0657 H   0  0  0  0  0  0  0  0  0  0  0  0
   -2.1511    7.0673   15.4713 H   0  0  0  0  0  0  0  0  0  0  0  0
   -0.4441   11.0989   16.2733 H   0  0  0  0  0  0  0  0  0  0  0  0
    0.3418   10.6483   14.7221 H   0  0  0  0  0  0  0  0  0  0  0  0
   -1.3196   11.3313   14.7221 H   0  0  0  0  0  0  0  0  0  0  0  0
   -5.3152   -1.3060   16.9755 H   0  0  0  0  0  0  0  0  0  0  0  0
   -6.3062   -0.9747   15.6575 H   0  0  0  0  0  0  0  0  0  0  0  0
   -3.6081    0.9995   15.1136 H   0  0  0  0  0  0  0  0  0  0  0  0
   -3.7940    2.4205   12.0740 H   0  0  0  0  0  0  0  0  0  0  0  0
   -3.8655    7.2763   11.5030 H   0  0  0  0  0  0  0  0  0  0  0  0
  1 11  1  0
  1 14  1  0
  1 17  2  0
  2  3  1  0
  2 18  1  0
  3 16  1  0
  3 22  1  0
  4 22  1  0
  5  6  2  0
  5 24  1  0
  6  7  1  0
  7  8  2  0
  7 25  1  0
  8 23  1  0
  9 25  1  0
 10 11  1  0
 11 12  2  0
 11 13  2  0
 14 15  1  0
 15 16  2  0
 15 19  1  0
 16 17  1  0
 18 19  1  0
 18 23  1  0
 19 20  2  0
 19 21  2  0
 23 24  2  0
  2 26  1  0
  2 27  1  0
  3 28  1  0
  4 29  1  0
  4 30  1  0
  4 31  1  0
  5 32  1  0
  6 33  1  0
  8 34  1  0
  9 35  1  0
  9 36  1  0
  9 37  1  0
 10 38  1  0
 10 39  1  0
 17 40  1  0
 22 41  1  0
 24 42  1  0
A    1
C3
A    2
C9
A    3
C10
A    4
C16
A    5
C19
A    6
C20
A    7
C21
A    8
C22
A    9
C24
A   10
N21
A   11
S1
A   12
O1A
A   13
O2A
A   14
S2
A   15
C6
A   16
C5
A   17
C4
A   18
N8
A   19
S7
A   20
O3B
A   21
O4B
A   22
N15
A   23
C17
A   24
C18
A   25
O23
M  END
