1BNT_AL2_A_555
     RDKit          3D

 38 40  0  0  0  0  0  0  0  0999 V2000
   -5.2980    2.0710   15.9760 C   0  0  0  0  0  0  0  0  0  0  0  0
   -2.3840    2.8150   12.7910 O   0  0  0  0  0  0  0  0  0  0  0  0
   -3.1400    5.0670   12.8350 C   0  0  0  0  0  0  0  0  0  0  0  0
   -2.7570    3.8410   13.6970 C   0  0  0  0  0  0  0  0  0  0  0  0
   -3.0180    7.2900   13.8320 C   0  0  0  0  0  0  0  0  0  0  0  0
   -2.9630    8.0310   12.6430 C   0  0  0  0  0  0  0  0  0  0  0  0
   -2.4250    9.3160   12.6570 C   0  0  0  0  0  0  0  0  0  0  0  0
   -1.9250    9.8350   13.8530 C   0  0  0  0  0  0  0  0  0  0  0  0
   -1.9510    9.0880   15.0400 C   0  0  0  0  0  0  0  0  0  0  0  0
   -2.5070    7.8110   15.0280 C   0  0  0  0  0  0  0  0  0  0  0  0
   -5.4860    0.8180   18.2380 O   0  0  0  0  0  0  0  0  0  0  0  0
   -7.3100    0.9230   16.8750 O   0  0  0  0  0  0  0  0  0  0  0  0
   -5.5200   -0.5310   16.2930 N   0  0  0  0  0  0  0  0  0  0  0  0
   -5.9080    0.7570   16.8950 S   0  0  0  0  0  0  0  0  0  0  0  0
   -4.1150    2.1470   15.2890 C   0  0  0  0  0  0  0  0  0  0  0  0
   -3.8850    3.3250   14.6260 C   0  0  0  0  0  0  0  0  0  0  0  0
   -4.9450    4.1890   14.8420 C   0  0  0  0  0  0  0  0  0  0  0  0
   -6.1910    3.5260   15.8110 S   0  0  0  0  0  0  0  0  0  0  0  0
   -4.9630    5.7960   14.2370 S   0  0  0  0  0  0  0  0  0  0  0  0
   -5.8730    5.8450   13.1410 O   0  0  0  0  0  0  0  0  0  0  0  0
   -5.4530    6.6170   15.3010 O   0  0  0  0  0  0  0  0  0  0  0  0
   -3.5200    6.0470   13.8370 N   0  0  0  0  0  0  0  0  0  0  0  0
   -1.4580   11.1370   13.8280 O   0  0  0  0  0  0  0  0  0  0  0  0
   -0.0750   11.2720   13.4630 C   0  0  0  0  0  0  0  0  0  0  0  0
   -2.0936    2.0161   13.2985 H   0  0  0  0  0  0  0  0  0  0  0  0
   -2.2841    5.4179   12.2398 H   0  0  0  0  0  0  0  0  0  0  0  0
   -3.9331    4.8581   12.1020 H   0  0  0  0  0  0  0  0  0  0  0  0
   -1.9455    4.1412   14.3762 H   0  0  0  0  0  0  0  0  0  0  0  0
   -3.3424    7.6003   11.7046 H   0  0  0  0  0  0  0  0  0  0  0  0
   -2.3944    9.9156   11.7353 H   0  0  0  0  0  0  0  0  0  0  0  0
   -1.5371    9.5059   15.9695 H   0  0  0  0  0  0  0  0  0  0  0  0
   -2.5447    7.2152   15.9519 H   0  0  0  0  0  0  0  0  0  0  0  0
   -5.3152   -1.2109   17.0391 H   0  0  0  0  0  0  0  0  0  0  0  0
   -6.2921   -0.8837   15.7096 H   0  0  0  0  0  0  0  0  0  0  0  0
   -3.3952    1.3155   15.2705 H   0  0  0  0  0  0  0  0  0  0  0  0
    0.5402   11.3321   14.3729 H   0  0  0  0  0  0  0  0  0  0  0  0
    0.2341   10.3998   12.8683 H   0  0  0  0  0  0  0  0  0  0  0  0
    0.0596   12.1876   12.8683 H   0  0  0  0  0  0  0  0  0  0  0  0
  1 14  1  0
  1 15  2  0
  1 18  1  0
  2  4  1  0
  3  4  1  0
  3 22  1  0
  4 16  1  0
  5  6  2  0
  5 10  1  0
  5 22  1  0
  6  7  1  0
  7  8  2  0
  8  9  1  0
  8 23  1  0
  9 10  2  0
 11 14  2  0
 12 14  2  0
 13 14  1  0
 15 16  1  0
 16 17  2  0
 17 18  1  0
 17 19  1  0
 19 20  2  0
 19 21  2  0
 19 22  1  0
 23 24  1  0
  2 25  1  0
  3 26  1  0
  3 27  1  0
  4 28  1  0
  6 29  1  0
  7 30  1  0
  9 31  1  0
 10 32  1  0
 13 33  1  0
 13 34  1  0
 15 35  1  0
 24 36  1  0
 24 37  1  0
 24 38  1  0
A    1
C3
A    2
O5
A    3
C9
A    4
C10
A    5
C11
A    6
C12
A    7
C13
A    8
C14
A    9
C15
A   10
C16
A   11
O1A
A   12
O2A
A   13
N21
A   14
S1
A   15
C4
A   16
C5
A   17
C6
A   18
S2
A   19
S7
A   20
O3B
A   21
O4B
A   22
N8
A   23
O6
A   24
C17
M  END
