1BOZ_PRD_A_400
     RDKit          3D

 45 47  0  0  0  0  0  0  0  0999 V2000
   28.3280   13.3580   -2.0900 C   0  0  0  0  0  0  0  0  0  0  0  0
   29.1900   13.5050   -3.2020 C   0  0  0  0  0  0  0  0  0  0  0  0
   28.6640   13.1210   -4.5110 N   0  0  0  0  0  0  0  0  0  0  0  0
   30.4870   13.9860   -3.0940 N   0  0  0  0  0  0  0  0  0  0  0  0
   30.9190   14.3190   -1.8360 C   0  0  0  0  0  0  0  0  0  0  0  0
   30.0730   14.1920   -0.6790 C   0  0  0  0  0  0  0  0  0  0  0  0
   30.3190   14.4890    0.7310 N   0  0  0  0  0  0  0  0  0  0  0  0
   29.1460   14.9440    1.4940 C   0  0  0  0  0  0  0  0  0  0  0  0
   28.7660   13.7230   -0.8520 C   0  0  0  0  0  0  0  0  0  0  0  0
   27.0560   12.8690   -2.3090 C   0  0  0  0  0  0  0  0  0  0  0  0
   26.0980   12.6930   -1.3650 N   0  0  0  0  0  0  0  0  0  0  0  0
   26.6950   12.5860   -3.5880 N   0  0  0  0  0  0  0  0  0  0  0  0
   27.4450   12.6870   -4.7130 C   0  0  0  0  0  0  0  0  0  0  0  0
   27.0400   12.3360   -5.9750 N   0  0  0  0  0  0  0  0  0  0  0  0
   31.4960   14.8430    1.2620 C   0  0  0  0  0  0  0  0  0  0  0  0
   32.3980   15.9680    0.6960 C   0  0  0  0  0  0  0  0  0  0  0  0
   33.7060   15.6330    0.5400 C   0  0  0  0  0  0  0  0  0  0  0  0
   34.6810   16.5220    0.0410 C   0  0  0  0  0  0  0  0  0  0  0  0
   34.2450   17.8200   -0.2830 C   0  0  0  0  0  0  0  0  0  0  0  0
   32.8800   18.1550   -0.1100 C   0  0  0  0  0  0  0  0  0  0  0  0
   31.9530   17.2990    0.3730 C   0  0  0  0  0  0  0  0  0  0  0  0
   34.1330   14.3060    0.8610 O   0  0  0  0  0  0  0  0  0  0  0  0
   35.2990   14.4890    1.7790 C   0  0  0  0  0  0  0  0  0  0  0  0
   32.7280   19.5120   -0.4770 O   0  0  0  0  0  0  0  0  0  0  0  0
   31.5040   20.0350    0.1270 C   0  0  0  0  0  0  0  0  0  0  0  0
   31.9447   14.6951   -1.7072 H   0  0  0  0  0  0  0  0  0  0  0  0
   29.3551   14.8629    2.5709 H   0  0  0  0  0  0  0  0  0  0  0  0
   28.9278   15.9920    1.2407 H   0  0  0  0  0  0  0  0  0  0  0  0
   28.2782   14.3173    1.2407 H   0  0  0  0  0  0  0  0  0  0  0  0
   28.0906   13.6487    0.0130 H   0  0  0  0  0  0  0  0  0  0  0  0
   26.3448   12.7383   -0.3660 H   0  0  0  0  0  0  0  0  0  0  0  0
   25.1237   12.5140   -1.6471 H   0  0  0  0  0  0  0  0  0  0  0  0
   26.2674   11.6664   -6.1004 H   0  0  0  0  0  0  0  0  0  0  0  0
   27.5083   12.7419   -6.7977 H   0  0  0  0  0  0  0  0  0  0  0  0
   31.2801   15.1288    2.3021 H   0  0  0  0  0  0  0  0  0  0  0  0
   32.1034   13.9542    1.0359 H   0  0  0  0  0  0  0  0  0  0  0  0
   35.7296   16.2158   -0.0883 H   0  0  0  0  0  0  0  0  0  0  0  0
   34.9565   18.5662   -0.6664 H   0  0  0  0  0  0  0  0  0  0  0  0
   30.9057   17.6049    0.5132 H   0  0  0  0  0  0  0  0  0  0  0  0
   34.9559   14.4352    2.8227 H   0  0  0  0  0  0  0  0  0  0  0  0
   36.0387   13.6960    1.5948 H   0  0  0  0  0  0  0  0  0  0  0  0
   35.7602   15.4705    1.5948 H   0  0  0  0  0  0  0  0  0  0  0  0
   31.5910   19.9978    1.2229 H   0  0  0  0  0  0  0  0  0  0  0  0
   31.3528   21.0763   -0.1937 H   0  0  0  0  0  0  0  0  0  0  0  0
   30.6470   19.4245   -0.1937 H   0  0  0  0  0  0  0  0  0  0  0  0
  1  2  1  0
  1  9  1  0
  1 10  2  0
  2  3  2  0
  2  4  1  0
  3 13  1  0
  4  5  2  0
  5  6  1  0
  6  7  1  0
  6  9  2  0
  7  8  1  0
  7 15  1  0
 10 11  1  0
 10 12  1  0
 12 13  2  0
 13 14  1  0
 15 16  1  0
 16 17  2  0
 16 21  1  0
 17 18  1  0
 17 22  1  0
 18 19  2  0
 19 20  1  0
 20 21  2  0
 20 24  1  0
 22 23  1  0
 24 25  1  0
  5 26  1  0
  8 27  1  0
  8 28  1  0
  8 29  1  0
  9 30  1  0
 11 31  1  0
 11 32  1  0
 14 33  1  0
 14 34  1  0
 15 35  1  0
 15 36  1  0
 18 37  1  0
 19 38  1  0
 21 39  1  0
 23 40  1  0
 23 41  1  0
 23 42  1  0
 25 43  1  0
 25 44  1  0
 25 45  1  0
A    1
C4A
A    2
C8A
A    3
N1'
A    4
N8'
A    5
C7B
A    6
C6B
A    7
N6'
A    8
C61
A    9
C5B
A   10
C4B
A   11
N4'
A   12
N3'
A   13
C2B
A   14
N2'
A   15
C7'
A   16
C1'
A   17
C2'
A   18
C3'
A   19
C4'
A   20
C5'
A   21
C6'
A   22
O2'
A   23
C21
A   24
O5'
A   25
C51
M  END
