1BQM_HBY_A_557
     RDKit          3D

 42 43  0  0  0  0  0  0  0  0999 V2000
  143.3080  -26.7940   71.7780 C   0  0  0  0  0  0  0  0  0  0  0  0
  142.2270  -27.6930   70.8790 C   0  0  0  0  0  0  0  0  0  0  0  0
  141.9390  -29.2540   72.8390 C   0  0  0  0  0  0  0  0  0  0  0  0
  143.0130  -28.5030   73.6420 C   0  0  0  0  0  0  0  0  0  0  0  0
  143.6540  -29.1090   74.7660 C   0  0  0  0  0  0  0  0  0  0  0  0
  143.3430  -30.4270   75.1680 C   0  0  0  0  0  0  0  0  0  0  0  0
  142.1390  -31.1500   74.5210 C   0  0  0  0  0  0  0  0  0  0  0  0
  141.3980  -30.4820   73.3910 C   0  0  0  0  0  0  0  0  0  0  0  0
  144.0780  -26.0980   74.2440 C   0  0  0  0  0  0  0  0  0  0  0  0
  144.0830  -25.6040   76.7710 C   0  0  0  0  0  0  0  0  0  0  0  0
  145.2930  -24.8540   77.3910 C   0  0  0  0  0  0  0  0  0  0  0  0
  142.9760  -24.6160   76.2600 C   0  0  0  0  0  0  0  0  0  0  0  0
  144.7870  -26.7570   71.1570 C   0  0  0  0  0  0  0  0  0  0  0  0
  147.3120  -27.9380   70.9790 C   0  0  0  0  0  0  0  0  0  0  0  0
  143.8060  -32.2590   77.0390 C   0  0  0  0  0  0  0  0  0  0  0  0
  143.3390  -27.1230   73.3180 N   0  0  0  0  0  0  0  0  0  0  0  0
  141.4890  -28.7400   71.5500 N   0  0  0  0  0  0  0  0  0  0  0  0
  144.3020  -24.8810   73.8050 O   0  0  0  0  0  0  0  0  0  0  0  0
  144.4690  -26.5310   75.5540 O   0  0  0  0  0  0  0  0  0  0  0  0
  144.2650  -31.0640   76.2330 O   0  0  0  0  0  0  0  0  0  0  0  0
  141.9050  -27.1290   69.1770 S   0  0  0  0  0  0  0  0  0  0  0  0
  145.9590  -27.7730   72.2290 S   0  0  0  0  0  0  0  0  0  0  0  0
  142.8957  -25.7768   71.7050 H   0  0  0  0  0  0  0  0  0  0  0  0
  144.4055  -28.5372   75.3302 H   0  0  0  0  0  0  0  0  0  0  0  0
  141.8266  -32.1412   74.8815 H   0  0  0  0  0  0  0  0  0  0  0  0
  140.4683  -30.9156   72.9939 H   0  0  0  0  0  0  0  0  0  0  0  0
  143.7060  -26.2254   77.5967 H   0  0  0  0  0  0  0  0  0  0  0  0
  145.2268  -24.8951   78.4882 H   0  0  0  0  0  0  0  0  0  0  0  0
  146.2279  -25.3312   77.0620 H   0  0  0  0  0  0  0  0  0  0  0  0
  145.2815  -23.8044   77.0620 H   0  0  0  0  0  0  0  0  0  0  0  0
  142.4654  -24.1603   77.1212 H   0  0  0  0  0  0  0  0  0  0  0  0
  143.4414  -23.8275   75.6503 H   0  0  0  0  0  0  0  0  0  0  0  0
  142.2453  -25.1677   75.6503 H   0  0  0  0  0  0  0  0  0  0  0  0
  144.7663  -27.1767   70.1404 H   0  0  0  0  0  0  0  0  0  0  0  0
  145.1392  -25.7155   71.1223 H   0  0  0  0  0  0  0  0  0  0  0  0
  148.2760  -28.0556   71.4955 H   0  0  0  0  0  0  0  0  0  0  0  0
  147.1236  -28.8198   70.3490 H   0  0  0  0  0  0  0  0  0  0  0  0
  147.3411  -27.0367   70.3490 H   0  0  0  0  0  0  0  0  0  0  0  0
  143.8929  -32.0328   78.1120 H   0  0  0  0  0  0  0  0  0  0  0  0
  142.7573  -32.4845   76.7956 H   0  0  0  0  0  0  0  0  0  0  0  0
  144.4341  -33.1286   76.7956 H   0  0  0  0  0  0  0  0  0  0  0  0
  140.6391  -29.1258   71.1145 H   0  0  0  0  0  0  0  0  0  0  0  0
  1  2  1  0
  1 13  1  0
  1 16  1  0
  2 17  1  0
  2 21  2  0
  3  4  2  0
  3  8  1  0
  3 17  1  0
  4  5  1  0
  4 16  1  0
  5  6  2  0
  6  7  1  0
  6 20  1  0
  7  8  2  0
  9 16  1  0
  9 18  2  0
  9 19  1  0
 10 11  1  0
 10 12  1  0
 10 19  1  0
 13 22  1  0
 14 22  1  0
 15 20  1  0
  1 23  1  0
  5 24  1  0
  7 25  1  0
  8 26  1  0
 10 27  1  0
 11 28  1  0
 11 29  1  0
 11 30  1  0
 12 31  1  0
 12 32  1  0
 12 33  1  0
 13 34  1  0
 13 35  1  0
 14 36  1  0
 14 37  1  0
 14 38  1  0
 15 39  1  0
 15 40  1  0
 15 41  1  0
 17 42  1  0
A    1
C1
A    2
C2
A    3
C3
A    4
C4
A    5
C5
A    6
C6
A    7
C7
A    8
C8
A    9
C9
A   10
C10
A   11
C12
A   12
C11
A   13
C13
A   14
C14
A   15
C15
A   16
N1
A   17
N2
A   18
O1
A   19
O2
A   20
O3
A   21
S1
A   22
S2
M  END
