1BR5_NEO_A_500
     RDKit          3D

 29 30  0  0  0  0  0  0  0  0999 V2000
    1.5530    0.2000    8.7160 N   0  0  0  0  0  0  0  0  0  0  0  0
    0.4910    0.6730    8.0140 C   0  0  0  0  0  0  0  0  0  0  0  0
    0.6880    1.3640    6.8030 C   0  0  0  0  0  0  0  0  0  0  0  0
   -0.2930    1.8640    5.9930 N   0  0  0  0  0  0  0  0  0  0  0  0
    0.0180    2.5660    4.8470 C   0  0  0  0  0  0  0  0  0  0  0  0
    1.3970    2.7510    4.5250 C   0  0  0  0  0  0  0  0  0  0  0  0
    2.3650    2.2240    5.3160 N   0  0  0  0  0  0  0  0  0  0  0  0
    2.0460    1.5410    6.4300 C   0  0  0  0  0  0  0  0  0  0  0  0
    3.0470    1.0660    7.1590 N   0  0  0  0  0  0  0  0  0  0  0  0
    2.8270    0.3950    8.2910 C   0  0  0  0  0  0  0  0  0  0  0  0
    3.8670    0.2480    9.1050 N   0  0  0  0  0  0  0  0  0  0  0  0
   -1.1430    3.1220    3.9790 C   0  0  0  0  0  0  0  0  0  0  0  0
   -2.4010    2.6330    4.4350 O   0  0  0  0  0  0  0  0  0  0  0  0
   -1.2830    4.6450    3.8280 C   0  0  0  0  0  0  0  0  0  0  0  0
   -2.5800    5.0780    4.3140 O   0  0  0  0  0  0  0  0  0  0  0  0
   -1.0770    5.1640    2.3550 C   0  0  0  0  0  0  0  0  0  0  0  0
   -0.0520    4.4460    1.6220 O   0  0  0  0  0  0  0  0  0  0  0  0
   -0.7550    0.6090    8.6080 O   0  0  0  0  0  0  0  0  0  0  0  0
    1.3878   -0.3184    9.5906 H   0  0  0  0  0  0  0  0  0  0  0  0
    1.6763    3.3250    3.6291 H   0  0  0  0  0  0  0  0  0  0  0  0
    3.7290    0.2675   10.1255 H   0  0  0  0  0  0  0  0  0  0  0  0
    4.8111    0.1146    8.7154 H   0  0  0  0  0  0  0  0  0  0  0  0
   -0.8545    2.7529    2.9837 H   0  0  0  0  0  0  0  0  0  0  0  0
   -2.4139    2.6280    5.4249 H   0  0  0  0  0  0  0  0  0  0  0  0
   -0.4743    5.0821    4.4321 H   0  0  0  0  0  0  0  0  0  0  0  0
   -2.5784    5.0775    5.3040 H   0  0  0  0  0  0  0  0  0  0  0  0
   -2.0288    5.0594    1.8136 H   0  0  0  0  0  0  0  0  0  0  0  0
   -0.7476    6.2111    2.4262 H   0  0  0  0  0  0  0  0  0  0  0  0
    0.5676    4.0120    2.2606 H   0  0  0  0  0  0  0  0  0  0  0  0
  1  2  1  0
  1 10  1  0
  2  3  1  0
  2 18  2  0
  3  4  2  0
  3  8  1  0
  4  5  1  0
  5  6  2  0
  5 12  1  0
  6  7  1  0
  7  8  2  0
  8  9  1  0
  9 10  2  0
 10 11  1  0
 12 13  1  0
 12 14  1  0
 14 15  1  0
 14 16  1  0
 16 17  1  0
  1 19  1  0
  6 20  1  0
 11 21  1  0
 11 22  1  0
 12 23  1  0
 13 24  1  0
 14 25  1  0
 15 26  1  0
 16 27  1  0
 16 28  1  0
 17 29  1  0
A    1
N2
A    2
C1
A    3
C10
A    4
N9
A    5
C8
A    6
C7
A    7
N6
A    8
C5
A    9
N4
A   10
C3
A   11
N13
A   12
C16
A   13
O21
A   14
C26
A   15
O22
A   16
C28
A   17
O24
A   18
O11
M  END
