1BSJ_MLN_A_171
     RDKit          3D

 57 57  0  0  0  0  0  0  0  0999 V2000
   40.9040   53.5550   71.7480 O   0  0  0  0  0  0  0  0  0  0  0  0
   39.9300   54.2220   72.8050 P   0  0  0  0  0  0  0  0  0  0  0  0
   40.9300   54.4570   74.1570 O   0  0  0  0  0  0  0  0  0  0  0  0
   38.9310   53.1050   73.1780 O   0  0  0  0  0  0  0  0  0  0  0  0
   41.3890   53.3390   74.8510 C   0  0  0  0  0  0  0  0  0  0  0  0
   40.9260   53.7880   76.2510 C   0  0  0  0  0  0  0  0  0  0  0  0
   42.9060   53.4320   74.5720 C   0  0  0  0  0  0  0  0  0  0  0  0
   43.8100   53.8470   75.6890 C   0  0  0  0  0  0  0  0  0  0  0  0
   45.1260   53.0810   75.8930 C   0  0  0  0  0  0  0  0  0  0  0  0
   44.6580   51.7050   76.2790 C   0  0  0  0  0  0  0  0  0  0  0  0
   40.7290   54.9680   76.5010 O   0  0  0  0  0  0  0  0  0  0  0  0
   40.7540   52.7820   77.1700 N   0  0  0  0  0  0  0  0  0  0  0  0
   40.4210   53.0060   78.5890 C   0  0  0  0  0  0  0  0  0  0  0  0
   39.0750   52.3630   78.9770 C   0  0  0  0  0  0  0  0  0  0  0  0
   37.9750   52.9550   78.1100 C   0  0  0  0  0  0  0  0  0  0  0  0
   36.8010   52.0600   78.0330 C   0  0  0  0  0  0  0  0  0  0  0  0
   37.2840   54.2040   78.5630 C   0  0  0  0  0  0  0  0  0  0  0  0
   41.6160   52.4490   79.3640 C   0  0  0  0  0  0  0  0  0  0  0  0
   42.2950   53.3780   80.3510 N   0  0  0  0  0  0  0  0  0  0  0  0
   42.0470   51.3070   79.2270 O   0  0  0  0  0  0  0  0  0  0  0  0
   43.2600   53.1300   81.1850 C   0  0  0  0  0  0  0  0  0  0  0  0
   43.7350   51.8210   81.3660 C   0  0  0  0  0  0  0  0  0  0  0  0
   44.7590   51.6120   82.3080 C   0  0  0  0  0  0  0  0  0  0  0  0
   45.3070   52.7380   82.9960 C   0  0  0  0  0  0  0  0  0  0  0  0
   44.8500   54.0690   82.7960 C   0  0  0  0  0  0  0  0  0  0  0  0
   43.7890   54.2550   81.8760 C   0  0  0  0  0  0  0  0  0  0  0  0
   46.3630   52.5230   83.9270 N   0  0  0  0  0  0  0  0  0  0  0  0
   46.8870   53.6150   84.4880 O   0  0  0  0  0  0  0  0  0  0  0  0
   46.8070   51.2940   84.2350 O   0  0  0  0  0  0  0  0  0  0  0  0
   41.6206   53.0643   72.2232 H   0  0  0  0  0  0  0  0  0  0  0  0
   38.8678   53.0344   74.1635 H   0  0  0  0  0  0  0  0  0  0  0  0
   41.0737   52.3055   74.6452 H   0  0  0  0  0  0  0  0  0  0  0  0
   43.2369   52.4375   74.2380 H   0  0  0  0  0  0  0  0  0  0  0  0
   42.9964   54.2435   73.8349 H   0  0  0  0  0  0  0  0  0  0  0  0
   44.0717   54.9019   75.5195 H   0  0  0  0  0  0  0  0  0  0  0  0
   43.2299   53.6305   76.5982 H   0  0  0  0  0  0  0  0  0  0  0  0
   45.7153   53.0525   74.9646 H   0  0  0  0  0  0  0  0  0  0  0  0
   45.7849   53.5420   76.6436 H   0  0  0  0  0  0  0  0  0  0  0  0
   44.6296   51.6215   77.3755 H   0  0  0  0  0  0  0  0  0  0  0  0
   43.6507   51.5327   75.8719 H   0  0  0  0  0  0  0  0  0  0  0  0
   45.3513   50.9543   75.8719 H   0  0  0  0  0  0  0  0  0  0  0  0
   40.8645   51.8099   76.8478 H   0  0  0  0  0  0  0  0  0  0  0  0
   40.2683   54.0703   78.8214 H   0  0  0  0  0  0  0  0  0  0  0  0
   39.1259   51.2759   78.8168 H   0  0  0  0  0  0  0  0  0  0  0  0
   38.8601   52.5622   80.0372 H   0  0  0  0  0  0  0  0  0  0  0  0
   38.5656   53.1334   77.1993 H   0  0  0  0  0  0  0  0  0  0  0  0
   36.4668   51.8053   79.0496 H   0  0  0  0  0  0  0  0  0  0  0  0
   35.9868   52.5686   77.4961 H   0  0  0  0  0  0  0  0  0  0  0  0
   37.0758   51.1401   77.4961 H   0  0  0  0  0  0  0  0  0  0  0  0
   37.2667   54.2353   79.6624 H   0  0  0  0  0  0  0  0  0  0  0  0
   37.8248   55.0818   78.1797 H   0  0  0  0  0  0  0  0  0  0  0  0
   36.2530   54.2123   78.1797 H   0  0  0  0  0  0  0  0  0  0  0  0
   41.9403   54.3449   80.3621 H   0  0  0  0  0  0  0  0  0  0  0  0
   43.3184   50.9830   80.7879 H   0  0  0  0  0  0  0  0  0  0  0  0
   45.1319   50.5974   82.5117 H   0  0  0  0  0  0  0  0  0  0  0  0
   45.3004   54.9174   83.3321 H   0  0  0  0  0  0  0  0  0  0  0  0
   43.3782   55.2597   81.6978 H   0  0  0  0  0  0  0  0  0  0  0  0
  1  2  1  0
  2  3  1  0
  2  4  1  0
  3  5  1  0
  5  6  1  0
  5  7  1  0
  6 11  2  0
  6 12  1  0
  7  8  1  0
  8  9  1  0
  9 10  1  0
 12 13  1  0
 13 14  1  0
 13 18  1  0
 14 15  1  0
 15 16  1  0
 15 17  1  0
 18 19  1  0
 18 20  2  0
 19 21  1  0
 21 22  2  0
 21 26  1  0
 22 23  1  0
 23 24  2  0
 24 25  1  0
 24 27  1  0
 25 26  2  0
 27 28  1  0
 27 29  2  0
  1 30  1  0
  4 31  1  0
  5 32  1  0
  7 33  1  0
  7 34  1  0
  8 35  1  0
  8 36  1  0
  9 37  1  0
  9 38  1  0
 10 39  1  0
 10 40  1  0
 10 41  1  0
 12 42  1  0
 13 43  1  0
 14 44  1  0
 14 45  1  0
 15 46  1  0
 16 47  1  0
 16 48  1  0
 16 49  1  0
 17 50  1  0
 17 51  1  0
 17 52  1  0
 19 53  1  0
 22 54  1  0
 23 55  1  0
 25 56  1  0
 26 57  1  0
M  CHG  2  27   1  28  -1
A    1
O3
A    2
P1
A    3
O2
A    4
O4
A    5
C5
A    6
C6
A    7
C7
A    8
C8
A    9
C9
A   10
C10
A   11
O11
A   12
N12
A   13
C13
A   14
C14
A   15
C15
A   16
C16
A   17
C17
A   18
C18
A   19
N19
A   20
O20
A   21
C21
A   22
C22
A   23
C23
A   24
C24
A   25
C25
A   26
C26
A   27
N27
A   28
O28
A   29
O29
M  END
