1BWF_ATF_Y_601
     RDKit          3D

 49 51  0  0  0  0  0  0  0  0999 V2000
   46.2220   55.7590   14.1250 P   0  0  0  0  0  0  0  0  0  0  0  0
   45.9890   55.4260   15.5550 O   0  0  0  0  0  0  0  0  0  0  0  0
   44.8500   56.3960   13.4010 O   0  0  0  0  0  0  0  0  0  0  0  0
   47.5970   56.7360   14.0040 O   0  0  0  0  0  0  0  0  0  0  0  0
   48.0830   54.3840   12.4530 P   0  0  0  0  0  0  0  0  0  0  0  0
   47.7070   53.8400   11.1280 O   0  0  0  0  0  0  0  0  0  0  0  0
   48.9170   55.8440   12.3020 O   0  0  0  0  0  0  0  0  0  0  0  0
   46.6370   54.3920   13.3040 C   0  0  0  0  0  0  0  0  0  0  0  0
   46.8370   53.4040   14.1960 F   0  0  0  0  0  0  0  0  0  0  0  0
   45.5650   54.0160   12.4620 F   0  0  0  0  0  0  0  0  0  0  0  0
   50.2110   52.7360   12.0990 P   0  0  0  0  0  0  0  0  0  0  0  0
   51.2180   53.7210   11.8400 O   0  0  0  0  0  0  0  0  0  0  0  0
   49.5640   52.4100   10.6470 O   0  0  0  0  0  0  0  0  0  0  0  0
   49.1470   53.3900   13.1440 O   0  0  0  0  0  0  0  0  0  0  0  0
   50.8770   51.3710   12.6800 O   0  0  0  0  0  0  0  0  0  0  0  0
   50.1160   50.5040   13.5100 C   0  0  0  0  0  0  0  0  0  0  0  0
   48.9350   49.7300   12.9240 C   0  0  0  0  0  0  0  0  0  0  0  0
   49.4750   48.6100   12.1510 O   0  0  0  0  0  0  0  0  0  0  0  0
   48.2640   49.0650   14.1080 C   0  0  0  0  0  0  0  0  0  0  0  0
   46.9560   48.6580   13.8840 O   0  0  0  0  0  0  0  0  0  0  0  0
   49.2350   47.9160   14.3900 C   0  0  0  0  0  0  0  0  0  0  0  0
   48.6200   46.6780   14.6960 O   0  0  0  0  0  0  0  0  0  0  0  0
   49.5610   47.4430   12.9890 C   0  0  0  0  0  0  0  0  0  0  0  0
   50.8320   46.6880   12.8770 N   0  0  0  0  0  0  0  0  0  0  0  0
   52.0860   47.1780   13.1870 C   0  0  0  0  0  0  0  0  0  0  0  0
   53.0750   46.2900   13.0570 N   0  0  0  0  0  0  0  0  0  0  0  0
   52.4260   45.1080   12.6180 C   0  0  0  0  0  0  0  0  0  0  0  0
   52.8800   43.8150   12.1980 C   0  0  0  0  0  0  0  0  0  0  0  0
   54.1190   43.3500   12.1940 N   0  0  0  0  0  0  0  0  0  0  0  0
   51.9780   42.9580   11.8000 N   0  0  0  0  0  0  0  0  0  0  0  0
   50.6900   43.2900   11.8710 C   0  0  0  0  0  0  0  0  0  0  0  0
   50.1200   44.4480   12.1890 N   0  0  0  0  0  0  0  0  0  0  0  0
   51.0480   45.3510   12.5370 C   0  0  0  0  0  0  0  0  0  0  0  0
   44.2145   56.6910   14.1004 H   0  0  0  0  0  0  0  0  0  0  0  0
   47.9198   56.9653   14.9114 H   0  0  0  0  0  0  0  0  0  0  0  0
   49.1214   56.2019   13.2021 H   0  0  0  0  0  0  0  0  0  0  0  0
   48.6866   51.9679   10.7684 H   0  0  0  0  0  0  0  0  0  0  0  0
   50.8150   49.7580   13.9161 H   0  0  0  0  0  0  0  0  0  0  0  0
   49.6396   51.1907   14.2252 H   0  0  0  0  0  0  0  0  0  0  0  0
   48.2812   50.3833   12.3276 H   0  0  0  0  0  0  0  0  0  0  0  0
   48.1123   49.7441   14.9599 H   0  0  0  0  0  0  0  0  0  0  0  0
   46.5012   48.5165   14.7519 H   0  0  0  0  0  0  0  0  0  0  0  0
   49.9516   48.2821   15.1400 H   0  0  0  0  0  0  0  0  0  0  0  0
   48.5664   46.5701   15.6786 H   0  0  0  0  0  0  0  0  0  0  0  0
   48.8393   46.6820   12.6575 H   0  0  0  0  0  0  0  0  0  0  0  0
   52.2559   48.2144   13.5140 H   0  0  0  0  0  0  0  0  0  0  0  0
   54.6037   43.1681   13.0844 H   0  0  0  0  0  0  0  0  0  0  0  0
   54.5986   43.1700   11.3004 H   0  0  0  0  0  0  0  0  0  0  0  0
   49.9879   42.4787   11.6284 H   0  0  0  0  0  0  0  0  0  0  0  0
  1  2  2  0
  1  3  1  0
  1  4  1  0
  1  8  1  0
  5  6  2  0
  5  7  1  0
  5  8  1  0
  5 14  1  0
  8  9  1  0
  8 10  1  0
 11 12  2  0
 11 13  1  0
 11 14  1  0
 11 15  1  0
 15 16  1  0
 16 17  1  0
 17 18  1  0
 17 19  1  0
 18 23  1  0
 19 20  1  0
 19 21  1  0
 21 22  1  0
 21 23  1  0
 23 24  1  0
 24 25  1  0
 24 33  1  0
 25 26  2  0
 26 27  1  0
 27 28  1  0
 27 33  2  0
 28 29  1  0
 28 30  2  0
 30 31  1  0
 31 32  2  0
 32 33  1  0
  3 34  1  0
  4 35  1  0
  7 36  1  0
 13 37  1  0
 16 38  1  0
 16 39  1  0
 17 40  1  0
 19 41  1  0
 20 42  1  0
 21 43  1  0
 22 44  1  0
 23 45  1  0
 25 46  1  0
 29 47  1  0
 29 48  1  0
 31 49  1  0
A    1
PG
A    2
O1G
A    3
O2G
A    4
O3G
A    5
PB
A    6
O1B
A    7
O2B
A    8
C3B
A    9
F1B
A   10
F2B
A   11
PA
A   12
O1A
A   13
O2A
A   14
O3A
A   15
O5'
A   16
C5'
A   17
C4'
A   18
O4'
A   19
C3'
A   20
O3'
A   21
C2'
A   22
O2'
A   23
C1'
A   24
N9
A   25
C8
A   26
N7
A   27
C5
A   28
C6
A   29
N6
A   30
N1
A   31
C2
A   32
N3
A   33
C4
M  END
