1BYE_ATA_A_1001
     RDKit          3D

 63 63  0  0  0  0  0  0  0  0999 V2000
   -4.0360    1.0320   15.8990 N   0  0  0  0  0  0  0  0  0  0  0  0
   -4.7400    1.6280   14.7240 C   0  0  0  0  0  0  0  0  0  0  0  0
   -3.7590    2.0090   13.6120 C   0  0  0  0  0  0  0  0  0  0  0  0
   -4.0000    1.2370   12.3110 C   0  0  0  0  0  0  0  0  0  0  0  0
   -5.7470    0.6240   14.1430 C   0  0  0  0  0  0  0  0  0  0  0  0
   -6.4700    1.0130   13.2060 O   0  0  0  0  0  0  0  0  0  0  0  0
   -5.8450   -0.4830   14.7050 O   0  0  0  0  0  0  0  0  0  0  0  0
   -2.7310    0.5220   11.8570 C   0  0  0  0  0  0  0  0  0  0  0  0
   -2.0060    0.0590   12.7550 O   0  0  0  0  0  0  0  0  0  0  0  0
    0.2650   -5.2180    6.1280 N   0  0  0  0  0  0  0  0  0  0  0  0
   -0.7070   -5.8570    6.7810 C   0  0  0  0  0  0  0  0  0  0  0  0
   -1.2460   -5.4670    7.9310 N   0  0  0  0  0  0  0  0  0  0  0  0
   -1.1200   -4.1400    8.1530 C   0  0  0  0  0  0  0  0  0  0  0  0
   -0.4520   -3.3050    7.3220 N   0  0  0  0  0  0  0  0  0  0  0  0
    0.4550   -3.9590    6.5670 C   0  0  0  0  0  0  0  0  0  0  0  0
   -2.8150   -0.1800   10.7090 N   0  0  0  0  0  0  0  0  0  0  0  0
   -1.6030   -0.8690   10.2450 C   0  0  0  0  0  0  0  0  0  0  0  0
   -1.4530   -0.7490    8.7210 C   0  0  0  0  0  0  0  0  0  0  0  0
   -1.3160   -1.7980    8.0770 O   0  0  0  0  0  0  0  0  0  0  0  0
   -1.6220   -2.3710   10.6240 C   0  0  0  0  0  0  0  0  0  0  0  0
   -2.2390   -3.4470    9.3070 S   0  0  0  0  0  0  0  0  0  0  0  0
    1.7520   -3.3550    6.1130 N   0  0  0  0  0  0  0  0  0  0  0  0
   -1.2870   -7.0370    6.0870 N   0  0  0  0  0  0  0  0  0  0  0  0
   -0.3790   -7.4090    4.9490 C   0  0  0  0  0  0  0  0  0  0  0  0
   -1.0250   -8.5080    4.0830 C   0  0  0  0  0  0  0  0  0  0  0  0
    2.2670   -3.8360    4.7890 C   0  0  0  0  0  0  0  0  0  0  0  0
    1.4880   -5.0660    4.2800 C   0  0  0  0  0  0  0  0  0  0  0  0
    2.3600   -2.8180    3.6310 C   0  0  0  0  0  0  0  0  0  0  0  0
   -2.0050    0.3510    8.2200 N   0  0  0  0  0  0  0  0  0  0  0  0
   -1.2670    1.1900    7.2930 C   0  0  0  0  0  0  0  0  0  0  0  0
   -1.4820    2.6760    7.5210 C   0  0  0  0  0  0  0  0  0  0  0  0
   -2.2000    3.3130    6.7160 O   0  0  0  0  0  0  0  0  0  0  0  0
   -0.7970    3.2400    8.4100 O   0  0  0  0  0  0  0  0  0  0  0  0
   -4.4572    1.3886   16.7687 H   0  0  0  0  0  0  0  0  0  0  0  0
   -4.1261    0.0064   15.8692 H   0  0  0  0  0  0  0  0  0  0  0  0
   -5.2537    2.5325   15.0818 H   0  0  0  0  0  0  0  0  0  0  0  0
   -3.8632    3.0845   13.4059 H   0  0  0  0  0  0  0  0  0  0  0  0
   -2.7482    1.7544   13.9634 H   0  0  0  0  0  0  0  0  0  0  0  0
   -4.7930    0.4927   12.4759 H   0  0  0  0  0  0  0  0  0  0  0  0
   -4.2987    1.9513   11.5296 H   0  0  0  0  0  0  0  0  0  0  0  0
   -5.8498   -0.5376   15.6935 H   0  0  0  0  0  0  0  0  0  0  0  0
   -3.6956   -0.2314   10.1773 H   0  0  0  0  0  0  0  0  0  0  0  0
   -0.7511   -0.3823   10.7424 H   0  0  0  0  0  0  0  0  0  0  0  0
   -0.5956   -2.6794   10.8719 H   0  0  0  0  0  0  0  0  0  0  0  0
   -2.3104   -2.4785   11.4752 H   0  0  0  0  0  0  0  0  0  0  0  0
    2.2564   -2.6546    6.6751 H   0  0  0  0  0  0  0  0  0  0  0  0
   -2.1616   -7.5173    6.3425 H   0  0  0  0  0  0  0  0  0  0  0  0
   -0.1937   -6.5203    4.3278 H   0  0  0  0  0  0  0  0  0  0  0  0
    0.5688   -7.7885    5.3584 H   0  0  0  0  0  0  0  0  0  0  0  0
   -1.4740   -9.2719    4.7348 H   0  0  0  0  0  0  0  0  0  0  0  0
   -1.8053   -8.0631    3.4480 H   0  0  0  0  0  0  0  0  0  0  0  0
   -0.2568   -8.9734    3.4480 H   0  0  0  0  0  0  0  0  0  0  0  0
    3.3083   -4.0768    5.0492 H   0  0  0  0  0  0  0  0  0  0  0  0
    1.1197   -5.6476    5.1380 H   0  0  0  0  0  0  0  0  0  0  0  0
    0.6356   -4.7333    3.6695 H   0  0  0  0  0  0  0  0  0  0  0  0
    2.1531   -5.6944    3.6695 H   0  0  0  0  0  0  0  0  0  0  0  0
    2.4528   -1.8021    4.0425 H   0  0  0  0  0  0  0  0  0  0  0  0
    3.2411   -3.0452    3.0129 H   0  0  0  0  0  0  0  0  0  0  0  0
    1.4523   -2.8818    3.0129 H   0  0  0  0  0  0  0  0  0  0  0  0
   -2.9641    0.6105    8.4915 H   0  0  0  0  0  0  0  0  0  0  0  0
   -0.1945    0.9720    7.4036 H   0  0  0  0  0  0  0  0  0  0  0  0
   -1.6364    0.9600    6.2827 H   0  0  0  0  0  0  0  0  0  0  0  0
   -0.9955    3.0766    9.3660 H   0  0  0  0  0  0  0  0  0  0  0  0
  1  2  1  0
  2  3  1  0
  2  5  1  0
  3  4  1  0
  4  8  1  0
  5  6  2  0
  5  7  1  0
  8  9  2  0
  8 16  1  0
 10 11  2  0
 10 15  1  0
 11 12  1  0
 11 23  1  0
 12 13  2  0
 13 14  1  0
 13 21  1  0
 14 15  2  0
 15 22  1  0
 16 17  1  0
 17 18  1  0
 17 20  1  0
 18 19  2  0
 18 29  1  0
 20 21  1  0
 22 26  1  0
 23 24  1  0
 24 25  1  0
 26 27  1  0
 26 28  1  0
 29 30  1  0
 30 31  1  0
 31 32  2  0
 31 33  1  0
  1 34  1  0
  1 35  1  0
  2 36  1  0
  3 37  1  0
  3 38  1  0
  4 39  1  0
  4 40  1  0
  7 41  1  0
 16 42  1  0
 17 43  1  0
 20 44  1  0
 20 45  1  0
 22 46  1  0
 23 47  1  0
 24 48  1  0
 24 49  1  0
 25 50  1  0
 25 51  1  0
 25 52  1  0
 26 53  1  0
 27 54  1  0
 27 55  1  0
 27 56  1  0
 28 57  1  0
 28 58  1  0
 28 59  1  0
 29 60  1  0
 30 61  1  0
 30 62  1  0
 33 63  1  0
A    1
N'
A    2
CA'
A    3
CB'
A    4
CG'
A    5
CC'
A    6
O1'
A    7
O2'
A    8
C'
A    9
O'
A   10
N5
A   11
C6
A   12
N1
A   13
C2
A   14
N3
A   15
C4
A   16
N
A   17
CA
A   18
C
A   19
O
A   20
CB
A   21
SG
A   22
N7
A   23
N11
A   24
C12
A   25
C13
A   26
C8
A   27
C9
A   28
C10
A   29
ND
A   30
CAD
A   31
CD
A   32
OD
A   33
OT'
M  END
