1BZL_GCG_A_603
     RDKit          3D

 97 96  0  0  0  0  0  0  0  0999 V2000
   26.8630   14.1680   -4.0330 C   0  0  0  0  0  0  0  0  0  0  0  0
   27.5410   13.2940   -5.0980 C   0  0  0  0  0  0  0  0  0  0  0  0
   27.4180   15.2240   -3.6870 O   0  0  0  0  0  0  0  0  0  0  0  0
   25.7810   13.8110   -3.5700 O   0  0  0  0  0  0  0  0  0  0  0  0
   28.2070   12.0430   -4.4600 C   0  0  0  0  0  0  0  0  0  0  0  0
   28.5800   14.1670   -5.7130 N   0  0  0  0  0  0  0  0  0  0  0  0
   27.2490   10.8760   -4.1440 C   0  0  0  0  0  0  0  0  0  0  0  0
   26.4640   10.4510   -5.3540 C   0  0  0  0  0  0  0  0  0  0  0  0
   27.0380   10.1080   -6.3870 O   0  0  0  0  0  0  0  0  0  0  0  0
   25.1670   10.4630   -5.2320 N   0  0  0  0  0  0  0  0  0  0  0  0
   24.2240   10.1150   -6.2860 C   0  0  0  0  0  0  0  0  0  0  0  0
   23.1700   11.2160   -6.2610 C   0  0  0  0  0  0  0  0  0  0  0  0
   22.7040   11.5780   -5.1770 O   0  0  0  0  0  0  0  0  0  0  0  0
   23.5760    8.7480   -6.0050 C   0  0  0  0  0  0  0  0  0  0  0  0
   24.0330    7.3540   -7.1280 S   0  0  0  0  0  0  0  0  0  0  0  0
   22.8040   11.7370   -7.4400 N   0  0  0  0  0  0  0  0  0  0  0  0
   21.8260   12.8110   -7.5260 C   0  0  0  0  0  0  0  0  0  0  0  0
   20.5460   12.6270   -6.7310 C   0  0  0  0  0  0  0  0  0  0  0  0
   20.0420   11.5090   -6.5870 O   0  0  0  0  0  0  0  0  0  0  0  0
   20.0100   13.7480   -6.2230 N   0  0  0  0  0  0  0  0  0  0  0  0
   18.7810   13.8020   -5.4330 C   0  0  0  0  0  0  0  0  0  0  0  0
   18.9760   14.0180   -3.9310 C   0  0  0  0  0  0  0  0  0  0  0  0
   18.9100   12.7070   -3.1660 C   0  0  0  0  0  0  0  0  0  0  0  0
   20.1160   11.7600   -3.2840 C   0  0  0  0  0  0  0  0  0  0  0  0
   18.5890    9.9160   -2.5250 C   0  0  0  0  0  0  0  0  0  0  0  0
   19.7400   10.3410   -3.3330 N   0  0  0  0  0  0  0  0  0  0  0  0
   18.2850    8.4100   -2.5350 C   0  0  0  0  0  0  0  0  0  0  0  0
   19.2690    7.6430   -1.6620 C   0  0  0  0  0  0  0  0  0  0  0  0
   20.1820    6.7060   -2.3140 N   0  0  0  0  0  0  0  0  0  0  0  0
   21.2270    7.0670   -3.0770 C   0  0  0  0  0  0  0  0  0  0  0  0
   23.3800    6.4660   -3.9620 N   0  0  0  0  0  0  0  0  0  0  0  0
   22.0690    5.9430   -3.6450 C   0  0  0  0  0  0  0  0  0  0  0  0
   21.5060    8.2460   -3.3290 O   0  0  0  0  0  0  0  0  0  0  0  0
   24.4840    5.7260   -3.8750 C   0  0  0  0  0  0  0  0  0  0  0  0
   26.7130    6.5340   -3.1490 N   0  0  0  0  0  0  0  0  0  0  0  0
   25.7620    6.4540   -4.2590 C   0  0  0  0  0  0  0  0  0  0  0  0
   24.4980    4.5550   -3.4840 O   0  0  0  0  0  0  0  0  0  0  0  0
   26.3590    5.8090   -5.5010 C   0  0  0  0  0  0  0  0  0  0  0  0
   25.9590    6.7160   -7.0640 S   0  0  0  0  0  0  0  0  0  0  0  0
   28.0030    6.9450   -3.1600 C   0  0  0  0  0  0  0  0  0  0  0  0
   31.4700    4.3090   -1.3180 C   0  0  0  0  0  0  0  0  0  0  0  0
   30.0880    4.9530   -1.2410 C   0  0  0  0  0  0  0  0  0  0  0  0
   32.0810    4.1340   -0.2510 O   0  0  0  0  0  0  0  0  0  0  0  0
   31.9160    3.9550   -2.4110 O   0  0  0  0  0  0  0  0  0  0  0  0
   30.0890    6.3140   -1.8730 C   0  0  0  0  0  0  0  0  0  0  0  0
   29.6910    5.0720    0.1860 N   0  0  0  0  0  0  0  0  0  0  0  0
   28.7220    6.9700   -1.8280 C   0  0  0  0  0  0  0  0  0  0  0  0
   28.6040    7.2440   -4.1900 O   0  0  0  0  0  0  0  0  0  0  0  0
   26.8129   12.9214   -5.8335 H   0  0  0  0  0  0  0  0  0  0  0  0
   27.5281   15.4334   -2.7257 H   0  0  0  0  0  0  0  0  0  0  0  0
   28.9743   11.6739   -5.1565 H   0  0  0  0  0  0  0  0  0  0  0  0
   28.6129   12.3741   -3.4928 H   0  0  0  0  0  0  0  0  0  0  0  0
   29.1263   14.6260   -4.9702 H   0  0  0  0  0  0  0  0  0  0  0  0
   29.2070   13.5954   -6.2970 H   0  0  0  0  0  0  0  0  0  0  0  0
   27.8383   10.0199   -3.7838 H   0  0  0  0  0  0  0  0  0  0  0  0
   26.5367   11.2176   -3.3785 H   0  0  0  0  0  0  0  0  0  0  0  0
   24.7783   10.7401   -4.3193 H   0  0  0  0  0  0  0  0  0  0  0  0
   24.7179   10.0377   -7.2658 H   0  0  0  0  0  0  0  0  0  0  0  0
   23.8530    8.4539   -4.9819 H   0  0  0  0  0  0  0  0  0  0  0  0
   22.4995    8.9041   -6.1683 H   0  0  0  0  0  0  0  0  0  0  0  0
   24.3905    6.2634   -6.3799 H   0  0  0  0  0  0  0  0  0  0  0  0
   23.2245   11.3689   -8.3052 H   0  0  0  0  0  0  0  0  0  0  0  0
   22.3100   13.7329   -7.1713 H   0  0  0  0  0  0  0  0  0  0  0  0
   21.5128   12.8357   -8.5802 H   0  0  0  0  0  0  0  0  0  0  0  0
   20.5007   14.6355   -6.4031 H   0  0  0  0  0  0  0  0  0  0  0  0
   18.1661   14.6289   -5.8179 H   0  0  0  0  0  0  0  0  0  0  0  0
   18.3089   12.8141   -5.5386 H   0  0  0  0  0  0  0  0  0  0  0  0
   19.9590   14.4816   -3.7613 H   0  0  0  0  0  0  0  0  0  0  0  0
   18.1674   14.6698   -3.5685 H   0  0  0  0  0  0  0  0  0  0  0  0
   18.7852   12.9519   -2.1009 H   0  0  0  0  0  0  0  0  0  0  0  0
   18.0732   12.1566   -3.6207 H   0  0  0  0  0  0  0  0  0  0  0  0
   20.6650   12.0074   -4.2046 H   0  0  0  0  0  0  0  0  0  0  0  0
   20.7305   11.9025   -2.3828 H   0  0  0  0  0  0  0  0  0  0  0  0
   18.7788   10.2151   -1.4836 H   0  0  0  0  0  0  0  0  0  0  0  0
   17.7112   10.4011   -2.9768 H   0  0  0  0  0  0  0  0  0  0  0  0
   19.5294   10.1114   -4.3147 H   0  0  0  0  0  0  0  0  0  0  0  0
   17.2657    8.2473   -2.1547 H   0  0  0  0  0  0  0  0  0  0  0  0
   18.3771    8.0433   -3.5680 H   0  0  0  0  0  0  0  0  0  0  0  0
   19.8852    8.3858   -1.1342 H   0  0  0  0  0  0  0  0  0  0  0  0
   18.6340    7.0088   -1.0259 H   0  0  0  0  0  0  0  0  0  0  0  0
   20.0123    5.6991   -2.1790 H   0  0  0  0  0  0  0  0  0  0  0  0
   23.4627    7.4466   -4.2661 H   0  0  0  0  0  0  0  0  0  0  0  0
   22.1609    5.1366   -2.9025 H   0  0  0  0  0  0  0  0  0  0  0  0
   21.5954    5.5387   -4.5518 H   0  0  0  0  0  0  0  0  0  0  0  0
   26.3503    6.2362   -2.2321 H   0  0  0  0  0  0  0  0  0  0  0  0
   25.5141    7.4986   -4.4986 H   0  0  0  0  0  0  0  0  0  0  0  0
   27.4525    5.7774   -5.3862 H   0  0  0  0  0  0  0  0  0  0  0  0
   25.9210    4.8037   -5.5875 H   0  0  0  0  0  0  0  0  0  0  0  0
   25.4202    7.9378   -6.7579 H   0  0  0  0  0  0  0  0  0  0  0  0
   29.3732    4.3205   -1.7879 H   0  0  0  0  0  0  0  0  0  0  0  0
   31.6164    4.2671    0.6130 H   0  0  0  0  0  0  0  0  0  0  0  0
   30.8059    6.9528   -1.3363 H   0  0  0  0  0  0  0  0  0  0  0  0
   30.3705    6.1944   -2.9296 H   0  0  0  0  0  0  0  0  0  0  0  0
   30.4926    4.8317    0.7866 H   0  0  0  0  0  0  0  0  0  0  0  0
   29.3941    6.0390    0.3803 H   0  0  0  0  0  0  0  0  0  0  0  0
   28.8474    8.0180   -1.5183 H   0  0  0  0  0  0  0  0  0  0  0  0
   28.1091    6.3984   -1.1155 H   0  0  0  0  0  0  0  0  0  0  0  0
  1  2  1  0
  1  3  1  0
  1  4  2  0
  2  5  1  0
  2  6  1  0
  5  7  1  0
  7  8  1  0
  8  9  2  0
  8 10  1  0
 10 11  1  0
 11 12  1  0
 11 14  1  0
 12 13  2  0
 12 16  1  0
 14 15  1  0
 16 17  1  0
 17 18  1  0
 18 19  2  0
 18 20  1  0
 20 21  1  0
 21 22  1  0
 22 23  1  0
 23 24  1  0
 24 26  1  0
 25 26  1  0
 25 27  1  0
 27 28  1  0
 28 29  1  0
 29 30  1  0
 30 32  1  0
 30 33  2  0
 31 32  1  0
 31 34  1  0
 34 36  1  0
 34 37  2  0
 35 36  1  0
 35 40  1  0
 36 38  1  0
 38 39  1  0
 40 47  1  0
 40 48  2  0
 41 42  1  0
 41 43  1  0
 41 44  2  0
 42 45  1  0
 42 46  1  0
 45 47  1  0
  2 49  1  0
  3 50  1  0
  5 51  1  0
  5 52  1  0
  6 53  1  0
  6 54  1  0
  7 55  1  0
  7 56  1  0
 10 57  1  0
 11 58  1  0
 14 59  1  0
 14 60  1  0
 15 61  1  0
 16 62  1  0
 17 63  1  0
 17 64  1  0
 20 65  1  0
 21 66  1  0
 21 67  1  0
 22 68  1  0
 22 69  1  0
 23 70  1  0
 23 71  1  0
 24 72  1  0
 24 73  1  0
 25 74  1  0
 25 75  1  0
 26 76  1  0
 27 77  1  0
 27 78  1  0
 28 79  1  0
 28 80  1  0
 29 81  1  0
 31 82  1  0
 32 83  1  0
 32 84  1  0
 35 85  1  0
 36 86  1  0
 38 87  1  0
 38 88  1  0
 39 89  1  0
 42 90  1  0
 43 91  1  0
 45 92  1  0
 45 93  1  0
 46 94  1  0
 46 95  1  0
 47 96  1  0
 47 97  1  0
A    1
C1
A    2
CA1
A    3
O11
A    4
O21
A    5
CB1
A    6
N1
A    7
CG1
A    8
CD1
A    9
OD1
A   10
N2
A   11
CA2
A   12
C2
A   13
O2
A   14
CB2
A   15
SG2
A   16
N3
A   17
CA3
A   18
C3
A   19
O3
A   20
N1S
A   21
C2S
A   22
C3S
A   23
C4S
A   24
C5S
A   25
C7S
A   26
N6S
A   27
C8S
A   28
C9S
A   29
N11
A   30
C5
A   31
N5
A   32
CA5
A   33
O5
A   34
C6
A   35
N6
A   36
CA6
A   37
O6
A   38
CB6
A   39
SG6
A   40
CD7
A   41
C7
A   42
CA7
A   43
O17
A   44
O27
A   45
CB7
A   46
N7
A   47
CG7
A   48
OD7
M  END
