1BZS_BSI_A_250
     RDKit          3D

 47 50  0  0  0  0  0  0  0  0999 V2000
   30.3900   59.3230   55.7800 C   0  0  0  0  0  0  0  0  0  0  0  0
   30.4040   59.0550   54.3880 C   0  0  0  0  0  0  0  0  0  0  0  0
   29.4640   59.6780   53.5540 C   0  0  0  0  0  0  0  0  0  0  0  0
   29.5570   59.4040   52.1020 C   0  0  0  0  0  0  0  0  0  0  0  0
   27.1290   60.3290   52.0360 C   0  0  0  0  0  0  0  0  0  0  0  0
   27.4340   61.2220   53.2390 C   0  0  0  0  0  0  0  0  0  0  0  0
   27.6250   58.3170   49.3640 C   0  0  0  0  0  0  0  0  0  0  0  0
   26.4710   55.9070   48.3830 C   0  0  0  0  0  0  0  0  0  0  0  0
   27.7630   55.9340   49.0370 C   0  0  0  0  0  0  0  0  0  0  0  0
   28.3570   57.1120   49.5420 C   0  0  0  0  0  0  0  0  0  0  0  0
   26.0010   54.6670   47.7170 C   0  0  0  0  0  0  0  0  0  0  0  0
   24.7090   53.5400   45.9710 C   0  0  0  0  0  0  0  0  0  0  0  0
   26.4680   53.3980   48.1780 C   0  0  0  0  0  0  0  0  0  0  0  0
   29.8250   59.6520   49.3690 O   0  0  0  0  0  0  0  0  0  0  0  0
   28.4930   60.5630   54.0960 C   0  0  0  0  0  0  0  0  0  0  0  0
   28.4960   60.8580   55.4930 C   0  0  0  0  0  0  0  0  0  0  0  0
   29.4510   60.2230   56.3240 C   0  0  0  0  0  0  0  0  0  0  0  0
   28.4190   59.9900   51.3650 N   0  0  0  0  0  0  0  0  0  0  0  0
   28.4470   59.8400   49.7700 S   0  0  0  0  0  0  0  0  0  0  0  0
   26.3100   58.3200   48.8060 C   0  0  0  0  0  0  0  0  0  0  0  0
   25.7260   57.1190   48.3240 C   0  0  0  0  0  0  0  0  0  0  0  0
   25.1270   54.7500   46.6090 C   0  0  0  0  0  0  0  0  0  0  0  0
   25.1650   52.2760   46.4320 C   0  0  0  0  0  0  0  0  0  0  0  0
   26.0530   52.2050   47.5400 C   0  0  0  0  0  0  0  0  0  0  0  0
   27.6780   60.9140   49.2150 O   0  0  0  0  0  0  0  0  0  0  0  0
   26.3880   59.0790   52.4950 C   0  0  0  0  0  0  0  0  0  0  0  0
   25.1420   59.0600   52.5280 O   0  0  0  0  0  0  0  0  0  0  0  0
   27.0290   58.0640   52.8840 O   0  0  0  0  0  0  0  0  0  0  0  0
   31.1162   58.8257   56.4397 H   0  0  0  0  0  0  0  0  0  0  0  0
   31.1471   58.3631   53.9648 H   0  0  0  0  0  0  0  0  0  0  0  0
   30.4925   59.8355   51.7163 H   0  0  0  0  0  0  0  0  0  0  0  0
   29.5378   58.3140   51.9552 H   0  0  0  0  0  0  0  0  0  0  0  0
   26.4795   60.8503   51.3174 H   0  0  0  0  0  0  0  0  0  0  0  0
   27.8002   62.1982   52.8884 H   0  0  0  0  0  0  0  0  0  0  0  0
   26.5186   61.3671   53.8314 H   0  0  0  0  0  0  0  0  0  0  0  0
   28.3110   54.9865   49.1463 H   0  0  0  0  0  0  0  0  0  0  0  0
   29.3345   57.0973   50.0463 H   0  0  0  0  0  0  0  0  0  0  0  0
   24.0247   53.5889   45.1111 H   0  0  0  0  0  0  0  0  0  0  0  0
   27.1553   53.3479   49.0353 H   0  0  0  0  0  0  0  0  0  0  0  0
   27.7689   61.5664   55.9166 H   0  0  0  0  0  0  0  0  0  0  0  0
   29.4602   60.4339   57.4036 H   0  0  0  0  0  0  0  0  0  0  0  0
   25.7445   59.2618   48.7492 H   0  0  0  0  0  0  0  0  0  0  0  0
   24.7074   57.1248   47.9088 H   0  0  0  0  0  0  0  0  0  0  0  0
   24.7751   55.7264   46.2445 H   0  0  0  0  0  0  0  0  0  0  0  0
   24.8317   51.3542   45.9328 H   0  0  0  0  0  0  0  0  0  0  0  0
   26.4147   51.2301   47.8986 H   0  0  0  0  0  0  0  0  0  0  0  0
   27.1393   57.8893   53.8522 H   0  0  0  0  0  0  0  0  0  0  0  0
  1  2  2  0
  1 17  1  0
  2  3  1  0
  3  4  1  0
  3 15  2  0
  4 18  1  0
  5  6  1  0
  5 18  1  0
  5 26  1  0
  6 15  1  0
  7 10  2  0
  7 19  1  0
  7 20  1  0
  8  9  2  0
  8 11  1  0
  8 21  1  0
  9 10  1  0
 11 13  2  0
 11 22  1  0
 12 22  2  0
 12 23  1  0
 13 24  1  0
 14 19  2  0
 15 16  1  0
 16 17  2  0
 18 19  1  0
 19 25  2  0
 20 21  2  0
 23 24  2  0
 26 27  2  0
 26 28  1  0
  1 29  1  0
  2 30  1  0
  4 31  1  0
  4 32  1  0
  5 33  1  0
  6 34  1  0
  6 35  1  0
  9 36  1  0
 10 37  1  0
 12 38  1  0
 13 39  1  0
 16 40  1  0
 17 41  1  0
 20 42  1  0
 21 43  1  0
 22 44  1  0
 23 45  1  0
 24 46  1  0
 28 47  1  0
A    1
C1
A    2
C2
A    3
C3
A    4
C7
A    5
C9
A    6
C10
A    7
C16
A    8
C19
A    9
C20
A   10
C21
A   11
C22
A   12
C24
A   13
C27
A   14
O28
A   15
C4
A   16
C5
A   17
C6
A   18
N8
A   19
S15
A   20
C17
A   21
C18
A   22
C23
A   23
C25
A   24
C26
A   25
O29
A   26
C43
A   27
O45
A   28
O46
M  END
