1C1H_MMP_A_800
     RDKit          3D

 83 87  0  0  0  0  0  0  0  0999 V2000
   16.1990   18.9460   12.0020 C   0  0  0  0  0  0  0  0  0  0  0  0
   14.9100   19.6260   11.5410 N   0  0  0  0  0  0  0  0  0  0  0  0
   13.7120   19.2520   12.1430 C   0  0  0  0  0  0  0  0  0  0  0  0
   12.9190   20.4540   12.3650 C   0  0  0  0  0  0  0  0  0  0  0  0
   13.6330   21.5110   11.9100 C   0  0  0  0  0  0  0  0  0  0  0  0
   14.9010   21.0070   11.3830 C   0  0  0  0  0  0  0  0  0  0  0  0
   15.9070   21.7640   10.8000 C   0  0  0  0  0  0  0  0  0  0  0  0
   11.5290   20.4880   13.0000 C   0  0  0  0  0  0  0  0  0  0  0  0
   13.3640   22.9810   12.1890 C   0  0  0  0  0  0  0  0  0  0  0  0
   13.6140   23.3410   13.6530 C   0  0  0  0  0  0  0  0  0  0  0  0
   16.7890   20.1350    9.2290 N   0  0  0  0  0  0  0  0  0  0  0  0
   16.8090   21.3820    9.8160 C   0  0  0  0  0  0  0  0  0  0  0  0
   17.8650   22.1480    9.2050 C   0  0  0  0  0  0  0  0  0  0  0  0
   18.4640   21.3620    8.2920 C   0  0  0  0  0  0  0  0  0  0  0  0
   17.7880   20.0900    8.2890 C   0  0  0  0  0  0  0  0  0  0  0  0
   18.0170   19.0020    7.4740 C   0  0  0  0  0  0  0  0  0  0  0  0
   18.2160   23.5860    9.5740 C   0  0  0  0  0  0  0  0  0  0  0  0
   19.5340   21.7930    7.2990 C   0  0  0  0  0  0  0  0  0  0  0  0
   20.8070   20.9900    7.4490 C   0  0  0  0  0  0  0  0  0  0  0  0
   16.2790   17.4800    8.2350 N   0  0  0  0  0  0  0  0  0  0  0  0
   17.2790   17.8540    7.3510 C   0  0  0  0  0  0  0  0  0  0  0  0
   17.4100   16.8410    6.3430 C   0  0  0  0  0  0  0  0  0  0  0  0
   16.5240   15.8950    6.6390 C   0  0  0  0  0  0  0  0  0  0  0  0
   15.7890   16.2670    7.8290 C   0  0  0  0  0  0  0  0  0  0  0  0
   14.7850   15.5680    8.4580 C   0  0  0  0  0  0  0  0  0  0  0  0
   18.3770   16.8830    5.1690 C   0  0  0  0  0  0  0  0  0  0  0  0
   16.2240   14.5980    5.8920 C   0  0  0  0  0  0  0  0  0  0  0  0
   17.2110   13.4880    6.1790 C   0  0  0  0  0  0  0  0  0  0  0  0
   16.8660   12.2230    5.4350 C   0  0  0  0  0  0  0  0  0  0  0  0
   16.5630   12.3070    4.2210 O   0  0  0  0  0  0  0  0  0  0  0  0
   16.8960   11.1410    6.0550 O   0  0  0  0  0  0  0  0  0  0  0  0
   14.2910   16.9830   10.3580 N   0  0  0  0  0  0  0  0  0  0  0  0
   14.1260   15.8370    9.6380 C   0  0  0  0  0  0  0  0  0  0  0  0
   13.1770   14.9880   10.3120 C   0  0  0  0  0  0  0  0  0  0  0  0
   12.7810   15.6400   11.4410 C   0  0  0  0  0  0  0  0  0  0  0  0
   13.4760   16.9080   11.4730 C   0  0  0  0  0  0  0  0  0  0  0  0
   13.3610   17.9300   12.3960 C   0  0  0  0  0  0  0  0  0  0  0  0
   11.8160   15.1220   12.4810 C   0  0  0  0  0  0  0  0  0  0  0  0
   12.6480   13.6710    9.7900 C   0  0  0  0  0  0  0  0  0  0  0  0
   11.2880   13.9000    9.1320 C   0  0  0  0  0  0  0  0  0  0  0  0
   10.6760   12.6280    8.5940 C   0  0  0  0  0  0  0  0  0  0  0  0
   10.8410   12.3500    7.3850 O   0  0  0  0  0  0  0  0  0  0  0  0
   10.0370   11.8980    9.3810 O   0  0  0  0  0  0  0  0  0  0  0  0
   16.2316   18.9288   13.1014 H   0  0  0  0  0  0  0  0  0  0  0  0
   16.2275   17.9155   11.6182 H   0  0  0  0  0  0  0  0  0  0  0  0
   17.0656   19.5043   11.6182 H   0  0  0  0  0  0  0  0  0  0  0  0
   16.0020   22.7979   11.1634 H   0  0  0  0  0  0  0  0  0  0  0  0
   11.6263   20.4856   14.0957 H   0  0  0  0  0  0  0  0  0  0  0  0
   11.0022   21.3993   12.6806 H   0  0  0  0  0  0  0  0  0  0  0  0
   10.9583   19.6035   12.6806 H   0  0  0  0  0  0  0  0  0  0  0  0
   14.0261   23.5896   11.5556 H   0  0  0  0  0  0  0  0  0  0  0  0
   12.3056   23.1810   11.9659 H   0  0  0  0  0  0  0  0  0  0  0  0
   13.1073   22.6113   14.3017 H   0  0  0  0  0  0  0  0  0  0  0  0
   14.6950   23.3231   13.8555 H   0  0  0  0  0  0  0  0  0  0  0  0
   13.2196   24.3477   13.8555 H   0  0  0  0  0  0  0  0  0  0  0  0
   18.9118   19.0637    6.8373 H   0  0  0  0  0  0  0  0  0  0  0  0
   18.2409   23.6879   10.6690 H   0  0  0  0  0  0  0  0  0  0  0  0
   19.2026   23.8405    9.1595 H   0  0  0  0  0  0  0  0  0  0  0  0
   17.4576   24.2665    9.1595 H   0  0  0  0  0  0  0  0  0  0  0  0
   19.1466   21.6561    6.2786 H   0  0  0  0  0  0  0  0  0  0  0  0
   19.7741   22.8481    7.4969 H   0  0  0  0  0  0  0  0  0  0  0  0
   21.0286   20.8502    8.5173 H   0  0  0  0  0  0  0  0  0  0  0  0
   20.6799   20.0083    6.9694 H   0  0  0  0  0  0  0  0  0  0  0  0
   21.6383   21.5275    6.9694 H   0  0  0  0  0  0  0  0  0  0  0  0
   15.9606   18.0191    9.0529 H   0  0  0  0  0  0  0  0  0  0  0  0
   14.4581   14.6545    7.9397 H   0  0  0  0  0  0  0  0  0  0  0  0
   19.4095   16.9278    5.5458 H   0  0  0  0  0  0  0  0  0  0  0  0
   18.2493   15.9785    4.5562 H   0  0  0  0  0  0  0  0  0  0  0  0
   18.1713   17.7731    4.5562 H   0  0  0  0  0  0  0  0  0  0  0  0
   15.2205   14.2540    6.1828 H   0  0  0  0  0  0  0  0  0  0  0  0
   16.2962   14.8221    4.8175 H   0  0  0  0  0  0  0  0  0  0  0  0
   18.2152   13.8174    5.8740 H   0  0  0  0  0  0  0  0  0  0  0  0
   17.1755   13.2703    7.2567 H   0  0  0  0  0  0  0  0  0  0  0  0
   15.6436   12.5619    3.9568 H   0  0  0  0  0  0  0  0  0  0  0  0
   12.9674   17.6827   13.3929 H   0  0  0  0  0  0  0  0  0  0  0  0
   12.2109   15.3340   13.4855 H   0  0  0  0  0  0  0  0  0  0  0  0
   10.8423   15.6187   12.3575 H   0  0  0  0  0  0  0  0  0  0  0  0
   11.6919   14.0360   12.3575 H   0  0  0  0  0  0  0  0  0  0  0  0
   13.3502   13.2602    9.0496 H   0  0  0  0  0  0  0  0  0  0  0  0
   12.5402   12.9604   10.6227 H   0  0  0  0  0  0  0  0  0  0  0  0
   10.6044   14.3304    9.8786 H   0  0  0  0  0  0  0  0  0  0  0  0
   11.4424   14.5790    8.2805 H   0  0  0  0  0  0  0  0  0  0  0  0
   11.3290   11.5278    7.1283 H   0  0  0  0  0  0  0  0  0  0  0  0
  1  2  1  0
  2  3  1  0
  2  6  1  0
  3  4  2  0
  3 37  1  0
  4  5  1  0
  4  8  1  0
  5  6  2  0
  5  9  1  0
  6  7  1  0
  7 12  2  0
  9 10  1  0
 11 12  1  0
 11 15  2  0
 12 13  1  0
 13 14  2  0
 13 17  1  0
 14 15  1  0
 14 18  1  0
 15 16  1  0
 16 21  2  0
 18 19  1  0
 20 21  1  0
 20 24  1  0
 21 22  1  0
 22 23  2  0
 22 26  1  0
 23 24  1  0
 23 27  1  0
 24 25  2  0
 25 33  1  0
 27 28  1  0
 28 29  1  0
 29 30  1  0
 29 31  2  0
 32 33  2  0
 32 36  1  0
 33 34  1  0
 34 35  2  0
 34 39  1  0
 35 36  1  0
 35 38  1  0
 36 37  2  0
 39 40  1  0
 40 41  1  0
 41 42  1  0
 41 43  2  0
  1 44  1  0
  1 45  1  0
  1 46  1  0
  7 47  1  0
  8 48  1  0
  8 49  1  0
  8 50  1  0
  9 51  1  0
  9 52  1  0
 10 53  1  0
 10 54  1  0
 10 55  1  0
 16 56  1  0
 17 57  1  0
 17 58  1  0
 17 59  1  0
 18 60  1  0
 18 61  1  0
 19 62  1  0
 19 63  1  0
 19 64  1  0
 20 65  1  0
 25 66  1  0
 26 67  1  0
 26 68  1  0
 26 69  1  0
 27 70  1  0
 27 71  1  0
 28 72  1  0
 28 73  1  0
 30 74  1  0
 37 75  1  0
 38 76  1  0
 38 77  1  0
 38 78  1  0
 39 79  1  0
 39 80  1  0
 40 81  1  0
 40 82  1  0
 42 83  1  0
A    1
C1
A    2
N1
A    3
C11
A    4
C12
A    5
C13
A    6
C14
A    7
C15
A    8
C16
A    9
C17
A   10
C18
A   11
N2
A   12
C21
A   13
C22
A   14
C23
A   15
C24
A   16
C25
A   17
C26
A   18
C27
A   19
C28
A   20
N3
A   21
C31
A   22
C32
A   23
C33
A   24
C34
A   25
C35
A   26
C36
A   27
C37
A   28
C38
A   29
C39
A   30
O31
A   31
O32
A   32
N4
A   33
C41
A   34
C42
A   35
C43
A   36
C44
A   37
C45
A   38
C46
A   39
C47
A   40
C48
A   41
C49
A   42
O41
A   43
O42
M  END
