1C22_MF3_A_300
     RDKit          3D

 20 19  0  0  0  0  0  0  0  0999 V2000
   20.2200  -15.5380    9.4680 N   0  0  0  0  0  0  0  0  0  0  0  0
   20.5450  -14.1990    8.9190 C   0  0  0  0  0  0  0  0  0  0  0  0
   19.6090  -13.7650    7.8150 C   0  0  0  0  0  0  0  0  0  0  0  0
   18.4100  -13.8380    8.0890 O   0  0  0  0  0  0  0  0  0  0  0  0
   21.9790  -14.0060    8.3760 C   0  0  0  0  0  0  0  0  0  0  0  0
   23.0860  -14.4900    9.2870 C   0  0  0  0  0  0  0  0  0  0  0  0
   24.6480  -14.6380    8.3720 S   0  0  0  0  0  0  0  0  0  0  0  0
   25.7520  -13.7950    9.4700 C   0  0  0  0  0  0  0  0  0  0  0  0
   20.1150  -13.2900    6.7720 O   0  0  0  0  0  0  0  0  0  0  0  0
   25.3230  -12.5080    9.5600 F   0  0  0  0  0  0  0  0  0  0  0  0
   26.8770  -13.5200    8.7590 F   0  0  0  0  0  0  0  0  0  0  0  0
   25.7830  -14.5580   10.5960 F   0  0  0  0  0  0  0  0  0  0  0  0
   20.2296  -15.4986   10.4972 H   0  0  0  0  0  0  0  0  0  0  0  0
   19.2851  -15.8242    9.1440 H   0  0  0  0  0  0  0  0  0  0  0  0
   20.4320  -13.5780    9.8199 H   0  0  0  0  0  0  0  0  0  0  0  0
   22.0585  -14.5524    7.4246 H   0  0  0  0  0  0  0  0  0  0  0  0
   22.1220  -12.9201    8.2739 H   0  0  0  0  0  0  0  0  0  0  0  0
   23.2161  -13.7725   10.1106 H   0  0  0  0  0  0  0  0  0  0  0  0
   22.8122  -15.4788    9.6835 H   0  0  0  0  0  0  0  0  0  0  0  0
   20.8353  -12.6138    6.8349 H   0  0  0  0  0  0  0  0  0  0  0  0
  1  2  1  0
  2  3  1  0
  2  5  1  0
  3  4  2  0
  3  9  1  0
  5  6  1  0
  6  7  1  0
  7  8  1  0
  8 10  1  0
  8 11  1  0
  8 12  1  0
  1 13  1  0
  1 14  1  0
  2 15  1  0
  5 16  1  0
  5 17  1  0
  6 18  1  0
  6 19  1  0
  9 20  1  0
A    1
N
A    2
CA
A    3
C
A    4
O
A    5
CB
A    6
CG
A    7
SD
A    8
CE
A    9
OXT
A   10
FZ1
A   11
FZ2
A   12
FZ3
M  END
