1C3E_NHR_A_220
     RDKit          3D

 57 59  0  0  0  0  0  0  0  0999 V2000
   22.3420    1.3780   22.7850 N   0  0  0  0  0  0  0  0  0  0  0  0
   23.3440    1.7360   22.0220 C   0  0  0  0  0  0  0  0  0  0  0  0
   24.5300    1.0800   22.1240 N   0  0  0  0  0  0  0  0  0  0  0  0
   23.2170    2.8230   21.0530 N   0  0  0  0  0  0  0  0  0  0  0  0
   22.0500    3.5340   20.8930 C   0  0  0  0  0  0  0  0  0  0  0  0
   22.0170    4.4390   20.0610 O   0  0  0  0  0  0  0  0  0  0  0  0
   20.8520    3.1520   21.7670 C   0  0  0  0  0  0  0  0  0  0  0  0
   21.0480    2.0520   22.7090 C   0  0  0  0  0  0  0  0  0  0  0  0
   19.9770    1.6480   23.5320 C   0  0  0  0  0  0  0  0  0  0  0  0
   18.7440    2.3200   23.4570 C   0  0  0  0  0  0  0  0  0  0  0  0
   17.2450    4.1620   22.5490 C   0  0  0  0  0  0  0  0  0  0  0  0
   17.3890    5.7150   22.9720 C   0  0  0  0  0  0  0  0  0  0  0  0
   16.2410    6.6090   22.5320 C   0  0  0  0  0  0  0  0  0  0  0  0
   16.2870    6.9380   21.3410 O   0  0  0  0  0  0  0  0  0  0  0  0
   18.5610    3.4000   22.5570 C   0  0  0  0  0  0  0  0  0  0  0  0
   19.6130    3.8110   21.7110 C   0  0  0  0  0  0  0  0  0  0  0  0
   18.3750    5.0170   26.7230 C   0  0  0  0  0  0  0  0  0  0  0  0
   18.9380    6.2320   27.1740 C   0  0  0  0  0  0  0  0  0  0  0  0
   19.5100    6.3100   28.6050 C   0  0  0  0  0  0  0  0  0  0  0  0
   20.1750    7.2940   28.9810 O   0  0  0  0  0  0  0  0  0  0  0  0
   18.9910    7.3270   26.2420 C   0  0  0  0  0  0  0  0  0  0  0  0
   18.4800    7.1920   24.9160 C   0  0  0  0  0  0  0  0  0  0  0  0
   17.9220    5.9320   24.4800 C   0  0  0  0  0  0  0  0  0  0  0  0
   17.8670    4.8710   25.4280 C   0  0  0  0  0  0  0  0  0  0  0  0
   19.2860    5.2610   29.4670 N   0  0  0  0  0  0  0  0  0  0  0  0
   19.7220    5.0840   30.8870 C   0  0  0  0  0  0  0  0  0  0  0  0
   18.9890    5.8600   32.0650 C   0  0  0  0  0  0  0  0  0  0  0  0
   18.4910    5.2830   33.0680 O   0  0  0  0  0  0  0  0  0  0  0  0
   21.2750    5.2520   31.0000 C   0  0  0  0  0  0  0  0  0  0  0  0
   22.1950    4.0120   31.3310 C   0  0  0  0  0  0  0  0  0  0  0  0
   21.4570    2.6750   31.3500 C   0  0  0  0  0  0  0  0  0  0  0  0
   20.9130    2.1760   30.3660 O   0  0  0  0  0  0  0  0  0  0  0  0
   21.5060    2.0640   32.5790 O   0  0  0  0  0  0  0  0  0  0  0  0
   18.9310    7.2150   31.9110 O   0  0  0  0  0  0  0  0  0  0  0  0
   15.8190    7.4850   23.2710 O   0  0  0  0  0  0  0  0  0  0  0  0
   24.9208    0.8638   23.0521 H   0  0  0  0  0  0  0  0  0  0  0  0
   25.0380    0.7990   21.2732 H   0  0  0  0  0  0  0  0  0  0  0  0
   21.9826    5.3829   20.3575 H   0  0  0  0  0  0  0  0  0  0  0  0
   20.1056    0.8088   24.2314 H   0  0  0  0  0  0  0  0  0  0  0  0
   17.9122    2.0042   24.1039 H   0  0  0  0  0  0  0  0  0  0  0  0
   16.5565    3.6728   23.2538 H   0  0  0  0  0  0  0  0  0  0  0  0
   16.8706    4.1446   21.5148 H   0  0  0  0  0  0  0  0  0  0  0  0
   18.2157    6.0985   22.3560 H   0  0  0  0  0  0  0  0  0  0  0  0
   19.4631    4.6451   21.0097 H   0  0  0  0  0  0  0  0  0  0  0  0
   18.3350    4.1599   27.4113 H   0  0  0  0  0  0  0  0  0  0  0  0
   19.4327    8.2841   26.5566 H   0  0  0  0  0  0  0  0  0  0  0  0
   18.5109    8.0476   24.2254 H   0  0  0  0  0  0  0  0  0  0  0  0
   17.4137    3.9126   25.1346 H   0  0  0  0  0  0  0  0  0  0  0  0
   18.7366    4.4821   29.0766 H   0  0  0  0  0  0  0  0  0  0  0  0
   19.3782    4.0576   31.0827 H   0  0  0  0  0  0  0  0  0  0  0  0
   21.6196    5.6508   30.0345 H   0  0  0  0  0  0  0  0  0  0  0  0
   21.3901    5.8888   31.8895 H   0  0  0  0  0  0  0  0  0  0  0  0
   22.9883    3.9578   30.5709 H   0  0  0  0  0  0  0  0  0  0  0  0
   22.5887    4.1712   32.3457 H   0  0  0  0  0  0  0  0  0  0  0  0
   21.4623    2.6086   33.4046 H   0  0  0  0  0  0  0  0  0  0  0  0
   18.9058    7.8030   32.7070 H   0  0  0  0  0  0  0  0  0  0  0  0
   15.8731    7.3727   24.2531 H   0  0  0  0  0  0  0  0  0  0  0  0
  1  2  2  0
  1  8  1  0
  2  3  1  0
  2  4  1  0
  4  5  2  0
  5  6  1  0
  5  7  1  0
  7  8  2  0
  7 16  1  0
  8  9  1  0
  9 10  2  0
 10 15  1  0
 11 12  1  0
 11 15  1  0
 12 13  1  0
 12 23  1  0
 13 14  2  0
 13 35  1  0
 15 16  2  0
 17 18  2  0
 17 24  1  0
 18 19  1  0
 18 21  1  0
 19 20  2  0
 19 25  1  0
 21 22  2  0
 22 23  1  0
 23 24  2  0
 25 26  1  0
 26 27  1  0
 26 29  1  0
 27 28  2  0
 27 34  1  0
 29 30  1  0
 30 31  1  0
 31 32  2  0
 31 33  1  0
  3 36  1  0
  3 37  1  0
  6 38  1  0
  9 39  1  0
 10 40  1  0
 11 41  1  0
 11 42  1  0
 12 43  1  0
 16 44  1  0
 17 45  1  0
 21 46  1  0
 22 47  1  0
 24 48  1  0
 25 49  1  0
 26 50  1  0
 29 51  1  0
 29 52  1  0
 30 53  1  0
 30 54  1  0
 33 55  1  0
 34 56  1  0
 35 57  1  0
A    1
N1
A    2
C2
A    3
NA2
A    4
N3
A    5
C4
A    6
O4
A    7
C4A
A    8
C8A
A    9
C8
A   10
C7
A   11
C9
A   12
C10
A   13
CA1
A   14
OA1
A   15
C6
A   16
C5
A   17
C16
A   18
C11
A   19
C17
A   20
O17
A   21
C12
A   22
C13
A   23
C14
A   24
C15
A   25
N
A   26
CA
A   27
C
A   28
O
A   29
CB
A   30
CG
A   31
CD
A   32
OE1
A   33
OE2
A   34
OT
A   35
OA2
M  END
