1C81_FDQ_A_441
     RDKit          3D

 32 32  0  0  0  0  0  0  0  0999 V2000
  -49.8090   23.4270   34.0590 P   0  0  0  0  0  0  0  0  0  0  0  0
  -49.3230   23.8290   35.4280 O   0  0  0  0  0  0  0  0  0  0  0  0
  -49.7860   24.5970   33.1420 O   0  0  0  0  0  0  0  0  0  0  0  0
  -51.2130   23.0140   34.1630 O   0  0  0  0  0  0  0  0  0  0  0  0
  -49.1250   22.3620   33.3160 C   0  0  0  0  0  0  0  0  0  0  0  0
  -48.6970   22.2070   31.9050 C   0  0  0  0  0  0  0  0  0  0  0  0
  -47.2720   22.7210   31.5520 C   0  0  0  0  0  0  0  0  0  0  0  0
  -46.7300   23.7520   32.4490 O   0  0  0  0  0  0  0  0  0  0  0  0
  -46.4320   21.4300   31.4560 C   0  0  0  0  0  0  0  0  0  0  0  0
  -45.4170   21.4300   30.5230 O   0  0  0  0  0  0  0  0  0  0  0  0
  -47.4160   20.2860   31.2300 C   0  0  0  0  0  0  0  0  0  0  0  0
  -48.7170   20.8040   31.5130 O   0  0  0  0  0  0  0  0  0  0  0  0
  -47.0430   19.1540   32.1380 C   0  0  0  0  0  0  0  0  0  0  0  0
  -47.5120   17.9240   31.5250 O   0  0  0  0  0  0  0  0  0  0  0  0
  -46.6150   16.9250   30.6300 P   0  0  0  0  0  0  0  0  0  0  0  0
  -45.3570   17.6170   30.2310 O   0  0  0  0  0  0  0  0  0  0  0  0
  -46.3130   15.6680   31.4020 O   0  0  0  0  0  0  0  0  0  0  0  0
  -47.3880   16.5080   29.4110 O   0  0  0  0  0  0  0  0  0  0  0  0
  -49.7696   25.4323   33.6731 H   0  0  0  0  0  0  0  0  0  0  0  0
  -51.4653   22.9398   35.1174 H   0  0  0  0  0  0  0  0  0  0  0  0
  -48.1879   22.2294   33.8766 H   0  0  0  0  0  0  0  0  0  0  0  0
  -50.0058   21.7084   33.2322 H   0  0  0  0  0  0  0  0  0  0  0  0
  -49.4237   22.8322   31.3655 H   0  0  0  0  0  0  0  0  0  0  0  0
  -47.2682   23.2877   30.6092 H   0  0  0  0  0  0  0  0  0  0  0  0
  -46.8733   23.4793   33.3899 H   0  0  0  0  0  0  0  0  0  0  0  0
  -45.8729   21.3229   32.3972 H   0  0  0  0  0  0  0  0  0  0  0  0
  -45.1741   20.4966   30.2997 H   0  0  0  0  0  0  0  0  0  0  0  0
  -47.3978   19.9000   30.2001 H   0  0  0  0  0  0  0  0  0  0  0  0
  -45.9507   19.1178   32.2625 H   0  0  0  0  0  0  0  0  0  0  0  0
  -47.4994   19.2889   33.1297 H   0  0  0  0  0  0  0  0  0  0  0  0
  -46.3586   15.8578   32.3726 H   0  0  0  0  0  0  0  0  0  0  0  0
  -48.2243   16.0569   29.6889 H   0  0  0  0  0  0  0  0  0  0  0  0
  1  2  2  0
  1  3  1  0
  1  4  1  0
  1  5  1  0
  5  6  1  0
  6  7  1  0
  6 12  1  0
  7  8  1  0
  7  9  1  0
  9 10  1  0
  9 11  1  0
 11 12  1  0
 11 13  1  0
 13 14  1  0
 14 15  1  0
 15 16  2  0
 15 17  1  0
 15 18  1  0
  3 19  1  0
  4 20  1  0
  5 21  1  0
  5 22  1  0
  6 23  1  0
  7 24  1  0
  8 25  1  0
  9 26  1  0
 10 27  1  0
 11 28  1  0
 13 29  1  0
 13 30  1  0
 17 31  1  0
 18 32  1  0
A    1
P1
A    2
O1P
A    3
O2P
A    4
O3P
A    5
C21
A    6
C2
A    7
C3
A    8
O3
A    9
C4
A   10
O4
A   11
C5
A   12
O5
A   13
C6
A   14
O6
A   15
P2
A   16
O4P
A   17
O5P
A   18
O6P
M  END
