1C88_OTA_A_301
     RDKit          3D

 28 29  0  0  0  0  0  0  0  0999 V2000
   45.3360   10.3740   -0.2750 N   0  0  0  0  0  0  0  0  0  0  0  0
   45.8220   10.6290    1.1010 C   0  0  0  0  0  0  0  0  0  0  0  0
   45.3220   11.9950    1.5280 C   0  0  0  0  0  0  0  0  0  0  0  0
   44.5870   12.8170    0.7260 C   0  0  0  0  0  0  0  0  0  0  0  0
   43.9230   12.4140   -0.5600 C   0  0  0  0  0  0  0  0  0  0  0  0
   43.9320   10.8990   -0.6460 C   0  0  0  0  0  0  0  0  0  0  0  0
   45.8010   12.7620    3.0770 S   0  0  0  0  0  0  0  0  0  0  0  0
   44.9160   14.1380    2.5710 C   0  0  0  0  0  0  0  0  0  0  0  0
   44.3520   14.0960    1.3660 C   0  0  0  0  0  0  0  0  0  0  0  0
   43.6680   15.2970    0.8590 C   0  0  0  0  0  0  0  0  0  0  0  0
   43.3030   16.2120    1.5490 O   0  0  0  0  0  0  0  0  0  0  0  0
   43.4890   15.2180   -0.4400 O   0  0  0  0  0  0  0  0  0  0  0  0
   44.8140   15.2810    3.4350 N   0  0  0  0  0  0  0  0  0  0  0  0
   45.4360   15.4480    4.6130 C   0  0  0  0  0  0  0  0  0  0  0  0
   45.2080   16.8310    5.1820 C   0  0  0  0  0  0  0  0  0  0  0  0
   46.0190   17.4230    5.8110 O   0  0  0  0  0  0  0  0  0  0  0  0
   43.9100   17.2990    5.0610 O   0  0  0  0  0  0  0  0  0  0  0  0
   46.0470   14.5650    5.2640 O   0  0  0  0  0  0  0  0  0  0  0  0
   46.0083   10.8066   -0.9244 H   0  0  0  0  0  0  0  0  0  0  0  0
   45.4328    9.8589    1.7832 H   0  0  0  0  0  0  0  0  0  0  0  0
   46.9212   10.5977    1.1303 H   0  0  0  0  0  0  0  0  0  0  0  0
   42.8862   12.7813   -0.5744 H   0  0  0  0  0  0  0  0  0  0  0  0
   44.4618   12.8456   -1.4164 H   0  0  0  0  0  0  0  0  0  0  0  0
   43.6826   10.5879   -1.6712 H   0  0  0  0  0  0  0  0  0  0  0  0
   43.1885   10.4863    0.0518 H   0  0  0  0  0  0  0  0  0  0  0  0
   43.3350   16.1317    2.5352 H   0  0  0  0  0  0  0  0  0  0  0  0
   44.2034   16.0482    3.1196 H   0  0  0  0  0  0  0  0  0  0  0  0
   45.9902   17.4020    6.8004 H   0  0  0  0  0  0  0  0  0  0  0  0
  1  2  1  0
  1  6  1  0
  2  3  1  0
  3  4  2  0
  3  7  1  0
  4  5  1  0
  4  9  1  0
  5  6  1  0
  7  8  1  0
  8  9  2  0
  8 13  1  0
  9 10  1  0
 10 11  1  0
 10 12  2  0
 13 14  1  0
 14 15  1  0
 14 18  2  0
 15 16  1  0
 15 17  2  0
  1 19  1  0
  2 20  1  0
  2 21  1  0
  5 22  1  0
  5 23  1  0
  6 24  1  0
  6 25  1  0
 11 26  1  0
 13 27  1  0
 16 28  1  0
A    1
N1
A    2
C2
A    3
C3
A    4
C4
A    5
C5
A    6
C6
A    7
S13
A    8
C14
A    9
C15
A   10
C16
A   11
O17
A   12
O18
A   13
N19
A   14
C20
A   15
C21
A   16
O22
A   17
O23
A   18
O24
M  END
