1CG6_MTA_A_292
     RDKit          3D

 35 37  0  0  0  0  0  0  0  0999 V2000
   59.5150   13.6780   32.1280 C   0  0  0  0  0  0  0  0  0  0  0  0
   58.8930   14.4900   30.6240 S   0  0  0  0  0  0  0  0  0  0  0  0
   59.7360   16.0980   30.7420 C   0  0  0  0  0  0  0  0  0  0  0  0
   61.1600   15.9740   31.2480 C   0  0  0  0  0  0  0  0  0  0  0  0
   61.9480   15.4130   30.1630 O   0  0  0  0  0  0  0  0  0  0  0  0
   62.4720   17.7210   30.2760 C   0  0  0  0  0  0  0  0  0  0  0  0
   63.8380   18.2100   30.5270 O   0  0  0  0  0  0  0  0  0  0  0  0
   61.8030   17.2890   31.6490 C   0  0  0  0  0  0  0  0  0  0  0  0
   62.8030   17.1140   32.7270 O   0  0  0  0  0  0  0  0  0  0  0  0
   62.5040   16.4660   29.3290 C   0  0  0  0  0  0  0  0  0  0  0  0
   61.6410   16.5640   27.9870 N   0  0  0  0  0  0  0  0  0  0  0  0
   61.3710   15.5070   27.1300 C   0  0  0  0  0  0  0  0  0  0  0  0
   60.6290   15.8280   26.0860 N   0  0  0  0  0  0  0  0  0  0  0  0
   60.3870   17.1780   26.2550 C   0  0  0  0  0  0  0  0  0  0  0  0
   59.6600   18.1280   25.5030 C   0  0  0  0  0  0  0  0  0  0  0  0
   59.0180   17.8150   24.3760 N   0  0  0  0  0  0  0  0  0  0  0  0
   59.6390   19.4040   25.9860 N   0  0  0  0  0  0  0  0  0  0  0  0
   60.2830   19.7070   27.1150 C   0  0  0  0  0  0  0  0  0  0  0  0
   60.9930   18.8980   27.9040 N   0  0  0  0  0  0  0  0  0  0  0  0
   61.0020   17.6430   27.4100 C   0  0  0  0  0  0  0  0  0  0  0  0
   59.1189   14.1951   33.0144 H   0  0  0  0  0  0  0  0  0  0  0  0
   59.1881   12.6278   32.1396 H   0  0  0  0  0  0  0  0  0  0  0  0
   60.6141   13.7201   32.1396 H   0  0  0  0  0  0  0  0  0  0  0  0
   59.7558   16.5595   29.7437 H   0  0  0  0  0  0  0  0  0  0  0  0
   59.1787   16.7143   31.4629 H   0  0  0  0  0  0  0  0  0  0  0  0
   61.1304   15.3501   32.1534 H   0  0  0  0  0  0  0  0  0  0  0  0
   61.8956   18.5290   29.8017 H   0  0  0  0  0  0  0  0  0  0  0  0
   63.9943   18.2660   31.5030 H   0  0  0  0  0  0  0  0  0  0  0  0
   61.1039   18.0290   32.0657 H   0  0  0  0  0  0  0  0  0  0  0  0
   62.3565   17.1921   33.6071 H   0  0  0  0  0  0  0  0  0  0  0  0
   63.5307   16.3189   28.9626 H   0  0  0  0  0  0  0  0  0  0  0  0
   61.7438   14.4871   27.3055 H   0  0  0  0  0  0  0  0  0  0  0  0
   58.0930   17.3640   24.4185 H   0  0  0  0  0  0  0  0  0  0  0  0
   59.4474   18.0244   23.4635 H   0  0  0  0  0  0  0  0  0  0  0  0
   60.2207   20.7572   27.4361 H   0  0  0  0  0  0  0  0  0  0  0  0
  1  2  1  0
  2  3  1  0
  3  4  1  0
  4  5  1  0
  4  8  1  0
  5 10  1  0
  6  7  1  0
  6  8  1  0
  6 10  1  0
  8  9  1  0
 10 11  1  0
 11 12  1  0
 11 20  1  0
 12 13  2  0
 13 14  1  0
 14 15  1  0
 14 20  2  0
 15 16  1  0
 15 17  2  0
 17 18  1  0
 18 19  2  0
 19 20  1  0
  1 21  1  0
  1 22  1  0
  1 23  1  0
  3 24  1  0
  3 25  1  0
  4 26  1  0
  6 27  1  0
  7 28  1  0
  8 29  1  0
  9 30  1  0
 10 31  1  0
 12 32  1  0
 16 33  1  0
 16 34  1  0
 18 35  1  0
A    1
CS
A    2
S5'
A    3
C5'
A    4
C4'
A    5
O4'
A    6
C2'
A    7
O2'
A    8
C3'
A    9
O3'
A   10
C1'
A   11
N9
A   12
C8
A   13
N7
A   14
C5
A   15
C6
A   16
N6
A   17
N1
A   18
C2
A   19
N3
A   20
C4
M  END
