1CGL_0ED_A_1
     RDKit          3D

 92 94  0  0  0  0  0  0  0  0999 V2000
   29.6830   45.3880    1.2040 C   0  0  0  0  0  0  0  0  0  0  0  0
   29.6440   45.4640    2.4450 O   0  0  0  0  0  0  0  0  0  0  0  0
   30.0780   46.3940    0.3160 O   0  0  0  0  0  0  0  0  0  0  0  0
   30.6030   47.6530    0.7460 C   0  0  0  0  0  0  0  0  0  0  0  0
   31.9180   47.4290    1.4500 C   0  0  0  0  0  0  0  0  0  0  0  0
   32.9890   46.8630    0.7660 C   0  0  0  0  0  0  0  0  0  0  0  0
   34.1630   46.5850    1.4340 C   0  0  0  0  0  0  0  0  0  0  0  0
   34.2280   46.9030    2.7900 C   0  0  0  0  0  0  0  0  0  0  0  0
   33.1780   47.5150    3.4670 C   0  0  0  0  0  0  0  0  0  0  0  0
   32.0330   47.7530    2.7930 C   0  0  0  0  0  0  0  0  0  0  0  0
   29.3370   44.2710    0.6500 N   0  0  0  0  0  0  0  0  0  0  0  0
   29.3740   44.1540   -0.8010 C   0  0  0  0  0  0  0  0  0  0  0  0
   29.2450   42.7180   -1.1400 C   0  0  0  0  0  0  0  0  0  0  0  0
   30.5770   41.9770   -1.0070 C   0  0  0  0  0  0  0  0  0  0  0  0
   31.5200   42.0330   -2.2490 C   0  0  0  0  0  0  0  0  0  0  0  0
   31.8150   43.0020   -2.9320 O   0  0  0  0  0  0  0  0  0  0  0  0
   31.9890   40.8170   -2.6590 O   0  0  0  0  0  0  0  0  0  0  0  0
   30.1420   40.5960   -0.7300 N   0  0  0  0  0  0  0  0  0  0  0  0
   29.4570   39.7430   -1.7960 C   0  0  0  0  0  0  0  0  0  0  0  0
   28.0090   39.6850   -1.3350 C   0  0  0  0  0  0  0  0  0  0  0  0
   27.7410   39.7360   -0.1160 O   0  0  0  0  0  0  0  0  0  0  0  0
   30.1810   38.3640   -1.8290 C   0  0  0  0  0  0  0  0  0  0  0  0
   29.7670   37.2800   -2.8150 C   0  0  0  0  0  0  0  0  0  0  0  0
   30.0320   37.6930   -4.2710 C   0  0  0  0  0  0  0  0  0  0  0  0
   30.3720   35.9000   -2.4850 C   0  0  0  0  0  0  0  0  0  0  0  0
   27.0850   39.5910   -2.3230 N   0  0  0  0  0  0  0  0  0  0  0  0
   25.6380   39.3850   -2.0580 C   0  0  0  0  0  0  0  0  0  0  0  0
   25.2620   37.9340   -2.4320 C   0  0  0  0  0  0  0  0  0  0  0  0
   25.7440   37.3740   -3.3770 O   0  0  0  0  0  0  0  0  0  0  0  0
   24.7710   40.3870   -2.8840 C   0  0  0  0  0  0  0  0  0  0  0  0
   24.8660   41.8600   -2.4630 C   0  0  0  0  0  0  0  0  0  0  0  0
   24.1990   42.2970   -1.3430 C   0  0  0  0  0  0  0  0  0  0  0  0
   25.8150   42.6850   -3.0750 C   0  0  0  0  0  0  0  0  0  0  0  0
   24.5580   43.4970   -0.7690 C   0  0  0  0  0  0  0  0  0  0  0  0
   26.1760   43.8730   -2.4760 C   0  0  0  0  0  0  0  0  0  0  0  0
   25.5690   44.2730   -1.3150 C   0  0  0  0  0  0  0  0  0  0  0  0
   21.0320   39.1800   -5.5530 O   0  0  0  0  0  0  0  0  0  0  0  0
   20.3680   39.3490   -4.3070 C   0  0  0  0  0  0  0  0  0  0  0  0
   21.1240   38.7690   -3.0680 C   0  0  0  0  0  0  0  0  0  0  0  0
   21.6510   37.4420   -3.3850 N   0  0  0  0  0  0  0  0  0  0  0  0
   22.2890   37.3510   -4.7210 C   0  0  0  0  0  0  0  0  0  0  0  0
   21.2520   37.8310   -5.7950 C   0  0  0  0  0  0  0  0  0  0  0  0
   22.1130   36.5570   -2.2810 C   0  0  0  0  0  0  0  0  0  0  0  0
   23.6060   36.1880   -2.1840 C   0  0  0  0  0  0  0  0  0  0  0  0
   24.3440   37.3620   -1.7460 N   0  0  0  0  0  0  0  0  0  0  0  0
   30.7595   48.3036   -0.1270 H   0  0  0  0  0  0  0  0  0  0  0  0
   29.8926   48.1331    1.4351 H   0  0  0  0  0  0  0  0  0  0  0  0
   32.8995   46.6374   -0.3069 H   0  0  0  0  0  0  0  0  0  0  0  0
   35.0186   46.1282    0.9150 H   0  0  0  0  0  0  0  0  0  0  0  0
   35.1455   46.6605    3.3463 H   0  0  0  0  0  0  0  0  0  0  0  0
   33.2784   47.7979    4.5252 H   0  0  0  0  0  0  0  0  0  0  0  0
   31.1801   48.2100    3.3162 H   0  0  0  0  0  0  0  0  0  0  0  0
   29.0386   43.4732    1.2291 H   0  0  0  0  0  0  0  0  0  0  0  0
   28.5412   44.7199   -1.2439 H   0  0  0  0  0  0  0  0  0  0  0  0
   30.3166   44.5602   -1.1965 H   0  0  0  0  0  0  0  0  0  0  0  0
   28.5126   42.2570   -0.4610 H   0  0  0  0  0  0  0  0  0  0  0  0
   28.9174   42.6437   -2.1875 H   0  0  0  0  0  0  0  0  0  0  0  0
   31.2034   42.4419   -0.2315 H   0  0  0  0  0  0  0  0  0  0  0  0
   32.2515   40.1364   -1.9897 H   0  0  0  0  0  0  0  0  0  0  0  0
   29.4862   40.6519    0.0622 H   0  0  0  0  0  0  0  0  0  0  0  0
   29.4980   40.1266   -2.8261 H   0  0  0  0  0  0  0  0  0  0  0  0
   31.2431   38.5739   -2.0239 H   0  0  0  0  0  0  0  0  0  0  0  0
   29.9048   37.9246   -0.8592 H   0  0  0  0  0  0  0  0  0  0  0  0
   28.6785   37.1680   -2.7029 H   0  0  0  0  0  0  0  0  0  0  0  0
   30.6260   38.6187   -4.2872 H   0  0  0  0  0  0  0  0  0  0  0  0
   30.5858   36.8930   -4.7841 H   0  0  0  0  0  0  0  0  0  0  0  0
   29.0740   37.8630   -4.7841 H   0  0  0  0  0  0  0  0  0  0  0  0
   30.4267   35.7752   -1.3935 H   0  0  0  0  0  0  0  0  0  0  0  0
   29.7378   35.1097   -2.9131 H   0  0  0  0  0  0  0  0  0  0  0  0
   31.3829   35.8310   -2.9131 H   0  0  0  0  0  0  0  0  0  0  0  0
   27.4005   39.6658   -3.3006 H   0  0  0  0  0  0  0  0  0  0  0  0
   25.4407   39.5635   -0.9907 H   0  0  0  0  0  0  0  0  0  0  0  0
   25.0843   40.3162   -3.9361 H   0  0  0  0  0  0  0  0  0  0  0  0
   23.7259   40.0932   -2.7066 H   0  0  0  0  0  0  0  0  0  0  0  0
   23.3870   41.6947   -0.9096 H   0  0  0  0  0  0  0  0  0  0  0  0
   26.2715   42.3872   -4.0304 H   0  0  0  0  0  0  0  0  0  0  0  0
   24.0355   43.8441    0.1346 H   0  0  0  0  0  0  0  0  0  0  0  0
   26.9545   44.5022   -2.9321 H   0  0  0  0  0  0  0  0  0  0  0  0
   25.8816   45.2038   -0.8191 H   0  0  0  0  0  0  0  0  0  0  0  0
   20.2212   40.4267   -4.1427 H   0  0  0  0  0  0  0  0  0  0  0  0
   19.4267   38.7848   -4.3828 H   0  0  0  0  0  0  0  0  0  0  0  0
   21.9556   39.4380   -2.8017 H   0  0  0  0  0  0  0  0  0  0  0  0
   20.4261   38.6896   -2.2215 H   0  0  0  0  0  0  0  0  0  0  0  0
   23.1811   37.9938   -4.7518 H   0  0  0  0  0  0  0  0  0  0  0  0
   22.5944   36.3142   -4.9256 H   0  0  0  0  0  0  0  0  0  0  0  0
   20.3122   37.2684   -5.6943 H   0  0  0  0  0  0  0  0  0  0  0  0
   21.6292   37.6655   -6.8150 H   0  0  0  0  0  0  0  0  0  0  0  0
   21.8434   37.0539   -1.3374 H   0  0  0  0  0  0  0  0  0  0  0  0
   21.6209   35.5966   -2.4942 H   0  0  0  0  0  0  0  0  0  0  0  0
   23.7403   35.3729   -1.4576 H   0  0  0  0  0  0  0  0  0  0  0  0
   23.9762   35.8543   -3.1646 H   0  0  0  0  0  0  0  0  0  0  0  0
   24.1135   37.7594   -0.8241 H   0  0  0  0  0  0  0  0  0  0  0  0
  1  2  2  0
  1  3  1  0
  3  4  1  0
  4  5  1  0
  5  6  2  0
  5 10  1  0
  6  7  1  0
  7  8  2  0
  8  9  1  0
  9 10  2  0
 11 12  1  0
 12 13  1  0
 13 14  1  0
 14 15  1  0
 15 16  2  0
 15 17  1  0
 18 19  1  0
 19 20  1  0
 19 22  1  0
 20 21  2  0
 22 23  1  0
 23 24  1  0
 23 25  1  0
 26 27  1  0
 27 28  1  0
 27 30  1  0
 28 29  2  0
 30 31  1  0
 31 32  2  0
 31 33  1  0
 32 34  1  0
 33 35  2  0
 34 36  2  0
 35 36  1  0
 37 38  1  0
 37 42  1  0
 38 39  1  0
 39 40  1  0
 40 41  1  0
 40 43  1  0
 41 42  1  0
 43 44  1  0
 44 45  1  0
  1 11  1  0
 14 18  1  0
 20 26  1  0
 28 45  1  0
  4 46  1  0
  4 47  1  0
  6 48  1  0
  7 49  1  0
  8 50  1  0
  9 51  1  0
 10 52  1  0
 11 53  1  0
 12 54  1  0
 12 55  1  0
 13 56  1  0
 13 57  1  0
 14 58  1  0
 17 59  1  0
 18 60  1  0
 19 61  1  0
 22 62  1  0
 22 63  1  0
 23 64  1  0
 24 65  1  0
 24 66  1  0
 24 67  1  0
 25 68  1  0
 25 69  1  0
 25 70  1  0
 26 71  1  0
 27 72  1  0
 30 73  1  0
 30 74  1  0
 32 75  1  0
 33 76  1  0
 34 77  1  0
 35 78  1  0
 36 79  1  0
 38 80  1  0
 38 81  1  0
 39 82  1  0
 39 83  1  0
 41 84  1  0
 41 85  1  0
 42 86  1  0
 42 87  1  0
 43 88  1  0
 43 89  1  0
 44 90  1  0
 44 91  1  0
 45 92  1  0
A    1
C1
A    2
O1
A    3
O2
A    4
C2
A    5
C3
A    6
C4
A    7
C5
A    8
C6
A    9
C7
A   10
C8
A   11
N
A   12
CA
A   13
CB
A   14
CG
A   15
CD
A   16
OE1
A   17
OE2
A   18
N1
A   19
CA1
A   20
C
A   21
O
A   22
CB1
A   23
CG1
A   24
CD1
A   25
CD2
A   26
N2
A   27
CA2
A   28
C9
A   29
O3
A   30
CB2
A   31
CG2
A   32
CD11
A   33
CD21
A   34
CE1
A   35
CE2
A   36
CZ
A   37
O11
A   38
C21
A   39
C31
A   40
N4
A   41
C51
A   42
C61
A   43
C1'
A   44
C2'
A   45
N2'
M  END
