1CJF_HOM_C_1
     RDKit          3D

 28 29  0  0  0  0  0  0  0  0999 V2000
   86.1940   -5.8500   65.2170 C   0  0  0  0  0  0  0  0  0  0  0  0
   84.6540   -5.8330   65.3540 C   0  0  0  0  0  0  0  0  0  0  0  0
   84.4280   -7.0280   63.1890 C   0  0  0  0  0  0  0  0  0  0  0  0
   83.6060   -7.6100   62.1980 C   0  0  0  0  0  0  0  0  0  0  0  0
   84.1670   -8.2080   61.0520 C   0  0  0  0  0  0  0  0  0  0  0  0
   85.5770   -8.2320   60.8760 C   0  0  0  0  0  0  0  0  0  0  0  0
   86.4210   -7.6540   61.8600 C   0  0  0  0  0  0  0  0  0  0  0  0
   85.8540   -7.0480   63.0270 C   0  0  0  0  0  0  0  0  0  0  0  0
   86.7660   -6.4190   64.1170 C   0  0  0  0  0  0  0  0  0  0  0  0
   87.0540   -5.2170   66.3570 C   0  0  0  0  0  0  0  0  0  0  0  0
   87.1390   -3.6720   66.3110 C   0  0  0  0  0  0  0  0  0  0  0  0
   88.3120   -6.4540   63.9390 C   0  0  0  0  0  0  0  0  0  0  0  0
   84.1500   -5.3180   66.3350 O   0  0  0  0  0  0  0  0  0  0  0  0
   83.7680   -6.4190   64.3540 O   0  0  0  0  0  0  0  0  0  0  0  0
   83.2870   -8.7950   60.0600 O   0  0  0  0  0  0  0  0  0  0  0  0
   86.7010   -3.0250   65.3520 O   0  0  0  0  0  0  0  0  0  0  0  0
   82.5132   -7.5961   62.3228 H   0  0  0  0  0  0  0  0  0  0  0  0
   86.0131   -8.6972   59.9797 H   0  0  0  0  0  0  0  0  0  0  0  0
   87.5127   -7.6716   61.7259 H   0  0  0  0  0  0  0  0  0  0  0  0
   86.6143   -5.5088   67.3222 H   0  0  0  0  0  0  0  0  0  0  0  0
   88.0792   -5.5920   66.2220 H   0  0  0  0  0  0  0  0  0  0  0  0
   86.6052   -3.3062   67.2005 H   0  0  0  0  0  0  0  0  0  0  0  0
   88.2227   -3.4993   66.2345 H   0  0  0  0  0  0  0  0  0  0  0  0
   88.7947   -6.4649   64.9274 H   0  0  0  0  0  0  0  0  0  0  0  0
   88.5966   -7.3588   63.3819 H   0  0  0  0  0  0  0  0  0  0  0  0
   88.6372   -5.5630   63.3819 H   0  0  0  0  0  0  0  0  0  0  0  0
   82.4987   -9.3208   60.3468 H   0  0  0  0  0  0  0  0  0  0  0  0
   86.1785   -2.2532   65.6857 H   0  0  0  0  0  0  0  0  0  0  0  0
  1  2  1  0
  1  9  2  0
  1 10  1  0
  2 13  2  0
  2 14  1  0
  3  4  1  0
  3  8  2  0
  3 14  1  0
  4  5  2  0
  5  6  1  0
  5 15  1  0
  6  7  2  0
  7  8  1  0
  8  9  1  0
  9 12  1  0
 10 11  1  0
 11 16  1  0
  4 17  1  0
  6 18  1  0
  7 19  1  0
 10 20  1  0
 10 21  1  0
 11 22  1  0
 11 23  1  0
 12 24  1  0
 12 25  1  0
 12 26  1  0
 15 27  1  0
 16 28  1  0
A    1
CA
A    2
CA2
A    3
CA3
A    4
CA4
A    5
CA5
A    6
CA6
A    7
CA7
A    8
CA8
A    9
CA9
A   10
CB
A   11
CB7
A   12
CB8
A   13
OA2
A   14
OA3
A   15
OA4
A   16
OA1
M  END
