1CJP_MUG_A_240
     RDKit          3D

 42 44  0  0  0  0  0  0  0  0999 V2000
   20.1400   14.4740   59.1440 O   0  0  0  0  0  0  0  0  0  0  0  0
   20.1750   15.8150   59.5840 C   0  0  0  0  0  0  0  0  0  0  0  0
   19.1850   16.3940   59.8600 O   0  0  0  0  0  0  0  0  0  0  0  0
   21.3430   16.5220   59.7070 C   0  0  0  0  0  0  0  0  0  0  0  0
   22.5310   15.9200   59.3940 C   0  0  0  0  0  0  0  0  0  0  0  0
   23.7990   16.7300   59.5730 C   0  0  0  0  0  0  0  0  0  0  0  0
   22.5540   14.5870   58.9400 C   0  0  0  0  0  0  0  0  0  0  0  0
   23.7640   13.9920   58.6050 C   0  0  0  0  0  0  0  0  0  0  0  0
   23.7860   12.6840   58.1530 C   0  0  0  0  0  0  0  0  0  0  0  0
   22.6210   11.9370   58.0270 C   0  0  0  0  0  0  0  0  0  0  0  0
   21.4000   12.5200   58.3600 C   0  0  0  0  0  0  0  0  0  0  0  0
   21.3550   13.8460   58.8180 C   0  0  0  0  0  0  0  0  0  0  0  0
   21.7480    9.7170   57.3280 C   0  0  0  0  0  0  0  0  0  0  0  0
   22.8050   10.6030   57.5400 O   0  0  0  0  0  0  0  0  0  0  0  0
   22.3450    8.3890   56.8980 C   0  0  0  0  0  0  0  0  0  0  0  0
   23.2060    7.8950   57.9120 O   0  0  0  0  0  0  0  0  0  0  0  0
   23.1440    8.6050   55.6230 C   0  0  0  0  0  0  0  0  0  0  0  0
   23.6820    7.3720   55.1600 O   0  0  0  0  0  0  0  0  0  0  0  0
   22.2740    9.2160   54.5400 C   0  0  0  0  0  0  0  0  0  0  0  0
   23.1190    9.5970   53.4720 O   0  0  0  0  0  0  0  0  0  0  0  0
   21.5000   10.4470   55.0450 C   0  0  0  0  0  0  0  0  0  0  0  0
   20.8660   10.1720   56.3150 O   0  0  0  0  0  0  0  0  0  0  0  0
   20.3870   10.8390   54.0900 C   0  0  0  0  0  0  0  0  0  0  0  0
   19.3670    9.8470   54.0710 O   0  0  0  0  0  0  0  0  0  0  0  0
   21.3252   17.5654   60.0547 H   0  0  0  0  0  0  0  0  0  0  0  0
   24.0026   16.8601   60.6461 H   0  0  0  0  0  0  0  0  0  0  0  0
   24.6410   16.2021   59.1014 H   0  0  0  0  0  0  0  0  0  0  0  0
   23.6740   17.7159   59.1014 H   0  0  0  0  0  0  0  0  0  0  0  0
   24.7020   14.5589   58.6987 H   0  0  0  0  0  0  0  0  0  0  0  0
   24.7494   12.2245   57.8870 H   0  0  0  0  0  0  0  0  0  0  0  0
   20.4701   11.9403   58.2638 H   0  0  0  0  0  0  0  0  0  0  0  0
   21.1667    9.6279   58.2576 H   0  0  0  0  0  0  0  0  0  0  0  0
   21.5395    7.6603   56.7247 H   0  0  0  0  0  0  0  0  0  0  0  0
   22.8277    8.1120   58.8008 H   0  0  0  0  0  0  0  0  0  0  0  0
   23.9674    9.2975   55.8518 H   0  0  0  0  0  0  0  0  0  0  0  0
   23.9283    6.8076   55.9352 H   0  0  0  0  0  0  0  0  0  0  0  0
   21.5289    8.4725   54.2205 H   0  0  0  0  0  0  0  0  0  0  0  0
   23.9588    9.9757   53.8346 H   0  0  0  0  0  0  0  0  0  0  0  0
   22.2398   11.2563   55.1322 H   0  0  0  0  0  0  0  0  0  0  0  0
   19.9534   11.7964   54.4146 H   0  0  0  0  0  0  0  0  0  0  0  0
   20.8069   10.9335   53.0777 H   0  0  0  0  0  0  0  0  0  0  0  0
   19.1215    9.6083   54.9999 H   0  0  0  0  0  0  0  0  0  0  0  0
  1  2  1  0
  1 12  1  0
  2  3  2  0
  2  4  1  0
  4  5  2  0
  5  6  1  0
  5  7  1  0
  7  8  1  0
  7 12  2  0
  8  9  2  0
  9 10  1  0
 10 11  2  0
 10 14  1  0
 11 12  1  0
 13 14  1  0
 13 15  1  0
 13 22  1  0
 15 16  1  0
 15 17  1  0
 17 18  1  0
 17 19  1  0
 19 20  1  0
 19 21  1  0
 21 22  1  0
 21 23  1  0
 23 24  1  0
  4 25  1  0
  6 26  1  0
  6 27  1  0
  6 28  1  0
  8 29  1  0
  9 30  1  0
 11 31  1  0
 13 32  1  0
 15 33  1  0
 16 34  1  0
 17 35  1  0
 18 36  1  0
 19 37  1  0
 20 38  1  0
 21 39  1  0
 23 40  1  0
 23 41  1  0
 24 42  1  0
A    1
O1
A    2
C2
A    3
O2
A    4
C3
A    5
C4
A    6
CM4
A    7
C4A
A    8
C5
A    9
C6
A   10
C7
A   11
C8
A   12
C8A
A   13
C1'
A   14
O1'
A   15
C2'
A   16
O2'
A   17
C3'
A   18
O3'
A   19
C4'
A   20
O4'
A   21
C5'
A   22
O5'
A   23
C6'
A   24
O6'
M  END
