181L_BNZ_A_400
     RDKit          3D

 12 12  0  0  0  0  0  0  0  0999 V2000
   25.9780    5.3270    4.7790 C   0  0  0  0  0  0  0  0  0  0  0  0
   26.3950    5.0740    3.4990 C   0  0  0  0  0  0  0  0  0  0  0  0
   27.3400    5.8600    2.9020 C   0  0  0  0  0  0  0  0  0  0  0  0
   27.8370    6.9210    3.5690 C   0  0  0  0  0  0  0  0  0  0  0  0
   27.4200    7.1960    4.8560 C   0  0  0  0  0  0  0  0  0  0  0  0
   26.4980    6.3790    5.4690 C   0  0  0  0  0  0  0  0  0  0  0  0
   25.2229    4.6801    5.2494 H   0  0  0  0  0  0  0  0  0  0  0  0
   25.9637    4.2274    2.9447 H   0  0  0  0  0  0  0  0  0  0  0  0
   27.6922    5.6290    1.8858 H   0  0  0  0  0  0  0  0  0  0  0  0
   28.5797    7.5719    3.0845 H   0  0  0  0  0  0  0  0  0  0  0  0
   27.8246    8.0678    5.3911 H   0  0  0  0  0  0  0  0  0  0  0  0
   26.1845    6.5738    6.5052 H   0  0  0  0  0  0  0  0  0  0  0  0
  1  2  2  0
  1  6  1  0
  2  3  1  0
  3  4  2  0
  4  5  1  0
  5  6  2  0
  1  7  1  0
  2  8  1  0
  3  9  1  0
  4 10  1  0
  5 11  1  0
  6 12  1  0
A    1
C1
A    2
C2
A    3
C3
A    4
C4
A    5
C5
A    6
C6
M  END
