1CQ7_PY5_A_413
     RDKit          3D

 44 44  0  0  0  0  0  0  0  0999 V2000
   26.6910    3.7390  -15.1030 N   0  0  0  0  0  0  0  0  0  0  0  0
   26.4040    4.8670  -15.8340 C   0  0  0  0  0  0  0  0  0  0  0  0
   27.1130    4.7940  -17.1700 C   0  0  0  0  0  0  0  0  0  0  0  0
   25.5410    5.8720  -15.2470 C   0  0  0  0  0  0  0  0  0  0  0  0
   25.3570    6.9120  -16.0960 O   0  0  0  0  0  0  0  0  0  0  0  0
   24.9650    5.7550  -13.9740 C   0  0  0  0  0  0  0  0  0  0  0  0
   24.0540    6.8460  -13.3830 C   0  0  0  0  0  0  0  0  0  0  0  0
   25.3560    4.5240  -13.3250 C   0  0  0  0  0  0  0  0  0  0  0  0
   26.1760    3.5380  -13.8610 C   0  0  0  0  0  0  0  0  0  0  0  0
   24.8670    4.1260  -11.9270 C   0  0  0  0  0  0  0  0  0  0  0  0
   23.6660    4.6350  -11.5060 O   0  0  0  0  0  0  0  0  0  0  0  0
   22.7700    3.9770  -10.3960 P   0  0  0  0  0  0  0  0  0  0  0  0
   22.2830    2.7040  -10.8020 O   0  0  0  0  0  0  0  0  0  0  0  0
   21.8500    5.0840   -9.9480 O   0  0  0  0  0  0  0  0  0  0  0  0
   23.7280    3.6560   -9.2860 O   0  0  0  0  0  0  0  0  0  0  0  0
   24.5220    8.1510  -14.0480 N   0  0  0  0  0  0  0  0  0  0  0  0
   23.4470    9.2210  -13.9680 C   0  0  0  0  0  0  0  0  0  0  0  0
   23.9370   10.5050  -14.6380 C   0  0  0  0  0  0  0  0  0  0  0  0
   24.5770   10.2430  -15.7950 O   0  0  0  0  0  0  0  0  0  0  0  0
   23.0610    9.4870  -12.5180 C   0  0  0  0  0  0  0  0  0  0  0  0
   24.2000    9.9650  -11.6310 C   0  0  0  0  0  0  0  0  0  0  0  0
   23.8750    9.8710  -10.1520 C   0  0  0  0  0  0  0  0  0  0  0  0
   23.7600   11.6990  -14.1550 O   0  0  0  0  0  0  0  0  0  0  0  0
   28.1949    4.6826  -17.0053 H   0  0  0  0  0  0  0  0  0  0  0  0
   26.7376    3.9298  -17.7376 H   0  0  0  0  0  0  0  0  0  0  0  0
   26.9216    5.7166  -17.7376 H   0  0  0  0  0  0  0  0  0  0  0  0
   25.1962    7.8209  -15.7379 H   0  0  0  0  0  0  0  0  0  0  0  0
   23.0002    6.6440  -13.6251 H   0  0  0  0  0  0  0  0  0  0  0  0
   24.1194    6.8923  -12.2859 H   0  0  0  0  0  0  0  0  0  0  0  0
   26.4018    2.6213  -13.2964 H   0  0  0  0  0  0  0  0  0  0  0  0
   24.7848    3.0293  -11.9070 H   0  0  0  0  0  0  0  0  0  0  0  0
   25.6093    4.5560  -11.2385 H   0  0  0  0  0  0  0  0  0  0  0  0
   21.8259    5.1130   -8.9587 H   0  0  0  0  0  0  0  0  0  0  0  0
   23.2841    3.8047   -8.4137 H   0  0  0  0  0  0  0  0  0  0  0  0
   25.3688    8.4882  -13.5683 H   0  0  0  0  0  0  0  0  0  0  0  0
   22.5528    8.8634  -14.4995 H   0  0  0  0  0  0  0  0  0  0  0  0
   22.2747   10.2562  -12.5090 H   0  0  0  0  0  0  0  0  0  0  0  0
   22.7307    8.5228  -12.1042 H   0  0  0  0  0  0  0  0  0  0  0  0
   25.0871    9.3476  -11.8355 H   0  0  0  0  0  0  0  0  0  0  0  0
   24.3773   11.0254  -11.8636 H   0  0  0  0  0  0  0  0  0  0  0  0
   24.7676   10.1292   -9.5633 H   0  0  0  0  0  0  0  0  0  0  0  0
   23.0613   10.5706   -9.9102 H   0  0  0  0  0  0  0  0  0  0  0  0
   23.5604    8.8451   -9.9102 H   0  0  0  0  0  0  0  0  0  0  0  0
   23.7393   11.8385  -13.1751 H   0  0  0  0  0  0  0  0  0  0  0  0
  1  2  2  0
  1  9  1  0
  2  3  1  0
  2  4  1  0
  4  5  1  0
  4  6  2  0
  6  7  1  0
  6  8  1  0
  7 16  1  0
  8  9  2  0
  8 10  1  0
 10 11  1  0
 11 12  1  0
 12 13  2  0
 12 14  1  0
 12 15  1  0
 16 17  1  0
 17 18  1  0
 17 20  1  0
 18 19  2  0
 18 23  1  0
 20 21  1  0
 21 22  1  0
  3 24  1  0
  3 25  1  0
  3 26  1  0
  5 27  1  0
  7 28  1  0
  7 29  1  0
  9 30  1  0
 10 31  1  0
 10 32  1  0
 14 33  1  0
 15 34  1  0
 16 35  1  0
 17 36  1  0
 20 37  1  0
 20 38  1  0
 21 39  1  0
 21 40  1  0
 22 41  1  0
 22 42  1  0
 22 43  1  0
 23 44  1  0
A    1
N1
A    2
C2
A    3
C2A
A    4
C3
A    5
O3
A    6
C4
A    7
C4A
A    8
C5
A    9
C6
A   10
C5A
A   11
O4P
A   12
P
A   13
O1P
A   14
O2P
A   15
O3P
A   16
N
A   17
CA
A   18
C
A   19
O
A   20
CB
A   21
CG
A   22
CD
A   23
OXT
M  END
