1CR6_CPU_A_1100
     RDKit          3D

 43 44  0  0  0  0  0  0  0  0999 V2000
  -46.1960 -117.2040  -33.2330 C   0  0  0  0  0  0  0  0  0  0  0  0
  -47.2420 -117.6300  -34.0980 C   0  0  0  0  0  0  0  0  0  0  0  0
  -48.1780 -116.6820  -34.5580 C   0  0  0  0  0  0  0  0  0  0  0  0
  -48.0550 -115.3210  -34.1490 C   0  0  0  0  0  0  0  0  0  0  0  0
  -46.9990 -114.8860  -33.2730 C   0  0  0  0  0  0  0  0  0  0  0  0
  -46.0720 -115.8200  -32.8130 C   0  0  0  0  0  0  0  0  0  0  0  0
  -43.1870 -113.4940  -29.2740 N   0  0  0  0  0  0  0  0  0  0  0  0
  -44.9120 -115.4690  -31.8810 C   0  0  0  0  0  0  0  0  0  0  0  0
  -44.9130 -114.2970  -30.9330 C   0  0  0  0  0  0  0  0  0  0  0  0
  -43.5610 -114.4830  -30.2650 C   0  0  0  0  0  0  0  0  0  0  0  0
  -42.0260 -113.5950  -28.5970 C   0  0  0  0  0  0  0  0  0  0  0  0
  -41.7970 -112.7000  -27.7740 O   0  0  0  0  0  0  0  0  0  0  0  0
  -41.1650 -114.6340  -28.8030 N   0  0  0  0  0  0  0  0  0  0  0  0
  -39.8600 -114.8490  -28.0930 C   0  0  0  0  0  0  0  0  0  0  0  0
  -39.3470 -116.3060  -28.3840 C   0  0  0  0  0  0  0  0  0  0  0  0
  -37.9780 -116.6520  -27.6610 C   0  0  0  0  0  0  0  0  0  0  0  0
  -37.9900 -116.3180  -26.1040 C   0  0  0  0  0  0  0  0  0  0  0  0
  -38.6350 -114.9040  -25.7700 C   0  0  0  0  0  0  0  0  0  0  0  0
  -40.0010 -114.6530  -26.5380 C   0  0  0  0  0  0  0  0  0  0  0  0
  -45.4632 -117.9414  -32.8736 H   0  0  0  0  0  0  0  0  0  0  0  0
  -47.3191 -118.6839  -34.4034 H   0  0  0  0  0  0  0  0  0  0  0  0
  -48.9960 -116.9889  -35.2264 H   0  0  0  0  0  0  0  0  0  0  0  0
  -48.7865 -114.5844  -34.5127 H   0  0  0  0  0  0  0  0  0  0  0  0
  -46.9245 -113.8310  -32.9707 H   0  0  0  0  0  0  0  0  0  0  0  0
  -43.8178 -112.7022  -29.0842 H   0  0  0  0  0  0  0  0  0  0  0  0
  -44.7548 -116.3588  -31.2537 H   0  0  0  0  0  0  0  0  0  0  0  0
  -44.1518 -115.1471  -32.6080 H   0  0  0  0  0  0  0  0  0  0  0  0
  -44.9724 -113.3393  -31.4708 H   0  0  0  0  0  0  0  0  0  0  0  0
  -45.7672 -114.2672  -30.2405 H   0  0  0  0  0  0  0  0  0  0  0  0
  -42.7944 -114.4720  -31.0538 H   0  0  0  0  0  0  0  0  0  0  0  0
  -43.6370 -115.4322  -29.7142 H   0  0  0  0  0  0  0  0  0  0  0  0
  -41.4351 -115.3335  -29.5092 H   0  0  0  0  0  0  0  0  0  0  0  0
  -39.1437 -114.1026  -28.4667 H   0  0  0  0  0  0  0  0  0  0  0  0
  -40.1114 -117.0190  -28.0414 H   0  0  0  0  0  0  0  0  0  0  0  0
  -39.1670 -116.3750  -29.4670 H   0  0  0  0  0  0  0  0  0  0  0  0
  -37.7778 -117.7263  -27.7867 H   0  0  0  0  0  0  0  0  0  0  0  0
  -37.1974 -116.0298  -28.1232 H   0  0  0  0  0  0  0  0  0  0  0  0
  -38.5673 -117.0968  -25.5841 H   0  0  0  0  0  0  0  0  0  0  0  0
  -36.9427 -116.2860  -25.7692 H   0  0  0  0  0  0  0  0  0  0  0  0
  -38.8257 -114.8517  -24.6879 H   0  0  0  0  0  0  0  0  0  0  0  0
  -37.9245 -114.1308  -26.0976 H   0  0  0  0  0  0  0  0  0  0  0  0
  -40.3332 -113.6231  -26.3405 H   0  0  0  0  0  0  0  0  0  0  0  0
  -40.7316 -115.3895  -26.1721 H   0  0  0  0  0  0  0  0  0  0  0  0
  1  2  2  0
  1  6  1  0
  2  3  1  0
  3  4  2  0
  4  5  1  0
  5  6  2  0
  6  8  1  0
  7 10  1  0
  7 11  1  0
  8  9  1  0
  9 10  1  0
 11 12  2  0
 11 13  1  0
 13 14  1  0
 14 15  1  0
 14 19  1  0
 15 16  1  0
 16 17  1  0
 17 18  1  0
 18 19  1  0
  1 20  1  0
  2 21  1  0
  3 22  1  0
  4 23  1  0
  5 24  1  0
  7 25  1  0
  8 26  1  0
  8 27  1  0
  9 28  1  0
  9 29  1  0
 10 30  1  0
 10 31  1  0
 13 32  1  0
 14 33  1  0
 15 34  1  0
 15 35  1  0
 16 36  1  0
 16 37  1  0
 17 38  1  0
 17 39  1  0
 18 40  1  0
 18 41  1  0
 19 42  1  0
 19 43  1  0
A    1
C1
A    2
C2
A    3
C3
A    4
C4
A    5
C5
A    6
C6
A    7
N1
A    8
C7
A    9
C8
A   10
C9
A   11
C10
A   12
O1
A   13
N2
A   14
C11
A   15
C12
A   16
C13
A   17
C14
A   18
C15
A   19
C16
M  END
