1CS4_101_B_1082
     RDKit          3D

 36 38  0  0  0  0  0  0  0  0999 V2000
   55.0230  -10.3820   55.2600 P   0  0  0  0  0  0  0  0  0  0  0  0
   56.1060   -9.9600   56.1760 O   0  0  0  0  0  0  0  0  0  0  0  0
   53.9310   -9.4260   54.9360 O   0  0  0  0  0  0  0  0  0  0  0  0
   54.4020  -11.6150   55.8160 O   0  0  0  0  0  0  0  0  0  0  0  0
   59.6900  -12.0660   53.7340 O   0  0  0  0  0  0  0  0  0  0  0  0
   59.1170  -11.2540   52.7170 C   0  0  0  0  0  0  0  0  0  0  0  0
   57.6490  -11.5790   52.5600 C   0  0  0  0  0  0  0  0  0  0  0  0
   57.5110  -12.8680   51.9040 O   0  0  0  0  0  0  0  0  0  0  0  0
   56.8800  -11.6740   53.8850 C   0  0  0  0  0  0  0  0  0  0  0  0
   55.6680  -10.9000   53.8670 O   0  0  0  0  0  0  0  0  0  0  0  0
   56.5750  -13.1570   54.0180 C   0  0  0  0  0  0  0  0  0  0  0  0
   56.5270  -13.6310   52.5750 C   0  0  0  0  0  0  0  0  0  0  0  0
   56.8470  -15.0550   52.4180 N   0  0  0  0  0  0  0  0  0  0  0  0
   58.0410  -15.6930   52.6570 C   0  0  0  0  0  0  0  0  0  0  0  0
   57.9750  -16.9980   52.5360 N   0  0  0  0  0  0  0  0  0  0  0  0
   56.6560  -17.2320   52.1740 C   0  0  0  0  0  0  0  0  0  0  0  0
   55.9370  -18.4210   51.9360 C   0  0  0  0  0  0  0  0  0  0  0  0
   56.4710  -19.6380   52.0430 N   0  0  0  0  0  0  0  0  0  0  0  0
   54.6330  -18.3100   51.5810 N   0  0  0  0  0  0  0  0  0  0  0  0
   54.0990  -17.0880   51.4920 C   0  0  0  0  0  0  0  0  0  0  0  0
   54.6710  -15.8980   51.7090 N   0  0  0  0  0  0  0  0  0  0  0  0
   55.9610  -16.0440   52.0600 C   0  0  0  0  0  0  0  0  0  0  0  0
   53.5357   -9.0799   55.7751 H   0  0  0  0  0  0  0  0  0  0  0  0
   54.4212  -11.5770   56.8051 H   0  0  0  0  0  0  0  0  0  0  0  0
   59.4381  -11.7090   54.6224 H   0  0  0  0  0  0  0  0  0  0  0  0
   59.2280  -10.1946   52.9913 H   0  0  0  0  0  0  0  0  0  0  0  0
   59.6334  -11.4497   51.7657 H   0  0  0  0  0  0  0  0  0  0  0  0
   57.2247  -10.7485   51.9767 H   0  0  0  0  0  0  0  0  0  0  0  0
   57.4604  -11.2720   54.7285 H   0  0  0  0  0  0  0  0  0  0  0  0
   57.3684  -13.6745   54.5772 H   0  0  0  0  0  0  0  0  0  0  0  0
   55.6453  -13.3589   54.5701 H   0  0  0  0  0  0  0  0  0  0  0  0
   55.5090  -13.5031   52.1784 H   0  0  0  0  0  0  0  0  0  0  0  0
   58.9651  -15.1596   52.9246 H   0  0  0  0  0  0  0  0  0  0  0  0
   56.6485  -20.0425   52.9735 H   0  0  0  0  0  0  0  0  0  0  0  0
   56.7060  -20.1736   51.1952 H   0  0  0  0  0  0  0  0  0  0  0  0
   53.0393  -17.0560   51.1989 H   0  0  0  0  0  0  0  0  0  0  0  0
  1  2  2  0
  1  3  1  0
  1  4  1  0
  1 10  1  0
  5  6  1  0
  6  7  1  0
  7  8  1  0
  7  9  1  0
  8 12  1  0
  9 10  1  0
  9 11  1  0
 11 12  1  0
 12 13  1  0
 13 14  1  0
 13 22  1  0
 14 15  2  0
 15 16  1  0
 16 17  1  0
 16 22  2  0
 17 18  1  0
 17 19  2  0
 19 20  1  0
 20 21  2  0
 21 22  1  0
  3 23  1  0
  4 24  1  0
  5 25  1  0
  6 26  1  0
  6 27  1  0
  7 28  1  0
  9 29  1  0
 11 30  1  0
 11 31  1  0
 12 32  1  0
 14 33  1  0
 18 34  1  0
 18 35  1  0
 20 36  1  0
A    1
P
A    2
O1P
A    3
O2P
A    4
O3P
A    5
O5'
A    6
C5'
A    7
C4'
A    8
O4'
A    9
C3'
A   10
O3'
A   11
C2'
A   12
C1'
A   13
N9
A   14
C8
A   15
N7
A   16
C5
A   17
C6
A   18
N6
A   19
N1
A   20
C2
A   21
N3
A   22
C4
M  END
