1CUL_3PO_A_1003
     RDKit          3D

 18 17  0  0  0  0  0  0  0  0999 V2000
   56.7480   -6.1340   58.2750 P   0  0  0  0  0  0  0  0  0  0  0  0
   57.3860   -5.3080   59.3370 O   0  0  0  0  0  0  0  0  0  0  0  0
   55.7920   -7.2060   58.6600 O   0  0  0  0  0  0  0  0  0  0  0  0
   56.0540   -5.2180   57.3340 O   0  0  0  0  0  0  0  0  0  0  0  0
   57.8660   -7.8240   56.3890 P   0  0  0  0  0  0  0  0  0  0  0  0
   58.9350   -7.5020   55.4120 O   0  0  0  0  0  0  0  0  0  0  0  0
   57.8820   -9.1350   57.0780 O   0  0  0  0  0  0  0  0  0  0  0  0
   57.8320   -6.7440   57.4290 O   0  0  0  0  0  0  0  0  0  0  0  0
   55.7140   -8.5260   54.8450 P   0  0  0  0  0  0  0  0  0  0  0  0
   54.3310   -8.5480   55.3890 O   0  0  0  0  0  0  0  0  0  0  0  0
   55.9410   -8.1190   53.4350 O   0  0  0  0  0  0  0  0  0  0  0  0
   56.5450   -7.6570   55.7200 O   0  0  0  0  0  0  0  0  0  0  0  0
   56.3530   -9.9680   55.0640 O   0  0  0  0  0  0  0  0  0  0  0  0
   55.7407   -7.2635   59.6470 H   0  0  0  0  0  0  0  0  0  0  0  0
   55.5427   -4.5432   57.8471 H   0  0  0  0  0  0  0  0  0  0  0  0
   57.8803   -8.9929   58.0578 H   0  0  0  0  0  0  0  0  0  0  0  0
   56.4231   -7.2546   53.4146 H   0  0  0  0  0  0  0  0  0  0  0  0
   56.4334  -10.1495   56.0339 H   0  0  0  0  0  0  0  0  0  0  0  0
  1  2  2  0
  1  3  1  0
  1  4  1  0
  1  8  1  0
  5  6  2  0
  5  7  1  0
  5  8  1  0
  5 12  1  0
  9 10  2  0
  9 11  1  0
  9 12  1  0
  9 13  1  0
  3 14  1  0
  4 15  1  0
  7 16  1  0
 11 17  1  0
 13 18  1  0
A    1
PG
A    2
O1G
A    3
O2G
A    4
O3G
A    5
PB
A    6
O1B
A    7
O2B
A    8
O3B
A    9
PA
A   10
O1A
A   11
O2A
A   12
O3A
A   13
O5'
M  END
