1D1W_ATQ_A_805
     RDKit          3D

 12 12  0  0  0  0  0  0  0  0999 V2000
    7.0610   12.2630   32.0520 N   0  0  0  0  0  0  0  0  0  0  0  0
    6.1180   11.7200   31.3070 C   0  0  0  0  0  0  0  0  0  0  0  0
    6.7370   10.7310   30.0130 S   0  0  0  0  0  0  0  0  0  0  0  0
    8.4400   11.1980   30.3200 C   0  0  0  0  0  0  0  0  0  0  0  0
    8.4500   11.8340   31.7170 C   0  0  0  0  0  0  0  0  0  0  0  0
    4.7260   11.9360   31.5610 N   0  0  0  0  0  0  0  0  0  0  0  0
    9.0910   10.3116   30.2973 H   0  0  0  0  0  0  0  0  0  0  0  0
    8.8151   11.8931   29.5544 H   0  0  0  0  0  0  0  0  0  0  0  0
    9.1194   12.7069   31.7225 H   0  0  0  0  0  0  0  0  0  0  0  0
    8.8091   11.1064   32.4597 H   0  0  0  0  0  0  0  0  0  0  0  0
    4.3816   11.9894   32.5302 H   0  0  0  0  0  0  0  0  0  0  0  0
    4.0688   12.0380   30.7745 H   0  0  0  0  0  0  0  0  0  0  0  0
  1  2  2  0
  1  5  1  0
  2  3  1  0
  2  6  1  0
  3  4  1  0
  4  5  1  0
  4  7  1  0
  4  8  1  0
  5  9  1  0
  5 10  1  0
  6 11  1  0
  6 12  1  0
A    1
N1
A    2
C2
A    3
S3
A    4
C4
A    5
C5
A    6
N2
M  END
