1D1X_4BT_A_830
     RDKit          3D

 36 36  0  0  0  0  0  0  0  0999 V2000
    7.6840   10.2910   30.0500 C   0  0  0  0  0  0  0  0  0  0  0  0
    8.8440   11.1970   29.5900 C   0  0  0  0  0  0  0  0  0  0  0  0
    9.9180   13.7750   32.9450 C   0  0  0  0  0  0  0  0  0  0  0  0
    9.4040   14.3450   31.7350 C   0  0  0  0  0  0  0  0  0  0  0  0
    9.0540   13.5070   30.6550 C   0  0  0  0  0  0  0  0  0  0  0  0
    9.2190   12.0990   30.7720 C   0  0  0  0  0  0  0  0  0  0  0  0
    9.7180   11.5360   31.9760 C   0  0  0  0  0  0  0  0  0  0  0  0
   10.0710   12.3590   33.0450 C   0  0  0  0  0  0  0  0  0  0  0  0
   10.3010   14.6500   34.1660 C   0  0  0  0  0  0  0  0  0  0  0  0
   11.5410   15.1850   34.0970 C   0  0  0  0  0  0  0  0  0  0  0  0
   15.3280   13.5440   33.6840 N   0  0  0  0  0  0  0  0  0  0  0  0
   14.2720   14.3390   33.5030 C   0  0  0  0  0  0  0  0  0  0  0  0
   12.8820   14.0920   34.5460 S   0  0  0  0  0  0  0  0  0  0  0  0
   14.2300   15.2660   32.5420 N   0  0  0  0  0  0  0  0  0  0  0  0
    4.4230   12.0020   31.8160 N   0  0  0  0  0  0  0  0  0  0  0  0
    5.6740   11.7950   31.4830 C   0  0  0  0  0  0  0  0  0  0  0  0
    6.0420   10.9990   29.9840 S   0  0  0  0  0  0  0  0  0  0  0  0
    6.6500   12.1760   32.3080 N   0  0  0  0  0  0  0  0  0  0  0  0
    7.6871    9.3947   29.4123 H   0  0  0  0  0  0  0  0  0  0  0  0
    7.8734   10.0949   31.1157 H   0  0  0  0  0  0  0  0  0  0  0  0
    9.7079   10.5821   29.2976 H   0  0  0  0  0  0  0  0  0  0  0  0
    8.5436   11.8009   28.7211 H   0  0  0  0  0  0  0  0  0  0  0  0
    9.2824   15.4348   31.6481 H   0  0  0  0  0  0  0  0  0  0  0  0
    8.6551   13.9409   29.7262 H   0  0  0  0  0  0  0  0  0  0  0  0
    9.8267   10.4451   32.0661 H   0  0  0  0  0  0  0  0  0  0  0  0
   10.4691   11.9152   33.9694 H   0  0  0  0  0  0  0  0  0  0  0  0
    9.5743   15.4722   34.2428 H   0  0  0  0  0  0  0  0  0  0  0  0
   10.2904   13.9886   35.0449 H   0  0  0  0  0  0  0  0  0  0  0  0
   11.7084   15.5181   33.0621 H   0  0  0  0  0  0  0  0  0  0  0  0
   11.5578   15.9998   34.8357 H   0  0  0  0  0  0  0  0  0  0  0  0
   15.6390   13.3099   34.6376 H   0  0  0  0  0  0  0  0  0  0  0  0
   15.8323   13.1643   32.8701 H   0  0  0  0  0  0  0  0  0  0  0  0
   13.3953   15.8600   32.4356 H   0  0  0  0  0  0  0  0  0  0  0  0
    4.1551   12.0463   32.8096 H   0  0  0  0  0  0  0  0  0  0  0  0
    3.7080   12.1203   31.0841 H   0  0  0  0  0  0  0  0  0  0  0  0
    7.6342   12.0153   32.0503 H   0  0  0  0  0  0  0  0  0  0  0  0
  1  2  1  0
  1 17  1  0
  2  6  1  0
  3  4  2  0
  3  8  1  0
  3  9  1  0
  4  5  1  0
  5  6  2  0
  6  7  1  0
  7  8  2  0
  9 10  1  0
 10 13  1  0
 11 12  1  0
 12 13  1  0
 12 14  2  3
 15 16  1  0
 16 17  1  0
 16 18  2  3
  1 19  1  0
  1 20  1  0
  2 21  1  0
  2 22  1  0
  4 23  1  0
  5 24  1  0
  7 25  1  0
  8 26  1  0
  9 27  1  0
  9 28  1  0
 10 29  1  0
 10 30  1  0
 11 31  1  0
 11 32  1  0
 14 33  1  0
 15 34  1  0
 15 35  1  0
 18 36  1  0
A    1
CA
A    2
CB
A    3
C4
A    4
C5
A    5
C6
A    6
C1
A    7
C2
A    8
C3
A    9
CD
A   10
CC
A   11
N1'
A   12
C'
A   13
S'
A   14
N2'
A   15
N1
A   16
C
A   17
S
A   18
N2
M  END
