1D1Y_3BT_A_820
     RDKit          3D

 36 36  0  0  0  0  0  0  0  0999 V2000
    8.2780   10.4270   30.2160 C   0  0  0  0  0  0  0  0  0  0  0  0
    9.2960   11.5430   29.9930 C   0  0  0  0  0  0  0  0  0  0  0  0
    4.4490   11.8270   31.4460 N   0  0  0  0  0  0  0  0  0  0  0  0
    6.6520   12.1750   32.4260 N   0  0  0  0  0  0  0  0  0  0  0  0
    5.8570   11.6900   31.3620 C   0  0  0  0  0  0  0  0  0  0  0  0
    6.5600   10.9360   29.9450 S   0  0  0  0  0  0  0  0  0  0  0  0
    9.7410   13.3850   33.4410 C   0  0  0  0  0  0  0  0  0  0  0  0
    9.7830   12.2810   32.3560 C   0  0  0  0  0  0  0  0  0  0  0  0
    9.2820   12.5750   31.0830 C   0  0  0  0  0  0  0  0  0  0  0  0
    8.7500   13.8810   30.8210 C   0  0  0  0  0  0  0  0  0  0  0  0
    8.7010   14.9000   31.8040 C   0  0  0  0  0  0  0  0  0  0  0  0
    9.2000   14.6500   33.1200 C   0  0  0  0  0  0  0  0  0  0  0  0
   11.8300   13.2530   34.9700 C   0  0  0  0  0  0  0  0  0  0  0  0
   10.3050   13.0720   34.8360 C   0  0  0  0  0  0  0  0  0  0  0  0
   14.5360   15.5990   32.7730 N   0  0  0  0  0  0  0  0  0  0  0  0
   14.8950   13.6340   34.1990 N   0  0  0  0  0  0  0  0  0  0  0  0
   14.0310   14.6750   33.7290 C   0  0  0  0  0  0  0  0  0  0  0  0
   12.3840   14.8460   34.2820 S   0  0  0  0  0  0  0  0  0  0  0  0
    8.5088    9.6041   29.5235 H   0  0  0  0  0  0  0  0  0  0  0  0
    8.3595   10.1263   31.2710 H   0  0  0  0  0  0  0  0  0  0  0  0
   10.3004   11.0970   29.9452 H   0  0  0  0  0  0  0  0  0  0  0  0
    9.0277   12.0510   29.0550 H   0  0  0  0  0  0  0  0  0  0  0  0
    3.9899   11.8717   32.3670 H   0  0  0  0  0  0  0  0  0  0  0  0
    3.8847   11.8819   30.5861 H   0  0  0  0  0  0  0  0  0  0  0  0
    7.6773   12.0855   32.3851 H   0  0  0  0  0  0  0  0  0  0  0  0
   10.1976   11.2873   32.5811 H   0  0  0  0  0  0  0  0  0  0  0  0
    8.3639   14.1006   29.8147 H   0  0  0  0  0  0  0  0  0  0  0  0
    8.2786   15.8845   31.5543 H   0  0  0  0  0  0  0  0  0  0  0  0
    9.1628   15.4421   33.8823 H   0  0  0  0  0  0  0  0  0  0  0  0
   12.1015   13.2113   36.0352 H   0  0  0  0  0  0  0  0  0  0  0  0
   12.3213   12.4469   34.4054 H   0  0  0  0  0  0  0  0  0  0  0  0
    9.8158   13.7392   35.5609 H   0  0  0  0  0  0  0  0  0  0  0  0
   10.1011   12.0071   35.0216 H   0  0  0  0  0  0  0  0  0  0  0  0
   15.0064   16.4597   33.0873 H   0  0  0  0  0  0  0  0  0  0  0  0
   14.4313   15.4074   31.7664 H   0  0  0  0  0  0  0  0  0  0  0  0
   14.5516   12.9531   34.8913 H   0  0  0  0  0  0  0  0  0  0  0  0
  1  2  1  0
  1  6  1  0
  2  9  1  0
  3  5  1  0
  4  5  2  3
  5  6  1  0
  7  8  2  0
  7 12  1  0
  7 14  1  0
  8  9  1  0
  9 10  2  0
 10 11  1  0
 11 12  2  0
 13 14  1  0
 13 18  1  0
 15 17  1  0
 16 17  2  3
 17 18  1  0
  1 19  1  0
  1 20  1  0
  2 21  1  0
  2 22  1  0
  3 23  1  0
  3 24  1  0
  4 25  1  0
  8 26  1  0
 10 27  1  0
 11 28  1  0
 12 29  1  0
 13 30  1  0
 13 31  1  0
 14 32  1  0
 14 33  1  0
 15 34  1  0
 15 35  1  0
 16 36  1  0
A    1
CA
A    2
CB
A    3
N1
A    4
N2
A    5
C
A    6
S
A    7
C3
A    8
C2
A    9
C1
A   10
C6
A   11
C5
A   12
C4
A   13
CC
A   14
CD
A   15
N1'
A   16
N2'
A   17
C'
A   18
S'
M  END
