1D7R_5PA_A_500
     RDKit          3D

 39 40  0  0  0  0  0  0  0  0999 V2000
   17.0720   52.0600   16.4430 C   0  0  0  0  0  0  0  0  0  0  0  0
   16.8030   51.4230   17.7350 C   0  0  0  0  0  0  0  0  0  0  0  0
   20.0440   48.5540   16.6430 P   0  0  0  0  0  0  0  0  0  0  0  0
   19.7030   48.8970   18.0690 O   0  0  0  0  0  0  0  0  0  0  0  0
   19.5400   47.1280   16.2720 O   0  0  0  0  0  0  0  0  0  0  0  0
   21.4070   48.6940   16.1260 O   0  0  0  0  0  0  0  0  0  0  0  0
   19.2710   49.6650   15.7670 O   0  0  0  0  0  0  0  0  0  0  0  0
   19.4470   51.0150   16.1630 C   0  0  0  0  0  0  0  0  0  0  0  0
   18.2790   51.8710   15.6740 C   0  0  0  0  0  0  0  0  0  0  0  0
   17.5570   53.2930   13.9670 N   0  0  0  0  0  0  0  0  0  0  0  0
   18.5050   52.4790   14.4770 C   0  0  0  0  0  0  0  0  0  0  0  0
   16.3790   53.5420   14.6080 C   0  0  0  0  0  0  0  0  0  0  0  0
   15.4190   54.4930   13.9490 C   0  0  0  0  0  0  0  0  0  0  0  0
   16.1290   52.8930   15.8640 C   0  0  0  0  0  0  0  0  0  0  0  0
   14.9320   53.1470   16.4490 O   0  0  0  0  0  0  0  0  0  0  0  0
   16.9280   52.1250   18.8180 N   0  0  0  0  0  0  0  0  0  0  0  0
   16.4200   51.7700   20.1920 C   0  0  0  0  0  0  0  0  0  0  0  0
   15.1350   52.3280   20.7210 C   0  0  0  0  0  0  0  0  0  0  0  0
   14.0250   51.6640   20.5390 O   0  0  0  0  0  0  0  0  0  0  0  0
   15.1440   53.3890   21.3480 O   0  0  0  0  0  0  0  0  0  0  0  0
   16.8430   50.3280   20.5090 C   0  0  0  0  0  0  0  0  0  0  0  0
   17.4140   51.4050   21.3120 C   0  0  0  0  0  0  0  0  0  0  0  0
   15.7659   51.0577   17.7050 H   0  0  0  0  0  0  0  0  0  0  0  0
   17.5895   50.6589   17.8224 H   0  0  0  0  0  0  0  0  0  0  0  0
   19.3591   46.6162   17.0999 H   0  0  0  0  0  0  0  0  0  0  0  0
   22.0419   48.7592   16.8828 H   0  0  0  0  0  0  0  0  0  0  0  0
   19.4996   51.0667   17.2605 H   0  0  0  0  0  0  0  0  0  0  0  0
   20.3789   51.3976   15.7212 H   0  0  0  0  0  0  0  0  0  0  0  0
   19.4463   52.3093   13.9336 H   0  0  0  0  0  0  0  0  0  0  0  0
   14.8619   55.0449   14.7204 H   0  0  0  0  0  0  0  0  0  0  0  0
   15.9784   55.2030   13.3222 H   0  0  0  0  0  0  0  0  0  0  0  0
   14.7143   53.9269   13.3222 H   0  0  0  0  0  0  0  0  0  0  0  0
   14.8569   53.1629   17.4360 H   0  0  0  0  0  0  0  0  0  0  0  0
   17.9432   52.2536   18.9353 H   0  0  0  0  0  0  0  0  0  0  0  0
   15.1439   53.3790   22.3379 H   0  0  0  0  0  0  0  0  0  0  0  0
   16.1190   49.6352   20.9628 H   0  0  0  0  0  0  0  0  0  0  0  0
   17.2689   49.5059   19.9151 H   0  0  0  0  0  0  0  0  0  0  0  0
   18.4779   51.6622   21.2027 H   0  0  0  0  0  0  0  0  0  0  0  0
   17.4680   51.6144   22.3905 H   0  0  0  0  0  0  0  0  0  0  0  0
  1  2  1  0
  1  9  2  0
  1 14  1  0
  2 16  1  0
  3  4  2  0
  3  5  1  0
  3  6  1  0
  3  7  1  0
  7  8  1  0
  8  9  1  0
  9 11  1  0
 10 11  2  0
 10 12  1  0
 12 13  1  0
 12 14  2  0
 14 15  1  0
 16 17  1  0
 17 18  1  0
 17 21  1  0
 17 22  1  0
 18 19  2  0
 18 20  1  0
 21 22  1  0
  2 23  1  0
  2 24  1  0
  5 25  1  0
  6 26  1  0
  8 27  1  0
  8 28  1  0
 11 29  1  0
 13 30  1  0
 13 31  1  0
 13 32  1  0
 15 33  1  0
 16 34  1  0
 20 35  1  0
 21 36  1  0
 21 37  1  0
 22 38  1  0
 22 39  1  0
A    1
C4
A    2
C4A
A    3
P
A    4
O1P
A    5
O2P
A    6
O3P
A    7
O4P
A    8
C5A
A    9
C5
A   10
N1
A   11
C6
A   12
C2
A   13
C2A
A   14
C3
A   15
O3
A   16
N
A   17
C8
A   18
C7
A   19
O7
A   20
O8
A   21
C9
A   22
C10
M  END
