1D8F_SPI_B_901
     RDKit          3D

 54 56  0  0  0  0  0  0  0  0999 V2000
    3.9180   48.6810   53.5750 S   0  0  0  0  0  0  0  0  0  0  0  0
    3.3760   47.7850   52.5980 O   0  0  0  0  0  0  0  0  0  0  0  0
    5.3480   48.7510   53.5270 O   0  0  0  0  0  0  0  0  0  0  0  0
    3.2840   48.4860   55.2440 C   0  0  0  0  0  0  0  0  0  0  0  0
    3.9490   49.1640   56.3430 C   0  0  0  0  0  0  0  0  0  0  0  0
    3.5790   48.8280   57.7130 C   0  0  0  0  0  0  0  0  0  0  0  0
    2.5560   47.8260   57.9670 C   0  0  0  0  0  0  0  0  0  0  0  0
    1.8940   47.1680   56.8530 C   0  0  0  0  0  0  0  0  0  0  0  0
    2.2480   47.4860   55.4650 C   0  0  0  0  0  0  0  0  0  0  0  0
    2.1330   47.4780   59.1900 O   0  0  0  0  0  0  0  0  0  0  0  0
    2.8350   47.5240   60.3240 C   0  0  0  0  0  0  0  0  0  0  0  0
    3.6410   50.2240   52.9200 N   0  0  0  0  0  0  0  0  0  0  0  0
    2.3150   50.3110   52.2910 C   0  0  0  0  0  0  0  0  0  0  0  0
    2.2980   51.5650   51.4090 C   0  0  0  0  0  0  0  0  0  0  0  0
    2.8490   52.7490   52.0950 N   0  0  0  0  0  0  0  0  0  0  0  0
    4.2130   52.6080   52.6330 C   0  0  0  0  0  0  0  0  0  0  0  0
    4.3220   51.3870   53.5200 C   0  0  0  0  0  0  0  0  0  0  0  0
    2.2590   53.9330   51.9750 C   0  0  0  0  0  0  0  0  0  0  0  0
    2.6990   54.9230   52.6190 O   0  0  0  0  0  0  0  0  0  0  0  0
    1.2710   54.0340   51.2070 O   0  0  0  0  0  0  0  0  0  0  0  0
    0.8050   55.2320   50.6470 C   0  0  0  0  0  0  0  0  0  0  0  0
   -0.3870   55.0030   49.7710 C   0  0  0  0  0  0  0  0  0  0  0  0
   -0.9910   53.6900   49.8390 C   0  0  0  0  0  0  0  0  0  0  0  0
   -2.1350   53.4050   48.9910 C   0  0  0  0  0  0  0  0  0  0  0  0
   -2.5980   54.4800   48.1150 C   0  0  0  0  0  0  0  0  0  0  0  0
   -1.9540   55.7950   48.0810 C   0  0  0  0  0  0  0  0  0  0  0  0
   -0.8020   56.0960   48.9230 C   0  0  0  0  0  0  0  0  0  0  0  0
    1.1400   50.3020   53.2820 C   0  0  0  0  0  0  0  0  0  0  0  0
    0.2800   49.2890   53.2140 N   0  0  0  0  0  0  0  0  0  0  0  0
   -0.8590   49.4820   54.0310 O   0  0  0  0  0  0  0  0  0  0  0  0
    0.9540   51.1930   54.1290 O   0  0  0  0  0  0  0  0  0  0  0  0
    4.7218   49.9212   56.1445 H   0  0  0  0  0  0  0  0  0  0  0  0
    4.0743   49.3331   58.5553 H   0  0  0  0  0  0  0  0  0  0  0  0
    1.1141   46.4187   57.0538 H   0  0  0  0  0  0  0  0  0  0  0  0
    1.7488   46.9870   54.6213 H   0  0  0  0  0  0  0  0  0  0  0  0
    2.1485   47.4790   61.1823 H   0  0  0  0  0  0  0  0  0  0  0  0
    3.5263   46.6692   60.3622 H   0  0  0  0  0  0  0  0  0  0  0  0
    3.4089   48.4617   60.3622 H   0  0  0  0  0  0  0  0  0  0  0  0
    2.1624   49.4020   51.6906 H   0  0  0  0  0  0  0  0  0  0  0  0
    2.8972   51.3697   50.5074 H   0  0  0  0  0  0  0  0  0  0  0  0
    1.2489   51.7827   51.1599 H   0  0  0  0  0  0  0  0  0  0  0  0
    4.9212   52.5098   51.7970 H   0  0  0  0  0  0  0  0  0  0  0  0
    4.4471   53.4995   53.2333 H   0  0  0  0  0  0  0  0  0  0  0  0
    3.8603   51.6093   54.4934 H   0  0  0  0  0  0  0  0  0  0  0  0
    5.3872   51.1405   53.6407 H   0  0  0  0  0  0  0  0  0  0  0  0
    0.5251   55.9202   51.4582 H   0  0  0  0  0  0  0  0  0  0  0  0
    1.6090   55.6592   50.0297 H   0  0  0  0  0  0  0  0  0  0  0  0
   -0.5918   52.9232   50.5192 H   0  0  0  0  0  0  0  0  0  0  0  0
   -2.6313   52.4235   49.0071 H   0  0  0  0  0  0  0  0  0  0  0  0
   -3.4606   54.2946   47.4581 H   0  0  0  0  0  0  0  0  0  0  0  0
   -2.3469   56.5707   47.4072 H   0  0  0  0  0  0  0  0  0  0  0  0
   -0.2931   57.0712   48.9131 H   0  0  0  0  0  0  0  0  0  0  0  0
    0.4276   48.4539   52.6294 H   0  0  0  0  0  0  0  0  0  0  0  0
   -0.5933   49.4370   54.9836 H   0  0  0  0  0  0  0  0  0  0  0  0
  1  2  2  0
  1  3  2  0
  1  4  1  0
  1 12  1  0
  4  5  2  0
  4  9  1  0
  5  6  1  0
  6  7  2  0
  7  8  1  0
  7 10  1  0
  8  9  2  0
 10 11  1  0
 12 13  1  0
 12 17  1  0
 13 14  1  0
 13 28  1  0
 14 15  1  0
 15 16  1  0
 15 18  1  0
 16 17  1  0
 18 19  2  0
 18 20  1  0
 20 21  1  0
 21 22  1  0
 22 23  2  0
 22 27  1  0
 23 24  1  0
 24 25  2  0
 25 26  1  0
 26 27  2  0
 28 29  1  0
 28 31  2  0
 29 30  1  0
  5 32  1  0
  6 33  1  0
  8 34  1  0
  9 35  1  0
 11 36  1  0
 11 37  1  0
 11 38  1  0
 13 39  1  0
 14 40  1  0
 14 41  1  0
 16 42  1  0
 16 43  1  0
 17 44  1  0
 17 45  1  0
 21 46  1  0
 21 47  1  0
 23 48  1  0
 24 49  1  0
 25 50  1  0
 26 51  1  0
 27 52  1  0
 29 53  1  0
 30 54  1  0
A    1
S1
A    2
O1
A    3
O2
A    4
C1
A    5
C2
A    6
C3
A    7
C4
A    8
C5
A    9
C6
A   10
O3
A   11
C7
A   12
N1
A   13
C8
A   14
C9
A   15
N2
A   16
C10
A   17
C11
A   18
C12
A   19
O4
A   20
O5
A   21
C13
A   22
C14
A   23
C15
A   24
C16
A   25
C17
A   26
C18
A   27
C19
A   28
C20
A   29
NA
A   30
OA
A   31
OB
M  END
