1DAE_IKT_A_225
     RDKit          3D

 37 36  0  0  0  0  0  0  0  0999 V2000
   -2.4110   24.4300   15.0800 C   0  0  0  0  0  0  0  0  0  0  0  0
   -1.3920   24.6600   14.4240 O   0  0  0  0  0  0  0  0  0  0  0  0
   -2.4160   24.4130   16.3230 O   0  0  0  0  0  0  0  0  0  0  0  0
   -3.7030   24.1810   14.3090 C   0  0  0  0  0  0  0  0  0  0  0  0
   -3.6070   24.2230   12.7630 C   0  0  0  0  0  0  0  0  0  0  0  0
   -4.6430   25.2450   12.2980 C   0  0  0  0  0  0  0  0  0  0  0  0
   -4.7760   25.4520   10.8050 C   0  0  0  0  0  0  0  0  0  0  0  0
   -5.7770   26.5600   10.5410 C   0  0  0  0  0  0  0  0  0  0  0  0
   -5.8960   26.7940    9.0380 C   0  0  0  0  0  0  0  0  0  0  0  0
   -6.8410   27.9490    8.6570 C   0  0  0  0  0  0  0  0  0  0  0  0
   -6.8400   28.1400    7.1410 C   0  0  0  0  0  0  0  0  0  0  0  0
   -7.5530   27.4390    6.4180 O   0  0  0  0  0  0  0  0  0  0  0  0
   -6.0800   28.9730    6.6510 O   0  0  0  0  0  0  0  0  0  0  0  0
   -3.8270   22.8440   12.1260 C   0  0  0  0  0  0  0  0  0  0  0  0
   -5.0400   22.1520   12.7320 C   0  0  0  0  0  0  0  0  0  0  0  0
   -2.6530   22.0320   12.3500 N   0  0  0  0  0  0  0  0  0  0  0  0
   -2.1761   25.2287   16.8302 H   0  0  0  0  0  0  0  0  0  0  0  0
   -4.0749   23.1856   14.5934 H   0  0  0  0  0  0  0  0  0  0  0  0
   -4.3684   25.0136   14.5812 H   0  0  0  0  0  0  0  0  0  0  0  0
   -2.5959   24.5167   12.4445 H   0  0  0  0  0  0  0  0  0  0  0  0
   -5.6233   24.9211   12.6775 H   0  0  0  0  0  0  0  0  0  0  0  0
   -4.2916   26.2101   12.6918 H   0  0  0  0  0  0  0  0  0  0  0  0
   -3.7989   25.7313   10.3841 H   0  0  0  0  0  0  0  0  0  0  0  0
   -5.1231   24.5210   10.3329 H   0  0  0  0  0  0  0  0  0  0  0  0
   -6.7583   26.2710   10.9454 H   0  0  0  0  0  0  0  0  0  0  0  0
   -5.4358   27.4849   11.0291 H   0  0  0  0  0  0  0  0  0  0  0  0
   -4.8949   27.0215    8.6430 H   0  0  0  0  0  0  0  0  0  0  0  0
   -6.3235   25.8772    8.6059 H   0  0  0  0  0  0  0  0  0  0  0  0
   -7.8609   27.7129    8.9946 H   0  0  0  0  0  0  0  0  0  0  0  0
   -6.4958   28.8751    9.1399 H   0  0  0  0  0  0  0  0  0  0  0  0
   -5.5437   29.5608    7.2401 H   0  0  0  0  0  0  0  0  0  0  0  0
   -4.0040   22.9754   11.0483 H   0  0  0  0  0  0  0  0  0  0  0  0
   -4.9736   22.1899   13.8293 H   0  0  0  0  0  0  0  0  0  0  0  0
   -5.9565   22.6632   12.4023 H   0  0  0  0  0  0  0  0  0  0  0  0
   -5.0664   21.1029   12.4023 H   0  0  0  0  0  0  0  0  0  0  0  0
   -2.4979   21.9247   13.3626 H   0  0  0  0  0  0  0  0  0  0  0  0
   -2.7905   21.1046   11.9235 H   0  0  0  0  0  0  0  0  0  0  0  0
  1  2  2  0
  1  3  1  0
  1  4  1  0
  4  5  1  0
  5  6  1  0
  5 14  1  0
  6  7  1  0
  7  8  1  0
  8  9  1  0
  9 10  1  0
 10 11  1  0
 11 12  2  0
 11 13  1  0
 14 15  1  0
 14 16  1  0
  3 17  1  0
  4 18  1  0
  4 19  1  0
  5 20  1  0
  6 21  1  0
  6 22  1  0
  7 23  1  0
  7 24  1  0
  8 25  1  0
  8 26  1  0
  9 27  1  0
  9 28  1  0
 10 29  1  0
 10 30  1  0
 13 31  1  0
 14 32  1  0
 15 33  1  0
 15 34  1  0
 15 35  1  0
 16 36  1  0
 16 37  1  0
A    1
C1
A    2
O1
A    3
O2
A    4
C2
A    5
C3
A    6
C4
A    7
C5
A    8
C6
A    9
C7
A   10
C8
A   11
C9
A   12
O3
A   13
O4
A   14
C1'
A   15
C2'
A   16
N1'
M  END
