1DAK_DPU_A_801
     RDKit          3D

 41 40  0  0  0  0  0  0  0  0999 V2000
   -6.4350   28.1630    8.4870 C   0  0  0  0  0  0  0  0  0  0  0  0
   -6.5350   28.3100    6.9530 C   0  0  0  0  0  0  0  0  0  0  0  0
   -7.2800   27.5180    6.3160 O   0  0  0  0  0  0  0  0  0  0  0  0
   -5.7440   29.1290    6.4370 O   0  0  0  0  0  0  0  0  0  0  0  0
   -5.6780   26.8360    8.7570 C   0  0  0  0  0  0  0  0  0  0  0  0
   -5.4060   26.6260   10.2510 C   0  0  0  0  0  0  0  0  0  0  0  0
   -4.4900   25.4330   10.6050 C   0  0  0  0  0  0  0  0  0  0  0  0
   -4.3020   25.3440   12.1480 C   0  0  0  0  0  0  0  0  0  0  0  0
   -3.3690   24.2480   12.5770 C   0  0  0  0  0  0  0  0  0  0  0  0
   -3.3590   22.8410   11.9540 C   0  0  0  0  0  0  0  0  0  0  0  0
   -4.6360   22.1000   12.3940 C   0  0  0  0  0  0  0  0  0  0  0  0
   -3.3930   24.3390   14.2770 N   0  0  0  0  0  0  0  0  0  0  0  0
   -2.2240   22.0790   12.6070 N   0  0  0  0  0  0  0  0  0  0  0  0
   -2.1340   24.5580   14.8570 C   0  0  0  0  0  0  0  0  0  0  0  0
   -2.2040   24.6280   16.1400 O   0  0  0  0  0  0  0  0  0  0  0  0
    1.5800   24.9120   13.3280 O   0  0  0  0  0  0  0  0  0  0  0  0
    0.3090   24.6070   12.7150 P   0  0  0  0  0  0  0  0  0  0  0  0
   -0.7830   25.2810   14.0320 O   0  0  0  0  0  0  0  0  0  0  0  0
    0.0730   23.1530   12.8030 O   0  0  0  0  0  0  0  0  0  0  0  0
    0.1650   25.2210   11.3100 O   0  0  0  0  0  0  0  0  0  0  0  0
   -5.8791   29.0107    8.9140 H   0  0  0  0  0  0  0  0  0  0  0  0
   -7.4327   28.1518    8.9502 H   0  0  0  0  0  0  0  0  0  0  0  0
   -7.8696   26.8912    6.8056 H   0  0  0  0  0  0  0  0  0  0  0  0
   -6.2858   25.9980    8.3851 H   0  0  0  0  0  0  0  0  0  0  0  0
   -4.7094   26.8848    8.2380 H   0  0  0  0  0  0  0  0  0  0  0  0
   -4.9351   27.5406   10.6404 H   0  0  0  0  0  0  0  0  0  0  0  0
   -6.3823   26.3987   10.7040 H   0  0  0  0  0  0  0  0  0  0  0  0
   -4.9475   24.5018   10.2397 H   0  0  0  0  0  0  0  0  0  0  0  0
   -3.5086   25.5785   10.1300 H   0  0  0  0  0  0  0  0  0  0  0  0
   -3.8995   26.3033   12.5053 H   0  0  0  0  0  0  0  0  0  0  0  0
   -5.2875   25.1171   12.5808 H   0  0  0  0  0  0  0  0  0  0  0  0
   -2.3980   24.4506   12.1014 H   0  0  0  0  0  0  0  0  0  0  0  0
   -3.2748   22.9089   10.8593 H   0  0  0  0  0  0  0  0  0  0  0  0
   -4.6837   22.0723   13.4926 H   0  0  0  0  0  0  0  0  0  0  0  0
   -5.5188   22.6261   12.0018 H   0  0  0  0  0  0  0  0  0  0  0  0
   -4.6173   21.0725   12.0018 H   0  0  0  0  0  0  0  0  0  0  0  0
   -4.2558   24.2418   14.8311 H   0  0  0  0  0  0  0  0  0  0  0  0
   -2.3143   22.1396   13.6312 H   0  0  0  0  0  0  0  0  0  0  0  0
   -2.2618   21.0914   12.3169 H   0  0  0  0  0  0  0  0  0  0  0  0
    0.0291   22.8828   13.7544 H   0  0  0  0  0  0  0  0  0  0  0  0
   -0.0603   26.1816   11.3912 H   0  0  0  0  0  0  0  0  0  0  0  0
  1  2  1  0
  1  5  1  0
  2  3  1  0
  2  4  2  0
  5  6  1  0
  6  7  1  0
  7  8  1  0
  8  9  1  0
  9 10  1  0
  9 12  1  0
 10 11  1  0
 10 13  1  0
 12 14  1  0
 14 15  2  0
 14 18  1  0
 16 17  2  0
 17 18  1  0
 17 19  1  0
 17 20  1  0
  1 21  1  0
  1 22  1  0
  3 23  1  0
  5 24  1  0
  5 25  1  0
  6 26  1  0
  6 27  1  0
  7 28  1  0
  7 29  1  0
  8 30  1  0
  8 31  1  0
  9 32  1  0
 10 33  1  0
 11 34  1  0
 11 35  1  0
 11 36  1  0
 12 37  1  0
 13 38  1  0
 13 39  1  0
 19 40  1  0
 20 41  1  0
A    1
CA
A    2
C
A    3
OI1
A    4
OI2
A    5
CB
A    6
CG
A    7
CD
A    8
CE
A    9
CZ
A   10
CH
A   11
CS
A   12
N1
A   13
N2
A   14
CN1
A   15
O12
A   16
O2B
A   17
PB
A   18
O1B
A   19
O3B
A   20
O2A
M  END
