1DAO_FAB_A_348
     RDKit          3D

 97102  0  0  0  0  0  0  0  0999 V2000
   67.8870    1.2320   60.3370 P   0  0  0  0  0  0  0  0  0  0  0  0
   67.9730    2.7080   60.1310 O   0  0  0  0  0  0  0  0  0  0  0  0
   69.0970    0.4370   60.0120 O   0  0  0  0  0  0  0  0  0  0  0  0
   67.5330    0.9280   61.8650 O   0  0  0  0  0  0  0  0  0  0  0  0
   67.9920   -0.3240   62.2900 C   0  0  0  0  0  0  0  0  0  0  0  0
   68.2660   -0.1900   63.7700 C   0  0  0  0  0  0  0  0  0  0  0  0
   68.1580   -1.4250   64.5110 O   0  0  0  0  0  0  0  0  0  0  0  0
   69.6340    0.3470   64.1550 C   0  0  0  0  0  0  0  0  0  0  0  0
   69.4820    0.9540   65.4250 O   0  0  0  0  0  0  0  0  0  0  0  0
   70.4600   -0.9040   64.4050 C   0  0  0  0  0  0  0  0  0  0  0  0
   71.4150   -0.5360   65.3730 O   0  0  0  0  0  0  0  0  0  0  0  0
   69.3820   -1.6370   65.1860 C   0  0  0  0  0  0  0  0  0  0  0  0
   69.5740   -3.0600   65.4290 N   0  0  0  0  0  0  0  0  0  0  0  0
   69.3390   -4.1090   64.5880 C   0  0  0  0  0  0  0  0  0  0  0  0
   69.5650   -5.2730   65.1520 N   0  0  0  0  0  0  0  0  0  0  0  0
   69.9260   -4.9440   66.4500 C   0  0  0  0  0  0  0  0  0  0  0  0
   70.3120   -5.7080   67.5670 C   0  0  0  0  0  0  0  0  0  0  0  0
   70.3640   -7.0400   67.5190 N   0  0  0  0  0  0  0  0  0  0  0  0
   70.6510   -5.1060   68.7230 N   0  0  0  0  0  0  0  0  0  0  0  0
   70.5780   -3.7740   68.7320 C   0  0  0  0  0  0  0  0  0  0  0  0
   70.2570   -2.9240   67.7580 N   0  0  0  0  0  0  0  0  0  0  0  0
   69.9380   -3.5860   66.6380 C   0  0  0  0  0  0  0  0  0  0  0  0
   63.4810    5.5010   52.0490 N   0  0  0  0  0  0  0  0  0  0  0  0
   62.6840    6.6010   51.9330 C   0  0  0  0  0  0  0  0  0  0  0  0
   61.5780    6.6420   52.4770 O   0  0  0  0  0  0  0  0  0  0  0  0
   63.2140    7.6280   51.1480 N   0  0  0  0  0  0  0  0  0  0  0  0
   64.4650    7.6540   50.5410 C   0  0  0  0  0  0  0  0  0  0  0  0
   64.9570    8.5640   49.8790 O   0  0  0  0  0  0  0  0  0  0  0  0
   65.1980    6.4720   50.7100 C   0  0  0  0  0  0  0  0  0  0  0  0
   66.1350    6.2050   49.7020 N   0  0  0  0  0  0  0  0  0  0  0  0
   67.1820    5.4160   50.2390 C   0  0  0  0  0  0  0  0  0  0  0  0
   68.4640    5.4440   49.7070 C   0  0  0  0  0  0  0  0  0  0  0  0
   69.4080    4.6240   50.3260 C   0  0  0  0  0  0  0  0  0  0  0  0
   70.8790    4.5400   50.0340 C   0  0  0  0  0  0  0  0  0  0  0  0
   69.0710    3.7370   51.3640 C   0  0  0  0  0  0  0  0  0  0  0  0
   70.1870    2.9080   51.9220 C   0  0  0  0  0  0  0  0  0  0  0  0
   67.7710    3.7170   51.8400 C   0  0  0  0  0  0  0  0  0  0  0  0
   66.8540    4.5790   51.2870 C   0  0  0  0  0  0  0  0  0  0  0  0
   65.6030    4.5440   51.8470 N   0  0  0  0  0  0  0  0  0  0  0  0
   64.6960    5.4680   51.4550 C   0  0  0  0  0  0  0  0  0  0  0  0
   65.1620    3.3380   52.5820 C   0  0  0  0  0  0  0  0  0  0  0  0
   65.2570    3.6120   54.0800 C   0  0  0  0  0  0  0  0  0  0  0  0
   66.5930    4.0470   54.2860 O   0  0  0  0  0  0  0  0  0  0  0  0
   65.0270    2.4030   54.9830 C   0  0  0  0  0  0  0  0  0  0  0  0
   63.7380    1.9250   54.6120 O   0  0  0  0  0  0  0  0  0  0  0  0
   64.9610    2.8310   56.4470 C   0  0  0  0  0  0  0  0  0  0  0  0
   66.1760    3.4880   56.7620 O   0  0  0  0  0  0  0  0  0  0  0  0
   64.7960    1.6760   57.4320 C   0  0  0  0  0  0  0  0  0  0  0  0
   64.9010    2.1210   58.7830 O   0  0  0  0  0  0  0  0  0  0  0  0
   65.0260    1.1270   60.0510 P   0  0  0  0  0  0  0  0  0  0  0  0
   64.8910    1.8310   61.3680 O   0  0  0  0  0  0  0  0  0  0  0  0
   64.1120   -0.0200   59.7710 O   0  0  0  0  0  0  0  0  0  0  0  0
   66.5330    0.6170   59.6830 O   0  0  0  0  0  0  0  0  0  0  0  0
   65.9090    5.9470   48.3540 C   0  0  0  0  0  0  0  0  0  0  0  0
   66.1290    4.7840   47.9780 O   0  0  0  0  0  0  0  0  0  0  0  0
   65.5700    7.1660   47.3260 C   0  0  0  0  0  0  0  0  0  0  0  0
   64.1110    7.3660   46.8980 C   0  0  0  0  0  0  0  0  0  0  0  0
   66.2290    6.8920   45.9950 C   0  0  0  0  0  0  0  0  0  0  0  0
   69.5370    0.1479   60.8504 H   0  0  0  0  0  0  0  0  0  0  0  0
   67.2252   -1.0923   62.1118 H   0  0  0  0  0  0  0  0  0  0  0  0
   68.8948   -0.6287   61.7403 H   0  0  0  0  0  0  0  0  0  0  0  0
   67.4780    0.5319   64.0304 H   0  0  0  0  0  0  0  0  0  0  0  0
   70.0614    1.0354   63.4111 H   0  0  0  0  0  0  0  0  0  0  0  0
   69.6500    0.2833   66.1335 H   0  0  0  0  0  0  0  0  0  0  0  0
   70.9357   -1.4021   63.5473 H   0  0  0  0  0  0  0  0  0  0  0  0
   71.0402   -0.6804   66.2779 H   0  0  0  0  0  0  0  0  0  0  0  0
   69.4122   -1.2127   66.2004 H   0  0  0  0  0  0  0  0  0  0  0  0
   68.9970   -3.9918   63.5491 H   0  0  0  0  0  0  0  0  0  0  0  0
   70.3853   -7.5863   68.3919 H   0  0  0  0  0  0  0  0  0  0  0  0
   70.3828   -7.5222   66.6090 H   0  0  0  0  0  0  0  0  0  0  0  0
   70.8213   -3.3033   69.6960 H   0  0  0  0  0  0  0  0  0  0  0  0
   62.6148    8.4532   51.0035 H   0  0  0  0  0  0  0  0  0  0  0  0
   68.7213    6.0775   48.8453 H   0  0  0  0  0  0  0  0  0  0  0  0
   71.4394    4.5080   50.9800 H   0  0  0  0  0  0  0  0  0  0  0  0
   71.0862    3.6286   49.4541 H   0  0  0  0  0  0  0  0  0  0  0  0
   71.1887    5.4219   49.4541 H   0  0  0  0  0  0  0  0  0  0  0  0
   70.1500    2.9354   53.0210 H   0  0  0  0  0  0  0  0  0  0  0  0
   70.0796    1.8689   51.5774 H   0  0  0  0  0  0  0  0  0  0  0  0
   71.1508    3.3109   51.5774 H   0  0  0  0  0  0  0  0  0  0  0  0
   67.4780    3.0257   52.6439 H   0  0  0  0  0  0  0  0  0  0  0  0
   64.1213    3.1022   52.3147 H   0  0  0  0  0  0  0  0  0  0  0  0
   65.8029    2.4841   52.3172 H   0  0  0  0  0  0  0  0  0  0  0  0
   64.4690    4.3322   54.3454 H   0  0  0  0  0  0  0  0  0  0  0  0
   66.7747    4.1062   55.2574 H   0  0  0  0  0  0  0  0  0  0  0  0
   65.8313    1.6603   54.8753 H   0  0  0  0  0  0  0  0  0  0  0  0
   63.2113    1.7297   55.4272 H   0  0  0  0  0  0  0  0  0  0  0  0
   64.0734    3.4726   56.5494 H   0  0  0  0  0  0  0  0  0  0  0  0
   66.2765    3.5423   57.7454 H   0  0  0  0  0  0  0  0  0  0  0  0
   63.8073    1.2176   57.2827 H   0  0  0  0  0  0  0  0  0  0  0  0
   65.5983    0.9469   57.2459 H   0  0  0  0  0  0  0  0  0  0  0  0
   65.9056    8.0390   47.9050 H   0  0  0  0  0  0  0  0  0  0  0  0
   63.4754    7.4531   47.7916 H   0  0  0  0  0  0  0  0  0  0  0  0
   64.0275    8.2840   46.2977 H   0  0  0  0  0  0  0  0  0  0  0  0
   63.7836    6.5043   46.2977 H   0  0  0  0  0  0  0  0  0  0  0  0
   67.2329    6.4746   46.1619 H   0  0  0  0  0  0  0  0  0  0  0  0
   65.6222    6.1716   45.4268 H   0  0  0  0  0  0  0  0  0  0  0  0
   66.3118    7.8302   45.4268 H   0  0  0  0  0  0  0  0  0  0  0  0
  1  2  2  0
  1  3  1  0
  1  4  1  0
  1 53  1  0
  4  5  1  0
  5  6  1  0
  6  7  1  0
  6  8  1  0
  7 12  1  0
  8  9  1  0
  8 10  1  0
 10 11  1  0
 10 12  1  0
 12 13  1  0
 13 14  1  0
 13 22  1  0
 14 15  2  0
 15 16  1  0
 16 17  1  0
 16 22  2  0
 17 18  1  0
 17 19  2  0
 19 20  1  0
 20 21  2  0
 21 22  1  0
 23 24  1  0
 23 40  2  0
 24 25  2  0
 24 26  1  0
 26 27  1  0
 27 28  2  0
 27 29  1  0
 29 30  2  0
 29 40  1  0
 30 31  1  0
 30 54  1  0
 31 32  1  0
 31 38  2  0
 32 33  2  0
 33 34  1  0
 33 35  1  0
 35 36  1  0
 35 37  2  0
 37 38  1  0
 38 39  1  0
 39 40  1  0
 39 41  1  0
 41 42  1  0
 42 43  1  0
 42 44  1  0
 44 45  1  0
 44 46  1  0
 46 47  1  0
 46 48  1  0
 48 49  1  0
 49 50  1  0
 50 51  2  0
 50 52  1  0
 50 53  1  0
 54 55  2  0
 54 56  1  0
 56 57  1  0
 56 58  1  0
  3 59  1  0
  5 60  1  0
  5 61  1  0
  6 62  1  0
  8 63  1  0
  9 64  1  0
 10 65  1  0
 11 66  1  0
 12 67  1  0
 14 68  1  0
 18 69  1  0
 18 70  1  0
 20 71  1  0
 26 72  1  0
 32 73  1  0
 34 74  1  0
 34 75  1  0
 34 76  1  0
 36 77  1  0
 36 78  1  0
 36 79  1  0
 37 80  1  0
 41 81  1  0
 41 82  1  0
 42 83  1  0
 43 84  1  0
 44 85  1  0
 45 86  1  0
 46 87  1  0
 47 88  1  0
 48 89  1  0
 48 90  1  0
 56 91  1  0
 57 92  1  0
 57 93  1  0
 57 94  1  0
 58 95  1  0
 58 96  1  0
 58 97  1  0
M  CHG  2  30   1  52  -1
A    1
PA
A    2
O1A
A    3
O2A
A    4
O5B
A    5
C5B
A    6
C4B
A    7
O4B
A    8
C3B
A    9
O3B
A   10
C2B
A   11
O2B
A   12
C1B
A   13
N9A
A   14
C8A
A   15
N7A
A   16
C5A
A   17
C6A
A   18
N6A
A   19
N1A
A   20
C2A
A   21
N3A
A   22
C4A
A   23
N1
A   24
C2
A   25
O2
A   26
N3
A   27
C4
A   28
O4
A   29
C4X
A   30
N5
A   31
C5X
A   32
C6
A   33
C7
A   34
C7M
A   35
C8
A   36
C8M
A   37
C9
A   38
C9A
A   39
N10
A   40
C10
A   41
C1'
A   42
C2D
A   43
O2'
A   44
C3D
A   45
O3D
A   46
C4D
A   47
O4'
A   48
C5D
A   49
O5'
A   50
P
A   51
O1P
A   52
O2P
A   53
O3P
A   54
C2'
A   55
O3'
A   56
C3'
A   57
C4'
A   58
C5'
M  END
