1DD7_1PM_A_601
     RDKit          3D

 60 64  0  0  0  0  0  0  0  0999 V2000
   68.0280   -8.9750   52.3590 N   0  0  0  0  0  0  0  0  0  0  0  0
   66.6830   -8.8460   52.4850 C   0  0  0  0  0  0  0  0  0  0  0  0
   66.3670   -9.1610   53.7660 C   0  0  0  0  0  0  0  0  0  0  0  0
   67.5180   -9.4670   54.4400 N   0  0  0  0  0  0  0  0  0  0  0  0
   68.4970   -9.3400   53.5470 C   0  0  0  0  0  0  0  0  0  0  0  0
   68.7810   -8.7610   51.2500 C   0  0  0  0  0  0  0  0  0  0  0  0
   70.1210   -8.9500   51.2640 N   0  0  0  0  0  0  0  0  0  0  0  0
   70.9390   -8.7910   50.1860 C   0  0  0  0  0  0  0  0  0  0  0  0
   70.3220   -8.4010   48.9660 C   0  0  0  0  0  0  0  0  0  0  0  0
   68.9490   -8.2000   48.9350 C   0  0  0  0  0  0  0  0  0  0  0  0
   68.2220   -8.3840   50.0620 N   0  0  0  0  0  0  0  0  0  0  0  0
   72.2540   -9.0340   50.3500 N   0  0  0  0  0  0  0  0  0  0  0  0
   72.7860   -9.2670   51.6820 C   0  0  0  0  0  0  0  0  0  0  0  0
   73.3590  -10.6800   51.7160 C   0  0  0  0  0  0  0  0  0  0  0  0
   74.4290  -10.7400   50.7410 N   0  0  0  0  0  0  0  0  0  0  0  0
   74.0620  -10.4290   49.3510 C   0  0  0  0  0  0  0  0  0  0  0  0
   73.2050   -9.1090   49.2240 C   0  0  0  0  0  0  0  0  0  0  0  0
   75.7150  -11.0610   51.1000 C   0  0  0  0  0  0  0  0  0  0  0  0
   76.0160  -11.3140   52.3020 O   0  0  0  0  0  0  0  0  0  0  0  0
   76.7030  -11.1180   50.1710 O   0  0  0  0  0  0  0  0  0  0  0  0
   78.0860  -11.4410   50.3610 C   0  0  0  0  0  0  0  0  0  0  0  0
   74.0970   -7.8060   49.1480 C   0  0  0  0  0  0  0  0  0  0  0  0
   73.3140   -6.5240   48.9780 C   0  0  0  0  0  0  0  0  0  0  0  0
   72.9550   -6.1780   47.8090 O   0  0  0  0  0  0  0  0  0  0  0  0
   72.9830   -5.7380   50.0510 N   0  0  0  0  0  0  0  0  0  0  0  0
   72.2340   -4.5080   50.0020 C   0  0  0  0  0  0  0  0  0  0  0  0
   71.2730   -4.4990   51.1140 C   0  0  0  0  0  0  0  0  0  0  0  0
   71.5580   -3.7590   52.2790 C   0  0  0  0  0  0  0  0  0  0  0  0
   70.6640   -3.7520   53.3710 C   0  0  0  0  0  0  0  0  0  0  0  0
   69.4660   -4.4780   53.2590 C   0  0  0  0  0  0  0  0  0  0  0  0
   69.1890   -5.2090   52.1330 C   0  0  0  0  0  0  0  0  0  0  0  0
   70.0640   -5.2240   51.0410 C   0  0  0  0  0  0  0  0  0  0  0  0
   68.4710   -4.6350   54.1440 O   0  0  0  0  0  0  0  0  0  0  0  0
   67.4820   -5.4780   53.5770 C   0  0  0  0  0  0  0  0  0  0  0  0
   68.0020   -5.8040   52.2900 O   0  0  0  0  0  0  0  0  0  0  0  0
   65.9799   -8.5425   51.6954 H   0  0  0  0  0  0  0  0  0  0  0  0
   65.3531   -9.1691   54.1925 H   0  0  0  0  0  0  0  0  0  0  0  0
   69.5608   -9.5153   53.7654 H   0  0  0  0  0  0  0  0  0  0  0  0
   70.9257   -8.2602   48.0573 H   0  0  0  0  0  0  0  0  0  0  0  0
   68.4551   -7.8933   48.0012 H   0  0  0  0  0  0  0  0  0  0  0  0
   73.5788   -8.5366   51.9011 H   0  0  0  0  0  0  0  0  0  0  0  0
   71.9933   -9.1562   52.4366 H   0  0  0  0  0  0  0  0  0  0  0  0
   73.7522  -10.9017   52.7191 H   0  0  0  0  0  0  0  0  0  0  0  0
   72.5794  -11.4198   51.4815 H   0  0  0  0  0  0  0  0  0  0  0  0
   74.9838  -10.3073   48.7632 H   0  0  0  0  0  0  0  0  0  0  0  0
   73.4461  -11.2604   48.9776 H   0  0  0  0  0  0  0  0  0  0  0  0
   72.6524   -9.1556   48.2740 H   0  0  0  0  0  0  0  0  0  0  0  0
   78.3060  -11.4924   51.4376 H   0  0  0  0  0  0  0  0  0  0  0  0
   78.3026  -12.4139   49.8957 H   0  0  0  0  0  0  0  0  0  0  0  0
   78.7111  -10.6647   49.8957 H   0  0  0  0  0  0  0  0  0  0  0  0
   74.6796   -7.7328   50.0782 H   0  0  0  0  0  0  0  0  0  0  0  0
   74.7293   -7.9093   48.2539 H   0  0  0  0  0  0  0  0  0  0  0  0
   73.2989   -6.0561   50.9783 H   0  0  0  0  0  0  0  0  0  0  0  0
   72.9193   -3.6529   50.0976 H   0  0  0  0  0  0  0  0  0  0  0  0
   71.6999   -4.4314   49.0434 H   0  0  0  0  0  0  0  0  0  0  0  0
   72.4905   -3.1786   52.3380 H   0  0  0  0  0  0  0  0  0  0  0  0
   70.8993   -3.1917   54.2879 H   0  0  0  0  0  0  0  0  0  0  0  0
   69.8123   -5.7949   50.1351 H   0  0  0  0  0  0  0  0  0  0  0  0
   67.3461   -6.3847   54.1848 H   0  0  0  0  0  0  0  0  0  0  0  0
   66.4947   -4.9959   53.5246 H   0  0  0  0  0  0  0  0  0  0  0  0
  1  2  1  0
  1  5  1  0
  1  6  1  0
  2  3  2  0
  3  4  1  0
  4  5  2  0
  6  7  2  0
  6 11  1  0
  7  8  1  0
  8  9  2  0
  8 12  1  0
  9 10  1  0
 10 11  2  0
 12 13  1  0
 12 17  1  0
 13 14  1  0
 14 15  1  0
 15 16  1  0
 15 18  1  0
 16 17  1  0
 17 22  1  0
 18 19  2  0
 18 20  1  0
 20 21  1  0
 22 23  1  0
 23 24  2  0
 23 25  1  0
 25 26  1  0
 26 27  1  0
 27 28  2  0
 27 32  1  0
 28 29  1  0
 29 30  2  0
 30 31  1  0
 30 33  1  0
 31 32  2  0
 31 35  1  0
 33 34  1  0
 34 35  1  0
  2 36  1  0
  3 37  1  0
  5 38  1  0
  9 39  1  0
 10 40  1  0
 13 41  1  0
 13 42  1  0
 14 43  1  0
 14 44  1  0
 16 45  1  0
 16 46  1  0
 17 47  1  0
 21 48  1  0
 21 49  1  0
 21 50  1  0
 22 51  1  0
 22 52  1  0
 25 53  1  0
 26 54  1  0
 26 55  1  0
 28 56  1  0
 29 57  1  0
 32 58  1  0
 34 59  1  0
 34 60  1  0
A    1
N3
A    2
C4
A    3
C5
A    4
NFE
A    5
C2
A    6
C11
A    7
N12
A    8
C13
A    9
C14
A   10
C15
A   11
N16
A   12
N21
A   13
C22
A   14
C23
A   15
N24
A   16
C25
A   17
C26
A   18
C27
A   19
O28
A   20
O29
A   21
C30
A   22
C31
A   23
C32
A   24
O33
A   25
N34
A   26
C36
A   27
C41
A   28
C42
A   29
C43
A   30
C44
A   31
C45
A   32
C46
A   33
O47
A   34
C48
A   35
O49
M  END
