1AOB_DDU_A_301
     RDKit          3D

 27 28  0  0  0  0  0  0  0  0999 V2000
  -28.3760   -8.8800   20.1160 N   0  0  0  0  0  0  0  0  0  0  0  0
  -27.4420   -7.8480   20.1480 C   0  0  0  0  0  0  0  0  0  0  0  0
  -27.9260   -6.5990   19.8550 N   0  0  0  0  0  0  0  0  0  0  0  0
  -29.2410   -6.2890   19.5240 C   0  0  0  0  0  0  0  0  0  0  0  0
  -30.1370   -7.4350   19.5020 C   0  0  0  0  0  0  0  0  0  0  0  0
  -29.6500   -8.7090   19.8030 C   0  0  0  0  0  0  0  0  0  0  0  0
  -26.2480   -7.9980   20.3730 O   0  0  0  0  0  0  0  0  0  0  0  0
  -29.5930   -5.1190   19.3530 O   0  0  0  0  0  0  0  0  0  0  0  0
  -27.9550  -10.2400   20.5070 C   0  0  0  0  0  0  0  0  0  0  0  0
  -28.1930  -10.5440   21.9780 C   0  0  0  0  0  0  0  0  0  0  0  0
  -27.9550  -12.0360   22.0540 C   0  0  0  0  0  0  0  0  0  0  0  0
  -28.8030  -12.4390   20.8400 C   0  0  0  0  0  0  0  0  0  0  0  0
  -26.5720  -12.2870   21.7880 O   0  0  0  0  0  0  0  0  0  0  0  0
  -28.5310  -11.4060   19.8200 O   0  0  0  0  0  0  0  0  0  0  0  0
  -30.2980  -12.4470   21.2160 C   0  0  0  0  0  0  0  0  0  0  0  0
  -27.2542   -5.8187   19.8825 H   0  0  0  0  0  0  0  0  0  0  0  0
  -31.1985   -7.2981   19.2482 H   0  0  0  0  0  0  0  0  0  0  0  0
  -30.3289   -9.5742   19.7797 H   0  0  0  0  0  0  0  0  0  0  0  0
  -26.9000  -10.1495   20.2091 H   0  0  0  0  0  0  0  0  0  0  0  0
  -27.4834   -9.9965   22.6157 H   0  0  0  0  0  0  0  0  0  0  0  0
  -29.1912  -10.2435   22.3291 H   0  0  0  0  0  0  0  0  0  0  0  0
  -28.1920  -12.5418   23.0017 H   0  0  0  0  0  0  0  0  0  0  0  0
  -28.5572  -13.4479   20.4769 H   0  0  0  0  0  0  0  0  0  0  0  0
  -26.0822  -12.3759   22.6437 H   0  0  0  0  0  0  0  0  0  0  0  0
  -30.4006  -12.4475   22.3112 H   0  0  0  0  0  0  0  0  0  0  0  0
  -30.7849  -11.5514   20.8025 H   0  0  0  0  0  0  0  0  0  0  0  0
  -30.7753  -13.3477   20.8025 H   0  0  0  0  0  0  0  0  0  0  0  0
  1  2  1  0
  1  6  1  0
  1  9  1  0
  2  3  1  0
  2  7  2  0
  3  4  1  0
  4  5  1  0
  4  8  2  0
  5  6  2  0
  9 10  1  0
  9 14  1  0
 10 11  1  0
 11 12  1  0
 11 13  1  0
 12 14  1  0
 12 15  1  0
  3 16  1  0
  5 17  1  0
  6 18  1  0
  9 19  1  0
 10 20  1  0
 10 21  1  0
 11 22  1  0
 12 23  1  0
 13 24  1  0
 15 25  1  0
 15 26  1  0
 15 27  1  0
A    1
N1
A    2
C2
A    3
N3
A    4
C4
A    5
C5
A    6
C6
A    7
O2
A    8
O4
A    9
C1'
A   10
C2'
A   11
C3'
A   12
C4'
A   13
O3'
A   14
O4'
A   15
C5'
M  END
