1DE5_RNT_A_1460
     RDKit          3D

 25 24  0  0  0  0  0  0  0  0999 V2000
   30.7900   25.3080   62.8110 C   0  0  0  0  0  0  0  0  0  0  0  0
   32.1410   25.9180   62.7100 C   0  0  0  0  0  0  0  0  0  0  0  0
   32.9560   25.9920   63.9840 C   0  0  0  0  0  0  0  0  0  0  0  0
   32.3470   25.1140   65.0880 C   0  0  0  0  0  0  0  0  0  0  0  0
   33.2570   25.0520   66.3080 C   0  0  0  0  0  0  0  0  0  0  0  0
   32.6830   24.2580   67.4470 C   0  0  0  0  0  0  0  0  0  0  0  0
   29.9350   26.0490   61.9690 O   0  0  0  0  0  0  0  0  0  0  0  0
   32.8850   25.2470   61.7210 O   0  0  0  0  0  0  0  0  0  0  0  0
   34.3250   25.6240   63.7490 O   0  0  0  0  0  0  0  0  0  0  0  0
   32.2530   23.7570   64.5650 O   0  0  0  0  0  0  0  0  0  0  0  0
   33.6900   26.3870   66.6850 O   0  0  0  0  0  0  0  0  0  0  0  0
   30.8247   24.2584   62.4836 H   0  0  0  0  0  0  0  0  0  0  0  0
   30.4289   25.3276   63.8498 H   0  0  0  0  0  0  0  0  0  0  0  0
   31.9437   26.9687   62.4508 H   0  0  0  0  0  0  0  0  0  0  0  0
   32.9344   27.0374   64.3256 H   0  0  0  0  0  0  0  0  0  0  0  0
   31.3725   25.5339   65.3780 H   0  0  0  0  0  0  0  0  0  0  0  0
   34.1549   24.4843   66.0226 H   0  0  0  0  0  0  0  0  0  0  0  0
   33.0035   24.7014   68.4013 H   0  0  0  0  0  0  0  0  0  0  0  0
   31.5847   24.2718   67.3868 H   0  0  0  0  0  0  0  0  0  0  0  0
   33.0405   23.2194   67.3868 H   0  0  0  0  0  0  0  0  0  0  0  0
   29.3138   26.5873   62.5208 H   0  0  0  0  0  0  0  0  0  0  0  0
   33.5463   24.6506   62.1534 H   0  0  0  0  0  0  0  0  0  0  0  0
   34.7868   25.4999   64.6158 H   0  0  0  0  0  0  0  0  0  0  0  0
   32.2086   23.1156   65.3178 H   0  0  0  0  0  0  0  0  0  0  0  0
   33.7136   26.4598   67.6720 H   0  0  0  0  0  0  0  0  0  0  0  0
  1  2  1  0
  1  7  1  0
  2  3  1  0
  2  8  1  0
  3  4  1  0
  3  9  1  0
  4  5  1  0
  4 10  1  0
  5  6  1  0
  5 11  1  0
  1 12  1  0
  1 13  1  0
  2 14  1  0
  3 15  1  0
  4 16  1  0
  5 17  1  0
  6 18  1  0
  6 19  1  0
  6 20  1  0
  7 21  1  0
  8 22  1  0
  9 23  1  0
 10 24  1  0
 11 25  1  0
A    1
C1
A    2
C2
A    3
C3
A    4
C4
A    5
C5
A    6
C6
A    7
O1
A    8
O2
A    9
O3
A   10
O4
A   11
O5
M  END
