1DE6_RNS_A_1462
     RDKit          3D

 23 22  0  0  0  0  0  0  0  0999 V2000
   31.0650   26.1690   63.5390 C   0  0  0  0  0  0  0  0  0  0  0  0
   32.5660   25.9360   63.2100 C   0  0  0  0  0  0  0  0  0  0  0  0
   33.2320   25.8180   64.5560 C   0  0  0  0  0  0  0  0  0  0  0  0
   32.3870   24.9850   65.5060 C   0  0  0  0  0  0  0  0  0  0  0  0
   33.0820   24.6710   66.8020 C   0  0  0  0  0  0  0  0  0  0  0  0
   32.1330   24.2850   67.9180 C   0  0  0  0  0  0  0  0  0  0  0  0
   30.1150   25.8230   62.8510 O   0  0  0  0  0  0  0  0  0  0  0  0
   32.6800   24.7540   62.4430 O   0  0  0  0  0  0  0  0  0  0  0  0
   34.6400   25.5010   64.5240 O   0  0  0  0  0  0  0  0  0  0  0  0
   31.8900   23.8330   64.8340 O   0  0  0  0  0  0  0  0  0  0  0  0
   33.9850   25.7980   67.1320 O   0  0  0  0  0  0  0  0  0  0  0  0
   30.8358   26.6940   64.4781 H   0  0  0  0  0  0  0  0  0  0  0  0
   33.0312   26.7388   62.6192 H   0  0  0  0  0  0  0  0  0  0  0  0
   33.2654   26.8311   64.9833 H   0  0  0  0  0  0  0  0  0  0  0  0
   31.5222   25.5929   65.8102 H   0  0  0  0  0  0  0  0  0  0  0  0
   33.6905   23.7630   66.6781 H   0  0  0  0  0  0  0  0  0  0  0  0
   32.6110   24.4794   68.8895 H   0  0  0  0  0  0  0  0  0  0  0  0
   31.2111   24.8796   67.8374 H   0  0  0  0  0  0  0  0  0  0  0  0
   31.8879   23.2157   67.8374 H   0  0  0  0  0  0  0  0  0  0  0  0
   32.7552   23.9740   63.0480 H   0  0  0  0  0  0  0  0  0  0  0  0
   34.9820   25.4240   65.4498 H   0  0  0  0  0  0  0  0  0  0  0  0
   31.6002   23.1613   65.5010 H   0  0  0  0  0  0  0  0  0  0  0  0
   34.0561   25.8868   68.1154 H   0  0  0  0  0  0  0  0  0  0  0  0
  1  2  1  0
  1  7  2  0
  2  3  1  0
  2  8  1  0
  3  4  1  0
  3  9  1  0
  4  5  1  0
  4 10  1  0
  5  6  1  0
  5 11  1  0
  1 12  1  0
  2 13  1  0
  3 14  1  0
  4 15  1  0
  5 16  1  0
  6 17  1  0
  6 18  1  0
  6 19  1  0
  8 20  1  0
  9 21  1  0
 10 22  1  0
 11 23  1  0
A    1
C1
A    2
C2
A    3
C3
A    4
C4
A    5
C5
A    6
C6
A    7
O1
A    8
O2
A    9
O3
A   10
O4
A   11
O5
M  END
