1DGP_FOH_A_401
     RDKit          3D

 42 41  0  0  0  0  0  0  0  0999 V2000
   41.1640   38.3250   24.8960 C   0  0  0  0  0  0  0  0  0  0  0  0
   39.9140   37.5200   25.2290 C   0  0  0  0  0  0  0  0  0  0  0  0
   38.5680   38.2100   24.9980 C   0  0  0  0  0  0  0  0  0  0  0  0
   40.0270   36.2520   25.7070 C   0  0  0  0  0  0  0  0  0  0  0  0
   38.9210   35.2700   26.1050 C   0  0  0  0  0  0  0  0  0  0  0  0
   38.6910   35.1290   27.6460 C   0  0  0  0  0  0  0  0  0  0  0  0
   38.1460   36.4030   28.2950 C   0  0  0  0  0  0  0  0  0  0  0  0
   36.7420   36.8690   27.8800 C   0  0  0  0  0  0  0  0  0  0  0  0
   38.9130   37.1040   29.1930 C   0  0  0  0  0  0  0  0  0  0  0  0
   38.6060   38.4160   29.9510 C   0  0  0  0  0  0  0  0  0  0  0  0
   37.2470   38.5720   30.6970 C   0  0  0  0  0  0  0  0  0  0  0  0
   36.4200   39.7880   30.2680 C   0  0  0  0  0  0  0  0  0  0  0  0
   37.1020   41.1590   30.1540 C   0  0  0  0  0  0  0  0  0  0  0  0
   35.0980   39.6580   29.9930 C   0  0  0  0  0  0  0  0  0  0  0  0
   34.1440   40.7680   29.5580 C   0  0  0  0  0  0  0  0  0  0  0  0
   33.3180   41.0770   30.6720 O   0  0  0  0  0  0  0  0  0  0  0  0
   41.6554   38.6415   25.8279 H   0  0  0  0  0  0  0  0  0  0  0  0
   41.8558   37.7023   24.3099 H   0  0  0  0  0  0  0  0  0  0  0  0
   40.8832   39.2125   24.3099 H   0  0  0  0  0  0  0  0  0  0  0  0
   38.1061   38.4468   25.9678 H   0  0  0  0  0  0  0  0  0  0  0  0
   38.7248   39.1389   24.4300 H   0  0  0  0  0  0  0  0  0  0  0  0
   37.9054   37.5404   24.4300 H   0  0  0  0  0  0  0  0  0  0  0  0
   41.0555   35.8799   25.8241 H   0  0  0  0  0  0  0  0  0  0  0  0
   37.9801   35.6112   25.6486 H   0  0  0  0  0  0  0  0  0  0  0  0
   39.2430   34.2804   25.7485 H   0  0  0  0  0  0  0  0  0  0  0  0
   37.9726   34.3142   27.8188 H   0  0  0  0  0  0  0  0  0  0  0  0
   39.6695   34.9225   28.1042 H   0  0  0  0  0  0  0  0  0  0  0  0
   36.1411   37.0685   28.7795 H   0  0  0  0  0  0  0  0  0  0  0  0
   36.8228   37.7885   27.2817 H   0  0  0  0  0  0  0  0  0  0  0  0
   36.2569   36.0837   27.2817 H   0  0  0  0  0  0  0  0  0  0  0  0
   39.8983   36.6638   29.4059 H   0  0  0  0  0  0  0  0  0  0  0  0
   39.3996   38.5447   30.7018 H   0  0  0  0  0  0  0  0  0  0  0  0
   38.5490   39.1688   29.1510 H   0  0  0  0  0  0  0  0  0  0  0  0
   36.6485   37.6677   30.5125 H   0  0  0  0  0  0  0  0  0  0  0  0
   37.4898   38.7193   31.7597 H   0  0  0  0  0  0  0  0  0  0  0  0
   37.2991   41.5553   31.1610 H   0  0  0  0  0  0  0  0  0  0  0  0
   38.0519   41.0519   29.6097 H   0  0  0  0  0  0  0  0  0  0  0  0
   36.4436   41.8519   29.6097 H   0  0  0  0  0  0  0  0  0  0  0  0
   34.6695   38.6499   30.0937 H   0  0  0  0  0  0  0  0  0  0  0  0
   34.7153   41.6578   29.2549 H   0  0  0  0  0  0  0  0  0  0  0  0
   33.5357   40.4444   28.7005 H   0  0  0  0  0  0  0  0  0  0  0  0
   33.8116   40.8924   31.5101 H   0  0  0  0  0  0  0  0  0  0  0  0
  1  2  1  0
  2  3  1  0
  2  4  2  0
  4  5  1  0
  5  6  1  0
  6  7  1  0
  7  8  1  0
  7  9  2  0
  9 10  1  0
 10 11  1  0
 11 12  1  0
 12 13  1  0
 12 14  2  0
 14 15  1  0
 15 16  1  0
  1 17  1  0
  1 18  1  0
  1 19  1  0
  3 20  1  0
  3 21  1  0
  3 22  1  0
  4 23  1  0
  5 24  1  0
  5 25  1  0
  6 26  1  0
  6 27  1  0
  8 28  1  0
  8 29  1  0
  8 30  1  0
  9 31  1  0
 10 32  1  0
 10 33  1  0
 11 34  1  0
 11 35  1  0
 13 36  1  0
 13 37  1  0
 13 38  1  0
 14 39  1  0
 15 40  1  0
 15 41  1  0
 16 42  1  0
A    1
C1
A    2
C2
A    3
C3
A    4
C4
A    5
C5
A    6
C6
A    7
C7
A    8
C8
A    9
C9
A   10
C10
A   11
C11
A   12
C12
A   13
C13
A   14
C14
A   15
C15
A   16
O1
M  END
