1D2S_DHT_A_301
     RDKit          3D

 51 54  0  0  0  0  0  0  0  0999 V2000
   24.1170   10.0290   30.8710 C   0  0  0  0  0  0  0  0  0  0  0  0
   25.6170   10.2080   30.7070 C   0  0  0  0  0  0  0  0  0  0  0  0
   25.9240   11.6880   30.9260 C   0  0  0  0  0  0  0  0  0  0  0  0
   26.7490   12.2160   30.1970 O   0  0  0  0  0  0  0  0  0  0  0  0
   25.3280   12.3550   32.0980 C   0  0  0  0  0  0  0  0  0  0  0  0
   23.8150   12.1130   32.2100 C   0  0  0  0  0  0  0  0  0  0  0  0
   23.1680   12.8120   33.4110 C   0  0  0  0  0  0  0  0  0  0  0  0
   21.6550   12.6940   33.3480 C   0  0  0  0  0  0  0  0  0  0  0  0
   21.2150   11.2150   33.2530 C   0  0  0  0  0  0  0  0  0  0  0  0
   21.9310   10.4950   32.0790 C   0  0  0  0  0  0  0  0  0  0  0  0
   23.4820   10.5860   32.1520 C   0  0  0  0  0  0  0  0  0  0  0  0
   21.3950    9.0530   31.9520 C   0  0  0  0  0  0  0  0  0  0  0  0
   19.8950    8.8690   31.9120 C   0  0  0  0  0  0  0  0  0  0  0  0
   19.2090    9.6180   33.0450 C   0  0  0  0  0  0  0  0  0  0  0  0
   19.7140   11.0760   33.0650 C   0  0  0  0  0  0  0  0  0  0  0  0
   18.8010   11.7140   34.1110 C   0  0  0  0  0  0  0  0  0  0  0  0
   17.4270   11.0930   33.8070 C   0  0  0  0  0  0  0  0  0  0  0  0
   17.7320    9.9090   32.8670 C   0  0  0  0  0  0  0  0  0  0  0  0
   16.8630    8.8090   33.1480 O   0  0  0  0  0  0  0  0  0  0  0  0
   19.4690    8.9360   34.4120 C   0  0  0  0  0  0  0  0  0  0  0  0
   24.0060    9.8790   33.4240 C   0  0  0  0  0  0  0  0  0  0  0  0
   23.6292   10.5228   30.0177 H   0  0  0  0  0  0  0  0  0  0  0  0
   23.9650    8.9410   30.9281 H   0  0  0  0  0  0  0  0  0  0  0  0
   26.1524    9.5985   31.4499 H   0  0  0  0  0  0  0  0  0  0  0  0
   25.9405    9.8870   29.7059 H   0  0  0  0  0  0  0  0  0  0  0  0
   25.8143   11.9711   33.0069 H   0  0  0  0  0  0  0  0  0  0  0  0
   25.4843   13.4375   31.9803 H   0  0  0  0  0  0  0  0  0  0  0  0
   23.3576   12.5874   31.3293 H   0  0  0  0  0  0  0  0  0  0  0  0
   23.5286   12.3440   34.3389 H   0  0  0  0  0  0  0  0  0  0  0  0
   23.4414   13.8773   33.3904 H   0  0  0  0  0  0  0  0  0  0  0  0
   21.2219   13.1400   34.2555 H   0  0  0  0  0  0  0  0  0  0  0  0
   21.3007   13.2220   32.4504 H   0  0  0  0  0  0  0  0  0  0  0  0
   21.4974   10.7470   34.2076 H   0  0  0  0  0  0  0  0  0  0  0  0
   21.6873   11.0270   31.1476 H   0  0  0  0  0  0  0  0  0  0  0  0
   21.8042    8.6296   31.0229 H   0  0  0  0  0  0  0  0  0  0  0  0
   21.7152    8.5515   32.8772 H   0  0  0  0  0  0  0  0  0  0  0  0
   19.5143    9.2473   30.9518 H   0  0  0  0  0  0  0  0  0  0  0  0
   19.6764    7.7970   32.0260 H   0  0  0  0  0  0  0  0  0  0  0  0
   19.6374   11.6033   32.1027 H   0  0  0  0  0  0  0  0  0  0  0  0
   19.1312   11.4610   35.1293 H   0  0  0  0  0  0  0  0  0  0  0  0
   18.7963   12.8130   34.0655 H   0  0  0  0  0  0  0  0  0  0  0  0
   16.9474   10.7404   34.7320 H   0  0  0  0  0  0  0  0  0  0  0  0
   16.7342   11.8170   33.3532 H   0  0  0  0  0  0  0  0  0  0  0  0
   17.5383   10.1312   31.8072 H   0  0  0  0  0  0  0  0  0  0  0  0
   16.7761    8.6991   34.1280 H   0  0  0  0  0  0  0  0  0  0  0  0
   19.2046    9.6295   35.2239 H   0  0  0  0  0  0  0  0  0  0  0  0
   18.8542    8.0273   34.4912 H   0  0  0  0  0  0  0  0  0  0  0  0
   20.5327    8.6671   34.4912 H   0  0  0  0  0  0  0  0  0  0  0  0
   23.6224   10.3966   34.3156 H   0  0  0  0  0  0  0  0  0  0  0  0
   23.6626    8.8340   33.4305 H   0  0  0  0  0  0  0  0  0  0  0  0
   25.1057    9.9036   33.4305 H   0  0  0  0  0  0  0  0  0  0  0  0
  1  2  1  0
  1 11  1  0
  2  3  1  0
  3  4  2  0
  3  5  1  0
  5  6  1  0
  6  7  1  0
  6 11  1  0
  7  8  1  0
  8  9  1  0
  9 10  1  0
  9 15  1  0
 10 11  1  0
 10 12  1  0
 11 21  1  0
 12 13  1  0
 13 14  1  0
 14 15  1  0
 14 18  1  0
 14 20  1  0
 15 16  1  0
 16 17  1  0
 17 18  1  0
 18 19  1  0
  1 22  1  0
  1 23  1  0
  2 24  1  0
  2 25  1  0
  5 26  1  0
  5 27  1  0
  6 28  1  0
  7 29  1  0
  7 30  1  0
  8 31  1  0
  8 32  1  0
  9 33  1  0
 10 34  1  0
 12 35  1  0
 12 36  1  0
 13 37  1  0
 13 38  1  0
 15 39  1  0
 16 40  1  0
 16 41  1  0
 17 42  1  0
 17 43  1  0
 18 44  1  0
 19 45  1  0
 20 46  1  0
 20 47  1  0
 20 48  1  0
 21 49  1  0
 21 50  1  0
 21 51  1  0
A    1
C1
A    2
C2
A    3
C3
A    4
O3
A    5
C4
A    6
C5
A    7
C6
A    8
C7
A    9
C8
A   10
C9
A   11
C10
A   12
C11
A   13
C12
A   14
C13
A   15
C14
A   16
C15
A   17
C16
A   18
C17
A   19
O17
A   20
C18
A   21
C19
M  END
