1DIL_EQP_A_383
     RDKit          3D

 41 41  0  0  0  0  0  0  0  0999 V2000
   43.2930   52.1570   45.6690 P   0  0  0  0  0  0  0  0  0  0  0  0
   42.9600   51.3340   47.2390 C   0  0  0  0  0  0  0  0  0  0  0  0
   41.5400   51.5400   47.8240 C   0  0  0  0  0  0  0  0  0  0  0  0
   41.3550   50.6960   49.1140 C   0  0  0  0  0  0  0  0  0  0  0  0
   42.4560   51.0870   50.0910 C   0  0  0  0  0  0  0  0  0  0  0  0
   43.8330   50.8610   49.4580 C   0  0  0  0  0  0  0  0  0  0  0  0
   45.0910   51.0950   50.2810 C   0  0  0  0  0  0  0  0  0  0  0  0
   46.2960   50.8080   49.3550 C   0  0  0  0  0  0  0  0  0  0  0  0
   47.5840   50.9990   50.1420 C   0  0  0  0  0  0  0  0  0  0  0  0
   42.6690   50.6880   52.4430 C   0  0  0  0  0  0  0  0  0  0  0  0
   42.4480   49.7530   53.6240 C   0  0  0  0  0  0  0  0  0  0  0  0
   42.2810   50.2600   51.2450 N   0  0  0  0  0  0  0  0  0  0  0  0
   42.1480   52.2200   44.7950 O   0  0  0  0  0  0  0  0  0  0  0  0
   43.1970   53.6300   46.1720 O   0  0  0  0  0  0  0  0  0  0  0  0
   44.7170   51.8090   45.2090 O   0  0  0  0  0  0  0  0  0  0  0  0
   40.0840   50.8750   49.6960 O   0  0  0  0  0  0  0  0  0  0  0  0
   43.9230   51.7120   48.2690 O   0  0  0  0  0  0  0  0  0  0  0  0
   45.0730   52.4130   50.7730 O   0  0  0  0  0  0  0  0  0  0  0  0
   46.2140   49.4760   48.8340 O   0  0  0  0  0  0  0  0  0  0  0  0
   47.5880   50.1270   51.2380 O   0  0  0  0  0  0  0  0  0  0  0  0
   43.2080   51.7810   52.6100 O   0  0  0  0  0  0  0  0  0  0  0  0
   43.0504   50.2706   46.9724 H   0  0  0  0  0  0  0  0  0  0  0  0
   41.3985   52.6041   48.0643 H   0  0  0  0  0  0  0  0  0  0  0  0
   40.7982   51.2174   47.0786 H   0  0  0  0  0  0  0  0  0  0  0  0
   41.4238   49.6287   48.8567 H   0  0  0  0  0  0  0  0  0  0  0  0
   42.3981   52.1521   50.3598 H   0  0  0  0  0  0  0  0  0  0  0  0
   43.8457   49.7751   49.2827 H   0  0  0  0  0  0  0  0  0  0  0  0
   45.1581   50.4328   51.1567 H   0  0  0  0  0  0  0  0  0  0  0  0
   46.2845   51.5066   48.5054 H   0  0  0  0  0  0  0  0  0  0  0  0
   48.4463   50.7805   49.4949 H   0  0  0  0  0  0  0  0  0  0  0  0
   47.6496   52.0382   50.4965 H   0  0  0  0  0  0  0  0  0  0  0  0
   42.5798   50.3107   54.5629 H   0  0  0  0  0  0  0  0  0  0  0  0
   41.4282   49.3429   53.5812 H   0  0  0  0  0  0  0  0  0  0  0  0
   43.1763   48.9298   53.5812 H   0  0  0  0  0  0  0  0  0  0  0  0
   41.8524   49.3285   51.1477 H   0  0  0  0  0  0  0  0  0  0  0  0
   43.1963   53.6413   47.1619 H   0  0  0  0  0  0  0  0  0  0  0  0
   45.2943   51.6679   46.0008 H   0  0  0  0  0  0  0  0  0  0  0  0
   40.1681   50.8632   50.6824 H   0  0  0  0  0  0  0  0  0  0  0  0
   45.0732   52.3958   51.7628 H   0  0  0  0  0  0  0  0  0  0  0  0
   46.1743   48.8304   49.5835 H   0  0  0  0  0  0  0  0  0  0  0  0
   47.5856   50.6519   52.0774 H   0  0  0  0  0  0  0  0  0  0  0  0
  1  2  1  0
  1 13  2  0
  1 14  1  0
  1 15  1  0
  2  3  1  0
  2 17  1  0
  3  4  1  0
  4  5  1  0
  4 16  1  0
  5  6  1  0
  5 12  1  0
  6  7  1  0
  6 17  1  0
  7  8  1  0
  7 18  1  0
  8  9  1  0
  8 19  1  0
  9 20  1  0
 10 11  1  0
 10 12  1  0
 10 21  2  0
  2 22  1  0
  3 23  1  0
  3 24  1  0
  4 25  1  0
  5 26  1  0
  6 27  1  0
  7 28  1  0
  8 29  1  0
  9 30  1  0
  9 31  1  0
 11 32  1  0
 11 33  1  0
 11 34  1  0
 12 35  1  0
 14 36  1  0
 15 37  1  0
 16 38  1  0
 18 39  1  0
 19 40  1  0
 20 41  1  0
A    1
P1
A    2
C2
A    3
C3
A    4
C4
A    5
C5
A    6
C6
A    7
C7
A    8
C8
A    9
C9
A   10
C10
A   11
C11
A   12
N5
A   13
O1P
A   14
O2P
A   15
O3P
A   16
O4
A   17
O6
A   18
O7
A   19
O8
A   20
O9
A   21
O10
M  END
