1DM6_PH3_A_1780
     RDKit          3D

 20 20  0  0  0  0  0  0  0  0999 V2000
   13.0450   12.2270   33.6920 Cl  0  0  0  0  0  0  0  0  0  0  0  0
    8.5120   12.4610   32.7440 C   0  0  0  0  0  0  0  0  0  0  0  0
    9.3190   11.1760   32.3320 C   0  0  0  0  0  0  0  0  0  0  0  0
   10.8110   11.1050   32.6500 C   0  0  0  0  0  0  0  0  0  0  0  0
   11.3540   12.2380   33.3090 C   0  0  0  0  0  0  0  0  0  0  0  0
   10.5940   13.3980   33.6780 C   0  0  0  0  0  0  0  0  0  0  0  0
    9.2070   13.4880   33.3940 C   0  0  0  0  0  0  0  0  0  0  0  0
    7.0970   12.5420   32.4440 N   0  0  0  0  0  0  0  0  0  0  0  0
    6.4550   11.9510   31.4200 C   0  0  0  0  0  0  0  0  0  0  0  0
    7.0700   11.3240   30.3810 N   0  0  0  0  0  0  0  0  0  0  0  0
    5.1500   11.9640   31.4670 N   0  0  0  0  0  0  0  0  0  0  0  0
    6.4780   10.7550   29.3470 O   0  0  0  0  0  0  0  0  0  0  0  0
    8.8165   10.3407   31.8224 H   0  0  0  0  0  0  0  0  0  0  0  0
   11.4251   10.2317   32.3852 H   0  0  0  0  0  0  0  0  0  0  0  0
   11.0958   14.2322   34.1902 H   0  0  0  0  0  0  0  0  0  0  0  0
    8.6599   14.3939   33.6941 H   0  0  0  0  0  0  0  0  0  0  0  0
    6.5224   13.1116   33.0813 H   0  0  0  0  0  0  0  0  0  0  0  0
    8.0992   11.2898   30.4032 H   0  0  0  0  0  0  0  0  0  0  0  0
    4.6031   11.5271   30.7114 H   0  0  0  0  0  0  0  0  0  0  0  0
    5.8031   10.1063   29.6690 H   0  0  0  0  0  0  0  0  0  0  0  0
  1  5  1  0
  2  3  2  0
  2  7  1  0
  2  8  1  0
  3  4  1  0
  4  5  2  0
  5  6  1  0
  6  7  2  0
  8  9  1  0
  9 10  1  0
  9 11  2  3
 10 12  1  0
  3 13  1  0
  4 14  1  0
  6 15  1  0
  7 16  1  0
  8 17  1  0
 10 18  1  0
 11 19  1  0
 12 20  1  0
A    1
CL
A    2
C1
A    3
C2
A    4
C3
A    5
C4
A    6
C5
A    7
C6
A    8
NE
A    9
CZ
A   10
NH1
A   11
NH2
A   12
OH
M  END
