1DMK_AP6_A_1660
     RDKit          3D

 32 34  0  0  0  0  0  0  0  0999 V2000
    8.2060   11.5830   42.7220 N   0  0  0  0  0  0  0  0  0  0  0  0
    8.0920   12.0920   41.3290 C   0  0  0  0  0  0  0  0  0  0  0  0
    7.2400   11.5710   40.4620 N   0  0  0  0  0  0  0  0  0  0  0  0
    8.9570   13.1360   40.9970 N   0  0  0  0  0  0  0  0  0  0  0  0
    9.9060   13.7510   41.8630 C   0  0  0  0  0  0  0  0  0  0  0  0
   10.7700   14.8610   41.4200 N   0  0  0  0  0  0  0  0  0  0  0  0
    9.9530   13.1920   43.1890 C   0  0  0  0  0  0  0  0  0  0  0  0
    9.1160   12.1260   43.6270 C   0  0  0  0  0  0  0  0  0  0  0  0
   10.8910   13.7740   44.0580 N   0  0  0  0  0  0  0  0  0  0  0  0
   10.5960   13.5730   45.4340 C   0  0  0  0  0  0  0  0  0  0  0  0
   10.2850   12.0930   45.7670 C   0  0  0  0  0  0  0  0  0  0  0  0
    9.1800   11.6300   44.8870 N   0  0  0  0  0  0  0  0  0  0  0  0
   11.7360   14.0870   46.3170 C   0  0  0  0  0  0  0  0  0  0  0  0
   12.2840   13.2620   47.5360 C   0  0  0  0  0  0  0  0  0  0  0  0
   12.3180   15.3400   46.0590 C   0  0  0  0  0  0  0  0  0  0  0  0
   13.3160   13.8020   48.3090 C   0  0  0  0  0  0  0  0  0  0  0  0
   13.3730   15.8420   46.8820 C   0  0  0  0  0  0  0  0  0  0  0  0
   13.8560   15.0750   47.9910 C   0  0  0  0  0  0  0  0  0  0  0  0
    6.4093   11.0630   40.7980 H   0  0  0  0  0  0  0  0  0  0  0  0
    7.4071   11.6732   39.4508 H   0  0  0  0  0  0  0  0  0  0  0  0
   11.2363   15.4601   42.1161 H   0  0  0  0  0  0  0  0  0  0  0  0
   10.9071   15.0372   40.4145 H   0  0  0  0  0  0  0  0  0  0  0  0
   11.7150   14.2972   43.7290 H   0  0  0  0  0  0  0  0  0  0  0  0
    9.6858   14.1527   45.6473 H   0  0  0  0  0  0  0  0  0  0  0  0
   11.1801   11.4780   45.5923 H   0  0  0  0  0  0  0  0  0  0  0  0
    9.9886   11.9999   46.8222 H   0  0  0  0  0  0  0  0  0  0  0  0
    8.4827   10.9515   45.2251 H   0  0  0  0  0  0  0  0  0  0  0  0
   11.8625   12.2751   47.7776 H   0  0  0  0  0  0  0  0  0  0  0  0
   11.9567   15.9423   45.2124 H   0  0  0  0  0  0  0  0  0  0  0  0
   13.7109   13.2380   49.1669 H   0  0  0  0  0  0  0  0  0  0  0  0
   13.8171   16.8241   46.6623 H   0  0  0  0  0  0  0  0  0  0  0  0
   14.6666   15.4835   48.6123 H   0  0  0  0  0  0  0  0  0  0  0  0
  1  2  2  0
  1  8  1  0
  2  3  1  0
  2  4  1  0
  4  5  2  0
  5  6  1  0
  5  7  1  0
  7  8  2  0
  7  9  1  0
  8 12  1  0
  9 10  1  0
 10 11  1  0
 10 13  1  0
 11 12  1  0
 13 14  2  0
 13 15  1  0
 14 16  1  0
 15 17  2  0
 16 18  2  0
 17 18  1  0
  3 19  1  0
  3 20  1  0
  6 21  1  0
  6 22  1  0
  9 23  1  0
 10 24  1  0
 11 25  1  0
 11 26  1  0
 12 27  1  0
 14 28  1  0
 15 29  1  0
 16 30  1  0
 17 31  1  0
 18 32  1  0
A    1
N1
A    2
C2
A    3
N2
A    4
N3
A    5
C4
A    6
N4
A    7
C9
A    8
C10
A    9
N5
A   10
C6
A   11
C7
A   12
N8
A   13
C11
A   14
C12
A   15
C16
A   16
C13
A   17
C15
A   18
C14
M  END
