1DOH_NID_A_502
     RDKit          3D

 18 19  0  0  0  0  0  0  0  0999 V2000
  101.9760   71.8850   -6.2360 C   0  0  0  0  0  0  0  0  0  0  0  0
  101.1310   72.2900   -5.1990 C   0  0  0  0  0  0  0  0  0  0  0  0
   99.9970   73.2970   -5.1660 C   0  0  0  0  0  0  0  0  0  0  0  0
   99.4670   73.3590   -3.9360 C   0  0  0  0  0  0  0  0  0  0  0  0
  100.2160   72.4050   -3.0970 C   0  0  0  0  0  0  0  0  0  0  0  0
  100.0200   72.1880   -1.9140 O   0  0  0  0  0  0  0  0  0  0  0  0
  101.2660   71.7420   -3.9370 C   0  0  0  0  0  0  0  0  0  0  0  0
  102.2370   70.7740   -3.6380 C   0  0  0  0  0  0  0  0  0  0  0  0
  103.0990   70.3440   -4.6670 C   0  0  0  0  0  0  0  0  0  0  0  0
  102.9560   70.9040   -5.9490 C   0  0  0  0  0  0  0  0  0  0  0  0
  101.8610   72.4200   -7.4760 N   0  0  0  0  0  0  0  0  0  0  0  0
  102.5960   72.0620   -8.3680 O   0  0  0  0  0  0  0  0  0  0  0  0
  101.0240   73.2690   -7.6990 O   0  0  0  0  0  0  0  0  0  0  0  0
   99.6581   73.8911   -6.0275 H   0  0  0  0  0  0  0  0  0  0  0  0
   98.6326   73.9994   -3.6140 H   0  0  0  0  0  0  0  0  0  0  0  0
  102.3235   70.3598   -2.6226 H   0  0  0  0  0  0  0  0  0  0  0  0
  103.8697   69.5841   -4.4708 H   0  0  0  0  0  0  0  0  0  0  0  0
  103.6266   70.5694   -6.7542 H   0  0  0  0  0  0  0  0  0  0  0  0
  1  2  2  0
  1 10  1  0
  1 11  1  0
  2  3  1  0
  2  7  1  0
  3  4  2  0
  4  5  1  0
  5  6  2  0
  5  7  1  0
  7  8  2  0
  8  9  1  0
  9 10  2  0
 11 12  1  0
 11 13  2  0
  3 14  1  0
  4 15  1  0
  8 16  1  0
  9 17  1  0
 10 18  1  0
M  CHG  2  11   1  12  -1
A    1
C2
A    2
C7
A    3
C1
A    4
C9
A    5
C8
A    6
O1
A    7
C6
A    8
C5
A    9
C4
A   10
C3
A   11
N
A   12
ON1
A   13
ON2
M  END
