1C4S_ASG_A_2
     RDKit          3D

 33 33  0  0  0  0  0  0  0  0999 V2000
    8.9400    4.5920    3.1120 C   0  0  0  0  0  0  0  0  0  0  0  0
    8.6600    3.5440    4.1800 C   0  0  0  0  0  0  0  0  0  0  0  0
    9.2090    3.9920    5.5250 C   0  0  0  0  0  0  0  0  0  0  0  0
   10.6800    4.3650    5.3980 C   0  0  0  0  0  0  0  0  0  0  0  0
   10.8750    5.3630    4.2620 C   0  0  0  0  0  0  0  0  0  0  0  0
   12.3320    5.6860    4.0100 C   0  0  0  0  0  0  0  0  0  0  0  0
    6.7290    2.0160    4.1120 C   0  0  0  0  0  0  0  0  0  0  0  0
    5.2260    1.9190    4.2170 C   0  0  0  0  0  0  0  0  0  0  0  0
    8.5430    4.0830    1.8830 O   0  0  0  0  0  0  0  0  0  0  0  0
    7.2030    3.3030    4.2620 N   0  0  0  0  0  0  0  0  0  0  0  0
   11.4660    3.2040    5.1370 O   0  0  0  0  0  0  0  0  0  0  0  0
   10.3480    4.8290    3.0390 O   0  0  0  0  0  0  0  0  0  0  0  0
   12.7910    5.1380    2.7750 O   0  0  0  0  0  0  0  0  0  0  0  0
    7.4500    1.0510    3.9170 O   0  0  0  0  0  0  0  0  0  0  0  0
   11.4710    2.9700    7.6180 O   0  0  0  0  0  0  0  0  0  0  0  0
   13.1350    1.8280    6.3750 O   0  0  0  0  0  0  0  0  0  0  0  0
   10.8890    1.0840    6.3130 O   0  0  0  0  0  0  0  0  0  0  0  0
   11.7470    2.2500    6.3890 S   0  0  0  0  0  0  0  0  0  0  0  0
    8.4027    5.5200    3.3570 H   0  0  0  0  0  0  0  0  0  0  0  0
    9.1637    2.6050    3.9069 H   0  0  0  0  0  0  0  0  0  0  0  0
    8.6417    4.8670    5.8752 H   0  0  0  0  0  0  0  0  0  0  0  0
    9.1103    3.1660    6.2447 H   0  0  0  0  0  0  0  0  0  0  0  0
   11.0022    4.8192    6.3466 H   0  0  0  0  0  0  0  0  0  0  0  0
   10.3488    6.2785    4.5702 H   0  0  0  0  0  0  0  0  0  0  0  0
   12.4546    6.7788    3.9819 H   0  0  0  0  0  0  0  0  0  0  0  0
   12.9258    5.2419    4.8225 H   0  0  0  0  0  0  0  0  0  0  0  0
    4.9330    1.9001    5.2771 H   0  0  0  0  0  0  0  0  0  0  0  0
    4.7671    2.7894    3.7252 H   0  0  0  0  0  0  0  0  0  0  0  0
    4.8828    0.9968    3.7252 H   0  0  0  0  0  0  0  0  0  0  0  0
    7.9404    3.3104    2.0249 H   0  0  0  0  0  0  0  0  0  0  0  0
    6.5523    4.0839    4.4285 H   0  0  0  0  0  0  0  0  0  0  0  0
   13.4159    4.3920    2.9570 H   0  0  0  0  0  0  0  0  0  0  0  0
   11.6912    2.3955    8.3936 H   0  0  0  0  0  0  0  0  0  0  0  0
  1  2  1  0
  1  9  1  0
  1 12  1  0
  2  3  1  0
  2 10  1  0
  3  4  1  0
  4  5  1  0
  4 11  1  0
  5  6  1  0
  5 12  1  0
  6 13  1  0
  7  8  1  0
  7 10  1  0
  7 14  2  0
 11 18  1  0
 15 18  1  0
 16 18  2  0
 17 18  2  0
  1 19  1  0
  2 20  1  0
  3 21  1  0
  3 22  1  0
  4 23  1  0
  5 24  1  0
  6 25  1  0
  6 26  1  0
  8 27  1  0
  8 28  1  0
  8 29  1  0
  9 30  1  0
 10 31  1  0
 13 32  1  0
 15 33  1  0
A    1
C1
A    2
C2
A    3
C3
A    4
C4
A    5
C5
A    6
C6
A    7
C7
A    8
C8
A    9
O1
A   10
N
A   11
O4
A   12
O5
A   13
O6
A   14
O7
A   15
OSA
A   16
OSB
A   17
OSC
A   18
S
M  END
