1DTT_FTC_A_999
     RDKit          3D

 39 40  0  0  0  0  0  0  0  0999 V2000
   -1.9070  -34.6890   21.8880 C   0  0  0  0  0  0  0  0  0  0  0  0
   -1.8840  -34.8920   23.2680 N   0  0  0  0  0  0  0  0  0  0  0  0
   -2.8370  -34.3510   24.1270 C   0  0  0  0  0  0  0  0  0  0  0  0
   -3.8600  -33.5890   23.5590 C   0  0  0  0  0  0  0  0  0  0  0  0
   -3.8880  -33.3710   22.1780 C   0  0  0  0  0  0  0  0  0  0  0  0
   -2.9350  -33.9140   21.3300 C   0  0  0  0  0  0  0  0  0  0  0  0
   -5.0920  -32.9420   24.5360 Cl  0  0  0  0  0  0  0  0  0  0  0  0
   -1.0530  -35.2640   21.0040 N   0  0  0  0  0  0  0  0  0  0  0  0
    0.0140  -36.0400   21.2010 C   0  0  0  0  0  0  0  0  0  0  0  0
    1.0970  -36.3310   19.8700 S   0  0  0  0  0  0  0  0  0  0  0  0
    0.1530  -36.5920   22.4310 N   0  0  0  0  0  0  0  0  0  0  0  0
    1.4790  -36.8940   23.0050 C   0  0  0  0  0  0  0  0  0  0  0  0
    1.3560  -37.1530   24.5380 C   0  0  0  0  0  0  0  0  0  0  0  0
    1.5140  -35.8510   25.3280 C   0  0  0  0  0  0  0  0  0  0  0  0
    2.6560  -35.0920   25.1450 N   0  0  0  0  0  0  0  0  0  0  0  0
    2.8500  -33.8640   25.7430 C   0  0  0  0  0  0  0  0  0  0  0  0
    1.8560  -33.3500   26.5780 C   0  0  0  0  0  0  0  0  0  0  0  0
    0.6830  -34.0880   26.7940 C   0  0  0  0  0  0  0  0  0  0  0  0
    0.4940  -35.3450   26.1650 C   0  0  0  0  0  0  0  0  0  0  0  0
   -0.2550  -33.5690   27.6670 O   0  0  0  0  0  0  0  0  0  0  0  0
   -1.0880  -32.5880   27.0670 C   0  0  0  0  0  0  0  0  0  0  0  0
   -2.1390  -32.1440   28.0580 C   0  0  0  0  0  0  0  0  0  0  0  0
   -0.6420  -36.0320   26.3630 F   0  0  0  0  0  0  0  0  0  0  0  0
   -2.7859  -34.5177   25.2131 H   0  0  0  0  0  0  0  0  0  0  0  0
   -4.6899  -32.7503   21.7518 H   0  0  0  0  0  0  0  0  0  0  0  0
   -2.9837  -33.7412   20.2447 H   0  0  0  0  0  0  0  0  0  0  0  0
   -1.2640  -35.0685   20.0150 H   0  0  0  0  0  0  0  0  0  0  0  0
   -0.6909  -36.8070   22.9811 H   0  0  0  0  0  0  0  0  0  0  0  0
    1.8907  -37.7898   22.5170 H   0  0  0  0  0  0  0  0  0  0  0  0
    2.1462  -36.0354   22.8384 H   0  0  0  0  0  0  0  0  0  0  0  0
    0.3676  -37.5859   24.7517 H   0  0  0  0  0  0  0  0  0  0  0  0
    2.1539  -37.8466   24.8417 H   0  0  0  0  0  0  0  0  0  0  0  0
    3.7757  -33.2972   25.5643 H   0  0  0  0  0  0  0  0  0  0  0  0
    1.9920  -32.3723   27.0634 H   0  0  0  0  0  0  0  0  0  0  0  0
   -0.4782  -31.7230   26.7673 H   0  0  0  0  0  0  0  0  0  0  0  0
   -1.5783  -33.0164   26.1804 H   0  0  0  0  0  0  0  0  0  0  0  0
   -1.7675  -32.3009   29.0814 H   0  0  0  0  0  0  0  0  0  0  0  0
   -2.3577  -31.0766   27.9070 H   0  0  0  0  0  0  0  0  0  0  0  0
   -3.0568  -32.7313   27.9070 H   0  0  0  0  0  0  0  0  0  0  0  0
  1  2  2  0
  1  6  1  0
  1  8  1  0
  2  3  1  0
  3  4  2  0
  4  5  1  0
  4  7  1  0
  5  6  2  0
  8  9  1  0
  9 10  2  0
  9 11  1  0
 11 12  1  0
 12 13  1  0
 13 14  1  0
 14 15  2  0
 14 19  1  0
 15 16  1  0
 16 17  2  0
 17 18  1  0
 18 19  2  0
 18 20  1  0
 19 23  1  0
 20 21  1  0
 21 22  1  0
  3 24  1  0
  5 25  1  0
  6 26  1  0
  8 27  1  0
 11 28  1  0
 12 29  1  0
 12 30  1  0
 13 31  1  0
 13 32  1  0
 16 33  1  0
 17 34  1  0
 21 35  1  0
 21 36  1  0
 22 37  1  0
 22 38  1  0
 22 39  1  0
A    1
C1
A    2
N2
A    3
C3
A    4
C4
A    5
C5
A    6
C6
A    7
CL7
A    8
N8
A    9
C9
A   10
S9
A   11
N10
A   12
C11
A   13
C12
A   14
C13
A   15
N14
A   16
C15
A   17
C16
A   18
C17
A   19
C18
A   20
O17
A   21
CA
A   22
CB
A   23
F18
M  END
