1DVY_BPD_A_125
     RDKit          3D

 42 45  0  0  0  0  0  0  0  0999 V2000
   21.7630   40.8000    8.2370 F   0  0  0  0  0  0  0  0  0  0  0  0
   22.0590   42.3410    9.6290 F   0  0  0  0  0  0  0  0  0  0  0  0
   23.5840   41.8870    8.2220 F   0  0  0  0  0  0  0  0  0  0  0  0
   22.2790   43.0050    0.9080 O   0  0  0  0  0  0  0  0  0  0  0  0
   19.9530   40.3110   -1.3760 O   0  0  0  0  0  0  0  0  0  0  0  0
   21.7200   41.6070   -1.3140 O   0  0  0  0  0  0  0  0  0  0  0  0
   25.8240   44.2330   -0.8910 O   0  0  0  0  0  0  0  0  0  0  0  0
   23.8450   43.2530   -1.0230 O   0  0  0  0  0  0  0  0  0  0  0  0
   21.6060   43.5990    3.6190 N   0  0  0  0  0  0  0  0  0  0  0  0
   22.2900   41.9990    8.3730 C   0  0  0  0  0  0  0  0  0  0  0  0
   21.7030   42.9760    7.4000 C   0  0  0  0  0  0  0  0  0  0  0  0
   20.9190   44.0640    7.8550 C   0  0  0  0  0  0  0  0  0  0  0  0
   20.3790   44.9690    6.9370 C   0  0  0  0  0  0  0  0  0  0  0  0
   20.6040   44.8170    5.5540 C   0  0  0  0  0  0  0  0  0  0  0  0
   21.3840   43.7380    5.0800 C   0  0  0  0  0  0  0  0  0  0  0  0
   21.9430   42.8030    6.0050 C   0  0  0  0  0  0  0  0  0  0  0  0
   20.8010   42.6540    2.8470 C   0  0  0  0  0  0  0  0  0  0  0  0
   19.6660   41.9880    3.3840 C   0  0  0  0  0  0  0  0  0  0  0  0
   18.9150   41.0820    2.6020 C   0  0  0  0  0  0  0  0  0  0  0  0
   19.2790   40.8300    1.2940 C   0  0  0  0  0  0  0  0  0  0  0  0
   20.4020   41.4540    0.6860 C   0  0  0  0  0  0  0  0  0  0  0  0
   21.1680   42.3770    1.4820 C   0  0  0  0  0  0  0  0  0  0  0  0
   20.6590   41.0620   -0.7600 C   0  0  0  0  0  0  0  0  0  0  0  0
   22.8660   44.0780    3.0530 C   0  0  0  0  0  0  0  0  0  0  0  0
   23.8150   44.8500    3.7810 C   0  0  0  0  0  0  0  0  0  0  0  0
   25.0090   45.2840    3.1820 C   0  0  0  0  0  0  0  0  0  0  0  0
   25.3000   44.9760    1.8620 C   0  0  0  0  0  0  0  0  0  0  0  0
   24.4030   44.2110    1.0680 C   0  0  0  0  0  0  0  0  0  0  0  0
   23.1680   43.7560    1.6750 C   0  0  0  0  0  0  0  0  0  0  0  0
   24.8060   43.9250   -0.3660 C   0  0  0  0  0  0  0  0  0  0  0  0
   22.4406   41.9771   -0.7449 H   0  0  0  0  0  0  0  0  0  0  0  0
   23.1477   42.7654   -0.5170 H   0  0  0  0  0  0  0  0  0  0  0  0
   20.7350   44.1969    8.9313 H   0  0  0  0  0  0  0  0  0  0  0  0
   19.7704   45.8109    7.2986 H   0  0  0  0  0  0  0  0  0  0  0  0
   20.1727   45.5379    4.8439 H   0  0  0  0  0  0  0  0  0  0  0  0
   22.5511   41.9599    5.6452 H   0  0  0  0  0  0  0  0  0  0  0  0
   19.3675   42.1810    4.4250 H   0  0  0  0  0  0  0  0  0  0  0  0
   18.0394   40.5768    3.0356 H   0  0  0  0  0  0  0  0  0  0  0  0
   18.6795   40.1223    0.7026 H   0  0  0  0  0  0  0  0  0  0  0  0
   23.6099   45.1109    4.8297 H   0  0  0  0  0  0  0  0  0  0  0  0
   25.7246   45.8778    3.7696 H   0  0  0  0  0  0  0  0  0  0  0  0
   26.2432   45.3305    1.4207 H   0  0  0  0  0  0  0  0  0  0  0  0
  1 10  1  0
  2 10  1  0
  3 10  1  0
  4 22  1  0
  4 29  1  0
  5 23  2  0
  6 23  1  0
  7 30  2  0
  8 30  1  0
  9 15  1  0
  9 17  1  0
  9 24  1  0
 10 11  1  0
 11 12  2  0
 11 16  1  0
 12 13  1  0
 13 14  2  0
 14 15  1  0
 15 16  2  0
 17 18  2  0
 17 22  1  0
 18 19  1  0
 19 20  2  0
 20 21  1  0
 21 22  2  0
 21 23  1  0
 24 25  1  0
 24 29  2  0
 25 26  2  0
 26 27  1  0
 27 28  2  0
 28 29  1  0
 28 30  1  0
  6 31  1  0
  8 32  1  0
 12 33  1  0
 13 34  1  0
 14 35  1  0
 16 36  1  0
 18 37  1  0
 19 38  1  0
 20 39  1  0
 25 40  1  0
 26 41  1  0
 27 42  1  0
A    1
F1
A    2
F2
A    3
F3
A    4
O1
A    5
O2
A    6
O3
A    7
O4
A    8
O5
A    9
N1
A   10
C1
A   11
C2
A   12
C3
A   13
C4
A   14
C5
A   15
C6
A   16
C7
A   17
C8
A   18
C9
A   19
C10
A   20
C11
A   21
C12
A   22
C13
A   23
C14
A   24
C16
A   25
C17
A   26
C18
A   27
C19
A   28
C20
A   29
C21
A   30
C22
M  END
