1DWV_4AB_A_902
     RDKit          3D

 33 34  0  0  0  0  0  0  0  0999 V2000
  113.3570  111.4760   32.1020 N   0  0  0  0  0  0  0  0  0  0  0  0
  114.6170  111.8490   32.3610 C   0  0  0  0  0  0  0  0  0  0  0  0
  115.3800  112.2830   31.3610 N   0  0  0  0  0  0  0  0  0  0  0  0
  115.1120  111.8310   33.5940 N   0  0  0  0  0  0  0  0  0  0  0  0
  114.3560  111.4470   34.6130 C   0  0  0  0  0  0  0  0  0  0  0  0
  114.8060  111.5260   35.8420 N   0  0  0  0  0  0  0  0  0  0  0  0
  113.0810  110.9560   34.3940 C   0  0  0  0  0  0  0  0  0  0  0  0
  112.5750  111.0270   33.0860 C   0  0  0  0  0  0  0  0  0  0  0  0
  112.3880  110.4280   35.4030 N   0  0  0  0  0  0  0  0  0  0  0  0
  111.3190  110.6380   32.8300 N   0  0  0  0  0  0  0  0  0  0  0  0
  111.0790  109.8660   35.1370 C   0  0  0  0  0  0  0  0  0  0  0  0
  110.4400  110.3110   33.8940 C   0  0  0  0  0  0  0  0  0  0  0  0
  110.3440  109.5360   36.4080 C   0  0  0  0  0  0  0  0  0  0  0  0
  109.9820  110.7380   37.1010 O   0  0  0  0  0  0  0  0  0  0  0  0
  109.1220  108.6710   36.1520 C   0  0  0  0  0  0  0  0  0  0  0  0
  108.3710  108.3560   37.4510 C   0  0  0  0  0  0  0  0  0  0  0  0
  109.5390  107.4500   35.5260 O   0  0  0  0  0  0  0  0  0  0  0  0
  116.2580  112.7824   31.5624 H   0  0  0  0  0  0  0  0  0  0  0  0
  115.0926  112.1195   30.3855 H   0  0  0  0  0  0  0  0  0  0  0  0
  114.1592  111.4125   36.6355 H   0  0  0  0  0  0  0  0  0  0  0  0
  115.8063  111.7016   36.0139 H   0  0  0  0  0  0  0  0  0  0  0  0
  112.7769  110.4196   36.3567 H   0  0  0  0  0  0  0  0  0  0  0  0
  110.9900  110.5761   31.8559 H   0  0  0  0  0  0  0  0  0  0  0  0
  111.1242  108.8396   34.7440 H   0  0  0  0  0  0  0  0  0  0  0  0
  109.8412  111.2047   34.1237 H   0  0  0  0  0  0  0  0  0  0  0  0
  109.8481  109.4543   33.5395 H   0  0  0  0  0  0  0  0  0  0  0  0
  111.0255  108.9510   37.0431 H   0  0  0  0  0  0  0  0  0  0  0  0
  110.0288  110.5827   38.0776 H   0  0  0  0  0  0  0  0  0  0  0  0
  108.4349  109.2240   35.4947 H   0  0  0  0  0  0  0  0  0  0  0  0
  109.0017  108.6205   38.3125 H   0  0  0  0  0  0  0  0  0  0  0  0
  107.4388  108.9390   37.4862 H   0  0  0  0  0  0  0  0  0  0  0  0
  108.1336  107.2825   37.4862 H   0  0  0  0  0  0  0  0  0  0  0  0
  109.7666  106.7835   36.2217 H   0  0  0  0  0  0  0  0  0  0  0  0
  1  2  2  0
  1  8  1  0
  2  3  1  0
  2  4  1  0
  4  5  2  0
  5  6  1  0
  5  7  1  0
  7  8  2  0
  7  9  1  0
  8 10  1  0
  9 11  1  0
 10 12  1  0
 11 12  1  0
 11 13  1  0
 13 14  1  0
 13 15  1  0
 15 16  1  0
 15 17  1  0
  3 18  1  0
  3 19  1  0
  6 20  1  0
  6 21  1  0
  9 22  1  0
 10 23  1  0
 11 24  1  0
 12 25  1  0
 12 26  1  0
 13 27  1  0
 14 28  1  0
 15 29  1  0
 16 30  1  0
 16 31  1  0
 16 32  1  0
 17 33  1  0
A    1
N1
A    2
C2
A    3
N2
A    4
N3
A    5
C4
A    6
NH4
A    7
C4A
A    8
C8A
A    9
N5
A   10
N8
A   11
C6
A   12
C7
A   13
C9
A   14
O9
A   15
C10
A   16
C11
A   17
O10
M  END
