1DX4_760_A_607
     RDKit          3D

 42 45  0  0  0  0  0  0  0  0999 V2000
   31.1460   64.5180    9.7270 C   0  0  0  0  0  0  0  0  0  0  0  0
   30.1860   64.6930    8.5380 C   0  0  0  0  0  0  0  0  0  0  0  0
   29.8240   65.9930    8.5630 C   0  0  0  0  0  0  0  0  0  0  0  0
   31.1050   66.9730    8.2850 C   0  0  0  0  0  0  0  0  0  0  0  0
   33.6260   67.6310    8.3310 C   0  0  0  0  0  0  0  0  0  0  0  0
   35.8070   67.7410   10.0320 C   0  0  0  0  0  0  0  0  0  0  0  0
   36.8770   67.3910   11.0000 C   0  0  0  0  0  0  0  0  0  0  0  0
   36.7840   66.1440   11.6210 C   0  0  0  0  0  0  0  0  0  0  0  0
   35.6820   65.2880   11.3410 C   0  0  0  0  0  0  0  0  0  0  0  0
   33.4990   64.7250   10.2710 N   0  0  0  0  0  0  0  0  0  0  0  0
   32.6230   65.2610    9.6370 C   0  0  0  0  0  0  0  0  0  0  0  0
   32.5700   66.5480    8.8400 C   0  0  0  0  0  0  0  0  0  0  0  0
   34.5920   67.0380    9.5600 C   0  0  0  0  0  0  0  0  0  0  0  0
   34.5290   65.6200   10.3650 C   0  0  0  0  0  0  0  0  0  0  0  0
   33.5960   69.0700    8.2780 N   0  0  0  0  0  0  0  0  0  0  0  0
   32.3820   69.8410    7.9060 C   0  0  0  0  0  0  0  0  0  0  0  0
   31.2000   70.3000    8.8920 C   0  0  0  0  0  0  0  0  0  0  0  0
   30.4290   69.4960    9.7690 C   0  0  0  0  0  0  0  0  0  0  0  0
   29.4370   70.0470   10.4890 C   0  0  0  0  0  0  0  0  0  0  0  0
   29.1450   71.3840   10.3950 C   0  0  0  0  0  0  0  0  0  0  0  0
   29.8930   72.2010    9.5560 C   0  0  0  0  0  0  0  0  0  0  0  0
   30.9440   71.6820    8.7780 C   0  0  0  0  0  0  0  0  0  0  0  0
   30.6364   64.9064   10.6211 H   0  0  0  0  0  0  0  0  0  0  0  0
   31.3755   63.4424    9.7441 H   0  0  0  0  0  0  0  0  0  0  0  0
   30.6949   64.4525    7.5929 H   0  0  0  0  0  0  0  0  0  0  0  0
   29.3166   64.0230    8.6099 H   0  0  0  0  0  0  0  0  0  0  0  0
   29.0640   66.1682    7.7873 H   0  0  0  0  0  0  0  0  0  0  0  0
   29.4220   66.2221    9.5609 H   0  0  0  0  0  0  0  0  0  0  0  0
   31.1948   67.0809    7.1940 H   0  0  0  0  0  0  0  0  0  0  0  0
   30.8650   67.8815    8.8569 H   0  0  0  0  0  0  0  0  0  0  0  0
   35.9457   68.7289    9.5686 H   0  0  0  0  0  0  0  0  0  0  0  0
   37.7046   68.0821   11.2178 H   0  0  0  0  0  0  0  0  0  0  0  0
   37.5634   65.8227   12.3276 H   0  0  0  0  0  0  0  0  0  0  0  0
   35.6477   64.3174   11.8575 H   0  0  0  0  0  0  0  0  0  0  0  0
   34.4557   69.5882    8.5086 H   0  0  0  0  0  0  0  0  0  0  0  0
   32.7609   70.7731    7.4614 H   0  0  0  0  0  0  0  0  0  0  0  0
   31.8482   69.0713    7.3293 H   0  0  0  0  0  0  0  0  0  0  0  0
   30.6428   68.4208    9.8601 H   0  0  0  0  0  0  0  0  0  0  0  0
   28.8473   69.4130   11.1674 H   0  0  0  0  0  0  0  0  0  0  0  0
   28.3188   71.8093   10.9837 H   0  0  0  0  0  0  0  0  0  0  0  0
   29.6588   73.2743    9.4990 H   0  0  0  0  0  0  0  0  0  0  0  0
   31.5384   72.3244    8.1117 H   0  0  0  0  0  0  0  0  0  0  0  0
  1  2  1  0
  1 11  1  0
  2  3  1  0
  3  4  1  0
  4 12  1  0
  5 12  2  0
  5 13  1  0
  5 15  1  0
  6  7  1  0
  6 13  2  0
  7  8  2  0
  8  9  1  0
  9 14  2  0
 10 11  2  0
 10 14  1  0
 11 12  1  0
 13 14  1  0
 15 16  1  0
 16 17  1  0
 17 18  2  0
 17 22  1  0
 18 19  1  0
 19 20  2  0
 20 21  1  0
 21 22  2  0
  1 23  1  0
  1 24  1  0
  2 25  1  0
  2 26  1  0
  3 27  1  0
  3 28  1  0
  4 29  1  0
  4 30  1  0
  6 31  1  0
  7 32  1  0
  8 33  1  0
  9 34  1  0
 15 35  1  0
 16 36  1  0
 16 37  1  0
 18 38  1  0
 19 39  1  0
 20 40  1  0
 21 41  1  0
 22 42  1  0
A    1
C1
A    2
C2
A    3
C3
A    4
C4
A    5
C5
A    6
C6
A    7
C7
A    8
C8
A    9
C9
A   10
N10
A   11
C11
A   12
C12
A   13
C13
A   14
C14
A   15
N15
A   16
C17
A   17
C18
A   18
C19
A   19
C20
A   20
C21
A   21
C22
A   22
C23
M  END
