1DXO_DQN_A_302
     RDKit          3D

 24 24  0  0  0  0  0  0  0  0999 V2000
   20.3830   -5.4130    4.1650 C   0  0  0  0  0  0  0  0  0  0  0  0
   20.9660   -4.6930    3.3110 O   0  0  0  0  0  0  0  0  0  0  0  0
   19.7690   -4.7340    5.3760 C   0  0  0  0  0  0  0  0  0  0  0  0
   19.8130   -3.2140    5.4150 C   0  0  0  0  0  0  0  0  0  0  0  0
   19.1310   -5.4870    6.3580 C   0  0  0  0  0  0  0  0  0  0  0  0
   18.4950   -4.8250    7.5720 C   0  0  0  0  0  0  0  0  0  0  0  0
   19.0660   -7.0080    6.1970 C   0  0  0  0  0  0  0  0  0  0  0  0
   18.6220   -7.7420    7.0710 O   0  0  0  0  0  0  0  0  0  0  0  0
   19.6320   -7.6940    4.9710 C   0  0  0  0  0  0  0  0  0  0  0  0
   19.3060   -9.1600    4.8170 C   0  0  0  0  0  0  0  0  0  0  0  0
   20.2600   -6.9240    3.9930 C   0  0  0  0  0  0  0  0  0  0  0  0
   20.8740   -7.5360    2.7760 C   0  0  0  0  0  0  0  0  0  0  0  0
   19.8228   -2.8742    6.4612 H   0  0  0  0  0  0  0  0  0  0  0  0
   20.7218   -2.8603    4.9060 H   0  0  0  0  0  0  0  0  0  0  0  0
   18.9262   -2.8083    4.9060 H   0  0  0  0  0  0  0  0  0  0  0  0
   18.9149   -5.2620    8.4900 H   0  0  0  0  0  0  0  0  0  0  0  0
   18.7029   -3.7450    7.5517 H   0  0  0  0  0  0  0  0  0  0  0  0
   17.4076   -4.9895    7.5517 H   0  0  0  0  0  0  0  0  0  0  0  0
   19.2039   -9.6193    5.8113 H   0  0  0  0  0  0  0  0  0  0  0  0
   18.3616   -9.2695    4.2638 H   0  0  0  0  0  0  0  0  0  0  0  0
   20.1150   -9.6594    4.2638 H   0  0  0  0  0  0  0  0  0  0  0  0
   21.6229   -8.2825    3.0791 H   0  0  0  0  0  0  0  0  0  0  0  0
   20.0915   -8.0241    2.1765 H   0  0  0  0  0  0  0  0  0  0  0  0
   21.3596   -6.7519    2.1765 H   0  0  0  0  0  0  0  0  0  0  0  0
  1  2  2  0
  1  3  1  0
  1 11  1  0
  3  4  1  0
  3  5  2  0
  5  6  1  0
  5  7  1  0
  7  8  2  0
  7  9  1  0
  9 10  1  0
  9 11  2  0
 11 12  1  0
  4 13  1  0
  4 14  1  0
  4 15  1  0
  6 16  1  0
  6 17  1  0
  6 18  1  0
 10 19  1  0
 10 20  1  0
 10 21  1  0
 12 22  1  0
 12 23  1  0
 12 24  1  0
A    1
C1
A    2
O1
A    3
C2
A    4
C2M
A    5
C3
A    6
C3M
A    7
C4
A    8
O4
A    9
C5
A   10
C5M
A   11
C6
A   12
C6M
M  END
