1DY3_87Y_A_201
     RDKit          3D

 42 44  0  0  0  0  0  0  0  0999 V2000
   16.6360   30.9620   15.5010 N   0  0  0  0  0  0  0  0  0  0  0  0
   17.3990   31.7510   16.2930 C   0  0  0  0  0  0  0  0  0  0  0  0
   18.4720   32.2100   15.7890 O   0  0  0  0  0  0  0  0  0  0  0  0
   16.9420   31.8670   17.6730 C   0  0  0  0  0  0  0  0  0  0  0  0
   17.7180   32.5990   18.6070 N   0  0  0  0  0  0  0  0  0  0  0  0
   17.2880   32.8440   19.7840 C   0  0  0  0  0  0  0  0  0  0  0  0
   17.9240   33.7450   20.8070 C   0  0  0  0  0  0  0  0  0  0  0  0
   19.2710   33.6830   20.3890 O   0  0  0  0  0  0  0  0  0  0  0  0
   15.9290   32.4220   20.2890 C   0  0  0  0  0  0  0  0  0  0  0  0
   15.7640   32.0370   21.7350 C   0  0  0  0  0  0  0  0  0  0  0  0
   15.1810   33.8360   20.1080 C   0  0  0  0  0  0  0  0  0  0  0  0
   15.1930   31.6010   19.3130 N   0  0  0  0  0  0  0  0  0  0  0  0
   15.7410   31.4020   18.1030 C   0  0  0  0  0  0  0  0  0  0  0  0
   15.0430   30.6280   17.1430 N   0  0  0  0  0  0  0  0  0  0  0  0
   15.5120   30.3920   15.9410 C   0  0  0  0  0  0  0  0  0  0  0  0
   14.8250   29.5970   15.1340 N   0  0  0  0  0  0  0  0  0  0  0  0
   16.5780   30.6970   21.8470 C   0  0  0  0  0  0  0  0  0  0  0  0
   16.0970   30.0550   23.1220 C   0  0  0  0  0  0  0  0  0  0  0  0
   16.2830   30.6070   24.3760 C   0  0  0  0  0  0  0  0  0  0  0  0
   15.8820   30.0410   25.5890 C   0  0  0  0  0  0  0  0  0  0  0  0
   15.2350   28.7980   25.5250 C   0  0  0  0  0  0  0  0  0  0  0  0
   15.0530   28.2380   24.2560 C   0  0  0  0  0  0  0  0  0  0  0  0
   15.4590   28.7970   23.0390 C   0  0  0  0  0  0  0  0  0  0  0  0
   16.9319   30.7962   14.5284 H   0  0  0  0  0  0  0  0  0  0  0  0
   17.5266   34.7692   20.7515 H   0  0  0  0  0  0  0  0  0  0  0  0
   17.7507   33.4514   21.8528 H   0  0  0  0  0  0  0  0  0  0  0  0
   19.8619   33.6558   21.1828 H   0  0  0  0  0  0  0  0  0  0  0  0
   16.1818   32.8086   22.3984 H   0  0  0  0  0  0  0  0  0  0  0  0
   14.7111   31.9276   22.0341 H   0  0  0  0  0  0  0  0  0  0  0  0
   14.9561   34.2611   21.0973 H   0  0  0  0  0  0  0  0  0  0  0  0
   15.8318   34.5265   19.5515 H   0  0  0  0  0  0  0  0  0  0  0  0
   14.2440   33.6866   19.5515 H   0  0  0  0  0  0  0  0  0  0  0  0
   14.2798   31.1892   19.5525 H   0  0  0  0  0  0  0  0  0  0  0  0
   14.2027   28.8769   15.5277 H   0  0  0  0  0  0  0  0  0  0  0  0
   14.9132   29.6991   14.1129 H   0  0  0  0  0  0  0  0  0  0  0  0
   16.3719   30.0461   20.9846 H   0  0  0  0  0  0  0  0  0  0  0  0
   17.6639   30.8724   21.8564 H   0  0  0  0  0  0  0  0  0  0  0  0
   16.7931   31.5804   24.4230 H   0  0  0  0  0  0  0  0  0  0  0  0
   16.0650   30.5463   26.5488 H   0  0  0  0  0  0  0  0  0  0  0  0
   14.8858   28.2856   26.4336 H   0  0  0  0  0  0  0  0  0  0  0  0
   14.5418   27.2651   24.2104 H   0  0  0  0  0  0  0  0  0  0  0  0
   15.2919   28.2888   22.0779 H   0  0  0  0  0  0  0  0  0  0  0  0
  1  2  1  0
  1 15  1  0
  2  3  2  0
  2  4  1  0
  4  5  1  0
  4 13  2  0
  5  6  2  0
  6  7  1  0
  6  9  1  0
  7  8  1  0
  9 10  1  0
  9 11  1  0
  9 12  1  0
 10 17  1  0
 12 13  1  0
 13 14  1  0
 14 15  2  0
 15 16  1  0
 17 18  1  0
 18 19  2  0
 18 23  1  0
 19 20  1  0
 20 21  2  0
 21 22  1  0
 22 23  2  0
  1 24  1  0
  7 25  1  0
  7 26  1  0
  8 27  1  0
 10 28  1  0
 10 29  1  0
 11 30  1  0
 11 31  1  0
 11 32  1  0
 12 33  1  0
 16 34  1  0
 16 35  1  0
 17 36  1  0
 17 37  1  0
 19 38  1  0
 20 39  1  0
 21 40  1  0
 22 41  1  0
 23 42  1  0
A    1
N2
A    2
C3
A    3
O8
A    4
C7
A    5
N10
A    6
C12
A    7
C15
A    8
O16
A    9
C11
A   10
C14
A   11
C13
A   12
N9
A   13
C6
A   14
N4
A   15
C1
A   16
N5
A   17
C17
A   18
C18
A   19
C19
A   20
C20
A   21
C21
A   22
C22
A   23
C23
M  END
