1CDE_DZF_A_225
     RDKit          3D

 52 54  0  0  0  0  0  0  0  0999 V2000
   -7.3900   -8.6320    1.2710 N   0  0  0  0  0  0  0  0  0  0  0  0
   -7.6060   -9.2720    0.0920 C   0  0  0  0  0  0  0  0  0  0  0  0
   -8.8140   -9.5990   -0.2450 N   0  0  0  0  0  0  0  0  0  0  0  0
   -6.6290   -9.7000   -0.6550 N   0  0  0  0  0  0  0  0  0  0  0  0
   -5.3860   -9.5160   -0.2830 C   0  0  0  0  0  0  0  0  0  0  0  0
   -4.5330  -10.0130   -1.0220 O   0  0  0  0  0  0  0  0  0  0  0  0
   -5.1190   -8.8300    0.9400 C   0  0  0  0  0  0  0  0  0  0  0  0
   -3.7640   -8.4410    1.2470 C   0  0  0  0  0  0  0  0  0  0  0  0
   -3.5570   -8.1330    2.7090 C   0  0  0  0  0  0  0  0  0  0  0  0
   -4.6940   -7.3340    3.3450 C   0  0  0  0  0  0  0  0  0  0  0  0
   -6.0100   -7.8140    2.8700 N   0  0  0  0  0  0  0  0  0  0  0  0
   -6.1740   -8.3960    1.7070 C   0  0  0  0  0  0  0  0  0  0  0  0
   -3.2950   -9.4750    3.3650 C   0  0  0  0  0  0  0  0  0  0  0  0
   -2.8620   -9.0730    4.6920 N   0  0  0  0  0  0  0  0  0  0  0  0
   -4.4600  -10.5510    8.1500 C   0  0  0  0  0  0  0  0  0  0  0  0
   -4.7720  -11.1620    6.9340 C   0  0  0  0  0  0  0  0  0  0  0  0
   -4.1770  -10.7640    5.7570 C   0  0  0  0  0  0  0  0  0  0  0  0
   -3.2490   -9.7300    5.7890 C   0  0  0  0  0  0  0  0  0  0  0  0
   -2.9300   -9.1260    6.9990 C   0  0  0  0  0  0  0  0  0  0  0  0
   -3.5330   -9.5290    8.1720 C   0  0  0  0  0  0  0  0  0  0  0  0
   -5.0460  -10.9890    9.4010 C   0  0  0  0  0  0  0  0  0  0  0  0
   -4.9400  -10.4260   10.4920 O   0  0  0  0  0  0  0  0  0  0  0  0
   -5.7970  -12.0630    9.2890 N   0  0  0  0  0  0  0  0  0  0  0  0
   -6.4890  -12.7780   10.3810 C   0  0  0  0  0  0  0  0  0  0  0  0
   -7.6930  -11.9090   10.9650 C   0  0  0  0  0  0  0  0  0  0  0  0
   -9.0060  -11.6280   10.1610 C   0  0  0  0  0  0  0  0  0  0  0  0
   -8.9150  -10.4310    9.2290 C   0  0  0  0  0  0  0  0  0  0  0  0
   -9.8430   -9.6500    9.0640 O   0  0  0  0  0  0  0  0  0  0  0  0
   -7.7860  -10.3190    8.4990 O   0  0  0  0  0  0  0  0  0  0  0  0
   -6.9780  -14.1150    9.7550 C   0  0  0  0  0  0  0  0  0  0  0  0
   -7.8560  -14.8470   10.2150 O   0  0  0  0  0  0  0  0  0  0  0  0
   -6.2730  -14.5030    8.6440 O   0  0  0  0  0  0  0  0  0  0  0  0
   -8.1963   -8.3258    1.8341 H   0  0  0  0  0  0  0  0  0  0  0  0
   -9.5179   -9.7895    0.4824 H   0  0  0  0  0  0  0  0  0  0  0  0
   -9.0701   -9.6683   -1.2402 H   0  0  0  0  0  0  0  0  0  0  0  0
   -2.9652   -8.3758    0.4935 H   0  0  0  0  0  0  0  0  0  0  0  0
   -4.5525   -6.5111    4.0611 H   0  0  0  0  0  0  0  0  0  0  0  0
   -4.2091  -10.0854    3.4090 H   0  0  0  0  0  0  0  0  0  0  0  0
   -2.5672  -10.1008    2.8277 H   0  0  0  0  0  0  0  0  0  0  0  0
   -2.2391   -8.2586    4.7899 H   0  0  0  0  0  0  0  0  0  0  0  0
   -5.5087  -11.9787    6.9154 H   0  0  0  0  0  0  0  0  0  0  0  0
   -4.4323  -11.2567    4.8072 H   0  0  0  0  0  0  0  0  0  0  0  0
   -2.1866   -8.3156    7.0216 H   0  0  0  0  0  0  0  0  0  0  0  0
   -3.2759   -9.0375    9.1219 H   0  0  0  0  0  0  0  0  0  0  0  0
   -5.9151  -12.4458    8.3401 H   0  0  0  0  0  0  0  0  0  0  0  0
   -5.8253  -12.9646   11.2381 H   0  0  0  0  0  0  0  0  0  0  0  0
   -8.0065  -12.4095   11.8930 H   0  0  0  0  0  0  0  0  0  0  0  0
   -7.2417  -10.9068   11.0091 H   0  0  0  0  0  0  0  0  0  0  0  0
   -9.2404  -12.5183    9.5590 H   0  0  0  0  0  0  0  0  0  0  0  0
   -9.7886  -11.3983   10.8991 H   0  0  0  0  0  0  0  0  0  0  0  0
   -6.9101  -10.2321    8.9522 H   0  0  0  0  0  0  0  0  0  0  0  0
   -5.4103  -14.9778    8.7460 H   0  0  0  0  0  0  0  0  0  0  0  0
  1  2  1  0
  1 12  1  0
  2  3  1  0
  2  4  2  0
  4  5  1  0
  5  6  2  0
  5  7  1  0
  7  8  1  0
  7 12  2  0
  8  9  2  0
  9 10  1  0
  9 13  1  0
 10 11  2  0
 11 12  1  0
 13 14  1  0
 14 18  1  0
 15 16  2  0
 15 20  1  0
 15 21  1  0
 16 17  1  0
 17 18  2  0
 18 19  1  0
 19 20  2  0
 21 22  2  0
 21 23  1  0
 23 24  1  0
 24 25  1  0
 24 30  1  0
 25 26  1  0
 26 27  1  0
 27 28  2  0
 27 29  1  0
 30 31  2  0
 30 32  1  0
  1 33  1  0
  3 34  1  0
  3 35  1  0
  8 36  1  0
 10 37  1  0
 13 38  1  0
 13 39  1  0
 14 40  1  0
 16 41  1  0
 17 42  1  0
 19 43  1  0
 20 44  1  0
 23 45  1  0
 24 46  1  0
 25 47  1  0
 25 48  1  0
 26 49  1  0
 26 50  1  0
 29 51  1  0
 32 52  1  0
A    1
N1
A    2
C2
A    3
NA2
A    4
N3
A    5
C4
A    6
O4
A    7
C4A
A    8
C5
A    9
C6
A   10
C7
A   11
N8
A   12
C8A
A   13
C9
A   14
N10
A   15
C11
A   16
C12
A   17
C13
A   18
C14
A   19
C15
A   20
C16
A   21
C
A   22
O
A   23
N
A   24
CA
A   25
CB
A   26
CG
A   27
CD
A   28
OE1
A   29
OE2
A   30
CT
A   31
O1
A   32
O2
M  END
