1E00_DHM_A_600
     RDKit          3D

 31 30  0  0  0  0  0  0  0  0999 V2000
    1.3800   23.8270    9.5580 C   0  0  0  0  0  0  0  0  0  0  0  0
    1.7000   24.4500   10.8050 C   0  0  0  0  0  0  0  0  0  0  0  0
    1.4410   25.9270   10.9740 C   0  0  0  0  0  0  0  0  0  0  0  0
    0.5910   26.2120   12.2120 C   0  0  0  0  0  0  0  0  0  0  0  0
   -0.8610   26.3940   11.8790 C   0  0  0  0  0  0  0  0  0  0  0  0
   -1.5420   27.4100   12.8070 C   0  0  0  0  0  0  0  0  0  0  0  0
   -2.3440   26.7260   13.8750 C   0  0  0  0  0  0  0  0  0  0  0  0
   -1.6250   26.9260   15.1760 C   0  0  0  0  0  0  0  0  0  0  0  0
   -2.3040   25.2650   13.5640 C   0  0  0  0  0  0  0  0  0  0  0  0
    2.7700   26.5980   11.0990 C   0  0  0  0  0  0  0  0  0  0  0  0
   -3.7730   27.1630   14.0030 O   0  0  0  0  0  0  0  0  0  0  0  0
    1.5624   22.7513    9.4178 H   0  0  0  0  0  0  0  0  0  0  0  0
    0.9515   24.4235    8.7391 H   0  0  0  0  0  0  0  0  0  0  0  0
    2.1288   23.8609   11.6291 H   0  0  0  0  0  0  0  0  0  0  0  0
    0.8809   26.3076   10.1072 H   0  0  0  0  0  0  0  0  0  0  0  0
    0.6902   25.3682   12.9106 H   0  0  0  0  0  0  0  0  0  0  0  0
    0.9529   27.1497   12.6589 H   0  0  0  0  0  0  0  0  0  0  0  0
   -0.9454   26.7489   10.8413 H   0  0  0  0  0  0  0  0  0  0  0  0
   -1.3634   25.4243   12.0105 H   0  0  0  0  0  0  0  0  0  0  0  0
   -0.7704   28.0330   13.2829 H   0  0  0  0  0  0  0  0  0  0  0  0
   -2.2246   28.0262   12.2034 H   0  0  0  0  0  0  0  0  0  0  0  0
   -2.3159   26.7338   16.0101 H   0  0  0  0  0  0  0  0  0  0  0  0
   -0.7752   26.2301   15.2360 H   0  0  0  0  0  0  0  0  0  0  0  0
   -1.2566   27.9607   15.2360 H   0  0  0  0  0  0  0  0  0  0  0  0
   -2.2883   24.6907   14.5021 H   0  0  0  0  0  0  0  0  0  0  0  0
   -3.1949   24.9898   12.9805 H   0  0  0  0  0  0  0  0  0  0  0  0
   -1.3993   25.0390   12.9805 H   0  0  0  0  0  0  0  0  0  0  0  0
    3.0187   26.7236   12.1631 H   0  0  0  0  0  0  0  0  0  0  0  0
    3.5397   25.9805   10.6130 H   0  0  0  0  0  0  0  0  0  0  0  0
    2.7301   27.5840   10.6130 H   0  0  0  0  0  0  0  0  0  0  0  0
   -4.0112   27.2359   14.9611 H   0  0  0  0  0  0  0  0  0  0  0  0
  1  2  2  3
  2  3  1  0
  3  4  1  0
  3 10  1  0
  4  5  1  0
  5  6  1  0
  6  7  1  0
  7  8  1  0
  7  9  1  0
  7 11  1  0
  1 12  1  0
  1 13  1  0
  2 14  1  0
  3 15  1  0
  4 16  1  0
  4 17  1  0
  5 18  1  0
  5 19  1  0
  6 20  1  0
  6 21  1  0
  8 22  1  0
  8 23  1  0
  8 24  1  0
  9 25  1  0
  9 26  1  0
  9 27  1  0
 10 28  1  0
 10 29  1  0
 10 30  1  0
 11 31  1  0
A    1
C7
A    2
C6
A    3
C5
A    4
C4
A    5
C3
A    6
C2
A    7
C1
A    8
C8
A    9
C9
A   10
C10
A   11
O1
M  END
