1E02_UNA_A_600
     RDKit          3D

 34 33  0  0  0  0  0  0  0  0999 V2000
   -0.3830   26.7480   10.7750 C   0  0  0  0  0  0  0  0  0  0  0  0
    0.6160   25.5470   10.8870 C   0  0  0  0  0  0  0  0  0  0  0  0
    1.9160   25.9320   11.4160 C   0  0  0  0  0  0  0  0  0  0  0  0
    2.0120   27.3970   11.6870 C   0  0  0  0  0  0  0  0  0  0  0  0
    3.1190   27.8660   12.8070 C   0  0  0  0  0  0  0  0  0  0  0  0
    2.6120   28.1040   14.2600 C   0  0  0  0  0  0  0  0  0  0  0  0
    1.1560   27.7040   14.4190 C   0  0  0  0  0  0  0  0  0  0  0  0
    0.3270   28.9690   14.8550 C   0  0  0  0  0  0  0  0  0  0  0  0
   -1.0620   28.9080   14.1810 C   0  0  0  0  0  0  0  0  0  0  0  0
   -1.6010   27.3960   14.2820 C   0  0  0  0  0  0  0  0  0  0  0  0
   -2.9520   27.2540   13.7050 C   0  0  0  0  0  0  0  0  0  0  0  0
   -2.9100   26.2050   13.2270 O   0  0  0  0  0  0  0  0  0  0  0  0
   -0.6643   27.0862   11.7832 H   0  0  0  0  0  0  0  0  0  0  0  0
    0.0973   27.5750   10.2316 H   0  0  0  0  0  0  0  0  0  0  0  0
   -1.2837   26.4263   10.2316 H   0  0  0  0  0  0  0  0  0  0  0  0
    0.1781   24.7885   11.5525 H   0  0  0  0  0  0  0  0  0  0  0  0
    0.7777   25.1595    9.8703 H   0  0  0  0  0  0  0  0  0  0  0  0
    2.0898   25.3873   12.3557 H   0  0  0  0  0  0  0  0  0  0  0  0
    2.6727   25.6821   10.6577 H   0  0  0  0  0  0  0  0  0  0  0  0
    2.2635   27.8961   10.7395 H   0  0  0  0  0  0  0  0  0  0  0  0
    1.0356   27.6791   12.1078 H   0  0  0  0  0  0  0  0  0  0  0  0
    3.8939   27.0865   12.8515 H   0  0  0  0  0  0  0  0  0  0  0  0
    3.4648   28.8525   12.4647 H   0  0  0  0  0  0  0  0  0  0  0  0
    3.2234   27.5075   14.9531 H   0  0  0  0  0  0  0  0  0  0  0  0
    2.6989   29.1778   14.4821 H   0  0  0  0  0  0  0  0  0  0  0  0
    0.7711   27.3216   13.4621 H   0  0  0  0  0  0  0  0  0  0  0  0
    1.0659   26.9169   15.1822 H   0  0  0  0  0  0  0  0  0  0  0  0
    0.2078   28.9745   15.9485 H   0  0  0  0  0  0  0  0  0  0  0  0
    0.8525   29.8853   14.5479 H   0  0  0  0  0  0  0  0  0  0  0  0
   -1.7569   29.5867   14.6972 H   0  0  0  0  0  0  0  0  0  0  0  0
   -0.9881   29.2165   13.1277 H   0  0  0  0  0  0  0  0  0  0  0  0
   -0.9105   26.7351   13.7376 H   0  0  0  0  0  0  0  0  0  0  0  0
   -1.6543   27.1233   15.3463 H   0  0  0  0  0  0  0  0  0  0  0  0
   -3.7882   27.9684   13.7256 H   0  0  0  0  0  0  0  0  0  0  0  0
  1  2  1  0
  2  3  1  0
  3  4  1  0
  4  5  1  0
  5  6  1  0
  6  7  1  0
  7  8  1  0
  8  9  1  0
  9 10  1  0
 10 11  1  0
 11 12  2  0
  1 13  1  0
  1 14  1  0
  1 15  1  0
  2 16  1  0
  2 17  1  0
  3 18  1  0
  3 19  1  0
  4 20  1  0
  4 21  1  0
  5 22  1  0
  5 23  1  0
  6 24  1  0
  6 25  1  0
  7 26  1  0
  7 27  1  0
  8 28  1  0
  8 29  1  0
  9 30  1  0
  9 31  1  0
 10 32  1  0
 10 33  1  0
 11 34  1  0
A    1
C11
A    2
C10
A    3
C9
A    4
C8
A    5
C7
A    6
C6
A    7
C5
A    8
C4
A    9
C3
A   10
C2
A   11
C1
A   12
O1
M  END
