1E06_IPB_A_600
     RDKit          3D

 25 25  0  0  0  0  0  0  0  0999 V2000
   -0.3210   26.5360   12.3200 C   0  0  0  0  0  0  0  0  0  0  0  0
   -0.8400   25.3960   12.6760 C   0  0  0  0  0  0  0  0  0  0  0  0
   -2.1600   25.3250   13.3620 C   0  0  0  0  0  0  0  0  0  0  0  0
   -2.8440   26.4530   13.6290 C   0  0  0  0  0  0  0  0  0  0  0  0
   -2.2690   27.6790   13.2360 C   0  0  0  0  0  0  0  0  0  0  0  0
   -1.0940   27.7760   12.6170 C   0  0  0  0  0  0  0  0  0  0  0  0
    1.0310   26.6190   11.6050 C   0  0  0  0  0  0  0  0  0  0  0  0
   -4.1540   26.4090   14.2980 C   0  0  0  0  0  0  0  0  0  0  0  0
   -0.6470   29.0110   12.3010 O   0  0  0  0  0  0  0  0  0  0  0  0
    2.1090   25.7470   12.2720 C   0  0  0  0  0  0  0  0  0  0  0  0
    0.9270   26.2790   10.1480 C   0  0  0  0  0  0  0  0  0  0  0  0
   -0.2919   24.4658   12.4656 H   0  0  0  0  0  0  0  0  0  0  0  0
   -2.5767   24.3489   13.6510 H   0  0  0  0  0  0  0  0  0  0  0  0
   -2.8210   28.6055   13.4525 H   0  0  0  0  0  0  0  0  0  0  0  0
    1.3428   27.6702   11.6933 H   0  0  0  0  0  0  0  0  0  0  0  0
   -4.0092   26.4139   15.3884 H   0  0  0  0  0  0  0  0  0  0  0  0
   -4.7462   27.2878   14.0028 H   0  0  0  0  0  0  0  0  0  0  0  0
   -4.6859   25.4925   14.0028 H   0  0  0  0  0  0  0  0  0  0  0  0
   -0.4150   29.6521   13.0188 H   0  0  0  0  0  0  0  0  0  0  0  0
    2.0164   25.8219   13.3655 H   0  0  0  0  0  0  0  0  0  0  0  0
    1.9758   24.6995   11.9637 H   0  0  0  0  0  0  0  0  0  0  0  0
    3.1055   26.0961   11.9637 H   0  0  0  0  0  0  0  0  0  0  0  0
    0.6069   25.2324   10.0377 H   0  0  0  0  0  0  0  0  0  0  0  0
    0.1901   26.9403    9.6689 H   0  0  0  0  0  0  0  0  0  0  0  0
    1.9078   26.4149    9.6689 H   0  0  0  0  0  0  0  0  0  0  0  0
  1  2  2  0
  1  6  1  0
  1  7  1  0
  2  3  1  0
  3  4  2  0
  4  5  1  0
  4  8  1  0
  5  6  2  0
  6  9  1  0
  7 10  1  0
  7 11  1  0
  2 12  1  0
  3 13  1  0
  5 14  1  0
  7 15  1  0
  8 16  1  0
  8 17  1  0
  8 18  1  0
  9 19  1  0
 10 20  1  0
 10 21  1  0
 10 22  1  0
 11 23  1  0
 11 24  1  0
 11 25  1  0
A    1
C4
A    2
C5
A    3
C6
A    4
C1
A    5
C2
A    6
C3
A    7
C8
A    8
C7
A    9
O
A   10
C9
A   11
C10
M  END
