1E2I_APS_A_500
     RDKit          3D

 25 26  0  0  0  0  0  0  0  0999 V2000
   48.5590   34.0030   -0.3690 C   0  0  0  0  0  0  0  0  0  0  0  0
   49.7670   33.8940    0.6430 C   0  0  0  0  0  0  0  0  0  0  0  0
   49.4630   34.6750    1.9160 O   0  0  0  0  0  0  0  0  0  0  0  0
   49.8670   32.5220    0.9490 C   0  0  0  0  0  0  0  0  0  0  0  0
   46.1230   33.2870    0.2060 C   0  0  0  0  0  0  0  0  0  0  0  0
   45.2310   33.7260    1.1960 C   0  0  0  0  0  0  0  0  0  0  0  0
   43.9300   33.1520    1.2930 C   0  0  0  0  0  0  0  0  0  0  0  0
   43.5890   32.1850    0.4110 N   0  0  0  0  0  0  0  0  0  0  0  0
   44.5220   31.8110   -0.5300 C   0  0  0  0  0  0  0  0  0  0  0  0
   43.1330   33.6530    2.3000 N   0  0  0  0  0  0  0  0  0  0  0  0
   47.2840   34.0490    0.3930 N   0  0  0  0  0  0  0  0  0  0  0  0
   45.8170   34.7340    1.9840 N   0  0  0  0  0  0  0  0  0  0  0  0
   47.0620   34.9250    1.4940 C   0  0  0  0  0  0  0  0  0  0  0  0
   45.7670   32.3030   -0.6870 N   0  0  0  0  0  0  0  0  0  0  0  0
   48.6627   34.9198   -0.9679 H   0  0  0  0  0  0  0  0  0  0  0  0
   48.5579   33.1296   -1.0377 H   0  0  0  0  0  0  0  0  0  0  0  0
   50.6950   34.3014    0.2153 H   0  0  0  0  0  0  0  0  0  0  0  0
   49.6800   34.1176    2.7049 H   0  0  0  0  0  0  0  0  0  0  0  0
   49.8766   32.3896    2.0410 H   0  0  0  0  0  0  0  0  0  0  0  0
   49.0054   31.9874    0.5224 H   0  0  0  0  0  0  0  0  0  0  0  0
   50.7970   32.1180    0.5224 H   0  0  0  0  0  0  0  0  0  0  0  0
   44.2169   31.0217   -1.2328 H   0  0  0  0  0  0  0  0  0  0  0  0
   43.3869   33.4934    3.2854 H   0  0  0  0  0  0  0  0  0  0  0  0
   42.2836   34.1870    2.0671 H   0  0  0  0  0  0  0  0  0  0  0  0
   47.7930   35.6474    1.8860 H   0  0  0  0  0  0  0  0  0  0  0  0
  1  2  1  0
  1 11  1  0
  2  3  1  0
  2  4  1  0
  5  6  1  0
  5 11  1  0
  5 14  2  0
  6  7  2  0
  6 12  1  0
  7  8  1  0
  7 10  1  0
  8  9  2  0
  9 14  1  0
 11 13  1  0
 12 13  2  0
  1 15  1  0
  1 16  1  0
  2 17  1  0
  3 18  1  0
  4 19  1  0
  4 20  1  0
  4 21  1  0
  9 22  1  0
 10 23  1  0
 10 24  1  0
 13 25  1  0
A    1
C7
A    2
C8
A    3
O1
A    4
C9
A    5
C4
A    6
C3
A    7
C2
A    8
N2
A    9
C1
A   10
N5
A   11
N4
A   12
N3
A   13
C6
A   14
N1
M  END
