1E2M_HPT_A_500
     RDKit          3D

 25 25  0  0  0  0  0  0  0  0999 V2000
   43.0540   34.2260    1.6240 O   0  0  0  0  0  0  0  0  0  0  0  0
   45.3940   34.6570    1.2040 C   0  0  0  0  0  0  0  0  0  0  0  0
   45.4610   35.8080    2.1440 C   0  0  0  0  0  0  0  0  0  0  0  0
   46.4560   34.3210    0.4020 C   0  0  0  0  0  0  0  0  0  0  0  0
   45.1830   32.4320   -0.5480 C   0  0  0  0  0  0  0  0  0  0  0  0
   46.3500   33.2260   -0.4700 N   0  0  0  0  0  0  0  0  0  0  0  0
   44.1520   33.8790    1.1840 C   0  0  0  0  0  0  0  0  0  0  0  0
   44.0790   32.7640    0.2850 N   0  0  0  0  0  0  0  0  0  0  0  0
   45.1340   31.4820   -1.3210 O   0  0  0  0  0  0  0  0  0  0  0  0
   50.9580   34.2460    0.3070 O   0  0  0  0  0  0  0  0  0  0  0  0
   47.7390   35.0920    0.4010 C   0  0  0  0  0  0  0  0  0  0  0  0
   48.8480   34.6890    1.4020 C   0  0  0  0  0  0  0  0  0  0  0  0
   50.2100   35.2750    1.0100 C   0  0  0  0  0  0  0  0  0  0  0  0
   45.4394   35.4375    3.1795 H   0  0  0  0  0  0  0  0  0  0  0  0
   46.3932   36.3666    1.9738 H   0  0  0  0  0  0  0  0  0  0  0  0
   44.5999   36.4710    1.9738 H   0  0  0  0  0  0  0  0  0  0  0  0
   47.1508   32.9928   -1.0743 H   0  0  0  0  0  0  0  0  0  0  0  0
   43.2192   32.1985    0.2422 H   0  0  0  0  0  0  0  0  0  0  0  0
   51.3933   33.6472    0.9643 H   0  0  0  0  0  0  0  0  0  0  0  0
   48.1673   35.0068   -0.6086 H   0  0  0  0  0  0  0  0  0  0  0  0
   47.4441   36.1023    0.7210 H   0  0  0  0  0  0  0  0  0  0  0  0
   48.5762   35.0580    2.4020 H   0  0  0  0  0  0  0  0  0  0  0  0
   48.9329   33.5923    1.3946 H   0  0  0  0  0  0  0  0  0  0  0  0
   50.7575   35.5828    1.9131 H   0  0  0  0  0  0  0  0  0  0  0  0
   50.0749   36.1560    0.3653 H   0  0  0  0  0  0  0  0  0  0  0  0
  1  7  2  0
  2  3  1  0
  2  4  2  0
  2  7  1  0
  4  6  1  0
  4 11  1  0
  5  6  1  0
  5  8  1  0
  5  9  2  0
  7  8  1  0
 10 13  1  0
 11 12  1  0
 12 13  1  0
  3 14  1  0
  3 15  1  0
  3 16  1  0
  6 17  1  0
  8 18  1  0
 10 19  1  0
 11 20  1  0
 11 21  1  0
 12 22  1  0
 12 23  1  0
 13 24  1  0
 13 25  1  0
A    1
O2
A    2
C3
A    3
C4
A    4
C5
A    5
C1
A    6
N1
A    7
C2
A    8
N2
A    9
O1
A   10
O3
A   11
C11
A   12
C12
A   13
C13
M  END
