1E2N_RCA_A_500
     RDKit          3D

 37 38  0  0  0  0  0  0  0  0999 V2000
   42.9340   35.0230    1.9530 O   0  0  0  0  0  0  0  0  0  0  0  0
   45.2780   35.5490    1.5000 C   0  0  0  0  0  0  0  0  0  0  0  0
   45.3400   36.6850    2.4570 C   0  0  0  0  0  0  0  0  0  0  0  0
   46.3690   35.1850    0.7610 C   0  0  0  0  0  0  0  0  0  0  0  0
   45.0990   33.3610   -0.3090 C   0  0  0  0  0  0  0  0  0  0  0  0
   46.2960   34.1070   -0.1380 N   0  0  0  0  0  0  0  0  0  0  0  0
   44.0040   34.8270    1.3770 C   0  0  0  0  0  0  0  0  0  0  0  0
   43.9640   33.7310    0.4490 N   0  0  0  0  0  0  0  0  0  0  0  0
   45.0790   32.4270   -1.1030 O   0  0  0  0  0  0  0  0  0  0  0  0
   50.0940   35.8380    1.7500 C   0  0  0  0  0  0  0  0  0  0  0  0
   52.3170   32.9590    1.7190 O   0  0  0  0  0  0  0  0  0  0  0  0
   48.7240   33.6120   -0.8210 O   0  0  0  0  0  0  0  0  0  0  0  0
   51.1550   34.8870    2.2220 N   0  0  0  0  0  0  0  0  0  0  0  0
   51.4570   33.7720    1.4010 C   0  0  0  0  0  0  0  0  0  0  0  0
   50.7100   36.7520    0.6480 C   0  0  0  0  0  0  0  0  0  0  0  0
   50.6600   38.0720    1.1320 O   0  0  0  0  0  0  0  0  0  0  0  0
   48.8960   34.9790    1.2200 C   0  0  0  0  0  0  0  0  0  0  0  0
   50.6960   33.5570    0.2050 N   0  0  0  0  0  0  0  0  0  0  0  0
   49.4240   34.1590    0.0240 C   0  0  0  0  0  0  0  0  0  0  0  0
   47.7090   35.8840    0.8520 C   0  0  0  0  0  0  0  0  0  0  0  0
   48.5080   33.9950    2.3210 C   0  0  0  0  0  0  0  0  0  0  0  0
   45.3189   36.2986    3.4867 H   0  0  0  0  0  0  0  0  0  0  0  0
   46.2703   37.2495    2.2962 H   0  0  0  0  0  0  0  0  0  0  0  0
   44.4767   37.3474    2.2962 H   0  0  0  0  0  0  0  0  0  0  0  0
   47.1301   33.8518   -0.6858 H   0  0  0  0  0  0  0  0  0  0  0  0
   43.0878   33.2022    0.3330 H   0  0  0  0  0  0  0  0  0  0  0  0
   49.7234   36.4922    2.5529 H   0  0  0  0  0  0  0  0  0  0  0  0
   51.6476   35.0398    3.1136 H   0  0  0  0  0  0  0  0  0  0  0  0
   51.7527   36.4600    0.4546 H   0  0  0  0  0  0  0  0  0  0  0  0
   50.1524   36.6589   -0.2956 H   0  0  0  0  0  0  0  0  0  0  0  0
   50.6604   38.0607    2.1219 H   0  0  0  0  0  0  0  0  0  0  0  0
   51.0799   32.9542   -0.5367 H   0  0  0  0  0  0  0  0  0  0  0  0
   47.9207   36.3423   -0.1253 H   0  0  0  0  0  0  0  0  0  0  0  0
   47.6173   36.6144    1.6694 H   0  0  0  0  0  0  0  0  0  0  0  0
   48.6892   34.4544    3.3039 H   0  0  0  0  0  0  0  0  0  0  0  0
   47.4421   33.7403    2.2262 H   0  0  0  0  0  0  0  0  0  0  0  0
   49.1132   33.0813    2.2262 H   0  0  0  0  0  0  0  0  0  0  0  0
  1  7  2  0
  2  3  1  0
  2  4  2  0
  2  7  1  0
  4  6  1  0
  4 20  1  0
  5  6  1  0
  5  8  1  0
  5  9  2  0
  7  8  1  0
 10 13  1  0
 10 15  1  0
 10 17  1  0
 11 14  2  0
 12 19  2  0
 13 14  1  0
 14 18  1  0
 15 16  1  0
 17 19  1  0
 17 20  1  0
 17 21  1  0
 18 19  1  0
  3 22  1  0
  3 23  1  0
  3 24  1  0
  6 25  1  0
  8 26  1  0
 10 27  1  0
 13 28  1  0
 15 29  1  0
 15 30  1  0
 16 31  1  0
 18 32  1  0
 20 33  1  0
 20 34  1  0
 21 35  1  0
 21 36  1  0
 21 37  1  0
A    1
O2
A    2
C3
A    3
C4
A    4
C5
A    5
C1
A    6
N1
A    7
C2
A    8
N2
A    9
O1
A   10
C11
A   11
O4
A   12
O3
A   13
N4
A   14
C10
A   15
C12
A   16
O5
A   17
C7
A   18
N3
A   19
C9
A   20
C6
A   21
C8
M  END
