1E71_ASC_M_995
     RDKit          3D

 20 20  0  0  0  0  0  0  0  0999 V2000
   44.4100  119.2850   46.9000 C   0  0  0  0  0  0  0  0  0  0  0  0
   45.7460  118.3570   47.1990 C   0  0  0  0  0  0  0  0  0  0  0  0
   46.4580  118.9510   48.2730 C   0  0  0  0  0  0  0  0  0  0  0  0
   45.7240  120.2920   48.6260 C   0  0  0  0  0  0  0  0  0  0  0  0
   46.5620  121.6110   48.6310 C   0  0  0  0  0  0  0  0  0  0  0  0
   45.8240  122.8500   49.1180 C   0  0  0  0  0  0  0  0  0  0  0  0
   43.6660  119.3470   46.1840 O   0  0  0  0  0  0  0  0  0  0  0  0
   46.2320  117.4070   46.5690 O   0  0  0  0  0  0  0  0  0  0  0  0
   47.5140  118.6230   49.2040 O   0  0  0  0  0  0  0  0  0  0  0  0
   44.5750  120.3300   47.8810 O   0  0  0  0  0  0  0  0  0  0  0  0
   47.1170  121.7820   47.3600 O   0  0  0  0  0  0  0  0  0  0  0  0
   46.7070  123.9400   49.2860 O   0  0  0  0  0  0  0  0  0  0  0  0
   45.4919  120.2680   49.7010 H   0  0  0  0  0  0  0  0  0  0  0  0
   47.3549  121.4937   49.3844 H   0  0  0  0  0  0  0  0  0  0  0  0
   45.0549  123.1222   48.3802 H   0  0  0  0  0  0  0  0  0  0  0  0
   45.3655  122.6211   50.0913 H   0  0  0  0  0  0  0  0  0  0  0  0
   46.6247  116.6395   47.0556 H   0  0  0  0  0  0  0  0  0  0  0  0
   47.3483  118.6745   50.1787 H   0  0  0  0  0  0  0  0  0  0  0  0
   48.0594  122.0724   47.4478 H   0  0  0  0  0  0  0  0  0  0  0  0
   46.8434  124.1084   50.2520 H   0  0  0  0  0  0  0  0  0  0  0  0
  1  2  1  0
  1  7  2  0
  1 10  1  0
  2  3  2  0
  2  8  1  0
  3  4  1  0
  3  9  1  0
  4  5  1  0
  4 10  1  0
  5  6  1  0
  5 11  1  0
  6 12  1  0
  4 13  1  0
  5 14  1  0
  6 15  1  0
  6 16  1  0
  8 17  1  0
  9 18  1  0
 11 19  1  0
 12 20  1  0
A    1
C1
A    2
C2
A    3
C3
A    4
C4
A    5
C5
A    6
C6
A    7
O1
A    8
O2
A    9
O3
A   10
O4
A   11
O5
A   12
O6
M  END
