1EB2_BPO_A_1248
     RDKit          3D

 63 66  0  0  0  0  0  0  0  0999 V2000
   12.5690  -12.7510   24.1120 C   0  0  0  0  0  0  0  0  0  0  0  0
   12.8710   -3.7820   24.2480 C   0  0  0  0  0  0  0  0  0  0  0  0
   12.1740   -2.9340   29.2690 N   0  0  0  0  0  0  0  0  0  0  0  0
   13.1970   -3.0100   26.5470 C   0  0  0  0  0  0  0  0  0  0  0  0
    8.7610   -6.3070   23.0030 C   0  0  0  0  0  0  0  0  0  0  0  0
    8.0310   -7.6200   23.4610 C   0  0  0  0  0  0  0  0  0  0  0  0
   11.5950   -4.2710   24.6230 C   0  0  0  0  0  0  0  0  0  0  0  0
   11.1310   -4.1530   25.9410 C   0  0  0  0  0  0  0  0  0  0  0  0
   11.9420   -3.5110   26.9100 C   0  0  0  0  0  0  0  0  0  0  0  0
    7.4290   -4.1700   23.1940 C   0  0  0  0  0  0  0  0  0  0  0  0
    7.6680   -5.3640   22.5020 C   0  0  0  0  0  0  0  0  0  0  0  0
   11.3810   -3.4090   28.2850 C   0  0  0  0  0  0  0  0  0  0  0  0
   10.7130   -4.9350   23.5830 C   0  0  0  0  0  0  0  0  0  0  0  0
    6.4390   -3.2870   22.7710 C   0  0  0  0  0  0  0  0  0  0  0  0
    9.5540  -11.0470   24.2180 C   0  0  0  0  0  0  0  0  0  0  0  0
    8.5510   -9.9030   24.1580 C   0  0  0  0  0  0  0  0  0  0  0  0
    5.8950   -4.8230   20.9640 C   0  0  0  0  0  0  0  0  0  0  0  0
    5.6670   -3.6330   21.6510 C   0  0  0  0  0  0  0  0  0  0  0  0
    6.8930   -5.7200   21.3800 C   0  0  0  0  0  0  0  0  0  0  0  0
   10.9980  -10.6760   23.8290 C   0  0  0  0  0  0  0  0  0  0  0  0
   11.6300  -11.9640   23.2460 C   0  0  0  0  0  0  0  0  0  0  0  0
   11.0150   -9.7630   22.5630 C   0  0  0  0  0  0  0  0  0  0  0  0
   13.6590   -3.1610   25.2330 C   0  0  0  0  0  0  0  0  0  0  0  0
    6.8780   -7.6790   23.8250 O   0  0  0  0  0  0  0  0  0  0  0  0
   11.0060   -4.7500   22.4000 O   0  0  0  0  0  0  0  0  0  0  0  0
    9.5970   -5.6890   24.0250 N   0  0  0  0  0  0  0  0  0  0  0  0
   10.0410   -3.5030   28.3310 N   0  0  0  0  0  0  0  0  0  0  0  0
    8.8270   -8.7720   23.2810 N   0  0  0  0  0  0  0  0  0  0  0  0
   11.3480  -12.2870   22.1100 O   0  0  0  0  0  0  0  0  0  0  0  0
   10.2140   -8.4980   22.8570 C   0  0  0  0  0  0  0  0  0  0  0  0
   13.3920  -13.7170   23.4900 C   0  0  0  0  0  0  0  0  0  0  0  0
   14.2490  -14.4420   24.3040 C   0  0  0  0  0  0  0  0  0  0  0  0
   14.3430  -14.2730   25.6880 C   0  0  0  0  0  0  0  0  0  0  0  0
   13.5370  -13.3150   26.2830 C   0  0  0  0  0  0  0  0  0  0  0  0
   12.6610  -12.5670   25.4920 C   0  0  0  0  0  0  0  0  0  0  0  0
   13.2349   -3.8854   23.2151 H   0  0  0  0  0  0  0  0  0  0  0  0
   11.9188   -3.0869   30.2551 H   0  0  0  0  0  0  0  0  0  0  0  0
   13.0342   -2.4187   29.0336 H   0  0  0  0  0  0  0  0  0  0  0  0
   13.8212   -2.4973   27.2937 H   0  0  0  0  0  0  0  0  0  0  0  0
    9.4840   -6.5513   22.2108 H   0  0  0  0  0  0  0  0  0  0  0  0
   10.1461   -4.5552   26.2205 H   0  0  0  0  0  0  0  0  0  0  0  0
    8.0306   -3.9269   24.0823 H   0  0  0  0  0  0  0  0  0  0  0  0
    6.2658   -2.3397   23.3026 H   0  0  0  0  0  0  0  0  0  0  0  0
    9.5678  -11.4335   25.2478 H   0  0  0  0  0  0  0  0  0  0  0  0
    9.2185  -11.7857   23.4752 H   0  0  0  0  0  0  0  0  0  0  0  0
    7.5898  -10.3323   23.8390 H   0  0  0  0  0  0  0  0  0  0  0  0
    8.5815   -9.4695   25.1685 H   0  0  0  0  0  0  0  0  0  0  0  0
    5.2839   -5.0643   20.0817 H   0  0  0  0  0  0  0  0  0  0  0  0
    4.8706   -2.9547   21.3110 H   0  0  0  0  0  0  0  0  0  0  0  0
    7.0637   -6.6677   20.8482 H   0  0  0  0  0  0  0  0  0  0  0  0
   11.4831  -10.2195   24.7044 H   0  0  0  0  0  0  0  0  0  0  0  0
   12.0525   -9.4942   22.3152 H   0  0  0  0  0  0  0  0  0  0  0  0
   10.5693  -10.2976   21.7112 H   0  0  0  0  0  0  0  0  0  0  0  0
   14.6583   -2.7862   24.9666 H   0  0  0  0  0  0  0  0  0  0  0  0
    9.3854   -5.7959   25.0273 H   0  0  0  0  0  0  0  0  0  0  0  0
    9.5233   -3.8810   27.5248 H   0  0  0  0  0  0  0  0  0  0  0  0
   10.7212   -7.9419   23.6592 H   0  0  0  0  0  0  0  0  0  0  0  0
   10.1615   -7.9204   21.9223 H   0  0  0  0  0  0  0  0  0  0  0  0
   13.3542  -13.8869   22.4039 H   0  0  0  0  0  0  0  0  0  0  0  0
   14.8947  -15.1967   23.8312 H   0  0  0  0  0  0  0  0  0  0  0  0
   15.0358  -14.8820   26.2873 H   0  0  0  0  0  0  0  0  0  0  0  0
   13.5866  -13.1450   27.3687 H   0  0  0  0  0  0  0  0  0  0  0  0
   12.0241  -11.8095   25.9722 H   0  0  0  0  0  0  0  0  0  0  0  0
  1 21  1  0
  1 31  2  0
  1 35  1  0
  2  7  2  0
  2 23  1  0
  3 12  1  0
  4  9  1  0
  4 23  2  0
  5  6  1  0
  5 11  1  0
  5 26  1  0
  6 24  2  0
  6 28  1  0
  7  8  1  0
  7 13  1  0
  8  9  2  0
  9 12  1  0
 10 11  2  0
 10 14  1  0
 11 19  1  0
 12 27  2  3
 13 25  2  0
 13 26  1  0
 14 18  2  0
 15 16  1  0
 15 20  1  0
 16 28  1  0
 17 18  1  0
 17 19  2  0
 20 21  1  0
 20 22  1  0
 21 29  2  0
 22 30  1  0
 28 30  1  0
 31 32  1  0
 32 33  2  0
 33 34  1  0
 34 35  2  0
  2 36  1  0
  3 37  1  0
  3 38  1  0
  4 39  1  0
  5 40  1  0
  8 41  1  0
 10 42  1  0
 14 43  1  0
 15 44  1  0
 15 45  1  0
 16 46  1  0
 16 47  1  0
 17 48  1  0
 18 49  1  0
 19 50  1  0
 20 51  1  0
 22 52  1  0
 22 53  1  0
 23 54  1  0
 26 55  1  0
 27 56  1  0
 30 57  1  0
 30 58  1  0
 31 59  1  0
 32 60  1  0
 33 61  1  0
 34 62  1  0
 35 63  1  0
A    1
C22
A    2
C1
A    3
N1
A    4
C2
A    5
C7
A    6
C6
A    7
C5
A    8
C4
A    9
C3
A   10
C11
A   11
C10
A   12
C9
A   13
C8
A   14
C12
A   15
C17
A   16
C16
A   17
C14
A   18
C13
A   19
C15
A   20
C18
A   21
C19
A   22
C20
A   23
C
A   24
O
A   25
O1
A   26
N
A   27
N2
A   28
N3
A   29
O2
A   30
C21
A   31
C23
A   32
C24
A   33
C25
A   34
C26
A   35
C27
M  END
