1EBU_NDA_D_1300
     RDKit          3D

 72 76  0  0  0  0  0  0  0  0999 V2000
   41.0670   21.1830   70.7970 P   0  0  0  0  0  0  0  0  0  0  0  0
   40.6090   22.5040   71.3690 O   0  0  0  0  0  0  0  0  0  0  0  0
   39.9610   20.2590   70.3350 O   0  0  0  0  0  0  0  0  0  0  0  0
   41.9920   20.3760   71.8900 O   0  0  0  0  0  0  0  0  0  0  0  0
   42.9640   21.1110   72.6870 C   0  0  0  0  0  0  0  0  0  0  0  0
   43.5270   20.2430   73.8200 C   0  0  0  0  0  0  0  0  0  0  0  0
   44.4850   21.1100   74.4880 O   0  0  0  0  0  0  0  0  0  0  0  0
   42.5200   19.8170   74.9200 C   0  0  0  0  0  0  0  0  0  0  0  0
   42.6170   18.4040   75.1720 O   0  0  0  0  0  0  0  0  0  0  0  0
   42.9020   20.7300   76.0920 C   0  0  0  0  0  0  0  0  0  0  0  0
   42.5670   20.1300   77.3740 O   0  0  0  0  0  0  0  0  0  0  0  0
   44.3950   20.9110   75.8730 C   0  0  0  0  0  0  0  0  0  0  0  0
   44.9870   22.1000   76.5290 N   0  0  0  0  0  0  0  0  0  0  0  0
   44.7940   23.4220   76.1860 C   0  0  0  0  0  0  0  0  0  0  0  0
   45.5020   24.2750   76.9340 N   0  0  0  0  0  0  0  0  0  0  0  0
   46.1950   23.4530   77.8210 C   0  0  0  0  0  0  0  0  0  0  0  0
   47.1230   23.7630   78.8560 C   0  0  0  0  0  0  0  0  0  0  0  0
   47.5110   24.9940   79.2040 N   0  0  0  0  0  0  0  0  0  0  0  0
   47.5790   22.7090   79.6410 N   0  0  0  0  0  0  0  0  0  0  0  0
   47.2290   21.4340   79.2390 C   0  0  0  0  0  0  0  0  0  0  0  0
   46.4080   21.0320   78.2790 N   0  0  0  0  0  0  0  0  0  0  0  0
   45.9120   22.1040   77.5870 C   0  0  0  0  0  0  0  0  0  0  0  0
   42.0840   21.4890   69.6120 O   0  0  0  0  0  0  0  0  0  0  0  0
   42.7660   20.5080   68.4400 P   0  0  0  0  0  0  0  0  0  0  0  0
   41.6410   20.0740   67.5440 O   0  0  0  0  0  0  0  0  0  0  0  0
   43.4570   19.3570   69.1700 O   0  0  0  0  0  0  0  0  0  0  0  0
   43.7010   21.5950   67.6830 O   0  0  0  0  0  0  0  0  0  0  0  0
   45.1120   21.5290   67.9250 C   0  0  0  0  0  0  0  0  0  0  0  0
   45.8240   22.6090   67.1340 C   0  0  0  0  0  0  0  0  0  0  0  0
   45.8120   22.2310   65.7100 O   0  0  0  0  0  0  0  0  0  0  0  0
   45.2470   24.0360   67.1660 C   0  0  0  0  0  0  0  0  0  0  0  0
   46.3250   25.0090   67.1520 O   0  0  0  0  0  0  0  0  0  0  0  0
   44.4090   24.0750   65.8690 C   0  0  0  0  0  0  0  0  0  0  0  0
   44.1750   25.4550   65.4700 O   0  0  0  0  0  0  0  0  0  0  0  0
   45.3320   23.3220   64.9400 C   0  0  0  0  0  0  0  0  0  0  0  0
   44.7310   22.8320   63.6730 N   0  0  0  0  0  0  0  0  0  0  0  0
   43.5460   22.0690   63.6070 C   0  0  0  0  0  0  0  0  0  0  0  0
   43.0260   21.5520   62.2830 C   0  0  0  0  0  0  0  0  0  0  0  0
   41.7960   20.7320   62.2990 C   0  0  0  0  0  0  0  0  0  0  0  0
   41.1100   20.4390   63.4250 N   0  0  0  0  0  0  0  0  0  0  0  0
   43.7620   21.9180   61.0070 C   0  0  0  0  0  0  0  0  0  0  0  0
   44.9750   22.7480   61.2540 C   0  0  0  0  0  0  0  0  0  0  0  0
   45.4090   23.1480   62.4430 C   0  0  0  0  0  0  0  0  0  0  0  0
   39.5012   19.8748   71.1231 H   0  0  0  0  0  0  0  0  0  0  0  0
   43.7911   21.4320   72.0368 H   0  0  0  0  0  0  0  0  0  0  0  0
   42.4599   21.9807   73.1338 H   0  0  0  0  0  0  0  0  0  0  0  0
   43.9021   19.3125   73.3689 H   0  0  0  0  0  0  0  0  0  0  0  0
   41.4567   19.9407   74.6668 H   0  0  0  0  0  0  0  0  0  0  0  0
   42.6281   18.2430   76.1488 H   0  0  0  0  0  0  0  0  0  0  0  0
   42.3603   21.6869   76.1208 H   0  0  0  0  0  0  0  0  0  0  0  0
   42.8920   20.7122   78.1058 H   0  0  0  0  0  0  0  0  0  0  0  0
   44.9362   20.0495   76.2914 H   0  0  0  0  0  0  0  0  0  0  0  0
   44.1229   23.7434   75.3759 H   0  0  0  0  0  0  0  0  0  0  0  0
   47.5907   25.2468   80.1993 H   0  0  0  0  0  0  0  0  0  0  0  0
   47.7303   25.6897   78.4768 H   0  0  0  0  0  0  0  0  0  0  0  0
   47.7085   20.6228   79.8065 H   0  0  0  0  0  0  0  0  0  0  0  0
   45.3050   21.6759   68.9979 H   0  0  0  0  0  0  0  0  0  0  0  0
   45.4870   20.5439   67.6104 H   0  0  0  0  0  0  0  0  0  0  0  0
   46.8079   22.6574   67.6234 H   0  0  0  0  0  0  0  0  0  0  0  0
   44.6553   24.2746   68.0621 H   0  0  0  0  0  0  0  0  0  0  0  0
   46.5766   25.2361   68.0822 H   0  0  0  0  0  0  0  0  0  0  0  0
   43.3986   23.6430   65.9193 H   0  0  0  0  0  0  0  0  0  0  0  0
   44.0792   26.0202   66.2772 H   0  0  0  0  0  0  0  0  0  0  0  0
   46.1122   24.0134   64.5890 H   0  0  0  0  0  0  0  0  0  0  0  0
   42.9922   21.8467   64.5310 H   0  0  0  0  0  0  0  0  0  0  0  0
   41.0831   21.2465   61.6380 H   0  0  0  0  0  0  0  0  0  0  0  0
   42.1937   19.7432   62.0266 H   0  0  0  0  0  0  0  0  0  0  0  0
   41.6801   20.6825   64.2475 H   0  0  0  0  0  0  0  0  0  0  0  0
   40.2330   20.9789   63.4431 H   0  0  0  0  0  0  0  0  0  0  0  0
   43.4345   21.6036   60.0051 H   0  0  0  0  0  0  0  0  0  0  0  0
   45.5611   23.0556   60.3754 H   0  0  0  0  0  0  0  0  0  0  0  0
   46.3293   23.7487   62.4906 H   0  0  0  0  0  0  0  0  0  0  0  0
  1  2  2  0
  1  3  1  0
  1  4  1  0
  1 23  1  0
  4  5  1  0
  5  6  1  0
  6  7  1  0
  6  8  1  0
  7 12  1  0
  8  9  1  0
  8 10  1  0
 10 11  1  0
 10 12  1  0
 12 13  1  0
 13 14  1  0
 13 22  1  0
 14 15  2  0
 15 16  1  0
 16 17  1  0
 16 22  2  0
 17 18  1  0
 17 19  2  0
 19 20  1  0
 20 21  2  0
 21 22  1  0
 23 24  1  0
 24 25  2  0
 24 26  1  0
 24 27  1  0
 27 28  1  0
 28 29  1  0
 29 30  1  0
 29 31  1  0
 30 35  1  0
 31 32  1  0
 31 33  1  0
 33 34  1  0
 33 35  1  0
 35 36  1  0
 36 37  2  0
 36 43  1  0
 37 38  1  0
 38 39  1  0
 38 41  2  0
 39 40  1  0
 41 42  1  0
 42 43  2  0
  3 44  1  0
  5 45  1  0
  5 46  1  0
  6 47  1  0
  8 48  1  0
  9 49  1  0
 10 50  1  0
 11 51  1  0
 12 52  1  0
 14 53  1  0
 18 54  1  0
 18 55  1  0
 20 56  1  0
 28 57  1  0
 28 58  1  0
 29 59  1  0
 31 60  1  0
 32 61  1  0
 33 62  1  0
 34 63  1  0
 35 64  1  0
 37 65  1  0
 39 66  1  0
 39 67  1  0
 40 68  1  0
 40 69  1  0
 41 70  1  0
 42 71  1  0
 43 72  1  0
M  CHG  2  26  -1  36   1
A    1
PA
A    2
O1A
A    3
O2A
A    4
O5B
A    5
C5B
A    6
C4B
A    7
O4B
A    8
C3B
A    9
O3B
A   10
C2B
A   11
O2B
A   12
C1B
A   13
N9A
A   14
C8A
A   15
N7A
A   16
C5A
A   17
C6A
A   18
N6A
A   19
N1A
A   20
C2A
A   21
N3A
A   22
C4A
A   23
O3
A   24
PN
A   25
O1N
A   26
O2N
A   27
O5D
A   28
C5D
A   29
C4D
A   30
O4D
A   31
C3D
A   32
O3D
A   33
C2D
A   34
O2D
A   35
C1D
A   36
N1N
A   37
C2N
A   38
C3N
A   39
C7N
A   40
N7N
A   41
C4N
A   42
C5N
A   43
C6N
M  END
