1EET_BFU_A_2000
     RDKit          3D

 43 45  0  0  0  0  0  0  0  0999 V2000
   -6.2890  145.9120  174.4550 Br  0  0  0  0  0  0  0  0  0  0  0  0
   -7.0360  144.6520  173.3660 C   0  0  0  0  0  0  0  0  0  0  0  0
   -8.3020  144.1240  173.6560 C   0  0  0  0  0  0  0  0  0  0  0  0
   -8.8530  143.1780  172.8280 N   0  0  0  0  0  0  0  0  0  0  0  0
   -8.2090  142.7160  171.7120 C   0  0  0  0  0  0  0  0  0  0  0  0
   -6.9320  143.2190  171.3800 C   0  0  0  0  0  0  0  0  0  0  0  0
   -6.3460  144.1930  172.2160 C   0  0  0  0  0  0  0  0  0  0  0  0
   -8.8390  141.7360  170.8980 N   0  0  0  0  0  0  0  0  0  0  0  0
  -10.0840  141.2000  170.8910 C   0  0  0  0  0  0  0  0  0  0  0  0
  -10.3540  140.3790  170.0110 O   0  0  0  0  0  0  0  0  0  0  0  0
  -11.0350  141.5710  171.7980 N   0  0  0  0  0  0  0  0  0  0  0  0
  -12.4320  141.1270  171.8420 C   0  0  0  0  0  0  0  0  0  0  0  0
  -12.6900  139.6160  171.9750 C   0  0  0  0  0  0  0  0  0  0  0  0
  -13.0730  140.5580  173.1330 C   0  0  0  0  0  0  0  0  0  0  0  0
  -12.2340  140.4700  174.4320 C   0  0  0  0  0  0  0  0  0  0  0  0
  -12.1110  139.2160  175.1150 C   0  0  0  0  0  0  0  0  0  0  0  0
  -12.7050  138.1310  174.6390 F   0  0  0  0  0  0  0  0  0  0  0  0
  -11.3590  139.1140  176.3080 C   0  0  0  0  0  0  0  0  0  0  0  0
  -10.7230  140.2570  176.8390 C   0  0  0  0  0  0  0  0  0  0  0  0
  -10.8200  141.5320  176.1900 C   0  0  0  0  0  0  0  0  0  0  0  0
  -11.5860  141.6390  174.9700 C   0  0  0  0  0  0  0  0  0  0  0  0
  -11.7220  142.8610  174.2890 O   0  0  0  0  0  0  0  0  0  0  0  0
  -10.1200  142.7560  176.7890 C   0  0  0  0  0  0  0  0  0  0  0  0
  -10.2310  143.8200  176.1980 O   0  0  0  0  0  0  0  0  0  0  0  0
   -9.3030  142.7100  178.0720 C   0  0  0  0  0  0  0  0  0  0  0  0
   -8.3140  143.8980  178.1980 C   0  0  0  0  0  0  0  0  0  0  0  0
   -8.8522  144.4669  174.5446 H   0  0  0  0  0  0  0  0  0  0  0  0
   -6.4034  142.8579  170.4855 H   0  0  0  0  0  0  0  0  0  0  0  0
   -5.3517  144.5969  171.9748 H   0  0  0  0  0  0  0  0  0  0  0  0
   -8.2245  141.3557  170.1641 H   0  0  0  0  0  0  0  0  0  0  0  0
  -10.7396  142.2334  172.5293 H   0  0  0  0  0  0  0  0  0  0  0  0
  -12.7190  141.9361  171.1543 H   0  0  0  0  0  0  0  0  0  0  0  0
  -13.4769  139.1385  171.3728 H   0  0  0  0  0  0  0  0  0  0  0  0
  -12.0694  138.7124  171.8834 H   0  0  0  0  0  0  0  0  0  0  0  0
  -13.9877  140.7866  173.6997 H   0  0  0  0  0  0  0  0  0  0  0  0
  -11.2697  138.1454  176.8216 H   0  0  0  0  0  0  0  0  0  0  0  0
  -10.1418  140.1678  177.7686 H   0  0  0  0  0  0  0  0  0  0  0  0
  -11.8158  143.7042  174.7992 H   0  0  0  0  0  0  0  0  0  0  0  0
   -9.9925  142.7344  178.9287 H   0  0  0  0  0  0  0  0  0  0  0  0
   -8.7083  141.7848  178.0528 H   0  0  0  0  0  0  0  0  0  0  0  0
   -8.1341  144.1141  179.2615 H   0  0  0  0  0  0  0  0  0  0  0  0
   -7.3630  143.6366  177.7110 H   0  0  0  0  0  0  0  0  0  0  0  0
   -8.7435  144.7859  177.7110 H   0  0  0  0  0  0  0  0  0  0  0  0
  1  2  1  0
  2  3  2  0
  2  7  1  0
  3  4  1  0
  4  5  2  0
  5  6  1  0
  5  8  1  0
  6  7  2  0
  8  9  1  0
  9 10  2  0
  9 11  1  0
 11 12  1  0
 12 13  1  0
 12 14  1  0
 13 14  1  0
 14 15  1  0
 15 16  2  0
 15 21  1  0
 16 17  1  0
 16 18  1  0
 18 19  2  0
 19 20  1  0
 20 21  2  0
 20 23  1  0
 21 22  1  0
 23 24  2  0
 23 25  1  0
 25 26  1  0
  3 27  1  0
  6 28  1  0
  7 29  1  0
  8 30  1  0
 11 31  1  0
 12 32  1  0
 13 33  1  0
 13 34  1  0
 14 35  1  0
 18 36  1  0
 19 37  1  0
 22 38  1  0
 25 39  1  0
 25 40  1  0
 26 41  1  0
 26 42  1  0
 26 43  1  0
A    1
BR
A    2
C2
A    3
C3
A    4
N4
A    5
C5
A    6
C6
A    7
C7
A    8
N8
A    9
C9
A   10
O10
A   11
N11
A   12
C12
A   13
C13
A   14
C14
A   15
C15
A   16
C16
A   17
F
A   18
C18
A   19
C19
A   20
C20
A   21
C21
A   22
O22
A   23
C23
A   24
O24
A   25
C25
A   26
C26
M  END
