1EJN_AGB_A_800
     RDKit          3D

 52 55  0  0  0  0  0  0  0  0999 V2000
   22.6160   11.2980   27.0970 C   0  0  0  0  0  0  0  0  0  0  0  0
   22.7960   12.7650   27.5790 C   0  0  0  0  0  0  0  0  0  0  0  0
   23.9920   10.5490   27.1350 C   0  0  0  0  0  0  0  0  0  0  0  0
   21.6000   10.5700   28.0280 C   0  0  0  0  0  0  0  0  0  0  0  0
   22.3300   12.0400   29.9730 C   0  0  0  0  0  0  0  0  0  0  0  0
   23.3450   12.7570   29.0310 C   0  0  0  0  0  0  0  0  0  0  0  0
   22.1400   10.5700   29.4910 C   0  0  0  0  0  0  0  0  0  0  0  0
   24.7070   12.0000   29.0690 C   0  0  0  0  0  0  0  0  0  0  0  0
   23.5050    9.8130   29.5460 C   0  0  0  0  0  0  0  0  0  0  0  0
   24.5380   10.5130   28.6040 C   0  0  0  0  0  0  0  0  0  0  0  0
   27.2030    8.0200   29.0940 N   0  0  0  0  0  0  0  0  0  0  0  0
   26.0830    8.5320   28.5490 C   0  0  0  0  0  0  0  0  0  0  0  0
   25.8560    9.8630   28.7070 N   0  0  0  0  0  0  0  0  0  0  0  0
   25.3160    7.7840   27.9360 O   0  0  0  0  0  0  0  0  0  0  0  0
   27.5820    6.6420   28.8350 C   0  0  0  0  0  0  0  0  0  0  0  0
   29.7790    5.4990   29.3810 C   0  0  0  0  0  0  0  0  0  0  0  0
   29.0900    6.4880   28.6600 C   0  0  0  0  0  0  0  0  0  0  0  0
   29.7990    7.3260   27.7680 C   0  0  0  0  0  0  0  0  0  0  0  0
   31.1620    7.0740   27.5100 C   0  0  0  0  0  0  0  0  0  0  0  0
   31.7920    5.9960   28.1480 C   0  0  0  0  0  0  0  0  0  0  0  0
   31.1050    5.2080   29.0770 C   0  0  0  0  0  0  0  0  0  0  0  0
   33.1960    5.8990   27.6390 N   0  0  0  0  0  0  0  0  0  0  0  0
   33.2340    3.4270   27.5260 N   0  0  0  0  0  0  0  0  0  0  0  0
   33.5800    4.6700   27.5130 C   0  0  0  0  0  0  0  0  0  0  0  0
   34.8510    4.8760   27.2810 N   0  0  0  0  0  0  0  0  0  0  0  0
   22.2370   11.2996   26.0644 H   0  0  0  0  0  0  0  0  0  0  0  0
   23.5060   13.2853   26.9193 H   0  0  0  0  0  0  0  0  0  0  0  0
   21.8279   13.2865   27.5510 H   0  0  0  0  0  0  0  0  0  0  0  0
   23.8576    9.5200   26.7703 H   0  0  0  0  0  0  0  0  0  0  0  0
   24.7114   11.0792   26.4936 H   0  0  0  0  0  0  0  0  0  0  0  0
   20.6328   11.0929   27.9945 H   0  0  0  0  0  0  0  0  0  0  0  0
   21.4691    9.5326   27.6864 H   0  0  0  0  0  0  0  0  0  0  0  0
   22.7170   12.0432   31.0027 H   0  0  0  0  0  0  0  0  0  0  0  0
   21.3645   12.5666   29.9481 H   0  0  0  0  0  0  0  0  0  0  0  0
   23.4892   13.7937   29.3694 H   0  0  0  0  0  0  0  0  0  0  0  0
   21.4199   10.0618   30.1491 H   0  0  0  0  0  0  0  0  0  0  0  0
   25.4187   12.5069   28.4008 H   0  0  0  0  0  0  0  0  0  0  0  0
   25.0799   12.0027   30.1039 H   0  0  0  0  0  0  0  0  0  0  0  0
   23.8866    9.8229   30.5776 H   0  0  0  0  0  0  0  0  0  0  0  0
   23.3576    8.7744   29.2149 H   0  0  0  0  0  0  0  0  0  0  0  0
   27.7941    8.6089   29.6979 H   0  0  0  0  0  0  0  0  0  0  0  0
   26.6673   10.4627   28.9145 H   0  0  0  0  0  0  0  0  0  0  0  0
   27.2571    6.0191   29.6814 H   0  0  0  0  0  0  0  0  0  0  0  0
   27.0970    6.3259   27.8996 H   0  0  0  0  0  0  0  0  0  0  0  0
   29.2688    4.9531   30.1882 H   0  0  0  0  0  0  0  0  0  0  0  0
   29.2900    8.1694   27.2785 H   0  0  0  0  0  0  0  0  0  0  0  0
   31.7247    7.7158   26.8161 H   0  0  0  0  0  0  0  0  0  0  0  0
   31.6109    4.3619   29.5651 H   0  0  0  0  0  0  0  0  0  0  0  0
   33.7860    6.7132   27.4157 H   0  0  0  0  0  0  0  0  0  0  0  0
   33.9388    2.6945   27.3599 H   0  0  0  0  0  0  0  0  0  0  0  0
   35.5074    4.9824   28.0675 H   0  0  0  0  0  0  0  0  0  0  0  0
   35.1952    4.9318   26.3118 H   0  0  0  0  0  0  0  0  0  0  0  0
  1  2  1  0
  1  3  1  0
  1  4  1  0
  2  6  1  0
  3 10  1  0
  4  7  1  0
  5  6  1  0
  5  7  1  0
  6  8  1  0
  7  9  1  0
  8 10  1  0
  9 10  1  0
 10 13  1  0
 11 12  1  0
 11 15  1  0
 12 13  1  0
 12 14  2  0
 15 17  1  0
 16 17  2  0
 16 21  1  0
 17 18  1  0
 18 19  2  0
 19 20  1  0
 20 21  2  0
 20 22  1  0
 22 24  1  0
 23 24  2  3
 24 25  1  0
  1 26  1  0
  2 27  1  0
  2 28  1  0
  3 29  1  0
  3 30  1  0
  4 31  1  0
  4 32  1  0
  5 33  1  0
  5 34  1  0
  6 35  1  0
  7 36  1  0
  8 37  1  0
  8 38  1  0
  9 39  1  0
  9 40  1  0
 11 41  1  0
 13 42  1  0
 15 43  1  0
 15 44  1  0
 16 45  1  0
 18 46  1  0
 19 47  1  0
 21 48  1  0
 22 49  1  0
 23 50  1  0
 25 51  1  0
 25 52  1  0
A    1
C1
A    2
C2
A    3
C3
A    4
C4
A    5
C5
A    6
C6
A    7
C7
A    8
C8
A    9
C9
A   10
C10
A   11
N1
A   12
C12
A   13
N2
A   14
O1
A   15
C11
A   16
C13
A   17
C14
A   18
C15
A   19
C16
A   20
C17
A   21
C18
A   22
N3
A   23
N4
A   24
C19
A   25
N5
M  END
