1EK2_CDU_A_1100
     RDKit          3D

 54 54  0  0  0  0  0  0  0  0999 V2000
  -41.5100 -114.2050  -26.3170 C   0  0  0  0  0  0  0  0  0  0  0  0
  -40.1420 -113.4190  -26.5350 C   0  0  0  0  0  0  0  0  0  0  0  0
  -40.2520 -112.2430  -27.6010 C   0  0  0  0  0  0  0  0  0  0  0  0
  -41.0750 -112.6590  -28.9050 C   0  0  0  0  0  0  0  0  0  0  0  0
  -42.4770 -113.3250  -28.5940 C   0  0  0  0  0  0  0  0  0  0  0  0
  -42.2140 -114.6060  -27.6890 C   0  0  0  0  0  0  0  0  0  0  0  0
  -43.1210 -113.6960  -29.9300 N   0  0  0  0  0  0  0  0  0  0  0  0
  -44.3210 -114.2880  -30.2350 C   0  0  0  0  0  0  0  0  0  0  0  0
  -45.0520 -114.5700  -29.2620 O   0  0  0  0  0  0  0  0  0  0  0  0
  -44.8290 -114.6370  -31.4550 N   0  0  0  0  0  0  0  0  0  0  0  0
  -46.1560 -115.3150  -31.6490 C   0  0  0  0  0  0  0  0  0  0  0  0
  -46.4210 -115.6030  -33.1340 C   0  0  0  0  0  0  0  0  0  0  0  0
  -47.7870 -116.3240  -33.3400 C   0  0  0  0  0  0  0  0  0  0  0  0
  -48.1860 -116.5080  -34.8550 C   0  0  0  0  0  0  0  0  0  0  0  0
  -49.7300 -116.7880  -35.1160 C   0  0  0  0  0  0  0  0  0  0  0  0
  -50.0870 -118.3070  -35.0610 C   0  0  0  0  0  0  0  0  0  0  0  0
  -51.6050 -118.6020  -35.3160 C   0  0  0  0  0  0  0  0  0  0  0  0
  -51.9280 -120.1410  -35.2540 C   0  0  0  0  0  0  0  0  0  0  0  0
  -53.4380 -120.4610  -35.4970 C   0  0  0  0  0  0  0  0  0  0  0  0
  -53.7500 -121.9800  -35.4350 C   0  0  0  0  0  0  0  0  0  0  0  0
  -41.3018 -115.1225  -25.7470 H   0  0  0  0  0  0  0  0  0  0  0  0
  -42.1949 -113.5361  -25.7752 H   0  0  0  0  0  0  0  0  0  0  0  0
  -39.8298 -112.9886  -25.5720 H   0  0  0  0  0  0  0  0  0  0  0  0
  -39.4102 -114.1424  -26.9238 H   0  0  0  0  0  0  0  0  0  0  0  0
  -40.7543 -111.3865  -27.1277 H   0  0  0  0  0  0  0  0  0  0  0  0
  -39.2301 -111.9929  -27.9222 H   0  0  0  0  0  0  0  0  0  0  0  0
  -41.2471 -111.7557  -29.5086 H   0  0  0  0  0  0  0  0  0  0  0  0
  -40.4741 -113.4130  -29.4345 H   0  0  0  0  0  0  0  0  0  0  0  0
  -43.1558 -112.6487  -28.0537 H   0  0  0  0  0  0  0  0  0  0  0  0
  -41.5635 -115.3046  -28.2357 H   0  0  0  0  0  0  0  0  0  0  0  0
  -43.1816 -115.0766  -27.4604 H   0  0  0  0  0  0  0  0  0  0  0  0
  -42.5489 -113.4578  -30.7527 H   0  0  0  0  0  0  0  0  0  0  0  0
  -44.2684 -114.4223  -32.2920 H   0  0  0  0  0  0  0  0  0  0  0  0
  -46.1584 -116.2644  -31.0934 H   0  0  0  0  0  0  0  0  0  0  0  0
  -46.9464 -114.6461  -31.2776 H   0  0  0  0  0  0  0  0  0  0  0  0
  -46.4318 -114.6518  -33.6864 H   0  0  0  0  0  0  0  0  0  0  0  0
  -45.6228 -116.2622  -33.5059 H   0  0  0  0  0  0  0  0  0  0  0  0
  -47.7285 -117.3184  -32.8733 H   0  0  0  0  0  0  0  0  0  0  0  0
  -48.5580 -115.6885  -32.8799 H   0  0  0  0  0  0  0  0  0  0  0  0
  -47.9101 -115.5897  -35.3942 H   0  0  0  0  0  0  0  0  0  0  0  0
  -47.6485 -117.4007  -35.2075 H   0  0  0  0  0  0  0  0  0  0  0  0
  -50.3173 -116.2609  -34.3496 H   0  0  0  0  0  0  0  0  0  0  0  0
  -49.9652 -116.4289  -36.1288 H   0  0  0  0  0  0  0  0  0  0  0  0
  -49.4969 -118.8313  -35.8271 H   0  0  0  0  0  0  0  0  0  0  0  0
  -49.8557 -118.6572  -34.0442 H   0  0  0  0  0  0  0  0  0  0  0  0
  -52.2005 -118.0835  -34.5501 H   0  0  0  0  0  0  0  0  0  0  0  0
  -51.8545 -118.2441  -36.3258 H   0  0  0  0  0  0  0  0  0  0  0  0
  -51.3331 -120.6548  -36.0235 H   0  0  0  0  0  0  0  0  0  0  0  0
  -51.6784 -120.4878  -34.2404 H   0  0  0  0  0  0  0  0  0  0  0  0
  -54.0339 -119.9484  -34.7274 H   0  0  0  0  0  0  0  0  0  0  0  0
  -53.6909 -120.1127  -36.5093 H   0  0  0  0  0  0  0  0  0  0  0  0
  -53.8154 -122.2983  -34.3841 H   0  0  0  0  0  0  0  0  0  0  0  0
  -54.7077 -122.1785  -35.9385 H   0  0  0  0  0  0  0  0  0  0  0  0
  -52.9481 -122.5399  -35.9385 H   0  0  0  0  0  0  0  0  0  0  0  0
  1  2  1  0
  1  6  1  0
  2  3  1  0
  3  4  1  0
  4  5  1  0
  5  6  1  0
  5  7  1  0
  7  8  1  0
  8  9  2  0
  8 10  1  0
 10 11  1  0
 11 12  1  0
 12 13  1  0
 13 14  1  0
 14 15  1  0
 15 16  1  0
 16 17  1  0
 17 18  1  0
 18 19  1  0
 19 20  1  0
  1 21  1  0
  1 22  1  0
  2 23  1  0
  2 24  1  0
  3 25  1  0
  3 26  1  0
  4 27  1  0
  4 28  1  0
  5 29  1  0
  6 30  1  0
  6 31  1  0
  7 32  1  0
 10 33  1  0
 11 34  1  0
 11 35  1  0
 12 36  1  0
 12 37  1  0
 13 38  1  0
 13 39  1  0
 14 40  1  0
 14 41  1  0
 15 42  1  0
 15 43  1  0
 16 44  1  0
 16 45  1  0
 17 46  1  0
 17 47  1  0
 18 48  1  0
 18 49  1  0
 19 50  1  0
 19 51  1  0
 20 52  1  0
 20 53  1  0
 20 54  1  0
A    1
C1
A    2
C2
A    3
C3
A    4
C4
A    5
C5
A    6
C6
A    7
N1
A    8
C8
A    9
O
A   10
N2
A   11
C11
A   12
C12
A   13
C13
A   14
C14
A   15
C15
A   16
C16
A   17
C17
A   18
C18
A   19
C19
A   20
C20
M  END
