1EK8_DEM_A_901
     RDKit          3D

 37 36  0  0  0  0  0  0  0  0999 V2000
  -13.1700   18.6140   25.4530 C   0  0  0  0  0  0  0  0  0  0  0  0
  -11.0270   17.8960   26.2330 C   0  0  0  0  0  0  0  0  0  0  0  0
   -9.6690   18.4470   26.5180 C   0  0  0  0  0  0  0  0  0  0  0  0
   -8.6880   17.7140   25.6120 C   0  0  0  0  0  0  0  0  0  0  0  0
   -7.2470   18.2190   25.8350 C   0  0  0  0  0  0  0  0  0  0  0  0
   -6.2630   17.4780   24.9140 C   0  0  0  0  0  0  0  0  0  0  0  0
   -6.2180   16.1010   25.4510 C   0  0  0  0  0  0  0  0  0  0  0  0
   -5.3650   15.1880   24.6610 C   0  0  0  0  0  0  0  0  0  0  0  0
   -5.5750   13.8860   25.3250 C   0  0  0  0  0  0  0  0  0  0  0  0
   -4.9150   12.6930   24.7170 C   0  0  0  0  0  0  0  0  0  0  0  0
   -5.3450   11.5260   25.5530 C   0  0  0  0  0  0  0  0  0  0  0  0
  -11.9820   18.9340   26.1820 O   0  0  0  0  0  0  0  0  0  0  0  0
  -12.8590   18.3620   24.0660 O   0  0  0  0  0  0  0  0  0  0  0  0
  -13.6318   17.7161   25.8894 H   0  0  0  0  0  0  0  0  0  0  0  0
  -13.8646   19.4648   25.5132 H   0  0  0  0  0  0  0  0  0  0  0  0
  -11.0094   17.3727   25.2656 H   0  0  0  0  0  0  0  0  0  0  0  0
  -11.3033   17.1982   27.0372 H   0  0  0  0  0  0  0  0  0  0  0  0
   -9.6470   19.5256   26.3033 H   0  0  0  0  0  0  0  0  0  0  0  0
   -9.4040   18.3064   27.5763 H   0  0  0  0  0  0  0  0  0  0  0  0
   -8.7301   16.6372   25.8326 H   0  0  0  0  0  0  0  0  0  0  0  0
   -8.9681   17.9039   24.5654 H   0  0  0  0  0  0  0  0  0  0  0  0
   -7.2041   19.2964   25.6172 H   0  0  0  0  0  0  0  0  0  0  0  0
   -6.9636   18.0297   26.8809 H   0  0  0  0  0  0  0  0  0  0  0  0
   -6.6266   17.4787   23.8758 H   0  0  0  0  0  0  0  0  0  0  0  0
   -5.2705   17.9519   24.8948 H   0  0  0  0  0  0  0  0  0  0  0  0
   -5.8275   16.1405   26.4786 H   0  0  0  0  0  0  0  0  0  0  0  0
   -7.2429   15.7036   25.4094 H   0  0  0  0  0  0  0  0  0  0  0  0
   -5.6887   15.1535   23.6103 H   0  0  0  0  0  0  0  0  0  0  0  0
   -4.3094   15.4958   24.6309 H   0  0  0  0  0  0  0  0  0  0  0  0
   -5.2054   13.9780   26.3570 H   0  0  0  0  0  0  0  0  0  0  0  0
   -6.6534   13.6912   25.2299 H   0  0  0  0  0  0  0  0  0  0  0  0
   -5.2436   12.5613   23.6755 H   0  0  0  0  0  0  0  0  0  0  0  0
   -3.8203   12.7988   24.6974 H   0  0  0  0  0  0  0  0  0  0  0  0
   -5.2502   11.7833   26.6183 H   0  0  0  0  0  0  0  0  0  0  0  0
   -6.3930   11.2795   25.3272 H   0  0  0  0  0  0  0  0  0  0  0  0
   -4.7075   10.6585   25.3272 H   0  0  0  0  0  0  0  0  0  0  0  0
  -12.0911   17.7398   24.0078 H   0  0  0  0  0  0  0  0  0  0  0  0
  1 12  1  0
  1 13  1  0
  2  3  1  0
  2 12  1  0
  3  4  1  0
  4  5  1  0
  5  6  1  0
  6  7  1  0
  7  8  1  0
  8  9  1  0
  9 10  1  0
 10 11  1  0
  1 14  1  0
  1 15  1  0
  2 16  1  0
  2 17  1  0
  3 18  1  0
  3 19  1  0
  4 20  1  0
  4 21  1  0
  5 22  1  0
  5 23  1  0
  6 24  1  0
  6 25  1  0
  7 26  1  0
  7 27  1  0
  8 28  1  0
  8 29  1  0
  9 30  1  0
  9 31  1  0
 10 32  1  0
 10 33  1  0
 11 34  1  0
 11 35  1  0
 11 36  1  0
 13 37  1  0
A    1
CM
A    2
C1
A    3
C2
A    4
C3
A    5
C4
A    6
C5
A    7
C6
A    8
C7
A    9
C8
A   10
C9
A   11
C10
A   12
O1
A   13
O5
M  END
