1EL4_CTZ_A_197
     RDKit          3D

 54 58  0  0  0  0  0  0  0  0999 V2000
   27.1440   12.8210   22.4710 N   0  0  0  0  0  0  0  0  0  0  0  0
   28.2960   12.1750   22.7780 C   0  0  0  0  0  0  0  0  0  0  0  0
   28.6020   12.3010   24.1300 C   0  0  0  0  0  0  0  0  0  0  0  0
   27.5730   13.0840   24.6840 N   0  0  0  0  0  0  0  0  0  0  0  0
   27.3350   13.5600   26.0170 C   0  0  0  0  0  0  0  0  0  0  0  0
   26.1790   14.3510   26.2280 C   0  0  0  0  0  0  0  0  0  0  0  0
   25.3090   14.6340   25.1360 N   0  0  0  0  0  0  0  0  0  0  0  0
   25.5170   14.1780   23.8260 C   0  0  0  0  0  0  0  0  0  0  0  0
   26.6640   13.3960   23.6060 C   0  0  0  0  0  0  0  0  0  0  0  0
   28.1740   10.8820   21.9590 C   0  0  0  0  0  0  0  0  0  0  0  0
   29.2520    9.8180   22.0610 C   0  0  0  0  0  0  0  0  0  0  0  0
   30.2850    9.8260   21.0560 C   0  0  0  0  0  0  0  0  0  0  0  0
   31.4610    9.0300   21.1890 C   0  0  0  0  0  0  0  0  0  0  0  0
   31.6220    8.2090   22.3400 C   0  0  0  0  0  0  0  0  0  0  0  0
   30.6140    8.1670   23.3700 C   0  0  0  0  0  0  0  0  0  0  0  0
   29.4270    8.9740   23.2260 C   0  0  0  0  0  0  0  0  0  0  0  0
   32.7470    7.4550   22.4630 O   0  0  0  0  0  0  0  0  0  0  0  0
   29.4910   11.9140   24.8490 O   0  0  0  0  0  0  0  0  0  0  0  0
   25.8670   14.9070   27.5210 C   0  0  0  0  0  0  0  0  0  0  0  0
   26.8770   15.2200   28.5010 C   0  0  0  0  0  0  0  0  0  0  0  0
   26.5500   15.7890   29.7510 C   0  0  0  0  0  0  0  0  0  0  0  0
   25.1840   16.0620   30.0550 C   0  0  0  0  0  0  0  0  0  0  0  0
   24.1410   15.7670   29.1200 C   0  0  0  0  0  0  0  0  0  0  0  0
   24.4880   15.1890   27.8480 C   0  0  0  0  0  0  0  0  0  0  0  0
   24.8790   16.6160   31.2570 O   0  0  0  0  0  0  0  0  0  0  0  0
   24.5070   14.5830   22.8520 C   0  0  0  0  0  0  0  0  0  0  0  0
   23.2430   13.7790   22.9650 C   0  0  0  0  0  0  0  0  0  0  0  0
   22.9400   12.7580   21.9860 C   0  0  0  0  0  0  0  0  0  0  0  0
   21.7340   11.9780   22.0750 C   0  0  0  0  0  0  0  0  0  0  0  0
   20.8060   12.2070   23.1490 C   0  0  0  0  0  0  0  0  0  0  0  0
   21.0870   13.2210   24.1380 C   0  0  0  0  0  0  0  0  0  0  0  0
   22.3040   14.0040   24.0430 C   0  0  0  0  0  0  0  0  0  0  0  0
   29.3590   12.6960   21.9110 O   0  0  0  0  0  0  0  0  0  0  0  0
   28.0226   13.3202   26.8415 H   0  0  0  0  0  0  0  0  0  0  0  0
   27.2278   10.4057   22.2554 H   0  0  0  0  0  0  0  0  0  0  0  0
   28.2584   11.2307   20.9192 H   0  0  0  0  0  0  0  0  0  0  0  0
   30.1636   10.4607   20.1658 H   0  0  0  0  0  0  0  0  0  0  0  0
   32.2364    9.0506   20.4090 H   0  0  0  0  0  0  0  0  0  0  0  0
   30.7484    7.5274   24.2548 H   0  0  0  0  0  0  0  0  0  0  0  0
   28.6505    8.9486   24.0047 H   0  0  0  0  0  0  0  0  0  0  0  0
   33.0921    7.2237   23.3616 H   0  0  0  0  0  0  0  0  0  0  0  0
   27.9314   15.0097   28.2684 H   0  0  0  0  0  0  0  0  0  0  0  0
   27.3396   16.0189   30.4816 H   0  0  0  0  0  0  0  0  0  0  0  0
   23.0908   15.9786   29.3695 H   0  0  0  0  0  0  0  0  0  0  0  0
   23.6968   14.9601   27.1189 H   0  0  0  0  0  0  0  0  0  0  0  0
   25.1338   16.1532   32.0943 H   0  0  0  0  0  0  0  0  0  0  0  0
   24.2659   15.6439   23.0144 H   0  0  0  0  0  0  0  0  0  0  0  0
   24.9232   14.4116   21.8483 H   0  0  0  0  0  0  0  0  0  0  0  0
   23.6430   12.5749   21.1600 H   0  0  0  0  0  0  0  0  0  0  0  0
   21.5219   11.2059   21.3207 H   0  0  0  0  0  0  0  0  0  0  0  0
   19.8839   11.6111   23.2172 H   0  0  0  0  0  0  0  0  0  0  0  0
   20.3797   13.3991   24.9614 H   0  0  0  0  0  0  0  0  0  0  0  0
   22.5154   14.7762   24.7974 H   0  0  0  0  0  0  0  0  0  0  0  0
   30.0933   13.0559   22.4690 H   0  0  0  0  0  0  0  0  0  0  0  0
  1  2  1  0
  1  9  2  0
  2  3  1  0
  2 10  1  0
  2 33  1  0
  3  4  1  0
  3 18  2  0
  4  5  1  0
  4  9  1  0
  5  6  2  0
  6  7  1  0
  6 19  1  0
  7  8  2  0
  8  9  1  0
  8 26  1  0
 10 11  1  0
 11 12  2  0
 11 16  1  0
 12 13  1  0
 13 14  2  0
 14 15  1  0
 14 17  1  0
 15 16  2  0
 19 20  2  0
 19 24  1  0
 20 21  1  0
 21 22  2  0
 22 23  1  0
 22 25  1  0
 23 24  2  0
 26 27  1  0
 27 28  2  0
 27 32  1  0
 28 29  1  0
 29 30  2  0
 30 31  1  0
 31 32  2  0
  5 34  1  0
 10 35  1  0
 10 36  1  0
 12 37  1  0
 13 38  1  0
 15 39  1  0
 16 40  1  0
 17 41  1  0
 20 42  1  0
 21 43  1  0
 23 44  1  0
 24 45  1  0
 25 46  1  0
 26 47  1  0
 26 48  1  0
 28 49  1  0
 29 50  1  0
 30 51  1  0
 31 52  1  0
 32 53  1  0
 33 54  1  0
A    1
N1
A    2
C2
A    3
C3
A    4
N4
A    5
C5
A    6
C6
A    7
N7
A    8
C8
A    9
C9
A   10
C10
A   11
C11
A   12
C12
A   13
C13
A   14
C14
A   15
C15
A   16
C16
A   17
O17
A   18
O18
A   19
C19
A   20
C20
A   21
C21
A   22
C22
A   23
C23
A   24
C24
A   25
O25
A   26
C26
A   27
C27
A   28
C28
A   29
C29
A   30
C30
A   31
C31
A   32
C32
A   33
O33
M  END
