1ELA_0Z1_A_256
     RDKit          3D

 64 65  0  0  0  0  0  0  0  0999 V2000
   41.0260   23.4570   37.5520 C   0  0  0  0  0  0  0  0  0  0  0  0
   41.3570   24.7770   38.3540 C   0  0  0  0  0  0  0  0  0  0  0  0
   40.5080   23.4910   36.4290 O   0  0  0  0  0  0  0  0  0  0  0  0
   40.3210   25.6100   38.3690 F   0  0  0  0  0  0  0  0  0  0  0  0
   41.6550   24.6140   39.6510 F   0  0  0  0  0  0  0  0  0  0  0  0
   42.3640   25.4820   37.8480 F   0  0  0  0  0  0  0  0  0  0  0  0
   41.3550   22.2730   38.1070 N   0  0  0  0  0  0  0  0  0  0  0  0
   40.9500   20.9670   37.6240 C   0  0  0  0  0  0  0  0  0  0  0  0
   39.4240   20.9590   37.3850 C   0  0  0  0  0  0  0  0  0  0  0  0
   38.7000   21.3740   38.2770 O   0  0  0  0  0  0  0  0  0  0  0  0
   41.4240   19.9850   38.7160 C   0  0  0  0  0  0  0  0  0  0  0  0
   40.6820   18.6700   38.8800 C   0  0  0  0  0  0  0  0  0  0  0  0
   41.5880   17.4430   38.7380 C   0  0  0  0  0  0  0  0  0  0  0  0
   40.6760   16.2380   38.4700 C   0  0  0  0  0  0  0  0  0  0  0  0
   41.4070   14.9900   38.4870 N   0  0  0  0  0  0  0  0  0  0  0  0
   38.8360   20.5900   36.2350 N   0  0  0  0  0  0  0  0  0  0  0  0
   37.3820   20.3770   36.1140 C   0  0  0  0  0  0  0  0  0  0  0  0
   36.9250   19.0660   36.7880 C   0  0  0  0  0  0  0  0  0  0  0  0
   36.9440   17.9560   36.2220 O   0  0  0  0  0  0  0  0  0  0  0  0
   37.1460   20.4590   34.6080 C   0  0  0  0  0  0  0  0  0  0  0  0
   38.4480   19.9870   33.9860 C   0  0  0  0  0  0  0  0  0  0  0  0
   39.5430   20.4350   34.9620 C   0  0  0  0  0  0  0  0  0  0  0  0
   36.2230   18.4440   39.0040 C   0  0  0  0  0  0  0  0  0  0  0  0
   36.5850   19.3630   38.0670 N   0  0  0  0  0  0  0  0  0  0  0  0
   36.6700   17.1060   38.9640 C   0  0  0  0  0  0  0  0  0  0  0  0
   36.3750   16.2270   40.0160 C   0  0  0  0  0  0  0  0  0  0  0  0
   35.6300   16.6700   41.1260 C   0  0  0  0  0  0  0  0  0  0  0  0
   35.1810   17.9950   41.1620 C   0  0  0  0  0  0  0  0  0  0  0  0
   35.4700   18.8690   40.1080 C   0  0  0  0  0  0  0  0  0  0  0  0
   35.3340   15.7380   42.3120 C   0  0  0  0  0  0  0  0  0  0  0  0
   36.1110   14.4050   42.2320 C   0  0  0  0  0  0  0  0  0  0  0  0
   33.8640   15.4850   42.2850 C   0  0  0  0  0  0  0  0  0  0  0  0
   41.9470   22.2985   38.9495 H   0  0  0  0  0  0  0  0  0  0  0  0
   41.3888   20.6839   36.6558 H   0  0  0  0  0  0  0  0  0  0  0  0
   42.4742   19.7403   38.4989 H   0  0  0  0  0  0  0  0  0  0  0  0
   41.2359   20.5196   39.6588 H   0  0  0  0  0  0  0  0  0  0  0  0
   40.2217   18.6507   39.8789 H   0  0  0  0  0  0  0  0  0  0  0  0
   39.9316   18.6163   38.0775 H   0  0  0  0  0  0  0  0  0  0  0  0
   42.2846   17.5833   37.8983 H   0  0  0  0  0  0  0  0  0  0  0  0
   42.1838   17.2883   39.6496 H   0  0  0  0  0  0  0  0  0  0  0  0
   39.8964   16.2034   39.2453 H   0  0  0  0  0  0  0  0  0  0  0  0
   40.2369   16.3606   37.4689 H   0  0  0  0  0  0  0  0  0  0  0  0
   41.5747   14.7036   39.4621 H   0  0  0  0  0  0  0  0  0  0  0  0
   40.8577   14.2638   38.0055 H   0  0  0  0  0  0  0  0  0  0  0  0
   42.3091   15.1139   38.0055 H   0  0  0  0  0  0  0  0  0  0  0  0
   36.7712   21.1201   36.6476 H   0  0  0  0  0  0  0  0  0  0  0  0
   36.3141   19.8040   34.3098 H   0  0  0  0  0  0  0  0  0  0  0  0
   36.8752   21.4749   34.2845 H   0  0  0  0  0  0  0  0  0  0  0  0
   38.4503   18.8922   33.8792 H   0  0  0  0  0  0  0  0  0  0  0  0
   38.5982   20.4033   32.9790 H   0  0  0  0  0  0  0  0  0  0  0  0
   39.9867   21.3892   34.6417 H   0  0  0  0  0  0  0  0  0  0  0  0
   40.3763   19.7195   35.0232 H   0  0  0  0  0  0  0  0  0  0  0  0
   36.6019   20.3534   38.3492 H   0  0  0  0  0  0  0  0  0  0  0  0
   37.2536   16.7503   38.1021 H   0  0  0  0  0  0  0  0  0  0  0  0
   36.7274   15.1858   39.9740 H   0  0  0  0  0  0  0  0  0  0  0  0
   34.5976   18.3515   42.0237 H   0  0  0  0  0  0  0  0  0  0  0  0
   35.1011   19.9046   40.1461 H   0  0  0  0  0  0  0  0  0  0  0  0
   35.6572   16.2130   43.2501 H   0  0  0  0  0  0  0  0  0  0  0  0
   36.3224   14.0423   43.2487 H   0  0  0  0  0  0  0  0  0  0  0  0
   35.5059   13.6595   41.6952 H   0  0  0  0  0  0  0  0  0  0  0  0
   37.0578   14.5641   41.6952 H   0  0  0  0  0  0  0  0  0  0  0  0
   33.4842   15.4196   43.3153 H   0  0  0  0  0  0  0  0  0  0  0  0
   33.3596   16.3095   41.7599 H   0  0  0  0  0  0  0  0  0  0  0  0
   33.6643   14.5393   41.7599 H   0  0  0  0  0  0  0  0  0  0  0  0
  1  2  1  0
  1  3  2  0
  2  4  1  0
  2  5  1  0
  2  6  1  0
  7  8  1  0
  8  9  1  0
  8 11  1  0
  9 10  2  0
 11 12  1  0
 12 13  1  0
 13 14  1  0
 14 15  1  0
 16 17  1  0
 16 22  1  0
 17 18  1  0
 17 20  1  0
 18 19  2  0
 20 21  1  0
 21 22  1  0
 23 24  1  0
 23 25  2  0
 23 29  1  0
 25 26  1  0
 26 27  2  0
 27 28  1  0
 27 30  1  0
 28 29  2  0
 30 31  1  0
 30 32  1  0
  1  7  1  0
  9 16  1  0
 18 24  1  0
  7 33  1  0
  8 34  1  0
 11 35  1  0
 11 36  1  0
 12 37  1  0
 12 38  1  0
 13 39  1  0
 13 40  1  0
 14 41  1  0
 14 42  1  0
 15 43  1  0
 15 44  1  0
 15 45  1  0
 17 46  1  0
 20 47  1  0
 20 48  1  0
 21 49  1  0
 21 50  1  0
 22 51  1  0
 22 52  1  0
 24 53  1  0
 25 54  1  0
 26 55  1  0
 28 56  1  0
 29 57  1  0
 30 58  1  0
 31 59  1  0
 31 60  1  0
 31 61  1  0
 32 62  1  0
 32 63  1  0
 32 64  1  0
M  CHG  1  15   1
A    1
C1
A    2
C2
A    3
O
A    4
F1
A    5
F2
A    6
F3
A    7
N
A    8
CA
A    9
C
A   10
O1
A   11
CB
A   12
CG
A   13
CD
A   14
CE
A   15
NZ
A   16
N1
A   17
CA1
A   18
C3
A   19
O2
A   20
CB1
A   21
CG1
A   22
CD1
A   23
C11
A   24
N11
A   25
C21
A   26
C31
A   27
C4
A   28
C5
A   29
C6
A   30
C1'
A   31
C2'
A   32
C3'
M  END
