1ELC_0Z3_A_256
     RDKit          3D

 70 71  0  0  0  0  0  0  0  0999 V2000
   42.8050   20.7570   36.2120 C   0  0  0  0  0  0  0  0  0  0  0  0
   43.3350   22.1690   35.5980 C   0  0  0  0  0  0  0  0  0  0  0  0
   43.2220   19.6600   35.7850 O   0  0  0  0  0  0  0  0  0  0  0  0
   44.5760   22.5880   35.9040 F   0  0  0  0  0  0  0  0  0  0  0  0
   43.3400   22.1380   34.2310 F   0  0  0  0  0  0  0  0  0  0  0  0
   42.5450   23.2360   35.9070 F   0  0  0  0  0  0  0  0  0  0  0  0
   41.9850   20.7120   37.3110 N   0  0  0  0  0  0  0  0  0  0  0  0
   41.1470   19.5470   37.7390 C   0  0  0  0  0  0  0  0  0  0  0  0
   39.9350   20.2470   38.3590 C   0  0  0  0  0  0  0  0  0  0  0  0
   39.5500   20.1350   39.5140 O   0  0  0  0  0  0  0  0  0  0  0  0
   41.6950   18.6340   38.8360 C   0  0  0  0  0  0  0  0  0  0  0  0
   41.7310   17.1930   38.3090 C   0  0  0  0  0  0  0  0  0  0  0  0
   42.0520   16.1940   39.4090 C   0  0  0  0  0  0  0  0  0  0  0  0
   42.4190   14.8100   38.8540 C   0  0  0  0  0  0  0  0  0  0  0  0
   43.7640   14.7820   38.3030 N   0  0  0  0  0  0  0  0  0  0  0  0
   39.2820   20.8490   37.3710 N   0  0  0  0  0  0  0  0  0  0  0  0
   38.3090   21.8990   37.4870 C   0  0  0  0  0  0  0  0  0  0  0  0
   36.8880   21.5760   36.9920 C   0  0  0  0  0  0  0  0  0  0  0  0
   36.1860   20.7300   37.5860 O   0  0  0  0  0  0  0  0  0  0  0  0
   39.0710   22.9630   36.7310 C   0  0  0  0  0  0  0  0  0  0  0  0
   39.5100   24.0670   37.6060 C   0  0  0  0  0  0  0  0  0  0  0  0
   40.4130   23.8390   38.6290 C   0  0  0  0  0  0  0  0  0  0  0  0
   38.9750   25.3110   37.3900 C   0  0  0  0  0  0  0  0  0  0  0  0
   40.7890   24.8850   39.4520 C   0  0  0  0  0  0  0  0  0  0  0  0
   39.3470   26.3550   38.2160 C   0  0  0  0  0  0  0  0  0  0  0  0
   40.2460   26.1450   39.2320 C   0  0  0  0  0  0  0  0  0  0  0  0
   35.5440   22.3810   35.1150 C   0  0  0  0  0  0  0  0  0  0  0  0
   36.5460   22.4810   36.0050 N   0  0  0  0  0  0  0  0  0  0  0  0
   35.2290   21.1470   34.5420 C   0  0  0  0  0  0  0  0  0  0  0  0
   34.3760   21.0890   33.4530 C   0  0  0  0  0  0  0  0  0  0  0  0
   33.8090   22.2580   32.9150 C   0  0  0  0  0  0  0  0  0  0  0  0
   34.1070   23.5020   33.4970 C   0  0  0  0  0  0  0  0  0  0  0  0
   34.9690   23.5580   34.5920 C   0  0  0  0  0  0  0  0  0  0  0  0
   32.9050   22.1250   31.6650 C   0  0  0  0  0  0  0  0  0  0  0  0
   33.7410   21.4370   30.5710 C   0  0  0  0  0  0  0  0  0  0  0  0
   32.3370   23.4620   31.2430 C   0  0  0  0  0  0  0  0  0  0  0  0
   41.9417   21.5584   37.8963 H   0  0  0  0  0  0  0  0  0  0  0  0
   41.0159   18.8848   36.8705 H   0  0  0  0  0  0  0  0  0  0  0  0
   42.7117   18.9532   39.1089 H   0  0  0  0  0  0  0  0  0  0  0  0
   41.0502   18.6904   39.7254 H   0  0  0  0  0  0  0  0  0  0  0  0
   40.7483   16.9465   37.8807 H   0  0  0  0  0  0  0  0  0  0  0  0
   42.5231   17.1283   37.5485 H   0  0  0  0  0  0  0  0  0  0  0  0
   42.9004   16.5755   39.9961 H   0  0  0  0  0  0  0  0  0  0  0  0
   41.1516   16.0783   40.0302 H   0  0  0  0  0  0  0  0  0  0  0  0
   42.3533   14.0726   39.6676 H   0  0  0  0  0  0  0  0  0  0  0  0
   41.7151   14.5723   38.0428 H   0  0  0  0  0  0  0  0  0  0  0  0
   44.4496   14.7677   39.0715 H   0  0  0  0  0  0  0  0  0  0  0  0
   43.8802   13.9384   37.7235 H   0  0  0  0  0  0  0  0  0  0  0  0
   43.9152   15.6200   37.7235 H   0  0  0  0  0  0  0  0  0  0  0  0
   39.4973   20.5272   36.4165 H   0  0  0  0  0  0  0  0  0  0  0  0
   38.0155   22.1682   38.5124 H   0  0  0  0  0  0  0  0  0  0  0  0
   39.9577   22.5029   36.2704 H   0  0  0  0  0  0  0  0  0  0  0  0
   38.3960   23.3842   35.9714 H   0  0  0  0  0  0  0  0  0  0  0  0
   40.8290   22.8330   38.7867 H   0  0  0  0  0  0  0  0  0  0  0  0
   38.2597   25.4758   36.5707 H   0  0  0  0  0  0  0  0  0  0  0  0
   41.5074   24.7219   40.2688 H   0  0  0  0  0  0  0  0  0  0  0  0
   38.9214   27.3571   38.0588 H   0  0  0  0  0  0  0  0  0  0  0  0
   40.5400   26.9841   39.8796 H   0  0  0  0  0  0  0  0  0  0  0  0
   37.1260   23.3300   35.9446 H   0  0  0  0  0  0  0  0  0  0  0  0
   35.6580   20.2223   34.9553 H   0  0  0  0  0  0  0  0  0  0  0  0
   34.1383   20.1142   33.0020 H   0  0  0  0  0  0  0  0  0  0  0  0
   33.6640   24.4239   33.0922 H   0  0  0  0  0  0  0  0  0  0  0  0
   35.2027   24.5294   35.0522 H   0  0  0  0  0  0  0  0  0  0  0  0
   32.0194   21.5090   31.8800 H   0  0  0  0  0  0  0  0  0  0  0  0
   34.5093   20.8047   31.0399 H   0  0  0  0  0  0  0  0  0  0  0  0
   33.0848   20.8138   29.9456 H   0  0  0  0  0  0  0  0  0  0  0  0
   34.2263   22.2008   29.9456 H   0  0  0  0  0  0  0  0  0  0  0  0
   32.0862   24.0524   32.1366 H   0  0  0  0  0  0  0  0  0  0  0  0
   33.0825   24.0041   30.6428 H   0  0  0  0  0  0  0  0  0  0  0  0
   31.4292   23.3018   30.6428 H   0  0  0  0  0  0  0  0  0  0  0  0
  1  2  1  0
  1  3  2  0
  2  4  1  0
  2  5  1  0
  2  6  1  0
  7  8  1  0
  8  9  1  0
  8 11  1  0
  9 10  2  0
 11 12  1  0
 12 13  1  0
 13 14  1  0
 14 15  1  0
 16 17  1  0
 17 18  1  0
 17 20  1  0
 18 19  2  0
 20 21  1  0
 21 22  2  0
 21 23  1  0
 22 24  1  0
 23 25  2  0
 24 26  2  0
 25 26  1  0
 27 28  1  0
 27 29  2  0
 27 33  1  0
 29 30  1  0
 30 31  2  0
 31 32  1  0
 31 34  1  0
 32 33  2  0
 34 35  1  0
 34 36  1  0
  1  7  1  0
  9 16  1  0
 18 28  1  0
  7 37  1  0
  8 38  1  0
 11 39  1  0
 11 40  1  0
 12 41  1  0
 12 42  1  0
 13 43  1  0
 13 44  1  0
 14 45  1  0
 14 46  1  0
 15 47  1  0
 15 48  1  0
 15 49  1  0
 16 50  1  0
 17 51  1  0
 20 52  1  0
 20 53  1  0
 22 54  1  0
 23 55  1  0
 24 56  1  0
 25 57  1  0
 26 58  1  0
 28 59  1  0
 29 60  1  0
 30 61  1  0
 32 62  1  0
 33 63  1  0
 34 64  1  0
 35 65  1  0
 35 66  1  0
 35 67  1  0
 36 68  1  0
 36 69  1  0
 36 70  1  0
M  CHG  1  15   1
A    1
C1
A    2
C2
A    3
O
A    4
F1
A    5
F2
A    6
F3
A    7
N
A    8
CA
A    9
C
A   10
O1
A   11
CB
A   12
CG
A   13
CD
A   14
CE
A   15
NZ
A   16
N1
A   17
CA1
A   18
C3
A   19
O2
A   20
CB1
A   21
CG1
A   22
CD1
A   23
CD2
A   24
CE1
A   25
CE2
A   26
CZ
A   27
C11
A   28
N11
A   29
C21
A   30
C31
A   31
C4
A   32
C5
A   33
C6
A   34
C1'
A   35
C2'
A   36
C3'
M  END
