1ELE_0QN_E_256
     RDKit          3D

 48 48  0  0  0  0  0  0  0  0999 V2000
   40.8590   23.4540   37.6320 C   0  0  0  0  0  0  0  0  0  0  0  0
   41.3060   24.6440   38.5650 C   0  0  0  0  0  0  0  0  0  0  0  0
   40.2220   23.6390   36.5760 O   0  0  0  0  0  0  0  0  0  0  0  0
   41.9710   24.3170   39.6950 F   0  0  0  0  0  0  0  0  0  0  0  0
   42.1280   25.5110   37.9410 F   0  0  0  0  0  0  0  0  0  0  0  0
   40.2340   25.3420   38.9410 F   0  0  0  0  0  0  0  0  0  0  0  0
   41.1110   22.2030   38.0830 N   0  0  0  0  0  0  0  0  0  0  0  0
   40.8200   21.0120   37.3320 C   0  0  0  0  0  0  0  0  0  0  0  0
   39.2950   20.8540   37.3190 C   0  0  0  0  0  0  0  0  0  0  0  0
   38.6170   21.1530   38.3050 O   0  0  0  0  0  0  0  0  0  0  0  0
   41.6940   19.9010   38.0520 C   0  0  0  0  0  0  0  0  0  0  0  0
   41.0330   19.3510   39.2860 C   0  0  0  0  0  0  0  0  0  0  0  0
   42.0020   18.8020   37.0560 C   0  0  0  0  0  0  0  0  0  0  0  0
   38.7360   20.5480   36.1290 N   0  0  0  0  0  0  0  0  0  0  0  0
   37.2910   20.3340   36.0160 C   0  0  0  0  0  0  0  0  0  0  0  0
   37.0260   18.9830   36.6670 C   0  0  0  0  0  0  0  0  0  0  0  0
   37.4970   17.9290   36.2080 O   0  0  0  0  0  0  0  0  0  0  0  0
   36.8060   20.2580   34.5640 C   0  0  0  0  0  0  0  0  0  0  0  0
   36.3390   19.2080   37.8080 N   0  0  0  0  0  0  0  0  0  0  0  0
   36.0000   18.2370   38.6900 C   0  0  0  0  0  0  0  0  0  0  0  0
   35.3850   18.6370   39.8610 C   0  0  0  0  0  0  0  0  0  0  0  0
   35.0570   17.7240   40.8230 C   0  0  0  0  0  0  0  0  0  0  0  0
   35.3420   16.3720   40.6360 C   0  0  0  0  0  0  0  0  0  0  0  0
   35.9500   15.9680   39.4500 C   0  0  0  0  0  0  0  0  0  0  0  0
   36.2750   16.8880   38.4890 C   0  0  0  0  0  0  0  0  0  0  0  0
   35.0370   15.3260   41.7800 C   0  0  0  0  0  0  0  0  0  0  0  0
   35.4180   14.0140   41.6140 F   0  0  0  0  0  0  0  0  0  0  0  0
   35.6500   15.7270   42.8940 F   0  0  0  0  0  0  0  0  0  0  0  0
   33.7330   15.3160   42.0820 F   0  0  0  0  0  0  0  0  0  0  0  0
   41.5347   22.0984   39.0160 H   0  0  0  0  0  0  0  0  0  0  0  0
   41.0861   20.9845   36.2650 H   0  0  0  0  0  0  0  0  0  0  0  0
   42.6293   20.3654   38.3977 H   0  0  0  0  0  0  0  0  0  0  0  0
   41.5259   19.7612   40.1798 H   0  0  0  0  0  0  0  0  0  0  0  0
   39.9704   19.6352   39.2904 H   0  0  0  0  0  0  0  0  0  0  0  0
   41.1193   18.2544   39.2904 H   0  0  0  0  0  0  0  0  0  0  0  0
   42.2606   17.8794   37.5963 H   0  0  0  0  0  0  0  0  0  0  0  0
   41.1197   18.6219   36.4242 H   0  0  0  0  0  0  0  0  0  0  0  0
   42.8494   19.1067   36.4242 H   0  0  0  0  0  0  0  0  0  0  0  0
   39.3310   20.4642   35.2924 H   0  0  0  0  0  0  0  0  0  0  0  0
   36.7630   21.1760   36.4875 H   0  0  0  0  0  0  0  0  0  0  0  0
   35.7194   20.0877   34.5488 H   0  0  0  0  0  0  0  0  0  0  0  0
   37.0362   21.2032   34.0506 H   0  0  0  0  0  0  0  0  0  0  0  0
   37.3143   19.4286   34.0506 H   0  0  0  0  0  0  0  0  0  0  0  0
   36.0560   20.1754   38.0202 H   0  0  0  0  0  0  0  0  0  0  0  0
   35.1572   19.7013   40.0202 H   0  0  0  0  0  0  0  0  0  0  0  0
   34.5659   18.0570   41.7492 H   0  0  0  0  0  0  0  0  0  0  0  0
   36.1706   14.9032   39.2841 H   0  0  0  0  0  0  0  0  0  0  0  0
   36.7549   16.5594   37.5553 H   0  0  0  0  0  0  0  0  0  0  0  0
  1  2  1  0
  1  3  2  0
  2  4  1  0
  2  5  1  0
  2  6  1  0
  7  8  1  0
  8  9  1  0
  8 11  1  0
  9 10  2  0
 11 12  1  0
 11 13  1  0
 14 15  1  0
 15 16  1  0
 15 18  1  0
 16 17  2  0
 19 20  1  0
 20 21  2  0
 20 25  1  0
 21 22  1  0
 22 23  2  0
 23 24  1  0
 23 26  1  0
 24 25  2  0
 26 27  1  0
 26 28  1  0
 26 29  1  0
  1  7  1  0
  9 14  1  0
 16 19  1  0
  7 30  1  0
  8 31  1  0
 11 32  1  0
 12 33  1  0
 12 34  1  0
 12 35  1  0
 13 36  1  0
 13 37  1  0
 13 38  1  0
 14 39  1  0
 15 40  1  0
 18 41  1  0
 18 42  1  0
 18 43  1  0
 19 44  1  0
 21 45  1  0
 22 46  1  0
 24 47  1  0
 25 48  1  0
A    1
C1
A    2
C2
A    3
O
A    4
F1
A    5
F2
A    6
F3
A    7
N
A    8
CA
A    9
C
A   10
O1
A   11
CB
A   12
CG1
A   13
CG2
A   14
N1
A   15
CA1
A   16
C3
A   17
O2
A   18
CB1
A   19
N2
A   20
C11
A   21
C21
A   22
C31
A   23
C4
A   24
C5
A   25
C6
A   26
C7
A   27
F11
A   28
F21
A   29
F31
M  END
