1ENU_APZ_A_400
     RDKit          3D

 20 21  0  0  0  0  0  0  0  0999 V2000
   15.8570   17.0170   23.9000 N   0  0  0  0  0  0  0  0  0  0  0  0
   15.4180   16.8080   22.6540 C   0  0  0  0  0  0  0  0  0  0  0  0
   14.2550   16.4500   22.4630 O   0  0  0  0  0  0  0  0  0  0  0  0
   16.3270   16.9930   21.5170 C   0  0  0  0  0  0  0  0  0  0  0  0
   15.9130   16.7940   20.1850 C   0  0  0  0  0  0  0  0  0  0  0  0
   16.8180   16.9950   19.1330 C   0  0  0  0  0  0  0  0  0  0  0  0
   18.1390   17.4020   19.4080 C   0  0  0  0  0  0  0  0  0  0  0  0
   18.5520   17.6070   20.7330 C   0  0  0  0  0  0  0  0  0  0  0  0
   17.6490   17.4110   21.7900 C   0  0  0  0  0  0  0  0  0  0  0  0
   18.0560   17.6170   23.1860 C   0  0  0  0  0  0  0  0  0  0  0  0
   19.2020   17.9730   23.4500 O   0  0  0  0  0  0  0  0  0  0  0  0
   17.1670   17.4200   24.1640 N   0  0  0  0  0  0  0  0  0  0  0  0
   19.0140   17.5980   18.3900 N   0  0  0  0  0  0  0  0  0  0  0  0
   15.2091   16.8764   24.6882 H   0  0  0  0  0  0  0  0  0  0  0  0
   14.8805   16.4812   19.9705 H   0  0  0  0  0  0  0  0  0  0  0  0
   16.4969   16.8350   18.0931 H   0  0  0  0  0  0  0  0  0  0  0  0
   19.5847   17.9217   20.9440 H   0  0  0  0  0  0  0  0  0  0  0  0
   17.4568   17.5699   25.1409 H   0  0  0  0  0  0  0  0  0  0  0  0
   19.9994   17.8187   18.5931 H   0  0  0  0  0  0  0  0  0  0  0  0
   18.6930   17.5261   17.4139 H   0  0  0  0  0  0  0  0  0  0  0  0
  1  2  1  0
  1 12  1  0
  2  3  2  0
  2  4  1  0
  4  5  2  0
  4  9  1  0
  5  6  1  0
  6  7  2  0
  7  8  1  0
  7 13  1  0
  8  9  2  0
  9 10  1  0
 10 11  2  0
 10 12  1  0
  1 14  1  0
  5 15  1  0
  6 16  1  0
  8 17  1  0
 12 18  1  0
 13 19  1  0
 13 20  1  0
A    1
N10
A    2
C5
A    3
O11
A    4
C2
A    5
C6
A    6
C12
A    7
C9
A    8
C4
A    9
C1
A   10
C3
A   11
O8
A   12
N7
A   13
N13
M  END
