11BG_U2G_A_130
     RDKit          3D

 56 59  0  0  0  0  0  0  0  0999 V2000
    7.8740   52.8980   71.6960 N   0  0  0  0  0  0  0  0  0  0  0  0
    6.9930   53.8560   72.0880 C   0  0  0  0  0  0  0  0  0  0  0  0
    6.9790   54.1730   73.3820 N   0  0  0  0  0  0  0  0  0  0  0  0
    6.1800   54.4600   71.2670 N   0  0  0  0  0  0  0  0  0  0  0  0
    6.3320   54.0260   69.9950 C   0  0  0  0  0  0  0  0  0  0  0  0
    7.1840   53.0680   69.5090 C   0  0  0  0  0  0  0  0  0  0  0  0
    8.0190   52.4200   70.3890 C   0  0  0  0  0  0  0  0  0  0  0  0
    8.8000   51.5130   70.1430 O   0  0  0  0  0  0  0  0  0  0  0  0
    7.0310   52.9080   68.1460 N   0  0  0  0  0  0  0  0  0  0  0  0
    6.0900   53.7530   67.8320 C   0  0  0  0  0  0  0  0  0  0  0  0
    5.6170   54.4600   68.9110 N   0  0  0  0  0  0  0  0  0  0  0  0
    4.5520   55.4710   68.9520 C   0  0  0  0  0  0  0  0  0  0  0  0
    5.0360   56.9280   68.9490 C   0  0  0  0  0  0  0  0  0  0  0  0
    4.1980   57.6930   69.8130 O   0  0  0  0  0  0  0  0  0  0  0  0
    4.8610   57.2960   67.4800 C   0  0  0  0  0  0  0  0  0  0  0  0
    4.6600   58.6830   67.2710 O   0  0  0  0  0  0  0  0  0  0  0  0
    3.5910   56.5560   67.1060 C   0  0  0  0  0  0  0  0  0  0  0  0
    3.6770   55.3040   67.8450 O   0  0  0  0  0  0  0  0  0  0  0  0
    3.4740   56.2930   65.6200 C   0  0  0  0  0  0  0  0  0  0  0  0
    4.6510   55.5950   65.1440 O   0  0  0  0  0  0  0  0  0  0  0  0
    5.8330   56.3450   64.3580 P   0  0  0  0  0  0  0  0  0  0  0  0
    6.9130   55.3250   64.1310 O   0  0  0  0  0  0  0  0  0  0  0  0
    6.1530   57.6470   65.0430 O   0  0  0  0  0  0  0  0  0  0  0  0
    3.3340   53.8300   57.9000 O   0  0  0  0  0  0  0  0  0  0  0  0
    4.0350   53.6070   59.1670 C   0  0  0  0  0  0  0  0  0  0  0  0
    4.2720   54.9210   59.9270 C   0  0  0  0  0  0  0  0  0  0  0  0
    3.0140   55.5720   60.3040 O   0  0  0  0  0  0  0  0  0  0  0  0
    5.0150   54.6880   61.2360 C   0  0  0  0  0  0  0  0  0  0  0  0
    6.4330   54.8020   61.0590 O   0  0  0  0  0  0  0  0  0  0  0  0
    4.4220   55.6920   62.2470 C   0  0  0  0  0  0  0  0  0  0  0  0
    5.2440   56.6610   62.8760 O   0  0  0  0  0  0  0  0  0  0  0  0
    3.1660   56.2410   61.5520 C   0  0  0  0  0  0  0  0  0  0  0  0
    1.9230   56.0960   62.3320 N   0  0  0  0  0  0  0  0  0  0  0  0
    8.4840   52.4912   72.4194 H   0  0  0  0  0  0  0  0  0  0  0  0
    7.0118   53.4300   74.0946 H   0  0  0  0  0  0  0  0  0  0  0  0
    6.9354   55.1610   73.6697 H   0  0  0  0  0  0  0  0  0  0  0  0
    5.7128   53.8867   66.8074 H   0  0  0  0  0  0  0  0  0  0  0  0
    4.0471   55.3006   69.9143 H   0  0  0  0  0  0  0  0  0  0  0  0
    6.0615   57.1005   69.3076 H   0  0  0  0  0  0  0  0  0  0  0  0
    4.4217   57.4888   70.7555 H   0  0  0  0  0  0  0  0  0  0  0  0
    5.7540   57.0382   66.8916 H   0  0  0  0  0  0  0  0  0  0  0  0
    4.5934   59.1423   68.1455 H   0  0  0  0  0  0  0  0  0  0  0  0
    2.6990   57.1501   67.3540 H   0  0  0  0  0  0  0  0  0  0  0  0
    2.5832   55.6767   65.4286 H   0  0  0  0  0  0  0  0  0  0  0  0
    3.3857   57.2530   65.0902 H   0  0  0  0  0  0  0  0  0  0  0  0
    6.1218   57.5200   66.0243 H   0  0  0  0  0  0  0  0  0  0  0  0
    2.4069   54.1249   58.0833 H   0  0  0  0  0  0  0  0  0  0  0  0
    3.4303   52.9364   59.7952 H   0  0  0  0  0  0  0  0  0  0  0  0
    5.0149   53.1609   58.9416 H   0  0  0  0  0  0  0  0  0  0  0  0
    4.8549   55.5477   59.2360 H   0  0  0  0  0  0  0  0  0  0  0  0
    4.8793   53.6646   61.6159 H   0  0  0  0  0  0  0  0  0  0  0  0
    6.8743   54.8375   61.9445 H   0  0  0  0  0  0  0  0  0  0  0  0
    4.2160   55.1445   63.1785 H   0  0  0  0  0  0  0  0  0  0  0  0
    3.3209   57.3231   61.4294 H   0  0  0  0  0  0  0  0  0  0  0  0
    2.1438   56.1218   63.3377 H   0  0  0  0  0  0  0  0  0  0  0  0
    1.2810   56.8678   62.1015 H   0  0  0  0  0  0  0  0  0  0  0  0
  1  2  1  0
  1  7  1  0
  2  3  1  0
  2  4  2  0
  4  5  1  0
  5  6  2  0
  5 11  1  0
  6  7  1  0
  6  9  1  0
  7  8  2  0
  9 10  2  0
 10 11  1  0
 11 12  1  0
 12 13  1  0
 12 18  1  0
 13 14  1  0
 13 15  1  0
 15 16  1  0
 15 17  1  0
 17 18  1  0
 17 19  1  0
 19 20  1  0
 20 21  1  0
 21 22  2  0
 21 23  1  0
 21 31  1  0
 24 25  1  0
 25 26  1  0
 26 27  1  0
 26 28  1  0
 27 32  1  0
 28 29  1  0
 28 30  1  0
 30 31  1  0
 30 32  1  0
 32 33  1  0
  1 34  1  0
  3 35  1  0
  3 36  1  0
 10 37  1  0
 12 38  1  0
 13 39  1  0
 14 40  1  0
 15 41  1  0
 16 42  1  0
 17 43  1  0
 19 44  1  0
 19 45  1  0
 23 46  1  0
 24 47  1  0
 25 48  1  0
 25 49  1  0
 26 50  1  0
 28 51  1  0
 29 52  1  0
 30 53  1  0
 32 54  1  0
 33 55  1  0
 33 56  1  0
A    1
N1G
A    2
C2G
A    3
N2G
A    4
N3G
A    5
C4G
A    6
C5G
A    7
C6G
A    8
O6G
A    9
N7G
A   10
C8G
A   11
N9G
A   12
C1B
A   13
C2B
A   14
O2B
A   15
C3B
A   16
O3B
A   17
C4B
A   18
O4B
A   19
C5B
A   20
O5B
A   21
P
A   22
O1P
A   23
O2P
A   24
O5D
A   25
C5D
A   26
C4D
A   27
O4D
A   28
C3D
A   29
O3D
A   30
C2D
A   31
O2D
A   32
C1D
A   33
N1U
M  END
