1C9Y_CP_A_356
     RDKit          3D

 12 11  0  0  0  0  0  0  0  0999 V2000
   -2.0050    1.8020  -24.4670 N   0  0  0  0  0  0  0  0  0  0  0  0
   -2.0560    1.1830  -23.2850 C   0  0  0  0  0  0  0  0  0  0  0  0
   -1.4200    0.1340  -23.2010 O   0  0  0  0  0  0  0  0  0  0  0  0
   -2.8380    1.7650  -22.2260 O   0  0  0  0  0  0  0  0  0  0  0  0
   -2.7760    1.1720  -20.7350 P   0  0  0  0  0  0  0  0  0  0  0  0
   -3.9690    1.8630  -19.9900 O   0  0  0  0  0  0  0  0  0  0  0  0
   -2.9190   -0.4200  -20.7700 O   0  0  0  0  0  0  0  0  0  0  0  0
   -1.3850    1.5770  -20.0650 O   0  0  0  0  0  0  0  0  0  0  0  0
   -1.9205    2.8277  -24.5080 H   0  0  0  0  0  0  0  0  0  0  0  0
   -2.0502    1.2538  -25.3378 H   0  0  0  0  0  0  0  0  0  0  0  0
   -2.9503   -0.7689  -19.8441 H   0  0  0  0  0  0  0  0  0  0  0  0
   -1.4736    1.5512  -19.0793 H   0  0  0  0  0  0  0  0  0  0  0  0
  1  2  1  0
  2  3  2  0
  2  4  1  0
  4  5  1  0
  5  6  2  0
  5  7  1  0
  5  8  1  0
  1  9  1  0
  1 10  1  0
  7 11  1  0
  8 12  1  0
A    1
N
A    2
C
A    3
O
A    4
O4P
A    5
P
A    6
O1P
A    7
O2P
A    8
O3P
M  END
