1EQU_EQI_A_329
     RDKit          3D

 40 43  0  0  0  0  0  0  0  0999 V2000
    6.6600   28.9550   31.9800 C   0  0  0  0  0  0  0  0  0  0  0  0
    8.0050   29.1450   31.6810 C   0  0  0  0  0  0  0  0  0  0  0  0
    9.0150   28.9190   32.5970 C   0  0  0  0  0  0  0  0  0  0  0  0
    8.6440   28.4550   33.9470 C   0  0  0  0  0  0  0  0  0  0  0  0
    7.2980   28.2820   34.2040 C   0  0  0  0  0  0  0  0  0  0  0  0
    6.3070   28.5150   33.2850 C   0  0  0  0  0  0  0  0  0  0  0  0
   10.4650   29.0980   32.2520 C   0  0  0  0  0  0  0  0  0  0  0  0
   11.4530   28.6260   33.2830 C   0  0  0  0  0  0  0  0  0  0  0  0
   11.1030   28.1760   34.5280 C   0  0  0  0  0  0  0  0  0  0  0  0
    9.6570   28.0850   34.9750 C   0  0  0  0  0  0  0  0  0  0  0  0
   12.0680   27.6940   35.5850 C   0  0  0  0  0  0  0  0  0  0  0  0
   11.7550   26.2140   35.9710 C   0  0  0  0  0  0  0  0  0  0  0  0
   10.3420   26.1200   36.4880 C   0  0  0  0  0  0  0  0  0  0  0  0
    9.3530   26.6360   35.4730 C   0  0  0  0  0  0  0  0  0  0  0  0
   13.5620   27.6490   35.4000 C   0  0  0  0  0  0  0  0  0  0  0  0
   14.0600   26.8080   36.6460 C   0  0  0  0  0  0  0  0  0  0  0  0
   12.8590   25.9030   36.9540 C   0  0  0  0  0  0  0  0  0  0  0  0
   11.9750   25.2210   34.7910 C   0  0  0  0  0  0  0  0  0  0  0  0
    5.6680   29.1620   31.1040 O   0  0  0  0  0  0  0  0  0  0  0  0
   12.8210   25.0470   37.8300 O   0  0  0  0  0  0  0  0  0  0  0  0
    8.2765   29.4899   30.6724 H   0  0  0  0  0  0  0  0  0  0  0  0
    7.0032   27.9366   35.2059 H   0  0  0  0  0  0  0  0  0  0  0  0
    5.2514   28.3632   33.5545 H   0  0  0  0  0  0  0  0  0  0  0  0
   10.6600   28.5447   31.3215 H   0  0  0  0  0  0  0  0  0  0  0  0
   10.6179   30.1843   32.1714 H   0  0  0  0  0  0  0  0  0  0  0  0
   12.5212   28.6433   33.0211 H   0  0  0  0  0  0  0  0  0  0  0  0
    9.5616   28.8312   35.7775 H   0  0  0  0  0  0  0  0  0  0  0  0
   11.8790   28.5101   36.2980 H   0  0  0  0  0  0  0  0  0  0  0  0
   10.1110   25.0679   36.7110 H   0  0  0  0  0  0  0  0  0  0  0  0
   10.2621   26.7361   37.3958 H   0  0  0  0  0  0  0  0  0  0  0  0
    8.3523   26.6292   35.9296 H   0  0  0  0  0  0  0  0  0  0  0  0
    9.4207   25.9755   34.5960 H   0  0  0  0  0  0  0  0  0  0  0  0
   13.8271   27.1495   34.4565 H   0  0  0  0  0  0  0  0  0  0  0  0
   14.0186   28.6483   35.3457 H   0  0  0  0  0  0  0  0  0  0  0  0
   14.9489   26.2122   36.3911 H   0  0  0  0  0  0  0  0  0  0  0  0
   14.3612   27.4339   37.4990 H   0  0  0  0  0  0  0  0  0  0  0  0
   12.1967   24.2203   35.1904 H   0  0  0  0  0  0  0  0  0  0  0  0
   11.0649   25.1765   34.1747 H   0  0  0  0  0  0  0  0  0  0  0  0
   12.8187   25.5650   34.1747 H   0  0  0  0  0  0  0  0  0  0  0  0
    4.7525   29.3530   31.4289 H   0  0  0  0  0  0  0  0  0  0  0  0
  1  2  2  0
  1  6  1  0
  1 19  1  0
  2  3  1  0
  3  4  2  0
  3  7  1  0
  4  5  1  0
  4 10  1  0
  5  6  2  0
  7  8  1  0
  8  9  2  0
  9 10  1  0
  9 11  1  0
 10 14  1  0
 11 12  1  0
 11 15  1  0
 12 13  1  0
 12 17  1  0
 12 18  1  0
 13 14  1  0
 15 16  1  0
 16 17  1  0
 17 20  2  0
  2 21  1  0
  5 22  1  0
  6 23  1  0
  7 24  1  0
  7 25  1  0
  8 26  1  0
 10 27  1  0
 11 28  1  0
 13 29  1  0
 13 30  1  0
 14 31  1  0
 14 32  1  0
 15 33  1  0
 15 34  1  0
 16 35  1  0
 16 36  1  0
 18 37  1  0
 18 38  1  0
 18 39  1  0
 19 40  1  0
A    1
C1
A    2
C2
A    3
C3
A    4
C4
A    5
C5
A    6
C6
A    7
C10
A    8
C11
A    9
C12
A   10
C13
A   11
C16
A   12
C17
A   13
C18
A   14
C19
A   15
C24
A   16
C25
A   17
C26
A   18
C27
A   19
O1
A   20
O26
M  END
