1ERB_ETR_A_184
     RDKit          3D

 57 57  0  0  0  0  0  0  0  0999 V2000
   30.0350   21.4960   45.3510 C   0  0  0  0  0  0  0  0  0  0  0  0
   29.5360   21.5490   43.9000 C   0  0  0  0  0  0  0  0  0  0  0  0
   30.0000   20.3840   43.0340 C   0  0  0  0  0  0  0  0  0  0  0  0
   31.2680   19.7840   43.6060 C   0  0  0  0  0  0  0  0  0  0  0  0
   30.9700   19.3160   45.0280 C   0  0  0  0  0  0  0  0  0  0  0  0
   30.2620   20.0880   45.9100 C   0  0  0  0  0  0  0  0  0  0  0  0
   30.3430   19.5080   47.2550 C   0  0  0  0  0  0  0  0  0  0  0  0
   31.6130   19.5150   47.7410 C   0  0  0  0  0  0  0  0  0  0  0  0
   31.6720   19.1860   49.1630 C   0  0  0  0  0  0  0  0  0  0  0  0
   32.9770   19.1300   49.5110 C   0  0  0  0  0  0  0  0  0  0  0  0
   33.0790   18.9470   50.9230 C   0  0  0  0  0  0  0  0  0  0  0  0
   34.4980   18.8310   51.1830 C   0  0  0  0  0  0  0  0  0  0  0  0
   35.0440   18.6470   52.4650 C   0  0  0  0  0  0  0  0  0  0  0  0
   36.1710   18.4870   52.6170 C   0  0  0  0  0  0  0  0  0  0  0  0
   36.5720   18.2850   53.9970 C   0  0  0  0  0  0  0  0  0  0  0  0
   35.6070   18.3500   54.9850 O   0  0  0  0  0  0  0  0  0  0  0  0
   37.6270   17.9910   54.1300 N   0  0  0  0  0  0  0  0  0  0  0  0
   28.5990   21.6060   45.8100 C   0  0  0  0  0  0  0  0  0  0  0  0
   30.7830   22.7870   45.6750 C   0  0  0  0  0  0  0  0  0  0  0  0
   31.5600   17.9330   45.2190 C   0  0  0  0  0  0  0  0  0  0  0  0
   30.3050   18.9370   49.7900 C   0  0  0  0  0  0  0  0  0  0  0  0
   34.0830   18.7640   53.5240 C   0  0  0  0  0  0  0  0  0  0  0  0
   37.9900   16.7390   55.0200 C   0  0  0  0  0  0  0  0  0  0  0  0
   38.3520   17.4810   56.2650 C   0  0  0  0  0  0  0  0  0  0  0  0
   28.4361   21.5512   43.9139 H   0  0  0  0  0  0  0  0  0  0  0  0
   29.9599   22.4610   43.4544 H   0  0  0  0  0  0  0  0  0  0  0  0
   29.2138   19.6152   43.0065 H   0  0  0  0  0  0  0  0  0  0  0  0
   30.2014   20.7494   42.0162 H   0  0  0  0  0  0  0  0  0  0  0  0
   31.5868   18.9295   42.9911 H   0  0  0  0  0  0  0  0  0  0  0  0
   32.0751   20.5313   43.6114 H   0  0  0  0  0  0  0  0  0  0  0  0
   29.4769   19.1132   47.8064 H   0  0  0  0  0  0  0  0  0  0  0  0
   32.4989   19.7434   47.1302 H   0  0  0  0  0  0  0  0  0  0  0  0
   33.8258   19.2124   48.8162 H   0  0  0  0  0  0  0  0  0  0  0  0
   32.2582   18.9036   51.6540 H   0  0  0  0  0  0  0  0  0  0  0  0
   35.1884   18.8902   50.3287 H   0  0  0  0  0  0  0  0  0  0  0  0
   36.8889   18.4869   51.7835 H   0  0  0  0  0  0  0  0  0  0  0  0
   38.3745   18.5331   53.6737 H   0  0  0  0  0  0  0  0  0  0  0  0
   28.5647   21.6086   46.9095 H   0  0  0  0  0  0  0  0  0  0  0  0
   28.1623   22.5402   45.4273 H   0  0  0  0  0  0  0  0  0  0  0  0
   28.0251   20.7492   45.4273 H   0  0  0  0  0  0  0  0  0  0  0  0
   30.8523   22.9066   46.7663 H   0  0  0  0  0  0  0  0  0  0  0  0
   31.7949   22.7420   45.2461 H   0  0  0  0  0  0  0  0  0  0  0  0
   30.2407   23.6425   45.2461 H   0  0  0  0  0  0  0  0  0  0  0  0
   31.6514   17.7186   46.2940 H   0  0  0  0  0  0  0  0  0  0  0  0
   30.9023   17.1859   44.7508 H   0  0  0  0  0  0  0  0  0  0  0  0
   32.5545   17.8907   44.7508 H   0  0  0  0  0  0  0  0  0  0  0  0
   30.3959   18.9535   50.8861 H   0  0  0  0  0  0  0  0  0  0  0  0
   29.6054   19.7225   49.4682 H   0  0  0  0  0  0  0  0  0  0  0  0
   29.9273   17.9553   49.4682 H   0  0  0  0  0  0  0  0  0  0  0  0
   34.5973   18.7014   54.4944 H   0  0  0  0  0  0  0  0  0  0  0  0
   33.5660   19.7317   53.4448 H   0  0  0  0  0  0  0  0  0  0  0  0
   33.3489   17.9486   53.4448 H   0  0  0  0  0  0  0  0  0  0  0  0
   37.1314   16.0675   55.1677 H   0  0  0  0  0  0  0  0  0  0  0  0
   38.7567   16.0609   54.6170 H   0  0  0  0  0  0  0  0  0  0  0  0
   38.0619   16.8863   57.1437 H   0  0  0  0  0  0  0  0  0  0  0  0
   39.4375   17.6577   56.2840 H   0  0  0  0  0  0  0  0  0  0  0  0
   37.8231   18.4453   56.2840 H   0  0  0  0  0  0  0  0  0  0  0  0
  1  2  1  0
  1  6  1  0
  1 18  1  0
  1 19  1  0
  2  3  1  0
  3  4  1  0
  4  5  1  0
  5  6  2  0
  5 20  1  0
  6  7  1  0
  7  8  2  0
  8  9  1  0
  9 10  2  0
  9 21  1  0
 10 11  1  0
 11 12  2  0
 12 13  1  0
 13 14  2  0
 13 22  1  0
 14 15  1  0
 15 16  2  0
 15 17  1  0
 17 23  1  0
 23 24  1  0
  2 25  1  0
  2 26  1  0
  3 27  1  0
  3 28  1  0
  4 29  1  0
  4 30  1  0
  7 31  1  0
  8 32  1  0
 10 33  1  0
 11 34  1  0
 12 35  1  0
 14 36  1  0
 17 37  1  0
 18 38  1  0
 18 39  1  0
 18 40  1  0
 19 41  1  0
 19 42  1  0
 19 43  1  0
 20 44  1  0
 20 45  1  0
 20 46  1  0
 21 47  1  0
 21 48  1  0
 21 49  1  0
 22 50  1  0
 22 51  1  0
 22 52  1  0
 23 53  1  0
 23 54  1  0
 24 55  1  0
 24 56  1  0
 24 57  1  0
A    1
C1
A    2
C2
A    3
C3
A    4
C4
A    5
C5
A    6
C6
A    7
C7
A    8
C8
A    9
C9
A   10
C10
A   11
C11
A   12
C12
A   13
C13
A   14
C14
A   15
C15
A   16
O
A   17
N
A   18
C16
A   19
C17
A   20
C18
A   21
C19
A   22
C20
A   23
C21
A   24
C22
M  END
