1EVI_2PC_A_352
     RDKit          3D

 15 15  0  0  0  0  0  0  0  0999 V2000
   34.0270   72.7080   64.9990 N   0  0  0  0  0  0  0  0  0  0  0  0
   35.0880   72.8080   65.7850 C   0  0  0  0  0  0  0  0  0  0  0  0
   35.3690   71.5070   66.4580 C   0  0  0  0  0  0  0  0  0  0  0  0
   34.1770   70.5940   66.0970 C   0  0  0  0  0  0  0  0  0  0  0  0
   33.2390   71.4530   65.2250 C   0  0  0  0  0  0  0  0  0  0  0  0
   35.8600   74.1030   65.9380 C   0  0  0  0  0  0  0  0  0  0  0  0
   35.2590   75.0530   65.4440 O   0  0  0  0  0  0  0  0  0  0  0  0
   36.9410   74.0100   66.5150 O   0  0  0  0  0  0  0  0  0  0  0  0
   33.7690   73.4212   64.3021 H   0  0  0  0  0  0  0  0  0  0  0  0
   36.3103   71.0764   66.0859 H   0  0  0  0  0  0  0  0  0  0  0  0
   35.4801   71.6244   67.5461 H   0  0  0  0  0  0  0  0  0  0  0  0
   34.5245   69.7148   65.5346 H   0  0  0  0  0  0  0  0  0  0  0  0
   33.6652   70.2215   66.9967 H   0  0  0  0  0  0  0  0  0  0  0  0
   32.2984   71.6686   65.7531 H   0  0  0  0  0  0  0  0  0  0  0  0
   32.9472   70.9548   64.2887 H   0  0  0  0  0  0  0  0  0  0  0  0
  1  2  2  0
  1  5  1  0
  2  3  1  0
  2  6  1  0
  3  4  1  0
  4  5  1  0
  6  7  2  0
  6  8  1  0
  1  9  1  0
  3 10  1  0
  3 11  1  0
  4 12  1  0
  4 13  1  0
  5 14  1  0
  5 15  1  0
M  CHG  2   1   1   8  -1
A    1
N1
A    2
C2
A    3
C3
A    4
C4
A    5
C5
A    6
C6
A    7
O7
A    8
O8
M  END
