1EW9_MMQ_A_559
     RDKit          3D

  9  8  0  0  0  0  0  0  0  0999 V2000
   73.6670   39.0110   43.5090 S   0  0  0  0  0  0  0  0  0  0  0  0
   74.8050   37.0220   45.3710 P   0  0  0  0  0  0  0  0  0  0  0  0
   75.9650   37.3180   46.3390 O   0  0  0  0  0  0  0  0  0  0  0  0
   74.8140   35.5370   44.9980 O   0  0  0  0  0  0  0  0  0  0  0  0
   73.5460   37.4230   45.9820 O   0  0  0  0  0  0  0  0  0  0  0  0
   75.1110   37.9520   43.8360 C   0  0  0  0  0  0  0  0  0  0  0  0
   73.1176   39.4139   44.6976 H   0  0  0  0  0  0  0  0  0  0  0  0
   75.2554   37.2519   42.9999 H   0  0  0  0  0  0  0  0  0  0  0  0
   76.0159   38.5684   43.9413 H   0  0  0  0  0  0  0  0  0  0  0  0
  1  6  1  0
  2  3  2  0
  2  4  1  0
  2  5  1  0
  2  6  1  0
  1  7  1  0
  6  8  1  0
  6  9  1  0
M  CHG  2   4  -1   5  -1
A    1
S1
A    2
P
A    3
O1P
A    4
O2P
A    5
O3P
A    6
C1P
M  END
