1EX8_A4P_A_171
     RDKit          3D

 72 76  0  0  0  0  0  0  0  0999 V2000
   -1.7310   16.0200   21.7450 N   0  0  0  0  0  0  0  0  0  0  0  0
   -3.0080   16.6490   21.6610 C   0  0  0  0  0  0  0  0  0  0  0  0
   -3.4210   16.9220   20.4500 N   0  0  0  0  0  0  0  0  0  0  0  0
   -2.3380   16.4400   19.6670 C   0  0  0  0  0  0  0  0  0  0  0  0
   -2.2440   16.4790   18.2430 C   0  0  0  0  0  0  0  0  0  0  0  0
   -3.0750   16.9340   17.4080 N   0  0  0  0  0  0  0  0  0  0  0  0
   -1.0140   15.9120   17.6700 N   0  0  0  0  0  0  0  0  0  0  0  0
   -1.2500   15.5810   23.0850 C   0  0  0  0  0  0  0  0  0  0  0  0
   -0.1020   15.4180   18.4980 C   0  0  0  0  0  0  0  0  0  0  0  0
   -0.1220   15.3450   19.8910 N   0  0  0  0  0  0  0  0  0  0  0  0
   -1.3120   15.8940   20.4340 C   0  0  0  0  0  0  0  0  0  0  0  0
    2.3380   17.0560   23.4850 O   0  0  0  0  0  0  0  0  0  0  0  0
    1.6790   16.7480   24.7970 C   0  0  0  0  0  0  0  0  0  0  0  0
    0.5240   15.8640   24.4950 C   0  0  0  0  0  0  0  0  0  0  0  0
   -0.3830   16.5520   23.6040 O   0  0  0  0  0  0  0  0  0  0  0  0
    0.8110   14.6060   23.7740 C   0  0  0  0  0  0  0  0  0  0  0  0
    1.3240   13.6040   24.6130 O   0  0  0  0  0  0  0  0  0  0  0  0
   -0.5260   14.2430   23.1430 C   0  0  0  0  0  0  0  0  0  0  0  0
   -1.2610   13.3050   23.9740 O   0  0  0  0  0  0  0  0  0  0  0  0
    3.7310   17.8470   23.4590 P   0  0  0  0  0  0  0  0  0  0  0  0
    3.9010   18.2160   22.0280 O   0  0  0  0  0  0  0  0  0  0  0  0
    4.8890   17.0530   24.0220 O   0  0  0  0  0  0  0  0  0  0  0  0
    3.5030   19.0320   24.4170 O   0  0  0  0  0  0  0  0  0  0  0  0
    2.8520   20.4420   23.8710 P   0  0  0  0  0  0  0  0  0  0  0  0
    1.8550   21.0080   24.8500 O   0  0  0  0  0  0  0  0  0  0  0  0
    2.4680   20.3340   22.4200 O   0  0  0  0  0  0  0  0  0  0  0  0
    4.1320   21.4660   23.9990 O   0  0  0  0  0  0  0  0  0  0  0  0
    5.0020   21.8470   22.8690 P   0  0  0  0  0  0  0  0  0  0  0  0
    5.1370   20.6910   21.8740 O   0  0  0  0  0  0  0  0  0  0  0  0
    6.2980   22.3010   23.4610 O   0  0  0  0  0  0  0  0  0  0  0  0
    4.2720   23.0140   22.1020 O   0  0  0  0  0  0  0  0  0  0  0  0
    3.6820   22.8740   20.6100 P   0  0  0  0  0  0  0  0  0  0  0  0
    2.5470   23.8750   20.5950 O   0  0  0  0  0  0  0  0  0  0  0  0
    3.0600   21.4940   20.5880 O   0  0  0  0  0  0  0  0  0  0  0  0
    4.7040   22.9970   19.5230 O   0  0  0  0  0  0  0  0  0  0  0  0
    8.2990   26.8220   16.1330 N   0  0  0  0  0  0  0  0  0  0  0  0
    8.4940   26.5050   14.8620 C   0  0  0  0  0  0  0  0  0  0  0  0
    9.0220   27.3200   13.9810 N   0  0  0  0  0  0  0  0  0  0  0  0
    8.1040   25.2110   14.4510 N   0  0  0  0  0  0  0  0  0  0  0  0
    7.5350   24.2300   15.2420 C   0  0  0  0  0  0  0  0  0  0  0  0
    7.2480   23.1100   14.6830 O   0  0  0  0  0  0  0  0  0  0  0  0
    6.7560   23.7080   17.5800 N   0  0  0  0  0  0  0  0  0  0  0  0
    6.6010   24.1460   18.8770 C   0  0  0  0  0  0  0  0  0  0  0  0
    6.0120   23.2660   19.9040 C   0  0  0  0  0  0  0  0  0  0  0  0
    7.0160   25.5340   19.3350 C   0  0  0  0  0  0  0  0  0  0  0  0
    7.5430   26.2680   18.3330 N   0  0  0  0  0  0  0  0  0  0  0  0
    7.7490   25.9570   17.0270 C   0  0  0  0  0  0  0  0  0  0  0  0
    7.3260   24.5910   16.6350 C   0  0  0  0  0  0  0  0  0  0  0  0
   -3.6050   16.8883   22.5534 H   0  0  0  0  0  0  0  0  0  0  0  0
   -3.9312   17.4028   17.7367 H   0  0  0  0  0  0  0  0  0  0  0  0
   -2.8966   16.8363   16.3983 H   0  0  0  0  0  0  0  0  0  0  0  0
   -2.1715   15.4512   23.6715 H   0  0  0  0  0  0  0  0  0  0  0  0
    0.7982   15.0075   18.0173 H   0  0  0  0  0  0  0  0  0  0  0  0
    2.3857   16.2341   25.4652 H   0  0  0  0  0  0  0  0  0  0  0  0
    1.3522   17.6687   25.3024 H   0  0  0  0  0  0  0  0  0  0  0  0
    0.1411   15.6194   25.4968 H   0  0  0  0  0  0  0  0  0  0  0  0
    1.6047   14.7194   23.0209 H   0  0  0  0  0  0  0  0  0  0  0  0
    1.1904   13.8650   25.5586 H   0  0  0  0  0  0  0  0  0  0  0  0
   -0.4193   13.7555   22.1627 H   0  0  0  0  0  0  0  0  0  0  0  0
   -1.0987   13.5122   24.9284 H   0  0  0  0  0  0  0  0  0  0  0  0
    4.3144   19.1134   21.9655 H   0  0  0  0  0  0  0  0  0  0  0  0
    2.1639   20.8327   25.7741 H   0  0  0  0  0  0  0  0  0  0  0  0
    5.2364   19.8394   22.3690 H   0  0  0  0  0  0  0  0  0  0  0  0
    2.2926   24.0994   21.5251 H   0  0  0  0  0  0  0  0  0  0  0  0
    9.5553   28.1431   14.2956 H   0  0  0  0  0  0  0  0  0  0  0  0
    8.9035   27.1371   12.9743 H   0  0  0  0  0  0  0  0  0  0  0  0
    8.2594   24.9740   13.4608 H   0  0  0  0  0  0  0  0  0  0  0  0
    6.0223   23.7704   20.8815 H   0  0  0  0  0  0  0  0  0  0  0  0
    6.5892   22.3338   19.9927 H   0  0  0  0  0  0  0  0  0  0  0  0
    6.1312   26.0560   19.7282 H   0  0  0  0  0  0  0  0  0  0  0  0
    7.7895   25.4158   20.1081 H   0  0  0  0  0  0  0  0  0  0  0  0
    7.8366   27.2179   18.6020 H   0  0  0  0  0  0  0  0  0  0  0  0
  1  2  1  0
  1  8  1  0
  1 11  1  0
  2  3  2  0
  3  4  1  0
  4  5  1  0
  4 11  2  0
  5  6  1  0
  5  7  2  0
  7  9  1  0
  8 15  1  0
  8 18  1  0
  9 10  2  0
 10 11  1  0
 12 13  1  0
 12 20  1  0
 13 14  1  0
 14 15  1  0
 14 16  1  0
 16 17  1  0
 16 18  1  0
 18 19  1  0
 20 21  1  0
 20 22  2  0
 20 23  1  0
 23 24  1  0
 24 25  1  0
 24 26  2  0
 24 27  1  0
 27 28  1  0
 28 29  1  0
 28 30  2  0
 28 31  1  0
 31 32  1  0
 32 33  1  0
 32 34  2  0
 32 35  1  0
 35 44  1  0
 36 37  2  0
 36 47  1  0
 37 38  1  0
 37 39  1  0
 39 40  1  0
 40 41  2  0
 40 48  1  0
 42 43  2  0
 42 48  1  0
 43 44  1  0
 43 45  1  0
 45 46  1  0
 46 47  1  0
 47 48  2  0
  2 49  1  0
  6 50  1  0
  6 51  1  0
  8 52  1  0
  9 53  1  0
 13 54  1  0
 13 55  1  0
 14 56  1  0
 16 57  1  0
 17 58  1  0
 18 59  1  0
 19 60  1  0
 21 61  1  0
 25 62  1  0
 29 63  1  0
 33 64  1  0
 38 65  1  0
 38 66  1  0
 39 67  1  0
 44 68  1  0
 44 69  1  0
 45 70  1  0
 45 71  1  0
 46 72  1  0
A    1
N9R
A    2
C8R
A    3
N7R
A    4
C5R
A    5
C6R
A    6
N6R
A    7
N1R
A    8
C1R
A    9
C2R
A   10
N3R
A   11
C4R
A   12
O5'
A   13
C5'
A   14
C4'
A   15
O4'
A   16
C3'
A   17
O3'
A   18
C2'
A   19
O2'
A   20
PA
A   21
O1A
A   22
O2A
A   23
O3A
A   24
PB
A   25
O1B
A   26
O2B
A   27
O3B
A   28
PG
A   29
O1G
A   30
O2G
A   31
O3G
A   32
PD
A   33
O1D
A   34
O2D
A   35
O3D
A   36
N1
A   37
C2
A   38
N2
A   39
N3
A   40
C4
A   41
O4
A   42
N5
A   43
C6
A   44
C6A
A   45
C7
A   46
N8
A   47
C9
A   48
C10
M  END
