1EZQ_RPR_A_265
     RDKit          3D

 64 66  0  0  0  0  0  0  0  0999 V2000
    7.2260    0.1870   17.7590 C   0  0  0  0  0  0  0  0  0  0  0  0
    7.9430    0.8410   18.7920 C   0  0  0  0  0  0  0  0  0  0  0  0
    9.3330    0.5830   18.8920 C   0  0  0  0  0  0  0  0  0  0  0  0
    9.9990   -0.2930   17.9980 C   0  0  0  0  0  0  0  0  0  0  0  0
    9.2750   -0.9420   16.9700 C   0  0  0  0  0  0  0  0  0  0  0  0
    7.8800   -0.7010   16.8480 C   0  0  0  0  0  0  0  0  0  0  0  0
    7.1360    3.9720   20.9030 C   0  0  0  0  0  0  0  0  0  0  0  0
    5.9420    3.5980   21.5860 C   0  0  0  0  0  0  0  0  0  0  0  0
    5.4120    2.2940   21.3340 C   0  0  0  0  0  0  0  0  0  0  0  0
    6.0620    1.4080   20.4320 C   0  0  0  0  0  0  0  0  0  0  0  0
    7.2490    1.7840   19.7550 C   0  0  0  0  0  0  0  0  0  0  0  0
    7.7700    3.0800   20.0090 C   0  0  0  0  0  0  0  0  0  0  0  0
    5.2730    4.5350   22.5310 C   0  0  0  0  0  0  0  0  0  0  0  0
    5.4850    5.8740   22.2930 N   0  0  0  0  0  0  0  0  0  0  0  0
    4.9130    6.9410   23.1240 C   0  0  0  0  0  0  0  0  0  0  0  0
    4.4460    8.0750   22.1970 C   0  0  0  0  0  0  0  0  0  0  0  0
    5.9910    7.4100   24.1730 C   0  0  0  0  0  0  0  0  0  0  0  0
    5.3710    8.5300   25.0530 C   0  0  0  0  0  0  0  0  0  0  0  0
    4.1050    8.1520   25.5930 O   0  0  0  0  0  0  0  0  0  0  0  0
    7.2930    7.9220   23.4540 C   0  0  0  0  0  0  0  0  0  0  0  0
    7.0910   -1.3800   15.7640 C   0  0  0  0  0  0  0  0  0  0  0  0
    6.7260   -0.4380   14.7000 N   0  0  0  0  0  0  0  0  0  0  0  0
    8.8140    7.3760   25.4750 C   0  0  0  0  0  0  0  0  0  0  0  0
    9.9870    7.6130   26.2340 C   0  0  0  0  0  0  0  0  0  0  0  0
   10.8930    8.6260   25.8190 C   0  0  0  0  0  0  0  0  0  0  0  0
   10.6260    9.3840   24.6630 C   0  0  0  0  0  0  0  0  0  0  0  0
    9.4580    9.1410   23.9140 C   0  0  0  0  0  0  0  0  0  0  0  0
    8.5360    8.1360   24.3060 C   0  0  0  0  0  0  0  0  0  0  0  0
   10.2690    6.8280   27.4410 C   0  0  0  0  0  0  0  0  0  0  0  0
   11.5370    6.6570   27.8650 N   0  0  0  0  0  0  0  0  0  0  0  0
    9.2640    6.2760   28.1360 N   0  0  0  0  0  0  0  0  0  0  0  0
    5.8330    9.6280   25.1930 O   0  0  0  0  0  0  0  0  0  0  0  0
    4.5770    4.1470   23.4760 O   0  0  0  0  0  0  0  0  0  0  0  0
    3.3210    9.1160   26.3120 C   0  0  0  0  0  0  0  0  0  0  0  0
    6.1455    0.3658   17.6558 H   0  0  0  0  0  0  0  0  0  0  0  0
    9.9120    1.0768   19.6863 H   0  0  0  0  0  0  0  0  0  0  0  0
   11.0798   -0.4683   18.1037 H   0  0  0  0  0  0  0  0  0  0  0  0
    9.7855   -1.6242   16.2743 H   0  0  0  0  0  0  0  0  0  0  0  0
    7.5697    4.9683   21.0742 H   0  0  0  0  0  0  0  0  0  0  0  0
    4.4915    1.9730   21.8435 H   0  0  0  0  0  0  0  0  0  0  0  0
    5.6347    0.4098   20.2558 H   0  0  0  0  0  0  0  0  0  0  0  0
    8.6903    3.3978   19.4970 H   0  0  0  0  0  0  0  0  0  0  0  0
    6.0745    6.1410   21.4917 H   0  0  0  0  0  0  0  0  0  0  0  0
    4.0400    6.5910   23.6944 H   0  0  0  0  0  0  0  0  0  0  0  0
    4.0965    8.9237   22.8032 H   0  0  0  0  0  0  0  0  0  0  0  0
    5.2842    8.3984   21.5622 H   0  0  0  0  0  0  0  0  0  0  0  0
    3.6232    7.7143   21.5622 H   0  0  0  0  0  0  0  0  0  0  0  0
    6.2817    6.5584   24.8057 H   0  0  0  0  0  0  0  0  0  0  0  0
    7.5500    7.1864   22.6775 H   0  0  0  0  0  0  0  0  0  0  0  0
    7.0313    8.9259   23.0883 H   0  0  0  0  0  0  0  0  0  0  0  0
    7.6979   -2.1898   15.3329 H   0  0  0  0  0  0  0  0  0  0  0  0
    6.1663   -1.7794   16.2061 H   0  0  0  0  0  0  0  0  0  0  0  0
    6.3862    0.4391   15.1197 H   0  0  0  0  0  0  0  0  0  0  0  0
    7.5520   -0.2420   14.1167 H   0  0  0  0  0  0  0  0  0  0  0  0
    8.1095    6.5939   25.7944 H   0  0  0  0  0  0  0  0  0  0  0  0
   11.8054    8.8185   26.4025 H   0  0  0  0  0  0  0  0  0  0  0  0
   11.3301   10.1667   24.3444 H   0  0  0  0  0  0  0  0  0  0  0  0
    9.2578    9.7387   23.0125 H   0  0  0  0  0  0  0  0  0  0  0  0
   11.7434    6.6292   28.8737 H   0  0  0  0  0  0  0  0  0  0  0  0
   12.2995    6.5542   27.1803 H   0  0  0  0  0  0  0  0  0  0  0  0
    9.4650    5.7254   28.9830 H   0  0  0  0  0  0  0  0  0  0  0  0
    3.4485    8.9592   27.3933 H   0  0  0  0  0  0  0  0  0  0  0  0
    3.6537   10.1304   26.0468 H   0  0  0  0  0  0  0  0  0  0  0  0
    2.2601    8.9970   26.0468 H   0  0  0  0  0  0  0  0  0  0  0  0
  1  2  2  0
  1  6  1  0
  2  3  1  0
  2 11  1  0
  3  4  2  0
  4  5  1  0
  5  6  2  0
  6 21  1  0
  7  8  2  0
  7 12  1  0
  8  9  1  0
  8 13  1  0
  9 10  2  0
 10 11  1  0
 11 12  2  0
 13 14  1  0
 13 33  2  0
 14 15  1  0
 15 16  1  0
 15 17  1  0
 17 18  1  0
 17 20  1  0
 18 19  1  0
 18 32  2  0
 19 34  1  0
 20 28  1  0
 21 22  1  0
 23 24  2  0
 23 28  1  0
 24 25  1  0
 24 29  1  0
 25 26  2  0
 26 27  1  0
 27 28  2  0
 29 30  1  0
 29 31  2  3
  1 35  1  0
  3 36  1  0
  4 37  1  0
  5 38  1  0
  7 39  1  0
  9 40  1  0
 10 41  1  0
 12 42  1  0
 14 43  1  0
 15 44  1  0
 16 45  1  0
 16 46  1  0
 16 47  1  0
 17 48  1  0
 20 49  1  0
 20 50  1  0
 21 51  1  0
 21 52  1  0
 22 53  1  0
 22 54  1  0
 23 55  1  0
 25 56  1  0
 26 57  1  0
 27 58  1  0
 30 59  1  0
 30 60  1  0
 31 61  1  0
 34 62  1  0
 34 63  1  0
 34 64  1  0
A    1
C1
A    2
C2
A    3
C3
A    4
C4
A    5
C5
A    6
C6
A    7
C7
A    8
C8
A    9
C9
A   10
C10
A   11
C11
A   12
C12
A   13
C13
A   14
N14
A   15
C15
A   16
C16
A   17
C17
A   18
C18
A   19
O19
A   20
C20
A   21
C21
A   22
N22
A   23
C23
A   24
C24
A   25
C25
A   26
C26
A   27
C27
A   28
C28
A   29
C29
A   30
N30
A   31
N31
A   32
O32
A   33
O33
A   34
C34
M  END
