1F06_2NP_B_950
     RDKit          3D

 26 25  0  0  0  0  0  0  0  0999 V2000
    9.8330   34.5190   41.2540 C   0  0  0  0  0  0  0  0  0  0  0  0
    8.7300   33.8240   41.2950 O   0  0  0  0  0  0  0  0  0  0  0  0
   10.5830   34.6220   42.3120 O   0  0  0  0  0  0  0  0  0  0  0  0
   10.2450   35.2170   39.9870 C   0  0  0  0  0  0  0  0  0  0  0  0
   11.0260   36.3790   40.4010 N   0  0  0  0  0  0  0  0  0  0  0  0
   11.1340   34.3160   39.1640 C   0  0  0  0  0  0  0  0  0  0  0  0
   10.3370   33.1800   38.5970 C   0  0  0  0  0  0  0  0  0  0  0  0
   11.0360   32.6890   37.3490 C   0  0  0  0  0  0  0  0  0  0  0  0
   12.3020   31.9830   37.7510 C   0  0  0  0  0  0  0  0  0  0  0  0
   13.4790   32.5820   37.5600 C   0  0  0  0  0  0  0  0  0  0  0  0
   12.2370   30.5910   38.3690 C   0  0  0  0  0  0  0  0  0  0  0  0
   13.2620   30.0340   38.7530 O   0  0  0  0  0  0  0  0  0  0  0  0
   11.1010   29.9880   38.5000 O   0  0  0  0  0  0  0  0  0  0  0  0
   10.1776   34.5663   43.2135 H   0  0  0  0  0  0  0  0  0  0  0  0
    9.3655   35.4912   39.3859 H   0  0  0  0  0  0  0  0  0  0  0  0
   11.0561   36.4237   41.4296 H   0  0  0  0  0  0  0  0  0  0  0  0
   11.9844   36.2974   40.0327 H   0  0  0  0  0  0  0  0  0  0  0  0
   11.5766   34.8959   38.3407 H   0  0  0  0  0  0  0  0  0  0  0  0
   11.9287   33.9108   39.8076 H   0  0  0  0  0  0  0  0  0  0  0  0
   10.2739   32.3653   39.3334 H   0  0  0  0  0  0  0  0  0  0  0  0
    9.3175   33.5147   38.3548 H   0  0  0  0  0  0  0  0  0  0  0  0
   10.3797   31.9921   36.8071 H   0  0  0  0  0  0  0  0  0  0  0  0
   11.2734   33.5397   36.6933 H   0  0  0  0  0  0  0  0  0  0  0  0
   14.4092   32.0723   37.8513 H   0  0  0  0  0  0  0  0  0  0  0  0
   13.5190   33.5855   37.1112 H   0  0  0  0  0  0  0  0  0  0  0  0
   10.7428   29.7978   39.4031 H   0  0  0  0  0  0  0  0  0  0  0  0
  1  2  2  0
  1  3  1  0
  1  4  1  0
  4  5  1  0
  4  6  1  0
  6  7  1  0
  7  8  1  0
  8  9  1  0
  9 10  2  3
  9 11  1  0
 11 12  2  0
 11 13  1  0
  3 14  1  0
  4 15  1  0
  5 16  1  0
  5 17  1  0
  6 18  1  0
  6 19  1  0
  7 20  1  0
  7 21  1  0
  8 22  1  0
  8 23  1  0
 10 24  1  0
 10 25  1  0
 13 26  1  0
A    1
C1
A    2
O11
A    3
O12
A    4
C2
A    5
N2
A    6
C3
A    7
C4
A    8
C5
A    9
C6
A   10
C8
A   11
C7
A   12
O71
A   13
O72
M  END
