1F0T_PR1_A_304
     RDKit          3D

 49 52  0  0  0  0  0  0  0  0999 V2000
   13.7720   -3.4110   25.0880 C   0  0  0  0  0  0  0  0  0  0  0  0
   14.1560   -3.5440   23.7510 C   0  0  0  0  0  0  0  0  0  0  0  0
   13.3000   -4.1340   22.8220 C   0  0  0  0  0  0  0  0  0  0  0  0
   12.0440   -4.6010   23.2210 C   0  0  0  0  0  0  0  0  0  0  0  0
   11.6700   -4.4620   24.5630 C   0  0  0  0  0  0  0  0  0  0  0  0
   12.5100   -3.8680   25.5270 C   0  0  0  0  0  0  0  0  0  0  0  0
   12.0420   -3.6980   27.0270 C   0  0  0  0  0  0  0  0  0  0  0  0
   10.7640   -3.9510   27.3770 N   0  0  0  0  0  0  0  0  0  0  0  0
   12.9090   -3.2960   27.9690 N   0  0  0  0  0  0  0  0  0  0  0  0
   11.0480   -5.2790   22.2250 C   0  0  0  0  0  0  0  0  0  0  0  0
   13.6830   -4.2570   21.5510 O   0  0  0  0  0  0  0  0  0  0  0  0
   12.8720  -13.0390   24.1350 C   0  0  0  0  0  0  0  0  0  0  0  0
   13.8970  -13.4940   24.9520 C   0  0  0  0  0  0  0  0  0  0  0  0
   15.0640  -14.0690   24.4210 C   0  0  0  0  0  0  0  0  0  0  0  0
   15.2430  -14.2110   23.0270 C   0  0  0  0  0  0  0  0  0  0  0  0
   14.2890  -13.7930   22.1540 N   0  0  0  0  0  0  0  0  0  0  0  0
   13.0650  -13.1940   22.6230 C   0  0  0  0  0  0  0  0  0  0  0  0
   11.9690  -12.6880   21.9200 C   0  0  0  0  0  0  0  0  0  0  0  0
   10.9670  -12.1590   22.8150 C   0  0  0  0  0  0  0  0  0  0  0  0
   11.3720  -12.2880   24.4850 S   0  0  0  0  0  0  0  0  0  0  0  0
   11.0900   -6.7510   22.2170 N   0  0  0  0  0  0  0  0  0  0  0  0
   10.0010   -7.5520   22.3190 C   0  0  0  0  0  0  0  0  0  0  0  0
   10.4840   -8.9760   22.3110 C   0  0  0  0  0  0  0  0  0  0  0  0
   11.7780   -8.8860   21.5170 C   0  0  0  0  0  0  0  0  0  0  0  0
   12.3140   -7.5010   21.8510 C   0  0  0  0  0  0  0  0  0  0  0  0
    9.8950  -10.0120   21.5570 N   0  0  0  0  0  0  0  0  0  0  0  0
    9.4800  -11.4170   22.2470 S   0  0  0  0  0  0  0  0  0  0  0  0
    8.6800  -11.0280   23.3660 O   0  0  0  0  0  0  0  0  0  0  0  0
    8.9380  -12.1760   21.1670 O   0  0  0  0  0  0  0  0  0  0  0  0
    8.8430   -7.1990   22.3950 O   0  0  0  0  0  0  0  0  0  0  0  0
   14.4612   -2.9446   25.8073 H   0  0  0  0  0  0  0  0  0  0  0  0
   15.1426   -3.1799   23.4285 H   0  0  0  0  0  0  0  0  0  0  0  0
   10.6824   -4.8305   24.8775 H   0  0  0  0  0  0  0  0  0  0  0  0
   10.4663   -3.8380   28.3565 H   0  0  0  0  0  0  0  0  0  0  0  0
   12.6737   -3.4051   28.9658 H   0  0  0  0  0  0  0  0  0  0  0  0
   13.8098   -2.8783   27.6953 H   0  0  0  0  0  0  0  0  0  0  0  0
   10.0283   -4.9671   22.4950 H   0  0  0  0  0  0  0  0  0  0  0  0
   11.3481   -4.9548   21.2176 H   0  0  0  0  0  0  0  0  0  0  0  0
   14.6035   -4.5526   21.3378 H   0  0  0  0  0  0  0  0  0  0  0  0
   13.7934  -13.4023   26.0433 H   0  0  0  0  0  0  0  0  0  0  0  0
   15.8536  -14.4153   25.1041 H   0  0  0  0  0  0  0  0  0  0  0  0
   16.1676  -14.6663   22.6427 H   0  0  0  0  0  0  0  0  0  0  0  0
   11.8805  -12.6920   20.8236 H   0  0  0  0  0  0  0  0  0  0  0  0
   10.3712   -9.2496   23.3704 H   0  0  0  0  0  0  0  0  0  0  0  0
   12.4861   -9.6666   21.8321 H   0  0  0  0  0  0  0  0  0  0  0  0
   11.6258   -9.0341   20.4377 H   0  0  0  0  0  0  0  0  0  0  0  0
   12.8099   -7.0480   20.9798 H   0  0  0  0  0  0  0  0  0  0  0  0
   13.0724   -7.5095   22.6477 H   0  0  0  0  0  0  0  0  0  0  0  0
    9.0343   -9.6222   21.1469 H   0  0  0  0  0  0  0  0  0  0  0  0
  1  2  2  0
  1  6  1  0
  2  3  1  0
  3  4  2  0
  3 11  1  0
  4  5  1  0
  4 10  1  0
  5  6  2  0
  6  7  1  0
  7  8  2  3
  7  9  1  0
 10 21  1  0
 12 13  2  0
 12 17  1  0
 12 20  1  0
 13 14  1  0
 14 15  2  0
 15 16  1  0
 16 17  2  0
 17 18  1  0
 18 19  2  0
 19 20  1  0
 19 27  1  0
 21 22  1  0
 21 25  1  0
 22 23  1  0
 22 30  2  0
 23 24  1  0
 23 26  1  0
 24 25  1  0
 26 27  1  0
 27 28  2  0
 27 29  2  0
  1 31  1  0
  2 32  1  0
  5 33  1  0
  8 34  1  0
  9 35  1  0
  9 36  1  0
 10 37  1  0
 10 38  1  0
 11 39  1  0
 13 40  1  0
 14 41  1  0
 15 42  1  0
 18 43  1  0
 23 44  1  0
 24 45  1  0
 24 46  1  0
 25 47  1  0
 25 48  1  0
 26 49  1  0
A    1
C1
A    2
C2
A    3
C3
A    4
C4
A    5
C5
A    6
C6
A    7
C10
A    8
N11
A    9
N12
A   10
C13
A   11
O44
A   12
C16
A   13
C17
A   14
C18
A   15
C19
A   16
N20
A   17
C21
A   18
C25
A   19
C26
A   20
S27
A   21
N28
A   22
C29
A   23
C30
A   24
C31
A   25
C32
A   26
N37
A   27
S38
A   28
O39
A   29
O40
A   30
O41
M  END
