1F28_F89_A_401
     RDKit          3D

 61 65  0  0  0  0  0  0  0  0999 V2000
    0.3970  -14.1130   24.4100 C   0  0  0  0  0  0  0  0  0  0  0  0
    1.0510  -14.2760   25.4420 O   0  0  0  0  0  0  0  0  0  0  0  0
   -0.8650  -13.5540   24.5860 N   0  0  0  0  0  0  0  0  0  0  0  0
   -1.7460  -13.2970   23.5590 C   0  0  0  0  0  0  0  0  0  0  0  0
   -3.0930  -12.6900   23.8250 C   0  0  0  0  0  0  0  0  0  0  0  0
   -1.3580  -13.6110   22.2720 N   0  0  0  0  0  0  0  0  0  0  0  0
   -0.1270  -14.1720   21.9690 C   0  0  0  0  0  0  0  0  0  0  0  0
    0.1620  -14.4590   20.5660 C   0  0  0  0  0  0  0  0  0  0  0  0
    1.4270  -15.0550   20.1700 C   0  0  0  0  0  0  0  0  0  0  0  0
    2.4350  -15.3620   21.1760 C   0  0  0  0  0  0  0  0  0  0  0  0
    3.6860  -15.9530   20.7380 C   0  0  0  0  0  0  0  0  0  0  0  0
    4.7080  -16.2820   21.7100 C   0  0  0  0  0  0  0  0  0  0  0  0
    4.5020  -16.0220   23.1450 C   0  0  0  0  0  0  0  0  0  0  0  0
    3.2550  -15.4310   23.6040 C   0  0  0  0  0  0  0  0  0  0  0  0
    2.1780  -15.0780   22.6550 C   0  0  0  0  0  0  0  0  0  0  0  0
    0.8680  -14.4710   23.0510 C   0  0  0  0  0  0  0  0  0  0  0  0
    5.5550  -16.3760   24.1510 C   0  0  0  0  0  0  0  0  0  0  0  0
    6.1880  -17.7040   23.8980 N   0  0  0  0  0  0  0  0  0  0  0  0
    5.5940  -19.0330   24.1660 C   0  0  0  0  0  0  0  0  0  0  0  0
    4.2400  -19.2060   24.7600 C   0  0  0  0  0  0  0  0  0  0  0  0
    3.7290  -20.5470   24.9800 C   0  0  0  0  0  0  0  0  0  0  0  0
    4.4940  -21.7080   24.6340 C   0  0  0  0  0  0  0  0  0  0  0  0
    5.8400  -21.5620   24.0430 C   0  0  0  0  0  0  0  0  0  0  0  0
    6.3840  -20.2160   23.8140 C   0  0  0  0  0  0  0  0  0  0  0  0
    2.4470  -20.9720   25.5470 C   0  0  0  0  0  0  0  0  0  0  0  0
    3.7260  -22.9080   24.9600 C   0  0  0  0  0  0  0  0  0  0  0  0
    3.8720  -24.0070   24.4090 O   0  0  0  0  0  0  0  0  0  0  0  0
    2.5380  -22.4470   25.4950 N   0  0  0  0  0  0  0  0  0  0  0  0
    1.1800  -23.0730   25.8130 C   0  0  0  0  0  0  0  0  0  0  0  0
    1.1650  -23.8410   27.1880 C   0  0  0  0  0  0  0  0  0  0  0  0
    2.0120  -24.7230   27.3980 O   0  0  0  0  0  0  0  0  0  0  0  0
    0.3610  -23.5160   28.0800 O   0  0  0  0  0  0  0  0  0  0  0  0
    0.5810  -23.9540   24.6510 C   0  0  0  0  0  0  0  0  0  0  0  0
    0.2920  -23.2340   23.3210 C   0  0  0  0  0  0  0  0  0  0  0  0
   -1.1280  -22.6250   23.1820 C   0  0  0  0  0  0  0  0  0  0  0  0
   -1.4420  -21.6790   23.9250 O   0  0  0  0  0  0  0  0  0  0  0  0
   -1.8140  -22.8880   22.1870 O   0  0  0  0  0  0  0  0  0  0  0  0
   -1.1588  -13.3176   25.5445 H   0  0  0  0  0  0  0  0  0  0  0  0
   -3.2545  -12.6172   24.9107 H   0  0  0  0  0  0  0  0  0  0  0  0
   -3.1368  -11.6851   23.3796 H   0  0  0  0  0  0  0  0  0  0  0  0
   -3.8748  -13.3228   23.3796 H   0  0  0  0  0  0  0  0  0  0  0  0
   -0.5887  -14.2205   19.7982 H   0  0  0  0  0  0  0  0  0  0  0  0
    1.6234  -15.2744   19.1102 H   0  0  0  0  0  0  0  0  0  0  0  0
    3.8577  -16.1507   19.6696 H   0  0  0  0  0  0  0  0  0  0  0  0
    5.6525  -16.7329   21.3714 H   0  0  0  0  0  0  0  0  0  0  0  0
    3.1104  -15.2430   24.6781 H   0  0  0  0  0  0  0  0  0  0  0  0
    6.3385  -15.6044   24.1231 H   0  0  0  0  0  0  0  0  0  0  0  0
    5.0631  -16.4305   25.1334 H   0  0  0  0  0  0  0  0  0  0  0  0
    7.1360  -17.6945   23.4954 H   0  0  0  0  0  0  0  0  0  0  0  0
    3.6339  -18.3283   25.0290 H   0  0  0  0  0  0  0  0  0  0  0  0
    6.4293  -22.4519   23.7769 H   0  0  0  0  0  0  0  0  0  0  0  0
    7.3865  -20.0963   23.3774 H   0  0  0  0  0  0  0  0  0  0  0  0
    2.3351  -20.6183   26.5826 H   0  0  0  0  0  0  0  0  0  0  0  0
    1.5774  -20.5702   25.0063 H   0  0  0  0  0  0  0  0  0  0  0  0
    0.5045  -22.2104   25.9106 H   0  0  0  0  0  0  0  0  0  0  0  0
    0.6110  -23.6171   29.0326 H   0  0  0  0  0  0  0  0  0  0  0  0
    1.2955  -24.7643   24.4438 H   0  0  0  0  0  0  0  0  0  0  0  0
   -0.3995  -24.2916   25.0179 H   0  0  0  0  0  0  0  0  0  0  0  0
    1.0220  -22.4183   23.2124 H   0  0  0  0  0  0  0  0  0  0  0  0
    0.3661  -24.0049   22.5398 H   0  0  0  0  0  0  0  0  0  0  0  0
   -2.7326  -23.2402   22.2981 H   0  0  0  0  0  0  0  0  0  0  0  0
  1  2  2  0
  1  3  1  0
  1 16  1  0
  3  4  1  0
  4  5  1  0
  4  6  2  0
  6  7  1  0
  7  8  1  0
  7 16  2  0
  8  9  2  0
  9 10  1  0
 10 11  1  0
 10 15  2  0
 11 12  2  0
 12 13  1  0
 13 14  2  0
 13 17  1  0
 14 15  1  0
 15 16  1  0
 17 18  1  0
 18 19  1  0
 19 20  2  0
 19 24  1  0
 20 21  1  0
 21 22  2  0
 21 25  1  0
 22 23  1  0
 22 26  1  0
 23 24  2  0
 25 28  1  0
 26 27  2  0
 26 28  1  0
 28 29  1  0
 29 30  1  0
 29 33  1  0
 30 31  2  0
 30 32  1  0
 33 34  1  0
 34 35  1  0
 35 36  2  0
 35 37  1  0
  3 38  1  0
  5 39  1  0
  5 40  1  0
  5 41  1  0
  8 42  1  0
  9 43  1  0
 11 44  1  0
 12 45  1  0
 14 46  1  0
 17 47  1  0
 17 48  1  0
 18 49  1  0
 20 50  1  0
 23 51  1  0
 24 52  1  0
 25 53  1  0
 25 54  1  0
 29 55  1  0
 32 56  1  0
 33 57  1  0
 33 58  1  0
 34 59  1  0
 34 60  1  0
 37 61  1  0
A    1
C1
A    2
O1A
A    3
N2
A    4
C3
A    5
C3M
A    6
N4
A    7
C4A
A    8
C5
A    9
C6
A   10
C6A
A   11
C7
A   12
C8
A   13
C9
A   14
C10
A   15
C1B
A   16
C1A
A   17
C11
A   18
N12
A   19
C13
A   20
C14
A   21
C15
A   22
C16
A   23
C17
A   24
C18
A   25
C19
A   26
C
A   27
O
A   28
N
A   29
CA
A   30
CT
A   31
O1
A   32
O2
A   33
CB
A   34
CG
A   35
CD
A   36
OE1
A   37
OE2
M  END
