1F3E_DPZ_A_400
     RDKit          3D

 22 23  0  0  0  0  0  0  0  0999 V2000
   15.8130   17.0340   24.3330 N   0  0  0  0  0  0  0  0  0  0  0  0
   15.4100   16.8310   23.0590 C   0  0  0  0  0  0  0  0  0  0  0  0
   14.2620   16.4840   22.8180 O   0  0  0  0  0  0  0  0  0  0  0  0
   16.3980   17.0440   21.9070 C   0  0  0  0  0  0  0  0  0  0  0  0
   16.0490   16.8630   20.5380 C   0  0  0  0  0  0  0  0  0  0  0  0
   17.0210   17.0850   19.5410 C   0  0  0  0  0  0  0  0  0  0  0  0
   18.3310   17.4810   19.8690 C   0  0  0  0  0  0  0  0  0  0  0  0
   18.6610   17.6670   21.2200 C   0  0  0  0  0  0  0  0  0  0  0  0
   17.7070   17.4550   22.2340 C   0  0  0  0  0  0  0  0  0  0  0  0
   18.0910   17.6500   23.6870 C   0  0  0  0  0  0  0  0  0  0  0  0
   19.2290   18.0040   23.9540 O   0  0  0  0  0  0  0  0  0  0  0  0
   17.1690   17.4470   24.6490 N   0  0  0  0  0  0  0  0  0  0  0  0
   19.2570   17.7000   18.8950 N   0  0  0  0  0  0  0  0  0  0  0  0
   14.8030   16.4740   20.1640 N   0  0  0  0  0  0  0  0  0  0  0  0
   15.1405   16.8920   25.1002 H   0  0  0  0  0  0  0  0  0  0  0  0
   16.7495   16.9457   18.4842 H   0  0  0  0  0  0  0  0  0  0  0  0
   19.6792   17.9829   21.4909 H   0  0  0  0  0  0  0  0  0  0  0  0
   17.4332   17.5885   25.6344 H   0  0  0  0  0  0  0  0  0  0  0  0
   20.2282   17.9297   19.1500 H   0  0  0  0  0  0  0  0  0  0  0  0
   18.9863   17.6360   17.9033 H   0  0  0  0  0  0  0  0  0  0  0  0
   14.0959   16.2532   20.8797 H   0  0  0  0  0  0  0  0  0  0  0  0
   14.5649   16.3997   19.1646 H   0  0  0  0  0  0  0  0  0  0  0  0
  1  2  1  0
  1 12  1  0
  2  3  2  0
  2  4  1  0
  4  5  2  0
  4  9  1  0
  5  6  1  0
  5 14  1  0
  6  7  2  0
  7  8  1  0
  7 13  1  0
  8  9  2  0
  9 10  1  0
 10 11  2  0
 10 12  1  0
  1 15  1  0
  6 16  1  0
  8 17  1  0
 12 18  1  0
 13 19  1  0
 13 20  1  0
 14 21  1  0
 14 22  1  0
A    1
N1
A    2
C2
A    3
O3
A    4
C4
A    5
C5
A    6
C6
A    7
C7
A    8
C8
A    9
C9
A   10
C10
A   11
O11
A   12
N12
A   13
N13
A   14
N14
M  END
