1F4F_TP3_A_701
     RDKit          3D

 49 50  0  0  0  0  0  0  0  0999 V2000
   16.0830   13.5170   30.2510 C   0  0  0  0  0  0  0  0  0  0  0  0
   17.4530   13.8730   30.8970 C   0  0  0  0  0  0  0  0  0  0  0  0
   17.2220   15.2930   31.1590 N   0  0  0  0  0  0  0  0  0  0  0  0
   16.2910   15.9270   30.2340 C   0  0  0  0  0  0  0  0  0  0  0  0
   15.8950   14.7310   29.3170 C   0  0  0  0  0  0  0  0  0  0  0  0
   16.6250   17.1980   29.4520 C   0  0  0  0  0  0  0  0  0  0  0  0
   17.6970   17.4750   28.8890 O   0  0  0  0  0  0  0  0  0  0  0  0
   15.6600   18.0300   29.3840 O   0  0  0  0  0  0  0  0  0  0  0  0
   17.7180   15.9660   32.6620 S   0  0  0  0  0  0  0  0  0  0  0  0
   16.5540   15.4030   33.8730 C   0  0  0  0  0  0  0  0  0  0  0  0
   19.1170   15.4630   33.1360 O   0  0  0  0  0  0  0  0  0  0  0  0
   17.6380   17.5550   32.6130 O   0  0  0  0  0  0  0  0  0  0  0  0
   15.2840   15.9350   33.8350 C   0  0  0  0  0  0  0  0  0  0  0  0
   14.3640   15.5090   34.7770 C   0  0  0  0  0  0  0  0  0  0  0  0
   14.7610   14.5440   35.7220 C   0  0  0  0  0  0  0  0  0  0  0  0
   16.0700   14.0180   35.7260 C   0  0  0  0  0  0  0  0  0  0  0  0
   16.9890   14.4540   34.7790 C   0  0  0  0  0  0  0  0  0  0  0  0
   13.6990   14.1060   36.7070 C   0  0  0  0  0  0  0  0  0  0  0  0
   14.0410   13.3750   37.7830 N   0  0  0  0  0  0  0  0  0  0  0  0
   12.9540   12.8270   38.6390 C   0  0  0  0  0  0  0  0  0  0  0  0
   12.6190   11.3410   38.4960 C   0  0  0  0  0  0  0  0  0  0  0  0
   13.4520   10.5780   37.4660 C   0  0  0  0  0  0  0  0  0  0  0  0
   13.4310    9.0670   37.6610 C   0  0  0  0  0  0  0  0  0  0  0  0
   12.4990   14.1670   36.4090 O   0  0  0  0  0  0  0  0  0  0  0  0
   13.4980   13.2360   40.0520 C   0  0  0  0  0  0  0  0  0  0  0  0
   12.6340   13.4320   40.9230 O   0  0  0  0  0  0  0  0  0  0  0  0
   14.7340   13.3430   40.1930 O   0  0  0  0  0  0  0  0  0  0  0  0
   14.0100    8.6230   38.6770 O   0  0  0  0  0  0  0  0  0  0  0  0
   12.8710    8.3290   36.8300 O   0  0  0  0  0  0  0  0  0  0  0  0
   16.1316   12.5736   29.6875 H   0  0  0  0  0  0  0  0  0  0  0  0
   15.2640   13.3560   30.9675 H   0  0  0  0  0  0  0  0  0  0  0  0
   17.6317   13.3067   31.8230 H   0  0  0  0  0  0  0  0  0  0  0  0
   18.3378   13.6433   30.2852 H   0  0  0  0  0  0  0  0  0  0  0  0
   15.5082   16.4091   30.8379 H   0  0  0  0  0  0  0  0  0  0  0  0
   16.5575   14.6652   28.4414 H   0  0  0  0  0  0  0  0  0  0  0  0
   14.8788   14.8131   28.9039 H   0  0  0  0  0  0  0  0  0  0  0  0
   15.2510   18.3826   30.2138 H   0  0  0  0  0  0  0  0  0  0  0  0
   15.0078   16.6802   33.0745 H   0  0  0  0  0  0  0  0  0  0  0  0
   13.3423   15.9165   34.7872 H   0  0  0  0  0  0  0  0  0  0  0  0
   16.3617   13.2668   36.4747 H   0  0  0  0  0  0  0  0  0  0  0  0
   18.0163   14.0616   34.7517 H   0  0  0  0  0  0  0  0  0  0  0  0
   15.0304   13.1989   38.0088 H   0  0  0  0  0  0  0  0  0  0  0  0
   11.9630   13.2221   38.3709 H   0  0  0  0  0  0  0  0  0  0  0  0
   12.7694   10.8633   39.4754 H   0  0  0  0  0  0  0  0  0  0  0  0
   11.5797   11.2973   38.1382 H   0  0  0  0  0  0  0  0  0  0  0  0
   13.0584   10.8046   36.4641 H   0  0  0  0  0  0  0  0  0  0  0  0
   14.4952   10.9042   37.5901 H   0  0  0  0  0  0  0  0  0  0  0  0
   15.1275   13.3771   41.1008 H   0  0  0  0  0  0  0  0  0  0  0  0
   13.6865    8.8711   39.5792 H   0  0  0  0  0  0  0  0  0  0  0  0
  1  2  1  0
  1  5  1  0
  2  3  1  0
  3  4  1  0
  3  9  1  0
  4  5  1  0
  4  6  1  0
  6  7  2  0
  6  8  1  0
  9 10  1  0
  9 11  2  0
  9 12  2  0
 10 13  2  0
 10 17  1  0
 13 14  1  0
 14 15  2  0
 15 16  1  0
 15 18  1  0
 16 17  2  0
 18 19  1  0
 18 24  2  0
 19 20  1  0
 20 21  1  0
 20 25  1  0
 21 22  1  0
 22 23  1  0
 23 28  1  0
 23 29  2  0
 25 26  2  0
 25 27  1  0
  1 30  1  0
  1 31  1  0
  2 32  1  0
  2 33  1  0
  4 34  1  0
  5 35  1  0
  5 36  1  0
  8 37  1  0
 13 38  1  0
 14 39  1  0
 16 40  1  0
 17 41  1  0
 19 42  1  0
 20 43  1  0
 21 44  1  0
 21 45  1  0
 22 46  1  0
 22 47  1  0
 27 48  1  0
 28 49  1  0
A    1
C1
A    2
C2
A    3
N3
A    4
C4
A    5
C5
A    6
C6
A    7
O7
A    8
O8
A    9
S9
A   10
C10
A   11
O11
A   12
O12
A   13
C13
A   14
C14
A   15
C15
A   16
C16
A   17
C17
A   18
C18
A   19
N19
A   20
C20
A   21
C21
A   22
C22
A   23
C23
A   24
O24
A   25
C25
A   26
O26
A   27
O27
A   28
O28
A   29
O29
M  END
