1F6T_TBD_A_160
     RDKit          3D

 44 45  0  0  0  0  0  0  0  0999 V2000
    7.0790   71.5470   26.3160 P   0  0  0  0  0  0  0  0  0  0  0  0
    7.0430   72.5580   27.4250 O   0  0  0  0  0  0  0  0  0  0  0  0
    8.3680   71.3220   25.6380 O   0  0  0  0  0  0  0  0  0  0  0  0
    6.3240   70.3530   26.7450 O   0  0  0  0  0  0  0  0  0  0  0  0
    6.1060   72.1610   25.2070 O   0  0  0  0  0  0  0  0  0  0  0  0
    6.2180   72.9960   23.8490 P   0  0  0  0  0  0  0  0  0  0  0  0
    4.9930   72.2050   22.6070 B   0  0  0  0  0  0  0  0  0  0  0  0
    7.6430   73.1030   23.4860 O   0  0  0  0  0  0  0  0  0  0  0  0
    5.6590   74.4510   24.1890 O   0  0  0  0  0  0  0  0  0  0  0  0
    6.1990   75.2400   25.2430 C   0  0  0  0  0  0  0  0  0  0  0  0
    5.1110   75.5940   26.2430 C   0  0  0  0  0  0  0  0  0  0  0  0
    4.0880   76.3910   25.5880 O   0  0  0  0  0  0  0  0  0  0  0  0
    2.8570   76.2210   26.2620 C   0  0  0  0  0  0  0  0  0  0  0  0
    1.8110   75.9100   25.2800 N   0  0  0  0  0  0  0  0  0  0  0  0
    2.0490   75.0340   24.2490 C   0  0  0  0  0  0  0  0  0  0  0  0
    0.5750   76.5110   25.4470 C   0  0  0  0  0  0  0  0  0  0  0  0
    0.3240   77.2810   26.3550 O   0  0  0  0  0  0  0  0  0  0  0  0
   -0.3620   76.1600   24.5180 N   0  0  0  0  0  0  0  0  0  0  0  0
   -0.2090   75.2700   23.4810 C   0  0  0  0  0  0  0  0  0  0  0  0
   -1.1610   75.0180   22.7610 O   0  0  0  0  0  0  0  0  0  0  0  0
    1.1170   74.6810   23.3570 C   0  0  0  0  0  0  0  0  0  0  0  0
    1.3790   73.7040   22.2560 C   0  0  0  0  0  0  0  0  0  0  0  0
    3.0380   75.1030   27.2960 C   0  0  0  0  0  0  0  0  0  0  0  0
    4.3150   74.4230   26.8050 C   0  0  0  0  0  0  0  0  0  0  0  0
    5.0140   73.8330   27.8870 O   0  0  0  0  0  0  0  0  0  0  0  0
    7.0596   72.0911   28.2978 H   0  0  0  0  0  0  0  0  0  0  0  0
    9.0797   71.1978   26.3149 H   0  0  0  0  0  0  0  0  0  0  0  0
    4.1572   71.6653   23.1839 H   0  0  0  0  0  0  0  0  0  0  0  0
    4.5338   73.0262   21.9457 H   0  0  0  0  0  0  0  0  0  0  0  0
    5.5525   71.4486   21.9457 H   0  0  0  0  0  0  0  0  0  0  0  0
    8.1911   73.1442   24.3094 H   0  0  0  0  0  0  0  0  0  0  0  0
    6.9908   74.6720   25.7533 H   0  0  0  0  0  0  0  0  0  0  0  0
    6.6146   76.1670   24.8211 H   0  0  0  0  0  0  0  0  0  0  0  0
    5.6689   76.0890   27.0515 H   0  0  0  0  0  0  0  0  0  0  0  0
    2.5487   77.1366   26.7880 H   0  0  0  0  0  0  0  0  0  0  0  0
    3.0558   74.6015   24.1522 H   0  0  0  0  0  0  0  0  0  0  0  0
   -1.2840   76.6111   24.6032 H   0  0  0  0  0  0  0  0  0  0  0  0
    1.6411   72.7268   22.6876 H   0  0  0  0  0  0  0  0  0  0  0  0
    0.4769   73.6006   21.6352 H   0  0  0  0  0  0  0  0  0  0  0  0
    2.2118   74.0659   21.6352 H   0  0  0  0  0  0  0  0  0  0  0  0
    3.1667   75.5120   28.3090 H   0  0  0  0  0  0  0  0  0  0  0  0
    2.1751   74.4252   27.3732 H   0  0  0  0  0  0  0  0  0  0  0  0
    4.1328   73.6159   26.0801 H   0  0  0  0  0  0  0  0  0  0  0  0
    4.6321   74.1553   28.7416 H   0  0  0  0  0  0  0  0  0  0  0  0
  1  2  1  0
  1  3  1  0
  1  4  2  0
  1  5  1  0
  5  6  1  0
  6  7  1  0
  6  8  1  0
  6  9  1  0
  9 10  1  0
 10 11  1  0
 11 12  1  0
 11 24  1  0
 12 13  1  0
 13 14  1  0
 13 23  1  0
 14 15  1  0
 14 16  1  0
 15 21  2  0
 16 17  2  0
 16 18  1  0
 18 19  1  0
 19 20  2  0
 19 21  1  0
 21 22  1  0
 23 24  1  0
 24 25  1  0
  2 26  1  0
  3 27  1  0
  7 28  1  0
  7 29  1  0
  7 30  1  0
  8 31  1  0
 10 32  1  0
 10 33  1  0
 11 34  1  0
 13 35  1  0
 15 36  1  0
 18 37  1  0
 22 38  1  0
 22 39  1  0
 22 40  1  0
 23 41  1  0
 23 42  1  0
 24 43  1  0
 25 44  1  0
M  CHG  2   6   1   7  -1
A    1
PB
A    2
O1B
A    3
O2B
A    4
O3B
A    5
O3A
A    6
PA
A    7
B1A
A    8
O2A
A    9
O5'
A   10
C5'
A   11
C4'
A   12
O4'
A   13
C1'
A   14
N1
A   15
C6
A   16
C2
A   17
O2
A   18
N3
A   19
C4
A   20
O4
A   21
C5
A   22
C5A
A   23
C2'
A   24
C3'
A   25
O3'
M  END
