1B55_4IP_A_171
     RDKit          3D

 44 44  0  0  0  0  0  0  0  0999 V2000
   -1.9790    4.5500   38.7310 C   0  0  0  0  0  0  0  0  0  0  0  0
   -3.3050    4.6200   39.4460 O   0  0  0  0  0  0  0  0  0  0  0  0
   -0.8500    5.4250   39.1840 C   0  0  0  0  0  0  0  0  0  0  0  0
   -1.0420    6.8380   38.8990 O   0  0  0  0  0  0  0  0  0  0  0  0
    0.3240    4.8690   38.4730 C   0  0  0  0  0  0  0  0  0  0  0  0
    1.5010    5.4200   39.0040 O   0  0  0  0  0  0  0  0  0  0  0  0
    0.1820    5.0170   36.9230 C   0  0  0  0  0  0  0  0  0  0  0  0
    1.3610    4.5130   36.3190 O   0  0  0  0  0  0  0  0  0  0  0  0
   -0.9050    4.1360   36.4760 C   0  0  0  0  0  0  0  0  0  0  0  0
   -1.1120    4.3720   35.0380 O   0  0  0  0  0  0  0  0  0  0  0  0
   -2.1860    4.5000   37.2100 C   0  0  0  0  0  0  0  0  0  0  0  0
   -3.0420    3.4270   36.9930 O   0  0  0  0  0  0  0  0  0  0  0  0
   -3.8130    3.6270   40.6700 P   0  0  0  0  0  0  0  0  0  0  0  0
   -4.9810    4.2240   41.3230 O   0  0  0  0  0  0  0  0  0  0  0  0
   -2.6980    3.4600   41.6390 O   0  0  0  0  0  0  0  0  0  0  0  0
   -4.0120    2.4480   39.7660 O   0  0  0  0  0  0  0  0  0  0  0  0
    2.6050    4.5510   39.6380 P   0  0  0  0  0  0  0  0  0  0  0  0
    3.4630    5.5730   40.0730 O   0  0  0  0  0  0  0  0  0  0  0  0
    1.8060    3.7860   40.5730 O   0  0  0  0  0  0  0  0  0  0  0  0
    3.0900    3.7480   38.5600 O   0  0  0  0  0  0  0  0  0  0  0  0
    2.3810    5.3220   35.5530 P   0  0  0  0  0  0  0  0  0  0  0  0
    1.8910    6.7140   35.6780 O   0  0  0  0  0  0  0  0  0  0  0  0
    3.6580    5.0400   36.2540 O   0  0  0  0  0  0  0  0  0  0  0  0
    2.2820    4.7790   34.2290 O   0  0  0  0  0  0  0  0  0  0  0  0
   -0.7220    3.4620   33.7510 P   0  0  0  0  0  0  0  0  0  0  0  0
    0.3140    4.2970   33.1410 O   0  0  0  0  0  0  0  0  0  0  0  0
   -0.3560    2.1590   34.2350 O   0  0  0  0  0  0  0  0  0  0  0  0
   -1.9840    3.4660   33.0630 O   0  0  0  0  0  0  0  0  0  0  0  0
   -1.5613    3.5919   39.0739 H   0  0  0  0  0  0  0  0  0  0  0  0
   -0.7463    5.4112   40.2790 H   0  0  0  0  0  0  0  0  0  0  0  0
   -1.1102    7.3399   39.7496 H   0  0  0  0  0  0  0  0  0  0  0  0
    0.3809    3.7833   38.6404 H   0  0  0  0  0  0  0  0  0  0  0  0
   -0.0011    6.0697   36.6615 H   0  0  0  0  0  0  0  0  0  0  0  0
   -0.6494    3.0849   36.6758 H   0  0  0  0  0  0  0  0  0  0  0  0
   -2.5469    5.4780   36.8589 H   0  0  0  0  0  0  0  0  0  0  0  0
   -3.3362    3.0583   37.8634 H   0  0  0  0  0  0  0  0  0  0  0  0
   -3.0522    3.5130   42.5620 H   0  0  0  0  0  0  0  0  0  0  0  0
   -4.1495    1.6334   40.3115 H   0  0  0  0  0  0  0  0  0  0  0  0
    2.0592    4.0284   41.4989 H   0  0  0  0  0  0  0  0  0  0  0  0
    3.5660    2.9599   38.9238 H   0  0  0  0  0  0  0  0  0  0  0  0
    1.8080    6.9499   36.6359 H   0  0  0  0  0  0  0  0  0  0  0  0
    3.5114    5.0724   37.2326 H   0  0  0  0  0  0  0  0  0  0  0  0
    0.8504    4.7293   33.8520 H   0  0  0  0  0  0  0  0  0  0  0  0
   -2.7205    3.4683   33.7246 H   0  0  0  0  0  0  0  0  0  0  0  0
  1  2  1  0
  1  3  1  0
  1 11  1  0
  2 13  1  0
  3  4  1  0
  3  5  1  0
  5  6  1  0
  5  7  1  0
  6 17  1  0
  7  8  1  0
  7  9  1  0
  8 21  1  0
  9 10  1  0
  9 11  1  0
 10 25  1  0
 11 12  1  0
 13 14  2  0
 13 15  1  0
 13 16  1  0
 17 18  2  0
 17 19  1  0
 17 20  1  0
 21 22  1  0
 21 23  1  0
 21 24  2  0
 25 26  1  0
 25 27  2  0
 25 28  1  0
  1 29  1  0
  3 30  1  0
  4 31  1  0
  5 32  1  0
  7 33  1  0
  9 34  1  0
 11 35  1  0
 12 36  1  0
 15 37  1  0
 16 38  1  0
 19 39  1  0
 20 40  1  0
 22 41  1  0
 23 42  1  0
 26 43  1  0
 28 44  1  0
A    1
C1
A    2
O1
A    3
C2
A    4
O2
A    5
C3
A    6
O3
A    7
C4
A    8
O4
A    9
C5
A   10
O5
A   11
C6
A   12
O6
A   13
P1
A   14
O1P
A   15
O2P
A   16
O3P
A   17
P3
A   18
O4P
A   19
O5P
A   20
O6P
A   21
P4
A   22
O7P
A   23
O8P
A   24
O9P
A   25
P5
A   26
OPF
A   27
OPG
A   28
OPH
M  END
