1FBZ_CC1_A_150
     RDKit          3D

 86 89  0  0  0  0  0  0  0  0999 V2000
   19.8800   16.1840   15.0390 C   0  0  0  0  0  0  0  0  0  0  0  0
   20.4050   17.5070   15.1900 N   0  0  0  0  0  0  0  0  0  0  0  0
   20.0620   18.5280   14.4010 C   0  0  0  0  0  0  0  0  0  0  0  0
   20.6560   19.8600   14.7280 C   0  0  0  0  0  0  0  0  0  0  0  0
   21.3060   20.4620   13.5690 N   0  0  0  0  0  0  0  0  0  0  0  0
   22.6070   20.8380   13.6270 C   0  0  0  0  0  0  0  0  0  0  0  0
   23.1770   21.4440   12.3620 C   0  0  0  0  0  0  0  0  0  0  0  0
   23.3340   20.7120   14.6370 O   0  0  0  0  0  0  0  0  0  0  0  0
   19.5430   20.7690   15.2670 C   0  0  0  0  0  0  0  0  0  0  0  0
   20.2670   22.0430   15.5670 C   0  0  0  0  0  0  0  0  0  0  0  0
   20.2150   23.1160   14.6760 C   0  0  0  0  0  0  0  0  0  0  0  0
   20.9160   24.3010   14.9640 C   0  0  0  0  0  0  0  0  0  0  0  0
   20.8130   25.6760   13.7570 P   0  0  0  0  0  0  0  0  0  0  0  0
   20.0490   26.8010   14.3610 O   0  0  0  0  0  0  0  0  0  0  0  0
   22.1910   26.1230   13.4190 O   0  0  0  0  0  0  0  0  0  0  0  0
   20.1330   25.1910   12.5270 O   0  0  0  0  0  0  0  0  0  0  0  0
   21.6790   24.4120   16.1580 C   0  0  0  0  0  0  0  0  0  0  0  0
   22.6130   25.9440   16.5820 P   0  0  0  0  0  0  0  0  0  0  0  0
   23.6120   26.2390   15.5300 O   0  0  0  0  0  0  0  0  0  0  0  0
   21.6650   27.0880   16.6830 O   0  0  0  0  0  0  0  0  0  0  0  0
   23.3000   25.7480   17.8810 O   0  0  0  0  0  0  0  0  0  0  0  0
   21.7120   23.3210   17.0380 C   0  0  0  0  0  0  0  0  0  0  0  0
   21.0120   22.1450   16.7420 C   0  0  0  0  0  0  0  0  0  0  0  0
   19.4030   18.4070   13.4000 O   0  0  0  0  0  0  0  0  0  0  0  0
   20.5780   15.3480   16.1440 C   0  0  0  0  0  0  0  0  0  0  0  0
   20.1930   13.8400   16.1970 C   0  0  0  0  0  0  0  0  0  0  0  0
   19.7650   13.3110   14.7990 C   0  0  0  0  0  0  0  0  0  0  0  0
   18.2730   13.6300   14.4370 C   0  0  0  0  0  0  0  0  0  0  0  0
   17.6480   14.8920   15.0670 C   0  0  0  0  0  0  0  0  0  0  0  0
   16.2680   14.8550   15.3810 C   0  0  0  0  0  0  0  0  0  0  0  0
   15.6140   15.9690   15.9620 C   0  0  0  0  0  0  0  0  0  0  0  0
   14.2640   15.9590   16.2780 O   0  0  0  0  0  0  0  0  0  0  0  0
   13.3860   14.8270   16.0530 C   0  0  0  0  0  0  0  0  0  0  0  0
   12.5800   14.3770   17.3070 C   0  0  0  0  0  0  0  0  0  0  0  0
   12.7410   12.8830   17.6370 C   0  0  0  0  0  0  0  0  0  0  0  0
   11.8950   12.5070   18.8790 C   0  0  0  0  0  0  0  0  0  0  0  0
   12.3160   13.3350   20.1070 C   0  0  0  0  0  0  0  0  0  0  0  0
   12.2150   14.8550   19.8250 C   0  0  0  0  0  0  0  0  0  0  0  0
   12.9760   15.2560   18.5410 C   0  0  0  0  0  0  0  0  0  0  0  0
   16.3660   17.1400   16.2350 C   0  0  0  0  0  0  0  0  0  0  0  0
   17.7390   17.1740   15.9240 C   0  0  0  0  0  0  0  0  0  0  0  0
   18.3900   16.0800   15.3490 C   0  0  0  0  0  0  0  0  0  0  0  0
   15.7050   18.3600   16.8620 C   0  0  0  0  0  0  0  0  0  0  0  0
   16.3120   19.5530   16.8190 N   0  0  0  0  0  0  0  0  0  0  0  0
   14.6170   18.2200   17.4070 O   0  0  0  0  0  0  0  0  0  0  0  0
   20.0429   15.8611   14.0001 H   0  0  0  0  0  0  0  0  0  0  0  0
   21.0823   17.6803   15.9464 H   0  0  0  0  0  0  0  0  0  0  0  0
   21.4369   19.7288   15.4916 H   0  0  0  0  0  0  0  0  0  0  0  0
   20.7720   20.6025   12.6995 H   0  0  0  0  0  0  0  0  0  0  0  0
   23.9087   22.2219   12.6255 H   0  0  0  0  0  0  0  0  0  0  0  0
   23.6724   20.6598   11.7707 H   0  0  0  0  0  0  0  0  0  0  0  0
   22.3640   21.8905   11.7707 H   0  0  0  0  0  0  0  0  0  0  0  0
   18.7604   20.9274   14.5104 H   0  0  0  0  0  0  0  0  0  0  0  0
   19.0241   20.3484   16.1410 H   0  0  0  0  0  0  0  0  0  0  0  0
   19.6268   23.0351   13.7500 H   0  0  0  0  0  0  0  0  0  0  0  0
   20.0924   26.7371   15.3480 H   0  0  0  0  0  0  0  0  0  0  0  0
   19.3534   24.6350   12.7783 H   0  0  0  0  0  0  0  0  0  0  0  0
   24.4708   26.4926   15.9522 H   0  0  0  0  0  0  0  0  0  0  0  0
   21.4953   27.2928   17.6366 H   0  0  0  0  0  0  0  0  0  0  0  0
   22.2931   23.3895   17.9695 H   0  0  0  0  0  0  0  0  0  0  0  0
   21.0498   21.2961   17.4405 H   0  0  0  0  0  0  0  0  0  0  0  0
   21.6640   15.4137   15.9817 H   0  0  0  0  0  0  0  0  0  0  0  0
   20.2421   15.7762   17.1000 H   0  0  0  0  0  0  0  0  0  0  0  0
   21.0607   13.2618   16.5475 H   0  0  0  0  0  0  0  0  0  0  0  0
   19.3420   13.7253   16.8845 H   0  0  0  0  0  0  0  0  0  0  0  0
   20.4134   13.7719   14.0393 H   0  0  0  0  0  0  0  0  0  0  0  0
   19.8637   12.2157   14.8244 H   0  0  0  0  0  0  0  0  0  0  0  0
   18.2145   13.7422   13.3443 H   0  0  0  0  0  0  0  0  0  0  0  0
   17.6954   12.7908   14.8518 H   0  0  0  0  0  0  0  0  0  0  0  0
   15.6918   13.9422   15.1694 H   0  0  0  0  0  0  0  0  0  0  0  0
   12.6699   15.0989   15.2635 H   0  0  0  0  0  0  0  0  0  0  0  0
   14.0311   13.9806   15.7749 H   0  0  0  0  0  0  0  0  0  0  0  0
   11.5165   14.5238   17.0674 H   0  0  0  0  0  0  0  0  0  0  0  0
   12.4069   12.2843   16.7768 H   0  0  0  0  0  0  0  0  0  0  0  0
   13.8000   12.6787   17.8531 H   0  0  0  0  0  0  0  0  0  0  0  0
   10.8338   12.6993   18.6626 H   0  0  0  0  0  0  0  0  0  0  0  0
   12.0568   11.4423   19.1030 H   0  0  0  0  0  0  0  0  0  0  0  0
   11.6576   13.0831   20.9514 H   0  0  0  0  0  0  0  0  0  0  0  0
   13.3632   13.0955   20.3438 H   0  0  0  0  0  0  0  0  0  0  0  0
   11.1551   15.1253   19.7090 H   0  0  0  0  0  0  0  0  0  0  0  0
   12.6707   15.3893   20.6717 H   0  0  0  0  0  0  0  0  0  0  0  0
   14.0553   15.1439   18.7216 H   0  0  0  0  0  0  0  0  0  0  0  0
   12.7098   16.2974   18.3074 H   0  0  0  0  0  0  0  0  0  0  0  0
   18.3143   18.0865   16.1396 H   0  0  0  0  0  0  0  0  0  0  0  0
   16.5584   20.0373   17.6940 H   0  0  0  0  0  0  0  0  0  0  0  0
   16.5324   19.9862   15.9109 H   0  0  0  0  0  0  0  0  0  0  0  0
  1  2  1  0
  1 25  1  0
  1 42  1  0
  2  3  1  0
  3  4  1  0
  3 24  2  0
  4  5  1  0
  4  9  1  0
  5  6  1  0
  6  7  1  0
  6  8  2  0
  9 10  1  0
 10 11  2  0
 10 23  1  0
 11 12  1  0
 12 13  1  0
 12 17  2  0
 13 14  1  0
 13 15  2  0
 13 16  1  0
 17 18  1  0
 17 22  1  0
 18 19  1  0
 18 20  1  0
 18 21  2  0
 22 23  2  0
 25 26  1  0
 26 27  1  0
 27 28  1  0
 28 29  1  0
 29 30  1  0
 29 42  2  0
 30 31  2  0
 31 32  1  0
 31 40  1  0
 32 33  1  0
 33 34  1  0
 34 35  1  0
 34 39  1  0
 35 36  1  0
 36 37  1  0
 37 38  1  0
 38 39  1  0
 40 41  2  0
 40 43  1  0
 41 42  1  0
 43 44  1  0
 43 45  2  0
  1 46  1  0
  2 47  1  0
  4 48  1  0
  5 49  1  0
  7 50  1  0
  7 51  1  0
  7 52  1  0
  9 53  1  0
  9 54  1  0
 11 55  1  0
 14 56  1  0
 16 57  1  0
 19 58  1  0
 20 59  1  0
 22 60  1  0
 23 61  1  0
 25 62  1  0
 25 63  1  0
 26 64  1  0
 26 65  1  0
 27 66  1  0
 27 67  1  0
 28 68  1  0
 28 69  1  0
 30 70  1  0
 33 71  1  0
 33 72  1  0
 34 73  1  0
 35 74  1  0
 35 75  1  0
 36 76  1  0
 36 77  1  0
 37 78  1  0
 37 79  1  0
 38 80  1  0
 38 81  1  0
 39 82  1  0
 39 83  1  0
 41 84  1  0
 44 85  1  0
 44 86  1  0
A    1
C1
A    2
N1
A    3
C2
A    4
CO
A    5
N2
A    6
C12
A    7
C13
A    8
O4
A    9
C4
A   10
C5
A   11
C6
A   12
C8
A   13
P2
A   14
OR1
A   15
OR2
A   16
OR3
A   17
C10
A   18
P1
A   19
OR4
A   20
OR5
A   21
OR6
A   22
C9
A   23
C7
A   24
O3
A   25
C11
A   26
C30
A   27
C28
A   28
C31
A   29
C19
A   30
C18
A   31
C17
A   32
O5
A   33
C20
A   34
C21
A   35
C22
A   36
C23
A   37
C24
A   38
C25
A   39
C26
A   40
C16
A   41
C15
A   42
C14
A   43
C27
A   44
N3
A   45
O6
M  END
