1FCX_184_A_450
     RDKit          3D

 57 60  0  0  0  0  0  0  0  0999 V2000
   34.8120   18.3020   88.3100 C   0  0  0  0  0  0  0  0  0  0  0  0
   35.6880   17.3620   87.6370 C   0  0  0  0  0  0  0  0  0  0  0  0
   35.7540   16.0480   88.1900 C   0  0  0  0  0  0  0  0  0  0  0  0
   36.5760   15.0880   87.6060 C   0  0  0  0  0  0  0  0  0  0  0  0
   37.3590   15.3820   86.4520 C   0  0  0  0  0  0  0  0  0  0  0  0
   37.2920   16.6660   85.9170 C   0  0  0  0  0  0  0  0  0  0  0  0
   36.4480   17.6410   86.5260 C   0  0  0  0  0  0  0  0  0  0  0  0
   42.6820   13.8490   81.6850 C   0  0  0  0  0  0  0  0  0  0  0  0
   43.0400   13.2180   80.3560 C   0  0  0  0  0  0  0  0  0  0  0  0
   44.4770   13.5720   79.9670 C   0  0  0  0  0  0  0  0  0  0  0  0
   44.9220   14.9440   80.2750 C   0  0  0  0  0  0  0  0  0  0  0  0
   44.8200   15.2950   81.7390 C   0  0  0  0  0  0  0  0  0  0  0  0
   43.4990   14.7970   82.3090 C   0  0  0  0  0  0  0  0  0  0  0  0
   42.0230   13.6600   79.3050 C   0  0  0  0  0  0  0  0  0  0  0  0
   43.0550   11.6870   80.4240 C   0  0  0  0  0  0  0  0  0  0  0  0
   44.8160   16.8220   81.6780 C   0  0  0  0  0  0  0  0  0  0  0  0
   45.9950   14.8610   82.6600 C   0  0  0  0  0  0  0  0  0  0  0  0
   34.4210   18.1730   89.4200 O   0  0  0  0  0  0  0  0  0  0  0  0
   34.4720   19.3250   87.5700 O   0  0  0  0  0  0  0  0  0  0  0  0
   38.1860   14.4020   85.8600 C   0  0  0  0  0  0  0  0  0  0  0  0
   38.9520   14.6930   84.7340 C   0  0  0  0  0  0  0  0  0  0  0  0
   38.8660   15.9890   84.2030 C   0  0  0  0  0  0  0  0  0  0  0  0
   38.0520   16.9820   84.7780 C   0  0  0  0  0  0  0  0  0  0  0  0
   41.1700   14.0730   83.5500 C   0  0  0  0  0  0  0  0  0  0  0  0
   41.4920   13.4880   82.3290 C   0  0  0  0  0  0  0  0  0  0  0  0
   43.1310   15.3500   83.5270 C   0  0  0  0  0  0  0  0  0  0  0  0
   41.9870   14.9980   84.1470 C   0  0  0  0  0  0  0  0  0  0  0  0
   39.8360   13.5480   84.0920 C   0  0  0  0  0  0  0  0  0  0  0  0
   39.9280   12.5170   85.0740 O   0  0  0  0  0  0  0  0  0  0  0  0
   35.1556   15.7938   89.0773 H   0  0  0  0  0  0  0  0  0  0  0  0
   36.6221   14.0804   88.0449 H   0  0  0  0  0  0  0  0  0  0  0  0
   36.4036   18.6508   86.0919 H   0  0  0  0  0  0  0  0  0  0  0  0
   45.1470   12.8769   80.4941 H   0  0  0  0  0  0  0  0  0  0  0  0
   44.5099   13.4941   78.8703 H   0  0  0  0  0  0  0  0  0  0  0  0
   45.9722   15.0475   79.9644 H   0  0  0  0  0  0  0  0  0  0  0  0
   44.2566   15.6301   79.7305 H   0  0  0  0  0  0  0  0  0  0  0  0
   41.1246   14.0504   79.8055 H   0  0  0  0  0  0  0  0  0  0  0  0
   42.4641   14.4476   78.6764 H   0  0  0  0  0  0  0  0  0  0  0  0
   41.7481   12.8002   78.6764 H   0  0  0  0  0  0  0  0  0  0  0  0
   43.0581   11.3667   81.4763 H   0  0  0  0  0  0  0  0  0  0  0  0
   42.1607   11.2889   79.9222 H   0  0  0  0  0  0  0  0  0  0  0  0
   43.9569   11.3065   79.9222 H   0  0  0  0  0  0  0  0  0  0  0  0
   44.8149   17.2298   82.6996 H   0  0  0  0  0  0  0  0  0  0  0  0
   45.7132   17.1700   81.1452 H   0  0  0  0  0  0  0  0  0  0  0  0
   43.9170   17.1653   81.1452 H   0  0  0  0  0  0  0  0  0  0  0  0
   45.6958   14.9715   83.7127 H   0  0  0  0  0  0  0  0  0  0  0  0
   46.2491   13.8097   82.4594 H   0  0  0  0  0  0  0  0  0  0  0  0
   46.8715   15.4947   82.4594 H   0  0  0  0  0  0  0  0  0  0  0  0
   34.1903   20.1727   87.9967 H   0  0  0  0  0  0  0  0  0  0  0  0
   38.2257   13.3926   86.2954 H   0  0  0  0  0  0  0  0  0  0  0  0
   39.4546   16.2368   83.3074 H   0  0  0  0  0  0  0  0  0  0  0  0
   38.0110   17.9912   84.3423 H   0  0  0  0  0  0  0  0  0  0  0  0
   40.8174   12.7481   81.8735 H   0  0  0  0  0  0  0  0  0  0  0  0
   43.7893   16.0944   83.9986 H   0  0  0  0  0  0  0  0  0  0  0  0
   41.7139   15.4448   85.1144 H   0  0  0  0  0  0  0  0  0  0  0  0
   39.3754   13.1276   83.1859 H   0  0  0  0  0  0  0  0  0  0  0  0
   39.8922   12.9184   85.9783 H   0  0  0  0  0  0  0  0  0  0  0  0
  1  2  1  0
  1 18  2  0
  1 19  1  0
  2  3  2  0
  2  7  1  0
  3  4  1  0
  4  5  2  0
  5  6  1  0
  5 20  1  0
  6  7  2  0
  6 23  1  0
  8  9  1  0
  8 13  2  0
  8 25  1  0
  9 10  1  0
  9 14  1  0
  9 15  1  0
 10 11  1  0
 11 12  1  0
 12 13  1  0
 12 16  1  0
 12 17  1  0
 13 26  1  0
 20 21  2  0
 21 22  1  0
 21 28  1  0
 22 23  2  0
 24 25  2  0
 24 27  1  0
 24 28  1  0
 26 27  2  0
 28 29  1  0
  3 30  1  0
  4 31  1  0
  7 32  1  0
 10 33  1  0
 10 34  1  0
 11 35  1  0
 11 36  1  0
 14 37  1  0
 14 38  1  0
 14 39  1  0
 15 40  1  0
 15 41  1  0
 15 42  1  0
 16 43  1  0
 16 44  1  0
 16 45  1  0
 17 46  1  0
 17 47  1  0
 17 48  1  0
 19 49  1  0
 20 50  1  0
 22 51  1  0
 23 52  1  0
 25 53  1  0
 26 54  1  0
 27 55  1  0
 28 56  1  0
 29 57  1  0
A    1
C1
A    2
C2
A    3
C3
A    4
C4
A    5
C5
A    6
C10
A    7
C11
A    8
C15
A    9
C16
A   10
C17
A   11
C18
A   12
C19
A   13
C20
A   14
C23
A   15
C24
A   16
C25
A   17
C26
A   18
O1
A   19
O2
A   20
C6
A   21
C7
A   22
C8
A   23
C9
A   24
C13
A   25
C14
A   26
C21
A   27
C22
A   28
C12
A   29
O3
M  END
