1FCY_564_A_450
     RDKit          3D

 55 58  0  0  0  0  0  0  0  0999 V2000
   34.6330   18.3790   88.3370 C   0  0  0  0  0  0  0  0  0  0  0  0
   35.5520   17.4410   87.7130 C   0  0  0  0  0  0  0  0  0  0  0  0
   35.6220   16.1120   88.2530 C   0  0  0  0  0  0  0  0  0  0  0  0
   36.5060   15.2120   87.6690 C   0  0  0  0  0  0  0  0  0  0  0  0
   37.3130   15.5740   86.5590 C   0  0  0  0  0  0  0  0  0  0  0  0
   37.2340   16.8700   86.0530 C   0  0  0  0  0  0  0  0  0  0  0  0
   36.3560   17.8050   86.6300 C   0  0  0  0  0  0  0  0  0  0  0  0
   42.7800   13.8630   81.8470 C   0  0  0  0  0  0  0  0  0  0  0  0
   43.1920   13.0000   80.6640 C   0  0  0  0  0  0  0  0  0  0  0  0
   44.6050   13.3080   80.2110 C   0  0  0  0  0  0  0  0  0  0  0  0
   45.0020   14.7270   80.2690 C   0  0  0  0  0  0  0  0  0  0  0  0
   44.8770   15.3370   81.6410 C   0  0  0  0  0  0  0  0  0  0  0  0
   43.5400   14.9400   82.3100 C   0  0  0  0  0  0  0  0  0  0  0  0
   42.2110   13.2960   79.5200 C   0  0  0  0  0  0  0  0  0  0  0  0
   43.1640   11.5340   81.0310 C   0  0  0  0  0  0  0  0  0  0  0  0
   44.8570   16.8250   81.3310 C   0  0  0  0  0  0  0  0  0  0  0  0
   46.0300   15.0210   82.6060 C   0  0  0  0  0  0  0  0  0  0  0  0
   34.1880   18.1160   89.4160 O   0  0  0  0  0  0  0  0  0  0  0  0
   34.3400   19.4520   87.6620 O   0  0  0  0  0  0  0  0  0  0  0  0
   38.2000   14.6500   85.9490 C   0  0  0  0  0  0  0  0  0  0  0  0
   39.0090   14.9880   84.8700 C   0  0  0  0  0  0  0  0  0  0  0  0
   38.8870   16.3130   84.3900 C   0  0  0  0  0  0  0  0  0  0  0  0
   38.0310   17.2340   84.9560 C   0  0  0  0  0  0  0  0  0  0  0  0
   41.1550   14.3290   83.5980 C   0  0  0  0  0  0  0  0  0  0  0  0
   41.5880   13.5660   82.4990 C   0  0  0  0  0  0  0  0  0  0  0  0
   43.1150   15.6960   83.4000 C   0  0  0  0  0  0  0  0  0  0  0  0
   41.9660   15.3780   84.0030 C   0  0  0  0  0  0  0  0  0  0  0  0
   39.9170   13.9910   84.2450 C   0  0  0  0  0  0  0  0  0  0  0  0
   39.5140   12.7970   84.3100 O   0  0  0  0  0  0  0  0  0  0  0  0
   34.9934   15.8145   89.1053 H   0  0  0  0  0  0  0  0  0  0  0  0
   36.5820   14.1935   88.0775 H   0  0  0  0  0  0  0  0  0  0  0  0
   36.3021   18.8271   86.2269 H   0  0  0  0  0  0  0  0  0  0  0  0
   45.2960   12.7377   80.8492 H   0  0  0  0  0  0  0  0  0  0  0  0
   44.6455   13.0294   79.1476 H   0  0  0  0  0  0  0  0  0  0  0  0
   46.0510   14.8072   79.9479 H   0  0  0  0  0  0  0  0  0  0  0  0
   44.3167   15.2790   79.6089 H   0  0  0  0  0  0  0  0  0  0  0  0
   41.2372   13.5898   79.9388 H   0  0  0  0  0  0  0  0  0  0  0  0
   42.6060   14.1149   78.9009 H   0  0  0  0  0  0  0  0  0  0  0  0
   42.0871   12.3952   78.9009 H   0  0  0  0  0  0  0  0  0  0  0  0
   43.1620   11.4301   82.1261 H   0  0  0  0  0  0  0  0  0  0  0  0
   42.2568   11.0696   80.6170 H   0  0  0  0  0  0  0  0  0  0  0  0
   44.0528   11.0353   80.6170 H   0  0  0  0  0  0  0  0  0  0  0  0
   44.8493   17.3954   82.2715 H   0  0  0  0  0  0  0  0  0  0  0  0
   45.7517   17.0903   80.7486 H   0  0  0  0  0  0  0  0  0  0  0  0
   43.9555   17.0661   80.7486 H   0  0  0  0  0  0  0  0  0  0  0  0
   45.6769   15.1178   83.6433 H   0  0  0  0  0  0  0  0  0  0  0  0
   46.3819   13.9933   82.4328 H   0  0  0  0  0  0  0  0  0  0  0  0
   46.8567   15.7257   82.4328 H   0  0  0  0  0  0  0  0  0  0  0  0
   34.1114   20.2893   88.1382 H   0  0  0  0  0  0  0  0  0  0  0  0
   38.2497   13.6252   86.3456 H   0  0  0  0  0  0  0  0  0  0  0  0
   39.5000   16.6212   83.5302 H   0  0  0  0  0  0  0  0  0  0  0  0
   37.9726   18.2539   84.5480 H   0  0  0  0  0  0  0  0  0  0  0  0
   40.9750   12.7220   82.1499 H   0  0  0  0  0  0  0  0  0  0  0  0
   43.7173   16.5434   83.7594 H   0  0  0  0  0  0  0  0  0  0  0  0
   41.6466   15.9802   84.8663 H   0  0  0  0  0  0  0  0  0  0  0  0
  1  2  1  0
  1 18  2  0
  1 19  1  0
  2  3  2  0
  2  7  1  0
  3  4  1  0
  4  5  2  0
  5  6  1  0
  5 20  1  0
  6  7  2  0
  6 23  1  0
  8  9  1  0
  8 13  2  0
  8 25  1  0
  9 10  1  0
  9 14  1  0
  9 15  1  0
 10 11  1  0
 11 12  1  0
 12 13  1  0
 12 16  1  0
 12 17  1  0
 13 26  1  0
 20 21  2  0
 21 22  1  0
 21 28  1  0
 22 23  2  0
 24 25  2  0
 24 27  1  0
 24 28  1  0
 26 27  2  0
 28 29  2  0
  3 30  1  0
  4 31  1  0
  7 32  1  0
 10 33  1  0
 10 34  1  0
 11 35  1  0
 11 36  1  0
 14 37  1  0
 14 38  1  0
 14 39  1  0
 15 40  1  0
 15 41  1  0
 15 42  1  0
 16 43  1  0
 16 44  1  0
 16 45  1  0
 17 46  1  0
 17 47  1  0
 17 48  1  0
 19 49  1  0
 20 50  1  0
 22 51  1  0
 23 52  1  0
 25 53  1  0
 26 54  1  0
 27 55  1  0
A    1
C1
A    2
C2
A    3
C3
A    4
C4
A    5
C5
A    6
C10
A    7
C11
A    8
C15
A    9
C16
A   10
C17
A   11
C18
A   12
C19
A   13
C20
A   14
C23
A   15
C24
A   16
C25
A   17
C26
A   18
O1
A   19
O2
A   20
C6
A   21
C7
A   22
C8
A   23
C9
A   24
C13
A   25
C14
A   26
C21
A   27
C22
A   28
C12
A   29
O3
M  END
