1FCZ_156_A_450
     RDKit          3D

 53 55  0  0  0  0  0  0  0  0999 V2000
   34.7480   18.1560   88.4120 C   0  0  0  0  0  0  0  0  0  0  0  0
   35.7910   17.5340   87.6320 C   0  0  0  0  0  0  0  0  0  0  0  0
   36.7020   18.0550   86.7590 C   0  0  0  0  0  0  0  0  0  0  0  0
   37.6590   17.3780   86.0560 C   0  0  0  0  0  0  0  0  0  0  0  0
   37.7900   16.0100   86.2830 C   0  0  0  0  0  0  0  0  0  0  0  0
   38.6810   15.1990   85.5140 C   0  0  0  0  0  0  0  0  0  0  0  0
   38.9030   13.9020   85.5560 C   0  0  0  0  0  0  0  0  0  0  0  0
   36.9940   15.4510   87.2620 C   0  0  0  0  0  0  0  0  0  0  0  0
   36.0880   16.1610   88.0620 C   0  0  0  0  0  0  0  0  0  0  0  0
   39.8460   13.1440   84.6980 C   0  0  0  0  0  0  0  0  0  0  0  0
   41.0460   13.7290   84.0750 C   0  0  0  0  0  0  0  0  0  0  0  0
   41.5000   13.2540   82.8490 C   0  0  0  0  0  0  0  0  0  0  0  0
   42.6370   13.7640   82.1980 C   0  0  0  0  0  0  0  0  0  0  0  0
   43.0510   13.1680   80.8440 C   0  0  0  0  0  0  0  0  0  0  0  0
   44.5010   13.6010   80.5050 C   0  0  0  0  0  0  0  0  0  0  0  0
   44.7060   15.0800   80.7250 C   0  0  0  0  0  0  0  0  0  0  0  0
   44.5920   15.4510   82.2180 C   0  0  0  0  0  0  0  0  0  0  0  0
   43.3480   14.8110   82.8230 C   0  0  0  0  0  0  0  0  0  0  0  0
   42.8760   15.2680   84.0460 C   0  0  0  0  0  0  0  0  0  0  0  0
   41.7720   14.7590   84.6630 C   0  0  0  0  0  0  0  0  0  0  0  0
   42.0810   13.6990   79.8090 C   0  0  0  0  0  0  0  0  0  0  0  0
   43.0100   11.6560   80.8730 C   0  0  0  0  0  0  0  0  0  0  0  0
   44.4830   16.9790   82.2380 C   0  0  0  0  0  0  0  0  0  0  0  0
   45.8510   15.0530   82.9860 C   0  0  0  0  0  0  0  0  0  0  0  0
   34.4060   19.3090   87.8470 O   0  0  0  0  0  0  0  0  0  0  0  0
   34.2180   17.7630   89.4120 O   0  0  0  0  0  0  0  0  0  0  0  0
   39.5140   11.9680   84.4180 O   0  0  0  0  0  0  0  0  0  0  0  0
   36.6613   19.1432   86.6036 H   0  0  0  0  0  0  0  0  0  0  0  0
   38.3056   17.8974   85.3334 H   0  0  0  0  0  0  0  0  0  0  0  0
   39.2763   15.7459   84.7680 H   0  0  0  0  0  0  0  0  0  0  0  0
   38.3340   13.3245   86.2995 H   0  0  0  0  0  0  0  0  0  0  0  0
   37.0767   14.3666   87.4270 H   0  0  0  0  0  0  0  0  0  0  0  0
   35.6276   15.7172   88.9570 H   0  0  0  0  0  0  0  0  0  0  0  0
   40.9419   12.4391   82.3649 H   0  0  0  0  0  0  0  0  0  0  0  0
   45.1990   13.0445   81.1477 H   0  0  0  0  0  0  0  0  0  0  0  0
   44.6853   13.3828   79.4427 H   0  0  0  0  0  0  0  0  0  0  0  0
   45.7061   15.3600   80.3625 H   0  0  0  0  0  0  0  0  0  0  0  0
   43.9236   15.6224   80.1740 H   0  0  0  0  0  0  0  0  0  0  0  0
   43.4214   16.0836   84.5433 H   0  0  0  0  0  0  0  0  0  0  0  0
   41.4530   15.1663   85.6337 H   0  0  0  0  0  0  0  0  0  0  0  0
   41.2245   14.1678   80.3156 H   0  0  0  0  0  0  0  0  0  0  0  0
   42.5883   14.4452   79.1799 H   0  0  0  0  0  0  0  0  0  0  0  0
   41.7257   12.8696   79.1799 H   0  0  0  0  0  0  0  0  0  0  0  0
   43.0006   11.3094   81.9169 H   0  0  0  0  0  0  0  0  0  0  0  0
   42.1020   11.3039   80.3616 H   0  0  0  0  0  0  0  0  0  0  0  0
   43.8976   11.2553   80.3616 H   0  0  0  0  0  0  0  0  0  0  0  0
   44.4579   17.3312   83.2798 H   0  0  0  0  0  0  0  0  0  0  0  0
   45.3523   17.4154   81.7243 H   0  0  0  0  0  0  0  0  0  0  0  0
   43.5606   17.2876   81.7243 H   0  0  0  0  0  0  0  0  0  0  0  0
   45.6560   15.1146   84.0668 H   0  0  0  0  0  0  0  0  0  0  0  0
   46.1311   14.0225   82.7221 H   0  0  0  0  0  0  0  0  0  0  0  0
   46.6725   15.7353   82.7221 H   0  0  0  0  0  0  0  0  0  0  0  0
   34.5739   18.0269   90.2973 H   0  0  0  0  0  0  0  0  0  0  0  0
  1  2  1  0
  1 25  2  0
  1 26  1  0
  2  3  2  0
  2  9  1  0
  3  4  1  0
  4  5  2  0
  5  6  1  0
  5  8  1  0
  6  7  2  0
  7 10  1  0
  8  9  2  0
 10 11  1  0
 10 27  2  0
 11 12  2  0
 11 20  1  0
 12 13  1  0
 13 14  1  0
 13 18  2  0
 14 15  1  0
 14 21  1  0
 14 22  1  0
 15 16  1  0
 16 17  1  0
 17 18  1  0
 17 23  1  0
 17 24  1  0
 18 19  1  0
 19 20  2  0
  3 28  1  0
  4 29  1  0
  6 30  1  0
  7 31  1  0
  8 32  1  0
  9 33  1  0
 12 34  1  0
 15 35  1  0
 15 36  1  0
 16 37  1  0
 16 38  1  0
 19 39  1  0
 20 40  1  0
 21 41  1  0
 21 42  1  0
 21 43  1  0
 22 44  1  0
 22 45  1  0
 22 46  1  0
 23 47  1  0
 23 48  1  0
 23 49  1  0
 24 50  1  0
 24 51  1  0
 24 52  1  0
 26 53  1  0
A    1
C1
A    2
C2
A    3
C3
A    4
C4
A    5
C5
A    6
C8
A    7
C9
A    8
C6
A    9
C7
A   10
C10
A   11
C11
A   12
C12
A   13
C13
A   14
C14
A   15
C15
A   16
C16
A   17
C17
A   18
C18
A   19
C19
A   20
C20
A   21
C21
A   22
C22
A   23
C23
A   24
C24
A   25
O1
A   26
O2
A   27
O3
M  END
