1FD0_254_A_450
     RDKit          3D

 57 60  0  0  0  0  0  0  0  0999 V2000
   34.5290   18.2070   88.4740 C   0  0  0  0  0  0  0  0  0  0  0  0
   35.5050   17.2840   87.8740 C   0  0  0  0  0  0  0  0  0  0  0  0
   35.5970   15.9690   88.4400 C   0  0  0  0  0  0  0  0  0  0  0  0
   36.5130   15.0790   87.8920 C   0  0  0  0  0  0  0  0  0  0  0  0
   37.3450   15.4230   86.8080 C   0  0  0  0  0  0  0  0  0  0  0  0
   37.2450   16.7270   86.2600 C   0  0  0  0  0  0  0  0  0  0  0  0
   36.3270   17.6400   86.8010 C   0  0  0  0  0  0  0  0  0  0  0  0
   42.8340   14.1030   82.0500 C   0  0  0  0  0  0  0  0  0  0  0  0
   43.2380   13.3710   80.7710 C   0  0  0  0  0  0  0  0  0  0  0  0
   44.6680   13.7450   80.3470 C   0  0  0  0  0  0  0  0  0  0  0  0
   44.9870   15.1890   80.4830 C   0  0  0  0  0  0  0  0  0  0  0  0
   44.8750   15.6980   81.9340 C   0  0  0  0  0  0  0  0  0  0  0  0
   43.6020   15.1700   82.5710 C   0  0  0  0  0  0  0  0  0  0  0  0
   42.2530   13.7000   79.6710 C   0  0  0  0  0  0  0  0  0  0  0  0
   43.2180   11.8570   81.0480 C   0  0  0  0  0  0  0  0  0  0  0  0
   44.7610   17.2230   81.7530 C   0  0  0  0  0  0  0  0  0  0  0  0
   46.0920   15.3970   82.8230 C   0  0  0  0  0  0  0  0  0  0  0  0
   33.9460   17.8990   89.4960 O   0  0  0  0  0  0  0  0  0  0  0  0
   34.3440   19.3010   87.8490 O   0  0  0  0  0  0  0  0  0  0  0  0
   38.2610   14.4850   86.2710 C   0  0  0  0  0  0  0  0  0  0  0  0
   39.0980   14.7970   85.2080 C   0  0  0  0  0  0  0  0  0  0  0  0
   38.9400   16.1130   84.7060 C   0  0  0  0  0  0  0  0  0  0  0  0
   38.0800   17.0570   85.1760 C   0  0  0  0  0  0  0  0  0  0  0  0
   41.3030   14.3980   83.9430 C   0  0  0  0  0  0  0  0  0  0  0  0
   41.6950   13.7340   82.7510 C   0  0  0  0  0  0  0  0  0  0  0  0
   43.1920   15.8040   83.7470 C   0  0  0  0  0  0  0  0  0  0  0  0
   42.0870   15.4270   84.4090 C   0  0  0  0  0  0  0  0  0  0  0  0
   40.0980   13.8980   84.5460 C   0  0  0  0  0  0  0  0  0  0  0  0
   39.9290   12.5750   84.4770 N   0  0  0  0  0  0  0  0  0  0  0  0
   38.8160   12.0060   85.0150 O   0  0  0  0  0  0  0  0  0  0  0  0
   34.9591   15.6728   89.2858 H   0  0  0  0  0  0  0  0  0  0  0  0
   36.5914   14.0688   88.3202 H   0  0  0  0  0  0  0  0  0  0  0  0
   36.2531   18.6511   86.3742 H   0  0  0  0  0  0  0  0  0  0  0  0
   45.3726   13.1761   80.9715 H   0  0  0  0  0  0  0  0  0  0  0  0
   44.7534   13.5026   79.2775 H   0  0  0  0  0  0  0  0  0  0  0  0
   46.0162   15.3549   80.1321 H   0  0  0  0  0  0  0  0  0  0  0  0
   44.2528   15.7456   79.8821 H   0  0  0  0  0  0  0  0  0  0  0  0
   41.2990   14.0187   80.1163 H   0  0  0  0  0  0  0  0  0  0  0  0
   42.6564   14.5122   79.0484 H   0  0  0  0  0  0  0  0  0  0  0  0
   42.0874   12.8084   79.0484 H   0  0  0  0  0  0  0  0  0  0  0  0
   43.2157   11.6830   82.1341 H   0  0  0  0  0  0  0  0  0  0  0  0
   42.3139   11.4149   80.6039 H   0  0  0  0  0  0  0  0  0  0  0  0
   44.1101   11.3912   80.6039 H   0  0  0  0  0  0  0  0  0  0  0  0
   44.7248   17.7077   82.7398 H   0  0  0  0  0  0  0  0  0  0  0  0
   45.6340   17.5923   81.1950 H   0  0  0  0  0  0  0  0  0  0  0  0
   43.8428   17.4584   81.1950 H   0  0  0  0  0  0  0  0  0  0  0  0
   45.8000   15.4692   83.8811 H   0  0  0  0  0  0  0  0  0  0  0  0
   46.4579   14.3813   82.6121 H   0  0  0  0  0  0  0  0  0  0  0  0
   46.8892   16.1250   82.6121 H   0  0  0  0  0  0  0  0  0  0  0  0
   34.2019   20.1411   88.3531 H   0  0  0  0  0  0  0  0  0  0  0  0
   38.3107   13.4777   86.7101 H   0  0  0  0  0  0  0  0  0  0  0  0
   39.5741   16.3990   83.8538 H   0  0  0  0  0  0  0  0  0  0  0  0
   38.0382   18.0565   84.7186 H   0  0  0  0  0  0  0  0  0  0  0  0
   41.0791   12.9046   82.3730 H   0  0  0  0  0  0  0  0  0  0  0  0
   43.7927   16.6367   84.1418 H   0  0  0  0  0  0  0  0  0  0  0  0
   41.8050   15.9478   85.3360 H   0  0  0  0  0  0  0  0  0  0  0  0
   38.7130   11.9533   85.9982 H   0  0  0  0  0  0  0  0  0  0  0  0
  1  2  1  0
  1 18  2  0
  1 19  1  0
  2  3  2  0
  2  7  1  0
  3  4  1  0
  4  5  2  0
  5  6  1  0
  5 20  1  0
  6  7  2  0
  6 23  1  0
  8  9  1  0
  8 13  2  0
  8 25  1  0
  9 10  1  0
  9 14  1  0
  9 15  1  0
 10 11  1  0
 11 12  1  0
 12 13  1  0
 12 16  1  0
 12 17  1  0
 13 26  1  0
 20 21  2  0
 21 22  1  0
 21 28  1  0
 22 23  2  0
 24 25  2  0
 24 27  1  0
 24 28  1  0
 26 27  2  0
 28 29  2  0
 29 30  1  0
  3 31  1  0
  4 32  1  0
  7 33  1  0
 10 34  1  0
 10 35  1  0
 11 36  1  0
 11 37  1  0
 14 38  1  0
 14 39  1  0
 14 40  1  0
 15 41  1  0
 15 42  1  0
 15 43  1  0
 16 44  1  0
 16 45  1  0
 16 46  1  0
 17 47  1  0
 17 48  1  0
 17 49  1  0
 19 50  1  0
 20 51  1  0
 22 52  1  0
 23 53  1  0
 25 54  1  0
 26 55  1  0
 27 56  1  0
 30 57  1  0
A    1
C1
A    2
C2
A    3
C3
A    4
C4
A    5
C5
A    6
C10
A    7
C11
A    8
C15
A    9
C16
A   10
C17
A   11
C18
A   12
C19
A   13
C20
A   14
C23
A   15
C24
A   16
C25
A   17
C26
A   18
O1
A   19
O2
A   20
C6
A   21
C7
A   22
C8
A   23
C9
A   24
C13
A   25
C14
A   26
C21
A   27
C22
A   28
C12
A   29
N1
A   30
O3
M  END
