1FDQ_HXA_A_133
     RDKit          3D

 56 55  0  0  0  0  0  0  0  0999 V2000
    7.0540   13.4820   -0.1610 C   0  0  0  0  0  0  0  0  0  0  0  0
    8.2420   13.4820   -0.4650 O   0  0  0  0  0  0  0  0  0  0  0  0
    6.4390   14.5480    0.4130 O   0  0  0  0  0  0  0  0  0  0  0  0
    6.0960   12.3080   -0.3900 C   0  0  0  0  0  0  0  0  0  0  0  0
    6.7060   10.9930    0.1580 C   0  0  0  0  0  0  0  0  0  0  0  0
    7.0460    9.9960   -0.9350 C   0  0  0  0  0  0  0  0  0  0  0  0
    6.5630    8.7570   -1.0950 C   0  0  0  0  0  0  0  0  0  0  0  0
    5.5490    8.0660   -0.2000 C   0  0  0  0  0  0  0  0  0  0  0  0
    5.2110    6.6420   -0.6090 C   0  0  0  0  0  0  0  0  0  0  0  0
    4.2290    5.8940   -0.0870 C   0  0  0  0  0  0  0  0  0  0  0  0
    3.2340    6.2990    0.9860 C   0  0  0  0  0  0  0  0  0  0  0  0
    1.9680    6.8880    0.3890 C   0  0  0  0  0  0  0  0  0  0  0  0
    1.1480    7.7930    0.9360 C   0  0  0  0  0  0  0  0  0  0  0  0
    1.2540    8.4760    2.2870 C   0  0  0  0  0  0  0  0  0  0  0  0
    1.2220    9.9850    2.1460 C   0  0  0  0  0  0  0  0  0  0  0  0
    2.2310   10.8480    2.3310 C   0  0  0  0  0  0  0  0  0  0  0  0
    3.6570   10.5270    2.7260 C   0  0  0  0  0  0  0  0  0  0  0  0
    3.8380   10.3100    4.2170 C   0  0  0  0  0  0  0  0  0  0  0  0
    4.9550    9.8920    4.8260 C   0  0  0  0  0  0  0  0  0  0  0  0
    6.2810    9.5280    4.1870 C   0  0  0  0  0  0  0  0  0  0  0  0
    6.3280    8.0740    3.7530 C   0  0  0  0  0  0  0  0  0  0  0  0
    7.3790    7.2460    3.7920 C   0  0  0  0  0  0  0  0  0  0  0  0
    8.7660    7.5750    4.3090 C   0  0  0  0  0  0  0  0  0  0  0  0
    9.6350    6.3170    4.4370 C   0  0  0  0  0  0  0  0  0  0  0  0
    6.3959   14.6227    1.3992 H   0  0  0  0  0  0  0  0  0  0  0  0
    5.1466   12.5096    0.1276 H   0  0  0  0  0  0  0  0  0  0  0  0
    5.9233   12.1961   -1.4706 H   0  0  0  0  0  0  0  0  0  0  0  0
    7.6264   11.2365    0.7090 H   0  0  0  0  0  0  0  0  0  0  0  0
    5.9506   10.5252    0.8066 H   0  0  0  0  0  0  0  0  0  0  0  0
    7.7767   10.3313   -1.6857 H   0  0  0  0  0  0  0  0  0  0  0  0
    6.9365    8.1851   -1.9572 H   0  0  0  0  0  0  0  0  0  0  0  0
    5.9537    8.0424    0.8226 H   0  0  0  0  0  0  0  0  0  0  0  0
    4.6164    8.6435   -0.2816 H   0  0  0  0  0  0  0  0  0  0  0  0
    5.8242    6.1866   -1.4005 H   0  0  0  0  0  0  0  0  0  0  0  0
    4.1331    4.8712   -0.4803 H   0  0  0  0  0  0  0  0  0  0  0  0
    2.9684    5.4111    1.5785 H   0  0  0  0  0  0  0  0  0  0  0  0
    3.7048    7.0685    1.6154 H   0  0  0  0  0  0  0  0  0  0  0  0
    1.6920    6.5276   -0.6130 H   0  0  0  0  0  0  0  0  0  0  0  0
    0.2804    8.0806    0.3240 H   0  0  0  0  0  0  0  0  0  0  0  0
    0.4104    8.1571    2.9168 H   0  0  0  0  0  0  0  0  0  0  0  0
    2.2122    8.1907    2.7458 H   0  0  0  0  0  0  0  0  0  0  0  0
    0.2556   10.4242    1.8575 H   0  0  0  0  0  0  0  0  0  0  0  0
    1.9959   11.9117    2.1783 H   0  0  0  0  0  0  0  0  0  0  0  0
    3.9660    9.6112    2.2009 H   0  0  0  0  0  0  0  0  0  0  0  0
    4.2728   11.3951    2.4483 H   0  0  0  0  0  0  0  0  0  0  0  0
    2.9686   10.5157    4.8588 H   0  0  0  0  0  0  0  0  0  0  0  0
    4.9045    9.8019    5.9211 H   0  0  0  0  0  0  0  0  0  0  0  0
    6.4362   10.1663    3.3047 H   0  0  0  0  0  0  0  0  0  0  0  0
    7.0710    9.6825    4.9366 H   0  0  0  0  0  0  0  0  0  0  0  0
    5.3905    7.6524    3.3614 H   0  0  0  0  0  0  0  0  0  0  0  0
    7.2209    6.2261    3.4114 H   0  0  0  0  0  0  0  0  0  0  0  0
    9.2504    8.2739    3.6112 H   0  0  0  0  0  0  0  0  0  0  0  0
    8.6629    8.0246    5.3076 H   0  0  0  0  0  0  0  0  0  0  0  0
    9.7935    6.0876    5.5011 H   0  0  0  0  0  0  0  0  0  0  0  0
    9.1283    5.4703    3.9509 H   0  0  0  0  0  0  0  0  0  0  0  0
   10.6062    6.4912    3.9509 H   0  0  0  0  0  0  0  0  0  0  0  0
  1  2  2  0
  1  3  1  0
  1  4  1  0
  4  5  1  0
  5  6  1  0
  6  7  2  0
  7  8  1  0
  8  9  1  0
  9 10  2  0
 10 11  1  0
 11 12  1  0
 12 13  2  0
 13 14  1  0
 14 15  1  0
 15 16  2  0
 16 17  1  0
 17 18  1  0
 18 19  2  0
 19 20  1  0
 20 21  1  0
 21 22  2  0
 22 23  1  0
 23 24  1  0
  3 25  1  0
  4 26  1  0
  4 27  1  0
  5 28  1  0
  5 29  1  0
  6 30  1  0
  7 31  1  0
  8 32  1  0
  8 33  1  0
  9 34  1  0
 10 35  1  0
 11 36  1  0
 11 37  1  0
 12 38  1  0
 13 39  1  0
 14 40  1  0
 14 41  1  0
 15 42  1  0
 16 43  1  0
 17 44  1  0
 17 45  1  0
 18 46  1  0
 19 47  1  0
 20 48  1  0
 20 49  1  0
 21 50  1  0
 22 51  1  0
 23 52  1  0
 23 53  1  0
 24 54  1  0
 24 55  1  0
 24 56  1  0
A    1
C1
A    2
O1
A    3
O2
A    4
C2
A    5
C3
A    6
C4
A    7
C5
A    8
C6
A    9
C7
A   10
C8
A   11
C9
A   12
C10
A   13
C11
A   14
C12
A   15
C13
A   16
C14
A   17
C15
A   18
C16
A   19
C17
A   20
C18
A   21
C19
A   22
C20
A   23
C21
A   24
C22
M  END
