1FEL_FEN_A_184
     RDKit          3D

 62 63  0  0  0  0  0  0  0  0999 V2000
   29.7800   21.0980   45.2060 C   0  0  0  0  0  0  0  0  0  0  0  0
   29.7480   21.2660   43.6890 C   0  0  0  0  0  0  0  0  0  0  0  0
   29.7110   19.9040   43.0410 C   0  0  0  0  0  0  0  0  0  0  0  0
   31.1250   19.4390   43.1440 C   0  0  0  0  0  0  0  0  0  0  0  0
   31.4600   19.3350   44.6300 C   0  0  0  0  0  0  0  0  0  0  0  0
   30.4970   19.7410   45.5170 C   0  0  0  0  0  0  0  0  0  0  0  0
   30.5380   19.4970   46.9440 C   0  0  0  0  0  0  0  0  0  0  0  0
   31.6860   19.3430   47.6850 C   0  0  0  0  0  0  0  0  0  0  0  0
   31.7220   19.1650   49.1370 C   0  0  0  0  0  0  0  0  0  0  0  0
   32.9670   19.0730   49.6650 C   0  0  0  0  0  0  0  0  0  0  0  0
   33.3290   18.8500   51.0780 C   0  0  0  0  0  0  0  0  0  0  0  0
   34.6280   18.6400   51.4470 C   0  0  0  0  0  0  0  0  0  0  0  0
   35.0420   18.6420   52.8300 C   0  0  0  0  0  0  0  0  0  0  0  0
   36.3600   18.3450   53.1990 C   0  0  0  0  0  0  0  0  0  0  0  0
   36.8230   18.2890   54.6160 C   0  0  0  0  0  0  0  0  0  0  0  0
   28.5270   21.4670   46.0520 C   0  0  0  0  0  0  0  0  0  0  0  0
   30.7450   22.1590   45.7020 C   0  0  0  0  0  0  0  0  0  0  0  0
   32.2060   18.0170   44.9120 C   0  0  0  0  0  0  0  0  0  0  0  0
   30.4940   19.6290   49.9570 C   0  0  0  0  0  0  0  0  0  0  0  0
   33.9950   19.0050   53.8390 C   0  0  0  0  0  0  0  0  0  0  0  0
   38.4300   18.6370   56.3130 C   0  0  0  0  0  0  0  0  0  0  0  0
   38.8100   19.3570   57.4730 C   0  0  0  0  0  0  0  0  0  0  0  0
   39.6830   18.8480   58.4460 C   0  0  0  0  0  0  0  0  0  0  0  0
   40.2220   17.5770   58.3050 C   0  0  0  0  0  0  0  0  0  0  0  0
   39.8840   16.8490   57.1800 C   0  0  0  0  0  0  0  0  0  0  0  0
   38.9940   17.3620   56.1980 C   0  0  0  0  0  0  0  0  0  0  0  0
   36.4150   16.9920   54.6620 O   0  0  0  0  0  0  0  0  0  0  0  0
   37.5720   19.1520   55.3590 N   0  0  0  0  0  0  0  0  0  0  0  0
   41.0060   17.0890   59.2680 O   0  0  0  0  0  0  0  0  0  0  0  0
   28.8522   21.8354   43.4005 H   0  0  0  0  0  0  0  0  0  0  0  0
   30.6453   21.8092   43.3578 H   0  0  0  0  0  0  0  0  0  0  0  0
   29.0330   19.2279   43.5824 H   0  0  0  0  0  0  0  0  0  0  0  0
   29.3393   19.9286   42.0060 H   0  0  0  0  0  0  0  0  0  0  0  0
   31.2341   18.4555   42.6635 H   0  0  0  0  0  0  0  0  0  0  0  0
   31.8044   20.1416   42.6392 H   0  0  0  0  0  0  0  0  0  0  0  0
   29.5774   19.4297   47.4757 H   0  0  0  0  0  0  0  0  0  0  0  0
   32.6459   19.3544   47.1479 H   0  0  0  0  0  0  0  0  0  0  0  0
   33.8040   19.1765   48.9587 H   0  0  0  0  0  0  0  0  0  0  0  0
   32.5414   18.8528   51.8459 H   0  0  0  0  0  0  0  0  0  0  0  0
   35.3819   18.4639   50.6656 H   0  0  0  0  0  0  0  0  0  0  0  0
   37.0915   18.1426   52.4028 H   0  0  0  0  0  0  0  0  0  0  0  0
   28.7726   21.3947   47.1218 H   0  0  0  0  0  0  0  0  0  0  0  0
   28.2151   22.4951   45.8161 H   0  0  0  0  0  0  0  0  0  0  0  0
   27.7076   20.7720   45.8161 H   0  0  0  0  0  0  0  0  0  0  0  0
   30.7501   22.1646   46.8020 H   0  0  0  0  0  0  0  0  0  0  0  0
   31.7566   21.9364   45.3318 H   0  0  0  0  0  0  0  0  0  0  0  0
   30.4278   23.1451   45.3318 H   0  0  0  0  0  0  0  0  0  0  0  0
   32.2900   17.8685   45.9987 H   0  0  0  0  0  0  0  0  0  0  0  0
   31.6487   17.1783   44.4693 H   0  0  0  0  0  0  0  0  0  0  0  0
   33.2119   18.0631   44.4693 H   0  0  0  0  0  0  0  0  0  0  0  0
   30.7171   19.5447   51.0308 H   0  0  0  0  0  0  0  0  0  0  0  0
   30.2636   20.6762   49.7115 H   0  0  0  0  0  0  0  0  0  0  0  0
   29.6286   18.9959   49.7115 H   0  0  0  0  0  0  0  0  0  0  0  0
   34.3985   18.8651   54.8527 H   0  0  0  0  0  0  0  0  0  0  0  0
   33.7032   20.0568   53.7024 H   0  0  0  0  0  0  0  0  0  0  0  0
   33.1148   18.3596   53.7024 H   0  0  0  0  0  0  0  0  0  0  0  0
   38.3992   20.3671   57.6179 H   0  0  0  0  0  0  0  0  0  0  0  0
   39.9412   19.4585   59.3238 H   0  0  0  0  0  0  0  0  0  0  0  0
   40.3150   15.8465   57.0411 H   0  0  0  0  0  0  0  0  0  0  0  0
   38.7423   16.7410   55.3257 H   0  0  0  0  0  0  0  0  0  0  0  0
   37.5001   20.1690   55.2125 H   0  0  0  0  0  0  0  0  0  0  0  0
   40.7715   17.2350   60.2187 H   0  0  0  0  0  0  0  0  0  0  0  0
  1  2  1  0
  1  6  1  0
  1 16  1  0
  1 17  1  0
  2  3  1  0
  3  4  1  0
  4  5  1  0
  5  6  2  0
  5 18  1  0
  6  7  1  0
  7  8  2  0
  8  9  1  0
  9 10  2  0
  9 19  1  0
 10 11  1  0
 11 12  2  0
 12 13  1  0
 13 14  2  0
 13 20  1  0
 14 15  1  0
 15 27  2  0
 15 28  1  0
 21 22  2  0
 21 26  1  0
 21 28  1  0
 22 23  1  0
 23 24  2  0
 24 25  1  0
 24 29  1  0
 25 26  2  0
  2 30  1  0
  2 31  1  0
  3 32  1  0
  3 33  1  0
  4 34  1  0
  4 35  1  0
  7 36  1  0
  8 37  1  0
 10 38  1  0
 11 39  1  0
 12 40  1  0
 14 41  1  0
 16 42  1  0
 16 43  1  0
 16 44  1  0
 17 45  1  0
 17 46  1  0
 17 47  1  0
 18 48  1  0
 18 49  1  0
 18 50  1  0
 19 51  1  0
 19 52  1  0
 19 53  1  0
 20 54  1  0
 20 55  1  0
 20 56  1  0
 22 57  1  0
 23 58  1  0
 25 59  1  0
 26 60  1  0
 28 61  1  0
 29 62  1  0
A    1
C1
A    2
C2
A    3
C3
A    4
C4
A    5
C5
A    6
C6
A    7
C7
A    8
C8
A    9
C9
A   10
C10
A   11
C11
A   12
C12
A   13
C13
A   14
C14
A   15
C15
A   16
C16
A   17
C17
A   18
C18
A   19
C19
A   20
C20
A   21
C1'
A   22
C2'
A   23
C3'
A   24
C4'
A   25
C5'
A   26
C6'
A   27
O
A   28
N
A   29
O4'
M  END
