1FGI_SU1_A_1001
     RDKit          3D

 38 40  0  0  0  0  0  0  0  0999 V2000
    5.7320    2.1500   20.4400 N   0  0  0  0  0  0  0  0  0  0  0  0
    6.5130    2.4730   21.5170 C   0  0  0  0  0  0  0  0  0  0  0  0
    6.4480    1.8200   22.5560 O   0  0  0  0  0  0  0  0  0  0  0  0
    7.3090    3.5360   21.2270 C   0  0  0  0  0  0  0  0  0  0  0  0
    7.4410    4.9330   19.0220 C   0  0  0  0  0  0  0  0  0  0  0  0
    6.8970    5.0140   17.7340 C   0  0  0  0  0  0  0  0  0  0  0  0
    5.9110    4.0990   17.3010 C   0  0  0  0  0  0  0  0  0  0  0  0
    5.4480    3.1030   18.1220 C   0  0  0  0  0  0  0  0  0  0  0  0
    5.9940    3.0250   19.4180 C   0  0  0  0  0  0  0  0  0  0  0  0
    6.9850    3.9220   19.8820 C   0  0  0  0  0  0  0  0  0  0  0  0
    8.3610    4.1930   22.1030 C   0  0  0  0  0  0  0  0  0  0  0  0
    8.4470    2.6740   24.1080 N   0  0  0  0  0  0  0  0  0  0  0  0
    8.9240    3.7030   23.4050 C   0  0  0  0  0  0  0  0  0  0  0  0
    9.9880    4.2570   24.0490 C   0  0  0  0  0  0  0  0  0  0  0  0
   10.1990    3.5000   25.1750 C   0  0  0  0  0  0  0  0  0  0  0  0
    9.2110    2.5460   25.1870 C   0  0  0  0  0  0  0  0  0  0  0  0
   11.2890    3.7210   26.2330 C   0  0  0  0  0  0  0  0  0  0  0  0
   10.8120    5.4240   23.5350 C   0  0  0  0  0  0  0  0  0  0  0  0
   11.7120    4.9870   22.4300 C   0  0  0  0  0  0  0  0  0  0  0  0
   12.4730    6.1130   21.7160 C   0  0  0  0  0  0  0  0  0  0  0  0
   11.9370    7.2490   21.5710 O   0  0  0  0  0  0  0  0  0  0  0  0
   13.6100    5.8150   21.2600 O   0  0  0  0  0  0  0  0  0  0  0  0
    5.0559    1.3738   20.4035 H   0  0  0  0  0  0  0  0  0  0  0  0
    8.2097    5.6470   19.3527 H   0  0  0  0  0  0  0  0  0  0  0  0
    7.2426    5.8021   17.0488 H   0  0  0  0  0  0  0  0  0  0  0  0
    5.5057    4.1877   16.2823 H   0  0  0  0  0  0  0  0  0  0  0  0
    4.6801    2.3927   17.7817 H   0  0  0  0  0  0  0  0  0  0  0  0
    8.7614    5.1498   21.7367 H   0  0  0  0  0  0  0  0  0  0  0  0
    7.6370    2.0880   23.8601 H   0  0  0  0  0  0  0  0  0  0  0  0
    9.0730    1.7889   25.9729 H   0  0  0  0  0  0  0  0  0  0  0  0
   10.8488    3.6318   27.2371 H   0  0  0  0  0  0  0  0  0  0  0  0
   12.0781    2.9646   26.1100 H   0  0  0  0  0  0  0  0  0  0  0  0
   11.7212    4.7250   26.1100 H   0  0  0  0  0  0  0  0  0  0  0  0
   10.1356    6.2070   23.1616 H   0  0  0  0  0  0  0  0  0  0  0  0
   11.4274    5.8129   24.3596 H   0  0  0  0  0  0  0  0  0  0  0  0
   12.4524    4.2907   22.8507 H   0  0  0  0  0  0  0  0  0  0  0  0
   11.0597    4.5326   21.6697 H   0  0  0  0  0  0  0  0  0  0  0  0
   14.3564    5.6194   21.8803 H   0  0  0  0  0  0  0  0  0  0  0  0
  1  2  1  0
  1  9  1  0
  2  3  2  0
  2  4  1  0
  4 10  1  0
  4 11  2  0
  5  6  1  0
  5 10  2  0
  6  7  2  0
  7  8  1  0
  8  9  2  0
  9 10  1  0
 11 13  1  0
 12 13  1  0
 12 16  1  0
 13 14  2  0
 14 15  1  0
 14 18  1  0
 15 16  2  0
 15 17  1  0
 18 19  1  0
 19 20  1  0
 20 21  2  0
 20 22  1  0
  1 23  1  0
  5 24  1  0
  6 25  1  0
  7 26  1  0
  8 27  1  0
 11 28  1  0
 12 29  1  0
 16 30  1  0
 17 31  1  0
 17 32  1  0
 17 33  1  0
 18 34  1  0
 18 35  1  0
 19 36  1  0
 19 37  1  0
 22 38  1  0
A    1
N1
A    2
C2
A    3
O2
A    4
C3
A    5
C4
A    6
C5
A    7
C6
A    8
C7
A    9
C8
A   10
C9
A   11
C10
A   12
N1'
A   13
C2'
A   14
C3'
A   15
C4'
A   16
C5'
A   17
C11
A   18
C12
A   19
C13
A   20
C14
A   21
O3
A   22
O4
M  END
