1FHV_OSB_A_789
     RDKit          3D

 26 26  0  0  0  0  0  0  0  0999 V2000
   30.5070  -20.8760   42.5330 O   0  0  0  0  0  0  0  0  0  0  0  0
   30.1080  -22.8100   43.4250 O   0  0  0  0  0  0  0  0  0  0  0  0
   29.7680  -21.6370   43.1860 C   0  0  0  0  0  0  0  0  0  0  0  0
   26.4770  -19.9990   44.0230 C   0  0  0  0  0  0  0  0  0  0  0  0
   26.5930  -19.7910   45.3940 C   0  0  0  0  0  0  0  0  0  0  0  0
   27.7570  -20.1980   46.0450 C   0  0  0  0  0  0  0  0  0  0  0  0
   28.8040  -20.8010   45.3380 C   0  0  0  0  0  0  0  0  0  0  0  0
   28.6980  -21.0140   43.9620 C   0  0  0  0  0  0  0  0  0  0  0  0
   27.5240  -20.6050   43.3270 C   0  0  0  0  0  0  0  0  0  0  0  0
   27.3300  -20.8060   41.9150 C   0  0  0  0  0  0  0  0  0  0  0  0
   25.9210  -20.2450   41.6750 C   0  0  0  0  0  0  0  0  0  0  0  0
   28.0720  -21.3200   41.0670 O   0  0  0  0  0  0  0  0  0  0  0  0
   25.4550  -20.3900   40.2310 C   0  0  0  0  0  0  0  0  0  0  0  0
   26.4830  -20.0080   39.1570 C   0  0  0  0  0  0  0  0  0  0  0  0
   26.3460  -20.5650   38.0620 O   0  0  0  0  0  0  0  0  0  0  0  0
   27.5280  -19.3880   39.4140 O   0  0  0  0  0  0  0  0  0  0  0  0
   31.1138  -20.2512   43.0036 H   0  0  0  0  0  0  0  0  0  0  0  0
   25.5658  -19.6878   43.4911 H   0  0  0  0  0  0  0  0  0  0  0  0
   25.7778  -19.3122   45.9564 H   0  0  0  0  0  0  0  0  0  0  0  0
   27.8539  -20.0430   47.1297 H   0  0  0  0  0  0  0  0  0  0  0  0
   29.7162  -21.1091   45.8699 H   0  0  0  0  0  0  0  0  0  0  0  0
   25.2153  -20.7821   42.3257 H   0  0  0  0  0  0  0  0  0  0  0  0
   25.9546  -19.1690   41.9012 H   0  0  0  0  0  0  0  0  0  0  0  0
   25.1740  -21.4414   40.0708 H   0  0  0  0  0  0  0  0  0  0  0  0
   24.6216  -19.6818   40.1129 H   0  0  0  0  0  0  0  0  0  0  0  0
   27.7919  -19.2314   40.3552 H   0  0  0  0  0  0  0  0  0  0  0  0
  1  3  1  0
  2  3  2  0
  3  8  1  0
  4  5  2  0
  4  9  1  0
  5  6  1  0
  6  7  2  0
  7  8  1  0
  8  9  2  0
  9 10  1  0
 10 11  1  0
 10 12  2  0
 11 13  1  0
 13 14  1  0
 14 15  2  0
 14 16  1  0
  1 17  1  0
  4 18  1  0
  5 19  1  0
  6 20  1  0
  7 21  1  0
 11 22  1  0
 11 23  1  0
 13 24  1  0
 13 25  1  0
 16 26  1  0
A    1
O1
A    2
O2
A    3
C7
A    4
C6
A    5
C5
A    6
C4
A    7
C3
A    8
C2
A    9
C1
A   10
C8
A   11
C9
A   12
O3
A   13
C10
A   14
C11
A   15
O4
A   16
O5
M  END
