1FKG_SB3_A_108
     RDKit          3D

 68 70  0  0  0  0  0  0  0  0999 V2000
  -24.9690   27.3480    4.2710 C   0  0  0  0  0  0  0  0  0  0  0  0
  -25.7480   26.0540    3.9610 C   0  0  0  0  0  0  0  0  0  0  0  0
  -25.3870   25.4230    2.6200 C   0  0  0  0  0  0  0  0  0  0  0  0
  -25.7890   26.2160    1.3830 C   0  0  0  0  0  0  0  0  0  0  0  0
  -27.2970   26.3700    1.3880 C   0  0  0  0  0  0  0  0  0  0  0  0
  -27.6570   26.9830    2.7430 C   0  0  0  0  0  0  0  0  0  0  0  0
  -27.2020   26.1280    3.8840 N   0  0  0  0  0  0  0  0  0  0  0  0
  -23.8060   27.4770    3.9930 O   0  0  0  0  0  0  0  0  0  0  0  0
  -25.6770   28.3360    4.7790 O   0  0  0  0  0  0  0  0  0  0  0  0
  -27.9480   25.8960    4.9870 C   0  0  0  0  0  0  0  0  0  0  0  0
  -27.3890   25.4260    5.9800 O   0  0  0  0  0  0  0  0  0  0  0  0
  -29.4780   26.0970    5.0560 C   0  0  0  0  0  0  0  0  0  0  0  0
  -30.2030   25.2860    4.4680 O   0  0  0  0  0  0  0  0  0  0  0  0
  -30.1130   27.1930    5.9250 C   0  0  0  0  0  0  0  0  0  0  0  0
  -29.6180   28.5640    5.5010 C   0  0  0  0  0  0  0  0  0  0  0  0
  -30.1120   29.0070    4.1070 C   0  0  0  0  0  0  0  0  0  0  0  0
  -29.7510   27.0540    7.4480 C   0  0  0  0  0  0  0  0  0  0  0  0
  -31.6540   27.2080    5.8160 C   0  0  0  0  0  0  0  0  0  0  0  0
  -25.1340   29.6560    4.9600 C   0  0  0  0  0  0  0  0  0  0  0  0
  -24.5940   29.7240    6.3920 C   0  0  0  0  0  0  0  0  0  0  0  0
  -23.7130   30.9140    6.7670 C   0  0  0  0  0  0  0  0  0  0  0  0
  -22.5240   30.5570    7.6390 C   0  0  0  0  0  0  0  0  0  0  0  0
  -22.6260   30.6130    8.9560 C   0  0  0  0  0  0  0  0  0  0  0  0
  -21.7020   30.0690    9.7210 C   0  0  0  0  0  0  0  0  0  0  0  0
  -20.6520   29.4650    9.1790 C   0  0  0  0  0  0  0  0  0  0  0  0
  -20.5310   29.4190    7.8660 C   0  0  0  0  0  0  0  0  0  0  0  0
  -21.4660   29.9720    7.1020 C   0  0  0  0  0  0  0  0  0  0  0  0
  -26.2810   30.6540    4.6780 C   0  0  0  0  0  0  0  0  0  0  0  0
  -26.4530   31.0880    3.4270 C   0  0  0  0  0  0  0  0  0  0  0  0
  -27.3790   31.9840    3.1360 C   0  0  0  0  0  0  0  0  0  0  0  0
  -28.1560   32.4590    4.0980 C   0  0  0  0  0  0  0  0  0  0  0  0
  -28.0050   32.0380    5.3480 C   0  0  0  0  0  0  0  0  0  0  0  0
  -27.0750   31.1380    5.6430 C   0  0  0  0  0  0  0  0  0  0  0  0
  -25.4389   25.4776    4.8454 H   0  0  0  0  0  0  0  0  0  0  0  0
  -24.2957   25.2877    2.5939 H   0  0  0  0  0  0  0  0  0  0  0  0
  -25.9565   24.4832    2.5698 H   0  0  0  0  0  0  0  0  0  0  0  0
  -25.3134   27.2076    1.4057 H   0  0  0  0  0  0  0  0  0  0  0  0
  -25.4639   25.6907    0.4729 H   0  0  0  0  0  0  0  0  0  0  0  0
  -27.6155   27.0349    0.5716 H   0  0  0  0  0  0  0  0  0  0  0  0
  -27.8000   25.4033    1.2381 H   0  0  0  0  0  0  0  0  0  0  0  0
  -27.1773   27.9695    2.8252 H   0  0  0  0  0  0  0  0  0  0  0  0
  -28.7524   27.0673    2.7974 H   0  0  0  0  0  0  0  0  0  0  0  0
  -29.9643   29.3007    6.2408 H   0  0  0  0  0  0  0  0  0  0  0  0
  -28.5211   28.5029    5.4451 H   0  0  0  0  0  0  0  0  0  0  0  0
  -30.9265   29.7374    4.2217 H   0  0  0  0  0  0  0  0  0  0  0  0
  -29.2811   29.4683    3.5531 H   0  0  0  0  0  0  0  0  0  0  0  0
  -30.4804   28.1310    3.5531 H   0  0  0  0  0  0  0  0  0  0  0  0
  -30.6048   27.3818    8.0592 H   0  0  0  0  0  0  0  0  0  0  0  0
  -29.5194   26.0030    7.6754 H   0  0  0  0  0  0  0  0  0  0  0  0
  -28.8755   27.6799    7.6754 H   0  0  0  0  0  0  0  0  0  0  0  0
  -32.0929   27.2123    6.8246 H   0  0  0  0  0  0  0  0  0  0  0  0
  -31.9744   28.1093    5.2729 H   0  0  0  0  0  0  0  0  0  0  0  0
  -31.9919   26.3131    5.2729 H   0  0  0  0  0  0  0  0  0  0  0  0
  -24.3039   29.9025    4.2816 H   0  0  0  0  0  0  0  0  0  0  0  0
  -25.4609   29.7317    7.0691 H   0  0  0  0  0  0  0  0  0  0  0  0
  -23.9305   28.8509    6.4787 H   0  0  0  0  0  0  0  0  0  0  0  0
  -23.3361   31.3700    5.8396 H   0  0  0  0  0  0  0  0  0  0  0  0
  -24.3412   31.5998    7.3544 H   0  0  0  0  0  0  0  0  0  0  0  0
  -23.4885   31.1174    9.4161 H   0  0  0  0  0  0  0  0  0  0  0  0
  -21.8013   30.1156   10.8155 H   0  0  0  0  0  0  0  0  0  0  0  0
  -19.8864   29.0050    9.8212 H   0  0  0  0  0  0  0  0  0  0  0  0
  -19.6614   28.9258    7.4071 H   0  0  0  0  0  0  0  0  0  0  0  0
  -21.3592   29.9432    6.0076 H   0  0  0  0  0  0  0  0  0  0  0  0
  -25.8125   30.6926    2.6249 H   0  0  0  0  0  0  0  0  0  0  0  0
  -27.5042   32.3337    2.1006 H   0  0  0  0  0  0  0  0  0  0  0  0
  -28.9289   33.2047    3.8603 H   0  0  0  0  0  0  0  0  0  0  0  0
  -28.6531   32.4366    6.1424 H   0  0  0  0  0  0  0  0  0  0  0  0
  -26.9560   30.7895    6.6795 H   0  0  0  0  0  0  0  0  0  0  0  0
  1  2  1  0
  1  8  2  0
  1  9  1  0
  2  3  1  0
  2  7  1  0
  3  4  1  0
  4  5  1  0
  5  6  1  0
  6  7  1  0
  7 10  1  0
  9 19  1  0
 10 11  2  0
 10 12  1  0
 12 13  2  0
 12 14  1  0
 14 15  1  0
 14 17  1  0
 14 18  1  0
 15 16  1  0
 19 20  1  0
 19 28  1  0
 20 21  1  0
 21 22  1  0
 22 23  2  0
 22 27  1  0
 23 24  1  0
 24 25  2  0
 25 26  1  0
 26 27  2  0
 28 29  2  0
 28 33  1  0
 29 30  1  0
 30 31  2  0
 31 32  1  0
 32 33  2  0
  2 34  1  0
  3 35  1  0
  3 36  1  0
  4 37  1  0
  4 38  1  0
  5 39  1  0
  5 40  1  0
  6 41  1  0
  6 42  1  0
 15 43  1  0
 15 44  1  0
 16 45  1  0
 16 46  1  0
 16 47  1  0
 17 48  1  0
 17 49  1  0
 17 50  1  0
 18 51  1  0
 18 52  1  0
 18 53  1  0
 19 54  1  0
 20 55  1  0
 20 56  1  0
 21 57  1  0
 21 58  1  0
 23 59  1  0
 24 60  1  0
 25 61  1  0
 26 62  1  0
 27 63  1  0
 29 64  1  0
 30 65  1  0
 31 66  1  0
 32 67  1  0
 33 68  1  0
A    1
C1
A    2
C2
A    3
C3
A    4
C4
A    5
C5
A    6
C6
A    7
N7
A    8
O1
A    9
O2
A   10
C8
A   11
O3
A   12
C9
A   13
O4
A   14
C10
A   15
C11
A   16
C12
A   17
C13
A   18
C14
A   19
C15
A   20
C16
A   21
C17
A   22
C18
A   23
C19
A   24
C20
A   25
C21
A   26
C22
A   27
C23
A   28
C24
A   29
C25
A   30
C26
A   31
C27
A   32
C28
A   33
C29
M  END
