1FKH_SBX_A_108
     RDKit          3D

 74 76  0  0  0  0  0  0  0  0999 V2000
  -24.9340   27.2020   42.8060 C   0  0  0  0  0  0  0  0  0  0  0  0
  -25.8490   25.9980   42.6170 C   0  0  0  0  0  0  0  0  0  0  0  0
  -25.4910   25.2720   41.3250 C   0  0  0  0  0  0  0  0  0  0  0  0
  -25.9240   26.0310   40.0820 C   0  0  0  0  0  0  0  0  0  0  0  0
  -27.4350   26.1960   40.2140 C   0  0  0  0  0  0  0  0  0  0  0  0
  -27.7860   26.9930   41.4600 C   0  0  0  0  0  0  0  0  0  0  0  0
  -27.3020   26.1860   42.5850 N   0  0  0  0  0  0  0  0  0  0  0  0
  -23.7450   27.1250   42.5220 O   0  0  0  0  0  0  0  0  0  0  0  0
  -25.5560   28.2700   43.2910 O   0  0  0  0  0  0  0  0  0  0  0  0
  -28.0550   25.7940   43.6310 C   0  0  0  0  0  0  0  0  0  0  0  0
  -27.4850   25.3040   44.6070 O   0  0  0  0  0  0  0  0  0  0  0  0
  -29.5750   25.8160   43.6950 C   0  0  0  0  0  0  0  0  0  0  0  0
  -30.1390   24.8210   43.2360 O   0  0  0  0  0  0  0  0  0  0  0  0
  -30.3880   26.9080   44.3810 C   0  0  0  0  0  0  0  0  0  0  0  0
  -29.5400   27.9890   45.0370 C   0  0  0  0  0  0  0  0  0  0  0  0
  -28.8970   27.5870   46.3970 C   0  0  0  0  0  0  0  0  0  0  0  0
  -31.2800   26.2970   45.4140 C   0  0  0  0  0  0  0  0  0  0  0  0
  -31.3790   27.5520   43.4570 C   0  0  0  0  0  0  0  0  0  0  0  0
  -24.9120   29.5760   43.3480 C   0  0  0  0  0  0  0  0  0  0  0  0
  -24.3810   29.8820   44.7400 C   0  0  0  0  0  0  0  0  0  0  0  0
  -23.0100   30.5460   44.7480 C   0  0  0  0  0  0  0  0  0  0  0  0
  -22.0150   30.2050   45.8310 C   0  0  0  0  0  0  0  0  0  0  0  0
  -22.3100   30.4470   47.1010 C   0  0  0  0  0  0  0  0  0  0  0  0
  -21.5290   30.0090   48.0710 C   0  0  0  0  0  0  0  0  0  0  0  0
  -20.4390   29.3310   47.7650 C   0  0  0  0  0  0  0  0  0  0  0  0
  -20.1320   29.1030   46.5020 C   0  0  0  0  0  0  0  0  0  0  0  0
  -20.9170   29.5410   45.5370 C   0  0  0  0  0  0  0  0  0  0  0  0
  -25.9190   30.6340   42.9670 C   0  0  0  0  0  0  0  0  0  0  0  0
  -26.1710   30.8150   41.4870 C   0  0  0  0  0  0  0  0  0  0  0  0
  -26.9240   32.1030   41.3520 C   0  0  0  0  0  0  0  0  0  0  0  0
  -28.2300   32.0540   42.1330 C   0  0  0  0  0  0  0  0  0  0  0  0
  -28.0190   31.8070   43.6120 C   0  0  0  0  0  0  0  0  0  0  0  0
  -27.2150   30.5180   43.7580 C   0  0  0  0  0  0  0  0  0  0  0  0
  -25.6537   25.4456   43.5480 H   0  0  0  0  0  0  0  0  0  0  0  0
  -24.4002   25.1343   41.2902 H   0  0  0  0  0  0  0  0  0  0  0  0
  -26.0246   24.3101   41.3276 H   0  0  0  0  0  0  0  0  0  0  0  0
  -25.4317   27.0138   40.0402 H   0  0  0  0  0  0  0  0  0  0  0  0
  -25.6497   25.4970   39.1603 H   0  0  0  0  0  0  0  0  0  0  0  0
  -27.8185   26.7241   39.3286 H   0  0  0  0  0  0  0  0  0  0  0  0
  -27.8922   25.1987   40.2939 H   0  0  0  0  0  0  0  0  0  0  0  0
  -27.2852   27.9723   41.4447 H   0  0  0  0  0  0  0  0  0  0  0  0
  -28.8661   27.1889   41.5307 H   0  0  0  0  0  0  0  0  0  0  0  0
  -28.7299   28.2556   44.3422 H   0  0  0  0  0  0  0  0  0  0  0  0
  -30.2218   28.8244   45.2546 H   0  0  0  0  0  0  0  0  0  0  0  0
  -29.5136   27.9725   47.2223 H   0  0  0  0  0  0  0  0  0  0  0  0
  -28.8377   26.4907   46.4647 H   0  0  0  0  0  0  0  0  0  0  0  0
  -27.8854   28.0138   46.4647 H   0  0  0  0  0  0  0  0  0  0  0  0
  -30.9077   26.5520   46.4172 H   0  0  0  0  0  0  0  0  0  0  0  0
  -32.3018   26.6857   45.2924 H   0  0  0  0  0  0  0  0  0  0  0  0
  -31.2867   25.2038   45.2924 H   0  0  0  0  0  0  0  0  0  0  0  0
  -32.1568   28.0575   44.0482 H   0  0  0  0  0  0  0  0  0  0  0  0
  -30.8640   28.2885   42.8226 H   0  0  0  0  0  0  0  0  0  0  0  0
  -31.8428   26.7823   42.8226 H   0  0  0  0  0  0  0  0  0  0  0  0
  -24.0617   29.5694   42.6501 H   0  0  0  0  0  0  0  0  0  0  0  0
  -25.0933   30.5532   45.2421 H   0  0  0  0  0  0  0  0  0  0  0  0
  -24.2706   28.9177   45.2576 H   0  0  0  0  0  0  0  0  0  0  0  0
  -22.5320   30.3003   43.7882 H   0  0  0  0  0  0  0  0  0  0  0  0
  -23.2414   31.6041   44.9398 H   0  0  0  0  0  0  0  0  0  0  0  0
  -23.2160   31.0194   47.3491 H   0  0  0  0  0  0  0  0  0  0  0  0
  -21.7840   30.2070   49.1226 H   0  0  0  0  0  0  0  0  0  0  0  0
  -19.7844   28.9548   48.5650 H   0  0  0  0  0  0  0  0  0  0  0  0
  -19.2173   28.5451   46.2530 H   0  0  0  0  0  0  0  0  0  0  0  0
  -20.6541   29.3514   44.4858 H   0  0  0  0  0  0  0  0  0  0  0  0
  -25.4202   31.5692   43.2613 H   0  0  0  0  0  0  0  0  0  0  0  0
  -25.2178   30.8702   40.9407 H   0  0  0  0  0  0  0  0  0  0  0  0
  -26.7379   29.9705   41.0681 H   0  0  0  0  0  0  0  0  0  0  0  0
  -26.3037   32.9249   41.7389 H   0  0  0  0  0  0  0  0  0  0  0  0
  -27.1564   32.2642   40.2890 H   0  0  0  0  0  0  0  0  0  0  0  0
  -28.7509   33.0147   42.0077 H   0  0  0  0  0  0  0  0  0  0  0  0
  -28.8216   31.2151   41.7377 H   0  0  0  0  0  0  0  0  0  0  0  0
  -27.4645   32.6466   44.0565 H   0  0  0  0  0  0  0  0  0  0  0  0
  -28.9858   31.7183   44.1292 H   0  0  0  0  0  0  0  0  0  0  0  0
  -27.8046   29.6728   43.3733 H   0  0  0  0  0  0  0  0  0  0  0  0
  -26.9820   30.3502   44.8199 H   0  0  0  0  0  0  0  0  0  0  0  0
  1  2  1  0
  1  8  2  0
  1  9  1  0
  2  3  1  0
  2  7  1  0
  3  4  1  0
  4  5  1  0
  5  6  1  0
  6  7  1  0
  7 10  1  0
  9 19  1  0
 10 11  2  0
 10 12  1  0
 12 13  2  0
 12 14  1  0
 14 15  1  0
 14 17  1  0
 14 18  1  0
 15 16  1  0
 19 20  1  0
 19 28  1  0
 20 21  1  0
 21 22  1  0
 22 23  2  0
 22 27  1  0
 23 24  1  0
 24 25  2  0
 25 26  1  0
 26 27  2  0
 28 29  1  0
 28 33  1  0
 29 30  1  0
 30 31  1  0
 31 32  1  0
 32 33  1  0
  2 34  1  0
  3 35  1  0
  3 36  1  0
  4 37  1  0
  4 38  1  0
  5 39  1  0
  5 40  1  0
  6 41  1  0
  6 42  1  0
 15 43  1  0
 15 44  1  0
 16 45  1  0
 16 46  1  0
 16 47  1  0
 17 48  1  0
 17 49  1  0
 17 50  1  0
 18 51  1  0
 18 52  1  0
 18 53  1  0
 19 54  1  0
 20 55  1  0
 20 56  1  0
 21 57  1  0
 21 58  1  0
 23 59  1  0
 24 60  1  0
 25 61  1  0
 26 62  1  0
 27 63  1  0
 28 64  1  0
 29 65  1  0
 29 66  1  0
 30 67  1  0
 30 68  1  0
 31 69  1  0
 31 70  1  0
 32 71  1  0
 32 72  1  0
 33 73  1  0
 33 74  1  0
A    1
C1
A    2
C2
A    3
C3
A    4
C4
A    5
C5
A    6
C6
A    7
N7
A    8
O1
A    9
O2
A   10
C8
A   11
O3
A   12
C9
A   13
O4
A   14
C10
A   15
C11
A   16
C12
A   17
C13
A   18
C14
A   19
C15
A   20
C16
A   21
C17
A   22
C18
A   23
C19
A   24
C20
A   25
C21
A   26
C22
A   27
C23
A   28
C24
A   29
C25
A   30
C26
A   31
C27
A   32
C28
A   33
C29
M  END
