1EPB_9CR_A_165
     RDKit          3D

 50 50  0  0  0  0  0  0  0  0999 V2000
   -8.9870   13.7700    7.7090 C   0  0  0  0  0  0  0  0  0  0  0  0
  -10.1220   14.3850    8.5720 C   0  0  0  0  0  0  0  0  0  0  0  0
   -9.6450   15.5450    9.3990 C   0  0  0  0  0  0  0  0  0  0  0  0
   -8.6060   15.0660   10.3840 C   0  0  0  0  0  0  0  0  0  0  0  0
   -7.6080   14.1120    9.7940 C   0  0  0  0  0  0  0  0  0  0  0  0
   -7.7350   13.5520    8.5650 C   0  0  0  0  0  0  0  0  0  0  0  0
   -6.6480   12.6930    8.0930 C   0  0  0  0  0  0  0  0  0  0  0  0
   -6.2300   12.3870    6.8600 C   0  0  0  0  0  0  0  0  0  0  0  0
   -5.1100   11.5100    6.5500 C   0  0  0  0  0  0  0  0  0  0  0  0
   -4.4230   10.9350    7.5620 C   0  0  0  0  0  0  0  0  0  0  0  0
   -3.2480   10.1080    7.4610 C   0  0  0  0  0  0  0  0  0  0  0  0
   -2.5810    9.6380    8.5230 C   0  0  0  0  0  0  0  0  0  0  0  0
   -1.3610    8.8480    8.5040 C   0  0  0  0  0  0  0  0  0  0  0  0
   -0.7880    8.5700    9.6820 C   0  0  0  0  0  0  0  0  0  0  0  0
    0.4150    7.7740    9.9540 C   0  0  0  0  0  0  0  0  0  0  0  0
   -9.5630   12.4310    7.2130 C   0  0  0  0  0  0  0  0  0  0  0  0
   -8.6890   14.6740    6.5110 C   0  0  0  0  0  0  0  0  0  0  0  0
   -6.4390   13.8420   10.7250 C   0  0  0  0  0  0  0  0  0  0  0  0
   -4.7320   11.3130    5.1080 C   0  0  0  0  0  0  0  0  0  0  0  0
   -0.8160    8.4110    7.1810 C   0  0  0  0  0  0  0  0  0  0  0  0
    0.7630    7.8200   11.2270 O   0  0  0  0  0  0  0  0  0  0  0  0
    1.0430    7.1190    9.1350 O   0  0  0  0  0  0  0  0  0  0  0  0
  -10.5148   13.6086    9.2450 H   0  0  0  0  0  0  0  0  0  0  0  0
  -10.9004   14.7562    7.8891 H   0  0  0  0  0  0  0  0  0  0  0  0
  -10.4949   15.9804    9.9450 H   0  0  0  0  0  0  0  0  0  0  0  0
   -9.2030   16.3077    8.7411 H   0  0  0  0  0  0  0  0  0  0  0  0
   -9.1215   14.5599   11.2136 H   0  0  0  0  0  0  0  0  0  0  0  0
   -8.0454   15.9524   10.7158 H   0  0  0  0  0  0  0  0  0  0  0  0
   -6.0711   12.2127    8.8970 H   0  0  0  0  0  0  0  0  0  0  0  0
   -6.7747   12.8325    6.0145 H   0  0  0  0  0  0  0  0  0  0  0  0
   -4.8042   11.1194    8.5772 H   0  0  0  0  0  0  0  0  0  0  0  0
   -2.8787    9.8486    6.4578 H   0  0  0  0  0  0  0  0  0  0  0  0
   -2.9999    9.8743    9.5123 H   0  0  0  0  0  0  0  0  0  0  0  0
   -1.2863    8.9958   10.5654 H   0  0  0  0  0  0  0  0  0  0  0  0
   -9.8322   11.8052    8.0767 H   0  0  0  0  0  0  0  0  0  0  0  0
  -10.4592   12.6205    6.6040 H   0  0  0  0  0  0  0  0  0  0  0  0
   -8.8091   11.9107    6.6040 H   0  0  0  0  0  0  0  0  0  0  0  0
   -8.3634   15.6618    6.8691 H   0  0  0  0  0  0  0  0  0  0  0  0
   -7.8917   14.2239    5.9013 H   0  0  0  0  0  0  0  0  0  0  0  0
   -9.5977   14.7862    5.9013 H   0  0  0  0  0  0  0  0  0  0  0  0
   -6.7762   13.9199   11.7691 H   0  0  0  0  0  0  0  0  0  0  0  0
   -6.0491   12.8302   10.5401 H   0  0  0  0  0  0  0  0  0  0  0  0
   -5.6449   14.5804   10.5401 H   0  0  0  0  0  0  0  0  0  0  0  0
   -3.7579   10.8053    5.0504 H   0  0  0  0  0  0  0  0  0  0  0  0
   -5.4959   10.6983    4.6094 H   0  0  0  0  0  0  0  0  0  0  0  0
   -4.6657   12.2913    4.6094 H   0  0  0  0  0  0  0  0  0  0  0  0
    0.0331    7.7302    7.3410 H   0  0  0  0  0  0  0  0  0  0  0  0
   -1.6020    7.8900    6.6146 H   0  0  0  0  0  0  0  0  0  0  0  0
   -0.4783    9.2915    6.6146 H   0  0  0  0  0  0  0  0  0  0  0  0
    1.6949    6.4391    9.4398 H   0  0  0  0  0  0  0  0  0  0  0  0
 21 15  2  0
 15 14  1  0
 15 22  1  0
 14 13  2  0
 13 12  1  0
 13 20  1  0
 12 11  2  0
 11 10  1  0
 18  5  1  0
 10  9  2  0
  9 19  1  0
  9  8  1  0
  8  7  2  0
  5  4  1  0
  5  6  2  0
  4  3  1  0
  7  6  1  0
  6  1  1  0
  3  2  1  0
  1 17  1  0
  1  2  1  0
  1 16  1  0
  2 23  1  0
  2 24  1  0
  3 25  1  0
  3 26  1  0
  4 27  1  0
  4 28  1  0
  7 29  1  0
  8 30  1  0
 10 31  1  0
 11 32  1  0
 12 33  1  0
 14 34  1  0
 16 35  1  0
 16 36  1  0
 16 37  1  0
 17 38  1  0
 17 39  1  0
 17 40  1  0
 18 41  1  0
 18 42  1  0
 18 43  1  0
 19 44  1  0
 19 45  1  0
 19 46  1  0
 20 47  1  0
 20 48  1  0
 20 49  1  0
 22 50  1  0
A    1
C1
A    2
C2
A    3
C3
A    4
C4
A    5
C5
A    6
C6
A    7
C7
A    8
C8
A    9
C9
A   10
C10
A   11
C11
A   12
C12
A   13
C13
A   14
C14
A   15
C15
A   16
C16
A   17
C17
A   18
C18
A   19
C19
A   20
C20
A   21
O1
A   22
O2
M  END
