1FM8_DDC_A_501
     RDKit          3D

 30 32  0  0  0  0  0  0  0  0999 V2000
   27.7830   18.8480   35.9010 C   0  0  0  0  0  0  0  0  0  0  0  0
   26.3730   18.8500   36.1970 C   0  0  0  0  0  0  0  0  0  0  0  0
   25.4970   19.8160   35.5840 C   0  0  0  0  0  0  0  0  0  0  0  0
   26.0420   20.7960   34.6680 C   0  0  0  0  0  0  0  0  0  0  0  0
   27.4550   20.8210   34.3420 C   0  0  0  0  0  0  0  0  0  0  0  0
   28.3100   19.8370   34.9750 C   0  0  0  0  0  0  0  0  0  0  0  0
   25.1270   21.8310   34.0060 C   0  0  0  0  0  0  0  0  0  0  0  0
   25.8300   22.8120   33.0780 C   0  0  0  0  0  0  0  0  0  0  0  0
   27.0520   22.1670   32.4050 C   0  0  0  0  0  0  0  0  0  0  0  0
   27.9730   21.7510   33.4490 O   0  0  0  0  0  0  0  0  0  0  0  0
   28.5950   17.9340   36.4810 O   0  0  0  0  0  0  0  0  0  0  0  0
   27.7630   23.1460   31.4710 C   0  0  0  0  0  0  0  0  0  0  0  0
   27.3270   24.5250   31.2910 C   0  0  0  0  0  0  0  0  0  0  0  0
   28.0420   25.4060   30.3910 C   0  0  0  0  0  0  0  0  0  0  0  0
   29.1950   24.9320   29.6660 C   0  0  0  0  0  0  0  0  0  0  0  0
   29.6360   23.5700   29.8340 C   0  0  0  0  0  0  0  0  0  0  0  0
   28.9260   22.6870   30.7350 C   0  0  0  0  0  0  0  0  0  0  0  0
   23.9360   21.8820   34.2080 O   0  0  0  0  0  0  0  0  0  0  0  0
   25.9617   18.1078   36.8969 H   0  0  0  0  0  0  0  0  0  0  0  0
   24.4206   19.8090   35.8106 H   0  0  0  0  0  0  0  0  0  0  0  0
   29.3865   19.8385   34.7488 H   0  0  0  0  0  0  0  0  0  0  0  0
   25.1237   23.1387   32.3006 H   0  0  0  0  0  0  0  0  0  0  0  0
   26.1749   23.6687   33.6756 H   0  0  0  0  0  0  0  0  0  0  0  0
   26.7157   21.3109   31.8017 H   0  0  0  0  0  0  0  0  0  0  0  0
   28.6480   17.8744   37.4678 H   0  0  0  0  0  0  0  0  0  0  0  0
   26.4508   24.8984   31.8413 H   0  0  0  0  0  0  0  0  0  0  0  0
   27.7032   26.4442   30.2595 H   0  0  0  0  0  0  0  0  0  0  0  0
   29.7361   25.6075   28.9871 H   0  0  0  0  0  0  0  0  0  0  0  0
   30.5110   23.2020   29.2782 H   0  0  0  0  0  0  0  0  0  0  0  0
   29.2738   21.6514   30.8637 H   0  0  0  0  0  0  0  0  0  0  0  0
  1  2  2  0
  1  6  1  0
  1 11  1  0
  2  3  1  0
  3  4  2  0
  4  5  1  0
  4  7  1  0
  5  6  2  0
  5 10  1  0
  7  8  1  0
  7 18  2  0
  8  9  1  0
  9 10  1  0
  9 12  1  0
 12 13  2  0
 12 17  1  0
 13 14  1  0
 14 15  2  0
 15 16  1  0
 16 17  2  0
  2 19  1  0
  3 20  1  0
  6 21  1  0
  8 22  1  0
  8 23  1  0
  9 24  1  0
 11 25  1  0
 13 26  1  0
 14 27  1  0
 15 28  1  0
 16 29  1  0
 17 30  1  0
A    1
C1
A    2
C2
A    3
C3
A    4
C4
A    5
C5
A    6
C6
A    7
C7
A    8
C8
A    9
C9
A   10
O1
A   11
O2
A   12
C10
A   13
C11
A   14
C12
A   15
C13
A   16
C14
A   17
C15
A   18
O3
M  END
