1FO2_DMJ_A_704
     RDKit          3D

 24 24  0  0  0  0  0  0  0  0999 V2000
   39.0090   40.2680   25.5130 C   0  0  0  0  0  0  0  0  0  0  0  0
   39.2170   40.5810   26.8980 O   0  0  0  0  0  0  0  0  0  0  0  0
   37.8240   39.1900   25.5270 C   0  0  0  0  0  0  0  0  0  0  0  0
   37.4510   38.7100   24.2400 O   0  0  0  0  0  0  0  0  0  0  0  0
   36.5330   39.8070   26.2310 C   0  0  0  0  0  0  0  0  0  0  0  0
   35.4780   38.8590   26.2210 O   0  0  0  0  0  0  0  0  0  0  0  0
   36.1110   41.1420   25.4880 C   0  0  0  0  0  0  0  0  0  0  0  0
   37.2720   42.0180   25.5830 N   0  0  0  0  0  0  0  0  0  0  0  0
   38.5930   41.6400   24.8470 C   0  0  0  0  0  0  0  0  0  0  0  0
   38.3690   41.5450   23.3070 C   0  0  0  0  0  0  0  0  0  0  0  0
   38.1770   42.3670   22.1460 O   0  0  0  0  0  0  0  0  0  0  0  0
   39.8662   39.8552   24.9609 H   0  0  0  0  0  0  0  0  0  0  0  0
   38.7663   39.9027   27.4609 H   0  0  0  0  0  0  0  0  0  0  0  0
   38.2190   38.3302   26.0880 H   0  0  0  0  0  0  0  0  0  0  0  0
   36.8467   37.9323   24.3402 H   0  0  0  0  0  0  0  0  0  0  0  0
   36.7620   40.0504   27.2790 H   0  0  0  0  0  0  0  0  0  0  0  0
   35.2277   38.6340   27.1520 H   0  0  0  0  0  0  0  0  0  0  0  0
   35.8683   40.9367   24.4349 H   0  0  0  0  0  0  0  0  0  0  0  0
   35.2161   41.5966   25.9379 H   0  0  0  0  0  0  0  0  0  0  0  0
   36.9818   42.9374   25.2205 H   0  0  0  0  0  0  0  0  0  0  0  0
   39.3899   42.3912   24.9502 H   0  0  0  0  0  0  0  0  0  0  0  0
   39.2477   40.9569   23.0038 H   0  0  0  0  0  0  0  0  0  0  0  0
   37.2847   41.4124   23.4367 H   0  0  0  0  0  0  0  0  0  0  0  0
   37.9611   43.2911   22.4280 H   0  0  0  0  0  0  0  0  0  0  0  0
  1  2  1  0
  1  3  1  0
  1  9  1  0
  3  4  1  0
  3  5  1  0
  5  6  1  0
  5  7  1  0
  7  8  1  0
  8  9  1  0
  9 10  1  0
 10 11  1  0
  1 12  1  0
  2 13  1  0
  3 14  1  0
  4 15  1  0
  5 16  1  0
  6 17  1  0
  7 18  1  0
  7 19  1  0
  8 20  1  0
  9 21  1  0
 10 22  1  0
 10 23  1  0
 11 24  1  0
A    1
C4
A    2
O4
A    3
C3
A    4
O3
A    5
C2
A    6
O2
A    7
C1
A    8
N5
A    9
C5
A   10
C6
A   11
O6
M  END
