1FTL_DNQ_A_365
     RDKit          3D

 20 21  0  0  0  0  0  0  0  0999 V2000
   -1.9980   -1.1060   42.3820 O   0  0  0  0  0  0  0  0  0  0  0  0
    0.2280   -2.6270   43.2830 O   0  0  0  0  0  0  0  0  0  0  0  0
   -1.4850   -2.0110   41.7390 C   0  0  0  0  0  0  0  0  0  0  0  0
   -0.2990   -2.8580   42.2110 C   0  0  0  0  0  0  0  0  0  0  0  0
   -1.9070   -2.2140   40.4610 N   0  0  0  0  0  0  0  0  0  0  0  0
    0.2240   -3.7380   41.3090 N   0  0  0  0  0  0  0  0  0  0  0  0
   -1.3400   -3.1200   39.5870 C   0  0  0  0  0  0  0  0  0  0  0  0
   -0.2510   -3.8940   40.0160 C   0  0  0  0  0  0  0  0  0  0  0  0
   -1.9060   -3.3190   38.3310 C   0  0  0  0  0  0  0  0  0  0  0  0
    0.2710   -4.8790   39.1990 C   0  0  0  0  0  0  0  0  0  0  0  0
   -1.3840   -4.3000   37.5160 C   0  0  0  0  0  0  0  0  0  0  0  0
   -0.2970   -5.0730   37.9540 C   0  0  0  0  0  0  0  0  0  0  0  0
   -1.7430   -4.2370   36.0770 N   0  0  0  0  0  0  0  0  0  0  0  0
    0.2560   -6.1430   37.1340 N   0  0  0  0  0  0  0  0  0  0  0  0
   -2.5300   -3.3670   35.7290 O   0  0  0  0  0  0  0  0  0  0  0  0
   -0.2650   -7.2430   37.0770 O   0  0  0  0  0  0  0  0  0  0  0  0
   -1.3850   -5.1570   35.3660 O   0  0  0  0  0  0  0  0  0  0  0  0
    1.2740   -5.8520   36.5410 O   0  0  0  0  0  0  0  0  0  0  0  0
   -2.7543   -2.7045   37.9952 H   0  0  0  0  0  0  0  0  0  0  0  0
    1.1195   -5.4947   39.5321 H   0  0  0  0  0  0  0  0  0  0  0  0
  1  3  2  0
  2  4  2  0
  3  4  1  0
  3  5  1  0
  4  6  1  0
  5  7  2  0
  6  8  2  0
  7  8  1  0
  7  9  1  0
  8 10  1  0
  9 11  2  0
 10 12  2  0
 11 12  1  0
 11 13  1  0
 12 14  1  0
 13 15  1  0
 13 17  2  0
 14 16  1  0
 14 18  2  0
  9 19  1  0
 10 20  1  0
M  CHG  4  13   1  14   1  15  -1  16  -1
A    1
O1
A    2
O2
A    3
C1
A    4
C2
A    5
N1
A    6
N2
A    7
C3
A    8
C4
A    9
C5
A   10
C6
A   11
C7
A   12
C8
A   13
N3
A   14
N4
A   15
O3
A   16
O4
A   17
O5
A   18
O6
M  END
