1A50_FIP_A_270
     RDKit          3D

 31 32  0  0  0  0  0  0  0  0999 V2000
   49.7220   27.4730   14.9290 C   0  0  0  0  0  0  0  0  0  0  0  0
   50.2740   26.1560   14.8240 C   0  0  0  0  0  0  0  0  0  0  0  0
   51.6700   26.2730   14.9920 C   0  0  0  0  0  0  0  0  0  0  0  0
   49.7210   24.8860   14.6110 C   0  0  0  0  0  0  0  0  0  0  0  0
   50.7710   28.3140   15.1330 C   0  0  0  0  0  0  0  0  0  0  0  0
   51.9490   27.5990   15.1840 N   0  0  0  0  0  0  0  0  0  0  0  0
   52.5230   25.1710   14.9480 C   0  0  0  0  0  0  0  0  0  0  0  0
   50.5670   23.7870   14.5810 C   0  0  0  0  0  0  0  0  0  0  0  0
   51.9560   23.9400   14.7480 C   0  0  0  0  0  0  0  0  0  0  0  0
   50.0480   22.5650   14.4030 F   0  0  0  0  0  0  0  0  0  0  0  0
   48.2850   27.8430   14.8110 C   0  0  0  0  0  0  0  0  0  0  0  0
   47.8320   27.6530   13.3730 C   0  0  0  0  0  0  0  0  0  0  0  0
   48.4220   28.7450   12.4910 C   0  0  0  0  0  0  0  0  0  0  0  0
   48.3710   29.6250    9.9940 P   0  0  0  0  0  0  0  0  0  0  0  0
   49.5210   30.4410   10.4790 O   0  0  0  0  0  0  0  0  0  0  0  0
   47.1010   30.4380    9.9660 O   0  0  0  0  0  0  0  0  0  0  0  0
   48.5940   28.7240    8.8500 O   0  0  0  0  0  0  0  0  0  0  0  0
   48.0430   28.5310   11.1480 O   0  0  0  0  0  0  0  0  0  0  0  0
   48.6370   24.7630   14.4703 H   0  0  0  0  0  0  0  0  0  0  0  0
   50.6914   29.4057   15.2415 H   0  0  0  0  0  0  0  0  0  0  0  0
   52.8857   27.9977   15.3409 H   0  0  0  0  0  0  0  0  0  0  0  0
   53.6103   25.2857   15.0693 H   0  0  0  0  0  0  0  0  0  0  0  0
   52.6018   23.0500   14.7172 H   0  0  0  0  0  0  0  0  0  0  0  0
   47.6851   27.2010   15.4728 H   0  0  0  0  0  0  0  0  0  0  0  0
   48.1510   28.8951   15.1027 H   0  0  0  0  0  0  0  0  0  0  0  0
   48.1703   26.6707   13.0116 H   0  0  0  0  0  0  0  0  0  0  0  0
   46.7343   27.7091   13.3305 H   0  0  0  0  0  0  0  0  0  0  0  0
   48.0492   29.7248   12.8241 H   0  0  0  0  0  0  0  0  0  0  0  0
   49.5191   28.7207   12.5673 H   0  0  0  0  0  0  0  0  0  0  0  0
   46.8085   30.6252   10.8931 H   0  0  0  0  0  0  0  0  0  0  0  0
   48.8181   27.8186    9.1818 H   0  0  0  0  0  0  0  0  0  0  0  0
  1  2  1  0
  1  5  2  0
  1 11  1  0
  2  3  2  0
  2  4  1  0
  3  6  1  0
  3  7  1  0
  4  8  2  0
  5  6  1  0
  7  9  2  0
  8  9  1  0
  8 10  1  0
 11 12  1  0
 12 13  1  0
 13 18  1  0
 14 15  2  0
 14 16  1  0
 14 17  1  0
 14 18  1  0
  4 19  1  0
  5 20  1  0
  6 21  1  0
  7 22  1  0
  9 23  1  0
 11 24  1  0
 11 25  1  0
 12 26  1  0
 12 27  1  0
 13 28  1  0
 13 29  1  0
 16 30  1  0
 17 31  1  0
A    1
C3
A    2
C9
A    3
C8
A    4
C4
A    5
C2
A    6
N1
A    7
C7
A    8
C5
A    9
C6
A   10
F
A   11
C3P
A   12
C2P
A   13
C1P
A   14
P
A   15
OP1
A   16
OP2
A   17
OP3
A   18
OP4
M  END
