1FV0_9AR_A_401
     RDKit          3D

 37 40  0  0  0  0  0  0  0  0999 V2000
   15.5110   22.9080   40.4330 C   0  0  0  0  0  0  0  0  0  0  0  0
   14.1180   22.8870   40.2100 C   0  0  0  0  0  0  0  0  0  0  0  0
   13.2010   22.9020   41.2540 C   0  0  0  0  0  0  0  0  0  0  0  0
   13.6190   22.9400   42.6060 C   0  0  0  0  0  0  0  0  0  0  0  0
   15.0560   22.9660   42.9560 C   0  0  0  0  0  0  0  0  0  0  0  0
   16.0310   22.9540   41.8090 C   0  0  0  0  0  0  0  0  0  0  0  0
   15.5570   22.9990   44.3250 C   0  0  0  0  0  0  0  0  0  0  0  0
   17.0210   23.0050   44.5500 C   0  0  0  0  0  0  0  0  0  0  0  0
   17.8960   22.9940   43.4400 C   0  0  0  0  0  0  0  0  0  0  0  0
   17.4450   22.9840   42.1020 C   0  0  0  0  0  0  0  0  0  0  0  0
   14.7200   23.0160   45.4980 C   0  0  0  0  0  0  0  0  0  0  0  0
   15.2500   23.0370   46.7900 C   0  0  0  0  0  0  0  0  0  0  0  0
   16.6320   23.0370   46.9950 C   0  0  0  0  0  0  0  0  0  0  0  0
   17.5620   23.0200   45.8850 C   0  0  0  0  0  0  0  0  0  0  0  0
   11.3760   22.9040   42.4750 C   0  0  0  0  0  0  0  0  0  0  0  0
   16.3290   23.0260   39.1400 C   0  0  0  0  0  0  0  0  0  0  0  0
   20.1900   21.9140   46.0480 C   0  0  0  0  0  0  0  0  0  0  0  0
   18.8630   22.5860   46.0210 O   0  0  0  0  0  0  0  0  0  0  0  0
   11.8510   22.8780   41.1170 O   0  0  0  0  0  0  0  0  0  0  0  0
   12.4940   22.9420   43.3850 O   0  0  0  0  0  0  0  0  0  0  0  0
   17.2480   22.2820   38.8000 O   0  0  0  0  0  0  0  0  0  0  0  0
   15.8920   23.4950   38.0950 O   0  0  0  0  0  0  0  0  0  0  0  0
   17.0970   23.0530   48.3350 O   0  0  0  0  0  0  0  0  0  0  0  0
   18.7170   23.9890   40.2160 O   0  0  0  0  0  0  0  0  0  0  0  0
   19.5990   23.1920   41.9230 O   0  0  0  0  0  0  0  0  0  0  0  0
   18.7030   23.3900   41.0990 N   0  0  0  0  0  0  0  0  0  0  0  0
   13.7455   22.8578   39.1754 H   0  0  0  0  0  0  0  0  0  0  0  0
   18.9799   22.9932   43.6274 H   0  0  0  0  0  0  0  0  0  0  0  0
   13.6273   23.0123   45.3716 H   0  0  0  0  0  0  0  0  0  0  0  0
   14.5718   23.0537   47.6559 H   0  0  0  0  0  0  0  0  0  0  0  0
   10.7520   23.7972   42.6262 H   0  0  0  0  0  0  0  0  0  0  0  0
   10.7820   21.9986   42.6685 H   0  0  0  0  0  0  0  0  0  0  0  0
   20.5003   21.7569   47.0916 H   0  0  0  0  0  0  0  0  0  0  0  0
   20.1197   20.9429   45.5362 H   0  0  0  0  0  0  0  0  0  0  0  0
   20.9312   22.5454   45.5362 H   0  0  0  0  0  0  0  0  0  0  0  0
   15.2173   24.2191   38.1214 H   0  0  0  0  0  0  0  0  0  0  0  0
   16.4498   23.0307   49.0838 H   0  0  0  0  0  0  0  0  0  0  0  0
  1  2  2  0
  1  6  1  0
  1 16  1  0
  2  3  1  0
  3  4  2  0
  3 19  1  0
  4  5  1  0
  4 20  1  0
  5  6  2  0
  5  7  1  0
  6 10  1  0
  7  8  2  0
  7 11  1  0
  8  9  1  0
  8 14  1  0
  9 10  2  0
 10 26  1  0
 11 12  2  0
 12 13  1  0
 13 14  2  0
 13 23  1  0
 14 18  1  0
 15 19  1  0
 15 20  1  0
 16 21  2  0
 16 22  1  0
 17 18  1  0
 24 26  2  0
 25 26  1  0
  2 27  1  0
  9 28  1  0
 11 29  1  0
 12 30  1  0
 15 31  1  0
 15 32  1  0
 17 33  1  0
 17 34  1  0
 17 35  1  0
 22 36  1  0
 23 37  1  0
M  CHG  2  25  -1  26   1
A    1
C1
A    2
C2
A    3
C3
A    4
C4
A    5
C5
A    6
C6
A    7
C7
A    8
C8
A    9
C9
A   10
C10
A   11
C11
A   12
C12
A   13
C13
A   14
C14
A   15
C15
A   16
C16
A   17
C17
A   18
O1
A   19
O2
A   20
O3
A   21
O4
A   22
O5
A   23
O6
A   24
O7
A   25
O8
A   26
N1
M  END
