1FV9_172_A_246
     RDKit          3D

 18 19  0  0  0  0  0  0  0  0999 V2000
   21.0210   16.0610   33.5870 C   0  0  0  0  0  0  0  0  0  0  0  0
   21.0130   17.3660   34.0060 C   0  0  0  0  0  0  0  0  0  0  0  0
   19.8440   18.0310   33.9110 C   0  0  0  0  0  0  0  0  0  0  0  0
   18.7770   17.5240   33.4730 C   0  0  0  0  0  0  0  0  0  0  0  0
   18.6710   16.2560   33.0310 C   0  0  0  0  0  0  0  0  0  0  0  0
   19.8380   15.4740   33.0780 C   0  0  0  0  0  0  0  0  0  0  0  0
   19.7560   19.3420   34.2640 N   0  0  0  0  0  0  0  0  0  0  0  0
   18.4010   19.5750   33.9580 C   0  0  0  0  0  0  0  0  0  0  0  0
   17.7440   18.4180   33.4490 N   0  0  0  0  0  0  0  0  0  0  0  0
   17.7880   20.7780   34.1480 N   0  0  0  0  0  0  0  0  0  0  0  0
   22.1710   15.3420   33.6520 O   0  0  0  0  0  0  0  0  0  0  0  0
   21.9188   17.8487   34.4016 H   0  0  0  0  0  0  0  0  0  0  0  0
   17.7199   15.8532   32.6527 H   0  0  0  0  0  0  0  0  0  0  0  0
   19.8320   14.4313   32.7277 H   0  0  0  0  0  0  0  0  0  0  0  0
   16.7671   18.2913   33.1481 H   0  0  0  0  0  0  0  0  0  0  0  0
   17.6129   21.1216   35.1031 H   0  0  0  0  0  0  0  0  0  0  0  0
   17.5000   21.3431   33.3365 H   0  0  0  0  0  0  0  0  0  0  0  0
   22.5554   15.1016   34.5321 H   0  0  0  0  0  0  0  0  0  0  0  0
  1  2  2  0
  1  6  1  0
  1 11  1  0
  2  3  1  0
  3  4  2  0
  3  7  1  0
  4  5  1  0
  4  9  1  0
  5  6  2  0
  7  8  2  0
  8  9  1  0
  8 10  1  0
  2 12  1  0
  5 13  1  0
  6 14  1  0
  9 15  1  0
 10 16  1  0
 10 17  1  0
 11 18  1  0
A    1
C1
A    2
C2
A    3
C3
A    4
C4
A    5
C5
A    6
C6
A    7
N10
A    8
C11
A    9
N12
A   10
N14
A   11
O17
M  END
