1FXH_PAC_B_1001
     RDKit          3D

 18 18  0  0  0  0  0  0  0  0999 V2000
   -0.9100   -0.4510   -0.9330 C   0  0  0  0  0  0  0  0  0  0  0  0
   -0.6700   -1.1680    0.3790 C   0  0  0  0  0  0  0  0  0  0  0  0
   -1.9690   -1.7440    0.9280 C   0  0  0  0  0  0  0  0  0  0  0  0
   -2.4870   -3.0200    0.5800 C   0  0  0  0  0  0  0  0  0  0  0  0
   -3.6890   -3.5000    1.1290 C   0  0  0  0  0  0  0  0  0  0  0  0
   -4.3180   -2.6300    2.0310 C   0  0  0  0  0  0  0  0  0  0  0  0
   -3.8360   -1.3560    2.4020 C   0  0  0  0  0  0  0  0  0  0  0  0
   -2.6300   -0.8940    1.8440 C   0  0  0  0  0  0  0  0  0  0  0  0
   -0.1750    0.6080   -0.9840 O   0  0  0  0  0  0  0  0  0  0  0  0
   -1.6920   -0.8380   -1.8080 O   0  0  0  0  0  0  0  0  0  0  0  0
    0.0468   -1.9864    0.2165 H   0  0  0  0  0  0  0  0  0  0  0  0
   -0.2699   -0.4463    1.1064 H   0  0  0  0  0  0  0  0  0  0  0  0
   -1.9350   -3.6471   -0.1356 H   0  0  0  0  0  0  0  0  0  0  0  0
   -4.1051   -4.4848    0.8702 H   0  0  0  0  0  0  0  0  0  0  0  0
   -5.2615   -2.9667    2.4854 H   0  0  0  0  0  0  0  0  0  0  0  0
   -4.3950   -0.7340    3.1166 H   0  0  0  0  0  0  0  0  0  0  0  0
   -2.2174    0.0904    2.1101 H   0  0  0  0  0  0  0  0  0  0  0  0
   -2.5494   -1.2623   -1.5531 H   0  0  0  0  0  0  0  0  0  0  0  0
  1  2  1  0
  1  9  2  0
  1 10  1  0
  2  3  1  0
  3  4  2  0
  3  8  1  0
  4  5  1  0
  5  6  2  0
  6  7  1  0
  7  8  2  0
  2 11  1  0
  2 12  1  0
  4 13  1  0
  5 14  1  0
  6 15  1  0
  7 16  1  0
  8 17  1  0
 10 18  1  0
A    1
C1
A    2
C2
A    3
C1'
A    4
C2'
A    5
C3'
A    6
C4'
A    7
C5'
A    8
C6'
A    9
O1
A   10
O2
M  END
