1G4J_FFB_A_555
     RDKit          3D

 34 35  0  0  0  0  0  0  0  0999 V2000
   -3.7910    3.4140   14.8570 C   0  0  0  0  0  0  0  0  0  0  0  0
   -4.2600    2.3160   15.5700 C   0  0  0  0  0  0  0  0  0  0  0  0
   -5.6410    2.2290   15.8850 C   0  0  0  0  0  0  0  0  0  0  0  0
   -6.4870    3.2450   15.4460 C   0  0  0  0  0  0  0  0  0  0  0  0
   -5.9900    4.3270   14.7320 C   0  0  0  0  0  0  0  0  0  0  0  0
   -4.6480    4.4260   14.4440 C   0  0  0  0  0  0  0  0  0  0  0  0
   -4.1170    5.6280   13.7280 C   0  0  0  0  0  0  0  0  0  0  0  0
   -4.9540    6.4720   13.4230 O   0  0  0  0  0  0  0  0  0  0  0  0
   -2.7550    5.8620   13.4360 N   0  0  0  0  0  0  0  0  0  0  0  0
   -2.3840    6.7140   12.3150 C   0  0  0  0  0  0  0  0  0  0  0  0
   -6.2020    0.8280   16.8390 S   0  0  0  0  0  0  0  0  0  0  0  0
   -5.7890   -0.5940   16.0600 N   0  0  0  0  0  0  0  0  0  0  0  0
   -7.6480    1.0770   16.9330 O   0  0  0  0  0  0  0  0  0  0  0  0
   -5.5440    1.0340   18.1350 O   0  0  0  0  0  0  0  0  0  0  0  0
   -1.3870    7.6740   12.6900 C   0  0  0  0  0  0  0  0  0  0  0  0
   -1.5660    8.3690   13.9310 C   0  0  0  0  0  0  0  0  0  0  0  0
   -0.5680    9.3310   14.3390 C   0  0  0  0  0  0  0  0  0  0  0  0
    0.5830    9.5770   13.5040 C   0  0  0  0  0  0  0  0  0  0  0  0
    0.7500    8.8730   12.2650 C   0  0  0  0  0  0  0  0  0  0  0  0
   -0.2250    7.9230   11.8510 C   0  0  0  0  0  0  0  0  0  0  0  0
   -2.6310    8.1410   14.7120 F   0  0  0  0  0  0  0  0  0  0  0  0
   -0.7120    9.9940   15.4950 F   0  0  0  0  0  0  0  0  0  0  0  0
    1.5030   10.4710   13.8910 F   0  0  0  0  0  0  0  0  0  0  0  0
    1.8200    9.1010   11.4910 F   0  0  0  0  0  0  0  0  0  0  0  0
   -0.0430    7.2770   10.6910 F   0  0  0  0  0  0  0  0  0  0  0  0
   -2.7201    3.4824   14.6153 H   0  0  0  0  0  0  0  0  0  0  0  0
   -3.5672    1.5225   15.8868 H   0  0  0  0  0  0  0  0  0  0  0  0
   -7.5629    3.1892   15.6680 H   0  0  0  0  0  0  0  0  0  0  0  0
   -6.6778    5.1153   14.3921 H   0  0  0  0  0  0  0  0  0  0  0  0
   -2.0229    5.4292   14.0171 H   0  0  0  0  0  0  0  0  0  0  0  0
   -1.9872    6.0851   11.5044 H   0  0  0  0  0  0  0  0  0  0  0  0
   -3.2806    7.2594   11.9854 H   0  0  0  0  0  0  0  0  0  0  0  0
   -5.5782   -1.3200   16.7596 H   0  0  0  0  0  0  0  0  0  0  0  0
   -6.5749   -0.9033   15.4704 H   0  0  0  0  0  0  0  0  0  0  0  0
  1  2  2  0
  1  6  1  0
  2  3  1  0
  3  4  2  0
  3 11  1  0
  4  5  1  0
  5  6  2  0
  6  7  1  0
  7  8  2  0
  7  9  1  0
  9 10  1  0
 10 15  1  0
 11 12  1  0
 11 13  2  0
 11 14  2  0
 15 16  2  0
 15 20  1  0
 16 17  1  0
 16 21  1  0
 17 18  2  0
 17 22  1  0
 18 19  1  0
 18 23  1  0
 19 20  2  0
 19 24  1  0
 20 25  1  0
  1 26  1  0
  2 27  1  0
  4 28  1  0
  5 29  1  0
  9 30  1  0
 10 31  1  0
 10 32  1  0
 12 33  1  0
 12 34  1  0
A    1
C01
A    2
C02
A    3
C03
A    4
C04
A    5
C05
A    6
C06
A    7
C07
A    8
O08
A    9
N09
A   10
C10
A   11
S11
A   12
NP2
A   13
O13
A   14
O14
A   15
C15
A   16
C16
A   17
C17
A   18
C18
A   19
C19
A   20
C20
A   21
F21
A   22
F22
A   23
F23
A   24
F24
A   25
F25
M  END
