1G4S_TPS_A_2001
     RDKit          3D

 40 41  0  0  0  0  0  0  0  0999 V2000
   16.9020   40.2710   15.4080 C   0  0  0  0  0  0  0  0  0  0  0  0
   13.3570   45.0390   17.8500 N   0  0  0  0  0  0  0  0  0  0  0  0
   12.0840   44.8290   17.4640 C   0  0  0  0  0  0  0  0  0  0  0  0
   11.0450   44.3930   18.7040 S   0  0  0  0  0  0  0  0  0  0  0  0
   12.3680   44.4900   19.8280 C   0  0  0  0  0  0  0  0  0  0  0  0
   13.5400   44.8540   19.1960 C   0  0  0  0  0  0  0  0  0  0  0  0
   14.8840   45.0350   19.8800 C   0  0  0  0  0  0  0  0  0  0  0  0
   12.1920   44.1980   21.3070 C   0  0  0  0  0  0  0  0  0  0  0  0
   11.9300   42.7970   21.7560 C   0  0  0  0  0  0  0  0  0  0  0  0
   11.8340   42.8460   23.2050 O   0  0  0  0  0  0  0  0  0  0  0  0
   15.0950   41.8790   15.3260 N   0  0  0  0  0  0  0  0  0  0  0  0
   16.3620   41.5750   15.7870 C   0  0  0  0  0  0  0  0  0  0  0  0
   17.0710   42.4030   16.5360 N   0  0  0  0  0  0  0  0  0  0  0  0
   16.5350   43.6250   16.8930 C   0  0  0  0  0  0  0  0  0  0  0  0
   17.2910   44.4130   17.6430 N   0  0  0  0  0  0  0  0  0  0  0  0
   15.1920   43.9990   16.4510 C   0  0  0  0  0  0  0  0  0  0  0  0
   14.5340   43.0830   15.6680 C   0  0  0  0  0  0  0  0  0  0  0  0
   14.5100   45.3210   16.8200 C   0  0  0  0  0  0  0  0  0  0  0  0
   10.8790   41.8480   23.9890 P   0  0  0  0  0  0  0  0  0  0  0  0
    9.5510   42.1480   23.3940 O   0  0  0  0  0  0  0  0  0  0  0  0
   11.0680   42.1130   25.4400 O   0  0  0  0  0  0  0  0  0  0  0  0
   11.4180   40.3820   23.6630 O   0  0  0  0  0  0  0  0  0  0  0  0
   17.1404   39.6953   16.3145 H   0  0  0  0  0  0  0  0  0  0  0  0
   16.1562   39.7244   14.8121 H   0  0  0  0  0  0  0  0  0  0  0  0
   17.8158   40.4117   14.8121 H   0  0  0  0  0  0  0  0  0  0  0  0
   11.7534   44.9350   16.4202 H   0  0  0  0  0  0  0  0  0  0  0  0
   14.7456   45.0164   20.9711 H   0  0  0  0  0  0  0  0  0  0  0  0
   15.5598   44.2198   19.5821 H   0  0  0  0  0  0  0  0  0  0  0  0
   15.3200   46.0000   19.5821 H   0  0  0  0  0  0  0  0  0  0  0  0
   13.1132   44.5277   21.8097 H   0  0  0  0  0  0  0  0  0  0  0  0
   11.2641   44.7291   21.5657 H   0  0  0  0  0  0  0  0  0  0  0  0
   10.9881   42.4281   21.3239 H   0  0  0  0  0  0  0  0  0  0  0  0
   12.7301   42.1159   21.4305 H   0  0  0  0  0  0  0  0  0  0  0  0
   17.2353   44.3549   18.6699 H   0  0  0  0  0  0  0  0  0  0  0  0
   17.9345   45.0837   17.1993 H   0  0  0  0  0  0  0  0  0  0  0  0
   13.5243   43.3225   15.3032 H   0  0  0  0  0  0  0  0  0  0  0  0
   14.0894   45.7831   15.9147 H   0  0  0  0  0  0  0  0  0  0  0  0
   15.2467   46.0038   17.2684 H   0  0  0  0  0  0  0  0  0  0  0  0
   10.5811   41.4303   25.9663 H   0  0  0  0  0  0  0  0  0  0  0  0
   11.5953   39.8998   24.5093 H   0  0  0  0  0  0  0  0  0  0  0  0
  1 12  1  0
  2  3  2  0
  2  6  1  0
  2 18  1  0
  3  4  1  0
  4  5  1  0
  5  6  2  0
  5  8  1  0
  6  7  1  0
  8  9  1  0
  9 10  1  0
 10 19  1  0
 11 12  2  0
 11 17  1  0
 12 13  1  0
 13 14  2  0
 14 15  1  0
 14 16  1  0
 16 17  2  0
 16 18  1  0
 19 20  2  0
 19 21  1  0
 19 22  1  0
  1 23  1  0
  1 24  1  0
  1 25  1  0
  3 26  1  0
  7 27  1  0
  7 28  1  0
  7 29  1  0
  8 30  1  0
  8 31  1  0
  9 32  1  0
  9 33  1  0
 15 34  1  0
 15 35  1  0
 17 36  1  0
 18 37  1  0
 18 38  1  0
 21 39  1  0
 22 40  1  0
M  CHG  1   2   1
A    1
CM2
A    2
N3
A    3
C2
A    4
S1
A    5
C5
A    6
C4
A    7
CM4
A    8
C6
A    9
C7
A   10
O7
A   11
N1A
A   12
C2A
A   13
N3A
A   14
C4A
A   15
N4A
A   16
C5A
A   17
C6A
A   18
C7A
A   19
P1
A   20
O1
A   21
O2
A   22
O3
M  END
