1ESQ_TZP_A_320
     RDKit          3D

 23 23  0  0  0  0  0  0  0  0999 V2000
   35.7040   -0.5400   11.9680 N   0  0  0  0  0  0  0  0  0  0  0  0
   34.5280    0.1760   12.0360 C   0  0  0  0  0  0  0  0  0  0  0  0
   34.6820    1.5210   13.1630 S   0  0  0  0  0  0  0  0  0  0  0  0
   36.3400    1.0550   13.4930 C   0  0  0  0  0  0  0  0  0  0  0  0
   36.7850   -0.0400   12.8200 C   0  0  0  0  0  0  0  0  0  0  0  0
   38.1630   -0.7090   12.8800 C   0  0  0  0  0  0  0  0  0  0  0  0
   37.0440    1.9500   14.4940 C   0  0  0  0  0  0  0  0  0  0  0  0
   36.9910    3.4520   14.1460 C   0  0  0  0  0  0  0  0  0  0  0  0
   38.3060    3.9320   14.3950 O   0  0  0  0  0  0  0  0  0  0  0  0
   38.9990    5.1770   14.2990 P   0  0  0  0  0  0  0  0  0  0  0  0
   40.4600    4.9820   14.3330 O   0  0  0  0  0  0  0  0  0  0  0  0
   38.5970    5.7600   13.0290 O   0  0  0  0  0  0  0  0  0  0  0  0
   38.5370    6.4200   15.3270 O   0  0  0  0  0  0  0  0  0  0  0  0
   33.6181   -0.0602   11.4648 H   0  0  0  0  0  0  0  0  0  0  0  0
   38.4561   -0.8513   13.9306 H   0  0  0  0  0  0  0  0  0  0  0  0
   38.1186   -1.6858   12.3762 H   0  0  0  0  0  0  0  0  0  0  0  0
   38.9031   -0.0699   12.3762 H   0  0  0  0  0  0  0  0  0  0  0  0
   36.5715    1.8067   15.4769 H   0  0  0  0  0  0  0  0  0  0  0  0
   38.1052    1.6607   14.4851 H   0  0  0  0  0  0  0  0  0  0  0  0
   36.7204    3.5951   13.0895 H   0  0  0  0  0  0  0  0  0  0  0  0
   36.2354    3.9880   14.7391 H   0  0  0  0  0  0  0  0  0  0  0  0
   40.7657    4.9412   15.2737 H   0  0  0  0  0  0  0  0  0  0  0  0
   38.6454    6.1284   16.2669 H   0  0  0  0  0  0  0  0  0  0  0  0
  1  2  2  0
  1  5  1  0
  2  3  1  0
  3  4  1  0
  4  5  2  0
  4  7  1  0
  5  6  1  0
  7  8  1  0
  8  9  1  0
  9 10  1  0
 10 11  1  0
 10 12  2  0
 10 13  1  0
  2 14  1  0
  6 15  1  0
  6 16  1  0
  6 17  1  0
  7 18  1  0
  7 19  1  0
  8 20  1  0
  8 21  1  0
 11 22  1  0
 13 23  1  0
A    1
N3
A    2
C2
A    3
S1
A    4
C5
A    5
C4
A    6
CM4
A    7
C6
A    8
C7
A    9
O7
A   10
P1
A   11
O1
A   12
O2
A   13
O3
M  END
