1G7G_INX_A_600
     RDKit          3D

 80 81  0  0  0  0  0  0  0  0999 V2000
   13.5790   16.7950   11.8960 C   0  0  0  0  0  0  0  0  0  0  0  0
   13.6090   16.5240   10.4880 C   0  0  0  0  0  0  0  0  0  0  0  0
   12.4450   16.6400    9.6870 C   0  0  0  0  0  0  0  0  0  0  0  0
   11.2090   17.0440   10.2960 C   0  0  0  0  0  0  0  0  0  0  0  0
   11.1840   17.3230   11.6890 C   0  0  0  0  0  0  0  0  0  0  0  0
   12.3130   17.2150   12.5150 C   0  0  0  0  0  0  0  0  0  0  0  0
    9.9530   17.1490    9.5060 C   0  0  0  0  0  0  0  0  0  0  0  0
    9.2370   18.4730    9.5770 C   0  0  0  0  0  0  0  0  0  0  0  0
   14.7560   16.6440   12.5560 O   0  0  0  0  0  0  0  0  0  0  0  0
    7.9200   18.3490    8.8930 N   0  0  0  0  0  0  0  0  0  0  0  0
   10.0320   19.6340    8.9380 C   0  0  0  0  0  0  0  0  0  0  0  0
    7.0620   19.3870    9.0460 C   0  0  0  0  0  0  0  0  0  0  0  0
    9.9580   19.5790    7.6060 N   0  0  0  0  0  0  0  0  0  0  0  0
   10.7940   20.3350    9.6680 O   0  0  0  0  0  0  0  0  0  0  0  0
   10.7290   20.2850    6.6170 C   0  0  0  0  0  0  0  0  0  0  0  0
   11.8830   19.3290    6.1690 C   0  0  0  0  0  0  0  0  0  0  0  0
   11.2720   17.9250    5.9110 C   0  0  0  0  0  0  0  0  0  0  0  0
   11.5520   17.3940    4.5020 C   0  0  0  0  0  0  0  0  0  0  0  0
   12.5180   16.2080    4.5230 C   0  0  0  0  0  0  0  0  0  0  0  0
    7.2300   20.3300    9.8120 O   0  0  0  0  0  0  0  0  0  0  0  0
    5.6930   19.2860    8.4050 C   0  0  0  0  0  0  0  0  0  0  0  0
    4.6980   19.5130    9.4830 N   0  0  0  0  0  0  0  0  0  0  0  0
   15.8550   17.5160   12.6150 C   0  0  0  0  0  0  0  0  0  0  0  0
   17.0120   16.7230   13.2630 C   0  0  0  0  0  0  0  0  0  0  0  0
   18.1040   17.4340   13.1640 O   0  0  0  0  0  0  0  0  0  0  0  0
   16.9160   15.6390   13.7600 O   0  0  0  0  0  0  0  0  0  0  0  0
   12.2000   17.5440   13.9700 C   0  0  0  0  0  0  0  0  0  0  0  0
   12.8050   17.0000   14.8380 O   0  0  0  0  0  0  0  0  0  0  0  0
   11.4270   18.5500   14.2120 O   0  0  0  0  0  0  0  0  0  0  0  0
    5.6450   20.4210    7.3610 C   0  0  0  0  0  0  0  0  0  0  0  0
    4.3310   20.2240    6.6120 C   0  0  0  0  0  0  0  0  0  0  0  0
    4.3460   19.4330    5.4000 C   0  0  0  0  0  0  0  0  0  0  0  0
    3.1080   19.2460    4.7040 C   0  0  0  0  0  0  0  0  0  0  0  0
    1.9280   19.8490    5.2140 C   0  0  0  0  0  0  0  0  0  0  0  0
    1.9270   20.6200    6.4150 C   0  0  0  0  0  0  0  0  0  0  0  0
    3.1560   20.8170    7.1510 C   0  0  0  0  0  0  0  0  0  0  0  0
    3.9130   18.5020    9.9000 C   0  0  0  0  0  0  0  0  0  0  0  0
    2.8130   18.7700   10.9250 C   0  0  0  0  0  0  0  0  0  0  0  0
    2.0150   17.4970   11.2970 C   0  0  0  0  0  0  0  0  0  0  0  0
    0.6860   17.3290   10.5150 C   0  0  0  0  0  0  0  0  0  0  0  0
   -0.0370   18.2250   10.1140 O   0  0  0  0  0  0  0  0  0  0  0  0
    0.3730   16.0180   10.2890 O   0  0  0  0  0  0  0  0  0  0  0  0
    4.0010   17.3730    9.3520 O   0  0  0  0  0  0  0  0  0  0  0  0
   14.5563   16.2193   10.0191 H   0  0  0  0  0  0  0  0  0  0  0  0
   12.4883   16.4226    8.6096 H   0  0  0  0  0  0  0  0  0  0  0  0
   10.2328   17.6392   12.1421 H   0  0  0  0  0  0  0  0  0  0  0  0
   10.2014   16.9568    8.4518 H   0  0  0  0  0  0  0  0  0  0  0  0
    9.2629   16.4145    9.9469 H   0  0  0  0  0  0  0  0  0  0  0  0
    9.1151   18.7170   10.6426 H   0  0  0  0  0  0  0  0  0  0  0  0
    7.6745   17.5195    8.3340 H   0  0  0  0  0  0  0  0  0  0  0  0
    9.2446   18.9373    7.2315 H   0  0  0  0  0  0  0  0  0  0  0  0
   10.0947   20.5411    5.7556 H   0  0  0  0  0  0  0  0  0  0  0  0
   11.1327   21.2216    7.0290 H   0  0  0  0  0  0  0  0  0  0  0  0
   12.3459   19.7097    5.2466 H   0  0  0  0  0  0  0  0  0  0  0  0
   12.6555   19.2713    6.9500 H   0  0  0  0  0  0  0  0  0  0  0  0
   11.6961   17.2198    6.6409 H   0  0  0  0  0  0  0  0  0  0  0  0
   10.1809   18.0199    6.0134 H   0  0  0  0  0  0  0  0  0  0  0  0
   10.6032   17.0723    4.0477 H   0  0  0  0  0  0  0  0  0  0  0  0
   12.0161   18.2025    3.9181 H   0  0  0  0  0  0  0  0  0  0  0  0
   12.7405   15.9348    5.5650 H   0  0  0  0  0  0  0  0  0  0  0  0
   12.0577   15.3510    4.0095 H   0  0  0  0  0  0  0  0  0  0  0  0
   13.4504   16.4854    4.0095 H   0  0  0  0  0  0  0  0  0  0  0  0
    5.4879   18.3174    7.9257 H   0  0  0  0  0  0  0  0  0  0  0  0
    4.6082   20.4449    9.9123 H   0  0  0  0  0  0  0  0  0  0  0  0
   16.1372   17.8403   11.6025 H   0  0  0  0  0  0  0  0  0  0  0  0
   15.6158   18.4175   13.1982 H   0  0  0  0  0  0  0  0  0  0  0  0
   16.9077   15.5453   14.7455 H   0  0  0  0  0  0  0  0  0  0  0  0
   12.5916   17.1919   15.7855 H   0  0  0  0  0  0  0  0  0  0  0  0
    5.6619   21.4023    7.8577 H   0  0  0  0  0  0  0  0  0  0  0  0
    6.5113   20.3920    6.6837 H   0  0  0  0  0  0  0  0  0  0  0  0
    5.2798   18.9889    5.0247 H   0  0  0  0  0  0  0  0  0  0  0  0
    3.0719   18.6423    3.7852 H   0  0  0  0  0  0  0  0  0  0  0  0
    0.9836   19.7176    4.6654 H   0  0  0  0  0  0  0  0  0  0  0  0
    0.9901   21.0650    6.7813 H   0  0  0  0  0  0  0  0  0  0  0  0
    3.1810   21.3985    8.0844 H   0  0  0  0  0  0  0  0  0  0  0  0
    3.2746   19.1745   11.8379 H   0  0  0  0  0  0  0  0  0  0  0  0
    2.1070   19.4827   10.4737 H   0  0  0  0  0  0  0  0  0  0  0  0
    2.6483   16.6210   11.0933 H   0  0  0  0  0  0  0  0  0  0  0  0
    1.7469   17.5910   12.3597 H   0  0  0  0  0  0  0  0  0  0  0  0
   -0.5076   18.8083   10.7608 H   0  0  0  0  0  0  0  0  0  0  0  0
  1  2  2  0
  1  6  1  0
  1  9  1  0
  2  3  1  0
  3  4  2  0
  4  5  1  0
  4  7  1  0
  5  6  2  0
  6 27  1  0
  7  8  1  0
  8 10  1  0
  8 11  1  0
  9 23  1  0
 10 12  1  0
 11 13  1  0
 11 14  2  0
 12 20  2  0
 12 21  1  0
 13 15  1  0
 15 16  1  0
 16 17  1  0
 17 18  1  0
 18 19  1  0
 21 22  1  0
 21 30  1  0
 22 37  1  0
 23 24  1  0
 24 25  2  0
 24 26  1  0
 27 28  1  0
 27 29  2  0
 30 31  1  0
 31 32  2  0
 31 36  1  0
 32 33  1  0
 33 34  2  0
 34 35  1  0
 35 36  2  0
 37 38  1  0
 37 43  2  0
 38 39  1  0
 39 40  1  0
 40 41  1  0
 40 42  2  0
  2 44  1  0
  3 45  1  0
  5 46  1  0
  7 47  1  0
  7 48  1  0
  8 49  1  0
 10 50  1  0
 13 51  1  0
 15 52  1  0
 15 53  1  0
 16 54  1  0
 16 55  1  0
 17 56  1  0
 17 57  1  0
 18 58  1  0
 18 59  1  0
 19 60  1  0
 19 61  1  0
 19 62  1  0
 21 63  1  0
 22 64  1  0
 23 65  1  0
 23 66  1  0
 26 67  1  0
 28 68  1  0
 30 69  1  0
 30 70  1  0
 32 71  1  0
 33 72  1  0
 34 73  1  0
 35 74  1  0
 36 75  1  0
 38 76  1  0
 38 77  1  0
 39 78  1  0
 39 79  1  0
 41 80  1  0
A    1
C1
A    2
C2
A    3
C3
A    4
C4
A    5
C5
A    6
C6
A    7
C7
A    8
C8
A    9
O9
A   10
N10
A   11
C11
A   12
C12
A   13
N13
A   14
O14
A   15
C15
A   16
C16
A   17
C17
A   18
C18
A   19
C19
A   20
O20
A   21
C21
A   22
N22
A   23
C23
A   24
C24
A   25
O25
A   26
O26
A   27
C27
A   28
O28
A   29
O29
A   30
C30
A   31
C31
A   32
C32
A   33
C33
A   34
C34
A   35
C35
A   36
C36
A   37
C37
A   38
C38
A   39
C39
A   40
C40
A   41
O41
A   42
O42
A   43
O43
M  END
