1GAI_GAC_A_498
     RDKit          3D

 89 92  0  0  0  0  0  0  0  0999 V2000
   33.1700   20.6220    8.1810 C   0  0  0  0  0  0  0  0  0  0  0  0
   34.3700   20.4820    9.1210 C   0  0  0  0  0  0  0  0  0  0  0  0
   33.9980   19.6160   10.3230 C   0  0  0  0  0  0  0  0  0  0  0  0
   32.9010   20.2890   11.1430 C   0  0  0  0  0  0  0  0  0  0  0  0
   31.6300   20.5140   10.3000 C   0  0  0  0  0  0  0  0  0  0  0  0
   30.6120   21.3490   11.0820 C   0  0  0  0  0  0  0  0  0  0  0  0
   31.9480   21.1840    8.9340 C   0  0  0  0  0  0  0  0  0  0  0  0
   35.4530   19.8790    8.4310 O   0  0  0  0  0  0  0  0  0  0  0  0
   35.1440   19.4270   11.1420 O   0  0  0  0  0  0  0  0  0  0  0  0
   32.5940   19.4740   12.2730 O   0  0  0  0  0  0  0  0  0  0  0  0
   31.1270   22.6420   11.4010 O   0  0  0  0  0  0  0  0  0  0  0  0
   31.7060   18.2700    3.5220 C   0  0  0  0  0  0  0  0  0  0  0  0
   33.1790   18.6150    3.7860 C   0  0  0  0  0  0  0  0  0  0  0  0
   33.4940   18.4450    5.2860 C   0  0  0  0  0  0  0  0  0  0  0  0
   32.5730   19.3810    6.0870 C   0  0  0  0  0  0  0  0  0  0  0  0
   31.1270   18.9380    5.7900 C   0  0  0  0  0  0  0  0  0  0  0  0
   30.0660   19.7720    6.4830 C   0  0  0  0  0  0  0  0  0  0  0  0
   32.8760   19.3180    7.5360 N   0  0  0  0  0  0  0  0  0  0  0  0
   34.0020   17.7370    3.0250 O   0  0  0  0  0  0  0  0  0  0  0  0
   34.8640   18.7400    5.5420 O   0  0  0  0  0  0  0  0  0  0  0  0
   30.8630   19.0490    4.3710 O   0  0  0  0  0  0  0  0  0  0  0  0
   30.7030   13.6000    1.4850 C   0  0  0  0  0  0  0  0  0  0  0  0
   30.3340   14.9210    0.8370 C   0  0  0  0  0  0  0  0  0  0  0  0
   30.9970   16.0810    1.5810 C   0  0  0  0  0  0  0  0  0  0  0  0
   30.7060   16.0130    3.0940 C   0  0  0  0  0  0  0  0  0  0  0  0
   30.9680   14.6110    3.6400 C   0  0  0  0  0  0  0  0  0  0  0  0
   30.5130   14.4420    5.0790 C   0  0  0  0  0  0  0  0  0  0  0  0
   30.7780   14.9220   -0.5120 O   0  0  0  0  0  0  0  0  0  0  0  0
   30.4880   17.2900    1.0410 O   0  0  0  0  0  0  0  0  0  0  0  0
   31.5750   16.9070    3.8240 O   0  0  0  0  0  0  0  0  0  0  0  0
   30.2990   13.6120    2.8470 O   0  0  0  0  0  0  0  0  0  0  0  0
   30.9640   13.2120    5.6190 O   0  0  0  0  0  0  0  0  0  0  0  0
   34.8350   10.4330    0.5560 C   0  0  0  0  0  0  0  0  0  0  0  0
   34.1310   11.0140   -0.6720 C   0  0  0  0  0  0  0  0  0  0  0  0
   33.4850   12.3410   -0.2900 C   0  0  0  0  0  0  0  0  0  0  0  0
   32.5580   12.1440    0.9120 C   0  0  0  0  0  0  0  0  0  0  0  0
   33.3030   11.4710    2.0630 C   0  0  0  0  0  0  0  0  0  0  0  0
   32.3800   11.1360    3.2170 C   0  0  0  0  0  0  0  0  0  0  0  0
   35.7920   11.3290    1.0000 O   0  0  0  0  0  0  0  0  0  0  0  0
   35.0700   11.2220   -1.7230 O   0  0  0  0  0  0  0  0  0  0  0  0
   32.7480   12.8540   -1.3930 O   0  0  0  0  0  0  0  0  0  0  0  0
   32.0860   13.4280    1.3530 O   0  0  0  0  0  0  0  0  0  0  0  0
   33.8920   10.2340    1.6170 O   0  0  0  0  0  0  0  0  0  0  0  0
   31.3310   10.2700    2.8020 O   0  0  0  0  0  0  0  0  0  0  0  0
   33.4161   21.3420    7.3866 H   0  0  0  0  0  0  0  0  0  0  0  0
   34.6636   21.4832    9.4696 H   0  0  0  0  0  0  0  0  0  0  0  0
   33.6305   18.6447    9.9603 H   0  0  0  0  0  0  0  0  0  0  0  0
   33.2652   21.2726   11.4746 H   0  0  0  0  0  0  0  0  0  0  0  0
   31.1964   19.5257   10.0874 H   0  0  0  0  0  0  0  0  0  0  0  0
   29.7037   21.4668   10.4728 H   0  0  0  0  0  0  0  0  0  0  0  0
   30.3884   20.8258   12.0234 H   0  0  0  0  0  0  0  0  0  0  0  0
   32.1263   22.2541    9.1160 H   0  0  0  0  0  0  0  0  0  0  0  0
   31.0796   20.9789    8.2906 H   0  0  0  0  0  0  0  0  0  0  0  0
   36.1016   19.5179    9.0860 H   0  0  0  0  0  0  0  0  0  0  0  0
   34.8794   19.4706   12.0950 H   0  0  0  0  0  0  0  0  0  0  0  0
   32.7836   19.9773   13.1042 H   0  0  0  0  0  0  0  0  0  0  0  0
   31.1689   22.7471   12.3845 H   0  0  0  0  0  0  0  0  0  0  0  0
   31.4147   18.4835    2.4830 H   0  0  0  0  0  0  0  0  0  0  0  0
   33.3728   19.6577    3.4942 H   0  0  0  0  0  0  0  0  0  0  0  0
   33.3156   17.4037    5.5922 H   0  0  0  0  0  0  0  0  0  0  0  0
   32.7238   20.4298    5.7914 H   0  0  0  0  0  0  0  0  0  0  0  0
   31.0632   17.9054    6.1637 H   0  0  0  0  0  0  0  0  0  0  0  0
   30.1820   19.6808    7.5731 H   0  0  0  0  0  0  0  0  0  0  0  0
   30.1784   20.8261    6.1892 H   0  0  0  0  0  0  0  0  0  0  0  0
   29.0683   19.4138    6.1892 H   0  0  0  0  0  0  0  0  0  0  0  0
   33.6963   18.7082    7.6631 H   0  0  0  0  0  0  0  0  0  0  0  0
   34.5339   17.1695    3.6375 H   0  0  0  0  0  0  0  0  0  0  0  0
   35.0174   18.7730    6.5195 H   0  0  0  0  0  0  0  0  0  0  0  0
   30.1903   12.7574    0.9980 H   0  0  0  0  0  0  0  0  0  0  0  0
   29.2417   15.0442    0.8770 H   0  0  0  0  0  0  0  0  0  0  0  0
   32.0883   16.0258    1.4543 H   0  0  0  0  0  0  0  0  0  0  0  0
   29.6502   16.2931    3.2238 H   0  0  0  0  0  0  0  0  0  0  0  0
   32.0591   14.4791    3.5940 H   0  0  0  0  0  0  0  0  0  0  0  0
   30.9172   15.2682    5.6823 H   0  0  0  0  0  0  0  0  0  0  0  0
   29.4132   14.4483    5.0991 H   0  0  0  0  0  0  0  0  0  0  0  0
   31.7678   14.9242   -0.5336 H   0  0  0  0  0  0  0  0  0  0  0  0
   30.2317   17.8987    1.7785 H   0  0  0  0  0  0  0  0  0  0  0  0
   30.9466   13.2595    6.6077 H   0  0  0  0  0  0  0  0  0  0  0  0
   35.2956    9.4739    0.2769 H   0  0  0  0  0  0  0  0  0  0  0  0
   33.3616   10.3096   -1.0209 H   0  0  0  0  0  0  0  0  0  0  0  0
   34.2727   13.0594   -0.0191 H   0  0  0  0  0  0  0  0  0  0  0  0
   31.7160   11.5041    0.6092 H   0  0  0  0  0  0  0  0  0  0  0  0
   34.0705   12.1837    2.3993 H   0  0  0  0  0  0  0  0  0  0  0  0
   32.9611   10.6416    4.0094 H   0  0  0  0  0  0  0  0  0  0  0  0
   31.9339   12.0703    3.5887 H   0  0  0  0  0  0  0  0  0  0  0  0
   35.8016   11.3380    1.9899 H   0  0  0  0  0  0  0  0  0  0  0  0
   35.9598   11.4191   -1.3363 H   0  0  0  0  0  0  0  0  0  0  0  0
   31.9829   13.3865   -1.0596 H   0  0  0  0  0  0  0  0  0  0  0  0
   30.8776    9.8957    3.5985 H   0  0  0  0  0  0  0  0  0  0  0  0
  1  2  1  0
  1  7  1  0
  1 18  1  0
  2  3  1  0
  2  8  1  0
  3  4  1  0
  3  9  1  0
  4  5  1  0
  4 10  1  0
  5  6  1  0
  5  7  1  0
  6 11  1  0
 12 13  1  0
 12 21  1  0
 12 30  1  0
 13 14  1  0
 13 19  1  0
 14 15  1  0
 14 20  1  0
 15 16  1  0
 15 18  1  0
 16 17  1  0
 16 21  1  0
 22 23  1  0
 22 31  1  0
 22 42  1  0
 23 24  1  0
 23 28  1  0
 24 25  1  0
 24 29  1  0
 25 26  1  0
 25 30  1  0
 26 27  1  0
 26 31  1  0
 27 32  1  0
 33 34  1  0
 33 39  1  0
 33 43  1  0
 34 35  1  0
 34 40  1  0
 35 36  1  0
 35 41  1  0
 36 37  1  0
 36 42  1  0
 37 38  1  0
 37 43  1  0
 38 44  1  0
  1 45  1  0
  2 46  1  0
  3 47  1  0
  4 48  1  0
  5 49  1  0
  6 50  1  0
  6 51  1  0
  7 52  1  0
  7 53  1  0
  8 54  1  0
  9 55  1  0
 10 56  1  0
 11 57  1  0
 12 58  1  0
 13 59  1  0
 14 60  1  0
 15 61  1  0
 16 62  1  0
 17 63  1  0
 17 64  1  0
 17 65  1  0
 18 66  1  0
 19 67  1  0
 20 68  1  0
 22 69  1  0
 23 70  1  0
 24 71  1  0
 25 72  1  0
 26 73  1  0
 27 74  1  0
 27 75  1  0
 28 76  1  0
 29 77  1  0
 32 78  1  0
 33 79  1  0
 34 80  1  0
 35 81  1  0
 36 82  1  0
 37 83  1  0
 38 84  1  0
 38 85  1  0
 39 86  1  0
 40 87  1  0
 41 88  1  0
 44 89  1  0
A    1
C1A
A    2
C2A
A    3
C3A
A    4
C4A
A    5
C5A
A    6
C6A
A    7
C7A
A    8
O2A
A    9
O3A
A   10
O4A
A   11
O6A
A   12
C1B
A   13
C2B
A   14
C3B
A   15
C4B
A   16
C5B
A   17
C6B
A   18
N4B
A   19
O2B
A   20
O3B
A   21
O5B
A   22
C1C
A   23
C2C
A   24
C3C
A   25
C4C
A   26
C5C
A   27
C6C
A   28
O2C
A   29
O3C
A   30
O4C
A   31
O5C
A   32
O6C
A   33
C1D
A   34
C2D
A   35
C3D
A   36
C4D
A   37
C5D
A   38
C6D
A   39
O1D
A   40
O2D
A   41
O3D
A   42
O4D
A   43
O5D
A   44
O6D
M  END
