1GAR_U89_A_213
     RDKit          3D

 86 87  0  0  0  0  0  0  0  0999 V2000
   50.7900    2.4340  -12.2400 N   0  0  0  0  0  0  0  0  0  0  0  0
   51.9970    1.8220  -12.8110 C   0  0  0  0  0  0  0  0  0  0  0  0
   51.7570    0.3080  -12.7750 C   0  0  0  0  0  0  0  0  0  0  0  0
   51.8850   -0.0440  -11.3210 C   0  0  0  0  0  0  0  0  0  0  0  0
   51.6320   -1.4890  -11.0180 C   0  0  0  0  0  0  0  0  0  0  0  0
   50.4620   -1.8520  -10.9900 O   0  0  0  0  0  0  0  0  0  0  0  0
   52.5840   -2.2340  -10.7630 O   0  0  0  0  0  0  0  0  0  0  0  0
   52.5050    2.3010  -14.1960 C   0  0  0  0  0  0  0  0  0  0  0  0
   52.6710    3.5180  -14.3420 O   0  0  0  0  0  0  0  0  0  0  0  0
   52.7870    1.5120  -15.1190 O   0  0  0  0  0  0  0  0  0  0  0  0
   49.6120   12.0610   -4.0070 C   0  0  0  0  0  0  0  0  0  0  0  0
   48.0770   12.0260   -3.9520 C   0  0  0  0  0  0  0  0  0  0  0  0
   47.4720   12.8230   -5.0800 C   0  0  0  0  0  0  0  0  0  0  0  0
   47.6320   12.0900   -6.4010 C   0  0  0  0  0  0  0  0  0  0  0  0
   46.8850   10.8430   -6.4250 N   0  0  0  0  0  0  0  0  0  0  0  0
   46.5720   10.2380   -7.5760 C   0  0  0  0  0  0  0  0  0  0  0  0
   46.8360   10.7430   -8.6710 O   0  0  0  0  0  0  0  0  0  0  0  0
   45.8490    8.9010   -7.5170 C   0  0  0  0  0  0  0  0  0  0  0  0
   47.0590    7.5730   -7.5910 S   0  0  0  0  0  0  0  0  0  0  0  0
   46.8540    7.0820   -9.3210 C   0  0  0  0  0  0  0  0  0  0  0  0
   45.5940    6.3190   -9.7940 C   0  0  0  0  0  0  0  0  0  0  0  0
   44.5840    6.9980  -10.0500 O   0  0  0  0  0  0  0  0  0  0  0  0
   45.5890    4.9790  -10.0710 N   0  0  0  0  0  0  0  0  0  0  0  0
   44.3220    4.2550  -10.2850 C   0  0  0  0  0  0  0  0  0  0  0  0
   43.3810    4.2990   -9.0680 C   0  0  0  0  0  0  0  0  0  0  0  0
   43.5480    3.3080   -7.9030 C   0  0  0  0  0  0  0  0  0  0  0  0
   43.2250    1.8410   -8.1970 C   0  0  0  0  0  0  0  0  0  0  0  0
   41.9510    1.4720   -8.6470 C   0  0  0  0  0  0  0  0  0  0  0  0
   40.9940    2.2330   -8.8170 O   0  0  0  0  0  0  0  0  0  0  0  0
   41.8130    0.1090   -8.9020 N   0  0  0  0  0  0  0  0  0  0  0  0
   42.8430   -0.7910   -8.7360 C   0  0  0  0  0  0  0  0  0  0  0  0
   42.6310   -2.0710   -9.0150 N   0  0  0  0  0  0  0  0  0  0  0  0
   44.0290   -0.3880   -8.2860 N   0  0  0  0  0  0  0  0  0  0  0  0
   44.1920    0.9090   -7.9930 C   0  0  0  0  0  0  0  0  0  0  0  0
   45.3770    1.2690   -7.5220 N   0  0  0  0  0  0  0  0  0  0  0  0
   46.6040    4.3540  -10.7300 C   0  0  0  0  0  0  0  0  0  0  0  0
   47.3400    4.9970  -11.6590 C   0  0  0  0  0  0  0  0  0  0  0  0
   48.3380    4.3660  -12.3090 C   0  0  0  0  0  0  0  0  0  0  0  0
   48.6130    3.0830  -12.0410 C   0  0  0  0  0  0  0  0  0  0  0  0
   47.8990    2.4350  -11.1110 C   0  0  0  0  0  0  0  0  0  0  0  0
   46.8970    3.0640  -10.4560 C   0  0  0  0  0  0  0  0  0  0  0  0
   49.5680    2.4140  -12.8040 C   0  0  0  0  0  0  0  0  0  0  0  0
   49.2690    1.8740  -13.8850 O   0  0  0  0  0  0  0  0  0  0  0  0
   50.1590   13.2090   -3.3470 O   0  0  0  0  0  0  0  0  0  0  0  0
   50.6640   13.1070   -1.8350 P   0  0  0  0  0  0  0  0  0  0  0  0
   51.7400   11.9150   -1.8660 O   0  0  0  0  0  0  0  0  0  0  0  0
   49.5270   12.7230   -0.9690 O   0  0  0  0  0  0  0  0  0  0  0  0
   51.3900   14.3420   -1.4820 O   0  0  0  0  0  0  0  0  0  0  0  0
   50.8864    2.9172  -11.3355 H   0  0  0  0  0  0  0  0  0  0  0  0
   52.8388    2.1608  -12.1892 H   0  0  0  0  0  0  0  0  0  0  0  0
   50.7526    0.0620  -13.1502 H   0  0  0  0  0  0  0  0  0  0  0  0
   52.4625   -0.2483  -13.4096 H   0  0  0  0  0  0  0  0  0  0  0  0
   52.9055    0.2042  -10.9938 H   0  0  0  0  0  0  0  0  0  0  0  0
   51.1159    0.5322  -10.7858 H   0  0  0  0  0  0  0  0  0  0  0  0
   50.0081   -1.9928  -10.1215 H   0  0  0  0  0  0  0  0  0  0  0  0
   52.7511    4.1053  -13.5491 H   0  0  0  0  0  0  0  0  0  0  0  0
   50.0031   11.1550   -3.5209 H   0  0  0  0  0  0  0  0  0  0  0  0
   49.9073   12.1119   -5.0654 H   0  0  0  0  0  0  0  0  0  0  0  0
   47.7390   10.9820   -4.0289 H   0  0  0  0  0  0  0  0  0  0  0  0
   47.7527   12.4698   -2.9992 H   0  0  0  0  0  0  0  0  0  0  0  0
   46.4014   12.9770   -4.8798 H   0  0  0  0  0  0  0  0  0  0  0  0
   47.9905   13.7908   -5.1473 H   0  0  0  0  0  0  0  0  0  0  0  0
   47.2688   12.7374   -7.2128 H   0  0  0  0  0  0  0  0  0  0  0  0
   48.6978   11.8505   -6.5302 H   0  0  0  0  0  0  0  0  0  0  0  0
   46.5901   10.4157   -5.5354 H   0  0  0  0  0  0  0  0  0  0  0  0
   45.2817    8.8303   -6.5772 H   0  0  0  0  0  0  0  0  0  0  0  0
   45.1552    8.8175   -8.3665 H   0  0  0  0  0  0  0  0  0  0  0  0
   46.8997    8.0067   -9.9150 H   0  0  0  0  0  0  0  0  0  0  0  0
   47.6504    6.3349   -9.4539 H   0  0  0  0  0  0  0  0  0  0  0  0
   43.8032    4.7061  -11.1437 H   0  0  0  0  0  0  0  0  0  0  0  0
   44.5764    3.1995  -10.4613 H   0  0  0  0  0  0  0  0  0  0  0  0
   43.4732    5.3070   -8.6373 H   0  0  0  0  0  0  0  0  0  0  0  0
   42.4126    4.0055   -9.4993 H   0  0  0  0  0  0  0  0  0  0  0  0
   44.5951    3.3585   -7.5699 H   0  0  0  0  0  0  0  0  0  0  0  0
   42.8106    3.6210   -7.1492 H   0  0  0  0  0  0  0  0  0  0  0  0
   40.9011   -0.2410   -9.2289 H   0  0  0  0  0  0  0  0  0  0  0  0
   42.5181   -2.7527   -8.2512 H   0  0  0  0  0  0  0  0  0  0  0  0
   42.5794   -2.3827   -9.9953 H   0  0  0  0  0  0  0  0  0  0  0  0
   45.5342    1.3168   -6.5052 H   0  0  0  0  0  0  0  0  0  0  0  0
   46.1410    1.5011   -8.1727 H   0  0  0  0  0  0  0  0  0  0  0  0
   47.1230    6.0505  -11.8894 H   0  0  0  0  0  0  0  0  0  0  0  0
   48.9290    4.9070  -13.0627 H   0  0  0  0  0  0  0  0  0  0  0  0
   48.1292    1.3847  -10.8787 H   0  0  0  0  0  0  0  0  0  0  0  0
   46.3167    2.5217   -9.6950 H   0  0  0  0  0  0  0  0  0  0  0  0
   49.7909   12.8121   -0.0190 H   0  0  0  0  0  0  0  0  0  0  0  0
   51.4392   14.4257   -0.4968 H   0  0  0  0  0  0  0  0  0  0  0  0
  1  2  1  0
  1 42  1  0
  2  3  1  0
  2  8  1  0
  3  4  1  0
  4  5  1  0
  5  6  1  0
  5  7  2  0
  8  9  1  0
  8 10  2  0
 11 12  1  0
 11 44  1  0
 12 13  1  0
 13 14  1  0
 14 15  1  0
 15 16  1  0
 16 17  2  0
 16 18  1  0
 18 19  1  0
 19 20  1  0
 20 21  1  0
 21 22  2  0
 21 23  1  0
 23 24  1  0
 23 36  1  0
 24 25  1  0
 25 26  1  0
 26 27  1  0
 27 28  1  0
 27 34  2  0
 28 29  2  0
 28 30  1  0
 30 31  1  0
 31 32  1  0
 31 33  2  0
 33 34  1  0
 34 35  1  0
 36 37  2  0
 36 41  1  0
 37 38  1  0
 38 39  2  0
 39 40  1  0
 39 42  1  0
 40 41  2  0
 42 43  2  0
 44 45  1  0
 45 46  2  0
 45 47  1  0
 45 48  1  0
  1 49  1  0
  2 50  1  0
  3 51  1  0
  3 52  1  0
  4 53  1  0
  4 54  1  0
  6 55  1  0
  9 56  1  0
 11 57  1  0
 11 58  1  0
 12 59  1  0
 12 60  1  0
 13 61  1  0
 13 62  1  0
 14 63  1  0
 14 64  1  0
 15 65  1  0
 18 66  1  0
 18 67  1  0
 20 68  1  0
 20 69  1  0
 24 70  1  0
 24 71  1  0
 25 72  1  0
 25 73  1  0
 26 74  1  0
 26 75  1  0
 30 76  1  0
 32 77  1  0
 32 78  1  0
 35 79  1  0
 35 80  1  0
 37 81  1  0
 38 82  1  0
 40 83  1  0
 41 84  1  0
 47 85  1  0
 48 86  1  0
A    1
N
A    2
CA
A    3
CB
A    4
CG
A    5
CD
A    6
OE1
A    7
OE2
A    8
C
A    9
OT1
A   10
OT2
A   11
C1
A   12
C2
A   13
C3
A   14
C4
A   15
N5
A   16
C6
A   17
O6
A   18
C7
A   19
S
A   20
C8
A   21
C9
A   22
O9
A   23
N10
A   24
C11
A   25
C12
A   26
C13
A   27
C14
A   28
C15
A   29
O15
A   30
N16
A   31
C17
A   32
N18
A   33
N19
A   34
C20
A   35
N21
A   36
C22
A   37
C23
A   38
C24
A   39
C25
A   40
C26
A   41
C27
A   42
C28
A   43
O28
A   44
OP4
A   45
P
A   46
OP1
A   47
OP2
A   48
OP3
M  END
