1GGD_FAF_C_301
     RDKit          3D

 46 46  0  0  0  0  0  0  0  0999 V2000
   31.5080    2.0840   42.0320 C   0  0  0  0  0  0  0  0  0  0  0  0
   30.6660    2.9800   42.1110 O   0  0  0  0  0  0  0  0  0  0  0  0
   32.1850    1.5580   43.2890 C   0  0  0  0  0  0  0  0  0  0  0  0
   31.8720    1.5300   40.8810 N   0  0  0  0  0  0  0  0  0  0  0  0
   31.3140    1.9880   39.6180 C   0  0  0  0  0  0  0  0  0  0  0  0
   32.2020    1.5480   38.4560 C   0  0  0  0  0  0  0  0  0  0  0  0
   33.5960    2.1670   38.4130 C   0  0  0  0  0  0  0  0  0  0  0  0
   34.0640    2.2360   36.9660 C   0  0  0  0  0  0  0  0  0  0  0  0
   33.5790    3.5520   39.0390 C   0  0  0  0  0  0  0  0  0  0  0  0
   29.9050    1.4630   39.4010 C   0  0  0  0  0  0  0  0  0  0  0  0
   29.6170    0.2960   39.6390 O   0  0  0  0  0  0  0  0  0  0  0  0
   29.0250    2.3360   38.9340 N   0  0  0  0  0  0  0  0  0  0  0  0
   27.6430    1.9550   38.6950 C   0  0  0  0  0  0  0  0  0  0  0  0
   26.6950    3.0600   39.1890 C   0  0  0  0  0  0  0  0  0  0  0  0
   26.6600    3.2170   40.7010 C   0  0  0  0  0  0  0  0  0  0  0  0
   27.0500    2.1730   41.5310 C   0  0  0  0  0  0  0  0  0  0  0  0
   26.2360    4.4090   41.2900 C   0  0  0  0  0  0  0  0  0  0  0  0
   27.0210    2.3050   42.9230 C   0  0  0  0  0  0  0  0  0  0  0  0
   26.2010    4.5570   42.6830 C   0  0  0  0  0  0  0  0  0  0  0  0
   26.5950    3.4970   43.5030 C   0  0  0  0  0  0  0  0  0  0  0  0
   27.4750    1.7290   37.2060 C   0  0  0  0  0  0  0  0  0  0  0  0
   26.3130    0.9760   36.9940 O   0  0  0  0  0  0  0  0  0  0  0  0
   31.6716    1.9569   44.1763 H   0  0  0  0  0  0  0  0  0  0  0  0
   32.1354    0.4592   43.2997 H   0  0  0  0  0  0  0  0  0  0  0  0
   33.2375    1.8776   43.2997 H   0  0  0  0  0  0  0  0  0  0  0  0
   32.5604    0.7638   40.8827 H   0  0  0  0  0  0  0  0  0  0  0  0
   31.2705    3.0864   39.6591 H   0  0  0  0  0  0  0  0  0  0  0  0
   32.3195    0.4559   38.5160 H   0  0  0  0  0  0  0  0  0  0  0  0
   31.6935    1.8943   37.5441 H   0  0  0  0  0  0  0  0  0  0  0  0
   34.2945    1.5437   38.9906 H   0  0  0  0  0  0  0  0  0  0  0  0
   35.1519    2.3964   36.9398 H   0  0  0  0  0  0  0  0  0  0  0  0
   33.8201    1.2922   36.4564 H   0  0  0  0  0  0  0  0  0  0  0  0
   33.5581    3.0693   36.4564 H   0  0  0  0  0  0  0  0  0  0  0  0
   33.5801    3.4590   40.1351 H   0  0  0  0  0  0  0  0  0  0  0  0
   34.4704    4.1107   38.7175 H   0  0  0  0  0  0  0  0  0  0  0  0
   32.6742    4.0886   38.7175 H   0  0  0  0  0  0  0  0  0  0  0  0
   29.3253    3.3013   38.7369 H   0  0  0  0  0  0  0  0  0  0  0  0
   27.3958    1.0348   39.2447 H   0  0  0  0  0  0  0  0  0  0  0  0
   27.0190    4.0151   38.7498 H   0  0  0  0  0  0  0  0  0  0  0  0
   25.6807    2.7713   38.8763 H   0  0  0  0  0  0  0  0  0  0  0  0
   27.3876    1.2258   41.0852 H   0  0  0  0  0  0  0  0  0  0  0  0
   25.9238    5.2471   40.6495 H   0  0  0  0  0  0  0  0  0  0  0  0
   27.3353    1.4657   43.5608 H   0  0  0  0  0  0  0  0  0  0  0  0
   25.8645    5.5045   43.1292 H   0  0  0  0  0  0  0  0  0  0  0  0
   26.5689    3.6031   44.5976 H   0  0  0  0  0  0  0  0  0  0  0  0
   28.1533    2.0956   36.4215 H   0  0  0  0  0  0  0  0  0  0  0  0
  1  2  2  0
  1  3  1  0
  1  4  1  0
  4  5  1  0
  5  6  1  0
  5 10  1  0
  6  7  1  0
  7  8  1  0
  7  9  1  0
 10 11  2  0
 10 12  1  0
 12 13  1  0
 13 14  1  0
 13 21  1  0
 14 15  1  0
 15 16  2  0
 15 17  1  0
 16 18  1  0
 17 19  2  0
 18 20  2  0
 19 20  1  0
 21 22  2  0
  3 23  1  0
  3 24  1  0
  3 25  1  0
  4 26  1  0
  5 27  1  0
  6 28  1  0
  6 29  1  0
  7 30  1  0
  8 31  1  0
  8 32  1  0
  8 33  1  0
  9 34  1  0
  9 35  1  0
  9 36  1  0
 12 37  1  0
 13 38  1  0
 14 39  1  0
 14 40  1  0
 16 41  1  0
 17 42  1  0
 18 43  1  0
 19 44  1  0
 20 45  1  0
 21 46  1  0
A    1
CX
A    2
OX
A    3
CAX
A    4
NL
A    5
CAL
A    6
CBL
A    7
CGL
A    8
CDL
A    9
CDM
A   10
C
A   11
O
A   12
N
A   13
CA
A   14
CB
A   15
CG
A   16
CD1
A   17
CD2
A   18
CE1
A   19
CE2
A   20
CZ
A   21
CW
A   22
OW
M  END
