1GHW_BMZ_H_246
     RDKit          3D

 32 34  0  0  0  0  0  0  0  0999 V2000
   11.9400  -11.6230   22.6350 C   0  0  0  0  0  0  0  0  0  0  0  0
   12.3090  -10.3510   22.2020 C   0  0  0  0  0  0  0  0  0  0  0  0
   13.1330  -10.1780   21.1080 C   0  0  0  0  0  0  0  0  0  0  0  0
   13.5670  -11.3000   20.4780 C   0  0  0  0  0  0  0  0  0  0  0  0
   13.2300  -12.5500   20.8730 C   0  0  0  0  0  0  0  0  0  0  0  0
   12.4090  -12.7540   21.9610 C   0  0  0  0  0  0  0  0  0  0  0  0
   11.1050  -11.7470   23.7260 C   0  0  0  0  0  0  0  0  0  0  0  0
   10.4230  -12.8530   23.8610 N   0  0  0  0  0  0  0  0  0  0  0  0
   11.0150  -10.7570   24.5920 N   0  0  0  0  0  0  0  0  0  0  0  0
   14.3270  -11.4430   19.4570 N   0  0  0  0  0  0  0  0  0  0  0  0
   13.7620  -13.4800   20.1240 N   0  0  0  0  0  0  0  0  0  0  0  0
   14.4430  -12.7270   19.2500 C   0  0  0  0  0  0  0  0  0  0  0  0
   15.2270  -13.2350   18.2020 C   0  0  0  0  0  0  0  0  0  0  0  0
   15.2250  -14.6110   17.9170 C   0  0  0  0  0  0  0  0  0  0  0  0
   15.9960  -15.1170   16.8810 C   0  0  0  0  0  0  0  0  0  0  0  0
   16.7850  -14.2600   16.1170 C   0  0  0  0  0  0  0  0  0  0  0  0
   16.7960  -12.8940   16.3950 C   0  0  0  0  0  0  0  0  0  0  0  0
   16.0230  -12.3770   17.4340 C   0  0  0  0  0  0  0  0  0  0  0  0
   16.0550  -11.0250   17.6910 O   0  0  0  0  0  0  0  0  0  0  0  0
   11.9367   -9.4680   22.7421 H   0  0  0  0  0  0  0  0  0  0  0  0
   13.4251   -9.1756   20.7619 H   0  0  0  0  0  0  0  0  0  0  0  0
   12.1334  -13.7680   22.2864 H   0  0  0  0  0  0  0  0  0  0  0  0
   10.2025  -13.2105   24.8015 H   0  0  0  0  0  0  0  0  0  0  0  0
   10.1058  -13.3675   23.0270 H   0  0  0  0  0  0  0  0  0  0  0  0
   10.3936  -10.8423   25.4090 H   0  0  0  0  0  0  0  0  0  0  0  0
   11.5660   -9.8982   24.4515 H   0  0  0  0  0  0  0  0  0  0  0  0
   14.7628  -10.6901   18.9054 H   0  0  0  0  0  0  0  0  0  0  0  0
   14.6070  -15.2923   18.5203 H   0  0  0  0  0  0  0  0  0  0  0  0
   15.9845  -16.1950   16.6626 H   0  0  0  0  0  0  0  0  0  0  0  0
   17.3980  -14.6603   15.2961 H   0  0  0  0  0  0  0  0  0  0  0  0
   17.4192  -12.2189   15.7902 H   0  0  0  0  0  0  0  0  0  0  0  0
   16.0627  -10.6989   18.6257 H   0  0  0  0  0  0  0  0  0  0  0  0
  1  2  2  0
  1  6  1  0
  1  7  1  0
  2  3  1  0
  3  4  2  0
  4  5  1  0
  4 10  1  0
  5  6  2  0
  5 11  1  0
  7  8  1  0
  7  9  2  3
 10 12  1  0
 11 12  2  0
 12 13  1  0
 13 14  2  0
 13 18  1  0
 14 15  1  0
 15 16  2  0
 16 17  1  0
 17 18  2  0
 18 19  1  0
  2 20  1  0
  3 21  1  0
  6 22  1  0
  8 23  1  0
  8 24  1  0
  9 25  1  0
  9 26  1  0
 10 27  1  0
 14 28  1  0
 15 29  1  0
 16 30  1  0
 17 31  1  0
 19 32  1  0
M  CHG  1   9   1
A    1
C1
A    2
C2
A    3
C3
A    4
C4
A    5
C5
A    6
C6
A    7
C7
A    8
N1
A    9
N2
A   10
N3
A   11
N4
A   12
C8
A   13
C1'
A   14
C2'
A   15
C3'
A   16
C4'
A   17
C5'
A   18
C6'
A   19
O6'
M  END
