1GI5_123_A_246
     RDKit          3D

 36 38  0  0  0  0  0  0  0  0999 V2000
   44.1700   -3.0960   25.9870 C   0  0  0  0  0  0  0  0  0  0  0  0
   44.6500   -1.7540   26.0030 C   0  0  0  0  0  0  0  0  0  0  0  0
   44.6240   -0.9960   27.1620 C   0  0  0  0  0  0  0  0  0  0  0  0
   44.1160   -1.5960   28.2960 C   0  0  0  0  0  0  0  0  0  0  0  0
   43.6480   -2.8670   28.3340 C   0  0  0  0  0  0  0  0  0  0  0  0
   43.6580   -3.6620   27.1800 C   0  0  0  0  0  0  0  0  0  0  0  0
   44.2200   -3.8160   24.7770 C   0  0  0  0  0  0  0  0  0  0  0  0
   44.0370   -5.1250   24.7560 N   0  0  0  0  0  0  0  0  0  0  0  0
   44.4400   -3.1380   23.6670 N   0  0  0  0  0  0  0  0  0  0  0  0
   43.9780   -1.1420   29.4850 N   0  0  0  0  0  0  0  0  0  0  0  0
   43.2210   -3.2040   29.5390 N   0  0  0  0  0  0  0  0  0  0  0  0
   43.4560   -2.0790   30.2050 C   0  0  0  0  0  0  0  0  0  0  0  0
   43.1790   -1.8460   31.5650 C   0  0  0  0  0  0  0  0  0  0  0  0
   42.9270   -2.9050   32.4370 C   0  0  0  0  0  0  0  0  0  0  0  0
   42.6480   -2.6550   33.7870 C   0  0  0  0  0  0  0  0  0  0  0  0
   42.3640   -3.6820   34.6710 O   0  0  0  0  0  0  0  0  0  0  0  0
   41.9790   -4.9830   34.2330 C   0  0  0  0  0  0  0  0  0  0  0  0
   42.6270   -1.3480   34.2670 C   0  0  0  0  0  0  0  0  0  0  0  0
   42.8760   -0.2810   33.4110 C   0  0  0  0  0  0  0  0  0  0  0  0
   43.1490   -0.5160   32.0620 C   0  0  0  0  0  0  0  0  0  0  0  0
   43.3580    0.5760   31.2320 O   0  0  0  0  0  0  0  0  0  0  0  0
   45.0485   -1.3121   25.0778 H   0  0  0  0  0  0  0  0  0  0  0  0
   44.9927    0.0403   27.1778 H   0  0  0  0  0  0  0  0  0  0  0  0
   43.2795   -4.6946   27.2002 H   0  0  0  0  0  0  0  0  0  0  0  0
   43.9637   -5.6490   25.6397 H   0  0  0  0  0  0  0  0  0  0  0  0
   43.9677   -5.6209   23.8559 H   0  0  0  0  0  0  0  0  0  0  0  0
   44.4833   -3.6299   22.7631 H   0  0  0  0  0  0  0  0  0  0  0  0
   44.5684   -2.1167   23.7042 H   0  0  0  0  0  0  0  0  0  0  0  0
   44.2366   -0.1992   29.8093 H   0  0  0  0  0  0  0  0  0  0  0  0
   42.9474   -3.9395   32.0637 H   0  0  0  0  0  0  0  0  0  0  0  0
   41.7896   -5.6231   35.1073 H   0  0  0  0  0  0  0  0  0  0  0  0
   41.0640   -4.9100   33.6269 H   0  0  0  0  0  0  0  0  0  0  0  0
   42.7864   -5.4197   33.6269 H   0  0  0  0  0  0  0  0  0  0  0  0
   42.4123   -1.1587   35.3291 H   0  0  0  0  0  0  0  0  0  0  0  0
   42.8579    0.7490   33.7968 H   0  0  0  0  0  0  0  0  0  0  0  0
   43.5290    1.4693   31.6229 H   0  0  0  0  0  0  0  0  0  0  0  0
  1  2  2  0
  1  6  1  0
  1  7  1  0
  2  3  1  0
  3  4  2  0
  4  5  1  0
  4 10  1  0
  5  6  2  0
  5 11  1  0
  7  8  1  0
  7  9  2  3
 10 12  1  0
 11 12  2  0
 12 13  1  0
 13 14  2  0
 13 20  1  0
 14 15  1  0
 15 16  1  0
 15 18  2  0
 16 17  1  0
 18 19  1  0
 19 20  2  0
 20 21  1  0
  2 22  1  0
  3 23  1  0
  6 24  1  0
  8 25  1  0
  8 26  1  0
  9 27  1  0
  9 28  1  0
 10 29  1  0
 14 30  1  0
 17 31  1  0
 17 32  1  0
 17 33  1  0
 18 34  1  0
 19 35  1  0
 21 36  1  0
M  CHG  1   9   1
A    1
C1
A    2
C2
A    3
C3
A    4
C4
A    5
C5
A    6
C6
A    7
C7
A    8
N1
A    9
N2
A   10
N3
A   11
N4
A   12
C8
A   13
C1'
A   14
C2'
A   15
C3'
A   16
O3'
A   17
CM3
A   18
C4'
A   19
C5'
A   20
C6'
A   21
O6'
M  END
