1GIJ_2PU_A_501
     RDKit          3D

 49 53  0  0  0  0  0  0  0  0999 V2000
    5.3140   10.4270   27.5210 C   0  0  0  0  0  0  0  0  0  0  0  0
    6.6380   11.2020   27.2210 C   0  0  0  0  0  0  0  0  0  0  0  0
    4.8190   10.9280   28.7910 C   0  0  0  0  0  0  0  0  0  0  0  0
    4.5780    9.4270   26.8210 C   0  0  0  0  0  0  0  0  0  0  0  0
    6.7720   12.0640   28.4120 N   0  0  0  0  0  0  0  0  0  0  0  0
    8.0240   10.5870   27.1770 C   0  0  0  0  0  0  0  0  0  0  0  0
    5.7620   11.9460   29.3440 C   0  0  0  0  0  0  0  0  0  0  0  0
    3.6050   10.4470   29.3470 C   0  0  0  0  0  0  0  0  0  0  0  0
    3.3500    8.9600   27.3890 C   0  0  0  0  0  0  0  0  0  0  0  0
    4.9930    8.8320   25.5760 N   0  0  0  0  0  0  0  0  0  0  0  0
    8.1410   12.4420   28.7360 C   0  0  0  0  0  0  0  0  0  0  0  0
    8.9220   11.7330   27.6030 C   0  0  0  0  0  0  0  0  0  0  0  0
    5.6200   12.5430   30.4290 O   0  0  0  0  0  0  0  0  0  0  0  0
    2.8670    9.4560   28.6210 C   0  0  0  0  0  0  0  0  0  0  0  0
    4.3400    7.9870   24.7690 C   0  0  0  0  0  0  0  0  0  0  0  0
    4.9720    7.6360   23.6570 N   0  0  0  0  0  0  0  0  0  0  0  0
    3.1860    7.6090   25.0500 O   0  0  0  0  0  0  0  0  0  0  0  0
    6.2870    7.9790   23.3820 C   0  0  0  0  0  0  0  0  0  0  0  0
    7.0980    7.3640   22.4860 C   0  0  0  0  0  0  0  0  0  0  0  0
    6.9680    8.9970   23.9980 N   0  0  0  0  0  0  0  0  0  0  0  0
    8.3310    8.0430   22.5730 C   0  0  0  0  0  0  0  0  0  0  0  0
    8.2200    9.0350   23.5100 N   0  0  0  0  0  0  0  0  0  0  0  0
    9.5910    7.7250   21.8020 C   0  0  0  0  0  0  0  0  0  0  0  0
   10.8730    8.4700   22.2320 C   0  0  0  0  0  0  0  0  0  0  0  0
    9.6260    7.7520   20.3670 N   0  0  0  0  0  0  0  0  0  0  0  0
   11.9120    8.0160   21.1470 C   0  0  0  0  0  0  0  0  0  0  0  0
   11.0410    7.4120   20.0000 C   0  0  0  0  0  0  0  0  0  0  0  0
    6.4702   11.5401   26.1878 H   0  0  0  0  0  0  0  0  0  0  0  0
    8.1035    9.7418   27.8766 H   0  0  0  0  0  0  0  0  0  0  0  0
    8.2843   10.1773   26.1899 H   0  0  0  0  0  0  0  0  0  0  0  0
    3.2391   10.8260   30.3126 H   0  0  0  0  0  0  0  0  0  0  0  0
    2.7677    8.1959   26.8532 H   0  0  0  0  0  0  0  0  0  0  0  0
    5.9362    9.0975   25.2585 H   0  0  0  0  0  0  0  0  0  0  0  0
    8.2779   13.5328   28.6991 H   0  0  0  0  0  0  0  0  0  0  0  0
    8.4601   12.1605   29.7504 H   0  0  0  0  0  0  0  0  0  0  0  0
    9.8856   11.3538   27.9742 H   0  0  0  0  0  0  0  0  0  0  0  0
    9.1551   12.4119   26.7695 H   0  0  0  0  0  0  0  0  0  0  0  0
    1.9166    9.0783   29.0261 H   0  0  0  0  0  0  0  0  0  0  0  0
    4.4581    7.0784   22.9600 H   0  0  0  0  0  0  0  0  0  0  0  0
    6.8476    6.5164   21.8311 H   0  0  0  0  0  0  0  0  0  0  0  0
    8.9620    9.6920   23.7905 H   0  0  0  0  0  0  0  0  0  0  0  0
    9.5600    6.6707   22.1142 H   0  0  0  0  0  0  0  0  0  0  0  0
   10.7256    9.5598   22.2094 H   0  0  0  0  0  0  0  0  0  0  0  0
   11.1872    8.2425   23.2613 H   0  0  0  0  0  0  0  0  0  0  0  0
    8.9747    7.0559   19.9769 H   0  0  0  0  0  0  0  0  0  0  0  0
   12.4937    8.8753   20.7821 H   0  0  0  0  0  0  0  0  0  0  0  0
   12.6415    7.2940   21.5427 H   0  0  0  0  0  0  0  0  0  0  0  0
   11.1751    6.3215   19.9459 H   0  0  0  0  0  0  0  0  0  0  0  0
   11.3200    7.8128   19.0143 H   0  0  0  0  0  0  0  0  0  0  0  0
  1  2  1  0
  1  3  2  0
  1  4  1  0
  2  5  1  0
  2  6  1  0
  3  7  1  0
  3  8  1  0
  4  9  2  0
  4 10  1  0
  5  7  1  0
  5 11  1  0
  6 12  1  0
  7 13  2  0
  8 14  2  0
  9 14  1  0
 10 15  1  0
 11 12  1  0
 15 16  1  0
 15 17  2  0
 16 18  1  0
 18 19  1  0
 18 20  2  0
 19 21  2  0
 20 22  1  0
 21 22  1  0
 21 23  1  0
 23 24  1  0
 23 25  1  0
 24 26  1  0
 25 27  1  0
 26 27  1  0
  2 28  1  0
  6 29  1  0
  6 30  1  0
  8 31  1  0
  9 32  1  0
 10 33  1  0
 11 34  1  0
 11 35  1  0
 12 36  1  0
 12 37  1  0
 14 38  1  0
 16 39  1  0
 19 40  1  0
 22 41  1  0
 23 42  1  0
 24 43  1  0
 24 44  1  0
 25 45  1  0
 26 46  1  0
 26 47  1  0
 27 48  1  0
 27 49  1  0
A    1
C1
A    2
C2
A    3
C3
A    4
C4
A    5
N5
A    6
C6
A    7
C7
A    8
C8
A    9
C9
A   10
N10
A   11
C11
A   12
C12
A   13
O13
A   14
C14
A   15
C15
A   16
N16
A   17
O17
A   18
C18
A   19
C19
A   20
N20
A   21
C21
A   22
N22
A   23
C23
A   24
C24
A   25
N25
A   26
C26
A   27
C27
M  END
