1GKA_AXT_A_1182
     RDKit          3D

 96 97  0  0  0  0  0  0  0  0999 V2000
   45.6840   74.7440   25.2270 C   0  0  0  0  0  0  0  0  0  0  0  0
   46.1580   74.3890   26.6370 C   0  0  0  0  0  0  0  0  0  0  0  0
   47.3090   73.4150   26.6090 C   0  0  0  0  0  0  0  0  0  0  0  0
   48.4530   74.0880   25.8280 C   0  0  0  0  0  0  0  0  0  0  0  0
   48.1420   74.9750   24.7050 C   0  0  0  0  0  0  0  0  0  0  0  0
   46.8470   75.2900   24.3560 C   0  0  0  0  0  0  0  0  0  0  0  0
   46.6700   76.1340   23.1910 C   0  0  0  0  0  0  0  0  0  0  0  0
   45.4520   76.4390   22.6110 C   0  0  0  0  0  0  0  0  0  0  0  0
   45.3390   77.2670   21.5240 C   0  0  0  0  0  0  0  0  0  0  0  0
   44.0380   77.5520   21.1110 C   0  0  0  0  0  0  0  0  0  0  0  0
   43.6600   78.4210   20.0510 C   0  0  0  0  0  0  0  0  0  0  0  0
   42.2910   78.5790   19.8980 C   0  0  0  0  0  0  0  0  0  0  0  0
   41.6450   79.4100   18.9590 C   0  0  0  0  0  0  0  0  0  0  0  0
   40.2350   79.4460   19.0350 C   0  0  0  0  0  0  0  0  0  0  0  0
   39.4000   80.2750   18.2170 C   0  0  0  0  0  0  0  0  0  0  0  0
   44.6000   75.7640   25.4530 C   0  0  0  0  0  0  0  0  0  0  0  0
   45.0570   73.5080   24.6180 C   0  0  0  0  0  0  0  0  0  0  0  0
   49.2420   75.5840   23.8710 C   0  0  0  0  0  0  0  0  0  0  0  0
   46.5560   77.8740   20.8750 C   0  0  0  0  0  0  0  0  0  0  0  0
   42.4040   80.2650   17.9440 C   0  0  0  0  0  0  0  0  0  0  0  0
   47.7260   73.0730   27.9550 O   0  0  0  0  0  0  0  0  0  0  0  0
   49.6220   73.8400   26.1400 O   0  0  0  0  0  0  0  0  0  0  0  0
   32.0880   87.4860   12.6600 C   0  0  0  0  0  0  0  0  0  0  0  0
   31.4830   88.8390   12.3910 C   0  0  0  0  0  0  0  0  0  0  0  0
   30.2260   88.7540   11.5580 C   0  0  0  0  0  0  0  0  0  0  0  0
   29.2570   87.9690   12.2460 C   0  0  0  0  0  0  0  0  0  0  0  0
   29.6780   86.9300   13.1110 C   0  0  0  0  0  0  0  0  0  0  0  0
   31.0490   86.6510   13.3280 C   0  0  0  0  0  0  0  0  0  0  0  0
   31.3480   85.5680   14.1700 C   0  0  0  0  0  0  0  0  0  0  0  0
   32.5900   85.0600   14.4950 C   0  0  0  0  0  0  0  0  0  0  0  0
   32.6680   83.9960   15.3730 C   0  0  0  0  0  0  0  0  0  0  0  0
   33.8830   83.5280   15.7000 C   0  0  0  0  0  0  0  0  0  0  0  0
   34.0570   82.4880   16.5790 C   0  0  0  0  0  0  0  0  0  0  0  0
   35.3340   82.1830   16.7400 C   0  0  0  0  0  0  0  0  0  0  0  0
   35.8240   81.2300   17.5820 C   0  0  0  0  0  0  0  0  0  0  0  0
   37.2380   81.1090   17.5900 C   0  0  0  0  0  0  0  0  0  0  0  0
   38.0080   80.2440   18.3770 C   0  0  0  0  0  0  0  0  0  0  0  0
   33.2780   87.7930   13.5080 C   0  0  0  0  0  0  0  0  0  0  0  0
   32.5440   86.7850   11.4080 C   0  0  0  0  0  0  0  0  0  0  0  0
   28.6050   86.0880   13.8080 C   0  0  0  0  0  0  0  0  0  0  0  0
   31.4140   83.3860   15.9530 C   0  0  0  0  0  0  0  0  0  0  0  0
   34.9010   80.4120   18.4400 C   0  0  0  0  0  0  0  0  0  0  0  0
   28.0860   88.2230   12.0320 O   0  0  0  0  0  0  0  0  0  0  0  0
   29.6630   90.0320   11.3750 O   0  0  0  0  0  0  0  0  0  0  0  0
   46.4814   75.3086   27.1466 H   0  0  0  0  0  0  0  0  0  0  0  0
   45.3210   73.9160   27.1716 H   0  0  0  0  0  0  0  0  0  0  0  0
   47.0124   72.4749   26.1210 H   0  0  0  0  0  0  0  0  0  0  0  0
   47.5729   76.5646   22.7334 H   0  0  0  0  0  0  0  0  0  0  0  0
   44.5384   76.0002   23.0384 H   0  0  0  0  0  0  0  0  0  0  0  0
   43.2238   77.0556   21.6593 H   0  0  0  0  0  0  0  0  0  0  0  0
   44.3933   78.9264   19.4054 H   0  0  0  0  0  0  0  0  0  0  0  0
   41.6458   77.9998   20.5749 H   0  0  0  0  0  0  0  0  0  0  0  0
   39.7446   78.7933   19.7722 H   0  0  0  0  0  0  0  0  0  0  0  0
   39.8519   80.9362   17.4629 H   0  0  0  0  0  0  0  0  0  0  0  0
   44.4494   75.9057   26.5334 H   0  0  0  0  0  0  0  0  0  0  0  0
   44.8948   76.7199   24.9954 H   0  0  0  0  0  0  0  0  0  0  0  0
   43.6638   75.4117   24.9954 H   0  0  0  0  0  0  0  0  0  0  0  0
   44.7164   72.8366   25.4200 H   0  0  0  0  0  0  0  0  0  0  0  0
   44.1985   73.8010   23.9958 H   0  0  0  0  0  0  0  0  0  0  0  0
   45.8005   72.9883   23.9958 H   0  0  0  0  0  0  0  0  0  0  0  0
   50.0109   76.0097   24.5326 H   0  0  0  0  0  0  0  0  0  0  0  0
   49.6936   74.8074   23.2362 H   0  0  0  0  0  0  0  0  0  0  0  0
   48.8235   76.3789   23.2362 H   0  0  0  0  0  0  0  0  0  0  0  0
   47.2518   78.2211   21.6531 H   0  0  0  0  0  0  0  0  0  0  0  0
   47.0531   77.1183   20.2491 H   0  0  0  0  0  0  0  0  0  0  0  0
   46.2514   78.7257   20.2491 H   0  0  0  0  0  0  0  0  0  0  0  0
   43.0431   80.9850   18.4761 H   0  0  0  0  0  0  0  0  0  0  0  0
   43.0292   79.6163   17.3128 H   0  0  0  0  0  0  0  0  0  0  0  0
   41.6858   80.8089   17.3128 H   0  0  0  0  0  0  0  0  0  0  0  0
   47.1510   73.5446   28.6085 H   0  0  0  0  0  0  0  0  0  0  0  0
   31.2378   89.3135   13.3526 H   0  0  0  0  0  0  0  0  0  0  0  0
   32.2198   89.4288   11.8259 H   0  0  0  0  0  0  0  0  0  0  0  0
   30.4920   88.3112   10.5868 H   0  0  0  0  0  0  0  0  0  0  0  0
   30.4856   85.0613   14.6276 H   0  0  0  0  0  0  0  0  0  0  0  0
   33.5027   85.4953   14.0619 H   0  0  0  0  0  0  0  0  0  0  0  0
   34.7706   83.9944   15.2476 H   0  0  0  0  0  0  0  0  0  0  0  0
   33.2319   81.9695   17.0892 H   0  0  0  0  0  0  0  0  0  0  0  0
   36.0643   82.7479   16.1420 H   0  0  0  0  0  0  0  0  0  0  0  0
   37.7896   81.7670   16.9024 H   0  0  0  0  0  0  0  0  0  0  0  0
   37.5351   79.5614   19.0984 H   0  0  0  0  0  0  0  0  0  0  0  0
   32.9999   87.7213   14.5698 H   0  0  0  0  0  0  0  0  0  0  0  0
   34.0798   87.0723   13.2894 H   0  0  0  0  0  0  0  0  0  0  0  0
   33.6310   88.8116   13.2894 H   0  0  0  0  0  0  0  0  0  0  0  0
   33.1253   85.8914   11.6791 H   0  0  0  0  0  0  0  0  0  0  0  0
   31.6671   86.4860   10.8151 H   0  0  0  0  0  0  0  0  0  0  0  0
   33.1728   87.4655   10.8151 H   0  0  0  0  0  0  0  0  0  0  0  0
   28.7194   86.1778   14.8983 H   0  0  0  0  0  0  0  0  0  0  0  0
   27.6080   86.4473   13.5131 H   0  0  0  0  0  0  0  0  0  0  0  0
   28.7170   85.0342   13.5131 H   0  0  0  0  0  0  0  0  0  0  0  0
   31.4677   83.4121   17.0514 H   0  0  0  0  0  0  0  0  0  0  0  0
   30.5376   83.9585   15.6150 H   0  0  0  0  0  0  0  0  0  0  0  0
   31.3234   82.3431   15.6150 H   0  0  0  0  0  0  0  0  0  0  0  0
   35.1190   80.6052   19.5007 H   0  0  0  0  0  0  0  0  0  0  0  0
   33.8584   80.6881   18.2237 H   0  0  0  0  0  0  0  0  0  0  0  0
   35.0498   79.3438   18.2237 H   0  0  0  0  0  0  0  0  0  0  0  0
   29.4822   90.4424   12.2576 H   0  0  0  0  0  0  0  0  0  0  0  0
  1  2  1  0
  1  6  1  0
  1 16  1  0
  1 17  1  0
  2  3  1  0
  3  4  1  0
  3 21  1  0
  4  5  1  0
  4 22  2  0
  5  6  2  0
  5 18  1  0
  6  7  1  0
  7  8  2  0
  8  9  1  0
  9 10  2  0
  9 19  1  0
 10 11  1  0
 11 12  2  0
 12 13  1  0
 13 14  2  0
 13 20  1  0
 14 15  1  0
 15 37  2  0
 23 24  1  0
 23 28  1  0
 23 38  1  0
 23 39  1  0
 24 25  1  0
 25 26  1  0
 25 44  1  0
 26 27  1  0
 26 43  2  0
 27 28  2  0
 27 40  1  0
 28 29  1  0
 29 30  2  0
 30 31  1  0
 31 32  2  0
 31 41  1  0
 32 33  1  0
 33 34  2  0
 34 35  1  0
 35 36  2  0
 35 42  1  0
 36 37  1  0
  2 45  1  0
  2 46  1  0
  3 47  1  0
  7 48  1  0
  8 49  1  0
 10 50  1  0
 11 51  1  0
 12 52  1  0
 14 53  1  0
 15 54  1  0
 16 55  1  0
 16 56  1  0
 16 57  1  0
 17 58  1  0
 17 59  1  0
 17 60  1  0
 18 61  1  0
 18 62  1  0
 18 63  1  0
 19 64  1  0
 19 65  1  0
 19 66  1  0
 20 67  1  0
 20 68  1  0
 20 69  1  0
 21 70  1  0
 24 71  1  0
 24 72  1  0
 25 73  1  0
 29 74  1  0
 30 75  1  0
 32 76  1  0
 33 77  1  0
 34 78  1  0
 36 79  1  0
 37 80  1  0
 38 81  1  0
 38 82  1  0
 38 83  1  0
 39 84  1  0
 39 85  1  0
 39 86  1  0
 40 87  1  0
 40 88  1  0
 40 89  1  0
 41 90  1  0
 41 91  1  0
 41 92  1  0
 42 93  1  0
 42 94  1  0
 42 95  1  0
 44 96  1  0
A    1
C1
A    2
C2
A    3
C3
A    4
C4
A    5
C5
A    6
C6
A    7
C7
A    8
C8
A    9
C9
A   10
C10
A   11
C11
A   12
C12
A   13
C13
A   14
C14
A   15
C15
A   16
C16
A   17
C17
A   18
C18
A   19
C19
A   20
C20
A   21
O3
A   22
O4
A   23
C21
A   24
C22
A   25
C23
A   26
C24
A   27
C25
A   28
C26
A   29
C27
A   30
C28
A   31
C29
A   32
C30
A   33
C31
A   34
C32
A   35
C33
A   36
C34
A   37
C35
A   38
C36
A   39
C37
A   40
C38
A   41
C39
A   42
C40
A   43
O24
A   44
O23
M  END
