1GM8_SOX_B_1559
     RDKit          3D

 44 46  0  0  0  0  0  0  0  0999 V2000
   11.7930   -2.1560    2.0530 O   0  0  0  0  0  0  0  0  0  0  0  0
   12.8370   -2.6800    2.3630 C   0  0  0  0  0  0  0  0  0  0  0  0
   13.1500   -3.9790    2.7790 N   0  0  0  0  0  0  0  0  0  0  0  0
   12.3530   -5.0080    3.3790 C   0  0  0  0  0  0  0  0  0  0  0  0
   12.1060   -6.2040    2.4480 C   0  0  0  0  0  0  0  0  0  0  0  0
   12.4880   -6.2830    1.3210 O   0  0  0  0  0  0  0  0  0  0  0  0
   11.4180   -7.1670    3.1260 O   0  0  0  0  0  0  0  0  0  0  0  0
   13.1470   -5.3640    4.6560 C   0  0  0  0  0  0  0  0  0  0  0  0
   14.0770   -6.6000    4.5160 C   0  0  0  0  0  0  0  0  0  0  0  0
   12.2410   -5.6410    5.8740 C   0  0  0  0  0  0  0  0  0  0  0  0
   14.1410   -3.8690    5.0030 S   0  0  0  0  0  0  0  0  0  0  0  0
   14.4550   -3.5580    3.2470 C   0  0  0  0  0  0  0  0  0  0  0  0
   14.2560   -2.1940    2.5600 C   0  0  0  0  0  0  0  0  0  0  0  0
   14.3180   -0.9860    3.3330 N   0  0  0  0  0  0  0  0  0  0  0  0
   14.9890    0.1200    2.9310 C   0  0  0  0  0  0  0  0  0  0  0  0
   15.6650    0.3130    1.9230 O   0  0  0  0  0  0  0  0  0  0  0  0
   14.9000    1.2820    3.9200 C   0  0  0  0  0  0  0  0  0  0  0  0
   16.3010    1.7990    4.2240 C   0  0  0  0  0  0  0  0  0  0  0  0
   16.8270    2.9210    3.6010 C   0  0  0  0  0  0  0  0  0  0  0  0
   18.0650    3.4310    4.0050 C   0  0  0  0  0  0  0  0  0  0  0  0
   18.8150    2.7570    4.9800 C   0  0  0  0  0  0  0  0  0  0  0  0
   18.3160    1.6020    5.5910 C   0  0  0  0  0  0  0  0  0  0  0  0
   17.0490    1.1580    5.2140 C   0  0  0  0  0  0  0  0  0  0  0  0
   13.2820   -2.7090    5.3380 O   0  0  0  0  0  0  0  0  0  0  0  0
   11.3274   -4.6794    3.6030 H   0  0  0  0  0  0  0  0  0  0  0  0
   11.4161   -7.1697    4.1160 H   0  0  0  0  0  0  0  0  0  0  0  0
   14.3528   -6.9665    5.5158 H   0  0  0  0  0  0  0  0  0  0  0  0
   13.5508   -7.3945    3.9665 H   0  0  0  0  0  0  0  0  0  0  0  0
   14.9861   -6.3144    3.9665 H   0  0  0  0  0  0  0  0  0  0  0  0
   12.8086   -5.4675    6.8002 H   0  0  0  0  0  0  0  0  0  0  0  0
   11.3717   -4.9676    5.8451 H   0  0  0  0  0  0  0  0  0  0  0  0
   11.8969   -6.6854    5.8451 H   0  0  0  0  0  0  0  0  0  0  0  0
   15.1130   -4.0092    5.9582 H   0  0  0  0  0  0  0  0  0  0  0  0
   15.4801   -3.9186    3.0760 H   0  0  0  0  0  0  0  0  0  0  0  0
   14.9555   -1.8602    1.7794 H   0  0  0  0  0  0  0  0  0  0  0  0
   13.8278   -0.9588    4.2385 H   0  0  0  0  0  0  0  0  0  0  0  0
   14.2977    2.0913    3.4816 H   0  0  0  0  0  0  0  0  0  0  0  0
   14.4270    0.9358    4.8508 H   0  0  0  0  0  0  0  0  0  0  0  0
   16.2699    3.4102    2.7884 H   0  0  0  0  0  0  0  0  0  0  0  0
   18.4501    4.3597    3.5586 H   0  0  0  0  0  0  0  0  0  0  0  0
   19.8053    3.1405    5.2669 H   0  0  0  0  0  0  0  0  0  0  0  0
   18.9050    1.0604    6.3458 H   0  0  0  0  0  0  0  0  0  0  0  0
   16.6248    0.2740    5.7127 H   0  0  0  0  0  0  0  0  0  0  0  0
   13.2163   -2.6202    6.3218 H   0  0  0  0  0  0  0  0  0  0  0  0
  1  2  2  0
  2  3  1  0
  2 13  1  0
  3  4  1  0
  3 12  1  0
  4  5  1  0
  4  8  1  0
  5  6  2  0
  5  7  1  0
  8  9  1  0
  8 10  1  0
  8 11  1  0
 11 12  1  0
 11 24  1  0
 12 13  1  0
 13 14  1  0
 14 15  1  0
 15 16  2  0
 15 17  1  0
 17 18  1  0
 18 19  2  0
 18 23  1  0
 19 20  1  0
 20 21  2  0
 21 22  1  0
 22 23  2  0
  4 25  1  0
  7 26  1  0
  9 27  1  0
  9 28  1  0
  9 29  1  0
 10 30  1  0
 10 31  1  0
 10 32  1  0
 11 33  1  0
 12 34  1  0
 13 35  1  0
 14 36  1  0
 17 37  1  0
 17 38  1  0
 19 39  1  0
 20 40  1  0
 21 41  1  0
 22 42  1  0
 23 43  1  0
 24 44  1  0
A    1
O8
A    2
C7
A    3
N4
A    4
C3
A    5
C11
A    6
O13
A    7
O12
A    8
C2
A    9
C10
A   10
C9
A   11
S1
A   12
C5
A   13
C6
A   14
N14
A   15
C15
A   16
O16
A   17
C17
A   18
C18
A   19
C19
A   20
C20
A   21
C21
A   22
C22
A   23
C23
A   24
O5
M  END
