1GPN_HUB_A_1538
     RDKit          3D

 39 42  0  0  0  0  0  0  0  0999 V2000
    1.0680   68.7710   61.1630 C   0  0  0  0  0  0  0  0  0  0  0  0
    0.4400   69.2080   60.1960 O   0  0  0  0  0  0  0  0  0  0  0  0
    2.3530   68.2650   60.9830 N   0  0  0  0  0  0  0  0  0  0  0  0
    0.5440   68.7450   62.5170 C   0  0  0  0  0  0  0  0  0  0  0  0
    1.3020   68.2450   63.5450 C   0  0  0  0  0  0  0  0  0  0  0  0
    2.6350   67.7280   63.3560 C   0  0  0  0  0  0  0  0  0  0  0  0
    3.1490   67.7340   62.0130 C   0  0  0  0  0  0  0  0  0  0  0  0
    4.5200   67.2110   61.6300 C   0  0  0  0  0  0  0  0  0  0  0  0
    5.3120   66.5280   62.8520 C   0  0  0  0  0  0  0  0  0  0  0  0
    4.8890   65.0460   63.0240 C   0  0  0  0  0  0  0  0  0  0  0  0
    5.1250   69.4560   65.4310 C   0  0  0  0  0  0  0  0  0  0  0  0
    5.4320   68.7380   64.1060 C   0  0  0  0  0  0  0  0  0  0  0  0
    5.0240   67.2560   64.1870 C   0  0  0  0  0  0  0  0  0  0  0  0
    3.5160   67.1410   64.5690 C   0  0  0  0  0  0  0  0  0  0  0  0
    3.2390   67.8790   65.8580 N   0  0  0  0  0  0  0  0  0  0  0  0
    3.1120   65.6420   64.7490 C   0  0  0  0  0  0  0  0  0  0  0  0
    3.8870   64.6480   63.8920 C   0  0  0  0  0  0  0  0  0  0  0  0
    3.4650   63.2140   64.0870 C   0  0  0  0  0  0  0  0  0  0  0  0
    3.6510   69.3860   65.8010 C   0  0  0  0  0  0  0  0  0  0  0  0
    2.7466   68.2809   60.0313 H   0  0  0  0  0  0  0  0  0  0  0  0
   -0.4669   69.1286   62.7195 H   0  0  0  0  0  0  0  0  0  0  0  0
    0.8743   68.2380   64.5584 H   0  0  0  0  0  0  0  0  0  0  0  0
    4.3968   66.4624   60.8335 H   0  0  0  0  0  0  0  0  0  0  0  0
    5.1156   68.0758   61.3022 H   0  0  0  0  0  0  0  0  0  0  0  0
    6.3832   66.5963   62.6113 H   0  0  0  0  0  0  0  0  0  0  0  0
    5.4074   64.2783   62.4308 H   0  0  0  0  0  0  0  0  0  0  0  0
    5.7131   68.9850   66.2324 H   0  0  0  0  0  0  0  0  0  0  0  0
    5.3894   70.5165   65.3067 H   0  0  0  0  0  0  0  0  0  0  0  0
    4.8718   69.2235   63.2933 H   0  0  0  0  0  0  0  0  0  0  0  0
    6.5130   68.7986   63.9114 H   0  0  0  0  0  0  0  0  0  0  0  0
    5.6250   66.7680   64.9684 H   0  0  0  0  0  0  0  0  0  0  0  0
    2.2303   67.8221   66.0583 H   0  0  0  0  0  0  0  0  0  0  0  0
    3.2671   65.3732   65.8043 H   0  0  0  0  0  0  0  0  0  0  0  0
    2.0638   65.5697   64.4235 H   0  0  0  0  0  0  0  0  0  0  0  0
    3.4002   62.9939   65.1628 H   0  0  0  0  0  0  0  0  0  0  0  0
    2.4818   63.0544   63.6202 H   0  0  0  0  0  0  0  0  0  0  0  0
    4.2050   62.5473   63.6202 H   0  0  0  0  0  0  0  0  0  0  0  0
    3.4899   69.8546   66.7831 H   0  0  0  0  0  0  0  0  0  0  0  0
    3.0438   69.9205   65.0556 H   0  0  0  0  0  0  0  0  0  0  0  0
  1  2  2  0
  1  3  1  0
  1  4  1  0
  3  7  1  0
  4  5  2  0
  5  6  1  0
  6  7  2  0
  6 14  1  0
  7  8  1  0
  8  9  1  0
  9 10  1  0
  9 13  1  0
 10 17  2  0
 11 12  1  0
 11 19  1  0
 12 13  1  0
 13 14  1  0
 14 15  1  0
 14 16  1  0
 15 19  1  0
 16 17  1  0
 17 18  1  0
  3 20  1  0
  4 21  1  0
  5 22  1  0
  8 23  1  0
  8 24  1  0
  9 25  1  0
 10 26  1  0
 11 27  1  0
 11 28  1  0
 12 29  1  0
 12 30  1  0
 13 31  1  0
 15 32  1  0
 16 33  1  0
 16 34  1  0
 18 35  1  0
 18 36  1  0
 18 37  1  0
 19 38  1  0
 19 39  1  0
A    1
C1
A    2
O1
A    3
N1
A    4
C2
A    5
C3
A    6
C4
A    7
C5
A    8
C6
A    9
C7
A   10
C8
A   11
C9
A   12
C10
A   13
C11
A   14
C12
A   15
N2
A   16
C13
A   17
C14
A   18
C15
A   19
C90
M  END
