1GPU_THD_A_1682
     RDKit          3D

 52 53  0  0  0  0  0  0  0  0999 V2000
   -3.0410   61.4540   19.8480 N   0  0  0  0  0  0  0  0  0  0  0  0
   -2.1840   60.4700   20.1880 C   0  0  0  0  0  0  0  0  0  0  0  0
   -0.8730   60.8380   20.6820 C   0  0  0  0  0  0  0  0  0  0  0  0
   -2.5320   59.1960   20.0710 N   0  0  0  0  0  0  0  0  0  0  0  0
   -3.8030   58.8400   19.5980 C   0  0  0  0  0  0  0  0  0  0  0  0
   -4.0190   57.5280   19.5350 N   0  0  0  0  0  0  0  0  0  0  0  0
   -4.7750   59.8640   19.2190 C   0  0  0  0  0  0  0  0  0  0  0  0
   -4.3140   61.1470   19.3730 C   0  0  0  0  0  0  0  0  0  0  0  0
   -6.1950   59.5940   18.6890 C   0  0  0  0  0  0  0  0  0  0  0  0
   -6.1120   58.6800   17.4270 N   0  0  0  0  0  0  0  0  0  0  0  0
   -6.2280   57.2850   17.3580 C   0  0  0  0  0  0  0  0  0  0  0  0
   -5.9730   56.7220   15.7560 S   0  0  0  0  0  0  0  0  0  0  0  0
   -5.7520   58.2990   15.1890 C   0  0  0  0  0  0  0  0  0  0  0  0
   -5.8560   59.2110   16.2080 C   0  0  0  0  0  0  0  0  0  0  0  0
   -5.7080   60.6840   16.0200 C   0  0  0  0  0  0  0  0  0  0  0  0
   -5.4680   58.5950   13.7300 C   0  0  0  0  0  0  0  0  0  0  0  0
   -5.6210   57.4640   12.8010 C   0  0  0  0  0  0  0  0  0  0  0  0
   -4.7980   57.7780   11.6770 O   0  0  0  0  0  0  0  0  0  0  0  0
   -3.6990   56.7630   11.3030 P   0  0  0  0  0  0  0  0  0  0  0  0
   -2.5380   56.6170   12.2500 O   0  0  0  0  0  0  0  0  0  0  0  0
   -3.4330   57.2890    9.9960 O   0  0  0  0  0  0  0  0  0  0  0  0
   -4.4020   55.3930   10.8200 O   0  0  0  0  0  0  0  0  0  0  0  0
   -5.6390   54.7350   10.0250 P   0  0  0  0  0  0  0  0  0  0  0  0
   -4.9780   54.7120    8.7300 O   0  0  0  0  0  0  0  0  0  0  0  0
   -5.7980   53.3950   10.5730 O   0  0  0  0  0  0  0  0  0  0  0  0
   -6.8490   55.5750   10.2090 O   0  0  0  0  0  0  0  0  0  0  0  0
   -6.6210   56.7020   18.4190 C   0  0  0  0  0  0  0  0  0  0  0  0
   -6.9470   57.1260   19.5530 O   0  0  0  0  0  0  0  0  0  0  0  0
   -6.6590   55.2760   18.1520 C   0  0  0  0  0  0  0  0  0  0  0  0
   -5.6790   54.6120   18.9270 O   0  0  0  0  0  0  0  0  0  0  0  0
   -0.8817   60.8356   21.7820 H   0  0  0  0  0  0  0  0  0  0  0  0
   -0.1281   60.1142   20.3196 H   0  0  0  0  0  0  0  0  0  0  0  0
   -0.6136   61.8437   20.3196 H   0  0  0  0  0  0  0  0  0  0  0  0
   -4.1094   56.9788   20.4016 H   0  0  0  0  0  0  0  0  0  0  0  0
   -4.0957   57.0621   18.6196 H   0  0  0  0  0  0  0  0  0  0  0  0
   -4.9851   61.9771   19.1073 H   0  0  0  0  0  0  0  0  0  0  0  0
   -6.7880   59.0918   19.4675 H   0  0  0  0  0  0  0  0  0  0  0  0
   -6.6748   60.5470   18.4216 H   0  0  0  0  0  0  0  0  0  0  0  0
   -5.6586   61.1759   17.0026 H   0  0  0  0  0  0  0  0  0  0  0  0
   -4.7845   60.8911   15.4594 H   0  0  0  0  0  0  0  0  0  0  0  0
   -6.5718   61.0707   15.4594 H   0  0  0  0  0  0  0  0  0  0  0  0
   -6.1559   59.3906   13.4079 H   0  0  0  0  0  0  0  0  0  0  0  0
   -4.4049   58.8740   13.6853 H   0  0  0  0  0  0  0  0  0  0  0  0
   -5.2847   56.5297   13.2744 H   0  0  0  0  0  0  0  0  0  0  0  0
   -6.6710   57.3159   12.5086 H   0  0  0  0  0  0  0  0  0  0  0  0
   -2.8661   56.6583   13.1831 H   0  0  0  0  0  0  0  0  0  0  0  0
   -5.7926   53.4401   11.5620 H   0  0  0  0  0  0  0  0  0  0  0  0
   -7.0229   55.6958   11.1761 H   0  0  0  0  0  0  0  0  0  0  0  0
   -6.6030   56.6787   20.3664 H   0  0  0  0  0  0  0  0  0  0  0  0
   -7.6540   54.8837   18.4091 H   0  0  0  0  0  0  0  0  0  0  0  0
   -6.4538   55.1029   17.0853 H   0  0  0  0  0  0  0  0  0  0  0  0
   -5.8737   54.7439   19.8887 H   0  0  0  0  0  0  0  0  0  0  0  0
  1  2  2  0
  1  8  1  0
  2  3  1  0
  2  4  1  0
  4  5  2  0
  5  6  1  0
  5  7  1  0
  7  8  2  0
  7  9  1  0
  9 10  1  0
 10 11  1  0
 10 14  1  0
 11 12  1  0
 11 27  2  0
 12 13  1  0
 13 14  2  0
 13 16  1  0
 14 15  1  0
 16 17  1  0
 17 18  1  0
 18 19  1  0
 19 20  1  0
 19 21  2  0
 19 22  1  0
 22 23  1  0
 23 24  2  0
 23 25  1  0
 23 26  1  0
 27 28  1  0
 27 29  1  0
 29 30  1  0
  3 31  1  0
  3 32  1  0
  3 33  1  0
  6 34  1  0
  6 35  1  0
  8 36  1  0
  9 37  1  0
  9 38  1  0
 15 39  1  0
 15 40  1  0
 15 41  1  0
 16 42  1  0
 16 43  1  0
 17 44  1  0
 17 45  1  0
 20 46  1  0
 25 47  1  0
 26 48  1  0
 28 49  1  0
 29 50  1  0
 29 51  1  0
 30 52  1  0
A    1
N1'
A    2
C2'
A    3
CM2
A    4
N3'
A    5
C4'
A    6
N4'
A    7
C5'
A    8
C6'
A    9
C7'
A   10
N3
A   11
C2
A   12
S1
A   13
C5
A   14
C4
A   15
CM4
A   16
C6
A   17
C7
A   18
O7
A   19
PA
A   20
O1A
A   21
O2A
A   22
O3A
A   23
PB
A   24
O1B
A   25
O2B
A   26
O3B
A   27
C8
A   28
O9
A   29
C9
A   30
O10
M  END
