1GQR_SAF_A_1998
     RDKit          3D

 27 27  0  0  0  0  0  0  0  0999 V2000
    5.7490   69.4840   63.9930 C   0  0  0  0  0  0  0  0  0  0  0  0
    3.5290   68.4660   64.4600 C   0  0  0  0  0  0  0  0  0  0  0  0
    3.8110   68.5570   65.9900 C   0  0  0  0  0  0  0  0  0  0  0  0
    5.0210   69.0600   66.3760 C   0  0  0  0  0  0  0  0  0  0  0  0
    5.9460   69.5260   65.3930 C   0  0  0  0  0  0  0  0  0  0  0  0
    2.9760   68.1390   67.0410 O   0  0  0  0  0  0  0  0  0  0  0  0
    4.0090   67.4180   61.3280 N   0  0  0  0  0  0  0  0  0  0  0  0
    4.6300   66.2290   61.8660 C   0  0  0  0  0  0  0  0  0  0  0  0
    4.3540   67.2880   59.9600 C   0  0  0  0  0  0  0  0  0  0  0  0
    4.5920   68.8140   61.8320 C   0  0  0  0  0  0  0  0  0  0  0  0
    3.9080   69.8810   61.1310 C   0  0  0  0  0  0  0  0  0  0  0  0
    4.5810   68.9660   63.4570 C   0  0  0  0  0  0  0  0  0  0  0  0
    6.5320   69.8670   63.3220 H   0  0  0  0  0  0  0  0  0  0  0  0
    2.5792   68.0449   64.0986 H   0  0  0  0  0  0  0  0  0  0  0  0
    5.2826   69.1060   67.4434 H   0  0  0  0  0  0  0  0  0  0  0  0
    6.8923   69.9541   65.7554 H   0  0  0  0  0  0  0  0  0  0  0  0
    3.2551   68.2787   67.9805 H   0  0  0  0  0  0  0  0  0  0  0  0
    4.6088   66.2695   62.9650 H   0  0  0  0  0  0  0  0  0  0  0  0
    4.0808   65.3405   61.5212 H   0  0  0  0  0  0  0  0  0  0  0  0
    5.6730   66.1720   61.5212 H   0  0  0  0  0  0  0  0  0  0  0  0
    5.3803   66.9013   59.8758 H   0  0  0  0  0  0  0  0  0  0  0  0
    3.6581   66.5904   59.4710 H   0  0  0  0  0  0  0  0  0  0  0  0
    4.2915   68.2714   59.4710 H   0  0  0  0  0  0  0  0  0  0  0  0
    5.6622   68.8718   61.5842 H   0  0  0  0  0  0  0  0  0  0  0  0
    3.4639   70.5737   61.8611 H   0  0  0  0  0  0  0  0  0  0  0  0
    4.6264   70.4245   60.4998 H   0  0  0  0  0  0  0  0  0  0  0  0
    3.1142   69.4551   60.4998 H   0  0  0  0  0  0  0  0  0  0  0  0
  1  5  2  0
  1 12  1  0
  2  3  1  0
  2 12  2  0
  3  4  2  0
  3  6  1  0
  4  5  1  0
  7  8  1  0
  7  9  1  0
  7 10  1  0
 10 11  1  0
 10 12  1  0
  1 13  1  0
  2 14  1  0
  4 15  1  0
  5 16  1  0
  6 17  1  0
  8 18  1  0
  8 19  1  0
  8 20  1  0
  9 21  1  0
  9 22  1  0
  9 23  1  0
 10 24  1  0
 11 25  1  0
 11 26  1  0
 11 27  1  0
A    1
C1
A    2
C3
A    3
C4
A    4
C5
A    5
C6
A    6
O4
A    7
N2
A    8
C7
A    9
C8
A   10
C9
A   11
C10
A   12
C40
M  END
