1GRQ_CLK_A_999
     RDKit          3D

 32 32  0  0  0  0  0  0  0  0999 V2000
   12.5710   47.0750   34.8850 C   0  0  0  0  0  0  0  0  0  0  0  0
   11.1140   46.1640   34.7900 Cl  0  0  0  0  0  0  0  0  0  0  0  0
   13.8710   46.0010   34.3880 Cl  0  0  0  0  0  0  0  0  0  0  0  0
   12.6240   48.2080   33.7720 C   0  0  0  0  0  0  0  0  0  0  0  0
   12.1900   47.9910   32.6370 O   0  0  0  0  0  0  0  0  0  0  0  0
   13.2110   49.3220   34.2610 N   0  0  0  0  0  0  0  0  0  0  0  0
   13.3910   50.5800   33.5190 C   0  0  0  0  0  0  0  0  0  0  0  0
   14.7750   50.6650   32.8760 C   0  0  0  0  0  0  0  0  0  0  0  0
   14.9620   49.4340   32.0830 O   0  0  0  0  0  0  0  0  0  0  0  0
   12.9830   51.8070   34.3970 C   0  0  0  0  0  0  0  0  0  0  0  0
   13.1260   52.9930   33.6110 O   0  0  0  0  0  0  0  0  0  0  0  0
   13.7500   51.9960   35.7600 C   0  0  0  0  0  0  0  0  0  0  0  0
   15.2620   51.8790   35.8020 C   0  0  0  0  0  0  0  0  0  0  0  0
   15.9750   52.1630   37.0010 C   0  0  0  0  0  0  0  0  0  0  0  0
   15.2610   52.5510   38.1260 C   0  0  0  0  0  0  0  0  0  0  0  0
   15.8740   52.8850   39.4480 N   0  0  0  0  0  0  0  0  0  0  0  0
   13.8120   52.6830   38.1510 C   0  0  0  0  0  0  0  0  0  0  0  0
   13.0780   52.4010   36.9620 C   0  0  0  0  0  0  0  0  0  0  0  0
   12.6431   47.4927   35.9000 H   0  0  0  0  0  0  0  0  0  0  0  0
   13.5601   49.2883   35.2295 H   0  0  0  0  0  0  0  0  0  0  0  0
   12.6992   50.5988   32.6640 H   0  0  0  0  0  0  0  0  0  0  0  0
   14.8336   51.5476   32.2220 H   0  0  0  0  0  0  0  0  0  0  0  0
   15.5578   50.7591   33.6431 H   0  0  0  0  0  0  0  0  0  0  0  0
   15.0791   48.6631   32.6930 H   0  0  0  0  0  0  0  0  0  0  0  0
   11.9445   51.6057   34.6986 H   0  0  0  0  0  0  0  0  0  0  0  0
   13.2204   53.7760   34.2094 H   0  0  0  0  0  0  0  0  0  0  0  0
   15.8113   51.5725   34.8996 H   0  0  0  0  0  0  0  0  0  0  0  0
   17.0711   52.0765   37.0351 H   0  0  0  0  0  0  0  0  0  0  0  0
   15.3925   52.6227   40.3199 H   0  0  0  0  0  0  0  0  0  0  0  0
   16.7778   53.3775   39.4869 H   0  0  0  0  0  0  0  0  0  0  0  0
   13.2932   52.9944   39.0696 H   0  0  0  0  0  0  0  0  0  0  0  0
   11.9820   52.4950   36.9657 H   0  0  0  0  0  0  0  0  0  0  0  0
  1  2  1  0
  1  3  1  0
  1  4  1  0
  4  5  2  0
  4  6  1  0
  6  7  1  0
  7  8  1  0
  7 10  1  0
  8  9  1  0
 10 11  1  0
 10 12  1  0
 12 13  2  0
 12 18  1  0
 13 14  1  0
 14 15  2  0
 15 16  1  0
 15 17  1  0
 17 18  2  0
  1 19  1  0
  6 20  1  0
  7 21  1  0
  8 22  1  0
  8 23  1  0
  9 24  1  0
 10 25  1  0
 11 26  1  0
 13 27  1  0
 14 28  1  0
 16 29  1  0
 16 30  1  0
 17 31  1  0
 18 32  1  0
A    1
C1
A    2
CL1A
A    3
CL1B
A    4
C2
A    5
O2
A    6
N2
A    7
C3
A    8
C4
A    9
O4
A   10
C5
A   11
O5
A   12
C6
A   13
C7
A   14
C8
A   15
C9
A   16
N9
A   17
C10
A   18
C11
M  END
