1GRR_CLC_A_999
     RDKit          3D

 32 32  0  0  0  0  0  0  0  0999 V2000
   12.0850   52.5450   31.2660 O   0  0  0  0  0  0  0  0  0  0  0  0
   12.5400   49.4520   33.6560 O   0  0  0  0  0  0  0  0  0  0  0  0
   12.4870   52.1740   33.5300 N   0  0  0  0  0  0  0  0  0  0  0  0
   16.1650   51.7220   33.7590 O   0  0  0  0  0  0  0  0  0  0  0  0
   11.7920   52.6000   32.4460 C   0  0  0  0  0  0  0  0  0  0  0  0
   10.4040   53.2620   32.8710 C   0  0  0  0  0  0  0  0  0  0  0  0
   13.6790   50.1850   34.2300 C   0  0  0  0  0  0  0  0  0  0  0  0
   14.9680   52.4560   33.9870 C   0  0  0  0  0  0  0  0  0  0  0  0
   13.7960   51.5220   33.4740 C   0  0  0  0  0  0  0  0  0  0  0  0
   14.9110   52.7150   35.5120 C   0  0  0  0  0  0  0  0  0  0  0  0
   13.8730   53.6680   36.0030 C   0  0  0  0  0  0  0  0  0  0  0  0
   13.7640   53.9610   37.3740 C   0  0  0  0  0  0  0  0  0  0  0  0
   14.6320   53.3480   38.2500 C   0  0  0  0  0  0  0  0  0  0  0  0
   15.6740   52.4090   37.8330 C   0  0  0  0  0  0  0  0  0  0  0  0
   15.7890   52.1110   36.4590 C   0  0  0  0  0  0  0  0  0  0  0  0
   14.6170   53.5780   39.7260 N   0  0  0  0  0  0  0  0  0  0  0  0
   14.9710   52.6380   40.4490 O   0  0  0  0  0  0  0  0  0  0  0  0
   14.2700   54.6460   40.1360 O   0  0  0  0  0  0  0  0  0  0  0  0
   11.9782   49.0905   34.3866 H   0  0  0  0  0  0  0  0  0  0  0  0
   12.0638   52.3196   34.4577 H   0  0  0  0  0  0  0  0  0  0  0  0
   16.5702   51.4735   34.6274 H   0  0  0  0  0  0  0  0  0  0  0  0
   10.3344   53.2952   33.9683 H   0  0  0  0  0  0  0  0  0  0  0  0
   10.3470   54.2843   32.4689 H   0  0  0  0  0  0  0  0  0  0  0  0
    9.5737   52.6629   32.4689 H   0  0  0  0  0  0  0  0  0  0  0  0
   13.5047   50.3722   35.2998 H   0  0  0  0  0  0  0  0  0  0  0  0
   14.6058   49.6009   34.1309 H   0  0  0  0  0  0  0  0  0  0  0  0
   14.9012   53.4245   33.4698 H   0  0  0  0  0  0  0  0  0  0  0  0
   14.0780   51.3175   32.4306 H   0  0  0  0  0  0  0  0  0  0  0  0
   13.1877   54.1450   35.2869 H   0  0  0  0  0  0  0  0  0  0  0  0
   13.0016   54.6649   37.7390 H   0  0  0  0  0  0  0  0  0  0  0  0
   16.3484   51.9486   38.5700 H   0  0  0  0  0  0  0  0  0  0  0  0
   16.5618   51.4074   36.1157 H   0  0  0  0  0  0  0  0  0  0  0  0
  1  5  2  0
  2  7  1  0
  3  5  1  0
  3  9  1  0
  4  8  1  0
  5  6  1  0
  7  9  1  0
  8  9  1  0
  8 10  1  0
 10 11  2  0
 10 15  1  0
 11 12  1  0
 12 13  2  0
 13 14  1  0
 13 16  1  0
 14 15  2  0
 16 17  1  0
 16 18  2  0
  2 19  1  0
  3 20  1  0
  4 21  1  0
  6 22  1  0
  6 23  1  0
  6 24  1  0
  7 25  1  0
  7 26  1  0
  8 27  1  0
  9 28  1  0
 11 29  1  0
 12 30  1  0
 14 31  1  0
 15 32  1  0
M  CHG  2  16   1  17  -1
A    1
O1
A    2
O2
A    3
N2
A    4
O4
A    5
C11
A    6
C12
A    7
C21
A    8
C50
A    9
C22
A   10
C1
A   11
C2
A   12
C3
A   13
C4
A   14
C5
A   15
C6
A   16
N4
A   17
O5
A   18
O6
M  END
