1GS4_ZK5_A_1918
     RDKit          3D

 56 59  0  0  0  0  0  0  0  0999 V2000
    1.3720   26.7060    5.2740 C   0  0  0  0  0  0  0  0  0  0  0  0
    2.7780   26.7290    4.7450 C   0  0  0  0  0  0  0  0  0  0  0  0
    3.5190   28.0070    4.8130 C   0  0  0  0  0  0  0  0  0  0  0  0
    2.9800   29.1620    5.1930 C   0  0  0  0  0  0  0  0  0  0  0  0
    3.8230   30.3990    5.2650 C   0  0  0  0  0  0  0  0  0  0  0  0
    3.2030   31.5340    4.4130 C   0  0  0  0  0  0  0  0  0  0  0  0
    0.6900   28.0530    5.1410 C   0  0  0  0  0  0  0  0  0  0  0  0
    1.7670   31.8170    4.8520 C   0  0  0  0  0  0  0  0  0  0  0  0
    0.9080   30.5290    4.8440 C   0  0  0  0  0  0  0  0  0  0  0  0
    1.5090   29.3080    5.5750 C   0  0  0  0  0  0  0  0  0  0  0  0
   -0.6050   30.7210    5.0740 C   0  0  0  0  0  0  0  0  0  0  0  0
   -1.2120   31.9490    4.3540 C   0  0  0  0  0  0  0  0  0  0  0  0
   -0.3460   33.2200    4.4540 C   0  0  0  0  0  0  0  0  0  0  0  0
    1.0760   32.8520    3.9860 C   0  0  0  0  0  0  0  0  0  0  0  0
    1.8110   34.2000    3.8380 C   0  0  0  0  0  0  0  0  0  0  0  0
    0.6730   35.1680    3.4540 C   0  0  0  0  0  0  0  0  0  0  0  0
   -0.6500   34.3510    3.4460 C   0  0  0  0  0  0  0  0  0  0  0  0
   -0.3650   33.7300    5.9160 C   0  0  0  0  0  0  0  0  0  0  0  0
    1.4100   29.4720    7.1130 C   0  0  0  0  0  0  0  0  0  0  0  0
   -1.8790   35.1990    3.8180 C   0  0  0  0  0  0  0  0  0  0  0  0
   -3.1650   34.9130    3.0980 C   0  0  0  0  0  0  0  0  0  0  0  0
    0.9290   30.1970    3.4330 F   0  0  0  0  0  0  0  0  0  0  0  0
    3.2990   25.7240    4.2680 O   0  0  0  0  0  0  0  0  0  0  0  0
   -0.8420   30.7650    6.4570 O   0  0  0  0  0  0  0  0  0  0  0  0
   -0.9230   33.7550    2.1860 O   0  0  0  0  0  0  0  0  0  0  0  0
   -1.8120   36.0590    4.6470 O   0  0  0  0  0  0  0  0  0  0  0  0
   -4.1020   35.9810    3.2480 O   0  0  0  0  0  0  0  0  0  0  0  0
    0.7936   25.9586    4.7111 H   0  0  0  0  0  0  0  0  0  0  0  0
    1.4169   26.4535    6.3437 H   0  0  0  0  0  0  0  0  0  0  0  0
    4.5824   28.0020    4.5317 H   0  0  0  0  0  0  0  0  0  0  0  0
    3.8909   30.7293    6.3120 H   0  0  0  0  0  0  0  0  0  0  0  0
    4.8242   30.1682    4.8720 H   0  0  0  0  0  0  0  0  0  0  0  0
    3.8044   32.4469    4.5353 H   0  0  0  0  0  0  0  0  0  0  0  0
    3.1949   31.2203    3.3587 H   0  0  0  0  0  0  0  0  0  0  0  0
    0.4178   28.1840    4.0833 H   0  0  0  0  0  0  0  0  0  0  0  0
   -0.1605   28.0123    5.8374 H   0  0  0  0  0  0  0  0  0  0  0  0
    1.8509   32.2131    5.8748 H   0  0  0  0  0  0  0  0  0  0  0  0
   -1.1200   29.8620    4.6192 H   0  0  0  0  0  0  0  0  0  0  0  0
   -1.3397   31.6992    3.2904 H   0  0  0  0  0  0  0  0  0  0  0  0
   -2.1671   32.1723    4.8518 H   0  0  0  0  0  0  0  0  0  0  0  0
    1.0638   32.3204    3.0231 H   0  0  0  0  0  0  0  0  0  0  0  0
    2.2838   34.4998    4.7849 H   0  0  0  0  0  0  0  0  0  0  0  0
    2.6274   34.1728    3.1013 H   0  0  0  0  0  0  0  0  0  0  0  0
    0.6075   35.9823    4.1906 H   0  0  0  0  0  0  0  0  0  0  0  0
    0.8597   35.6143    2.4661 H   0  0  0  0  0  0  0  0  0  0  0  0
   -0.3330   32.8723    6.6040 H   0  0  0  0  0  0  0  0  0  0  0  0
    0.5098   34.3734    6.0913 H   0  0  0  0  0  0  0  0  0  0  0  0
   -1.2852   34.3066    6.0913 H   0  0  0  0  0  0  0  0  0  0  0  0
    1.9184   28.6297    7.6050 H   0  0  0  0  0  0  0  0  0  0  0  0
    1.8896   30.4155    7.4128 H   0  0  0  0  0  0  0  0  0  0  0  0
    0.3517   29.4872    7.4128 H   0  0  0  0  0  0  0  0  0  0  0  0
   -2.9514   34.7735    2.0280 H   0  0  0  0  0  0  0  0  0  0  0  0
   -3.6073   34.0045    3.5327 H   0  0  0  0  0  0  0  0  0  0  0  0
    0.0064   30.6075    6.9424 H   0  0  0  0  0  0  0  0  0  0  0  0
   -1.3313   32.8637    2.3241 H   0  0  0  0  0  0  0  0  0  0  0  0
   -4.2538   36.1540    4.2109 H   0  0  0  0  0  0  0  0  0  0  0  0
  1  2  1  0
  1  7  1  0
  2  3  1  0
  2 23  2  0
  3  4  2  0
  4  5  1  0
  4 10  1  0
  5  6  1  0
  6  8  1  0
  7 10  1  0
  8  9  1  0
  8 14  1  0
  9 10  1  0
  9 11  1  0
  9 22  1  0
 10 19  1  0
 11 12  1  0
 11 24  1  0
 12 13  1  0
 13 14  1  0
 13 17  1  0
 13 18  1  0
 14 15  1  0
 15 16  1  0
 16 17  1  0
 17 20  1  0
 17 25  1  0
 20 21  1  0
 20 26  2  0
 21 27  1  0
  1 28  1  0
  1 29  1  0
  3 30  1  0
  5 31  1  0
  5 32  1  0
  6 33  1  0
  6 34  1  0
  7 35  1  0
  7 36  1  0
  8 37  1  0
 11 38  1  0
 12 39  1  0
 12 40  1  0
 14 41  1  0
 15 42  1  0
 15 43  1  0
 16 44  1  0
 16 45  1  0
 18 46  1  0
 18 47  1  0
 18 48  1  0
 19 49  1  0
 19 50  1  0
 19 51  1  0
 21 52  1  0
 21 53  1  0
 24 54  1  0
 25 55  1  0
 27 56  1  0
A    1
C2
A    2
C3
A    3
C4
A    4
C5
A    5
C6
A    6
C7
A    7
C1
A    8
C8
A    9
C9
A   10
C10
A   11
C11
A   12
C12
A   13
C13
A   14
C14
A   15
C15
A   16
C16
A   17
C17
A   18
C18
A   19
C19
A   20
C20
A   21
C21
A   22
F9
A   23
O1
A   24
O2
A   25
O3
A   26
O4
A   27
O5
M  END
