1GT8_UAA_A_1035
     RDKit          3D

 18 18  0  0  0  0  0  0  0  0999 V2000
   44.8760   75.7500   49.4020 O   0  0  0  0  0  0  0  0  0  0  0  0
   44.3300   73.7160   48.5860 N   0  0  0  0  0  0  0  0  0  0  0  0
   44.3170   72.3540   48.5590 C   0  0  0  0  0  0  0  0  0  0  0  0
   45.0500   71.7310   49.6390 C   0  0  0  0  0  0  0  0  0  0  0  0
   45.6840   72.5340   50.5770 C   0  0  0  0  0  0  0  0  0  0  0  0
   46.4830   71.9240   51.7200 C   0  0  0  0  0  0  0  0  0  0  0  0
   47.9520   71.7330   51.3760 C   0  0  0  0  0  0  0  0  0  0  0  0
   48.4160   71.9950   50.2790 O   0  0  0  0  0  0  0  0  0  0  0  0
   48.7740   71.2670   52.3290 O   0  0  0  0  0  0  0  0  0  0  0  0
   43.7340   71.7080   47.6950 O   0  0  0  0  0  0  0  0  0  0  0  0
   44.9390   74.5400   49.4890 C   0  0  0  0  0  0  0  0  0  0  0  0
   45.6200   73.9210   50.4870 N   0  0  0  0  0  0  0  0  0  0  0  0
   43.8141   74.1847   47.8277 H   0  0  0  0  0  0  0  0  0  0  0  0
   45.1043   70.6350   49.7160 H   0  0  0  0  0  0  0  0  0  0  0  0
   46.4101   72.5885   52.5936 H   0  0  0  0  0  0  0  0  0  0  0  0
   46.0593   70.9301   51.9268 H   0  0  0  0  0  0  0  0  0  0  0  0
   48.5475   71.3954   53.2842 H   0  0  0  0  0  0  0  0  0  0  0  0
   46.1016   74.4927   51.1956 H   0  0  0  0  0  0  0  0  0  0  0  0
  1 11  2  0
  2  3  1  0
  2 11  1  0
  3  4  1  0
  3 10  2  0
  4  5  2  0
  5  6  1  0
  5 12  1  0
  6  7  1  0
  7  8  2  0
  7  9  1  0
 11 12  1  0
  2 13  1  0
  4 14  1  0
  6 15  1  0
  6 16  1  0
  9 17  1  0
 12 18  1  0
A    1
O2
A    2
N3
A    3
C4
A    4
C5
A    5
C6
A    6
C7
A    7
C8
A    8
O8A
A    9
O8B
A   10
O4
A   11
C2
A   12
N1
M  END
