1GTB_PZQ_A_901
     RDKit          3D

 47 50  0  0  0  0  0  0  0  0999 V2000
   25.2970   43.0630   38.5950 C   0  0  0  0  0  0  0  0  0  0  0  0
   22.9000   40.5690   40.4800 C   0  0  0  0  0  0  0  0  0  0  0  0
   23.6180   41.9040   40.1620 C   0  0  0  0  0  0  0  0  0  0  0  0
   24.4690   41.8030   38.8610 C   0  0  0  0  0  0  0  0  0  0  0  0
   23.6580   41.2550   37.6580 C   0  0  0  0  0  0  0  0  0  0  0  0
   22.9560   39.9160   38.0110 C   0  0  0  0  0  0  0  0  0  0  0  0
   26.8830   43.6110   31.1760 C   0  0  0  0  0  0  0  0  0  0  0  0
   26.5050   44.8660   31.5780 C   0  0  0  0  0  0  0  0  0  0  0  0
   25.9790   46.5910   33.3320 C   0  0  0  0  0  0  0  0  0  0  0  0
   26.4070   46.8500   34.7590 C   0  0  0  0  0  0  0  0  0  0  0  0
   26.5300   44.2020   33.8770 C   0  0  0  0  0  0  0  0  0  0  0  0
   26.3310   45.1910   32.9210 C   0  0  0  0  0  0  0  0  0  0  0  0
   22.0830   40.0450   39.2790 C   0  0  0  0  0  0  0  0  0  0  0  0
   25.1130   46.1530   36.6970 C   0  0  0  0  0  0  0  0  0  0  0  0
   24.6210   45.0770   37.6120 C   0  0  0  0  0  0  0  0  0  0  0  0
   25.4360   43.4450   36.0160 C   0  0  0  0  0  0  0  0  0  0  0  0
   26.3610   44.4600   35.3740 C   0  0  0  0  0  0  0  0  0  0  0  0
   26.9420   42.9370   33.4630 C   0  0  0  0  0  0  0  0  0  0  0  0
   27.1080   42.6440   32.1330 C   0  0  0  0  0  0  0  0  0  0  0  0
   25.3000   43.8200   37.4400 N   0  0  0  0  0  0  0  0  0  0  0  0
   25.8670   45.8140   35.6270 N   0  0  0  0  0  0  0  0  0  0  0  0
   25.9920   43.4130   39.5560 O   0  0  0  0  0  0  0  0  0  0  0  0
   24.7900   47.3120   36.9430 O   0  0  0  0  0  0  0  0  0  0  0  0
   23.6553   39.8162   40.7500 H   0  0  0  0  0  0  0  0  0  0  0  0
   22.2013   40.7510   41.3098 H   0  0  0  0  0  0  0  0  0  0  0  0
   22.8629   42.6936   40.0340 H   0  0  0  0  0  0  0  0  0  0  0  0
   24.2941   42.1380   40.9975 H   0  0  0  0  0  0  0  0  0  0  0  0
   25.2335   41.0296   39.0264 H   0  0  0  0  0  0  0  0  0  0  0  0
   22.8953   41.9949   37.3737 H   0  0  0  0  0  0  0  0  0  0  0  0
   24.3538   41.0723   36.8258 H   0  0  0  0  0  0  0  0  0  0  0  0
   22.3171   39.6153   37.1675 H   0  0  0  0  0  0  0  0  0  0  0  0
   23.7333   39.1623   38.2053 H   0  0  0  0  0  0  0  0  0  0  0  0
   27.0048   43.3792   30.1076 H   0  0  0  0  0  0  0  0  0  0  0  0
   26.3338   45.6405   30.8159 H   0  0  0  0  0  0  0  0  0  0  0  0
   24.8908   46.7290   33.2502 H   0  0  0  0  0  0  0  0  0  0  0  0
   26.5027   47.2971   32.6708 H   0  0  0  0  0  0  0  0  0  0  0  0
   27.5053   46.8418   34.8189 H   0  0  0  0  0  0  0  0  0  0  0  0
   26.0276   47.8308   35.0816 H   0  0  0  0  0  0  0  0  0  0  0  0
   21.6713   39.0566   39.5312 H   0  0  0  0  0  0  0  0  0  0  0  0
   21.2773   40.7643   39.0706 H   0  0  0  0  0  0  0  0  0  0  0  0
   24.7647   45.4107   38.6503 H   0  0  0  0  0  0  0  0  0  0  0  0
   23.5614   44.9072   37.3702 H   0  0  0  0  0  0  0  0  0  0  0  0
   24.4522   43.4671   35.5244 H   0  0  0  0  0  0  0  0  0  0  0  0
   25.8418   42.4275   35.9162 H   0  0  0  0  0  0  0  0  0  0  0  0
   27.3569   44.3566   35.8296 H   0  0  0  0  0  0  0  0  0  0  0  0
   27.1377   42.1593   34.2160 H   0  0  0  0  0  0  0  0  0  0  0  0
   27.4216   41.6344   31.8291 H   0  0  0  0  0  0  0  0  0  0  0  0
  1  4  1  0
  1 20  1  0
  1 22  2  0
  2  3  1  0
  2 13  1  0
  3  4  1  0
  4  5  1  0
  5  6  1  0
  6 13  1  0
  7  8  2  0
  7 19  1  0
  8 12  1  0
  9 10  1  0
  9 12  1  0
 10 21  1  0
 11 12  2  0
 11 17  1  0
 11 18  1  0
 14 15  1  0
 14 21  1  0
 14 23  2  0
 15 20  1  0
 16 17  1  0
 16 20  1  0
 17 21  1  0
 18 19  2  0
  2 24  1  0
  2 25  1  0
  3 26  1  0
  3 27  1  0
  4 28  1  0
  5 29  1  0
  5 30  1  0
  6 31  1  0
  6 32  1  0
  7 33  1  0
  8 34  1  0
  9 35  1  0
  9 36  1  0
 10 37  1  0
 10 38  1  0
 13 39  1  0
 13 40  1  0
 15 41  1  0
 15 42  1  0
 16 43  1  0
 16 44  1  0
 17 45  1  0
 18 46  1  0
 19 47  1  0
A    1
C1
A    2
C2
A    3
C3
A    4
C4
A    5
C5
A    6
C6
A    7
C7
A    8
C8
A    9
C9
A   10
C10
A   11
C11
A   12
C12
A   13
C13
A   14
C14
A   15
C15
A   16
C16
A   17
C17
A   18
C18
A   19
C19
A   20
N1
A   21
N2
A   22
O1
A   23
O2
M  END
