1FRO_GSB_A_200
     RDKit          3D

 50 50  0  0  0  0  0  0  0  0999 V2000
   76.1560   36.2740    1.1960 N   0  0  0  0  0  0  0  0  0  0  0  0
   74.9930   36.1170    0.2850 C   0  0  0  0  0  0  0  0  0  0  0  0
   73.7530   35.9350    1.1570 C   0  0  0  0  0  0  0  0  0  0  0  0
   73.8960   35.4590    2.3010 O   0  0  0  0  0  0  0  0  0  0  0  0
   72.6560   36.3010    0.7120 O   0  0  0  0  0  0  0  0  0  0  0  0
   75.1990   34.8980   -0.6200 C   0  0  0  0  0  0  0  0  0  0  0  0
   74.1690   34.7070   -1.7390 C   0  0  0  0  0  0  0  0  0  0  0  0
   74.1800   35.8210   -2.7820 C   0  0  0  0  0  0  0  0  0  0  0  0
   74.9010   36.8060   -2.6400 O   0  0  0  0  0  0  0  0  0  0  0  0
   73.4100   35.6470   -3.8520 N   0  0  0  0  0  0  0  0  0  0  0  0
   73.3230   36.6550   -4.9040 C   0  0  0  0  0  0  0  0  0  0  0  0
   72.3730   37.7570   -4.4080 C   0  0  0  0  0  0  0  0  0  0  0  0
   71.3450   37.4660   -3.7890 O   0  0  0  0  0  0  0  0  0  0  0  0
   72.7200   39.0140   -4.6500 N   0  0  0  0  0  0  0  0  0  0  0  0
   71.8820   40.1120   -4.1980 C   0  0  0  0  0  0  0  0  0  0  0  0
   72.3000   41.4300   -4.8310 C   0  0  0  0  0  0  0  0  0  0  0  0
   72.9400   41.3910   -5.9110 O   0  0  0  0  0  0  0  0  0  0  0  0
   71.9810   42.5020   -4.2650 O   0  0  0  0  0  0  0  0  0  0  0  0
   72.7770   36.0160   -6.1730 C   0  0  0  0  0  0  0  0  0  0  0  0
   73.4590   34.3610   -6.4680 S   0  0  0  0  0  0  0  0  0  0  0  0
   73.6060   34.4070   -8.2840 C   0  0  0  0  0  0  0  0  0  0  0  0
   72.9670   33.2190   -8.9410 C   0  0  0  0  0  0  0  0  0  0  0  0
   71.5880   33.0730   -8.9590 C   0  0  0  0  0  0  0  0  0  0  0  0
   70.9800   31.9510   -9.5500 C   0  0  0  0  0  0  0  0  0  0  0  0
   71.7650   30.9760  -10.1260 C   0  0  0  0  0  0  0  0  0  0  0  0
   73.1450   31.1140  -10.1140 C   0  0  0  0  0  0  0  0  0  0  0  0
   73.7390   32.2320   -9.5240 C   0  0  0  0  0  0  0  0  0  0  0  0
   75.8346   36.2306    2.1736 H   0  0  0  0  0  0  0  0  0  0  0  0
   76.8323   35.5167    1.0230 H   0  0  0  0  0  0  0  0  0  0  0  0
   74.8784   36.9991   -0.3622 H   0  0  0  0  0  0  0  0  0  0  0  0
   71.9257   36.5447    1.3344 H   0  0  0  0  0  0  0  0  0  0  0  0
   76.1902   34.9905   -1.0879 H   0  0  0  0  0  0  0  0  0  0  0  0
   75.0891   34.0215    0.0355 H   0  0  0  0  0  0  0  0  0  0  0  0
   74.3808   33.7544   -2.2466 H   0  0  0  0  0  0  0  0  0  0  0  0
   73.1758   34.7200   -1.2663 H   0  0  0  0  0  0  0  0  0  0  0  0
   72.8615   34.7797   -3.9406 H   0  0  0  0  0  0  0  0  0  0  0  0
   74.3123   37.0795   -5.1302 H   0  0  0  0  0  0  0  0  0  0  0  0
   73.5908   39.2137   -5.1626 H   0  0  0  0  0  0  0  0  0  0  0  0
   70.8376   39.9001   -4.4705 H   0  0  0  0  0  0  0  0  0  0  0  0
   71.9916   40.2032   -3.1073 H   0  0  0  0  0  0  0  0  0  0  0  0
   71.9654   42.5543   -3.2765 H   0  0  0  0  0  0  0  0  0  0  0  0
   71.6834   35.9361   -6.0851 H   0  0  0  0  0  0  0  0  0  0  0  0
   73.0698   36.6535   -7.0203 H   0  0  0  0  0  0  0  0  0  0  0  0
   73.1179   35.3204   -8.6547 H   0  0  0  0  0  0  0  0  0  0  0  0
   74.6772   34.3919   -8.5338 H   0  0  0  0  0  0  0  0  0  0  0  0
   70.9575   33.8500   -8.5021 H   0  0  0  0  0  0  0  0  0  0  0  0
   69.8844   31.8524   -9.5524 H   0  0  0  0  0  0  0  0  0  0  0  0
   71.3005   30.0945  -10.5920 H   0  0  0  0  0  0  0  0  0  0  0  0
   73.7758   30.3379  -10.5721 H   0  0  0  0  0  0  0  0  0  0  0  0
   74.8348   32.3281   -9.5234 H   0  0  0  0  0  0  0  0  0  0  0  0
  1  2  1  0
  2  3  1  0
  2  6  1  0
  3  4  2  0
  3  5  1  0
  6  7  1  0
  7  8  1  0
  8  9  2  0
  8 10  1  0
 10 11  1  0
 11 12  1  0
 11 19  1  0
 12 13  2  0
 12 14  1  0
 14 15  1  0
 15 16  1  0
 16 17  2  0
 16 18  1  0
 19 20  1  0
 20 21  1  0
 21 22  1  0
 22 23  2  0
 22 27  1  0
 23 24  1  0
 24 25  2  0
 25 26  1  0
 26 27  2  0
  1 28  1  0
  1 29  1  0
  2 30  1  0
  5 31  1  0
  6 32  1  0
  6 33  1  0
  7 34  1  0
  7 35  1  0
 10 36  1  0
 11 37  1  0
 14 38  1  0
 15 39  1  0
 15 40  1  0
 18 41  1  0
 19 42  1  0
 19 43  1  0
 21 44  1  0
 21 45  1  0
 23 46  1  0
 24 47  1  0
 25 48  1  0
 26 49  1  0
 27 50  1  0
A    1
N1
A    2
CA1
A    3
C1
A    4
O11
A    5
O12
A    6
CB1
A    7
CG1
A    8
CD1
A    9
OE1
A   10
N2
A   11
CA2
A   12
C2
A   13
O2
A   14
N3
A   15
CA3
A   16
C3
A   17
O31
A   18
O32
A   19
CB2
A   20
SG2
A   21
C'
A   22
C1'
A   23
C2'
A   24
C3'
A   25
C4'
A   26
C5'
A   27
C6'
M  END
