1GVG_PCX_A_331
     RDKit          3D

 32 32  0  0  0  0  0  0  0  0999 V2000
    2.7550    6.4030    4.8470 N   0  0  0  0  0  0  0  0  0  0  0  0
    2.0350    7.4460    4.1570 C   0  0  0  0  0  0  0  0  0  0  0  0
    0.8000    7.0360    3.3490 C   0  0  0  0  0  0  0  0  0  0  0  0
    1.1550    6.1400    2.1170 C   0  0  0  0  0  0  0  0  0  0  0  0
    1.9270    6.9490    1.0170 C   0  0  0  0  0  0  0  0  0  0  0  0
    1.7560    6.2770   -0.2940 N   0  0  0  0  0  0  0  0  0  0  0  0
    2.5800    5.3100   -0.7740 C   0  0  0  0  0  0  0  0  0  0  0  0
    3.6430    4.8890   -0.0720 N   0  0  0  0  0  0  0  0  0  0  0  0
    2.3050    4.8000   -1.9420 N   0  0  0  0  0  0  0  0  0  0  0  0
    1.5870    8.3340    5.3030 C   0  0  0  0  0  0  0  0  0  0  0  0
    1.2780    7.8860    6.4120 O   0  0  0  0  0  0  0  0  0  0  0  0
    1.5370    9.6290    5.0260 O   0  0  0  0  0  0  0  0  0  0  0  0
    3.9550    6.2140    5.4670 C   0  0  0  0  0  0  0  0  0  0  0  0
    3.5910    4.8050    5.7990 C   0  0  0  0  0  0  0  0  0  0  0  0
    4.8890    6.9460    5.6450 O   0  0  0  0  0  0  0  0  0  0  0  0
    2.2970    5.0710    5.1000 C   0  0  0  0  0  0  0  0  0  0  0  0
    2.6895    7.8862    3.3903 H   0  0  0  0  0  0  0  0  0  0  0  0
    0.1190    6.4761    4.0068 H   0  0  0  0  0  0  0  0  0  0  0  0
    0.3322    7.9555    2.9674 H   0  0  0  0  0  0  0  0  0  0  0  0
    1.7857    5.3040    2.4537 H   0  0  0  0  0  0  0  0  0  0  0  0
    0.2161    5.7721    1.6776 H   0  0  0  0  0  0  0  0  0  0  0  0
    1.5242    7.9711    0.9616 H   0  0  0  0  0  0  0  0  0  0  0  0
    2.9959    6.9926    1.2728 H   0  0  0  0  0  0  0  0  0  0  0  0
    0.9586    6.5629   -0.8799 H   0  0  0  0  0  0  0  0  0  0  0  0
    3.6171    4.8993    0.9576 H   0  0  0  0  0  0  0  0  0  0  0  0
    4.4850    4.5555   -0.5627 H   0  0  0  0  0  0  0  0  0  0  0  0
    2.9079    4.0646   -2.3377 H   0  0  0  0  0  0  0  0  0  0  0  0
    1.5114   10.2918    5.7610 H   0  0  0  0  0  0  0  0  0  0  0  0
    4.2238    4.0399    5.3254 H   0  0  0  0  0  0  0  0  0  0  0  0
    3.6338    4.4141    6.8263 H   0  0  0  0  0  0  0  0  0  0  0  0
    1.4091    5.0097    5.7464 H   0  0  0  0  0  0  0  0  0  0  0  0
    1.9451    4.4232    4.2836 H   0  0  0  0  0  0  0  0  0  0  0  0
  1  2  1  0
  1 13  1  0
  1 16  1  0
  2  3  1  0
  2 10  1  0
  3  4  1  0
  4  5  1  0
  5  6  1  0
  6  7  1  0
  7  8  1  0
  7  9  2  3
 10 11  2  0
 10 12  1  0
 13 14  1  0
 13 15  2  0
 14 16  1  0
  2 17  1  0
  3 18  1  0
  3 19  1  0
  4 20  1  0
  4 21  1  0
  5 22  1  0
  5 23  1  0
  6 24  1  0
  8 25  1  0
  8 26  1  0
  9 27  1  0
 12 28  1  0
 14 29  1  0
 14 30  1  0
 16 31  1  0
 16 32  1  0
A    1
N1
A    2
C1
A    3
C2
A    4
C4
A    5
C5
A    6
N2
A    7
C6
A    8
N3
A    9
N4
A   10
C3
A   11
O1
A   12
O2
A   13
C8
A   14
C9
A   15
O4
A   16
C7
M  END
