1GX2_BHO_A_1309
     RDKit          3D

 17 17  0  0  0  0  0  0  0  0999 V2000
   -2.9740    6.7830   33.2130 C   0  0  0  0  0  0  0  0  0  0  0  0
   -3.9880    7.6980   33.6280 C   0  0  0  0  0  0  0  0  0  0  0  0
   -3.6650    8.6820   34.5720 C   0  0  0  0  0  0  0  0  0  0  0  0
   -2.4700    8.6390   35.2550 C   0  0  0  0  0  0  0  0  0  0  0  0
   -1.4700    7.7420   34.8870 C   0  0  0  0  0  0  0  0  0  0  0  0
   -1.6990    6.8100   33.8560 C   0  0  0  0  0  0  0  0  0  0  0  0
   -3.2350    5.8550   32.0930 C   0  0  0  0  0  0  0  0  0  0  0  0
   -2.2590    5.1350   31.6850 O   0  0  0  0  0  0  0  0  0  0  0  0
   -4.4140    5.7380   31.5710 N   0  0  0  0  0  0  0  0  0  0  0  0
   -4.7500    4.5490   30.8690 O   0  0  0  0  0  0  0  0  0  0  0  0
   -5.0050    7.6319   33.2141 H   0  0  0  0  0  0  0  0  0  0  0  0
   -4.3747    9.4988   34.7699 H   0  0  0  0  0  0  0  0  0  0  0  0
   -2.3032    9.3214   36.1015 H   0  0  0  0  0  0  0  0  0  0  0  0
   -0.4987    7.7615   35.4030 H   0  0  0  0  0  0  0  0  0  0  0  0
   -0.9059    6.1118   33.5500 H   0  0  0  0  0  0  0  0  0  0  0  0
   -5.1017    6.4992   31.6636 H   0  0  0  0  0  0  0  0  0  0  0  0
   -4.9534    3.8292   31.5175 H   0  0  0  0  0  0  0  0  0  0  0  0
  1  2  2  0
  1  6  1  0
  1  7  1  0
  2  3  1  0
  3  4  2  0
  4  5  1  0
  5  6  2  0
  7  8  2  0
  7  9  1  0
  9 10  1  0
  2 11  1  0
  3 12  1  0
  4 13  1  0
  5 14  1  0
  6 15  1  0
  9 16  1  0
 10 17  1  0
A    1
C1
A    2
C2
A    3
C3
A    4
C4
A    5
C5
A    6
C6
A    7
C
A    8
O1
A    9
N
A   10
O2
M  END
