1GYK_CDG_A_1207
     RDKit          3D

 34 35  0  0  0  0  0  0  0  0999 V2000
   89.9500   32.6860    4.9050 C   0  0  0  0  0  0  0  0  0  0  0  0
   90.7450   32.6840    6.2600 C   0  0  0  0  0  0  0  0  0  0  0  0
   92.2880   32.7700    5.9880 C   0  0  0  0  0  0  0  0  0  0  0  0
   92.7370   31.6730    4.9820 C   0  0  0  0  0  0  0  0  0  0  0  0
   91.9310   31.8060    3.6650 C   0  0  0  0  0  0  0  0  0  0  0  0
   92.3590   30.6510    2.7230 C   0  0  0  0  0  0  0  0  0  0  0  0
   92.7130   29.1280    4.7350 C   0  0  0  0  0  0  0  0  0  0  0  0
   94.2860   28.9910    4.6090 C   0  0  0  0  0  0  0  0  0  0  0  0
   92.3600   27.7950    5.3420 C   0  0  0  0  0  0  0  0  0  0  0  0
   88.5310   32.4280    5.1290 O   0  0  0  0  0  0  0  0  0  0  0  0
   90.3220   33.7830    7.0690 O   0  0  0  0  0  0  0  0  0  0  0  0
   93.0280   32.6120    7.2010 O   0  0  0  0  0  0  0  0  0  0  0  0
   92.4950   30.3400    5.5770 O   0  0  0  0  0  0  0  0  0  0  0  0
   90.5010   31.6990    3.9570 O   0  0  0  0  0  0  0  0  0  0  0  0
   92.1900   29.3430    3.3570 O   0  0  0  0  0  0  0  0  0  0  0  0
   95.0240   29.5060    5.4940 O   0  0  0  0  0  0  0  0  0  0  0  0
   94.7760   28.4160    3.6090 O   0  0  0  0  0  0  0  0  0  0  0  0
   88.1190   31.0400    5.2460 C   0  0  0  0  0  0  0  0  0  0  0  0
   90.0596   33.6875    4.4635 H   0  0  0  0  0  0  0  0  0  0  0  0
   90.5388   31.7449    6.7944 H   0  0  0  0  0  0  0  0  0  0  0  0
   92.4898   33.7633    5.5606 H   0  0  0  0  0  0  0  0  0  0  0  0
   93.8081   31.7935    4.7624 H   0  0  0  0  0  0  0  0  0  0  0  0
   92.1259   32.7786    3.1895 H   0  0  0  0  0  0  0  0  0  0  0  0
   91.7435   30.6876    1.8121 H   0  0  0  0  0  0  0  0  0  0  0  0
   93.4250   30.7808    2.4847 H   0  0  0  0  0  0  0  0  0  0  0  0
   92.3811   27.8745    6.4389 H   0  0  0  0  0  0  0  0  0  0  0  0
   91.3524   27.4986    5.0151 H   0  0  0  0  0  0  0  0  0  0  0  0
   93.0888   27.0387    5.0151 H   0  0  0  0  0  0  0  0  0  0  0  0
   90.4141   33.5436    8.0252 H   0  0  0  0  0  0  0  0  0  0  0  0
   92.4243   32.7409    7.9750 H   0  0  0  0  0  0  0  0  0  0  0  0
   94.8204   29.3639    6.4524 H   0  0  0  0  0  0  0  0  0  0  0  0
   88.0388   30.7697    6.3093 H   0  0  0  0  0  0  0  0  0  0  0  0
   87.1421   30.9052    4.7587 H   0  0  0  0  0  0  0  0  0  0  0  0
   88.8641   30.3940    4.7587 H   0  0  0  0  0  0  0  0  0  0  0  0
  1  2  1  0
  1 10  1  0
  1 14  1  0
  2  3  1  0
  2 11  1  0
  3  4  1  0
  3 12  1  0
  4  5  1  0
  4 13  1  0
  5  6  1  0
  5 14  1  0
  6 15  1  0
  7  8  1  0
  7  9  1  0
  7 13  1  0
  7 15  1  0
  8 16  1  0
  8 17  2  0
 10 18  1  0
  1 19  1  0
  2 20  1  0
  3 21  1  0
  4 22  1  0
  5 23  1  0
  6 24  1  0
  6 25  1  0
  9 26  1  0
  9 27  1  0
  9 28  1  0
 11 29  1  0
 12 30  1  0
 16 31  1  0
 18 32  1  0
 18 33  1  0
 18 34  1  0
A    1
C1
A    2
C2
A    3
C3
A    4
C4
A    5
C5
A    6
C6
A    7
C7
A    8
C8
A    9
C9
A   10
O1
A   11
O2
A   12
O3
A   13
O4
A   14
O5
A   15
O6
A   16
O8A
A   17
O8B
A   18
C10
M  END
