1GYM_MYG_A_702
     RDKit          3D

 46 47  0  0  0  0  0  0  0  0999 V2000
   20.4290   26.7150  102.5950 C   0  0  0  0  0  0  0  0  0  0  0  0
   20.1660   28.2550  102.7730 C   0  0  0  0  0  0  0  0  0  0  0  0
   21.5110   28.9830  103.0620 C   0  0  0  0  0  0  0  0  0  0  0  0
   22.5160   28.6770  101.9330 C   0  0  0  0  0  0  0  0  0  0  0  0
   22.8180   27.1660  101.9440 C   0  0  0  0  0  0  0  0  0  0  0  0
   21.5410   26.3840  101.5720 C   0  0  0  0  0  0  0  0  0  0  0  0
   22.0200   24.3300  100.4230 C   0  0  0  0  0  0  0  0  0  0  0  0
   21.0080   23.1530  100.3160 C   0  0  0  0  0  0  0  0  0  0  0  0
   21.4950   21.9460  101.1790 C   0  0  0  0  0  0  0  0  0  0  0  0
   22.8820   21.5390  100.6840 C   0  0  0  0  0  0  0  0  0  0  0  0
   23.8470   22.7000  100.9730 C   0  0  0  0  0  0  0  0  0  0  0  0
   25.2970   22.4020  100.4690 C   0  0  0  0  0  0  0  0  0  0  0  0
   19.6650   23.6200  100.7570 N   0  0  0  0  0  0  0  0  0  0  0  0
   19.2480   26.0810  102.2030 O   0  0  0  0  0  0  0  0  0  0  0  0
   19.5620   28.7880  101.6150 O   0  0  0  0  0  0  0  0  0  0  0  0
   21.3050   30.4000  103.2310 O   0  0  0  0  0  0  0  0  0  0  0  0
   23.7330   29.3690  102.1830 O   0  0  0  0  0  0  0  0  0  0  0  0
   23.8800   26.8750  101.0440 O   0  0  0  0  0  0  0  0  0  0  0  0
   21.8140   24.9840  101.6680 O   0  0  0  0  0  0  0  0  0  0  0  0
   20.6040   20.8210  101.0780 O   0  0  0  0  0  0  0  0  0  0  0  0
   23.3210   20.3570  101.3410 O   0  0  0  0  0  0  0  0  0  0  0  0
   23.3960   23.8700  100.2470 O   0  0  0  0  0  0  0  0  0  0  0  0
   26.1150   21.6710  101.5470 O   0  0  0  0  0  0  0  0  0  0  0  0
   20.7757   26.3478  103.5722 H   0  0  0  0  0  0  0  0  0  0  0  0
   19.4823   28.4067  103.6213 H   0  0  0  0  0  0  0  0  0  0  0  0
   21.9307   28.6090  104.0075 H   0  0  0  0  0  0  0  0  0  0  0  0
   22.0934   28.9892  100.9666 H   0  0  0  0  0  0  0  0  0  0  0  0
   23.1346   26.8583  102.9515 H   0  0  0  0  0  0  0  0  0  0  0  0
   21.2262   26.6555  100.5536 H   0  0  0  0  0  0  0  0  0  0  0  0
   21.8473   25.0522   99.6114 H   0  0  0  0  0  0  0  0  0  0  0  0
   20.9396   22.8147   99.2716 H   0  0  0  0  0  0  0  0  0  0  0  0
   21.5211   22.2532  102.2349 H   0  0  0  0  0  0  0  0  0  0  0  0
   22.8501   21.3281   99.6049 H   0  0  0  0  0  0  0  0  0  0  0  0
   23.8597   22.8491  102.0628 H   0  0  0  0  0  0  0  0  0  0  0  0
   25.2428   21.7716   99.5692 H   0  0  0  0  0  0  0  0  0  0  0  0
   25.7922   23.3573  100.2405 H   0  0  0  0  0  0  0  0  0  0  0  0
   19.6270   23.6332  101.7862 H   0  0  0  0  0  0  0  0  0  0  0  0
   19.4956   24.5693  100.3950 H   0  0  0  0  0  0  0  0  0  0  0  0
   18.7381   25.8073  103.0062 H   0  0  0  0  0  0  0  0  0  0  0  0
   18.8462   29.4197  101.8771 H   0  0  0  0  0  0  0  0  0  0  0  0
   21.2736   30.6160  104.1966 H   0  0  0  0  0  0  0  0  0  0  0  0
   23.8728   29.4485  103.1599 H   0  0  0  0  0  0  0  0  0  0  0  0
   24.6961   26.6514  101.5579 H   0  0  0  0  0  0  0  0  0  0  0  0
   20.3589   20.5116  101.9859 H   0  0  0  0  0  0  0  0  0  0  0  0
   23.2727   20.4870  102.3212 H   0  0  0  0  0  0  0  0  0  0  0  0
   25.8027   21.9501  102.4440 H   0  0  0  0  0  0  0  0  0  0  0  0
  1  2  1  0
  1  6  1  0
  1 14  1  0
  2  3  1  0
  2 15  1  0
  3  4  1  0
  3 16  1  0
  4  5  1  0
  4 17  1  0
  5  6  1  0
  5 18  1  0
  6 19  1  0
  7  8  1  0
  7 19  1  0
  7 22  1  0
  8  9  1  0
  8 13  1  0
  9 10  1  0
  9 20  1  0
 10 11  1  0
 10 21  1  0
 11 12  1  0
 11 22  1  0
 12 23  1  0
  1 24  1  0
  2 25  1  0
  3 26  1  0
  4 27  1  0
  5 28  1  0
  6 29  1  0
  7 30  1  0
  8 31  1  0
  9 32  1  0
 10 33  1  0
 11 34  1  0
 12 35  1  0
 12 36  1  0
 13 37  1  0
 13 38  1  0
 14 39  1  0
 15 40  1  0
 16 41  1  0
 17 42  1  0
 18 43  1  0
 20 44  1  0
 21 45  1  0
 23 46  1  0
A    1
C1
A    2
C2
A    3
C3
A    4
C4
A    5
C5
A    6
C6
A    7
C7
A    8
C8
A    9
C9
A   10
C10
A   11
C11
A   12
C12
A   13
N8
A   14
O1
A   15
O2
A   16
O3
A   17
O4
A   18
O5
A   19
O6
A   20
O9
A   21
O10
A   22
O11
A   23
O12
M  END
