1GYQ_NBD_A_361
     RDKit          3D

 84 89  0  0  0  0  0  0  0  0999 V2000
    9.8270   67.9780    7.7460 P   0  0  0  0  0  0  0  0  0  0  0  0
    9.8940   66.6190    7.1090 O   0  0  0  0  0  0  0  0  0  0  0  0
    8.5560   68.3740    8.4600 O   0  0  0  0  0  0  0  0  0  0  0  0
   10.1470   69.1210    6.6560 O   0  0  0  0  0  0  0  0  0  0  0  0
   10.8120   68.8340    5.4110 C   0  0  0  0  0  0  0  0  0  0  0  0
    9.9650   69.4310    4.3060 C   0  0  0  0  0  0  0  0  0  0  0  0
   10.7040   69.4440    3.0740 O   0  0  0  0  0  0  0  0  0  0  0  0
    8.6990   68.6210    4.0800 C   0  0  0  0  0  0  0  0  0  0  0  0
    7.5560   69.4750    4.0910 O   0  0  0  0  0  0  0  0  0  0  0  0
    8.9350   67.9390    2.7340 C   0  0  0  0  0  0  0  0  0  0  0  0
    7.7500   67.7200    1.9750 O   0  0  0  0  0  0  0  0  0  0  0  0
    9.8180   68.9510    2.0600 C   0  0  0  0  0  0  0  0  0  0  0  0
   10.5650   68.5480    0.8970 N   0  0  0  0  0  0  0  0  0  0  0  0
   11.0240   67.3120    0.5730 C   0  0  0  0  0  0  0  0  0  0  0  0
   11.7340   67.3500   -0.5720 N   0  0  0  0  0  0  0  0  0  0  0  0
   11.7300   68.6270   -0.9730 C   0  0  0  0  0  0  0  0  0  0  0  0
   12.3090   69.3010   -2.0790 C   0  0  0  0  0  0  0  0  0  0  0  0
   13.0700   68.7520   -3.0570 N   0  0  0  0  0  0  0  0  0  0  0  0
   12.1000   70.6510   -2.1750 N   0  0  0  0  0  0  0  0  0  0  0  0
   11.3750   71.3850   -1.2770 C   0  0  0  0  0  0  0  0  0  0  0  0
   10.8270   70.7300   -0.2140 N   0  0  0  0  0  0  0  0  0  0  0  0
   10.9980   69.3850   -0.0600 C   0  0  0  0  0  0  0  0  0  0  0  0
   11.1420   68.1280    8.6310 O   0  0  0  0  0  0  0  0  0  0  0  0
   11.7040   69.2440    9.6180 P   0  0  0  0  0  0  0  0  0  0  0  0
   11.5740   68.6910   11.0130 O   0  0  0  0  0  0  0  0  0  0  0  0
   11.0680   70.5420    9.2280 O   0  0  0  0  0  0  0  0  0  0  0  0
   13.2690   69.3030    9.2820 O   0  0  0  0  0  0  0  0  0  0  0  0
   13.7820   69.9880    8.1350 C   0  0  0  0  0  0  0  0  0  0  0  0
   15.2570   70.2840    8.3540 C   0  0  0  0  0  0  0  0  0  0  0  0
   15.3510   71.1700    9.4810 O   0  0  0  0  0  0  0  0  0  0  0  0
   16.0900   69.0570    8.6920 C   0  0  0  0  0  0  0  0  0  0  0  0
   17.4050   69.1910    8.1420 O   0  0  0  0  0  0  0  0  0  0  0  0
   16.1320   69.0460   10.2100 C   0  0  0  0  0  0  0  0  0  0  0  0
   17.3650   68.4960   10.6800 O   0  0  0  0  0  0  0  0  0  0  0  0
   16.0560   70.5190   10.5550 C   0  0  0  0  0  0  0  0  0  0  0  0
   15.5320   70.8300   11.9160 N   0  0  0  0  0  0  0  0  0  0  0  0
   14.3810   70.2240   12.4800 C   0  0  0  0  0  0  0  0  0  0  0  0
   14.0490   70.4870   13.8160 C   0  0  0  0  0  0  0  0  0  0  0  0
   12.8500   69.8660   14.5420 C   0  0  0  0  0  0  0  0  0  0  0  0
   12.8900   69.7550   15.7660 O   0  0  0  0  0  0  0  0  0  0  0  0
   11.8090   69.4690   13.8170 N   0  0  0  0  0  0  0  0  0  0  0  0
   14.8440   71.3570   14.5570 C   0  0  0  0  0  0  0  0  0  0  0  0
   15.9730   71.9620   14.0070 C   0  0  0  0  0  0  0  0  0  0  0  0
   16.3170   71.6990   12.6850 C   0  0  0  0  0  0  0  0  0  0  0  0
   13.3250   67.3620   -3.2700 C   0  0  0  0  0  0  0  0  0  0  0  0
   12.3140   66.6180   -4.0460 C   0  0  0  0  0  0  0  0  0  0  0  0
   11.6150   67.2090   -5.1570 C   0  0  0  0  0  0  0  0  0  0  0  0
   12.0530   65.2680   -3.6340 C   0  0  0  0  0  0  0  0  0  0  0  0
   10.6450   66.4380   -5.8690 C   0  0  0  0  0  0  0  0  0  0  0  0
   11.0850   64.4900   -4.3410 C   0  0  0  0  0  0  0  0  0  0  0  0
   10.4000   65.0910   -5.4470 C   0  0  0  0  0  0  0  0  0  0  0  0
    8.6995   68.3293    9.4385 H   0  0  0  0  0  0  0  0  0  0  0  0
   11.8142   69.2875    5.4052 H   0  0  0  0  0  0  0  0  0  0  0  0
   10.9304   67.7494    5.2712 H   0  0  0  0  0  0  0  0  0  0  0  0
    9.6974   70.4525    4.6140 H   0  0  0  0  0  0  0  0  0  0  0  0
    8.4969   67.8784    4.8659 H   0  0  0  0  0  0  0  0  0  0  0  0
    7.2974   69.6682    5.0269 H   0  0  0  0  0  0  0  0  0  0  0  0
    9.3529   66.9269    2.8389 H   0  0  0  0  0  0  0  0  0  0  0  0
    6.9863   67.5789    2.5889 H   0  0  0  0  0  0  0  0  0  0  0  0
    9.1402   69.7034    1.6305 H   0  0  0  0  0  0  0  0  0  0  0  0
   10.8412   66.4029    1.1647 H   0  0  0  0  0  0  0  0  0  0  0  0
   13.5120   69.4069   -3.7177 H   0  0  0  0  0  0  0  0  0  0  0  0
   11.2384   72.4686   -1.4081 H   0  0  0  0  0  0  0  0  0  0  0  0
   13.6612   69.3556    7.2431 H   0  0  0  0  0  0  0  0  0  0  0  0
   13.2320   70.9291    7.9873 H   0  0  0  0  0  0  0  0  0  0  0  0
   15.6461   70.7030    7.4143 H   0  0  0  0  0  0  0  0  0  0  0  0
   15.6741   68.1250    8.2816 H   0  0  0  0  0  0  0  0  0  0  0  0
   18.0648   69.2582    8.8770 H   0  0  0  0  0  0  0  0  0  0  0  0
   15.3327   68.4399   10.6614 H   0  0  0  0  0  0  0  0  0  0  0  0
   17.3694   68.4941   11.6700 H   0  0  0  0  0  0  0  0  0  0  0  0
   17.0767   70.9216   10.6334 H   0  0  0  0  0  0  0  0  0  0  0  0
   13.7540   69.5532   11.8743 H   0  0  0  0  0  0  0  0  0  0  0  0
   10.9511   69.1418   14.2838 H   0  0  0  0  0  0  0  0  0  0  0  0
   11.8603   69.4885   12.7885 H   0  0  0  0  0  0  0  0  0  0  0  0
   14.5748   71.5722   15.6016 H   0  0  0  0  0  0  0  0  0  0  0  0
   16.5877   72.6427   14.6142 H   0  0  0  0  0  0  0  0  0  0  0  0
   17.2057   72.1735   12.2433 H   0  0  0  0  0  0  0  0  0  0  0  0
   14.2841   67.2759   -3.8017 H   0  0  0  0  0  0  0  0  0  0  0  0
   13.3152   66.9076   -2.2683 H   0  0  0  0  0  0  0  0  0  0  0  0
   11.8259   68.2464   -5.4557 H   0  0  0  0  0  0  0  0  0  0  0  0
   12.5944   64.8352   -2.7798 H   0  0  0  0  0  0  0  0  0  0  0  0
   10.0991   66.8688   -6.7213 H   0  0  0  0  0  0  0  0  0  0  0  0
   10.8705   63.4531   -4.0430 H   0  0  0  0  0  0  0  0  0  0  0  0
    9.6558   64.4938   -5.9942 H   0  0  0  0  0  0  0  0  0  0  0  0
  1  2  2  0
  1  3  1  0
  1  4  1  0
  1 23  1  0
  4  5  1  0
  5  6  1  0
  6  7  1  0
  6  8  1  0
  7 12  1  0
  8  9  1  0
  8 10  1  0
 10 11  1  0
 10 12  1  0
 12 13  1  0
 13 14  1  0
 13 22  1  0
 14 15  2  0
 15 16  1  0
 16 17  1  0
 16 22  2  0
 17 18  1  0
 17 19  2  0
 18 45  1  0
 19 20  1  0
 20 21  2  0
 21 22  1  0
 23 24  1  0
 24 25  2  0
 24 26  1  0
 24 27  1  0
 27 28  1  0
 28 29  1  0
 29 30  1  0
 29 31  1  0
 30 35  1  0
 31 32  1  0
 31 33  1  0
 33 34  1  0
 33 35  1  0
 35 36  1  0
 36 37  2  0
 36 44  1  0
 37 38  1  0
 38 39  1  0
 38 42  2  0
 39 40  2  0
 39 41  1  0
 42 43  1  0
 43 44  2  0
 45 46  1  0
 46 47  2  0
 46 48  1  0
 47 49  1  0
 48 50  2  0
 49 51  2  0
 50 51  1  0
  3 52  1  0
  5 53  1  0
  5 54  1  0
  6 55  1  0
  8 56  1  0
  9 57  1  0
 10 58  1  0
 11 59  1  0
 12 60  1  0
 14 61  1  0
 18 62  1  0
 20 63  1  0
 28 64  1  0
 28 65  1  0
 29 66  1  0
 31 67  1  0
 32 68  1  0
 33 69  1  0
 34 70  1  0
 35 71  1  0
 37 72  1  0
 41 73  1  0
 41 74  1  0
 42 75  1  0
 43 76  1  0
 44 77  1  0
 45 78  1  0
 45 79  1  0
 47 80  1  0
 48 81  1  0
 49 82  1  0
 50 83  1  0
 51 84  1  0
M  CHG  2  26  -1  36   1
A    1
PA
A    2
O11
A    3
O12
A    4
O5B
A    5
C5B
A    6
C4B
A    7
O4B
A    8
C3B
A    9
O3B
A   10
C2B
A   11
O2B
A   12
C1B
A   13
N9A
A   14
C8A
A   15
N7A
A   16
C5A
A   17
C6A
A   18
N6A
A   19
N1A
A   20
C2A
A   21
N3A
A   22
C4A
A   23
O3
A   24
PN
A   25
O13
A   26
O14
A   27
O5D
A   28
C5D
A   29
C4D
A   30
O4D
A   31
C3D
A   32
O3D
A   33
C2D
A   34
O2D
A   35
C1D
A   36
N1N
A   37
C2N
A   38
C3N
A   39
C7N
A   40
O7N
A   41
N7N
A   42
C4N
A   43
C5N
A   44
C6N
A   45
CB1
A   46
CB2
A   47
CB3
A   48
CB7
A   49
CB4
A   50
CB6
A   51
CB5
M  END
