1GYY_FHC_A_500
     RDKit          3D

 19 19  0  0  0  0  0  0  0  0999 V2000
   12.1640    2.4570   -4.4480 C   0  0  0  0  0  0  0  0  0  0  0  0
   12.4360    1.4470   -3.4280 C   0  0  0  0  0  0  0  0  0  0  0  0
   13.4880    1.3100   -2.6160 C   0  0  0  0  0  0  0  0  0  0  0  0
   14.6510    2.1900   -2.5690 C   0  0  0  0  0  0  0  0  0  0  0  0
   15.7850    1.7830   -2.4520 O   0  0  0  0  0  0  0  0  0  0  0  0
   14.3920    3.5010   -2.7030 O   0  0  0  0  0  0  0  0  0  0  0  0
   13.5340    0.2590   -1.7540 F   0  0  0  0  0  0  0  0  0  0  0  0
   13.1750    2.9500   -5.2850 C   0  0  0  0  0  0  0  0  0  0  0  0
   12.9230    3.8910   -6.2590 C   0  0  0  0  0  0  0  0  0  0  0  0
   11.6220    4.3610   -6.4280 C   0  0  0  0  0  0  0  0  0  0  0  0
   11.3540    5.3150   -7.3740 O   0  0  0  0  0  0  0  0  0  0  0  0
   10.6230    3.8720   -5.6120 C   0  0  0  0  0  0  0  0  0  0  0  0
   10.8590    2.9250   -4.6370 C   0  0  0  0  0  0  0  0  0  0  0  0
   11.6545    0.6818   -3.3106 H   0  0  0  0  0  0  0  0  0  0  0  0
   14.2011    2.5738   -5.1601 H   0  0  0  0  0  0  0  0  0  0  0  0
   13.7381    4.2665   -6.8951 H   0  0  0  0  0  0  0  0  0  0  0  0
   11.0971    6.2297   -7.0957 H   0  0  0  0  0  0  0  0  0  0  0  0
    9.5991    4.2517   -5.7438 H   0  0  0  0  0  0  0  0  0  0  0  0
   10.0338    2.5436   -4.0176 H   0  0  0  0  0  0  0  0  0  0  0  0
  1  2  1  0
  1  8  2  0
  1 13  1  0
  2  3  2  0
  3  4  1  0
  3  7  1  0
  4  5  2  0
  4  6  1  0
  8  9  1  0
  9 10  2  0
 10 11  1  0
 10 12  1  0
 12 13  2  0
  2 14  1  0
  8 15  1  0
  9 16  1  0
 11 17  1  0
 12 18  1  0
 13 19  1  0
M  CHG  1   6  -1
A    1
C1
A    2
C7
A    3
C8
A    4
C9
A    5
O3
A    6
O2
A    7
F1
A    8
C6
A    9
C5
A   10
C4
A   11
O1
A   12
C3
A   13
C2
M  END
