1GZR_C15_B_1067
     RDKit          3D

 54 53  0  0  0  0  0  0  0  0999 V2000
   19.9890    6.9320   31.1990 C   0  0  0  0  0  0  0  0  0  0  0  0
   20.0580    8.3150   30.5210 C   0  0  0  0  0  0  0  0  0  0  0  0
   21.4560    8.6010   29.9450 C   0  0  0  0  0  0  0  0  0  0  0  0
   18.8900   19.1980   38.3110 C   0  0  0  0  0  0  0  0  0  0  0  0
   17.5950   18.4610   38.1540 C   0  0  0  0  0  0  0  0  0  0  0  0
   17.4430   18.1490   36.6820 C   0  0  0  0  0  0  0  0  0  0  0  0
   17.5480   16.6710   36.3760 C   0  0  0  0  0  0  0  0  0  0  0  0
   21.6610   10.0070   29.6000 N   0  0  0  0  0  0  0  0  0  0  0  0
   17.3230   16.5970   34.8850 C   0  0  0  0  0  0  0  0  0  0  0  0
   17.7750   15.2610   34.3390 C   0  0  0  0  0  0  0  0  0  0  0  0
   19.0000   15.4990   33.4800 C   0  0  0  0  0  0  0  0  0  0  0  0
   19.6980   14.1750   33.2540 C   0  0  0  0  0  0  0  0  0  0  0  0
   19.5090   13.6930   31.8290 C   0  0  0  0  0  0  0  0  0  0  0  0
   20.2300   12.3540   31.6550 C   0  0  0  0  0  0  0  0  0  0  0  0
   20.8170   12.2340   30.2560 C   0  0  0  0  0  0  0  0  0  0  0  0
   20.5040   10.8850   29.6180 C   0  0  0  0  0  0  0  0  0  0  0  0
   18.3950    6.5500   31.9730 S   0  0  0  0  0  0  0  0  0  0  0  0
   18.6470    5.5320   32.9480 O   0  0  0  0  0  0  0  0  0  0  0  0
   17.8240    7.6710   32.6360 O   0  0  0  0  0  0  0  0  0  0  0  0
   17.3220    5.8110   30.7900 O   0  0  0  0  0  0  0  0  0  0  0  0
   20.1927    6.1656   30.4367 H   0  0  0  0  0  0  0  0  0  0  0  0
   20.7338    6.9440   32.0084 H   0  0  0  0  0  0  0  0  0  0  0  0
   19.3228    8.3476   29.7035 H   0  0  0  0  0  0  0  0  0  0  0  0
   19.8389    9.0793   31.2812 H   0  0  0  0  0  0  0  0  0  0  0  0
   22.2083    8.3116   30.6935 H   0  0  0  0  0  0  0  0  0  0  0  0
   21.5517    8.0195   29.0162 H   0  0  0  0  0  0  0  0  0  0  0  0
   19.1125   19.3246   39.3808 H   0  0  0  0  0  0  0  0  0  0  0  0
   19.6984   18.6247   37.8337 H   0  0  0  0  0  0  0  0  0  0  0  0
   18.8099   20.1858   37.8337 H   0  0  0  0  0  0  0  0  0  0  0  0
   17.6169   17.5291   38.7380 H   0  0  0  0  0  0  0  0  0  0  0  0
   16.7511   19.0657   38.5176 H   0  0  0  0  0  0  0  0  0  0  0  0
   16.4579   18.5068   36.3479 H   0  0  0  0  0  0  0  0  0  0  0  0
   18.2648   18.6533   36.1526 H   0  0  0  0  0  0  0  0  0  0  0  0
   18.5431   16.2851   36.6421 H   0  0  0  0  0  0  0  0  0  0  0  0
   16.8280   16.0656   36.9462 H   0  0  0  0  0  0  0  0  0  0  0  0
   22.3473   10.3897   30.2659 H   0  0  0  0  0  0  0  0  0  0  0  0
   21.9589    9.9911   28.6142 H   0  0  0  0  0  0  0  0  0  0  0  0
   16.2512   16.7283   34.6751 H   0  0  0  0  0  0  0  0  0  0  0  0
   17.9085   17.3922   34.4003 H   0  0  0  0  0  0  0  0  0  0  0  0
   18.0262   14.5839   35.1687 H   0  0  0  0  0  0  0  0  0  0  0  0
   16.9734   14.7995   33.7436 H   0  0  0  0  0  0  0  0  0  0  0  0
   18.6968   15.9275   32.5133 H   0  0  0  0  0  0  0  0  0  0  0  0
   19.6809   16.2008   33.9839 H   0  0  0  0  0  0  0  0  0  0  0  0
   20.7731   14.2976   33.4519 H   0  0  0  0  0  0  0  0  0  0  0  0
   19.2613   13.4298   33.9351 H   0  0  0  0  0  0  0  0  0  0  0  0
   18.4363   13.5636   31.6229 H   0  0  0  0  0  0  0  0  0  0  0  0
   19.9250   14.4324   31.1288 H   0  0  0  0  0  0  0  0  0  0  0  0
   21.0417   12.2828   32.3940 H   0  0  0  0  0  0  0  0  0  0  0  0
   19.5043   11.5409   31.8038 H   0  0  0  0  0  0  0  0  0  0  0  0
   20.3967   13.0311   29.6251 H   0  0  0  0  0  0  0  0  0  0  0  0
   21.9102   12.3253   30.3377 H   0  0  0  0  0  0  0  0  0  0  0  0
   20.1688   11.0512   28.5836 H   0  0  0  0  0  0  0  0  0  0  0  0
   19.7204   10.4001   30.2187 H   0  0  0  0  0  0  0  0  0  0  0  0
   16.6040    5.3165   31.2592 H   0  0  0  0  0  0  0  0  0  0  0  0
  1  2  1  0
  1 17  1  0
  2  3  1  0
  3  8  1  0
  4  5  1  0
  5  6  1  0
  6  7  1  0
  7  9  1  0
  8 16  1  0
  9 10  1  0
 10 11  1  0
 11 12  1  0
 12 13  1  0
 13 14  1  0
 14 15  1  0
 15 16  1  0
 17 18  2  0
 17 19  2  0
 17 20  1  0
  1 21  1  0
  1 22  1  0
  2 23  1  0
  2 24  1  0
  3 25  1  0
  3 26  1  0
  4 27  1  0
  4 28  1  0
  4 29  1  0
  5 30  1  0
  5 31  1  0
  6 32  1  0
  6 33  1  0
  7 34  1  0
  7 35  1  0
  8 36  1  0
  8 37  1  0
  9 38  1  0
  9 39  1  0
 10 40  1  0
 10 41  1  0
 11 42  1  0
 11 43  1  0
 12 44  1  0
 12 45  1  0
 13 46  1  0
 13 47  1  0
 14 48  1  0
 14 49  1  0
 15 50  1  0
 15 51  1  0
 16 52  1  0
 16 53  1  0
 20 54  1  0
M  CHG  1   8   1
A    1
C1
A    2
C2
A    3
C3
A    4
C5
A    5
C6
A    6
C7
A    7
C8
A    8
N1
A    9
C9
A   10
C10
A   11
C11
A   12
C12
A   13
C13
A   14
C14
A   15
C15
A   16
C16
A   17
S1
A   18
O1S
A   19
O2S
A   20
O3S
M  END
