1H2J_DCB_A_1304
     RDKit          3D

 58 60  0  0  0  0  0  0  0  0999 V2000
   61.2130   41.5130   36.1900 C   0  0  0  0  0  0  0  0  0  0  0  0
   60.1620   41.9960   35.1870 C   0  0  0  0  0  0  0  0  0  0  0  0
   60.4200   43.4390   34.7530 C   0  0  0  0  0  0  0  0  0  0  0  0
   61.0100   44.1700   35.9470 C   0  0  0  0  0  0  0  0  0  0  0  0
   62.4440   43.6610   36.1230 C   0  0  0  0  0  0  0  0  0  0  0  0
   63.0930   44.1370   37.4180 C   0  0  0  0  0  0  0  0  0  0  0  0
   60.5980   41.5550   37.5070 O   0  0  0  0  0  0  0  0  0  0  0  0
   60.1730   41.1980   34.0610 F   0  0  0  0  0  0  0  0  0  0  0  0
   59.1630   43.9460   34.3910 O   0  0  0  0  0  0  0  0  0  0  0  0
   61.0960   45.5570   35.6730 O   0  0  0  0  0  0  0  0  0  0  0  0
   62.4770   42.2170   36.1160 O   0  0  0  0  0  0  0  0  0  0  0  0
   62.2890   43.7750   38.5570 O   0  0  0  0  0  0  0  0  0  0  0  0
   60.6910   46.3660   36.7680 C   0  0  0  0  0  0  0  0  0  0  0  0
   61.0320   47.7830   36.3870 C   0  0  0  0  0  0  0  0  0  0  0  0
   60.4270   48.7470   37.4070 C   0  0  0  0  0  0  0  0  0  0  0  0
   58.9260   48.4810   37.5160 C   0  0  0  0  0  0  0  0  0  0  0  0
   58.6860   47.0130   37.8750 C   0  0  0  0  0  0  0  0  0  0  0  0
   57.2370   46.5890   37.9700 C   0  0  0  0  0  0  0  0  0  0  0  0
   62.4350   47.9370   36.3180 O   0  0  0  0  0  0  0  0  0  0  0  0
   60.6520   50.1010   37.0150 O   0  0  0  0  0  0  0  0  0  0  0  0
   58.3250   49.3210   38.5230 O   0  0  0  0  0  0  0  0  0  0  0  0
   59.2840   46.2290   36.8230 O   0  0  0  0  0  0  0  0  0  0  0  0
   56.6150   46.8540   36.7080 O   0  0  0  0  0  0  0  0  0  0  0  0
   61.1470   40.7440   38.4740 C   0  0  0  0  0  0  0  0  0  0  0  0
   62.2080   39.8360   38.2810 C   0  0  0  0  0  0  0  0  0  0  0  0
   62.6750   39.0320   39.3260 C   0  0  0  0  0  0  0  0  0  0  0  0
   62.1320   39.0780   40.5950 C   0  0  0  0  0  0  0  0  0  0  0  0
   61.0740   39.9920   40.8360 C   0  0  0  0  0  0  0  0  0  0  0  0
   60.5700   40.8270   39.8180 C   0  0  0  0  0  0  0  0  0  0  0  0
   62.6370   38.2100   41.6000 N   0  0  0  0  0  0  0  0  0  0  0  0
   59.5540   41.7130   40.1020 N   0  0  0  0  0  0  0  0  0  0  0  0
   63.3740   37.3250   41.2150 O   0  0  0  0  0  0  0  0  0  0  0  0
   62.3690   38.1710   42.7380 O   0  0  0  0  0  0  0  0  0  0  0  0
   59.2040   42.6070   39.3520 O   0  0  0  0  0  0  0  0  0  0  0  0
   59.1370   41.6320   41.2750 O   0  0  0  0  0  0  0  0  0  0  0  0
   61.5071   40.4824   35.9424 H   0  0  0  0  0  0  0  0  0  0  0  0
   59.1854   41.9392   35.6900 H   0  0  0  0  0  0  0  0  0  0  0  0
   61.1209   43.5440   33.9118 H   0  0  0  0  0  0  0  0  0  0  0  0
   60.3845   43.9996   36.8356 H   0  0  0  0  0  0  0  0  0  0  0  0
   63.0106   44.0738   35.2753 H   0  0  0  0  0  0  0  0  0  0  0  0
   64.0857   43.6732   37.5154 H   0  0  0  0  0  0  0  0  0  0  0  0
   63.1835   45.2328   37.3846 H   0  0  0  0  0  0  0  0  0  0  0  0
   58.6440   44.1553   35.2076 H   0  0  0  0  0  0  0  0  0  0  0  0
   62.7778   43.9951   39.3893 H   0  0  0  0  0  0  0  0  0  0  0  0
   61.1609   46.0992   37.7261 H   0  0  0  0  0  0  0  0  0  0  0  0
   60.6109   48.0113   35.3968 H   0  0  0  0  0  0  0  0  0  0  0  0
   60.9076   48.5858   38.3832 H   0  0  0  0  0  0  0  0  0  0  0  0
   58.4648   48.7101   36.5440 H   0  0  0  0  0  0  0  0  0  0  0  0
   59.1152   46.8626   38.8766 H   0  0  0  0  0  0  0  0  0  0  0  0
   57.1766   45.5145   38.1977 H   0  0  0  0  0  0  0  0  0  0  0  0
   56.7279   47.1448   38.7712 H   0  0  0  0  0  0  0  0  0  0  0  0
   62.8079   47.9779   37.2342 H   0  0  0  0  0  0  0  0  0  0  0  0
   60.7460   50.6669   37.8219 H   0  0  0  0  0  0  0  0  0  0  0  0
   58.5667   48.9832   39.4217 H   0  0  0  0  0  0  0  0  0  0  0  0
   55.7147   47.2376   36.8579 H   0  0  0  0  0  0  0  0  0  0  0  0
   62.6777   39.7583   37.2894 H   0  0  0  0  0  0  0  0  0  0  0  0
   63.5052   38.3376   39.1298 H   0  0  0  0  0  0  0  0  0  0  0  0
   60.6356   40.0507   41.8432 H   0  0  0  0  0  0  0  0  0  0  0  0
  1  2  1  0
  1  7  1  0
  1 11  1  0
  2  3  1  0
  2  8  1  0
  3  4  1  0
  3  9  1  0
  4  5  1  0
  4 10  1  0
  5  6  1  0
  5 11  1  0
  6 12  1  0
  7 24  1  0
 10 13  1  0
 13 14  1  0
 13 22  1  0
 14 15  1  0
 14 19  1  0
 15 16  1  0
 15 20  1  0
 16 17  1  0
 16 21  1  0
 17 18  1  0
 17 22  1  0
 18 23  1  0
 24 25  2  0
 24 29  1  0
 25 26  1  0
 26 27  2  0
 27 28  1  0
 27 30  1  0
 28 29  2  0
 29 31  1  0
 30 32  1  0
 30 33  2  0
 31 34  1  0
 31 35  2  0
  1 36  1  0
  2 37  1  0
  3 38  1  0
  4 39  1  0
  5 40  1  0
  6 41  1  0
  6 42  1  0
  9 43  1  0
 12 44  1  0
 13 45  1  0
 14 46  1  0
 15 47  1  0
 16 48  1  0
 17 49  1  0
 18 50  1  0
 18 51  1  0
 19 52  1  0
 20 53  1  0
 21 54  1  0
 23 55  1  0
 25 56  1  0
 26 57  1  0
 28 58  1  0
M  CHG  4  30   1  31   1  32  -1  34  -1
A    1
C1A
A    2
C2A
A    3
C3A
A    4
C4A
A    5
C5A
A    6
C6A
A    7
O1A
A    8
F2A
A    9
O3A
A   10
O4A
A   11
O5A
A   12
O6A
A   13
C1B
A   14
C2B
A   15
C3B
A   16
C4B
A   17
C5B
A   18
C6B
A   19
O2B
A   20
O3B
A   21
O4B
A   22
O5B
A   23
O6B
A   24
C1
A   25
C2
A   26
C3
A   27
C4
A   28
C5
A   29
C6
A   30
N4
A   31
N6
A   32
O41
A   33
O42
A   34
O61
A   35
O62
M  END
