1H39_R03_A_800
     RDKit          3D

 59 61  0  0  0  0  0  0  0  0999 V2000
   62.8900   69.3740   58.5870 C   0  0  0  0  0  0  0  0  0  0  0  0
   61.9930   69.4620   59.5790 C   0  0  0  0  0  0  0  0  0  0  0  0
   61.5190   70.7790   60.1670 C   0  0  0  0  0  0  0  0  0  0  0  0
   62.5280   71.4070   61.0700 N   0  0  0  0  0  0  0  0  0  0  0  0
   62.3000   71.0920   62.5110 C   0  0  0  0  0  0  0  0  0  0  0  0
   63.1560   69.9230   63.0730 C   0  0  0  0  0  0  0  0  0  0  0  0
   63.9750   70.3640   64.3160 C   0  0  0  0  0  0  0  0  0  0  0  0
   63.2170   70.0490   65.6410 C   0  0  0  0  0  0  0  0  0  0  0  0
   63.9320   68.9460   66.4700 C   0  0  0  0  0  0  0  0  0  0  0  0
   65.1380   69.5080   67.2640 C   0  0  0  0  0  0  0  0  0  0  0  0
   64.6590   70.0380   68.5190 O   0  0  0  0  0  0  0  0  0  0  0  0
   65.6330   70.6750   69.3060 C   0  0  0  0  0  0  0  0  0  0  0  0
   66.4590   69.9060   70.1890 C   0  0  0  0  0  0  0  0  0  0  0  0
   67.4360   70.5990   70.9720 C   0  0  0  0  0  0  0  0  0  0  0  0
   68.3120   70.1010   71.8580 N   0  0  0  0  0  0  0  0  0  0  0  0
   68.9630   71.0580   72.2970 N   0  0  0  0  0  0  0  0  0  0  0  0
   68.6080   72.2360   71.7760 C   0  0  0  0  0  0  0  0  0  0  0  0
   67.5760   71.9970   70.8720 C   0  0  0  0  0  0  0  0  0  0  0  0
   66.7640   72.7810   70.0020 C   0  0  0  0  0  0  0  0  0  0  0  0
   65.7880   72.0950   69.2190 C   0  0  0  0  0  0  0  0  0  0  0  0
   69.2490   73.5680   72.1390 C   0  0  0  0  0  0  0  0  0  0  0  0
   70.5660   73.8800   71.6870 C   0  0  0  0  0  0  0  0  0  0  0  0
   71.1800   75.1220   72.0260 C   0  0  0  0  0  0  0  0  0  0  0  0
   70.4800   76.0690   72.8270 C   0  0  0  0  0  0  0  0  0  0  0  0
   69.1580   75.7640   73.2820 C   0  0  0  0  0  0  0  0  0  0  0  0
   68.5450   74.5180   72.9390 C   0  0  0  0  0  0  0  0  0  0  0  0
   71.2900   77.6870   73.2790 Br  0  0  0  0  0  0  0  0  0  0  0  0
   68.4780   68.6970   72.2410 C   0  0  0  0  0  0  0  0  0  0  0  0
   62.5310   72.8870   60.8850 C   0  0  0  0  0  0  0  0  0  0  0  0
   63.1923   68.3879   58.2047 H   0  0  0  0  0  0  0  0  0  0  0  0
   63.3239   70.2879   58.1552 H   0  0  0  0  0  0  0  0  0  0  0  0
   61.5778   68.5296   59.9893 H   0  0  0  0  0  0  0  0  0  0  0  0
   61.3043   71.4747   59.3425 H   0  0  0  0  0  0  0  0  0  0  0  0
   60.6223   70.5689   60.7685 H   0  0  0  0  0  0  0  0  0  0  0  0
   62.5282   71.9942   63.0974 H   0  0  0  0  0  0  0  0  0  0  0  0
   61.2511   70.7707   62.5924 H   0  0  0  0  0  0  0  0  0  0  0  0
   62.4886   69.0968   63.3594 H   0  0  0  0  0  0  0  0  0  0  0  0
   63.8606   69.6040   62.2908 H   0  0  0  0  0  0  0  0  0  0  0  0
   64.9364   69.8295   64.3185 H   0  0  0  0  0  0  0  0  0  0  0  0
   64.1314   71.4513   64.2581 H   0  0  0  0  0  0  0  0  0  0  0  0
   63.1599   70.9667   66.2448 H   0  0  0  0  0  0  0  0  0  0  0  0
   62.2131   69.6824   65.3804 H   0  0  0  0  0  0  0  0  0  0  0  0
   63.2117   68.5110   67.1785 H   0  0  0  0  0  0  0  0  0  0  0  0
   64.3098   68.1859   65.7704 H   0  0  0  0  0  0  0  0  0  0  0  0
   65.8632   68.7032   67.4547 H   0  0  0  0  0  0  0  0  0  0  0  0
   65.6306   70.3029   66.6848 H   0  0  0  0  0  0  0  0  0  0  0  0
   66.3454   68.8144   70.2628 H   0  0  0  0  0  0  0  0  0  0  0  0
   66.8849   73.8724   69.9366 H   0  0  0  0  0  0  0  0  0  0  0  0
   65.1432   72.6679   68.5363 H   0  0  0  0  0  0  0  0  0  0  0  0
   71.1146   73.1536   71.0694 H   0  0  0  0  0  0  0  0  0  0  0  0
   72.1953   75.3487   71.6684 H   0  0  0  0  0  0  0  0  0  0  0  0
   68.6103   76.4917   73.8988 H   0  0  0  0  0  0  0  0  0  0  0  0
   67.5284   74.2911   73.2926 H   0  0  0  0  0  0  0  0  0  0  0  0
   68.4877   68.6148   73.3379 H   0  0  0  0  0  0  0  0  0  0  0  0
   67.6435   68.1054   71.8364 H   0  0  0  0  0  0  0  0  0  0  0  0
   69.4274   68.3163   71.8364 H   0  0  0  0  0  0  0  0  0  0  0  0
   62.5320   73.3795   61.8686 H   0  0  0  0  0  0  0  0  0  0  0  0
   63.4298   73.1847   60.3250 H   0  0  0  0  0  0  0  0  0  0  0  0
   61.6335   73.1883   60.3250 H   0  0  0  0  0  0  0  0  0  0  0  0
  1  2  2  3
  2  3  1  0
  3  4  1  0
  4  5  1  0
  4 29  1  0
  5  6  1  0
  6  7  1  0
  7  8  1  0
  8  9  1  0
  9 10  1  0
 10 11  1  0
 11 12  1  0
 12 13  2  0
 12 20  1  0
 13 14  1  0
 14 15  1  0
 14 18  2  0
 15 16  1  0
 15 28  1  0
 16 17  2  0
 17 18  1  0
 17 21  1  0
 18 19  1  0
 19 20  2  0
 21 22  2  0
 21 26  1  0
 22 23  1  0
 23 24  2  0
 24 25  1  0
 24 27  1  0
 25 26  2  0
  1 30  1  0
  1 31  1  0
  2 32  1  0
  3 33  1  0
  3 34  1  0
  5 35  1  0
  5 36  1  0
  6 37  1  0
  6 38  1  0
  7 39  1  0
  7 40  1  0
  8 41  1  0
  8 42  1  0
  9 43  1  0
  9 44  1  0
 10 45  1  0
 10 46  1  0
 13 47  1  0
 19 48  1  0
 20 49  1  0
 22 50  1  0
 23 51  1  0
 25 52  1  0
 26 53  1  0
 28 54  1  0
 28 55  1  0
 28 56  1  0
 29 57  1  0
 29 58  1  0
 29 59  1  0
A    1
C3A
A    2
C2A
A    3
C1A
A    4
N1
A    5
C1B
A    6
C2B
A    7
C3B
A    8
C4B
A    9
C5B
A   10
C6B
A   11
O
A   12
C6C
A   13
C7C
A   14
C7P
A   15
N1C
A   16
N2C
A   17
C3C
A   18
C3P
A   19
C4C
A   20
C5C
A   21
C1D
A   22
C6D
A   23
C5D
A   24
C4D
A   25
C3D
A   26
C2D
A   27
BR27
A   28
C1E
A   29
C1F
M  END
