1H3C_R79_A_800
     RDKit          3D

 55 57  0  0  0  0  0  0  0  0999 V2000
   63.1060   69.2390   59.0870 C   0  0  0  0  0  0  0  0  0  0  0  0
   62.0440   69.9890   58.7510 C   0  0  0  0  0  0  0  0  0  0  0  0
   61.3890   71.0240   59.6580 C   0  0  0  0  0  0  0  0  0  0  0  0
   62.2950   71.5670   60.7140 N   0  0  0  0  0  0  0  0  0  0  0  0
   61.9190   71.1130   62.0840 C   0  0  0  0  0  0  0  0  0  0  0  0
   62.8840   70.0620   62.7100 C   0  0  0  0  0  0  0  0  0  0  0  0
   63.7150   70.6710   63.8690 C   0  0  0  0  0  0  0  0  0  0  0  0
   63.1200   70.2760   65.2450 C   0  0  0  0  0  0  0  0  0  0  0  0
   63.9080   69.1070   65.8830 C   0  0  0  0  0  0  0  0  0  0  0  0
   65.0700   69.6280   66.7630 C   0  0  0  0  0  0  0  0  0  0  0  0
   64.5380   70.1560   67.9960 O   0  0  0  0  0  0  0  0  0  0  0  0
   65.4980   70.6120   68.8960 C   0  0  0  0  0  0  0  0  0  0  0  0
   66.2660   69.6930   69.7000 C   0  0  0  0  0  0  0  0  0  0  0  0
   67.2230   70.2420   70.5810 C   0  0  0  0  0  0  0  0  0  0  0  0
   68.3130   69.3950   71.6850 S   0  0  0  0  0  0  0  0  0  0  0  0
   68.8950   70.8010   72.1360 N   0  0  0  0  0  0  0  0  0  0  0  0
   68.4070   71.9460   71.5910 C   0  0  0  0  0  0  0  0  0  0  0  0
   67.4130   71.6710   70.6650 C   0  0  0  0  0  0  0  0  0  0  0  0
   66.6430   72.5380   69.8700 C   0  0  0  0  0  0  0  0  0  0  0  0
   65.6960   71.9940   68.9960 C   0  0  0  0  0  0  0  0  0  0  0  0
   68.9810   73.2910   72.0370 C   0  0  0  0  0  0  0  0  0  0  0  0
   70.3450   73.5470   71.7720 C   0  0  0  0  0  0  0  0  0  0  0  0
   70.9500   74.7870   72.1750 C   0  0  0  0  0  0  0  0  0  0  0  0
   70.1960   75.7880   72.8500 C   0  0  0  0  0  0  0  0  0  0  0  0
   68.8170   75.5480   73.1260 C   0  0  0  0  0  0  0  0  0  0  0  0
   68.1990   74.2990   72.7230 C   0  0  0  0  0  0  0  0  0  0  0  0
   71.0330   77.3680   73.3660 Br  0  0  0  0  0  0  0  0  0  0  0  0
   62.3040   73.0610   60.6840 C   0  0  0  0  0  0  0  0  0  0  0  0
   63.5164   68.5137   58.3690 H   0  0  0  0  0  0  0  0  0  0  0  0
   63.5656   69.3500   60.0802 H   0  0  0  0  0  0  0  0  0  0  0  0
   61.6156   69.8459   57.7480 H   0  0  0  0  0  0  0  0  0  0  0  0
   61.0440   71.8617   59.0341 H   0  0  0  0  0  0  0  0  0  0  0  0
   60.5640   70.5149   60.1777 H   0  0  0  0  0  0  0  0  0  0  0  0
   61.8976   71.9936   62.7428 H   0  0  0  0  0  0  0  0  0  0  0  0
   60.9408   70.6188   61.9897 H   0  0  0  0  0  0  0  0  0  0  0  0
   62.2919   69.2204   63.0988 H   0  0  0  0  0  0  0  0  0  0  0  0
   63.5796   69.7239   61.9278 H   0  0  0  0  0  0  0  0  0  0  0  0
   64.7487   70.3005   63.8041 H   0  0  0  0  0  0  0  0  0  0  0  0
   63.6927   71.7671   63.7786 H   0  0  0  0  0  0  0  0  0  0  0  0
   63.1626   71.1459   65.9169 H   0  0  0  0  0  0  0  0  0  0  0  0
   62.0797   69.9521   65.0936 H   0  0  0  0  0  0  0  0  0  0  0  0
   63.2246   68.5121   66.5068 H   0  0  0  0  0  0  0  0  0  0  0  0
   64.3319   68.4917   65.0757 H   0  0  0  0  0  0  0  0  0  0  0  0
   65.7609   68.8015   66.9856 H   0  0  0  0  0  0  0  0  0  0  0  0
   65.6101   70.4218   66.2261 H   0  0  0  0  0  0  0  0  0  0  0  0
   66.1120   68.6061   69.6294 H   0  0  0  0  0  0  0  0  0  0  0  0
   66.7831   73.6271   69.9343 H   0  0  0  0  0  0  0  0  0  0  0  0
   65.0920   72.6690   68.3719 H   0  0  0  0  0  0  0  0  0  0  0  0
   70.9501   72.7897   71.2520 H   0  0  0  0  0  0  0  0  0  0  0  0
   72.0136   74.9654   71.9581 H   0  0  0  0  0  0  0  0  0  0  0  0
   68.2207   76.3123   73.6459 H   0  0  0  0  0  0  0  0  0  0  0  0
   67.1357   74.1172   72.9385 H   0  0  0  0  0  0  0  0  0  0  0  0
   62.3063   73.4484   61.7135 H   0  0  0  0  0  0  0  0  0  0  0  0
   63.2043   73.4118   60.1582 H   0  0  0  0  0  0  0  0  0  0  0  0
   61.4080   73.4226   60.1582 H   0  0  0  0  0  0  0  0  0  0  0  0
  1  2  2  3
  2  3  1  0
  3  4  1  0
  4  5  1  0
  4 28  1  0
  5  6  1  0
  6  7  1  0
  7  8  1  0
  8  9  1  0
  9 10  1  0
 10 11  1  0
 11 12  1  0
 12 13  2  0
 12 20  1  0
 13 14  1  0
 14 15  1  0
 14 18  2  0
 15 16  1  0
 16 17  2  0
 17 18  1  0
 17 21  1  0
 18 19  1  0
 19 20  2  0
 21 22  2  0
 21 26  1  0
 22 23  1  0
 23 24  2  0
 24 25  1  0
 24 27  1  0
 25 26  2  0
  1 29  1  0
  1 30  1  0
  2 31  1  0
  3 32  1  0
  3 33  1  0
  5 34  1  0
  5 35  1  0
  6 36  1  0
  6 37  1  0
  7 38  1  0
  7 39  1  0
  8 40  1  0
  8 41  1  0
  9 42  1  0
  9 43  1  0
 10 44  1  0
 10 45  1  0
 13 46  1  0
 19 47  1  0
 20 48  1  0
 22 49  1  0
 23 50  1  0
 25 51  1  0
 26 52  1  0
 28 53  1  0
 28 54  1  0
 28 55  1  0
A    1
C3A
A    2
C2A
A    3
C1A
A    4
N1
A    5
C1B
A    6
C2B
A    7
C3B
A    8
C4B
A    9
C5B
A   10
C6B
A   11
O
A   12
C6C
A   13
C7C
A   14
C7P
A   15
S1C
A   16
N2C
A   17
C3C
A   18
C3P
A   19
C4C
A   20
C5C
A   21
C1D
A   22
C6D
A   23
C5D
A   24
C4D
A   25
C3D
A   26
C2D
A   27
BR27
A   28
C1E
M  END
