1H4S_PSD_A_1478
     RDKit          3D

 52 55  0  0  0  0  0  0  0  0999 V2000
   23.4630  103.7450  100.6730 C   0  0  0  0  0  0  0  0  0  0  0  0
   22.7810  104.0410   99.3470 C   0  0  0  0  0  0  0  0  0  0  0  0
   22.1780  105.3170  102.1540 C   0  0  0  0  0  0  0  0  0  0  0  0
   21.0690  105.8350  102.3280 O   0  0  0  0  0  0  0  0  0  0  0  0
   21.0820  103.4940  100.8920 N   0  0  0  0  0  0  0  0  0  0  0  0
   21.3840  103.3810   99.4530 C   0  0  0  0  0  0  0  0  0  0  0  0
   22.2990  103.8820  101.6390 C   0  0  0  0  0  0  0  0  0  0  0  0
   23.3190  105.9560  102.3920 N   0  0  0  0  0  0  0  0  0  0  0  0
   23.3720  107.5060  102.9570 P   0  0  0  0  0  0  0  0  0  0  0  0
   22.3700  107.5560  104.0480 O   0  0  0  0  0  0  0  0  0  0  0  0
   24.8080  107.7090  103.2740 O   0  0  0  0  0  0  0  0  0  0  0  0
   22.9460  108.6230  101.9000 O   0  0  0  0  0  0  0  0  0  0  0  0
   23.2210  108.4660  100.5040 C   0  0  0  0  0  0  0  0  0  0  0  0
   23.7040  109.7720   99.9040 C   0  0  0  0  0  0  0  0  0  0  0  0
   22.6210  110.7390   99.9330 O   0  0  0  0  0  0  0  0  0  0  0  0
   22.9190  111.7840  100.8430 C   0  0  0  0  0  0  0  0  0  0  0  0
   21.7260  112.1780  101.5950 N   0  0  0  0  0  0  0  0  0  0  0  0
   20.9590  113.2850  101.3110 C   0  0  0  0  0  0  0  0  0  0  0  0
   21.1170  114.1470  100.2890 N   0  0  0  0  0  0  0  0  0  0  0  0
   20.2080  115.1110  100.3460 C   0  0  0  0  0  0  0  0  0  0  0  0
   19.2340  115.3080  101.2440 N   0  0  0  0  0  0  0  0  0  0  0  0
   19.1030  114.4330  102.2580 C   0  0  0  0  0  0  0  0  0  0  0  0
   18.1480  114.6500  103.1590 N   0  0  0  0  0  0  0  0  0  0  0  0
   19.9980  113.3440  102.3020 C   0  0  0  0  0  0  0  0  0  0  0  0
   20.1250  112.2690  103.1690 N   0  0  0  0  0  0  0  0  0  0  0  0
   21.1600  111.6080  102.7030 C   0  0  0  0  0  0  0  0  0  0  0  0
   24.1670  111.4370  101.6440 C   0  0  0  0  0  0  0  0  0  0  0  0
   24.9560  112.6010  101.6960 O   0  0  0  0  0  0  0  0  0  0  0  0
   24.8120  110.3750  100.7600 C   0  0  0  0  0  0  0  0  0  0  0  0
   26.0410  110.6730  100.1060 O   0  0  0  0  0  0  0  0  0  0  0  0
   23.8851  102.7294  100.6916 H   0  0  0  0  0  0  0  0  0  0  0  0
   24.3169  104.4008  100.8983 H   0  0  0  0  0  0  0  0  0  0  0  0
   22.6845  105.1264   99.1966 H   0  0  0  0  0  0  0  0  0  0  0  0
   23.3556  103.6525   98.4933 H   0  0  0  0  0  0  0  0  0  0  0  0
   20.3540  104.2091  101.0320 H   0  0  0  0  0  0  0  0  0  0  0  0
   20.6421  103.9228   98.8480 H   0  0  0  0  0  0  0  0  0  0  0  0
   21.3603  102.3459   99.0814 H   0  0  0  0  0  0  0  0  0  0  0  0
   22.4471  103.2401  102.5200 H   0  0  0  0  0  0  0  0  0  0  0  0
   24.2066  105.4637  102.2166 H   0  0  0  0  0  0  0  0  0  0  0  0
   24.9299  107.7262  104.2563 H   0  0  0  0  0  0  0  0  0  0  0  0
   23.9983  107.6988  100.3729 H   0  0  0  0  0  0  0  0  0  0  0  0
   22.2957  108.1621   99.9927 H   0  0  0  0  0  0  0  0  0  0  0  0
   24.0566  109.5630   98.8832 H   0  0  0  0  0  0  0  0  0  0  0  0
   23.1923  112.7093  100.3146 H   0  0  0  0  0  0  0  0  0  0  0  0
   20.2618  115.8566   99.5391 H   0  0  0  0  0  0  0  0  0  0  0  0
   18.3673  114.6002  104.1641 H   0  0  0  0  0  0  0  0  0  0  0  0
   17.1895  114.8678  102.8512 H   0  0  0  0  0  0  0  0  0  0  0  0
   21.5371  110.6817  103.1611 H   0  0  0  0  0  0  0  0  0  0  0  0
   24.0084  111.0907  102.6760 H   0  0  0  0  0  0  0  0  0  0  0  0
   25.1217  112.8454  102.6409 H   0  0  0  0  0  0  0  0  0  0  0  0
   25.2421  109.6092  101.4222 H   0  0  0  0  0  0  0  0  0  0  0  0
   26.7426  110.8431  100.7835 H   0  0  0  0  0  0  0  0  0  0  0  0
  1  2  1  0
  1  7  1  0
  2  6  1  0
  3  4  2  0
  3  7  1  0
  3  8  1  0
  5  6  1  0
  5  7  1  0
  8  9  1  0
  9 10  2  0
  9 11  1  0
  9 12  1  0
 12 13  1  0
 13 14  1  0
 14 15  1  0
 14 29  1  0
 15 16  1  0
 16 17  1  0
 16 27  1  0
 17 18  1  0
 17 26  1  0
 18 19  2  0
 18 24  1  0
 19 20  1  0
 20 21  2  0
 21 22  1  0
 22 23  1  0
 22 24  2  0
 24 25  1  0
 25 26  2  0
 27 28  1  0
 27 29  1  0
 29 30  1  0
  1 31  1  0
  1 32  1  0
  2 33  1  0
  2 34  1  0
  5 35  1  0
  6 36  1  0
  6 37  1  0
  7 38  1  0
  8 39  1  0
 11 40  1  0
 13 41  1  0
 13 42  1  0
 14 43  1  0
 16 44  1  0
 20 45  1  0
 23 46  1  0
 23 47  1  0
 26 48  1  0
 27 49  1  0
 28 50  1  0
 29 51  1  0
 30 52  1  0
A    1
CB
A    2
CG
A    3
C
A    4
O
A    5
N
A    6
CD
A    7
CA
A    8
N10
A    9
P
A   10
O1P
A   11
O2P
A   12
O5'
A   13
C5'
A   14
C4'
A   15
O4'
A   16
C1'
A   17
N9
A   18
C4
A   19
N3
A   20
C2
A   21
N1
A   22
C6
A   23
N6
A   24
C5
A   25
N7
A   26
C8
A   27
C2'
A   28
O2'
A   29
C3'
A   30
O3'
M  END
