1H66_RH1_A_1274
     RDKit          3D

 31 33  0  0  0  0  0  0  0  0999 V2000
   -3.9530   13.8500    9.0790 O   0  0  0  0  0  0  0  0  0  0  0  0
   -1.1470   15.9520    5.0840 O   0  0  0  0  0  0  0  0  0  0  0  0
   -3.9260   16.6970    8.8800 N   0  0  0  0  0  0  0  0  0  0  0  0
   -1.1950   13.1110    5.3040 N   0  0  0  0  0  0  0  0  0  0  0  0
   -3.2980   14.3700    8.1450 C   0  0  0  0  0  0  0  0  0  0  0  0
   -3.2530   15.8510    7.9990 C   0  0  0  0  0  0  0  0  0  0  0  0
   -2.5340   16.3780    6.9780 C   0  0  0  0  0  0  0  0  0  0  0  0
   -1.7980   15.4590    6.0110 C   0  0  0  0  0  0  0  0  0  0  0  0
   -1.8680   13.9830    6.1880 C   0  0  0  0  0  0  0  0  0  0  0  0
   -2.5940   13.4890    7.2210 C   0  0  0  0  0  0  0  0  0  0  0  0
   -5.1060   16.2940    9.6380 C   0  0  0  0  0  0  0  0  0  0  0  0
   -5.2130   17.3130    8.5870 C   0  0  0  0  0  0  0  0  0  0  0  0
   -1.9090   12.3660    4.2720 C   0  0  0  0  0  0  0  0  0  0  0  0
   -0.9610   13.4140    3.8960 C   0  0  0  0  0  0  0  0  0  0  0  0
   -2.4300   17.9000    6.7510 C   0  0  0  0  0  0  0  0  0  0  0  0
   -2.2750   18.7120    7.8800 O   0  0  0  0  0  0  0  0  0  0  0  0
   -2.6950   11.9760    7.4440 C   0  0  0  0  0  0  0  0  0  0  0  0
   -5.5448   15.2969    9.4853 H   0  0  0  0  0  0  0  0  0  0  0  0
   -5.3676   16.2443   10.7053 H   0  0  0  0  0  0  0  0  0  0  0  0
   -5.3940   18.3641    8.8559 H   0  0  0  0  0  0  0  0  0  0  0  0
   -5.8285   17.4386    7.6840 H   0  0  0  0  0  0  0  0  0  0  0  0
   -1.6637   11.3098    4.0866 H   0  0  0  0  0  0  0  0  0  0  0  0
   -2.9668   12.1584    4.0531 H   0  0  0  0  0  0  0  0  0  0  0  0
   -1.3268   14.3592    3.4685 H   0  0  0  0  0  0  0  0  0  0  0  0
   -0.0736   13.4646    3.2479 H   0  0  0  0  0  0  0  0  0  0  0  0
   -1.5641   18.0772    6.0962 H   0  0  0  0  0  0  0  0  0  0  0  0
   -3.4046   18.1880    6.3300 H   0  0  0  0  0  0  0  0  0  0  0  0
   -2.3797   18.1638    8.6977 H   0  0  0  0  0  0  0  0  0  0  0  0
   -2.7091   11.7646    8.5234 H   0  0  0  0  0  0  0  0  0  0  0  0
   -3.6203   11.5986    6.9843 H   0  0  0  0  0  0  0  0  0  0  0  0
   -1.8280   11.4789    6.9843 H   0  0  0  0  0  0  0  0  0  0  0  0
  1  5  2  0
  2  8  2  0
  3  6  1  0
  3 11  1  0
  3 12  1  0
  4  9  1  0
  4 13  1  0
  4 14  1  0
  5  6  1  0
  5 10  1  0
  6  7  2  0
  7  8  1  0
  7 15  1  0
  8  9  1  0
  9 10  2  0
 10 17  1  0
 11 12  1  0
 13 14  1  0
 15 16  1  0
 11 18  1  0
 11 19  1  0
 12 20  1  0
 12 21  1  0
 13 22  1  0
 13 23  1  0
 14 24  1  0
 14 25  1  0
 15 26  1  0
 15 27  1  0
 16 28  1  0
 17 29  1  0
 17 30  1  0
 17 31  1  0
A    1
O1
A    2
O2
A    3
N1
A    4
N2
A    5
C1
A    6
C2
A    7
C3
A    8
C4
A    9
C5
A   10
C6
A   11
C7
A   12
C8
A   13
C9
A   14
C10
A   15
C11
A   16
O3
A   17
C12
M  END
