1HAK_K21_B_901
     RDKit          3D

 62 65  0  0  0  0  0  0  0  0999 V2000
   20.9500   27.6350  -24.6680 C   0  0  0  0  0  0  0  0  0  0  0  0
   20.4400   26.3400  -24.6110 C   0  0  0  0  0  0  0  0  0  0  0  0
   20.0840   25.6570  -25.7850 C   0  0  0  0  0  0  0  0  0  0  0  0
   20.2970   26.2260  -27.0380 C   0  0  0  0  0  0  0  0  0  0  0  0
   20.7320   27.5520  -27.1150 C   0  0  0  0  0  0  0  0  0  0  0  0
   21.0360   28.2520  -25.9300 C   0  0  0  0  0  0  0  0  0  0  0  0
   19.4860   24.2870  -25.7220 C   0  0  0  0  0  0  0  0  0  0  0  0
   18.0410   24.0980  -26.0420 N   0  0  0  0  0  0  0  0  0  0  0  0
   17.5150   24.3250  -27.4210 C   0  0  0  0  0  0  0  0  0  0  0  0
   18.1840   25.3890  -28.3110 C   0  0  0  0  0  0  0  0  0  0  0  0
   19.9780   25.1920  -28.4930 S   0  0  0  0  0  0  0  0  0  0  0  0
   17.1880   23.4990  -25.1480 C   0  0  0  0  0  0  0  0  0  0  0  0
   17.5630   23.5530  -23.6350 C   0  0  0  0  0  0  0  0  0  0  0  0
   16.1320   22.9820  -25.4990 O   0  0  0  0  0  0  0  0  0  0  0  0
   18.6750   22.6450  -23.0270 C   0  0  0  0  0  0  0  0  0  0  0  0
   19.1050   21.3800  -23.6770 N   0  0  0  0  0  0  0  0  0  0  0  0
   19.7100   20.4020  -22.7310 C   0  0  0  0  0  0  0  0  0  0  0  0
   21.2570   20.3830  -22.7780 C   0  0  0  0  0  0  0  0  0  0  0  0
   21.7960   19.9470  -24.1660 C   0  0  0  0  0  0  0  0  0  0  0  0
   20.7850   20.3050  -25.2670 C   0  0  0  0  0  0  0  0  0  0  0  0
   19.9760   21.5310  -24.8630 C   0  0  0  0  0  0  0  0  0  0  0  0
   22.0900   18.4370  -24.2330 C   0  0  0  0  0  0  0  0  0  0  0  0
   23.3730   18.3690  -26.3710 C   0  0  0  0  0  0  0  0  0  0  0  0
   24.5690   18.2550  -27.0670 C   0  0  0  0  0  0  0  0  0  0  0  0
   25.7410   17.9690  -26.3780 C   0  0  0  0  0  0  0  0  0  0  0  0
   25.6990   17.7410  -25.0010 C   0  0  0  0  0  0  0  0  0  0  0  0
   24.5000   17.8420  -24.3140 C   0  0  0  0  0  0  0  0  0  0  0  0
   23.3420   18.1920  -24.9950 C   0  0  0  0  0  0  0  0  0  0  0  0
   21.3520   28.2060  -23.4450 O   0  0  0  0  0  0  0  0  0  0  0  0
   22.0900   29.4220  -23.5220 C   0  0  0  0  0  0  0  0  0  0  0  0
   20.3148   25.8471  -23.6356 H   0  0  0  0  0  0  0  0  0  0  0  0
   20.8363   28.0454  -28.0926 H   0  0  0  0  0  0  0  0  0  0  0  0
   21.3477   29.3050  -25.9930 H   0  0  0  0  0  0  0  0  0  0  0  0
   20.0535   23.6582  -26.4238 H   0  0  0  0  0  0  0  0  0  0  0  0
   19.5491   24.0277  -24.6549 H   0  0  0  0  0  0  0  0  0  0  0  0
   17.5877   23.3662  -27.9553 H   0  0  0  0  0  0  0  0  0  0  0  0
   16.5021   24.7203  -27.2545 H   0  0  0  0  0  0  0  0  0  0  0  0
   17.7288   25.3369  -29.3110 H   0  0  0  0  0  0  0  0  0  0  0  0
   18.0228   26.3585  -27.8169 H   0  0  0  0  0  0  0  0  0  0  0  0
   17.8659   24.5903  -23.4296 H   0  0  0  0  0  0  0  0  0  0  0  0
   16.6546   23.1572  -23.1574 H   0  0  0  0  0  0  0  0  0  0  0  0
   19.5754   23.2721  -22.9492 H   0  0  0  0  0  0  0  0  0  0  0  0
   18.1953   22.2791  -22.1072 H   0  0  0  0  0  0  0  0  0  0  0  0
   19.3947   20.6627  -21.7099 H   0  0  0  0  0  0  0  0  0  0  0  0
   19.3622   19.4019  -23.0290 H   0  0  0  0  0  0  0  0  0  0  0  0
   21.6306   21.3931  -22.5543 H   0  0  0  0  0  0  0  0  0  0  0  0
   21.6084   19.6523  -22.0346 H   0  0  0  0  0  0  0  0  0  0  0  0
   22.7407   20.4885  -24.3224 H   0  0  0  0  0  0  0  0  0  0  0  0
   21.3257   20.5185  -26.2008 H   0  0  0  0  0  0  0  0  0  0  0  0
   20.1003   19.4567  -25.4138 H   0  0  0  0  0  0  0  0  0  0  0  0
   19.3372   21.8066  -25.7150 H   0  0  0  0  0  0  0  0  0  0  0  0
   20.7184   22.2941  -24.5863 H   0  0  0  0  0  0  0  0  0  0  0  0
   22.2028   18.0430  -23.2122 H   0  0  0  0  0  0  0  0  0  0  0  0
   21.2557   17.9307  -24.7405 H   0  0  0  0  0  0  0  0  0  0  0  0
   22.4446   18.6010  -26.9135 H   0  0  0  0  0  0  0  0  0  0  0  0
   24.5885   18.3905  -28.1585 H   0  0  0  0  0  0  0  0  0  0  0  0
   26.6995   17.9223  -26.9157 H   0  0  0  0  0  0  0  0  0  0  0  0
   26.6206   17.4804  -24.4600 H   0  0  0  0  0  0  0  0  0  0  0  0
   24.4658   17.6454  -23.2322 H   0  0  0  0  0  0  0  0  0  0  0  0
   22.3090   29.7829  -22.5062 H   0  0  0  0  0  0  0  0  0  0  0  0
   23.0332   29.2451  -24.0596 H   0  0  0  0  0  0  0  0  0  0  0  0
   21.4976   30.1770  -24.0596 H   0  0  0  0  0  0  0  0  0  0  0  0
  1  2  2  0
  1  6  1  0
  1 29  1  0
  2  3  1  0
  3  4  2  0
  3  7  1  0
  4  5  1  0
  4 11  1  0
  5  6  2  0
  7  8  1  0
  8  9  1  0
  8 12  1  0
  9 10  1  0
 10 11  1  0
 12 13  1  0
 12 14  2  0
 13 15  1  0
 15 16  1  0
 16 17  1  0
 16 21  1  0
 17 18  1  0
 18 19  1  0
 19 20  1  0
 19 22  1  0
 20 21  1  0
 22 28  1  0
 23 24  2  0
 23 28  1  0
 24 25  1  0
 25 26  2  0
 26 27  1  0
 27 28  2  0
 29 30  1  0
  2 31  1  0
  5 32  1  0
  6 33  1  0
  7 34  1  0
  7 35  1  0
  9 36  1  0
  9 37  1  0
 10 38  1  0
 10 39  1  0
 13 40  1  0
 13 41  1  0
 15 42  1  0
 15 43  1  0
 17 44  1  0
 17 45  1  0
 18 46  1  0
 18 47  1  0
 19 48  1  0
 20 49  1  0
 20 50  1  0
 21 51  1  0
 21 52  1  0
 22 53  1  0
 22 54  1  0
 23 55  1  0
 24 56  1  0
 25 57  1  0
 26 58  1  0
 27 59  1  0
 30 60  1  0
 30 61  1  0
 30 62  1  0
A    1
C1
A    2
C2
A    3
C3
A    4
C4
A    5
C5
A    6
C6
A    7
C10
A    8
N11
A    9
C12
A   10
C13
A   11
S14
A   12
C21
A   13
C22
A   14
O23
A   15
C24
A   16
N27
A   17
C30
A   18
C31
A   19
C32
A   20
C33
A   21
C34
A   22
C43
A   23
C45
A   24
C48
A   25
C49
A   26
C50
A   27
C51
A   28
C52
A   29
O58
A   30
C59
M  END
