1HB2_SCV_A_1332
     RDKit          3D

 47 46  0  0  0  0  0  0  0  0999 V2000
   16.9580   36.3820    5.7850 C   0  0  0  0  0  0  0  0  0  0  0  0
   15.5010   36.4570    6.2030 C   0  0  0  0  0  0  0  0  0  0  0  0
   14.9990   37.7140    5.4530 C   0  0  0  0  0  0  0  0  0  0  0  0
   13.5630   38.0440    5.9350 C   0  0  0  0  0  0  0  0  0  0  0  0
    9.2930   39.4240    4.9600 C   0  0  0  0  0  0  0  0  0  0  0  0
    6.5330   36.8210    4.5000 C   0  0  0  0  0  0  0  0  0  0  0  0
    6.3540   36.5600    2.9800 C   0  0  0  0  0  0  0  0  0  0  0  0
    5.1160   37.4250    2.7470 C   0  0  0  0  0  0  0  0  0  0  0  0
   13.0950   39.3320    5.2260 C   0  0  0  0  0  0  0  0  0  0  0  0
   15.7490   36.6150    7.6760 N   0  0  0  0  0  0  0  0  0  0  0  0
   18.2010   36.5550    6.5000 O   0  0  0  0  0  0  0  0  0  0  0  0
   17.3780   36.0910    4.4230 O   0  0  0  0  0  0  0  0  0  0  0  0
    7.3360   38.0410    4.6390 O   0  0  0  0  0  0  0  0  0  0  0  0
    5.3590   36.8860    5.4950 C   0  0  0  0  0  0  0  0  0  0  0  0
    7.4680   36.9190    1.9760 C   0  0  0  0  0  0  0  0  0  0  0  0
    5.3600   37.8190    6.3420 O   0  0  0  0  0  0  0  0  0  0  0  0
    4.3670   36.1660    5.2450 O   0  0  0  0  0  0  0  0  0  0  0  0
   11.6630   39.6600    5.6370 C   0  0  0  0  0  0  0  0  0  0  0  0
   11.3510   39.9330    6.8140 O   0  0  0  0  0  0  0  0  0  0  0  0
   10.7350   39.2590    4.7610 N   0  0  0  0  0  0  0  0  0  0  0  0
    9.3110   36.9870    4.9020 O   0  0  0  0  0  0  0  0  0  0  0  0
    8.6680   38.0400    4.7560 C   0  0  0  0  0  0  0  0  0  0  0  0
    8.5950   40.1730    3.8800 C   0  0  0  0  0  0  0  0  0  0  0  0
    7.5080   40.6480    4.1180 O   0  0  0  0  0  0  0  0  0  0  0  0
    9.3820   40.1330    2.2730 S   0  0  0  0  0  0  0  0  0  0  0  0
   14.7678   35.6622    6.0011 H   0  0  0  0  0  0  0  0  0  0  0  0
   15.6650   38.5628    5.6673 H   0  0  0  0  0  0  0  0  0  0  0  0
   14.9951   37.5256    4.3693 H   0  0  0  0  0  0  0  0  0  0  0  0
   12.8865   37.2142    5.6824 H   0  0  0  0  0  0  0  0  0  0  0  0
   13.5543   38.1884    7.0254 H   0  0  0  0  0  0  0  0  0  0  0  0
    9.1879   39.9256    5.9333 H   0  0  0  0  0  0  0  0  0  0  0  0
    6.9788   35.8682    4.8217 H   0  0  0  0  0  0  0  0  0  0  0  0
    6.3232   35.4781    2.7837 H   0  0  0  0  0  0  0  0  0  0  0  0
    4.6893   37.7231    3.7161 H   0  0  0  0  0  0  0  0  0  0  0  0
    5.3982   38.3235    2.1786 H   0  0  0  0  0  0  0  0  0  0  0  0
    4.3693   36.8510    2.1786 H   0  0  0  0  0  0  0  0  0  0  0  0
   13.7555   40.1648    5.5091 H   0  0  0  0  0  0  0  0  0  0  0  0
   13.1335   39.1804    4.1372 H   0  0  0  0  0  0  0  0  0  0  0  0
   15.0025   36.1394    8.2028 H   0  0  0  0  0  0  0  0  0  0  0  0
   16.6591   36.1977    7.9176 H   0  0  0  0  0  0  0  0  0  0  0  0
   18.1807   35.5348    4.2607 H   0  0  0  0  0  0  0  0  0  0  0  0
    8.3756   37.2115    2.5244 H   0  0  0  0  0  0  0  0  0  0  0  0
    7.6870   36.0460    1.3437 H   0  0  0  0  0  0  0  0  0  0  0  0
    7.1361   37.7557    1.3437 H   0  0  0  0  0  0  0  0  0  0  0  0
    5.3598   37.6092    7.3095 H   0  0  0  0  0  0  0  0  0  0  0  0
   11.0541   38.8061    3.8927 H   0  0  0  0  0  0  0  0  0  0  0  0
   10.7410   40.0639    2.4317 H   0  0  0  0  0  0  0  0  0  0  0  0
  1  2  1  0
  1 11  2  0
  1 12  1  0
  2  3  1  0
  2 10  1  0
  3  4  1  0
  4  9  1  0
  5 20  1  0
  5 22  1  0
  5 23  1  0
  6  7  1  0
  6 13  1  0
  6 14  1  0
  7  8  1  0
  7 15  1  0
  9 18  1  0
 13 22  1  0
 14 16  1  0
 14 17  2  0
 18 19  2  0
 18 20  1  0
 21 22  2  0
 23 24  2  0
 23 25  1  0
  2 26  1  0
  3 27  1  0
  3 28  1  0
  4 29  1  0
  4 30  1  0
  5 31  1  0
  6 32  1  0
  7 33  1  0
  8 34  1  0
  8 35  1  0
  8 36  1  0
  9 37  1  0
  9 38  1  0
 10 39  1  0
 10 40  1  0
 12 41  1  0
 15 42  1  0
 15 43  1  0
 15 44  1  0
 16 45  1  0
 20 46  1  0
 25 47  1  0
A    1
C1
A    2
C2
A    3
C3
A    4
C4
A    5
C7
A    6
C10
A    7
C12
A    8
C13
A    9
C5
A   10
N1
A   11
O1
A   12
O2
A   13
O5
A   14
C11
A   15
C14
A   16
O6
A   17
O7
A   18
C6
A   19
O3
A   20
N2
A   21
O4
A   22
C8
A   23
C9
A   24
O8
A   25
S
M  END
