1HFS_L04_A_256
     RDKit          3D

100104  0  0  0  0  0  0  0  0999 V2000
   32.9150   37.5740   23.1970 C   0  0  0  0  0  0  0  0  0  0  0  0
   32.6320   36.2230   23.8700 C   0  0  0  0  0  0  0  0  0  0  0  0
   32.1460   36.3930   25.3140 C   0  0  0  0  0  0  0  0  0  0  0  0
   37.6910   41.4960   22.8650 C   0  0  0  0  0  0  0  0  0  0  0  0
   38.6070   31.8190   30.3870 C   0  0  0  0  0  0  0  0  0  0  0  0
   38.5270   32.1740   31.7300 C   0  0  0  0  0  0  0  0  0  0  0  0
   35.1500   35.8090   24.3660 C   0  0  0  0  0  0  0  0  0  0  0  0
   35.9020   34.7400   25.1640 C   0  0  0  0  0  0  0  0  0  0  0  0
   35.2310   34.3540   26.4550 C   0  0  0  0  0  0  0  0  0  0  0  0
   36.1280   33.6970   27.4580 C   0  0  0  0  0  0  0  0  0  0  0  0
   36.1910   32.3140   27.5530 C   0  0  0  0  0  0  0  0  0  0  0  0
   36.9950   31.7110   28.5020 C   0  0  0  0  0  0  0  0  0  0  0  0
   37.7580   32.4750   29.3800 C   0  0  0  0  0  0  0  0  0  0  0  0
   37.6990   33.8600   29.2850 C   0  0  0  0  0  0  0  0  0  0  0  0
   36.8920   34.4630   28.3310 C   0  0  0  0  0  0  0  0  0  0  0  0
   36.0400   36.2680   23.2200 C   0  0  0  0  0  0  0  0  0  0  0  0
   39.3300   31.5500   32.6790 C   0  0  0  0  0  0  0  0  0  0  0  0
   33.8250   35.2660   23.8320 C   0  0  0  0  0  0  0  0  0  0  0  0
   37.9420   37.6140   22.5420 C   0  0  0  0  0  0  0  0  0  0  0  0
   38.2620   39.0930   22.7670 C   0  0  0  0  0  0  0  0  0  0  0  0
   37.1080   40.0990   22.7440 C   0  0  0  0  0  0  0  0  0  0  0  0
   36.2920   39.9630   21.4590 C   0  0  0  0  0  0  0  0  0  0  0  0
   31.7010   38.4800   23.0780 C   0  0  0  0  0  0  0  0  0  0  0  0
   32.0250   39.7350   22.2790 C   0  0  0  0  0  0  0  0  0  0  0  0
   30.9230   40.7780   22.3960 C   0  0  0  0  0  0  0  0  0  0  0  0
   28.7070   39.8810   22.8380 C   0  0  0  0  0  0  0  0  0  0  0  0
   39.2150   36.7850   22.6710 C   0  0  0  0  0  0  0  0  0  0  0  0
   29.1300   40.2090   20.5500 C   0  0  0  0  0  0  0  0  0  0  0  0
   27.5230   39.3830   22.1270 C   0  0  0  0  0  0  0  0  0  0  0  0
   40.7960   35.4580   21.3600 C   0  0  0  0  0  0  0  0  0  0  0  0
   41.0970   35.0520   20.0610 C   0  0  0  0  0  0  0  0  0  0  0  0
   42.2180   34.2710   19.7960 C   0  0  0  0  0  0  0  0  0  0  0  0
   43.0540   33.8830   20.8370 C   0  0  0  0  0  0  0  0  0  0  0  0
   42.7660   34.2820   22.1420 C   0  0  0  0  0  0  0  0  0  0  0  0
   41.6420   35.0640   22.3960 C   0  0  0  0  0  0  0  0  0  0  0  0
   27.7580   39.5650   20.7400 C   0  0  0  0  0  0  0  0  0  0  0  0
   26.3330   38.7800   22.5590 C   0  0  0  0  0  0  0  0  0  0  0  0
   26.7980   39.1400   19.8130 C   0  0  0  0  0  0  0  0  0  0  0  0
   25.6260   38.5430   20.2680 C   0  0  0  0  0  0  0  0  0  0  0  0
   25.3990   38.3650   21.6220 C   0  0  0  0  0  0  0  0  0  0  0  0
   40.2150   30.5500   32.3010 C   0  0  0  0  0  0  0  0  0  0  0  0
   40.3030   30.2010   30.9610 C   0  0  0  0  0  0  0  0  0  0  0  0
   39.5070   30.8280   30.0120 C   0  0  0  0  0  0  0  0  0  0  0  0
   29.6230   40.2980   21.9300 N   0  0  0  0  0  0  0  0  0  0  0  0
   37.0020   37.1270   23.5410 N   0  0  0  0  0  0  0  0  0  0  0  0
   39.6720   36.2400   21.5430 N   0  0  0  0  0  0  0  0  0  0  0  0
   28.8620   39.8810   24.0620 O   0  0  0  0  0  0  0  0  0  0  0  0
   31.2640   35.6240   25.7050 O   0  0  0  0  0  0  0  0  0  0  0  0
   32.6250   37.2370   26.1150 O   0  0  0  0  0  0  0  0  0  0  0  0
   35.8610   35.8530   22.0720 O   0  0  0  0  0  0  0  0  0  0  0  0
   39.7240   36.5970   23.7790 O   0  0  0  0  0  0  0  0  0  0  0  0
   40.9820   29.9220   33.2160 F   0  0  0  0  0  0  0  0  0  0  0  0
   33.6803   38.0993   23.7873 H   0  0  0  0  0  0  0  0  0  0  0  0
   33.2440   37.3520   22.1711 H   0  0  0  0  0  0  0  0  0  0  0  0
   31.8267   35.7686   23.2741 H   0  0  0  0  0  0  0  0  0  0  0  0
   37.7999   41.7570   23.9280 H   0  0  0  0  0  0  0  0  0  0  0  0
   38.6765   41.5255   22.3773 H   0  0  0  0  0  0  0  0  0  0  0  0
   37.0188   42.2173   22.3773 H   0  0  0  0  0  0  0  0  0  0  0  0
   37.8210   32.9567   32.0447 H   0  0  0  0  0  0  0  0  0  0  0  0
   34.9139   36.6589   25.0232 H   0  0  0  0  0  0  0  0  0  0  0  0
   35.9910   33.8399   24.5380 H   0  0  0  0  0  0  0  0  0  0  0  0
   36.8791   35.1699   25.4295 H   0  0  0  0  0  0  0  0  0  0  0  0
   34.8174   35.2654   26.9113 H   0  0  0  0  0  0  0  0  0  0  0  0
   34.4625   33.6114   26.1941 H   0  0  0  0  0  0  0  0  0  0  0  0
   35.5962   31.6925   26.8675 H   0  0  0  0  0  0  0  0  0  0  0  0
   37.0322   30.6134   28.5640 H   0  0  0  0  0  0  0  0  0  0  0  0
   38.2950   34.4814   29.9695 H   0  0  0  0  0  0  0  0  0  0  0  0
   36.8563   35.5604   28.2646 H   0  0  0  0  0  0  0  0  0  0  0  0
   39.2632   31.8508   33.7350 H   0  0  0  0  0  0  0  0  0  0  0  0
   33.5621   34.3798   24.4282 H   0  0  0  0  0  0  0  0  0  0  0  0
   34.0017   35.0621   22.7656 H   0  0  0  0  0  0  0  0  0  0  0  0
   37.5058   37.5172   21.5368 H   0  0  0  0  0  0  0  0  0  0  0  0
   38.7455   39.1751   23.7516 H   0  0  0  0  0  0  0  0  0  0  0  0
   38.8804   39.3708   21.9008 H   0  0  0  0  0  0  0  0  0  0  0  0
   36.4272   39.9029   23.5855 H   0  0  0  0  0  0  0  0  0  0  0  0
   35.2361   39.7870   21.7121 H   0  0  0  0  0  0  0  0  0  0  0  0
   36.3786   40.8880   20.8700 H   0  0  0  0  0  0  0  0  0  0  0  0
   36.6739   39.1161   20.8700 H   0  0  0  0  0  0  0  0  0  0  0  0
   30.8926   37.9317   22.5722 H   0  0  0  0  0  0  0  0  0  0  0  0
   31.3920   38.7819   24.0896 H   0  0  0  0  0  0  0  0  0  0  0  0
   32.9643   40.1652   22.6566 H   0  0  0  0  0  0  0  0  0  0  0  0
   32.1180   39.4523   21.2200 H   0  0  0  0  0  0  0  0  0  0  0  0
   30.8294   41.0705   23.4522 H   0  0  0  0  0  0  0  0  0  0  0  0
   31.2067   41.6261   21.7556 H   0  0  0  0  0  0  0  0  0  0  0  0
   29.7852   39.5774   19.9321 H   0  0  0  0  0  0  0  0  0  0  0  0
   29.0956   41.1774   20.0295 H   0  0  0  0  0  0  0  0  0  0  0  0
   40.4386   35.3534   19.2329 H   0  0  0  0  0  0  0  0  0  0  0  0
   42.4423   33.9612   18.7646 H   0  0  0  0  0  0  0  0  0  0  0  0
   43.9395   33.2635   20.6320 H   0  0  0  0  0  0  0  0  0  0  0  0
   43.4253   33.9796   22.9690 H   0  0  0  0  0  0  0  0  0  0  0  0
   41.4187   35.3749   23.4273 H   0  0  0  0  0  0  0  0  0  0  0  0
   26.1420   38.6373   23.6328 H   0  0  0  0  0  0  0  0  0  0  0  0
   26.9688   39.2768   18.7350 H   0  0  0  0  0  0  0  0  0  0  0  0
   24.8702   38.2082   19.5423 H   0  0  0  0  0  0  0  0  0  0  0  0
   24.4664   37.8886   21.9586 H   0  0  0  0  0  0  0  0  0  0  0  0
   41.0107   29.4195   30.6474 H   0  0  0  0  0  0  0  0  0  0  0  0
   39.5891   30.5381   28.9541 H   0  0  0  0  0  0  0  0  0  0  0  0
   37.0839   37.4540   24.5143 H   0  0  0  0  0  0  0  0  0  0  0  0
   39.1139   36.4265   20.6976 H   0  0  0  0  0  0  0  0  0  0  0  0
   32.5440   37.0944   27.0913 H   0  0  0  0  0  0  0  0  0  0  0  0
  1  2  1  0
  1 23  1  0
  2  3  1  0
  2 18  1  0
  3 48  2  0
  3 49  1  0
  4 21  1  0
  5  6  2  0
  5 13  1  0
  5 43  1  0
  6 17  1  0
  7  8  1  0
  7 16  1  0
  7 18  1  0
  8  9  1  0
  9 10  1  0
 10 11  2  0
 10 15  1  0
 11 12  1  0
 12 13  2  0
 13 14  1  0
 14 15  2  0
 16 45  1  0
 16 50  2  0
 17 41  2  0
 19 20  1  0
 19 27  1  0
 19 45  1  0
 20 21  1  0
 21 22  1  0
 23 24  1  0
 24 25  1  0
 25 44  1  0
 26 29  1  0
 26 44  1  0
 26 47  2  0
 27 46  1  0
 27 51  2  0
 28 36  1  0
 28 44  1  0
 29 36  2  0
 29 37  1  0
 30 31  2  0
 30 35  1  0
 30 46  1  0
 31 32  1  0
 32 33  2  0
 33 34  1  0
 34 35  2  0
 36 38  1  0
 37 40  2  0
 38 39  2  0
 39 40  1  0
 41 42  1  0
 41 52  1  0
 42 43  2  0
  1 53  1  0
  1 54  1  0
  2 55  1  0
  4 56  1  0
  4 57  1  0
  4 58  1  0
  6 59  1  0
  7 60  1  0
  8 61  1  0
  8 62  1  0
  9 63  1  0
  9 64  1  0
 11 65  1  0
 12 66  1  0
 14 67  1  0
 15 68  1  0
 17 69  1  0
 18 70  1  0
 18 71  1  0
 19 72  1  0
 20 73  1  0
 20 74  1  0
 21 75  1  0
 22 76  1  0
 22 77  1  0
 22 78  1  0
 23 79  1  0
 23 80  1  0
 24 81  1  0
 24 82  1  0
 25 83  1  0
 25 84  1  0
 28 85  1  0
 28 86  1  0
 31 87  1  0
 32 88  1  0
 33 89  1  0
 34 90  1  0
 35 91  1  0
 37 92  1  0
 38 93  1  0
 39 94  1  0
 40 95  1  0
 42 96  1  0
 43 97  1  0
 45 98  1  0
 46 99  1  0
 49100  1  0
A    1
C1
A    2
C2
A    3
C3
A    4
C4
A    5
C5
A    6
C6
A    7
C7
A    8
C8
A    9
C9
A   10
C10
A   11
C11
A   12
C12
A   13
C13
A   14
C14
A   15
C15
A   16
C16
A   17
C17
A   18
C18
A   19
C19
A   20
C20
A   21
C21
A   22
C22
A   23
C23
A   24
C24
A   25
C25
A   26
C26
A   27
C27
A   28
C28
A   29
C29
A   30
C30
A   31
C31
A   32
C32
A   33
C33
A   34
C34
A   35
C35
A   36
C36
A   37
C37
A   38
C38
A   39
C39
A   40
C40
A   41
C41
A   42
C42
A   43
C43
A   44
N1
A   45
N18
A   46
N29
A   47
O1
A   48
O4
A   49
O5
A   50
O17
A   51
O28
A   52
F1
M  END
