1DJZ_IP2_A_1
     RDKit          3D

 34 34  0  0  0  0  0  0  0  0999 V2000
  124.2070   40.9670   18.9080 C   0  0  0  0  0  0  0  0  0  0  0  0
  124.2830   39.4820   19.2640 C   0  0  0  0  0  0  0  0  0  0  0  0
  124.6850   38.7580   17.9390 C   0  0  0  0  0  0  0  0  0  0  0  0
  126.1940   38.9400   17.6250 C   0  0  0  0  0  0  0  0  0  0  0  0
  126.4720   40.4880   17.5490 C   0  0  0  0  0  0  0  0  0  0  0  0
  125.6530   41.4330   18.5160 C   0  0  0  0  0  0  0  0  0  0  0  0
  123.7660   41.6310   20.0820 O   0  0  0  0  0  0  0  0  0  0  0  0
  125.3150   39.4700   20.2600 O   0  0  0  0  0  0  0  0  0  0  0  0
  124.2310   37.4220   17.8200 O   0  0  0  0  0  0  0  0  0  0  0  0
  126.6410   38.1910   16.4380 O   0  0  0  0  0  0  0  0  0  0  0  0
  127.8820   40.7430   17.7370 O   0  0  0  0  0  0  0  0  0  0  0  0
  125.6410   42.7660   17.9770 O   0  0  0  0  0  0  0  0  0  0  0  0
  128.0570   37.3460   16.2060 P   0  0  0  0  0  0  0  0  0  0  0  0
  129.3580   38.3060   16.1240 O   0  0  0  0  0  0  0  0  0  0  0  0
  128.0180   36.5360   14.8100 O   0  0  0  0  0  0  0  0  0  0  0  0
  128.2840   36.2650   17.3920 O   0  0  0  0  0  0  0  0  0  0  0  0
  128.6700   42.0040   17.0610 P   0  0  0  0  0  0  0  0  0  0  0  0
  127.6610   42.7620   16.0440 O   0  0  0  0  0  0  0  0  0  0  0  0
  129.1480   43.0580   18.1940 O   0  0  0  0  0  0  0  0  0  0  0  0
  129.9980   41.4860   16.2810 O   0  0  0  0  0  0  0  0  0  0  0  0
  123.5251   41.1800   18.0715 H   0  0  0  0  0  0  0  0  0  0  0  0
  123.3739   38.9922   19.6429 H   0  0  0  0  0  0  0  0  0  0  0  0
  124.1262   39.2721   17.1432 H   0  0  0  0  0  0  0  0  0  0  0  0
  126.8014   38.4991   18.4292 H   0  0  0  0  0  0  0  0  0  0  0  0
  126.1143   40.7538   16.5433 H   0  0  0  0  0  0  0  0  0  0  0  0
  126.1894   41.3910   19.4755 H   0  0  0  0  0  0  0  0  0  0  0  0
  124.0907   41.1422   20.8793 H   0  0  0  0  0  0  0  0  0  0  0  0
  124.9043   39.4748   21.1608 H   0  0  0  0  0  0  0  0  0  0  0  0
  124.1000   37.0364   18.7223 H   0  0  0  0  0  0  0  0  0  0  0  0
  125.6351   43.4218   18.7186 H   0  0  0  0  0  0  0  0  0  0  0  0
  127.9712   35.5643   14.9935 H   0  0  0  0  0  0  0  0  0  0  0  0
  128.1899   36.7133   18.2696 H   0  0  0  0  0  0  0  0  0  0  0  0
  128.9757   42.6781   19.0918 H   0  0  0  0  0  0  0  0  0  0  0  0
  130.6851   41.2180   16.9414 H   0  0  0  0  0  0  0  0  0  0  0  0
  1  2  1  0
  1  6  1  0
  1  7  1  0
  2  3  1  0
  2  8  1  0
  3  4  1  0
  3  9  1  0
  4  5  1  0
  4 10  1  0
  5  6  1  0
  5 11  1  0
  6 12  1  0
 10 13  1  0
 11 17  1  0
 13 14  2  0
 13 15  1  0
 13 16  1  0
 17 18  2  0
 17 19  1  0
 17 20  1  0
  1 21  1  0
  2 22  1  0
  3 23  1  0
  4 24  1  0
  5 25  1  0
  6 26  1  0
  7 27  1  0
  8 28  1  0
  9 29  1  0
 12 30  1  0
 15 31  1  0
 16 32  1  0
 19 33  1  0
 20 34  1  0
A    1
C1
A    2
C2
A    3
C3
A    4
C4
A    5
C5
A    6
C6
A    7
O1
A    8
O2
A    9
O3
A   10
O4
A   11
O5
A   12
O6
A   13
P4
A   14
O41
A   15
O42
A   16
O43
A   17
P5
A   18
O51
A   19
O52
A   20
O53
M  END
