1HGI_ANA_A_349
     RDKit          3D

 48 48  0  0  0  0  0  0  0  0999 V2000
   -7.5140   71.6350   28.1390 C   0  0  0  0  0  0  0  0  0  0  0  0
   -8.2370   72.9020   27.6560 C   0  0  0  0  0  0  0  0  0  0  0  0
   -8.1790   74.0100   28.7110 C   0  0  0  0  0  0  0  0  0  0  0  0
   -6.7690   74.5550   28.8370 C   0  0  0  0  0  0  0  0  0  0  0  0
   -6.3190   75.0860   27.4810 C   0  0  0  0  0  0  0  0  0  0  0  0
   -6.3410   73.9550   26.4600 C   0  0  0  0  0  0  0  0  0  0  0  0
   -5.9570   74.3300   25.0330 C   0  0  0  0  0  0  0  0  0  0  0  0
   -6.1310   73.1110   24.1080 C   0  0  0  0  0  0  0  0  0  0  0  0
   -5.5280   73.4090   22.7380 C   0  0  0  0  0  0  0  0  0  0  0  0
   -4.4950   76.6390   27.0280 C   0  0  0  0  0  0  0  0  0  0  0  0
   -3.0490   77.0410   27.2650 C   0  0  0  0  0  0  0  0  0  0  0  0
   -9.8620   71.5390   26.4670 C   0  0  0  0  0  0  0  0  0  0  0  0
   -6.8080   75.2060   31.1970 C   0  0  0  0  0  0  0  0  0  0  0  0
   -8.0340   75.6950   31.9280 C   0  0  0  0  0  0  0  0  0  0  0  0
   -4.9680   75.5860   27.6600 N   0  0  0  0  0  0  0  0  0  0  0  0
   -7.8140   71.1280   29.2190 O   0  0  0  0  0  0  0  0  0  0  0  0
   -6.6280   71.1390   27.4570 O   0  0  0  0  0  0  0  0  0  0  0  0
   -9.6080   72.5550   27.4610 O   0  0  0  0  0  0  0  0  0  0  0  0
   -6.5930   75.5930   29.8380 O   0  0  0  0  0  0  0  0  0  0  0  0
   -7.6600   73.4020   26.4290 O   0  0  0  0  0  0  0  0  0  0  0  0
   -6.7660   75.3990   24.5890 O   0  0  0  0  0  0  0  0  0  0  0  0
   -5.5090   71.9820   24.6680 O   0  0  0  0  0  0  0  0  0  0  0  0
   -5.4070   72.2350   21.9630 O   0  0  0  0  0  0  0  0  0  0  0  0
   -5.2200   77.2380   26.2370 O   0  0  0  0  0  0  0  0  0  0  0  0
   -6.0560   74.4070   31.7540 O   0  0  0  0  0  0  0  0  0  0  0  0
   -8.8565   74.8251   28.4167 H   0  0  0  0  0  0  0  0  0  0  0  0
   -8.4852   73.5918   29.6812 H   0  0  0  0  0  0  0  0  0  0  0  0
   -6.1527   73.7099   29.1777 H   0  0  0  0  0  0  0  0  0  0  0  0
   -6.9825   75.8832   27.1146 H   0  0  0  0  0  0  0  0  0  0  0  0
   -5.5698   73.2474   26.7983 H   0  0  0  0  0  0  0  0  0  0  0  0
   -4.9034   74.6452   25.0094 H   0  0  0  0  0  0  0  0  0  0  0  0
   -7.2052   72.9037   23.9934 H   0  0  0  0  0  0  0  0  0  0  0  0
   -6.1769   74.1222   22.2086 H   0  0  0  0  0  0  0  0  0  0  0  0
   -4.5233   73.8317   22.8860 H   0  0  0  0  0  0  0  0  0  0  0  0
   -2.8559   77.0947   28.3466 H   0  0  0  0  0  0  0  0  0  0  0  0
   -2.3816   76.2943   26.8100 H   0  0  0  0  0  0  0  0  0  0  0  0
   -2.8627   78.0250   26.8100 H   0  0  0  0  0  0  0  0  0  0  0  0
  -10.0997   70.5884   26.9668 H   0  0  0  0  0  0  0  0  0  0  0  0
  -10.7113   71.8451   25.8385 H   0  0  0  0  0  0  0  0  0  0  0  0
   -8.9686   71.4095   25.8385 H   0  0  0  0  0  0  0  0  0  0  0  0
   -7.8652   75.6277   33.0129 H   0  0  0  0  0  0  0  0  0  0  0  0
   -8.2325   76.7411   31.6520 H   0  0  0  0  0  0  0  0  0  0  0  0
   -8.8980   75.0727   31.6520 H   0  0  0  0  0  0  0  0  0  0  0  0
   -4.3472   75.0908   28.3159 H   0  0  0  0  0  0  0  0  0  0  0  0
   -5.8523   70.7048   27.8927 H   0  0  0  0  0  0  0  0  0  0  0  0
   -7.1321   75.8828   25.3713 H   0  0  0  0  0  0  0  0  0  0  0  0
   -5.5424   72.0427   25.6556 H   0  0  0  0  0  0  0  0  0  0  0  0
   -5.3262   71.4510   22.5621 H   0  0  0  0  0  0  0  0  0  0  0  0
  1  2  1  0
  1 16  2  0
  1 17  1  0
  2  3  1  0
  2 18  1  0
  2 20  1  0
  3  4  1  0
  4  5  1  0
  4 19  1  0
  5  6  1  0
  5 15  1  0
  6  7  1  0
  6 20  1  0
  7  8  1  0
  7 21  1  0
  8  9  1  0
  8 22  1  0
  9 23  1  0
 10 11  1  0
 10 15  1  0
 10 24  2  0
 12 18  1  0
 13 14  1  0
 13 19  1  0
 13 25  2  0
  3 26  1  0
  3 27  1  0
  4 28  1  0
  5 29  1  0
  6 30  1  0
  7 31  1  0
  8 32  1  0
  9 33  1  0
  9 34  1  0
 11 35  1  0
 11 36  1  0
 11 37  1  0
 12 38  1  0
 12 39  1  0
 12 40  1  0
 14 41  1  0
 14 42  1  0
 14 43  1  0
 15 44  1  0
 17 45  1  0
 21 46  1  0
 22 47  1  0
 23 48  1  0
A    1
C1
A    2
C2
A    3
C3
A    4
C4
A    5
C5
A    6
C6
A    7
C7
A    8
C8
A    9
C9
A   10
C10
A   11
C11
A   12
C12
A   13
CA4
A   14
CM4
A   15
N5
A   16
O1A
A   17
O1B
A   18
O2
A   19
O4
A   20
O6
A   21
O7
A   22
O8
A   23
O9
A   24
O10
A   25
OA4
M  END
