1HIY_3AN_A_1156
     RDKit          3D

 43 45  0  0  0  0  0  0  0  0999 V2000
   66.5580   29.0320    0.2740 P   0  0  0  0  0  0  0  0  0  0  0  0
   67.2840   29.8220    1.2780 O   0  0  0  0  0  0  0  0  0  0  0  0
   67.3810   27.9470   -0.3620 O   0  0  0  0  0  0  0  0  0  0  0  0
   65.1940   28.5920    0.6330 O   0  0  0  0  0  0  0  0  0  0  0  0
   67.1250   30.3870   -2.2140 P   0  0  0  0  0  0  0  0  0  0  0  0
   67.5610   29.0140   -2.6840 O   0  0  0  0  0  0  0  0  0  0  0  0
   66.3490   31.2950   -3.0720 O   0  0  0  0  0  0  0  0  0  0  0  0
   66.3150   30.1500   -0.8530 O   0  0  0  0  0  0  0  0  0  0  0  0
   68.3810   31.2170   -1.7210 O   0  0  0  0  0  0  0  0  0  0  0  0
   68.2160   32.5920   -1.5790 C   0  0  0  0  0  0  0  0  0  0  0  0
   68.5720   33.2060   -0.1860 C   0  0  0  0  0  0  0  0  0  0  0  0
   68.9770   34.5750   -0.3230 O   0  0  0  0  0  0  0  0  0  0  0  0
   67.3240   33.2810    0.6740 C   0  0  0  0  0  0  0  0  0  0  0  0
   67.4270   32.4320    1.6810 N   0  0  0  0  0  0  0  0  0  0  0  0
   67.1610   34.7530    1.0500 C   0  0  0  0  0  0  0  0  0  0  0  0
   67.9140   35.2830    2.1980 O   0  0  0  0  0  0  0  0  0  0  0  0
   67.8070   35.4070   -0.1610 C   0  0  0  0  0  0  0  0  0  0  0  0
   66.9920   35.7140   -1.4080 N   0  0  0  0  0  0  0  0  0  0  0  0
   66.3430   34.8820   -2.3230 C   0  0  0  0  0  0  0  0  0  0  0  0
   65.5100   35.4630   -3.1230 N   0  0  0  0  0  0  0  0  0  0  0  0
   65.5930   36.8020   -2.7420 C   0  0  0  0  0  0  0  0  0  0  0  0
   64.9120   37.9340   -3.2190 C   0  0  0  0  0  0  0  0  0  0  0  0
   63.7790   37.7310   -3.8620 N   0  0  0  0  0  0  0  0  0  0  0  0
   65.2020   39.1680   -2.6830 N   0  0  0  0  0  0  0  0  0  0  0  0
   66.1000   39.2190   -1.6620 C   0  0  0  0  0  0  0  0  0  0  0  0
   66.7920   38.1950   -1.0750 N   0  0  0  0  0  0  0  0  0  0  0  0
   66.4810   36.9830   -1.7000 C   0  0  0  0  0  0  0  0  0  0  0  0
   67.8004   27.3941    0.3441 H   0  0  0  0  0  0  0  0  0  0  0  0
   65.1052   28.5634    1.6186 H   0  0  0  0  0  0  0  0  0  0  0  0
   67.7436   28.4391   -1.8990 H   0  0  0  0  0  0  0  0  0  0  0  0
   68.8517   33.0826   -2.3308 H   0  0  0  0  0  0  0  0  0  0  0  0
   67.1369   32.7660   -1.7022 H   0  0  0  0  0  0  0  0  0  0  0  0
   69.3632   32.5761    0.2466 H   0  0  0  0  0  0  0  0  0  0  0  0
   66.4030   32.9662    0.1616 H   0  0  0  0  0  0  0  0  0  0  0  0
   67.3646   32.9462    2.5713 H   0  0  0  0  0  0  0  0  0  0  0  0
   66.6635   31.7427    1.6284 H   0  0  0  0  0  0  0  0  0  0  0  0
   66.1078   34.9277    1.3150 H   0  0  0  0  0  0  0  0  0  0  0  0
   67.4874   34.9828    3.0394 H   0  0  0  0  0  0  0  0  0  0  0  0
   68.0071   36.4736    0.0187 H   0  0  0  0  0  0  0  0  0  0  0  0
   66.5292   33.7985   -2.3607 H   0  0  0  0  0  0  0  0  0  0  0  0
   62.9082   37.5750   -3.3344 H   0  0  0  0  0  0  0  0  0  0  0  0
   63.7646   37.7284   -4.8919 H   0  0  0  0  0  0  0  0  0  0  0  0
   66.2966   40.2208   -1.2524 H   0  0  0  0  0  0  0  0  0  0  0  0
  1  2  2  0
  1  3  1  0
  1  4  1  0
  1  8  1  0
  5  6  1  0
  5  7  2  0
  5  8  1  0
  5  9  1  0
  9 10  1  0
 10 11  1  0
 11 12  1  0
 11 13  1  0
 12 17  1  0
 13 14  1  0
 13 15  1  0
 15 16  1  0
 15 17  1  0
 17 18  1  0
 18 19  1  0
 18 27  1  0
 19 20  2  0
 20 21  1  0
 21 22  1  0
 21 27  2  0
 22 23  1  0
 22 24  2  0
 24 25  1  0
 25 26  2  0
 26 27  1  0
  3 28  1  0
  4 29  1  0
  6 30  1  0
 10 31  1  0
 10 32  1  0
 11 33  1  0
 13 34  1  0
 14 35  1  0
 14 36  1  0
 15 37  1  0
 16 38  1  0
 17 39  1  0
 19 40  1  0
 23 41  1  0
 23 42  1  0
 25 43  1  0
A    1
PB
A    2
O1B
A    3
O2B
A    4
O3B
A    5
PA
A    6
O1A
A    7
O2A
A    8
O3A
A    9
O5'
A   10
C5'
A   11
C4'
A   12
O4'
A   13
C3'
A   14
N3'
A   15
C2'
A   16
O2'
A   17
C1'
A   18
N9
A   19
C8
A   20
N7
A   21
C5
A   22
C6
A   23
N6
A   24
N1
A   25
C2
A   26
N3
A   27
C4
M  END
