1HLD_BRB_A_1003
     RDKit          3D

 16 16  0  0  0  0  0  0  0  0999 V2000
    5.2340   64.2790   11.6380 C   0  0  0  0  0  0  0  0  0  0  0  0
    4.9310   64.5480   12.9500 C   0  0  0  0  0  0  0  0  0  0  0  0
    4.9360   63.5240   13.9460 C   0  0  0  0  0  0  0  0  0  0  0  0
    5.2580   62.2060   13.6120 C   0  0  0  0  0  0  0  0  0  0  0  0
    5.5540   61.9390   12.2780 C   0  0  0  0  0  0  0  0  0  0  0  0
    5.5380   62.9640   11.3240 C   0  0  0  0  0  0  0  0  0  0  0  0
    5.2030   65.3400   10.6770 C   0  0  0  0  0  0  0  0  0  0  0  0
    5.3010   60.9670   14.8410 Br  0  0  0  0  0  0  0  0  0  0  0  0
    4.6180   64.8520    9.4530 O   0  0  0  0  0  0  0  0  0  0  0  0
    4.6780   65.5781   13.2414 H   0  0  0  0  0  0  0  0  0  0  0  0
    4.6837   63.7757   14.9867 H   0  0  0  0  0  0  0  0  0  0  0  0
    5.8029   60.9126   11.9704 H   0  0  0  0  0  0  0  0  0  0  0  0
    5.7772   62.7144   10.2797 H   0  0  0  0  0  0  0  0  0  0  0  0
    4.5994   66.1727   11.0672 H   0  0  0  0  0  0  0  0  0  0  0  0
    6.2263   65.6938   10.4829 H   0  0  0  0  0  0  0  0  0  0  0  0
    3.8756   64.2327    9.6660 H   0  0  0  0  0  0  0  0  0  0  0  0
  1  2  2  0
  1  6  1  0
  1  7  1  0
  2  3  1  0
  3  4  2  0
  4  5  1  0
  4  8  1  0
  5  6  2  0
  7  9  1  0
  2 10  1  0
  3 11  1  0
  5 12  1  0
  6 13  1  0
  7 14  1  0
  7 15  1  0
  9 16  1  0
A    1
C1
A    2
C2
A    3
C3
A    4
C4
A    5
C5
A    6
C6
A    7
C7
A    8
BR4
A    9
O1
M  END
