1HNI_AAA_A_559
     RDKit          3D

 39 40  0  0  0  0  0  0  0  0999 V2000
  143.4180  -21.7130   75.6160 C   0  0  0  0  0  0  0  0  0  0  0  0
  143.0540  -21.1910   74.2670 C   0  0  0  0  0  0  0  0  0  0  0  0
  142.4560  -19.8030   74.1510 C   0  0  0  0  0  0  0  0  0  0  0  0
  143.1450  -21.8730   73.2010 O   0  0  0  0  0  0  0  0  0  0  0  0
  143.2100  -20.8850   76.7380 C   0  0  0  0  0  0  0  0  0  0  0  0
  143.5550  -21.2470   78.0290 C   0  0  0  0  0  0  0  0  0  0  0  0
  144.1340  -22.4860   78.2670 C   0  0  0  0  0  0  0  0  0  0  0  0
  144.5040  -22.8920   79.6490 C   0  0  0  0  0  0  0  0  0  0  0  0
  144.3560  -23.3510   77.1930 C   0  0  0  0  0  0  0  0  0  0  0  0
  143.9830  -23.0250   75.8300 C   0  0  0  0  0  0  0  0  0  0  0  0
  144.1770  -23.9440   74.7540 N   0  0  0  0  0  0  0  0  0  0  0  0
  144.6390  -25.3170   74.8800 C   0  0  0  0  0  0  0  0  0  0  0  0
  145.7760  -25.6670   73.8970 C   0  0  0  0  0  0  0  0  0  0  0  0
  146.9470  -26.2190   74.3140 N   0  0  0  0  0  0  0  0  0  0  0  0
  145.5570  -25.5150   72.6890 O   0  0  0  0  0  0  0  0  0  0  0  0
  143.4980  -26.3080   74.8450 C   0  0  0  0  0  0  0  0  0  0  0  0
  143.2300  -27.1120   75.9800 C   0  0  0  0  0  0  0  0  0  0  0  0
  144.2850  -26.9390   77.5200 Br  0  0  0  0  0  0  0  0  0  0  0  0
  142.1320  -27.9720   76.0330 C   0  0  0  0  0  0  0  0  0  0  0  0
  141.3350  -28.1500   74.9110 C   0  0  0  0  0  0  0  0  0  0  0  0
  141.6260  -27.3990   73.7750 C   0  0  0  0  0  0  0  0  0  0  0  0
  142.6720  -26.4440   73.7940 C   0  0  0  0  0  0  0  0  0  0  0  0
  142.9430  -25.3820   72.2980 Br  0  0  0  0  0  0  0  0  0  0  0  0
  142.2799  -19.3944   75.1570 H   0  0  0  0  0  0  0  0  0  0  0  0
  143.1519  -19.1483   73.6059 H   0  0  0  0  0  0  0  0  0  0  0  0
  141.5022  -19.8591   73.6059 H   0  0  0  0  0  0  0  0  0  0  0  0
  142.7491  -19.8989   76.5792 H   0  0  0  0  0  0  0  0  0  0  0  0
  143.3708  -20.5548   78.8638 H   0  0  0  0  0  0  0  0  0  0  0  0
  143.9461  -22.2798   80.3728 H   0  0  0  0  0  0  0  0  0  0  0  0
  144.2560  -23.9532   79.7982 H   0  0  0  0  0  0  0  0  0  0  0  0
  145.5836  -22.7433   79.7982 H   0  0  0  0  0  0  0  0  0  0  0  0
  144.8346  -24.3217   77.3896 H   0  0  0  0  0  0  0  0  0  0  0  0
  143.9713  -23.6038   73.8038 H   0  0  0  0  0  0  0  0  0  0  0  0
  145.0888  -25.3999   75.8804 H   0  0  0  0  0  0  0  0  0  0  0  0
  147.1430  -26.3114   75.3209 H   0  0  0  0  0  0  0  0  0  0  0  0
  147.6378  -26.5446   73.6229 H   0  0  0  0  0  0  0  0  0  0  0  0
  141.8984  -28.5088   76.9643 H   0  0  0  0  0  0  0  0  0  0  0  0
  140.4978  -28.8635   74.9188 H   0  0  0  0  0  0  0  0  0  0  0  0
  141.0395  -27.5484   72.8565 H   0  0  0  0  0  0  0  0  0  0  0  0
  1  2  1  0
  1  5  2  0
  1 10  1  0
  2  3  1  0
  2  4  2  0
  5  6  1  0
  6  7  2  0
  7  8  1  0
  7  9  1  0
  9 10  2  0
 10 11  1  0
 11 12  1  0
 12 13  1  0
 12 16  1  0
 13 14  1  0
 13 15  2  0
 16 17  2  0
 16 22  1  0
 17 18  1  0
 17 19  1  0
 19 20  2  0
 20 21  1  0
 21 22  2  0
 22 23  1  0
  3 24  1  0
  3 25  1  0
  3 26  1  0
  5 27  1  0
  6 28  1  0
  8 29  1  0
  8 30  1  0
  8 31  1  0
  9 32  1  0
 11 33  1  0
 12 34  1  0
 14 35  1  0
 14 36  1  0
 19 37  1  0
 20 38  1  0
 21 39  1  0
A    1
C1
A    2
C1A
A    3
C1B
A    4
O1B
A    5
C2
A    6
C3
A    7
C4
A    8
C4A
A    9
C5
A   10
C6
A   11
N7
A   12
C8
A   13
C8A
A   14
N8B
A   15
O8B
A   16
C9
A   17
C10
A   18
BR1
A   19
C11
A   20
C12
A   21
C13
A   22
C14
A   23
BR2
M  END
