1HNN_SKF_A_3001
     RDKit          3D

 26 27  0  0  0  0  0  0  0  0999 V2000
   28.3480   46.0370   16.7830 C   0  0  0  0  0  0  0  0  0  0  0  0
   27.8990   45.5320   15.5700 C   0  0  0  0  0  0  0  0  0  0  0  0
   27.8220   44.1470   15.3850 C   0  0  0  0  0  0  0  0  0  0  0  0
   28.1930   43.2860   16.4100 C   0  0  0  0  0  0  0  0  0  0  0  0
   27.2610   43.4900   13.8470 S   0  0  0  0  0  0  0  0  0  0  0  0
   28.6420   43.7900   17.6160 C   0  0  0  0  0  0  0  0  0  0  0  0
   28.7200   45.1740   17.8070 C   0  0  0  0  0  0  0  0  0  0  0  0
   27.4850   44.4300   12.7700 O   0  0  0  0  0  0  0  0  0  0  0  0
   25.8660   43.1330   13.8730 O   0  0  0  0  0  0  0  0  0  0  0  0
   28.1050   42.1870   13.5730 N   0  0  0  0  0  0  0  0  0  0  0  0
   28.9650   42.8430   18.7440 C   0  0  0  0  0  0  0  0  0  0  0  0
   29.2110   44.8480   20.1940 C   0  0  0  0  0  0  0  0  0  0  0  0
   29.4880   45.7050   18.9780 C   0  0  0  0  0  0  0  0  0  0  0  0
   29.7000   43.4830   19.8600 N   0  0  0  0  0  0  0  0  0  0  0  0
   28.4096   47.1248   16.9342 H   0  0  0  0  0  0  0  0  0  0  0  0
   27.6058   46.2160   14.7599 H   0  0  0  0  0  0  0  0  0  0  0  0
   28.1291   42.1980   16.2611 H   0  0  0  0  0  0  0  0  0  0  0  0
   28.3806   41.7616   14.4696 H   0  0  0  0  0  0  0  0  0  0  0  0
   27.5371   41.5168   13.0352 H   0  0  0  0  0  0  0  0  0  0  0  0
   28.0221   42.4346   19.1367 H   0  0  0  0  0  0  0  0  0  0  0  0
   29.6189   42.0601   18.3324 H   0  0  0  0  0  0  0  0  0  0  0  0
   29.7488   45.2422   21.0689 H   0  0  0  0  0  0  0  0  0  0  0  0
   28.1396   44.8401   20.4432 H   0  0  0  0  0  0  0  0  0  0  0  0
   30.5641   45.6826   18.7512 H   0  0  0  0  0  0  0  0  0  0  0  0
   29.1773   46.7405   19.1810 H   0  0  0  0  0  0  0  0  0  0  0  0
   29.6029   42.8893   20.6960 H   0  0  0  0  0  0  0  0  0  0  0  0
  1  2  2  0
  1  7  1  0
  2  3  1  0
  3  4  2  0
  3  5  1  0
  4  6  1  0
  5  8  2  0
  5  9  2  0
  5 10  1  0
  6  7  2  0
  6 11  1  0
  7 13  1  0
 11 14  1  0
 12 13  1  0
 12 14  1  0
  1 15  1  0
  2 16  1  0
  4 17  1  0
 10 18  1  0
 10 19  1  0
 11 20  1  0
 11 21  1  0
 12 22  1  0
 12 23  1  0
 13 24  1  0
 13 25  1  0
 14 26  1  0
A    1
C4
A    2
C5
A    3
C6
A    4
C7
A    5
S
A    6
C8
A    7
C9
A    8
O1
A    9
O2
A   10
N
A   11
C1
A   12
C2
A   13
C3
A   14
N1
M  END
