1HNV_TBO_A_559
     RDKit          3D

 41 43  0  0  0  0  0  0  0  0999 V2000
  143.7970  -25.8260   72.3850 N   0  0  0  0  0  0  0  0  0  0  0  0
  144.3600  -26.3150   73.6320 C   0  0  0  0  0  0  0  0  0  0  0  0
  144.7150  -24.8490   71.8780 C   0  0  0  0  0  0  0  0  0  0  0  0
  144.5790  -23.9750   70.4470 S   0  0  0  0  0  0  0  0  0  0  0  0
  145.7650  -24.7530   72.7710 N   0  0  0  0  0  0  0  0  0  0  0  0
  145.5010  -25.6500   73.7930 C   0  0  0  0  0  0  0  0  0  0  0  0
  147.0090  -24.1920   72.3660 C   0  0  0  0  0  0  0  0  0  0  0  0
  147.4410  -23.1480   73.3330 C   0  0  0  0  0  0  0  0  0  0  0  0
  147.3860  -23.5170   74.7490 N   0  0  0  0  0  0  0  0  0  0  0  0
  147.6000  -24.9190   74.9620 C   0  0  0  0  0  0  0  0  0  0  0  0
  146.2920  -25.6340   74.9460 C   0  0  0  0  0  0  0  0  0  0  0  0
  145.8570  -26.3950   76.0670 C   0  0  0  0  0  0  0  0  0  0  0  0
  146.7620  -26.3590   77.5790 Cl  0  0  0  0  0  0  0  0  0  0  0  0
  144.6490  -27.1310   75.9650 C   0  0  0  0  0  0  0  0  0  0  0  0
  143.8840  -27.0940   74.7290 C   0  0  0  0  0  0  0  0  0  0  0  0
  148.8760  -23.0930   73.0470 C   0  0  0  0  0  0  0  0  0  0  0  0
  147.7900  -22.5870   75.8780 C   0  0  0  0  0  0  0  0  0  0  0  0
  146.5600  -22.2010   76.6830 C   0  0  0  0  0  0  0  0  0  0  0  0
  146.4350  -21.8280   77.9440 C   0  0  0  0  0  0  0  0  0  0  0  0
  145.0020  -21.5010   78.1680 C   0  0  0  0  0  0  0  0  0  0  0  0
  147.6270  -21.7450   78.8640 C   0  0  0  0  0  0  0  0  0  0  0  0
  142.9117  -26.1232   71.9505 H   0  0  0  0  0  0  0  0  0  0  0  0
  147.7693  -24.9859   72.3247 H   0  0  0  0  0  0  0  0  0  0  0  0
  146.8898  -23.7340   71.3730 H   0  0  0  0  0  0  0  0  0  0  0  0
  146.8070  -22.2569   73.2149 H   0  0  0  0  0  0  0  0  0  0  0  0
  148.2439  -25.3163   74.1635 H   0  0  0  0  0  0  0  0  0  0  0  0
  148.0862  -25.0697   75.9372 H   0  0  0  0  0  0  0  0  0  0  0  0
  144.2922  -27.7275   76.8176 H   0  0  0  0  0  0  0  0  0  0  0  0
  142.9461  -27.6618   74.6402 H   0  0  0  0  0  0  0  0  0  0  0  0
  149.4378  -23.0715   73.9925 H   0  0  0  0  0  0  0  0  0  0  0  0
  149.1685  -23.9806   72.4668 H   0  0  0  0  0  0  0  0  0  0  0  0
  149.0997  -22.1856   72.4668 H   0  0  0  0  0  0  0  0  0  0  0  0
  148.5112  -23.0976   76.5330 H   0  0  0  0  0  0  0  0  0  0  0  0
  148.2521  -21.6812   75.4585 H   0  0  0  0  0  0  0  0  0  0  0  0
  145.6151  -22.2386   76.1211 H   0  0  0  0  0  0  0  0  0  0  0  0
  144.8009  -21.4551   79.2485 H   0  0  0  0  0  0  0  0  0  0  0  0
  144.7722  -20.5273   77.7106 H   0  0  0  0  0  0  0  0  0  0  0  0
  144.3726  -22.2786   77.7106 H   0  0  0  0  0  0  0  0  0  0  0  0
  147.2857  -21.7688   79.9094 H   0  0  0  0  0  0  0  0  0  0  0  0
  148.2948  -22.5988   78.6768 H   0  0  0  0  0  0  0  0  0  0  0  0
  148.1700  -20.8069   78.6768 H   0  0  0  0  0  0  0  0  0  0  0  0
  1  2  1  0
  1  3  1  0
  2  6  2  0
  2 15  1  0
  3  4  2  0
  3  5  1  0
  5  6  1  0
  5  7  1  0
  6 11  1  0
  7  8  1  0
  8  9  1  0
  8 16  1  0
  9 10  1  0
  9 17  1  0
 10 11  1  0
 11 12  2  0
 12 13  1  0
 12 14  1  0
 14 15  2  0
 17 18  1  0
 18 19  2  0
 19 20  1  0
 19 21  1  0
  1 22  1  0
  7 23  1  0
  7 24  1  0
  8 25  1  0
 10 26  1  0
 10 27  1  0
 14 28  1  0
 15 29  1  0
 16 30  1  0
 16 31  1  0
 16 32  1  0
 17 33  1  0
 17 34  1  0
 18 35  1  0
 20 36  1  0
 20 37  1  0
 20 38  1  0
 21 39  1  0
 21 40  1  0
 21 41  1  0
A    1
N1
A    2
C1A
A    3
C2
A    4
S2
A    5
N3
A    6
C3A
A    7
C4
A    8
C5
A    9
N6
A   10
C7
A   11
C7A
A   12
C8
A   13
CL8
A   14
C9
A   15
C10
A   16
C11
A   17
C12
A   18
C13
A   19
C14
A   20
C15
A   21
C16
M  END
