1HPO_UNI_B_100
     RDKit          3D

 64 68  0  0  0  0  0  0  0  0999 V2000
   13.6440   23.0550    5.7580 C   0  0  0  0  0  0  0  0  0  0  0  0
   12.4620   22.4300    6.2330 C   0  0  0  0  0  0  0  0  0  0  0  0
   12.5220   21.3710    6.7520 O   0  0  0  0  0  0  0  0  0  0  0  0
   11.2320   22.9530    6.0750 O   0  0  0  0  0  0  0  0  0  0  0  0
   11.1730   24.1780    5.3710 C   0  0  0  0  0  0  0  0  0  0  0  0
   12.2830   24.8340    4.8700 C   0  0  0  0  0  0  0  0  0  0  0  0
   13.5440   24.2550    5.0790 C   0  0  0  0  0  0  0  0  0  0  0  0
   14.7200   24.8210    4.7030 O   0  0  0  0  0  0  0  0  0  0  0  0
   15.3970   21.2880    5.0660 C   0  0  0  0  0  0  0  0  0  0  0  0
   15.1540   21.3690    3.6670 C   0  0  0  0  0  0  0  0  0  0  0  0
   15.5220   20.2830    2.8340 C   0  0  0  0  0  0  0  0  0  0  0  0
   16.1290   19.1410    3.3570 C   0  0  0  0  0  0  0  0  0  0  0  0
   16.3510   19.0480    4.7530 C   0  0  0  0  0  0  0  0  0  0  0  0
   15.9960   20.1240    5.5870 C   0  0  0  0  0  0  0  0  0  0  0  0
   15.0550   22.4530    5.9880 C   0  0  0  0  0  0  0  0  0  0  0  0
   15.5140   22.2140    7.4440 C   0  0  0  0  0  0  0  0  0  0  0  0
   15.4090   23.3410    8.4740 C   0  0  0  0  0  0  0  0  0  0  0  0
   16.7720   22.9310    7.9340 C   0  0  0  0  0  0  0  0  0  0  0  0
    9.7560   24.7210    5.2000 C   0  0  0  0  0  0  0  0  0  0  0  0
    9.0920   24.5760    3.8190 C   0  0  0  0  0  0  0  0  0  0  0  0
    9.8770   23.8900    2.7510 C   0  0  0  0  0  0  0  0  0  0  0  0
   11.0450   24.6630    2.1980 C   0  0  0  0  0  0  0  0  0  0  0  0
   11.2850   26.0690    2.7980 C   0  0  0  0  0  0  0  0  0  0  0  0
   12.1320   26.1330    4.1020 C   0  0  0  0  0  0  0  0  0  0  0  0
   16.9830   17.9420    5.3080 N   0  0  0  0  0  0  0  0  0  0  0  0
   18.5350   18.0980    5.4930 S   0  0  0  0  0  0  0  0  0  0  0  0
   18.8700   16.6830    5.5030 O   0  0  0  0  0  0  0  0  0  0  0  0
   18.9170   18.8390    4.2920 O   0  0  0  0  0  0  0  0  0  0  0  0
   19.1800   18.9950    6.8380 C   0  0  0  0  0  0  0  0  0  0  0  0
   19.1190   18.5400    8.1890 C   0  0  0  0  0  0  0  0  0  0  0  0
   19.6730   19.3400    9.2240 C   0  0  0  0  0  0  0  0  0  0  0  0
   20.2810   20.5780    8.8980 C   0  0  0  0  0  0  0  0  0  0  0  0
   20.3310   21.0200    7.5600 C   0  0  0  0  0  0  0  0  0  0  0  0
   19.7850   20.2350    6.5360 C   0  0  0  0  0  0  0  0  0  0  0  0
   20.8740   21.3540    9.8890 C   0  0  0  0  0  0  0  0  0  0  0  0
   21.3780   22.0050   10.7220 N   0  0  0  0  0  0  0  0  0  0  0  0
   15.3625   25.1302    5.3898 H   0  0  0  0  0  0  0  0  0  0  0  0
   14.6850   22.2657    3.2357 H   0  0  0  0  0  0  0  0  0  0  0  0
   15.3250   20.3418    1.7534 H   0  0  0  0  0  0  0  0  0  0  0  0
   16.4326   18.3198    2.6911 H   0  0  0  0  0  0  0  0  0  0  0  0
   16.1900   20.0551    6.6676 H   0  0  0  0  0  0  0  0  0  0  0  0
   15.6791   23.3062    5.6838 H   0  0  0  0  0  0  0  0  0  0  0  0
   15.1637   21.1720    7.4047 H   0  0  0  0  0  0  0  0  0  0  0  0
   14.9725   24.3091    8.1871 H   0  0  0  0  0  0  0  0  0  0  0  0
   14.9676   23.4388    9.4768 H   0  0  0  0  0  0  0  0  0  0  0  0
   17.4856   22.4052    8.5854 H   0  0  0  0  0  0  0  0  0  0  0  0
   17.6048   23.4587    7.4463 H   0  0  0  0  0  0  0  0  0  0  0  0
    9.1157   24.2010    5.9278 H   0  0  0  0  0  0  0  0  0  0  0  0
    9.8567   25.8067    5.3455 H   0  0  0  0  0  0  0  0  0  0  0  0
    8.1591   24.0101    3.9586 H   0  0  0  0  0  0  0  0  0  0  0  0
    8.9639   25.6070    3.4575 H   0  0  0  0  0  0  0  0  0  0  0  0
   10.2626   22.9479    3.1678 H   0  0  0  0  0  0  0  0  0  0  0  0
    9.1821   23.7551    1.9090 H   0  0  0  0  0  0  0  0  0  0  0  0
   11.9529   24.0662    2.3699 H   0  0  0  0  0  0  0  0  0  0  0  0
   10.8067   24.8343    1.1379 H   0  0  0  0  0  0  0  0  0  0  0  0
   11.7983   26.6741    2.0362 H   0  0  0  0  0  0  0  0  0  0  0  0
   10.2882   26.4387    3.0803 H   0  0  0  0  0  0  0  0  0  0  0  0
   11.6597   26.8658    4.7727 H   0  0  0  0  0  0  0  0  0  0  0  0
   13.1483   26.4021    3.7785 H   0  0  0  0  0  0  0  0  0  0  0  0
   16.4742   17.0877    5.5767 H   0  0  0  0  0  0  0  0  0  0  0  0
   18.6460   17.5760    8.4276 H   0  0  0  0  0  0  0  0  0  0  0  0
   19.6304   19.0014   10.2697 H   0  0  0  0  0  0  0  0  0  0  0  0
   20.8006   21.9851    7.3192 H   0  0  0  0  0  0  0  0  0  0  0  0
   19.8276   20.5853    5.4941 H   0  0  0  0  0  0  0  0  0  0  0  0
  1  2  1  0
  1  7  2  0
  1 15  1  0
  2  3  2  0
  2  4  1  0
  4  5  1  0
  5  6  2  0
  5 19  1  0
  6  7  1  0
  6 24  1  0
  7  8  1  0
  9 10  2  0
  9 14  1  0
  9 15  1  0
 10 11  1  0
 11 12  2  0
 12 13  1  0
 13 14  2  0
 13 25  1  0
 15 16  1  0
 16 17  1  0
 16 18  1  0
 17 18  1  0
 19 20  1  0
 20 21  1  0
 21 22  1  0
 22 23  1  0
 23 24  1  0
 25 26  1  0
 26 27  2  0
 26 28  2  0
 26 29  1  0
 29 30  2  0
 29 34  1  0
 30 31  1  0
 31 32  2  0
 32 33  1  0
 32 35  1  0
 33 34  2  0
 35 36  3  0
  8 37  1  0
 10 38  1  0
 11 39  1  0
 12 40  1  0
 14 41  1  0
 15 42  1  0
 16 43  1  0
 17 44  1  0
 17 45  1  0
 18 46  1  0
 18 47  1  0
 19 48  1  0
 19 49  1  0
 20 50  1  0
 20 51  1  0
 21 52  1  0
 21 53  1  0
 22 54  1  0
 22 55  1  0
 23 56  1  0
 23 57  1  0
 24 58  1  0
 24 59  1  0
 25 60  1  0
 30 61  1  0
 31 62  1  0
 33 63  1  0
 34 64  1  0
A    1
CA
A    2
CA2
A    3
OA2
A    4
OA3
A    5
CA4
A    6
CA5
A    7
CA6
A    8
OA6
A    9
CB1
A   10
CB2
A   11
CB3
A   12
CB4
A   13
CB5
A   14
CB6
A   15
CG1
A   16
CG2
A   17
CG3
A   18
CG4
A   19
CD1
A   20
CD2
A   21
CD3
A   22
CD4
A   23
CD5
A   24
CD6
A   25
N
A   26
S
A   27
O1
A   28
O2
A   29
CZ1
A   30
CZ2
A   31
CZ3
A   32
CZ4
A   33
CZ5
A   34
CZ6
A   35
CZ7
A   36
NZ7
M  END
