1HTE_G23_A_200
     RDKit          3D

 58 60  0  0  0  0  0  0  0  0999 V2000
   10.1920   24.9880    3.7440 C   0  0  0  0  0  0  0  0  0  0  0  0
    7.8080   25.2740    3.4000 C   0  0  0  0  0  0  0  0  0  0  0  0
    7.1780   26.6710    3.5200 C   0  0  0  0  0  0  0  0  0  0  0  0
    5.8860   26.6480    2.6950 C   0  0  0  0  0  0  0  0  0  0  0  0
   10.0070   22.6620    2.5350 C   0  0  0  0  0  0  0  0  0  0  0  0
   11.1020   24.4610    1.3860 C   0  0  0  0  0  0  0  0  0  0  0  0
   11.1000   24.5730    4.8930 C   0  0  0  0  0  0  0  0  0  0  0  0
   10.0200   24.1590    2.4700 C   0  0  0  0  0  0  0  0  0  0  0  0
    4.9710   27.3210    0.5510 C   0  0  0  0  0  0  0  0  0  0  0  0
    7.5400   28.0510    5.7240 C   0  0  0  0  0  0  0  0  0  0  0  0
    7.1050   27.8090    7.1440 C   0  0  0  0  0  0  0  0  0  0  0  0
    9.1040   26.6490    8.0980 C   0  0  0  0  0  0  0  0  0  0  0  0
    8.3670   27.8260    7.9640 C   0  0  0  0  0  0  0  0  0  0  0  0
    8.7830   28.9400    8.6130 C   0  0  0  0  0  0  0  0  0  0  0  0
    9.9310   28.9340    9.3770 C   0  0  0  0  0  0  0  0  0  0  0  0
   10.6830   27.8300    9.4780 C   0  0  0  0  0  0  0  0  0  0  0  0
   10.2370   26.6550    8.8220 C   0  0  0  0  0  0  0  0  0  0  0  0
    7.4980   27.7670   -2.2250 C   0  0  0  0  0  0  0  0  0  0  0  0
    6.8100   28.4130   -3.2140 C   0  0  0  0  0  0  0  0  0  0  0  0
    5.5020   28.7160   -2.9810 C   0  0  0  0  0  0  0  0  0  0  0  0
    4.9240   28.3680   -1.7850 C   0  0  0  0  0  0  0  0  0  0  0  0
    5.5690   27.7170   -0.8010 C   0  0  0  0  0  0  0  0  0  0  0  0
    6.9150   27.4160   -1.0560 C   0  0  0  0  0  0  0  0  0  0  0  0
    8.8810   25.1710    4.3360 N   0  0  0  0  0  0  0  0  0  0  0  0
    7.0600   27.0320    4.9260 N   0  0  0  0  0  0  0  0  0  0  0  0
    6.0240   27.2380    1.5070 N   0  0  0  0  0  0  0  0  0  0  0  0
    4.8750   26.0970    3.0410 O   0  0  0  0  0  0  0  0  0  0  0  0
    8.2430   29.0150    5.4800 O   0  0  0  0  0  0  0  0  0  0  0  0
   10.8830   23.5290    5.4860 O   0  0  0  0  0  0  0  0  0  0  0  0
   11.9750   25.3320    5.3230 O   0  0  0  0  0  0  0  0  0  0  0  0
    8.4580   24.8950    1.7720 S   0  0  0  0  0  0  0  0  0  0  0  0
   10.7222   25.8570    3.3271 H   0  0  0  0  0  0  0  0  0  0  0  0
    6.9992   24.5558    3.5999 H   0  0  0  0  0  0  0  0  0  0  0  0
    7.7937   27.4808    3.1016 H   0  0  0  0  0  0  0  0  0  0  0  0
   10.0042   22.3407    3.5870 H   0  0  0  0  0  0  0  0  0  0  0  0
    9.1055   22.2810    2.0328 H   0  0  0  0  0  0  0  0  0  0  0  0
   10.9017   22.2654    2.0328 H   0  0  0  0  0  0  0  0  0  0  0  0
   12.0498   24.7255    1.8777 H   0  0  0  0  0  0  0  0  0  0  0  0
   11.2508   23.5701    0.7582 H   0  0  0  0  0  0  0  0  0  0  0  0
   10.7679   25.3002    0.7582 H   0  0  0  0  0  0  0  0  0  0  0  0
    4.2404   28.0791    0.8694 H   0  0  0  0  0  0  0  0  0  0  0  0
    4.4624   26.3493    0.4668 H   0  0  0  0  0  0  0  0  0  0  0  0
    6.4207   28.6035    7.4764 H   0  0  0  0  0  0  0  0  0  0  0  0
    6.5662   26.8556    7.2471 H   0  0  0  0  0  0  0  0  0  0  0  0
    8.7605   25.7225    7.6147 H   0  0  0  0  0  0  0  0  0  0  0  0
    8.1947   29.8656    8.5291 H   0  0  0  0  0  0  0  0  0  0  0  0
   10.2331   29.8474    9.9103 H   0  0  0  0  0  0  0  0  0  0  0  0
   11.6203   27.8350   10.0538 H   0  0  0  0  0  0  0  0  0  0  0  0
   10.8286   25.7315    8.9068 H   0  0  0  0  0  0  0  0  0  0  0  0
    8.5591   27.5250   -2.3849 H   0  0  0  0  0  0  0  0  0  0  0  0
    7.2953   28.6789   -4.1647 H   0  0  0  0  0  0  0  0  0  0  0  0
    4.9112   29.2376   -3.7484 H   0  0  0  0  0  0  0  0  0  0  0  0
    3.8702   28.6380   -1.6221 H   0  0  0  0  0  0  0  0  0  0  0  0
    7.5054   26.8865   -0.2938 H   0  0  0  0  0  0  0  0  0  0  0  0
    8.6927   24.3668    4.9514 H   0  0  0  0  0  0  0  0  0  0  0  0
    6.4772   26.3656    5.4524 H   0  0  0  0  0  0  0  0  0  0  0  0
    6.9359   27.6537    1.2692 H   0  0  0  0  0  0  0  0  0  0  0  0
   12.1002   25.4406    6.2990 H   0  0  0  0  0  0  0  0  0  0  0  0
  1  7  1  0
  1  8  1  0
  1 24  1  0
  2  3  1  0
  2 24  1  0
  2 31  1  0
  3  4  1  0
  3 25  1  0
  4 26  1  0
  4 27  2  0
  5  8  1  0
  6  8  1  0
  7 29  2  0
  7 30  1  0
  8 31  1  0
  9 22  1  0
  9 26  1  0
 10 11  1  0
 10 25  1  0
 10 28  2  0
 11 13  1  0
 12 13  2  0
 12 17  1  0
 13 14  1  0
 14 15  2  0
 15 16  1  0
 16 17  2  0
 18 19  2  0
 18 23  1  0
 19 20  1  0
 20 21  2  0
 21 22  1  0
 22 23  2  0
  1 32  1  0
  2 33  1  0
  3 34  1  0
  5 35  1  0
  5 36  1  0
  5 37  1  0
  6 38  1  0
  6 39  1  0
  6 40  1  0
  9 41  1  0
  9 42  1  0
 11 43  1  0
 11 44  1  0
 12 45  1  0
 14 46  1  0
 15 47  1  0
 16 48  1  0
 17 49  1  0
 18 50  1  0
 19 51  1  0
 20 52  1  0
 21 53  1  0
 23 54  1  0
 24 55  1  0
 25 56  1  0
 26 57  1  0
 30 58  1  0
A    1
C1
A    2
C2
A    3
C3
A    4
C4
A    5
C5
A    6
C6
A    7
C7
A    8
C8
A    9
C9
A   10
C10
A   11
C11
A   12
C12
A   13
C13
A   14
C14
A   15
C15
A   16
C16
A   17
C17
A   18
C18
A   19
C19
A   20
C20
A   21
C21
A   22
C22
A   23
C23
A   24
N1
A   25
N2
A   26
N3
A   27
O1
A   28
O2
A   29
O3
A   30
O4
A   31
S1
M  END
