1HU9_4HM_A_861
     RDKit          3D

 19 19  0  0  0  0  0  0  0  0999 V2000
   20.3170    4.2890   20.5980 C   0  0  0  0  0  0  0  0  0  0  0  0
   21.3740    5.2160   20.5050 C   0  0  0  0  0  0  0  0  0  0  0  0
   21.9710    5.4770   19.2730 C   0  0  0  0  0  0  0  0  0  0  0  0
   21.5250    4.7740   18.1260 C   0  0  0  0  0  0  0  0  0  0  0  0
   20.4820    3.8510   18.2220 C   0  0  0  0  0  0  0  0  0  0  0  0
   19.8830    3.5980   19.4610 C   0  0  0  0  0  0  0  0  0  0  0  0
   22.0970    4.9910   16.9220 O   0  0  0  0  0  0  0  0  0  0  0  0
   22.3330    3.9010   15.9730 O   0  0  0  0  0  0  0  0  0  0  0  0
   21.7540    5.8560   21.6210 O   0  0  0  0  0  0  0  0  0  0  0  0
   19.7300    4.0330   21.8010 O   0  0  0  0  0  0  0  0  0  0  0  0
   21.0290    6.7480   22.4230 C   0  0  0  0  0  0  0  0  0  0  0  0
   22.7785    6.2195   19.1918 H   0  0  0  0  0  0  0  0  0  0  0  0
   20.1310    3.3225   17.3234 H   0  0  0  0  0  0  0  0  0  0  0  0
   19.0731    2.8579   19.5411 H   0  0  0  0  0  0  0  0  0  0  0  0
   22.5142    3.0642   16.4700 H   0  0  0  0  0  0  0  0  0  0  0  0
   20.2105    4.2426   22.6408 H   0  0  0  0  0  0  0  0  0  0  0  0
   21.2136    6.5208   23.4833 H   0  0  0  0  0  0  0  0  0  0  0  0
   21.3492    7.7781   22.2075 H   0  0  0  0  0  0  0  0  0  0  0  0
   19.9552    6.6451   22.2075 H   0  0  0  0  0  0  0  0  0  0  0  0
  1  2  2  0
  1  6  1  0
  1 10  1  0
  2  3  1  0
  2  9  1  0
  3  4  2  0
  4  5  1  0
  4  7  1  0
  5  6  2  0
  7  8  1  0
  9 11  1  0
  3 12  1  0
  5 13  1  0
  6 14  1  0
  8 15  1  0
 10 16  1  0
 11 17  1  0
 11 18  1  0
 11 19  1  0
A    1
C1
A    2
C2
A    3
C3
A    4
C4
A    5
C5
A    6
C6
A    7
O7
A    8
O8
A    9
O9
A   10
O10
A   11
C11
M  END
