1HWI_115_A_2
     RDKit          3D

 56 58  0  0  0  0  0  0  0  0999 V2000
   18.4010  -24.9180   16.5060 C   0  0  0  0  0  0  0  0  0  0  0  0
   17.9490  -25.1160   15.2150 C   0  0  0  0  0  0  0  0  0  0  0  0
   16.7230  -25.7930   15.0000 C   0  0  0  0  0  0  0  0  0  0  0  0
   15.9800  -26.2550   16.1050 C   0  0  0  0  0  0  0  0  0  0  0  0
   16.4590  -26.0420   17.4160 C   0  0  0  0  0  0  0  0  0  0  0  0
   17.6720  -25.3710   17.6270 C   0  0  0  0  0  0  0  0  0  0  0  0
   19.7110  -24.1830   16.4580 C   0  0  0  0  0  0  0  0  0  0  0  0
   19.8850  -24.0340   15.1280 C   0  0  0  0  0  0  0  0  0  0  0  0
   18.7880  -24.6130   14.3630 N   0  0  0  0  0  0  0  0  0  0  0  0
   21.8730  -24.2130   19.6180 C   0  0  0  0  0  0  0  0  0  0  0  0
   21.0480  -24.6580   18.5760 C   0  0  0  0  0  0  0  0  0  0  0  0
   20.5850  -23.7380   17.6190 C   0  0  0  0  0  0  0  0  0  0  0  0
   20.9500  -22.3800   17.7090 C   0  0  0  0  0  0  0  0  0  0  0  0
   21.7680  -21.9450   18.7450 C   0  0  0  0  0  0  0  0  0  0  0  0
   22.2310  -22.8600   19.6980 C   0  0  0  0  0  0  0  0  0  0  0  0
   23.0340  -22.4250   20.7080 F   0  0  0  0  0  0  0  0  0  0  0  0
   23.3240  -17.1500   16.8110 O   0  0  0  0  0  0  0  0  0  0  0  0
   21.2130  -17.9530   17.0500 O   0  0  0  0  0  0  0  0  0  0  0  0
   23.6280  -20.2010   15.3420 O   0  0  0  0  0  0  0  0  0  0  0  0
   22.3490  -17.7280   16.3490 C   0  0  0  0  0  0  0  0  0  0  0  0
   22.2800  -18.2610   14.9270 C   0  0  0  0  0  0  0  0  0  0  0  0
   22.3680  -19.7910   14.8180 C   0  0  0  0  0  0  0  0  0  0  0  0
   22.2860  -20.2600   13.3610 C   0  0  0  0  0  0  0  0  0  0  0  0
   22.3530  -21.7860   13.2180 C   0  0  0  0  0  0  0  0  0  0  0  0
   21.0790  -22.4250   13.7070 C   0  0  0  0  0  0  0  0  0  0  0  0
   20.9810  -23.3940   14.6150 C   0  0  0  0  0  0  0  0  0  0  0  0
   18.6060  -24.3980   12.8520 C   0  0  0  0  0  0  0  0  0  0  0  0
   18.5490  -25.7280   12.0780 C   0  0  0  0  0  0  0  0  0  0  0  0
   17.3550  -23.5350   12.5500 C   0  0  0  0  0  0  0  0  0  0  0  0
   22.5660  -22.0540   11.8620 O   0  0  0  0  0  0  0  0  0  0  0  0
   16.3534  -25.9570   13.9770 H   0  0  0  0  0  0  0  0  0  0  0  0
   15.0273  -26.7813   15.9461 H   0  0  0  0  0  0  0  0  0  0  0  0
   15.8774  -26.4044   18.2765 H   0  0  0  0  0  0  0  0  0  0  0  0
   18.0484  -25.2008   18.6465 H   0  0  0  0  0  0  0  0  0  0  0  0
   22.2393  -24.9248   20.3724 H   0  0  0  0  0  0  0  0  0  0  0  0
   20.7650  -25.7188   18.5075 H   0  0  0  0  0  0  0  0  0  0  0  0
   20.5869  -21.6629   16.9580 H   0  0  0  0  0  0  0  0  0  0  0  0
   22.0509  -20.8844   18.8160 H   0  0  0  0  0  0  0  0  0  0  0  0
   21.2331  -17.9490   18.0398 H   0  0  0  0  0  0  0  0  0  0  0  0
   23.5934  -20.1897   16.3313 H   0  0  0  0  0  0  0  0  0  0  0  0
   23.1139  -17.8268   14.3560 H   0  0  0  0  0  0  0  0  0  0  0  0
   21.2944  -17.9742   14.5316 H   0  0  0  0  0  0  0  0  0  0  0  0
   21.5263  -20.2285   15.3749 H   0  0  0  0  0  0  0  0  0  0  0  0
   23.1247  -19.8184   12.8029 H   0  0  0  0  0  0  0  0  0  0  0  0
   21.3127  -19.9347   12.9648 H   0  0  0  0  0  0  0  0  0  0  0  0
   23.1672  -22.2048   13.8277 H   0  0  0  0  0  0  0  0  0  0  0  0
   20.1389  -22.0552   13.2717 H   0  0  0  0  0  0  0  0  0  0  0  0
   21.9433  -23.7384   15.0216 H   0  0  0  0  0  0  0  0  0  0  0  0
   19.4944  -23.8514   12.5026 H   0  0  0  0  0  0  0  0  0  0  0  0
   18.5131  -26.5655   12.7903 H   0  0  0  0  0  0  0  0  0  0  0  0
   17.6493  -25.7458   11.4454 H   0  0  0  0  0  0  0  0  0  0  0  0
   19.4439  -25.8227   11.4454 H   0  0  0  0  0  0  0  0  0  0  0  0
   16.8926  -23.2160   13.4957 H   0  0  0  0  0  0  0  0  0  0  0  0
   17.6522  -22.6489   11.9699 H   0  0  0  0  0  0  0  0  0  0  0  0
   16.6322  -24.1275   11.9699 H   0  0  0  0  0  0  0  0  0  0  0  0
   23.1793  -22.8257   11.7705 H   0  0  0  0  0  0  0  0  0  0  0  0
 30 24  1  0
 28 27  1  0
 29 27  1  0
 27  9  1  0
 24 23  1  0
 24 25  1  0
 23 22  1  0
 25 26  2  0
  9  8  1  0
  9  2  1  0
 26  8  1  0
 22 21  1  0
 22 19  1  0
 21 20  1  0
  3  2  2  0
  3  4  1  0
  8  7  2  0
  2  1  1  0
  4  5  2  0
 20 17  2  0
 20 18  1  0
  7  1  1  0
  7 12  1  0
  1  6  2  0
  5  6  1  0
 12 13  2  0
 12 11  1  0
 13 14  1  0
 11 10  2  0
 14 15  2  0
 10 15  1  0
 15 16  1  0
  3 31  1  0
  4 32  1  0
  5 33  1  0
  6 34  1  0
 10 35  1  0
 11 36  1  0
 13 37  1  0
 14 38  1  0
 18 39  1  0
 19 40  1  0
 21 41  1  0
 21 42  1  0
 22 43  1  0
 23 44  1  0
 23 45  1  0
 24 46  1  0
 25 47  1  0
 26 48  1  0
 27 49  1  0
 28 50  1  0
 28 51  1  0
 28 52  1  0
 29 53  1  0
 29 54  1  0
 29 55  1  0
 30 56  1  0
A    1
C10
A    2
C15
A    3
C14
A    4
C13
A    5
C12
A    6
C11
A    7
C8
A    8
C9
A    9
N1
A   10
C83
A   11
C82
A   12
C81
A   13
C86
A   14
C85
A   15
C84
A   16
F1
A   17
O1B
A   18
O1A
A   19
O3
A   20
C1
A   21
C2
A   22
C3
A   23
C4
A   24
C5
A   25
C6
A   26
C7
A   27
C91
A   28
C92
A   29
C93
A   30
O5
M  END
