1HWR_216_B_216
     RDKit          3D

 60 62  0  0  0  0  0  0  0  0999 V2000
   -8.0280   14.2810   27.7780 O   0  0  0  0  0  0  0  0  0  0  0  0
  -10.1210   19.3420   26.7660 O   0  0  0  0  0  0  0  0  0  0  0  0
  -11.7890   18.3830   28.8790 O   0  0  0  0  0  0  0  0  0  0  0  0
   -8.6520   16.0650   26.7760 N   0  0  0  0  0  0  0  0  0  0  0  0
   -9.4270   15.5680   28.9380 N   0  0  0  0  0  0  0  0  0  0  0  0
   -8.7000   15.2840   27.8370 C   0  0  0  0  0  0  0  0  0  0  0  0
   -8.8280   17.5220   26.8240 C   0  0  0  0  0  0  0  0  0  0  0  0
  -10.2040   18.0170   27.1390 C   0  0  0  0  0  0  0  0  0  0  0  0
  -10.5430   17.8310   28.5730 C   0  0  0  0  0  0  0  0  0  0  0  0
  -10.6770   16.3590   28.9200 C   0  0  0  0  0  0  0  0  0  0  0  0
   -8.2430   15.4760   25.4990 C   0  0  0  0  0  0  0  0  0  0  0  0
   -9.1850   15.8620   24.3840 C   0  0  0  0  0  0  0  0  0  0  0  0
   -8.7490   16.3800   23.2310 C   0  0  0  0  0  0  0  0  0  0  0  0
   -7.6840   18.1830   27.6090 C   0  0  0  0  0  0  0  0  0  0  0  0
   -6.3600   17.9800   26.9280 C   0  0  0  0  0  0  0  0  0  0  0  0
   -5.5520   16.8720   27.2700 C   0  0  0  0  0  0  0  0  0  0  0  0
   -4.3000   16.6710   26.6470 C   0  0  0  0  0  0  0  0  0  0  0  0
   -3.8480   17.5700   25.6680 C   0  0  0  0  0  0  0  0  0  0  0  0
   -4.6680   18.6860   25.3170 C   0  0  0  0  0  0  0  0  0  0  0  0
   -5.9270   18.8980   25.9450 C   0  0  0  0  0  0  0  0  0  0  0  0
  -11.7870   15.5540   28.1750 C   0  0  0  0  0  0  0  0  0  0  0  0
  -12.3910   14.3920   28.9530 C   0  0  0  0  0  0  0  0  0  0  0  0
  -13.2790   14.6880   30.0160 C   0  0  0  0  0  0  0  0  0  0  0  0
  -13.9120   13.6630   30.7380 C   0  0  0  0  0  0  0  0  0  0  0  0
  -13.6380   12.3260   30.3710 C   0  0  0  0  0  0  0  0  0  0  0  0
  -12.7500   12.0180   29.3060 C   0  0  0  0  0  0  0  0  0  0  0  0
  -12.1100   13.0510   28.5850 C   0  0  0  0  0  0  0  0  0  0  0  0
   -9.1190   15.0180   30.2720 C   0  0  0  0  0  0  0  0  0  0  0  0
   -9.0070   16.0630   31.3700 C   0  0  0  0  0  0  0  0  0  0  0  0
   -9.4480   15.8760   32.6200 C   0  0  0  0  0  0  0  0  0  0  0  0
  -10.0854   19.9110   27.5753 H   0  0  0  0  0  0  0  0  0  0  0  0
  -11.8964   18.4306   29.8620 H   0  0  0  0  0  0  0  0  0  0  0  0
   -8.7440   17.8711   25.7843 H   0  0  0  0  0  0  0  0  0  0  0  0
  -11.0093   17.4764   26.6201 H   0  0  0  0  0  0  0  0  0  0  0  0
   -9.7300   18.3164   29.1328 H   0  0  0  0  0  0  0  0  0  0  0  0
  -11.0101   16.4806   29.9613 H   0  0  0  0  0  0  0  0  0  0  0  0
   -7.2313   15.8291   25.2504 H   0  0  0  0  0  0  0  0  0  0  0  0
   -8.2615   14.3810   25.6026 H   0  0  0  0  0  0  0  0  0  0  0  0
  -10.2656   15.7121   24.5248 H   0  0  0  0  0  0  0  0  0  0  0  0
   -9.4672   16.6487   22.4423 H   0  0  0  0  0  0  0  0  0  0  0  0
   -7.6721   16.5375   23.0711 H   0  0  0  0  0  0  0  0  0  0  0  0
   -7.8827   19.2619   27.6900 H   0  0  0  0  0  0  0  0  0  0  0  0
   -7.6349   17.7182   28.6048 H   0  0  0  0  0  0  0  0  0  0  0  0
   -5.9020   16.1579   28.0300 H   0  0  0  0  0  0  0  0  0  0  0  0
   -3.6783   15.8086   26.9295 H   0  0  0  0  0  0  0  0  0  0  0  0
   -2.8753   17.4171   25.1776 H   0  0  0  0  0  0  0  0  0  0  0  0
   -4.3205   19.3926   24.5490 H   0  0  0  0  0  0  0  0  0  0  0  0
   -6.5518   19.7607   25.6703 H   0  0  0  0  0  0  0  0  0  0  0  0
  -12.5995   16.2514   27.9230 H   0  0  0  0  0  0  0  0  0  0  0  0
  -11.2971   15.1067   27.2976 H   0  0  0  0  0  0  0  0  0  0  0  0
  -13.4760   15.7374   30.2803 H   0  0  0  0  0  0  0  0  0  0  0  0
  -14.6004   13.8939   31.5643 H   0  0  0  0  0  0  0  0  0  0  0  0
  -14.1227   11.5065   30.9218 H   0  0  0  0  0  0  0  0  0  0  0  0
  -12.5592   10.9677   29.0406 H   0  0  0  0  0  0  0  0  0  0  0  0
  -11.4151   12.8224   27.7635 H   0  0  0  0  0  0  0  0  0  0  0  0
   -9.9182   14.3139   30.5470 H   0  0  0  0  0  0  0  0  0  0  0  0
   -8.1328   14.5370   30.1938 H   0  0  0  0  0  0  0  0  0  0  0  0
   -8.5374   17.0267   31.1237 H   0  0  0  0  0  0  0  0  0  0  0  0
   -9.3359   16.6747   33.3680 H   0  0  0  0  0  0  0  0  0  0  0  0
   -9.9225   14.9237   32.8991 H   0  0  0  0  0  0  0  0  0  0  0  0
  1  6  2  0
  2  8  1  0
  3  9  1  0
  4  6  1  0
  4  7  1  0
  4 11  1  0
  5  6  1  0
  5 10  1  0
  5 28  1  0
  7  8  1  0
  7 14  1  0
  8  9  1  0
  9 10  1  0
 10 21  1  0
 11 12  1  0
 12 13  2  3
 14 15  1  0
 15 16  2  0
 15 20  1  0
 16 17  1  0
 17 18  2  0
 18 19  1  0
 19 20  2  0
 21 22  1  0
 22 23  2  0
 22 27  1  0
 23 24  1  0
 24 25  2  0
 25 26  1  0
 26 27  2  0
 28 29  1  0
 29 30  2  3
  2 31  1  0
  3 32  1  0
  7 33  1  0
  8 34  1  0
  9 35  1  0
 10 36  1  0
 11 37  1  0
 11 38  1  0
 12 39  1  0
 13 40  1  0
 13 41  1  0
 14 42  1  0
 14 43  1  0
 16 44  1  0
 17 45  1  0
 18 46  1  0
 19 47  1  0
 20 48  1  0
 21 49  1  0
 21 50  1  0
 23 51  1  0
 24 52  1  0
 25 53  1  0
 26 54  1  0
 27 55  1  0
 28 56  1  0
 28 57  1  0
 29 58  1  0
 30 59  1  0
 30 60  1  0
A    1
O1
A    2
O4
A    3
O5
A    4
N2
A    5
N7
A    6
C1
A    7
C3
A    8
C4
A    9
C5
A   10
C6
A   11
C21
A   12
C22
A   13
C23
A   14
C31
A   15
C32
A   16
C33
A   17
C34
A   18
C35
A   19
C36
A   20
C37
A   21
C61
A   22
C62
A   23
C63
A   24
C64
A   25
C65
A   26
C66
A   27
C67
A   28
C71
A   29
C72
A   30
C73
M  END
