1HY7_MBS_B_901
     RDKit          3D

 49 50  0  0  0  0  0  0  0  0999 V2000
   -4.7390   50.0940   46.4700 C   0  0  0  0  0  0  0  0  0  0  0  0
   -3.4580   49.9780   47.1030 O   0  0  0  0  0  0  0  0  0  0  0  0
   -3.5180   50.3600   48.4840 C   0  0  0  0  0  0  0  0  0  0  0  0
   -2.1650   50.4140   49.1850 C   0  0  0  0  0  0  0  0  0  0  0  0
   -1.1020   50.4290   49.7690 C   0  0  0  0  0  0  0  0  0  0  0  0
    0.2030   50.4460   50.4360 C   0  0  0  0  0  0  0  0  0  0  0  0
    0.7610   49.4910   51.4870 C   0  0  0  0  0  0  0  0  0  0  0  0
    0.0050   49.5450   52.7860 C   0  0  0  0  0  0  0  0  0  0  0  0
    0.2090   50.4150   53.6330 O   0  0  0  0  0  0  0  0  0  0  0  0
   -0.8660   48.5890   53.0210 O   0  0  0  0  0  0  0  0  0  0  0  0
    2.0810   49.9510   51.8400 N   0  0  0  0  0  0  0  0  0  0  0  0
    3.2940   49.0350   52.6110 S   0  0  0  0  0  0  0  0  0  0  0  0
    3.4030   47.6230   51.9970 O   0  0  0  0  0  0  0  0  0  0  0  0
    4.5890   49.9090   52.3640 O   0  0  0  0  0  0  0  0  0  0  0  0
    3.0210   48.7920   54.2990 C   0  0  0  0  0  0  0  0  0  0  0  0
    3.2620   49.8260   55.1990 C   0  0  0  0  0  0  0  0  0  0  0  0
    3.0870   49.6390   56.5710 C   0  0  0  0  0  0  0  0  0  0  0  0
    2.6670   48.4120   57.0600 C   0  0  0  0  0  0  0  0  0  0  0  0
    2.4550   47.3620   56.1510 C   0  0  0  0  0  0  0  0  0  0  0  0
    2.5970   47.5490   54.7780 C   0  0  0  0  0  0  0  0  0  0  0  0
    2.5690   48.2330   58.4290 C   0  0  0  0  0  0  0  0  0  0  0  0
    2.5560   46.9260   58.9250 C   0  0  0  0  0  0  0  0  0  0  0  0
    2.5300   46.6790   60.2830 C   0  0  0  0  0  0  0  0  0  0  0  0
    2.5800   47.7350   61.1610 C   0  0  0  0  0  0  0  0  0  0  0  0
    2.6260   49.0600   60.6950 C   0  0  0  0  0  0  0  0  0  0  0  0
    2.6510   49.3010   59.3280 C   0  0  0  0  0  0  0  0  0  0  0  0
    2.5510   47.4740   62.3710 O   0  0  0  0  0  0  0  0  0  0  0  0
    2.9470   48.4090   63.3140 C   0  0  0  0  0  0  0  0  0  0  0  0
   -5.5227   50.1650   47.2386 H   0  0  0  0  0  0  0  0  0  0  0  0
   -4.7576   50.9975   45.8428 H   0  0  0  0  0  0  0  0  0  0  0  0
   -4.9196   49.2085   45.8428 H   0  0  0  0  0  0  0  0  0  0  0  0
   -3.9763   51.3581   48.5447 H   0  0  0  0  0  0  0  0  0  0  0  0
   -4.1054   49.5847   48.9976 H   0  0  0  0  0  0  0  0  0  0  0  0
    0.9306   50.4000   49.6123 H   0  0  0  0  0  0  0  0  0  0  0  0
    0.0287   51.3115   51.0922 H   0  0  0  0  0  0  0  0  0  0  0  0
    0.7124   48.4807   51.0547 H   0  0  0  0  0  0  0  0  0  0  0  0
   -1.0908   48.3423   53.9530 H   0  0  0  0  0  0  0  0  0  0  0  0
    2.5027   50.2640   50.9539 H   0  0  0  0  0  0  0  0  0  0  0  0
    3.5952   50.8048   54.8235 H   0  0  0  0  0  0  0  0  0  0  0  0
    3.2831   50.4683   57.2666 H   0  0  0  0  0  0  0  0  0  0  0  0
    2.1705   46.3701   56.5320 H   0  0  0  0  0  0  0  0  0  0  0  0
    2.3781   46.7284   54.0790 H   0  0  0  0  0  0  0  0  0  0  0  0
    2.5667   46.0804   58.2216 H   0  0  0  0  0  0  0  0  0  0  0  0
    2.4698   45.6469   60.6586 H   0  0  0  0  0  0  0  0  0  0  0  0
    2.6421   49.8985   61.4068 H   0  0  0  0  0  0  0  0  0  0  0  0
    2.7353   50.3314   58.9523 H   0  0  0  0  0  0  0  0  0  0  0  0
    2.7765   48.0065   64.3234 H   0  0  0  0  0  0  0  0  0  0  0  0
    4.0164   48.6311   63.1836 H   0  0  0  0  0  0  0  0  0  0  0  0
    2.3624   49.3316   63.1836 H   0  0  0  0  0  0  0  0  0  0  0  0
  1  2  1  0
  2  3  1  0
  3  4  1  0
  4  5  3  0
  5  6  1  0
  6  7  1  0
  7  8  1  0
  7 11  1  0
  8  9  2  0
  8 10  1  0
 11 12  1  0
 12 13  2  0
 12 14  2  0
 12 15  1  0
 15 16  2  0
 15 20  1  0
 16 17  1  0
 17 18  2  0
 18 19  1  0
 18 21  1  0
 19 20  2  0
 21 22  2  0
 21 26  1  0
 22 23  1  0
 23 24  2  0
 24 25  1  0
 24 27  1  0
 25 26  2  0
 27 28  1  0
  1 29  1  0
  1 30  1  0
  1 31  1  0
  3 32  1  0
  3 33  1  0
  6 34  1  0
  6 35  1  0
  7 36  1  0
 10 37  1  0
 11 38  1  0
 16 39  1  0
 17 40  1  0
 19 41  1  0
 20 42  1  0
 22 43  1  0
 23 44  1  0
 25 45  1  0
 26 46  1  0
 28 47  1  0
 28 48  1  0
 28 49  1  0
A    1
C5
A    2
O6
A    3
C16
A    4
C12
A    5
C4
A    6
C3
A    7
C2
A    8
C1
A    9
O2
A   10
O1
A   11
N1
A   12
S11
A   13
O3
A   14
O4
A   15
C21
A   16
C22
A   17
C23
A   18
C24
A   19
C25
A   20
C26
A   21
C6
A   22
C32
A   23
C33
A   24
C34
A   25
C35
A   26
C36
A   27
O5
A   28
C7
M  END
