1HYO_HBU_A_1012
     RDKit          3D

 20 19  0  0  0  0  0  0  0  0999 V2000
   47.4330   44.7450   61.8840 O   0  0  0  0  0  0  0  0  0  0  0  0
   47.6030   43.5510   62.1160 C   0  0  0  0  0  0  0  0  0  0  0  0
   47.1170   43.1040   63.1270 O   0  0  0  0  0  0  0  0  0  0  0  0
   48.3800   42.7230   61.1120 C   0  0  0  0  0  0  0  0  0  0  0  0
   47.9740   42.9670   59.6700 C   0  0  0  0  0  0  0  0  0  0  0  0
   48.0730   43.9910   59.0670 O   0  0  0  0  0  0  0  0  0  0  0  0
   47.3170   41.8060   58.9220 C   0  0  0  0  0  0  0  0  0  0  0  0
   45.4820   42.0780   58.9770 P   0  0  0  0  0  0  0  0  0  0  0  0
   45.1150   43.0380   57.9080 O   0  0  0  0  0  0  0  0  0  0  0  0
   45.1120   42.5280   60.3260 O   0  0  0  0  0  0  0  0  0  0  0  0
   44.8680   40.5860   58.7290 C   0  0  0  0  0  0  0  0  0  0  0  0
   47.3417   45.3866   62.6324 H   0  0  0  0  0  0  0  0  0  0  0  0
   49.4482   42.9639   61.2168 H   0  0  0  0  0  0  0  0  0  0  0  0
   48.1623   41.6673   61.3313 H   0  0  0  0  0  0  0  0  0  0  0  0
   47.6632   41.7874   57.8781 H   0  0  0  0  0  0  0  0  0  0  0  0
   47.5813   40.8450   59.3873 H   0  0  0  0  0  0  0  0  0  0  0  0
   45.5731   41.9672   60.9990 H   0  0  0  0  0  0  0  0  0  0  0  0
   44.6701   40.1052   59.6983 H   0  0  0  0  0  0  0  0  0  0  0  0
   43.9295   40.6655   58.1608 H   0  0  0  0  0  0  0  0  0  0  0  0
   45.5906   39.9819   58.1608 H   0  0  0  0  0  0  0  0  0  0  0  0
  1  2  1  0
  2  3  2  0
  2  4  1  0
  4  5  1  0
  5  6  2  0
  5  7  1  0
  7  8  1  0
  8  9  2  0
  8 10  1  0
  8 11  1  0
  1 12  1  0
  4 13  1  0
  4 14  1  0
  7 15  1  0
  7 16  1  0
 10 17  1  0
 11 18  1  0
 11 19  1  0
 11 20  1  0
A    1
O1
A    2
C2
A    3
O3
A    4
C4
A    5
C5
A    6
O8
A    7
C9
A    8
P10
A    9
O13
A   10
O14
A   11
C15
M  END
