1I2Z_654_A_502
     RDKit          3D

 32 34  0  0  0  0  0  0  0  0999 V2000
    1.6350   21.5620  129.5930 S   0  0  0  0  0  0  0  0  0  0  0  0
    1.6990   22.7440  130.8520 C   0  0  0  0  0  0  0  0  0  0  0  0
    1.9060   24.0240  130.3560 C   0  0  0  0  0  0  0  0  0  0  0  0
    2.0530   24.0230  128.9520 C   0  0  0  0  0  0  0  0  0  0  0  0
    1.8860   22.7930  128.4150 C   0  0  0  0  0  0  0  0  0  0  0  0
    1.5370   22.4100  132.2280 C   0  0  0  0  0  0  0  0  0  0  0  0
    1.5150   23.2440  133.2760 N   0  0  0  0  0  0  0  0  0  0  0  0
    1.3960   21.1180  132.6680 C   0  0  0  0  0  0  0  0  0  0  0  0
    1.2950   21.2470  133.9720 N   0  0  0  0  0  0  0  0  0  0  0  0
    1.3680   22.5130  134.3370 C   0  0  0  0  0  0  0  0  0  0  0  0
    1.1950   20.1240  134.8570 C   0  0  0  0  0  0  0  0  0  0  0  0
   -0.1860   19.5310  134.7830 C   0  0  0  0  0  0  0  0  0  0  0  0
   -0.3820   18.2570  135.2450 C   0  0  0  0  0  0  0  0  0  0  0  0
   -1.6540   17.7200  135.1830 C   0  0  0  0  0  0  0  0  0  0  0  0
   -1.2120   20.2910  134.2650 C   0  0  0  0  0  0  0  0  0  0  0  0
   -2.4800   19.7650  134.1910 C   0  0  0  0  0  0  0  0  0  0  0  0
   -2.6960   18.4770  134.6480 C   0  0  0  0  0  0  0  0  0  0  0  0
   -4.0750   17.8960  134.5050 C   0  0  0  0  0  0  0  0  0  0  0  0
    1.9501   24.9284  130.9806 H   0  0  0  0  0  0  0  0  0  0  0  0
    2.2783   24.9226  128.3605 H   0  0  0  0  0  0  0  0  0  0  0  0
    1.9083   22.5981  127.3326 H   0  0  0  0  0  0  0  0  0  0  0  0
    1.3730   20.1942  132.0713 H   0  0  0  0  0  0  0  0  0  0  0  0
    1.3132   22.8864  135.3702 H   0  0  0  0  0  0  0  0  0  0  0  0
    1.9341   19.3634  134.5651 H   0  0  0  0  0  0  0  0  0  0  0  0
    1.3896   20.4578  135.8869 H   0  0  0  0  0  0  0  0  0  0  0  0
    0.4548   17.6736  135.6566 H   0  0  0  0  0  0  0  0  0  0  0  0
   -1.8434   16.7017  135.5534 H   0  0  0  0  0  0  0  0  0  0  0  0
   -1.0173   21.3145  133.9121 H   0  0  0  0  0  0  0  0  0  0  0  0
   -3.3084   20.3577  133.7757 H   0  0  0  0  0  0  0  0  0  0  0  0
   -4.5023   17.7160  135.5025 H   0  0  0  0  0  0  0  0  0  0  0  0
   -4.7146   18.6011  133.9539 H   0  0  0  0  0  0  0  0  0  0  0  0
   -4.0172   16.9458  133.9539 H   0  0  0  0  0  0  0  0  0  0  0  0
  1  2  1  0
  1  5  1  0
  2  3  2  0
  2  6  1  0
  3  4  1  0
  4  5  2  0
  6  7  1  0
  6  8  2  0
  7 10  2  0
  8  9  1  0
  9 10  1  0
  9 11  1  0
 11 12  1  0
 12 13  2  0
 12 15  1  0
 13 14  1  0
 14 17  2  0
 15 16  2  0
 16 17  1  0
 17 18  1  0
  3 19  1  0
  4 20  1  0
  5 21  1  0
  8 22  1  0
 10 23  1  0
 11 24  1  0
 11 25  1  0
 13 26  1  0
 14 27  1  0
 15 28  1  0
 16 29  1  0
 18 30  1  0
 18 31  1  0
 18 32  1  0
A    1
S1T
A    2
C2T
A    3
C3T
A    4
C4T
A    5
C5T
A    6
C1I
A    7
N2I
A    8
C3I
A    9
N4I
A   10
C5I
A   11
C1
A   12
C2
A   13
C3
A   14
C4
A   15
C5
A   16
C6
A   17
C7
A   18
C8
M  END
