1I30_826_A_302
     RDKit          3D

 17 17  0  0  0  0  0  0  0  0999 V2000
    2.4180   22.8950  128.4420 O   0  0  0  0  0  0  0  0  0  0  0  0
    2.4720   22.8260  129.8310 C   0  0  0  0  0  0  0  0  0  0  0  0
    2.6390   24.0130  130.6140 C   0  0  0  0  0  0  0  0  0  0  0  0
    2.6950   23.9290  132.0400 C   0  0  0  0  0  0  0  0  0  0  0  0
    2.5790   22.6520  132.6790 C   0  0  0  0  0  0  0  0  0  0  0  0
    2.4100   21.4730  131.8950 C   0  0  0  0  0  0  0  0  0  0  0  0
    2.3590   21.5620  130.4730 C   0  0  0  0  0  0  0  0  0  0  0  0
    2.6330   22.5410  134.1730 C   0  0  0  0  0  0  0  0  0  0  0  0
    2.8250   23.5740  134.8250 O   0  0  0  0  0  0  0  0  0  0  0  0
    2.4730   21.2820  134.7430 N   0  0  0  0  0  0  0  0  0  0  0  0
    1.8714   23.5934  128.0020 H   0  0  0  0  0  0  0  0  0  0  0  0
    2.7243   24.9909  130.1176 H   0  0  0  0  0  0  0  0  0  0  0  0
    2.8264   24.8395  132.6431 H   0  0  0  0  0  0  0  0  0  0  0  0
    2.3189   20.4938  132.3879 H   0  0  0  0  0  0  0  0  0  0  0  0
    2.2319   20.6504  129.8707 H   0  0  0  0  0  0  0  0  0  0  0  0
    2.4598   21.1785  135.7677 H   0  0  0  0  0  0  0  0  0  0  0  0
    2.3677   20.4534  134.1403 H   0  0  0  0  0  0  0  0  0  0  0  0
  1  2  1  0
  2  3  2  0
  2  7  1  0
  3  4  1  0
  4  5  2  0
  5  6  1  0
  5  8  1  0
  6  7  2  0
  8  9  2  0
  8 10  1  0
  1 11  1  0
  3 12  1  0
  4 13  1  0
  6 14  1  0
  7 15  1  0
 10 16  1  0
 10 17  1  0
A    1
O01
A    2
C02
A    3
C03
A    4
C04
A    5
C05
A    6
C06
A    7
C07
A    8
C08
A    9
O09
A   10
N10
M  END
