1I33_TND_A_361
     RDKit          3D

 73 78  0  0  0  0  0  0  0  0999 V2000
   23.0810   79.3270   -1.2230 C   0  0  0  0  0  0  0  0  0  0  0  0
   23.8860   79.5970   -2.5110 C   0  0  0  0  0  0  0  0  0  0  0  0
   23.1530   80.3810   -3.4770 O   0  0  0  0  0  0  0  0  0  0  0  0
   25.1990   80.3370   -2.2690 C   0  0  0  0  0  0  0  0  0  0  0  0
   26.2470   79.8800   -3.1240 O   0  0  0  0  0  0  0  0  0  0  0  0
   24.7770   81.7890   -2.4730 C   0  0  0  0  0  0  0  0  0  0  0  0
   25.8550   82.7590   -2.6710 N   0  0  0  0  0  0  0  0  0  0  0  0
   23.7800   81.6800   -3.6380 C   0  0  0  0  0  0  0  0  0  0  0  0
   22.7600   82.7420   -3.7060 N   0  0  0  0  0  0  0  0  0  0  0  0
   22.2810   83.5390   -2.6910 C   0  0  0  0  0  0  0  0  0  0  0  0
   21.3630   84.4030   -3.0660 N   0  0  0  0  0  0  0  0  0  0  0  0
   21.2100   84.1710   -4.4260 C   0  0  0  0  0  0  0  0  0  0  0  0
   20.3650   84.7650   -5.4510 C   0  0  0  0  0  0  0  0  0  0  0  0
   19.4650   85.7740   -5.2460 N   0  0  0  0  0  0  0  0  0  0  0  0
   20.4800   84.2700   -6.7330 N   0  0  0  0  0  0  0  0  0  0  0  0
   21.3630   83.2670   -6.9850 C   0  0  0  0  0  0  0  0  0  0  0  0
   22.1930   82.6470   -6.1140 N   0  0  0  0  0  0  0  0  0  0  0  0
   22.0700   83.1430   -4.8460 C   0  0  0  0  0  0  0  0  0  0  0  0
   19.2930   86.5550   -4.0010 C   0  0  0  0  0  0  0  0  0  0  0  0
   19.3880   88.0770   -4.2170 C   0  0  0  0  0  0  0  0  0  0  0  0
   19.9150   88.6680   -5.5020 C   0  0  0  0  0  0  0  0  0  0  0  0
   19.9820   90.1610   -5.6520 C   0  0  0  0  0  0  0  0  0  0  0  0
   19.5290   91.0590   -4.5330 C   0  0  0  0  0  0  0  0  0  0  0  0
   17.9800   86.1370   -3.2640 C   0  0  0  0  0  0  0  0  0  0  0  0
   18.9330   88.9750   -3.0990 C   0  0  0  0  0  0  0  0  0  0  0  0
   19.0020   90.4740   -3.2500 C   0  0  0  0  0  0  0  0  0  0  0  0
   17.4980   87.0940   -2.1020 C   0  0  0  0  0  0  0  0  0  0  0  0
   18.3980   88.3360   -1.8060 C   0  0  0  0  0  0  0  0  0  0  0  0
   26.2490   83.6630   -1.7220 C   0  0  0  0  0  0  0  0  0  0  0  0
   25.7060   83.7060   -0.6060 O   0  0  0  0  0  0  0  0  0  0  0  0
   27.3150   84.6520   -2.0640 C   0  0  0  0  0  0  0  0  0  0  0  0
   28.2510   84.3590   -3.1130 C   0  0  0  0  0  0  0  0  0  0  0  0
   29.2920   85.3010   -3.4640 C   0  0  0  0  0  0  0  0  0  0  0  0
   30.1950   84.9930   -4.4830 O   0  0  0  0  0  0  0  0  0  0  0  0
   30.1030   83.7500   -5.2050 C   0  0  0  0  0  0  0  0  0  0  0  0
   29.3620   86.5390   -2.7370 C   0  0  0  0  0  0  0  0  0  0  0  0
   27.4060   85.8980   -1.3460 C   0  0  0  0  0  0  0  0  0  0  0  0
   28.4230   86.8530   -1.6720 C   0  0  0  0  0  0  0  0  0  0  0  0
   28.4350   88.0290   -0.9310 O   0  0  0  0  0  0  0  0  0  0  0  0
   29.3370   89.1010   -1.2810 C   0  0  0  0  0  0  0  0  0  0  0  0
   23.9470   78.8510   -0.1820 O   0  0  0  0  0  0  0  0  0  0  0  0
   22.5986   80.2596   -0.8950 H   0  0  0  0  0  0  0  0  0  0  0  0
   22.3199   78.5608   -1.4320 H   0  0  0  0  0  0  0  0  0  0  0  0
   24.0867   78.5862   -2.8956 H   0  0  0  0  0  0  0  0  0  0  0  0
   25.6469   80.1737   -1.2777 H   0  0  0  0  0  0  0  0  0  0  0  0
   27.0016   79.5509   -2.5741 H   0  0  0  0  0  0  0  0  0  0  0  0
   24.3392   82.2211   -1.5610 H   0  0  0  0  0  0  0  0  0  0  0  0
   26.3454   82.7614   -3.5768 H   0  0  0  0  0  0  0  0  0  0  0  0
   24.3271   81.7993   -4.5848 H   0  0  0  0  0  0  0  0  0  0  0  0
   22.6363   83.4599   -1.6530 H   0  0  0  0  0  0  0  0  0  0  0  0
   18.8471   86.0135   -6.0345 H   0  0  0  0  0  0  0  0  0  0  0  0
   21.4084   82.9158   -8.0264 H   0  0  0  0  0  0  0  0  0  0  0  0
   20.1422   86.3077   -3.3471 H   0  0  0  0  0  0  0  0  0  0  0  0
   20.2466   88.0120   -6.3203 H   0  0  0  0  0  0  0  0  0  0  0  0
   20.3644   90.6003   -6.5852 H   0  0  0  0  0  0  0  0  0  0  0  0
   19.5833   92.1511   -4.6533 H   0  0  0  0  0  0  0  0  0  0  0  0
   17.1759   86.0869   -4.0130 H   0  0  0  0  0  0  0  0  0  0  0  0
   18.2072   85.1761   -2.7793 H   0  0  0  0  0  0  0  0  0  0  0  0
   18.6713   91.1317   -2.4327 H   0  0  0  0  0  0  0  0  0  0  0  0
   16.4957   87.4624   -2.3661 H   0  0  0  0  0  0  0  0  0  0  0  0
   17.5330   86.4835   -1.1876 H   0  0  0  0  0  0  0  0  0  0  0  0
   19.2499   88.0189   -1.1866 H   0  0  0  0  0  0  0  0  0  0  0  0
   17.7857   89.0850   -1.2824 H   0  0  0  0  0  0  0  0  0  0  0  0
   28.1757   83.4059   -3.6569 H   0  0  0  0  0  0  0  0  0  0  0  0
   30.0412   82.9152   -4.4914 H   0  0  0  0  0  0  0  0  0  0  0  0
   29.2031   83.7591   -5.8375 H   0  0  0  0  0  0  0  0  0  0  0  0
   30.9945   83.6265   -5.8375 H   0  0  0  0  0  0  0  0  0  0  0  0
   30.1457   87.2673   -2.9927 H   0  0  0  0  0  0  0  0  0  0  0  0
   26.6890   86.1177   -0.5412 H   0  0  0  0  0  0  0  0  0  0  0  0
   29.7279   89.5655   -0.3637 H   0  0  0  0  0  0  0  0  0  0  0  0
   30.1723   88.6988   -1.8730 H   0  0  0  0  0  0  0  0  0  0  0  0
   28.7979   89.8553   -1.8730 H   0  0  0  0  0  0  0  0  0  0  0  0
   23.5529   79.0676    0.6999 H   0  0  0  0  0  0  0  0  0  0  0  0
  1  2  1  0
  1 41  1  0
  2  3  1  0
  2  4  1  0
  3  8  1  0
  4  5  1  0
  4  6  1  0
  6  7  1  0
  6  8  1  0
  7 29  1  0
  8  9  1  0
  9 10  1  0
  9 18  1  0
 10 11  2  0
 11 12  1  0
 12 13  1  0
 12 18  2  0
 13 14  1  0
 13 15  2  0
 14 19  1  0
 15 16  1  0
 16 17  2  0
 17 18  1  0
 19 20  1  0
 19 24  1  0
 20 21  2  0
 20 25  1  0
 21 22  1  0
 22 23  2  0
 23 26  1  0
 24 27  1  0
 25 26  2  0
 25 28  1  0
 27 28  1  0
 29 30  2  0
 29 31  1  0
 31 32  2  0
 31 37  1  0
 32 33  1  0
 33 34  1  0
 33 36  2  0
 34 35  1  0
 36 38  1  0
 37 38  2  0
 38 39  1  0
 39 40  1  0
  1 42  1  0
  1 43  1  0
  2 44  1  0
  4 45  1  0
  5 46  1  0
  6 47  1  0
  7 48  1  0
  8 49  1  0
 10 50  1  0
 14 51  1  0
 16 52  1  0
 19 53  1  0
 21 54  1  0
 22 55  1  0
 23 56  1  0
 24 57  1  0
 24 58  1  0
 26 59  1  0
 27 60  1  0
 27 61  1  0
 28 62  1  0
 28 63  1  0
 32 64  1  0
 35 65  1  0
 35 66  1  0
 35 67  1  0
 36 68  1  0
 37 69  1  0
 40 70  1  0
 40 71  1  0
 40 72  1  0
 41 73  1  0
A    1
C5'
A    2
C4'
A    3
O4'
A    4
C3'
A    5
O3'
A    6
C2'
A    7
N2'
A    8
C1'
A    9
N9A
A   10
C8A
A   11
N7A
A   12
C5A
A   13
C6A
A   14
N6A
A   15
N1A
A   16
C2A
A   17
N3A
A   18
C4A
A   19
C1
A   20
C9
A   21
C8
A   22
C7
A   23
C6
A   24
C2
A   25
C10
A   26
C5
A   27
C3
A   28
C4
A   29
C7B
A   30
O7B
A   31
C6B
A   32
C5B
A   33
C4B
A   34
O2M
A   35
C2M
A   36
C3B
A   37
C1B
A   38
C2B
A   39
O1M
A   40
C1M
A   41
O5'
M  END
