1I5R_HYC_A_328
     RDKit          3D

100106  0  0  0  0  0  0  0  0999 V2000
    9.5910   11.4690  -11.3480 C   0  0  0  0  0  0  0  0  0  0  0  0
    8.8490   12.2670  -12.2430 C   0  0  0  0  0  0  0  0  0  0  0  0
    8.4840   11.7920  -13.5070 C   0  0  0  0  0  0  0  0  0  0  0  0
    7.8080   12.5360  -14.3070 O   0  0  0  0  0  0  0  0  0  0  0  0
    8.8560   10.4830  -13.9180 C   0  0  0  0  0  0  0  0  0  0  0  0
    9.6040    9.6400  -13.0510 C   0  0  0  0  0  0  0  0  0  0  0  0
    9.9900    8.2060  -13.5490 C   0  0  0  0  0  0  0  0  0  0  0  0
   11.1000    7.5010  -12.6550 C   0  0  0  0  0  0  0  0  0  0  0  0
   10.6400    7.7270  -11.1740 C   0  0  0  0  0  0  0  0  0  0  0  0
   10.7920    9.2360  -10.7870 C   0  0  0  0  0  0  0  0  0  0  0  0
    9.9750   10.1410  -11.7500 C   0  0  0  0  0  0  0  0  0  0  0  0
   10.3150    9.4500   -9.2890 C   0  0  0  0  0  0  0  0  0  0  0  0
   11.0970    8.5550   -8.2760 C   0  0  0  0  0  0  0  0  0  0  0  0
   11.0950    7.0540   -8.6680 C   0  0  0  0  0  0  0  0  0  0  0  0
   11.4950    6.8710  -10.1750 C   0  0  0  0  0  0  0  0  0  0  0  0
   11.4500    5.2540  -10.4250 C   0  0  0  0  0  0  0  0  0  0  0  0
   12.4530    4.9260   -9.1210 C   0  0  0  0  0  0  0  0  0  0  0  0
   12.1830    6.0680   -8.0340 C   0  0  0  0  0  0  0  0  0  0  0  0
   11.6130    5.6280   -6.8430 O   0  0  0  0  0  0  0  0  0  0  0  0
    9.6360    6.4090   -8.4670 C   0  0  0  0  0  0  0  0  0  0  0  0
   11.9990    3.6130   -8.5850 C   0  0  0  0  0  0  0  0  0  0  0  0
   12.2890    2.6410   -9.6260 C   0  0  0  0  0  0  0  0  0  0  0  0
   11.8820    1.1960   -9.2410 C   0  0  0  0  0  0  0  0  0  0  0  0
   12.9940    0.6540   -8.4110 C   0  0  0  0  0  0  0  0  0  0  0  0
   12.9160   -0.8050   -8.3630 C   0  0  0  0  0  0  0  0  0  0  0  0
   14.0010   -1.3910   -7.5480 C   0  0  0  0  0  0  0  0  0  0  0  0
   13.2470   -2.1970   -6.6170 C   0  0  0  0  0  0  0  0  0  0  0  0
   14.2990   -2.8430   -5.7240 C   0  0  0  0  0  0  0  0  0  0  0  0
   16.2250   -6.2660   -1.9410 C   0  0  0  0  0  0  0  0  0  0  0  0
   16.8810   -6.2360   -3.2820 C   0  0  0  0  0  0  0  0  0  0  0  0
   17.5030   -7.3610   -3.6240 O   0  0  0  0  0  0  0  0  0  0  0  0
   17.6560   -5.0180   -3.1390 C   0  0  0  0  0  0  0  0  0  0  0  0
   18.8010   -5.2660   -2.6840 O   0  0  0  0  0  0  0  0  0  0  0  0
   16.8820   -4.1110   -2.2120 C   0  0  0  0  0  0  0  0  0  0  0  0
   15.6900   -4.9350   -1.9090 O   0  0  0  0  0  0  0  0  0  0  0  0
   16.2480   -2.7840   -2.7520 C   0  0  0  0  0  0  0  0  0  0  0  0
   15.7120   -3.2520   -4.0410 O   0  0  0  0  0  0  0  0  0  0  0  0
   14.6950   -2.2150   -4.4750 C   0  0  0  0  0  0  0  0  0  0  0  0
   14.2470   -1.2000   -4.0830 O   0  0  0  0  0  0  0  0  0  0  0  0
   14.0330   -9.5360    1.2550 N   0  0  0  0  0  0  0  0  0  0  0  0
   15.0830   -8.7200    1.4210 C   0  0  0  0  0  0  0  0  0  0  0  0
   15.5930   -7.8870    0.5150 N   0  0  0  0  0  0  0  0  0  0  0  0
   14.9600   -7.8600   -0.7570 C   0  0  0  0  0  0  0  0  0  0  0  0
   13.7930   -8.7260   -1.0340 C   0  0  0  0  0  0  0  0  0  0  0  0
   13.4030   -9.5610    0.1050 C   0  0  0  0  0  0  0  0  0  0  0  0
   12.2890  -10.3840   -0.1710 N   0  0  0  0  0  0  0  0  0  0  0  0
   13.3050   -8.5660   -2.3290 N   0  0  0  0  0  0  0  0  0  0  0  0
   14.2030   -7.6110   -2.7680 C   0  0  0  0  0  0  0  0  0  0  0  0
   15.1900   -7.1520   -1.9150 N   0  0  0  0  0  0  0  0  0  0  0  0
    9.8723   11.8555  -10.3573 H   0  0  0  0  0  0  0  0  0  0  0  0
    8.5516   13.2822  -11.9415 H   0  0  0  0  0  0  0  0  0  0  0  0
    7.1885   13.2178  -13.9444 H   0  0  0  0  0  0  0  0  0  0  0  0
    8.5631   10.1196  -14.9140 H   0  0  0  0  0  0  0  0  0  0  0  0
    9.0860    7.5793  -13.5399 H   0  0  0  0  0  0  0  0  0  0  0  0
   10.4109    8.3169  -14.5592 H   0  0  0  0  0  0  0  0  0  0  0  0
   11.1531    6.4261  -12.8826 H   0  0  0  0  0  0  0  0  0  0  0  0
   12.1019    7.9148  -12.8418 H   0  0  0  0  0  0  0  0  0  0  0  0
    9.5865    7.4181  -11.1052 H   0  0  0  0  0  0  0  0  0  0  0  0
   11.8513    9.5189  -10.8754 H   0  0  0  0  0  0  0  0  0  0  0  0
   10.4679   10.5051   -9.0179 H   0  0  0  0  0  0  0  0  0  0  0  0
    9.2536    9.1665   -9.2336 H   0  0  0  0  0  0  0  0  0  0  0  0
   12.1391    8.9044   -8.2310 H   0  0  0  0  0  0  0  0  0  0  0  0
   10.5930    8.6419   -7.3021 H   0  0  0  0  0  0  0  0  0  0  0  0
   12.5002    7.2668  -10.3822 H   0  0  0  0  0  0  0  0  0  0  0  0
   10.4429    4.8245  -10.3191 H   0  0  0  0  0  0  0  0  0  0  0  0
   11.7300    4.8662  -11.4155 H   0  0  0  0  0  0  0  0  0  0  0  0
   13.5212    4.8984   -9.3823 H   0  0  0  0  0  0  0  0  0  0  0  0
   13.1634    6.5083   -7.7996 H   0  0  0  0  0  0  0  0  0  0  0  0
   12.1101    6.0117   -6.0777 H   0  0  0  0  0  0  0  0  0  0  0  0
    9.4219    6.3143   -7.3922 H   0  0  0  0  0  0  0  0  0  0  0  0
    8.8808    7.0571   -8.9356 H   0  0  0  0  0  0  0  0  0  0  0  0
    9.6071    5.4142   -8.9356 H   0  0  0  0  0  0  0  0  0  0  0  0
   12.5476    3.3642   -7.6646 H   0  0  0  0  0  0  0  0  0  0  0  0
   10.9291    3.6270   -8.3297 H   0  0  0  0  0  0  0  0  0  0  0  0
   11.7408    2.9283  -10.5354 H   0  0  0  0  0  0  0  0  0  0  0  0
   13.3778    2.6438   -9.7824 H   0  0  0  0  0  0  0  0  0  0  0  0
   10.9457    1.2053   -8.6637 H   0  0  0  0  0  0  0  0  0  0  0  0
   11.7127    0.5774  -10.1347 H   0  0  0  0  0  0  0  0  0  0  0  0
   13.9566    0.9532   -8.8513 H   0  0  0  0  0  0  0  0  0  0  0  0
   12.9108    1.0541   -7.3897 H   0  0  0  0  0  0  0  0  0  0  0  0
   11.9484   -1.0948   -7.9273 H   0  0  0  0  0  0  0  0  0  0  0  0
   13.0196   -1.1848   -9.3902 H   0  0  0  0  0  0  0  0  0  0  0  0
   14.6769   -2.0070   -8.1593 H   0  0  0  0  0  0  0  0  0  0  0  0
   14.6603   -0.6496   -7.0730 H   0  0  0  0  0  0  0  0  0  0  0  0
   12.5665   -1.5692   -6.0230 H   0  0  0  0  0  0  0  0  0  0  0  0
   12.6187   -2.9427   -7.1261 H   0  0  0  0  0  0  0  0  0  0  0  0
   13.9223   -3.8441   -5.4674 H   0  0  0  0  0  0  0  0  0  0  0  0
   15.2127   -2.7782   -6.3330 H   0  0  0  0  0  0  0  0  0  0  0  0
   16.8929   -6.5527   -1.1154 H   0  0  0  0  0  0  0  0  0  0  0  0
   16.2154   -6.2049   -4.1572 H   0  0  0  0  0  0  0  0  0  0  0  0
   17.7734   -7.8501   -2.8068 H   0  0  0  0  0  0  0  0  0  0  0  0
   17.8069   -4.5327   -4.1146 H   0  0  0  0  0  0  0  0  0  0  0  0
   18.7714   -5.2596   -1.6945 H   0  0  0  0  0  0  0  0  0  0  0  0
   17.5971   -3.7930   -1.4390 H   0  0  0  0  0  0  0  0  0  0  0  0
   15.4508   -2.4153   -2.0898 H   0  0  0  0  0  0  0  0  0  0  0  0
   16.9463   -1.9372   -2.8247 H   0  0  0  0  0  0  0  0  0  0  0  0
   15.5736   -8.7400    2.4053 H   0  0  0  0  0  0  0  0  0  0  0  0
   11.7426  -10.7877    0.6032 H   0  0  0  0  0  0  0  0  0  0  0  0
   12.0230  -10.5805   -1.1465 H   0  0  0  0  0  0  0  0  0  0  0  0
   14.1327   -7.2174   -3.7928 H   0  0  0  0  0  0  0  0  0  0  0  0
  1  2  2  0
  1 11  1  0
  2  3  1  0
  3  4  1  0
  3  5  2  0
  5  6  1  0
  6  7  1  0
  6 11  2  0
  7  8  1  0
  8  9  1  0
  9 10  1  0
  9 15  1  0
 10 11  1  0
 10 12  1  0
 12 13  1  0
 13 14  1  0
 14 15  1  0
 14 18  1  0
 14 20  1  0
 15 16  1  0
 16 17  1  0
 17 18  1  0
 17 21  1  0
 18 19  1  0
 21 22  1  0
 22 23  1  0
 23 24  1  0
 24 25  1  0
 25 26  1  0
 26 27  1  0
 27 28  1  0
 28 38  1  0
 29 30  1  0
 29 35  1  0
 29 49  1  0
 30 31  1  0
 30 32  1  0
 32 33  1  0
 32 34  1  0
 34 35  1  0
 34 36  1  0
 36 37  1  0
 37 38  1  0
 38 39  2  0
 40 41  2  0
 40 45  1  0
 41 42  1  0
 42 43  2  0
 43 44  1  0
 43 49  1  0
 44 45  2  0
 44 47  1  0
 45 46  1  0
 47 48  2  0
 48 49  1  0
  1 50  1  0
  2 51  1  0
  4 52  1  0
  5 53  1  0
  7 54  1  0
  7 55  1  0
  8 56  1  0
  8 57  1  0
  9 58  1  0
 10 59  1  0
 12 60  1  0
 12 61  1  0
 13 62  1  0
 13 63  1  0
 15 64  1  0
 16 65  1  0
 16 66  1  0
 17 67  1  0
 18 68  1  0
 19 69  1  0
 20 70  1  0
 20 71  1  0
 20 72  1  0
 21 73  1  0
 21 74  1  0
 22 75  1  0
 22 76  1  0
 23 77  1  0
 23 78  1  0
 24 79  1  0
 24 80  1  0
 25 81  1  0
 25 82  1  0
 26 83  1  0
 26 84  1  0
 27 85  1  0
 27 86  1  0
 28 87  1  0
 28 88  1  0
 29 89  1  0
 30 90  1  0
 31 91  1  0
 32 92  1  0
 33 93  1  0
 34 94  1  0
 36 95  1  0
 36 96  1  0
 41 97  1  0
 46 98  1  0
 46 99  1  0
 48100  1  0
A    1
C1
A    2
C2
A    3
C3
A    4
O3
A    5
C4
A    6
C5
A    7
C6
A    8
C7
A    9
C8
A   10
C9
A   11
C10
A   12
C11
A   13
C12
A   14
C13
A   15
C14
A   16
C15
A   17
C16
A   18
C17
A   19
O17
A   20
C18
A   21
C21
A   22
C22
A   23
C23
A   24
C24
A   25
C25
A   26
C26
A   27
C27
A   28
C28
A   29
C31
A   30
C32
A   31
O32
A   32
C33
A   33
O33
A   34
C34
A   35
O34
A   36
C35
A   37
O35
A   38
C36
A   39
O36
A   40
N41
A   41
C42
A   42
N43
A   43
C44
A   44
C45
A   45
C46
A   46
N46
A   47
N47
A   48
C48
A   49
N49
M  END
