1I83_NTU_A_840
     RDKit          3D

 23 22  0  0  0  0  0  0  0  0999 V2000
    6.7850   10.9600   29.1810 C   0  0  0  0  0  0  0  0  0  0  0  0
    7.6930   10.8660   30.7430 S   0  0  0  0  0  0  0  0  0  0  0  0
    7.6550   12.5670   32.9040 N   0  0  0  0  0  0  0  0  0  0  0  0
    5.6020   12.1470   31.7950 N   0  0  0  0  0  0  0  0  0  0  0  0
    6.9180   11.9670   31.9310 C   0  0  0  0  0  0  0  0  0  0  0  0
    9.0780   12.4520   33.1590 C   0  0  0  0  0  0  0  0  0  0  0  0
    9.6880   13.5890   33.9910 C   0  0  0  0  0  0  0  0  0  0  0  0
   11.1640   13.3690   34.5020 C   0  0  0  0  0  0  0  0  0  0  0  0
   11.7100   14.6790   35.1690 C   0  0  0  0  0  0  0  0  0  0  0  0
    5.7103   11.0713   29.3877 H   0  0  0  0  0  0  0  0  0  0  0  0
    7.1388   11.8263   28.6028 H   0  0  0  0  0  0  0  0  0  0  0  0
    6.9538   10.0396   28.6028 H   0  0  0  0  0  0  0  0  0  0  0  0
    5.0044   12.2287   32.6299 H   0  0  0  0  0  0  0  0  0  0  0  0
    5.1844   12.2041   30.8552 H   0  0  0  0  0  0  0  0  0  0  0  0
    9.2523   11.5072   33.6948 H   0  0  0  0  0  0  0  0  0  0  0  0
    9.5685   12.4970   32.1755 H   0  0  0  0  0  0  0  0  0  0  0  0
    9.6800   14.4983   33.3721 H   0  0  0  0  0  0  0  0  0  0  0  0
    9.0702   13.6511   34.8990 H   0  0  0  0  0  0  0  0  0  0  0  0
   11.1746   12.5541   35.2408 H   0  0  0  0  0  0  0  0  0  0  0  0
   11.8041   13.1098   33.6458 H   0  0  0  0  0  0  0  0  0  0  0  0
   11.6680   14.5781   36.2636 H   0  0  0  0  0  0  0  0  0  0  0  0
   12.7515   14.8434   34.8557 H   0  0  0  0  0  0  0  0  0  0  0  0
   11.0935   15.5344   34.8557 H   0  0  0  0  0  0  0  0  0  0  0  0
  1  2  1  0
  2  5  1  0
  3  5  2  0
  3  6  1  0
  4  5  1  0
  6  7  1  0
  7  8  1  0
  8  9  1  0
  1 10  1  0
  1 11  1  0
  1 12  1  0
  4 13  1  0
  4 14  1  0
  6 15  1  0
  6 16  1  0
  7 17  1  0
  7 18  1  0
  8 19  1  0
  8 20  1  0
  9 21  1  0
  9 22  1  0
  9 23  1  0
A    1
C2'
A    2
S1'
A    3
N1
A    4
N2
A    5
C1'
A    6
C1
A    7
C2
A    8
C3
A    9
C4
M  END
