1I9P_IOE_A_555
     RDKit          3D

 34 35  0  0  0  0  0  0  0  0999 V2000
   -3.8510    1.6170   14.7430 C   0  0  0  0  0  0  0  0  0  0  0  0
   -4.1800    0.4630   15.4890 C   0  0  0  0  0  0  0  0  0  0  0  0
   -5.5540    0.2410   15.9110 C   0  0  0  0  0  0  0  0  0  0  0  0
   -6.5050    1.2040   15.5580 C   0  0  0  0  0  0  0  0  0  0  0  0
   -6.1370    2.3520   14.8100 C   0  0  0  0  0  0  0  0  0  0  0  0
   -4.8310    2.5760   14.3920 C   0  0  0  0  0  0  0  0  0  0  0  0
   -4.4640    3.8270   13.5640 C   0  0  0  0  0  0  0  0  0  0  0  0
   -5.4180    4.6030   13.2970 O   0  0  0  0  0  0  0  0  0  0  0  0
   -3.1290    4.1660   13.0660 N   0  0  0  0  0  0  0  0  0  0  0  0
   -2.3080    4.9940   13.9390 C   0  0  0  0  0  0  0  0  0  0  0  0
   -5.9440   -1.2630   16.8650 S   0  0  0  0  0  0  0  0  0  0  0  0
   -5.3910   -2.7190   16.1190 N   0  0  0  0  0  0  0  0  0  0  0  0
   -7.4090   -1.0910   17.0270 O   0  0  0  0  0  0  0  0  0  0  0  0
   -5.3240   -0.9270   18.1850 O   0  0  0  0  0  0  0  0  0  0  0  0
   -2.5470    6.3760   14.1340 C   0  0  0  0  0  0  0  0  0  0  0  0
   -3.4810    7.1050   13.2430 C   0  0  0  0  0  0  0  0  0  0  0  0
   -3.6960    8.5470   13.4920 C   0  0  0  0  0  0  0  0  0  0  0  0
   -3.0030    9.2390   14.5910 C   0  0  0  0  0  0  0  0  0  0  0  0
   -2.0840    8.4920   15.4510 C   0  0  0  0  0  0  0  0  0  0  0  0
   -1.8530    7.0760   15.2350 C   0  0  0  0  0  0  0  0  0  0  0  0
   -0.9930    6.3940   16.0510 F   0  0  0  0  0  0  0  0  0  0  0  0
   -3.2140   10.5740   14.8050 F   0  0  0  0  0  0  0  0  0  0  0  0
   -4.1280    6.4780   12.2160 F   0  0  0  0  0  0  0  0  0  0  0  0
   -2.8089    1.7737   14.4277 H   0  0  0  0  0  0  0  0  0  0  0  0
   -3.3986   -0.2659   15.7500 H   0  0  0  0  0  0  0  0  0  0  0  0
   -7.5528    1.0694   15.8646 H   0  0  0  0  0  0  0  0  0  0  0  0
   -6.9115    3.0894   14.5524 H   0  0  0  0  0  0  0  0  0  0  0  0
   -2.7900    3.8376   12.1505 H   0  0  0  0  0  0  0  0  0  0  0  0
   -2.3635    4.5324   14.9359 H   0  0  0  0  0  0  0  0  0  0  0  0
   -1.3516    5.0088   13.3957 H   0  0  0  0  0  0  0  0  0  0  0  0
   -5.1321   -3.4006   16.8465 H   0  0  0  0  0  0  0  0  0  0  0  0
   -6.1417   -3.1110   15.5328 H   0  0  0  0  0  0  0  0  0  0  0  0
   -4.3846    9.1112   12.8458 H   0  0  0  0  0  0  0  0  0  0  0  0
   -1.5629    9.0096   16.2698 H   0  0  0  0  0  0  0  0  0  0  0  0
  1  2  2  0
  1  6  1  0
  2  3  1  0
  3  4  2  0
  3 11  1  0
  4  5  1  0
  5  6  2  0
  6  7  1  0
  7  8  2  0
  7  9  1  0
  9 10  1  0
 10 15  1  0
 11 12  1  0
 11 13  2  0
 11 14  2  0
 15 16  2  0
 15 20  1  0
 16 17  1  0
 16 23  1  0
 17 18  2  0
 18 19  1  0
 18 22  1  0
 19 20  2  0
 20 21  1  0
  1 24  1  0
  2 25  1  0
  4 26  1  0
  5 27  1  0
  9 28  1  0
 10 29  1  0
 10 30  1  0
 12 31  1  0
 12 32  1  0
 17 33  1  0
 19 34  1  0
A    1
C01
A    2
C02
A    3
C03
A    4
C04
A    5
C05
A    6
C06
A    7
C07
A    8
O08
A    9
N09
A   10
C10
A   11
S11
A   12
NP2
A   13
O13
A   14
O14
A   15
C15
A   16
C16
A   17
C17
A   18
C18
A   19
C19
A   20
C20
A   21
F21
A   22
F22
A   23
F23
M  END
