1IA1_TQ3_A_194
     RDKit          3D

 31 33  0  0  0  0  0  0  0  0999 V2000
   29.4300   -2.6870   -0.1890 C   0  0  0  0  0  0  0  0  0  0  0  0
   29.6240   -2.5650    1.1880 C   0  0  0  0  0  0  0  0  0  0  0  0
   28.6600   -1.6800    1.9010 C   0  0  0  0  0  0  0  0  0  0  0  0
   27.7010   -1.0720    1.2670 N   0  0  0  0  0  0  0  0  0  0  0  0
   27.5830   -1.1030   -0.0650 C   0  0  0  0  0  0  0  0  0  0  0  0
   28.3450   -1.9800   -0.8340 N   0  0  0  0  0  0  0  0  0  0  0  0
   28.6630   -1.4890    3.1940 N   0  0  0  0  0  0  0  0  0  0  0  0
   30.2390   -3.5100   -0.9560 C   0  0  0  0  0  0  0  0  0  0  0  0
   31.3010   -4.2190   -0.3280 C   0  0  0  0  0  0  0  0  0  0  0  0
   31.5420   -4.0910    1.0510 C   0  0  0  0  0  0  0  0  0  0  0  0
   30.7090   -3.2660    1.7900 C   0  0  0  0  0  0  0  0  0  0  0  0
   26.6190   -0.5070   -0.7380 N   0  0  0  0  0  0  0  0  0  0  0  0
   31.0990   -3.1010    3.5170 S   0  0  0  0  0  0  0  0  0  0  0  0
   32.2290   -4.4670    3.8830 C   0  0  0  0  0  0  0  0  0  0  0  0
   31.7890   -5.7780    3.8940 C   0  0  0  0  0  0  0  0  0  0  0  0
   32.6810   -6.8220    4.2050 C   0  0  0  0  0  0  0  0  0  0  0  0
   34.0140   -6.4900    4.5350 C   0  0  0  0  0  0  0  0  0  0  0  0
   34.4620   -5.1730    4.5710 C   0  0  0  0  0  0  0  0  0  0  0  0
   33.5670   -4.1230    4.2390 C   0  0  0  0  0  0  0  0  0  0  0  0
   28.6503   -2.2961    3.8338 H   0  0  0  0  0  0  0  0  0  0  0  0
   28.6780   -0.5314    3.5731 H   0  0  0  0  0  0  0  0  0  0  0  0
   30.0625   -3.6140   -2.0368 H   0  0  0  0  0  0  0  0  0  0  0  0
   31.9434   -4.8775   -0.9310 H   0  0  0  0  0  0  0  0  0  0  0  0
   32.3707   -4.6319    1.5313 H   0  0  0  0  0  0  0  0  0  0  0  0
   25.8550   -0.0346   -0.2340 H   0  0  0  0  0  0  0  0  0  0  0  0
   26.6297   -0.5136   -1.7679 H   0  0  0  0  0  0  0  0  0  0  0  0
   30.7388   -6.0059    3.6590 H   0  0  0  0  0  0  0  0  0  0  0  0
   32.3482   -7.8704    4.1914 H   0  0  0  0  0  0  0  0  0  0  0  0
   34.7209   -7.2990    4.7712 H   0  0  0  0  0  0  0  0  0  0  0  0
   35.5008   -4.9478    4.8543 H   0  0  0  0  0  0  0  0  0  0  0  0
   33.8956   -3.0734    4.2557 H   0  0  0  0  0  0  0  0  0  0  0  0
  1  2  1  0
  1  6  2  0
  1  8  1  0
  2  3  2  0
  2 11  1  0
  3  4  1  0
  3  7  1  0
  4  5  2  0
  5  6  1  0
  5 12  1  0
  8  9  2  0
  9 10  1  0
 10 11  2  0
 11 13  1  0
 13 14  1  0
 14 15  2  0
 14 19  1  0
 15 16  1  0
 16 17  2  0
 17 18  1  0
 18 19  2  0
  7 20  1  0
  7 21  1  0
  8 22  1  0
  9 23  1  0
 10 24  1  0
 12 25  1  0
 12 26  1  0
 15 27  1  0
 16 28  1  0
 17 29  1  0
 18 30  1  0
 19 31  1  0
A    1
C1
A    2
C2
A    3
C3
A    4
N4
A    5
C5
A    6
N6
A    7
N7
A    8
C8
A    9
C9
A   10
C12
A   11
C13
A   12
N14
A   13
S20
A   14
C22
A   15
C23
A   16
C24
A   17
C25
A   18
C26
A   19
C27
M  END
