1IDA_0PO_B_100
     RDKit          3D

104108  0  0  0  0  0  0  0  0999 V2000
   50.3060   25.1110    9.0520 C   0  0  0  0  0  0  0  0  0  0  0  0
   51.3430   25.7060    9.4470 O   0  0  0  0  0  0  0  0  0  0  0  0
   47.8780   24.8580    8.9010 N   0  0  0  0  0  0  0  0  0  0  0  0
   48.9630   25.5910    9.2450 C   0  0  0  0  0  0  0  0  0  0  0  0
   48.6900   26.8800    9.6820 C   0  0  0  0  0  0  0  0  0  0  0  0
   47.3710   27.3240    9.7940 C   0  0  0  0  0  0  0  0  0  0  0  0
   44.9760   26.9170    9.5120 C   0  0  0  0  0  0  0  0  0  0  0  0
   43.9390   26.0770    9.1660 C   0  0  0  0  0  0  0  0  0  0  0  0
   44.2400   24.8150    8.7260 C   0  0  0  0  0  0  0  0  0  0  0  0
   45.5720   24.4010    8.5860 C   0  0  0  0  0  0  0  0  0  0  0  0
   46.3170   26.4950    9.4140 C   0  0  0  0  0  0  0  0  0  0  0  0
   46.5990   25.2460    8.9670 C   0  0  0  0  0  0  0  0  0  0  0  0
   50.3850   23.9520    8.3540 N   0  0  0  0  0  0  0  0  0  0  0  0
   51.6110   23.2770    7.9600 C   0  0  0  0  0  0  0  0  0  0  0  0
   51.5490   23.1620    6.4610 C   0  0  0  0  0  0  0  0  0  0  0  0
   50.9440   22.2480    5.9090 O   0  0  0  0  0  0  0  0  0  0  0  0
   51.9010   21.9640    8.6910 C   0  0  0  0  0  0  0  0  0  0  0  0
   53.1100   21.2670    8.0860 C   0  0  0  0  0  0  0  0  0  0  0  0
   52.1190   22.2390   10.1900 C   0  0  0  0  0  0  0  0  0  0  0  0
   52.0990   24.1560    5.7720 N   0  0  0  0  0  0  0  0  0  0  0  0
   52.0770   24.1240    4.3100 C   0  0  0  0  0  0  0  0  0  0  0  0
   53.4760   23.8610    3.8000 C   0  0  0  0  0  0  0  0  0  0  0  0
   54.3140   25.0130    3.9610 O   0  0  0  0  0  0  0  0  0  0  0  0
   51.4160   25.4160    3.7840 C   0  0  0  0  0  0  0  0  0  0  0  0
   50.0830   25.6760    4.4390 C   0  0  0  0  0  0  0  0  0  0  0  0
   49.8930   26.7020    5.3640 C   0  0  0  0  0  0  0  0  0  0  0  0
   48.9840   24.8750    4.1350 C   0  0  0  0  0  0  0  0  0  0  0  0
   48.6470   26.9110    5.9710 C   0  0  0  0  0  0  0  0  0  0  0  0
   47.7280   25.0780    4.7250 C   0  0  0  0  0  0  0  0  0  0  0  0
   47.5730   26.0640    5.6970 C   0  0  0  0  0  0  0  0  0  0  0  0
   53.5850   23.4420    2.3560 C   0  0  0  0  0  0  0  0  0  0  0  0
   53.4340   22.0090    2.2870 N   0  0  0  0  0  0  0  0  0  0  0  0
   52.9690   21.5890    0.9340 C   0  0  0  0  0  0  0  0  0  0  0  0
   52.8120   20.0880    0.9100 C   0  0  0  0  0  0  0  0  0  0  0  0
   53.8300   19.2190    1.6500 C   0  0  0  0  0  0  0  0  0  0  0  0
   54.0890   19.7600    3.0150 C   0  0  0  0  0  0  0  0  0  0  0  0
   54.5560   21.1930    2.8130 C   0  0  0  0  0  0  0  0  0  0  0  0
   51.6990   22.2850    0.4860 C   0  0  0  0  0  0  0  0  0  0  0  0
   50.7620   22.3690    1.3240 O   0  0  0  0  0  0  0  0  0  0  0  0
   54.8030   15.2850   -1.5790 N   0  0  0  0  0  0  0  0  0  0  0  0
   54.1660   16.3480   -1.0320 C   0  0  0  0  0  0  0  0  0  0  0  0
   52.7850   16.2890   -0.7470 C   0  0  0  0  0  0  0  0  0  0  0  0
   52.0640   15.1290   -0.9970 C   0  0  0  0  0  0  0  0  0  0  0  0
   52.7490   14.0460   -1.5650 C   0  0  0  0  0  0  0  0  0  0  0  0
   54.1210   14.1720   -1.8590 C   0  0  0  0  0  0  0  0  0  0  0  0
   52.1960   17.4370   -0.0230 C   0  0  0  0  0  0  0  0  0  0  0  0
   53.1650   17.5350    1.5340 S   0  0  0  0  0  0  0  0  0  0  0  0
   51.7940   22.7030   -0.8470 N   0  0  0  0  0  0  0  0  0  0  0  0
   50.7680   23.3700   -1.5610 C   0  0  0  0  0  0  0  0  0  0  0  0
   51.2960   23.7250   -2.9430 C   0  0  0  0  0  0  0  0  0  0  0  0
   50.3780   24.6280   -0.8370 C   0  0  0  0  0  0  0  0  0  0  0  0
   49.5390   22.4760   -1.7710 C   0  0  0  0  0  0  0  0  0  0  0  0
   49.5181   27.5559    9.9417 H   0  0  0  0  0  0  0  0  0  0  0  0
   47.1630   28.3315   10.1835 H   0  0  0  0  0  0  0  0  0  0  0  0
   44.7531   27.9328    9.8703 H   0  0  0  0  0  0  0  0  0  0  0  0
   42.8941   26.4123    9.2415 H   0  0  0  0  0  0  0  0  0  0  0  0
   43.4259   24.1175    8.4794 H   0  0  0  0  0  0  0  0  0  0  0  0
   45.8000   23.4068    8.1742 H   0  0  0  0  0  0  0  0  0  0  0  0
   49.4968   23.5096    8.0778 H   0  0  0  0  0  0  0  0  0  0  0  0
   52.4849   23.8681    8.2714 H   0  0  0  0  0  0  0  0  0  0  0  0
   51.0359   21.2943    8.5772 H   0  0  0  0  0  0  0  0  0  0  0  0
   53.7588   20.8929    8.8917 H   0  0  0  0  0  0  0  0  0  0  0  0
   52.7742   20.4239    7.4644 H   0  0  0  0  0  0  0  0  0  0  0  0
   53.6713   21.9801    7.4644 H   0  0  0  0  0  0  0  0  0  0  0  0
   51.5436   21.5132   10.7834 H   0  0  0  0  0  0  0  0  0  0  0  0
   53.1884   22.1422   10.4288 H   0  0  0  0  0  0  0  0  0  0  0  0
   51.7807   23.2581   10.4288 H   0  0  0  0  0  0  0  0  0  0  0  0
   52.5390   24.9458    6.2654 H   0  0  0  0  0  0  0  0  0  0  0  0
   51.4605   23.2994    3.9228 H   0  0  0  0  0  0  0  0  0  0  0  0
   53.8020   23.0111    4.4175 H   0  0  0  0  0  0  0  0  0  0  0  0
   54.4452   25.1934    4.9255 H   0  0  0  0  0  0  0  0  0  0  0  0
   52.0841   26.2655    3.9890 H   0  0  0  0  0  0  0  0  0  0  0  0
   51.2459   25.2950    2.7040 H   0  0  0  0  0  0  0  0  0  0  0  0
   50.7364   27.3594    5.6220 H   0  0  0  0  0  0  0  0  0  0  0  0
   49.1055   24.0574    3.4092 H   0  0  0  0  0  0  0  0  0  0  0  0
   48.5149   27.7503    6.6696 H   0  0  0  0  0  0  0  0  0  0  0  0
   46.8690   24.4614    4.4217 H   0  0  0  0  0  0  0  0  0  0  0  0
   46.6215   26.1726    6.2382 H   0  0  0  0  0  0  0  0  0  0  0  0
   52.7933   23.9281    1.7670 H   0  0  0  0  0  0  0  0  0  0  0  0
   54.5620   23.7400    1.9479 H   0  0  0  0  0  0  0  0  0  0  0  0
   53.7359   21.8978    0.2084 H   0  0  0  0  0  0  0  0  0  0  0  0
   51.8245   19.8614    1.3383 H   0  0  0  0  0  0  0  0  0  0  0  0
   52.9644   19.8261   -0.1474 H   0  0  0  0  0  0  0  0  0  0  0  0
   54.8411   19.2157    1.2169 H   0  0  0  0  0  0  0  0  0  0  0  0
   53.1681   19.7387    3.6162 H   0  0  0  0  0  0  0  0  0  0  0  0
   54.8406   19.1618    3.5509 H   0  0  0  0  0  0  0  0  0  0  0  0
   55.3894   21.2094    2.0952 H   0  0  0  0  0  0  0  0  0  0  0  0
   54.8922   21.6082    3.7745 H   0  0  0  0  0  0  0  0  0  0  0  0
   54.7301   17.2654   -0.8079 H   0  0  0  0  0  0  0  0  0  0  0  0
   50.9924   15.0622   -0.7576 H   0  0  0  0  0  0  0  0  0  0  0  0
   52.2198   13.1058   -1.7794 H   0  0  0  0  0  0  0  0  0  0  0  0
   54.6454   13.3291   -2.3329 H   0  0  0  0  0  0  0  0  0  0  0  0
   52.3026   18.3628   -0.6075 H   0  0  0  0  0  0  0  0  0  0  0  0
   51.1185   17.3116    0.1592 H   0  0  0  0  0  0  0  0  0  0  0  0
   52.6749   22.5114   -1.3453 H   0  0  0  0  0  0  0  0  0  0  0  0
   52.2050   24.3362   -2.8424 H   0  0  0  0  0  0  0  0  0  0  0  0
   51.5335   22.8024   -3.4929 H   0  0  0  0  0  0  0  0  0  0  0  0
   50.5312   24.2931   -3.4929 H   0  0  0  0  0  0  0  0  0  0  0  0
   50.4308   24.4577    0.2485 H   0  0  0  0  0  0  0  0  0  0  0  0
   51.0668   25.4395   -1.1148 H   0  0  0  0  0  0  0  0  0  0  0  0
   49.3510   24.9076   -1.1148 H   0  0  0  0  0  0  0  0  0  0  0  0
   49.1305   22.1788   -0.7939 H   0  0  0  0  0  0  0  0  0  0  0  0
   48.7743   23.0304   -2.3349 H   0  0  0  0  0  0  0  0  0  0  0  0
   49.8310   21.5778   -2.3349 H   0  0  0  0  0  0  0  0  0  0  0  0
  3  4  2  0
  3 12  1  0
  4  5  1  0
  4  1  1  0
  5  6  2  0
  6 11  1  0
  7  8  1  0
  7 11  2  0
  8  9  2  0
  9 10  1  0
 10 12  2  0
 11 12  1  0
  1  2  2  0
 13 14  1  0
 14 15  1  0
 14 17  1  0
 15 16  2  0
 17 18  1  0
 17 19  1  0
 20 21  1  0
 21 22  1  0
 21 24  1  0
 22 23  1  0
 22 31  1  0
 24 25  1  0
 25 26  2  0
 25 27  1  0
 26 28  1  0
 27 29  2  0
 28 30  2  0
 29 30  1  0
 32 33  1  0
 32 37  1  0
 33 34  1  0
 33 38  1  0
 34 35  1  0
 35 36  1  0
 36 37  1  0
 38 39  2  0
 38 48  1  0
 48 49  1  0
 49 50  1  0
 49 51  1  0
 49 52  1  0
 40 41  2  0
 40 45  1  0
 41 42  1  0
 42 43  2  0
 42 46  1  0
 43 44  1  0
 44 45  2  0
 46 47  1  0
  1 13  1  0
 15 20  1  0
 31 32  1  0
 35 47  1  0
  5 53  1  0
  6 54  1  0
  7 55  1  0
  8 56  1  0
  9 57  1  0
 10 58  1  0
 13 59  1  0
 14 60  1  0
 17 61  1  0
 18 62  1  0
 18 63  1  0
 18 64  1  0
 19 65  1  0
 19 66  1  0
 19 67  1  0
 20 68  1  0
 21 69  1  0
 22 70  1  0
 23 71  1  0
 24 72  1  0
 24 73  1  0
 26 74  1  0
 27 75  1  0
 28 76  1  0
 29 77  1  0
 30 78  1  0
 31 79  1  0
 31 80  1  0
 33 81  1  0
 34 82  1  0
 34 83  1  0
 35 84  1  0
 36 85  1  0
 36 86  1  0
 37 87  1  0
 37 88  1  0
 41 89  1  0
 43 90  1  0
 44 91  1  0
 45 92  1  0
 46 93  1  0
 46 94  1  0
 48 95  1  0
 50 96  1  0
 50 97  1  0
 50 98  1  0
 51 99  1  0
 51100  1  0
 51101  1  0
 52102  1  0
 52103  1  0
 52104  1  0
A    1
C
A    2
O1
A    3
N1
A    4
C2
A    5
C3
A    6
C4
A    7
C5
A    8
C6
A    9
C7
A   10
C8
A   11
C9
A   12
C10
A   13
N
A   14
CA
A   15
C1
A   16
O
A   17
CB
A   18
CG1
A   19
CG2
A   20
N2
A   21
CA1
A   22
CC
A   23
OXT
A   24
CB1
A   25
CG
A   26
CD1
A   27
CD2
A   28
CE1
A   29
CE2
A   30
CZ
A   31
CM
A   32
N11
A   33
C21
A   34
C31
A   35
C41
A   36
C51
A   37
C61
A   38
CD
A   39
O2
A   40
N12
A   41
C22
A   42
C32
A   43
C42
A   44
C52
A   45
C62
A   46
CE
A   47
S
A   48
N3
A   49
C1'
A   50
C2'
A   51
C3'
A   52
C4'
M  END
