1IDT_CB1_A_1219
     RDKit          3D

 26 27  0  0  0  0  0  0  0  0999 V2000
   -9.0570  -15.4660   51.4070 C   0  0  0  0  0  0  0  0  0  0  0  0
   -8.0120  -15.2240   50.4860 C   0  0  0  0  0  0  0  0  0  0  0  0
   -8.1580  -14.1430   49.5650 C   0  0  0  0  0  0  0  0  0  0  0  0
   -9.3070  -13.3280   49.6390 C   0  0  0  0  0  0  0  0  0  0  0  0
  -10.3460  -13.5920   50.5510 C   0  0  0  0  0  0  0  0  0  0  0  0
  -10.2100  -14.6480   51.4840 C   0  0  0  0  0  0  0  0  0  0  0  0
   -6.8860  -16.0310   50.5360 N   0  0  0  0  0  0  0  0  0  0  0  0
   -6.6170  -16.5610   51.5990 O   0  0  0  0  0  0  0  0  0  0  0  0
   -6.1940  -16.1450   49.5450 O   0  0  0  0  0  0  0  0  0  0  0  0
   -7.1260  -13.8370   48.4890 C   0  0  0  0  0  0  0  0  0  0  0  0
   -6.1680  -12.8990   48.7020 N   0  0  0  0  0  0  0  0  0  0  0  0
   -7.1890  -14.4560   47.4350 O   0  0  0  0  0  0  0  0  0  0  0  0
  -11.5340  -12.7980   50.5140 N   0  0  0  0  0  0  0  0  0  0  0  0
  -11.9710  -12.1740   49.2330 C   0  0  0  0  0  0  0  0  0  0  0  0
  -12.7460  -13.3300   49.8280 C   0  0  0  0  0  0  0  0  0  0  0  0
  -11.1530  -14.8770   52.4650 N   0  0  0  0  0  0  0  0  0  0  0  0
  -11.2120  -15.9890   52.9570 O   0  0  0  0  0  0  0  0  0  0  0  0
  -11.8620  -13.9510   52.8190 O   0  0  0  0  0  0  0  0  0  0  0  0
   -8.9709  -16.3235   52.0906 H   0  0  0  0  0  0  0  0  0  0  0  0
   -9.3933  -12.4625   48.9656 H   0  0  0  0  0  0  0  0  0  0  0  0
   -5.9046  -12.6411   49.6638 H   0  0  0  0  0  0  0  0  0  0  0  0
   -5.7046  -12.4453   47.9018 H   0  0  0  0  0  0  0  0  0  0  0  0
  -12.4037  -11.1627   49.2317 H   0  0  0  0  0  0  0  0  0  0  0  0
  -11.4961  -11.9699   48.2620 H   0  0  0  0  0  0  0  0  0  0  0  0
  -12.7179  -14.3187   49.3466 H   0  0  0  0  0  0  0  0  0  0  0  0
  -13.7937  -13.5021   50.1155 H   0  0  0  0  0  0  0  0  0  0  0  0
  1  2  2  0
  1  6  1  0
  2  3  1  0
  2  7  1  0
  3  4  2  0
  3 10  1  0
  4  5  1  0
  5  6  2  0
  5 13  1  0
  6 16  1  0
  7  8  2  0
  7  9  1  0
 10 11  1  0
 10 12  2  0
 13 14  1  0
 13 15  1  0
 14 15  1  0
 16 17  2  0
 16 18  1  0
  1 19  1  0
  4 20  1  0
 11 21  1  0
 11 22  1  0
 14 23  1  0
 14 24  1  0
 15 25  1  0
 15 26  1  0
M  CHG  4   7   1   9  -1  16   1  18  -1
A    1
C
A    2
C1
A    3
C2
A    4
C4
A    5
C5
A    6
C8
A    7
N
A    8
O1
A    9
O2
A   10
C3
A   11
N1
A   12
O
A   13
N6
A   14
C7
A   15
C9
A   16
N3
A   17
O3
A   18
O4
M  END
