1IEI_ZES_A_351
     RDKit          3D

 37 39  0  0  0  0  0  0  0  0999 V2000
   -8.6640   -2.4490   10.0590 C   0  0  0  0  0  0  0  0  0  0  0  0
   -8.2350   -1.2420   10.5960 C   0  0  0  0  0  0  0  0  0  0  0  0
   -7.2760   -0.4960    9.8800 C   0  0  0  0  0  0  0  0  0  0  0  0
   -6.8340   -0.8410    8.6170 C   0  0  0  0  0  0  0  0  0  0  0  0
   -7.2540   -2.0790    8.0930 C   0  0  0  0  0  0  0  0  0  0  0  0
   -8.1420   -2.8640    8.8220 C   0  0  0  0  0  0  0  0  0  0  0  0
   -6.5730    0.5810   10.5240 C   0  0  0  0  0  0  0  0  0  0  0  0
   -5.6750    1.3200    9.8660 N   0  0  0  0  0  0  0  0  0  0  0  0
   -5.4010    1.1220    8.5930 C   0  0  0  0  0  0  0  0  0  0  0  0
   -5.9800   -0.0110    7.9620 N   0  0  0  0  0  0  0  0  0  0  0  0
   -5.0500    2.4080   10.5430 C   0  0  0  0  0  0  0  0  0  0  0  0
   -3.9500    1.9390   11.5440 C   0  0  0  0  0  0  0  0  0  0  0  0
   -2.9690    2.8900   11.8880 C   0  0  0  0  0  0  0  0  0  0  0  0
   -1.9070    2.5800   12.5820 C   0  0  0  0  0  0  0  0  0  0  0  0
   -1.8340    1.3470   13.1080 C   0  0  0  0  0  0  0  0  0  0  0  0
   -2.7790    0.4030   12.9130 C   0  0  0  0  0  0  0  0  0  0  0  0
   -3.8590    0.6820   12.1000 C   0  0  0  0  0  0  0  0  0  0  0  0
   -8.6100   -4.3420    8.2130 Cl  0  0  0  0  0  0  0  0  0  0  0  0
   -5.4250   -0.3960    6.7230 C   0  0  0  0  0  0  0  0  0  0  0  0
   -3.8920   -0.9470    6.9710 C   0  0  0  0  0  0  0  0  0  0  0  0
   -3.3890   -1.2230    8.0230 O   0  0  0  0  0  0  0  0  0  0  0  0
   -3.2520   -1.0640    5.7530 O   0  0  0  0  0  0  0  0  0  0  0  0
   -4.6300    1.8720    8.0210 O   0  0  0  0  0  0  0  0  0  0  0  0
   -6.8050    0.7940   11.6860 O   0  0  0  0  0  0  0  0  0  0  0  0
   -3.1650    4.2090   11.5120 F   0  0  0  0  0  0  0  0  0  0  0  0
   -0.2600    0.9920   14.0970 Br  0  0  0  0  0  0  0  0  0  0  0  0
   -9.3994   -3.0691   10.5926 H   0  0  0  0  0  0  0  0  0  0  0  0
   -8.6328   -0.8776   11.5546 H   0  0  0  0  0  0  0  0  0  0  0  0
   -6.8833   -2.4224    7.1159 H   0  0  0  0  0  0  0  0  0  0  0  0
   -4.5873    3.0691    9.7954 H   0  0  0  0  0  0  0  0  0  0  0  0
   -5.8261    2.9304   11.1216 H   0  0  0  0  0  0  0  0  0  0  0  0
   -1.0959    3.3080   12.7312 H   0  0  0  0  0  0  0  0  0  0  0  0
   -2.6891   -0.5803   13.3979 H   0  0  0  0  0  0  0  0  0  0  0  0
   -4.6272   -0.0798   11.9012 H   0  0  0  0  0  0  0  0  0  0  0  0
   -6.0364   -1.1943    6.2770 H   0  0  0  0  0  0  0  0  0  0  0  0
   -5.4045    0.4664    6.0405 H   0  0  0  0  0  0  0  0  0  0  0  0
   -2.2787   -1.2419    5.7203 H   0  0  0  0  0  0  0  0  0  0  0  0
  1  2  2  0
  1  6  1  0
  2  3  1  0
  3  4  2  0
  3  7  1  0
  4  5  1  0
  4 10  1  0
  5  6  2  0
  6 18  1  0
  7  8  1  0
  7 24  2  0
  8  9  1  0
  8 11  1  0
  9 10  1  0
  9 23  2  0
 10 19  1  0
 11 12  1  0
 12 13  2  0
 12 17  1  0
 13 14  1  0
 13 25  1  0
 14 15  2  0
 15 16  1  0
 15 26  1  0
 16 17  2  0
 19 20  1  0
 20 21  2  0
 20 22  1  0
  1 27  1  0
  2 28  1  0
  5 29  1  0
 11 30  1  0
 11 31  1  0
 14 32  1  0
 16 33  1  0
 17 34  1  0
 19 35  1  0
 19 36  1  0
 22 37  1  0
A    1
C1
A    2
C2
A    3
C3
A    4
C4
A    5
C5
A    6
C6
A    7
C10
A    8
N11
A    9
C12
A   10
N13
A   11
C14
A   12
C15
A   13
C18
A   14
C19
A   15
C20
A   16
C21
A   17
C22
A   18
CL6
A   19
C27
A   20
C28
A   21
O31
A   22
O32
A   23
O33
A   24
O34
A   25
F35
A   26
BR3
M  END
