1IF7_SBR_A_555
     RDKit          3D

 47 49  0  0  0  0  0  0  0  0999 V2000
   -1.4150    7.5700   12.4240 C   0  0  0  0  0  0  0  0  0  0  0  0
   -2.4830    6.7100   13.1760 C   0  0  0  0  0  0  0  0  0  0  0  0
   -2.9290    5.5870   12.2330 C   0  0  0  0  0  0  0  0  0  0  0  0
   -3.1040    4.2970   13.0760 N   0  0  0  0  0  0  0  0  0  0  0  0
   -4.4140    4.2160   13.6600 C   0  0  0  0  0  0  0  0  0  0  0  0
   -5.2100    5.1280   13.4560 O   0  0  0  0  0  0  0  0  0  0  0  0
   -4.7370    3.1110   14.4160 C   0  0  0  0  0  0  0  0  0  0  0  0
   -3.8070    2.0420   14.6420 C   0  0  0  0  0  0  0  0  0  0  0  0
   -4.1770    0.8990   15.4200 C   0  0  0  0  0  0  0  0  0  0  0  0
   -5.5020    0.8150   15.9910 C   0  0  0  0  0  0  0  0  0  0  0  0
   -6.3960    1.8940   15.7530 C   0  0  0  0  0  0  0  0  0  0  0  0
   -6.0180    3.0150   14.9830 C   0  0  0  0  0  0  0  0  0  0  0  0
   -6.0080   -0.3710   16.8450 S   0  0  0  0  0  0  0  0  0  0  0  0
   -5.4510   -0.3090   18.1820 O   0  0  0  0  0  0  0  0  0  0  0  0
   -7.4220   -0.2950   16.9430 O   0  0  0  0  0  0  0  0  0  0  0  0
   -5.6630   -1.6830   16.2030 N   0  0  0  0  0  0  0  0  0  0  0  0
   -0.9680    8.6830   13.2440 N   0  0  0  0  0  0  0  0  0  0  0  0
   -0.0340    8.5850   14.2160 C   0  0  0  0  0  0  0  0  0  0  0  0
    0.1420    9.9250   14.8090 C   0  0  0  0  0  0  0  0  0  0  0  0
   -1.3740    9.9150   13.1760 C   0  0  0  0  0  0  0  0  0  0  0  0
   -2.3340   10.5280   12.3300 C   0  0  0  0  0  0  0  0  0  0  0  0
   -2.6030   11.9090   12.4500 C   0  0  0  0  0  0  0  0  0  0  0  0
   -1.9160   12.6800   13.4200 C   0  0  0  0  0  0  0  0  0  0  0  0
   -0.9570   12.0700   14.2680 C   0  0  0  0  0  0  0  0  0  0  0  0
   -0.6860   10.6870   14.1470 C   0  0  0  0  0  0  0  0  0  0  0  0
   -1.8740    6.1190   14.4700 C   0  0  0  0  0  0  0  0  0  0  0  0
   -0.5510    6.9352   12.1780 H   0  0  0  0  0  0  0  0  0  0  0  0
   -1.8723    7.9724   11.5081 H   0  0  0  0  0  0  0  0  0  0  0  0
   -3.3456    7.3301   13.4614 H   0  0  0  0  0  0  0  0  0  0  0  0
   -3.8842    5.8553   11.7579 H   0  0  0  0  0  0  0  0  0  0  0  0
   -2.1794    5.4297   11.4435 H   0  0  0  0  0  0  0  0  0  0  0  0
   -2.3703    3.5851   13.2018 H   0  0  0  0  0  0  0  0  0  0  0  0
   -2.7964    2.1017   14.2117 H   0  0  0  0  0  0  0  0  0  0  0  0
   -3.4542    0.0860   15.5830 H   0  0  0  0  0  0  0  0  0  0  0  0
   -7.4090    1.8545   16.1800 H   0  0  0  0  0  0  0  0  0  0  0  0
   -6.7407    3.8289   14.8241 H   0  0  0  0  0  0  0  0  0  0  0  0
   -5.4784   -2.3849   16.9339 H   0  0  0  0  0  0  0  0  0  0  0  0
   -6.4502   -1.9961   15.6173 H   0  0  0  0  0  0  0  0  0  0  0  0
    0.4997    7.6699   14.5122 H   0  0  0  0  0  0  0  0  0  0  0  0
    0.8190   10.2164   15.6256 H   0  0  0  0  0  0  0  0  0  0  0  0
   -2.8691    9.9270   11.5801 H   0  0  0  0  0  0  0  0  0  0  0  0
   -3.3445   12.3853   11.7917 H   0  0  0  0  0  0  0  0  0  0  0  0
   -2.1272   13.7553   13.5156 H   0  0  0  0  0  0  0  0  0  0  0  0
   -0.4244   12.6717   15.0192 H   0  0  0  0  0  0  0  0  0  0  0  0
   -2.3521    6.5829   15.3454 H   0  0  0  0  0  0  0  0  0  0  0  0
   -2.0440    5.0324   14.4922 H   0  0  0  0  0  0  0  0  0  0  0  0
   -0.7930    6.3215   14.4922 H   0  0  0  0  0  0  0  0  0  0  0  0
  1  2  1  0
  1 17  1  0
  2  3  1  0
  2 26  1  0
  3  4  1  0
  4  5  1  0
  5  6  2  0
  5  7  1  0
  7  8  2  0
  7 12  1  0
  8  9  1  0
  9 10  2  0
 10 11  1  0
 10 13  1  0
 11 12  2  0
 13 14  2  0
 13 15  2  0
 13 16  1  0
 17 18  1  0
 17 20  1  0
 18 19  2  0
 19 25  1  0
 20 21  2  0
 20 25  1  0
 21 22  1  0
 22 23  2  0
 23 24  1  0
 24 25  2  0
  1 27  1  0
  1 28  1  0
  2 29  1  0
  3 30  1  0
  3 31  1  0
  4 32  1  0
  8 33  1  0
  9 34  1  0
 11 35  1  0
 12 36  1  0
 16 37  1  0
 16 38  1  0
 18 39  1  0
 19 40  1  0
 21 41  1  0
 22 42  1  0
 23 43  1  0
 24 44  1  0
 26 45  1  0
 26 46  1  0
 26 47  1  0
A    1
C01
A    2
C02
A    3
C03
A    4
N04
A    5
C05
A    6
O06
A    7
C07
A    8
C08
A    9
C09
A   10
C10
A   11
C11
A   12
C12
A   13
S13
A   14
O14
A   15
O15
A   16
NP6
A   17
N17
A   18
C18
A   19
C19
A   20
C20
A   21
C21
A   22
C22
A   23
C23
A   24
C24
A   25
C25
A   26
C26
M  END
