1IGZ_EIC_A_700
     RDKit          3D

 52 51  0  0  0  0  0  0  0  0999 V2000
  253.4490  111.1400  -37.7210 C   0  0  0  0  0  0  0  0  0  0  0  0
  253.7300  109.6940  -38.1070 C   0  0  0  0  0  0  0  0  0  0  0  0
  253.0290  109.3020  -39.4100 C   0  0  0  0  0  0  0  0  0  0  0  0
  252.7220  107.8170  -39.4680 C   0  0  0  0  0  0  0  0  0  0  0  0
  251.8360  107.5020  -40.6510 C   0  0  0  0  0  0  0  0  0  0  0  0
  251.0510  106.2370  -40.4010 C   0  0  0  0  0  0  0  0  0  0  0  0
  250.0950  106.3830  -39.2230 C   0  0  0  0  0  0  0  0  0  0  0  0
  250.0590  105.0820  -38.4490 C   0  0  0  0  0  0  0  0  0  0  0  0
  250.0580  103.7700  -39.2050 C   0  0  0  0  0  0  0  0  0  0  0  0
  249.8990  102.5500  -38.5710 C   0  0  0  0  0  0  0  0  0  0  0  0
  249.7160  102.4510  -37.0820 C   0  0  0  0  0  0  0  0  0  0  0  0
  250.5160  101.3830  -36.3110 C   0  0  0  0  0  0  0  0  0  0  0  0
  250.1700  101.0500  -35.0190 C   0  0  0  0  0  0  0  0  0  0  0  0
  249.0160  101.7250  -34.3590 C   0  0  0  0  0  0  0  0  0  0  0  0
  248.2980  101.0810  -33.2100 C   0  0  0  0  0  0  0  0  0  0  0  0
  249.1500  101.0250  -31.9610 C   0  0  0  0  0  0  0  0  0  0  0  0
  248.3550  100.3840  -30.8270 C   0  0  0  0  0  0  0  0  0  0  0  0
  246.9780  101.0660  -30.6300 C   0  0  0  0  0  0  0  0  0  0  0  0
  253.5800  112.0220  -38.6000 O   0  0  0  0  0  0  0  0  0  0  0  0
  253.0930  111.3890  -36.5460 O   0  0  0  0  0  0  0  0  0  0  0  0
  254.8149  109.5649  -38.2346 H   0  0  0  0  0  0  0  0  0  0  0  0
  253.3439  109.0471  -37.3054 H   0  0  0  0  0  0  0  0  0  0  0  0
  252.0858  109.8626  -39.4880 H   0  0  0  0  0  0  0  0  0  0  0  0
  253.7052  109.5412  -40.2440 H   0  0  0  0  0  0  0  0  0  0  0  0
  253.6639  107.2567  -39.5626 H   0  0  0  0  0  0  0  0  0  0  0  0
  252.1975  107.5274  -38.5455 H   0  0  0  0  0  0  0  0  0  0  0  0
  251.1371  108.3360  -40.8121 H   0  0  0  0  0  0  0  0  0  0  0  0
  252.4672  107.3593  -41.5405 H   0  0  0  0  0  0  0  0  0  0  0  0
  250.4693  105.9957  -41.3029 H   0  0  0  0  0  0  0  0  0  0  0  0
  251.7651  105.4350  -40.1623 H   0  0  0  0  0  0  0  0  0  0  0  0
  250.4423  107.1933  -38.5652 H   0  0  0  0  0  0  0  0  0  0  0  0
  249.0867  106.6224  -39.5918 H   0  0  0  0  0  0  0  0  0  0  0  0
  250.9423  105.0740  -37.7935 H   0  0  0  0  0  0  0  0  0  0  0  0
  249.0759  105.0993  -37.9558 H   0  0  0  0  0  0  0  0  0  0  0  0
  250.1883  103.7871  -40.2971 H   0  0  0  0  0  0  0  0  0  0  0  0
  249.9067  101.6289  -39.1722 H   0  0  0  0  0  0  0  0  0  0  0  0
  249.9858  103.4287  -36.6562 H   0  0  0  0  0  0  0  0  0  0  0  0
  248.6675  102.1414  -36.9601 H   0  0  0  0  0  0  0  0  0  0  0  0
  251.3683  100.8834  -36.7947 H   0  0  0  0  0  0  0  0  0  0  0  0
  250.7452  100.2864  -34.4749 H   0  0  0  0  0  0  0  0  0  0  0  0
  249.3880  102.6930  -33.9922 H   0  0  0  0  0  0  0  0  0  0  0  0
  248.2522  101.7274  -35.1506 H   0  0  0  0  0  0  0  0  0  0  0  0
  247.3881  101.6595  -32.9922 H   0  0  0  0  0  0  0  0  0  0  0  0
  248.0565  100.0477  -33.4999 H   0  0  0  0  0  0  0  0  0  0  0  0
  250.0517  100.4270  -32.1595 H   0  0  0  0  0  0  0  0  0  0  0  0
  249.4412  102.0455  -31.6715 H   0  0  0  0  0  0  0  0  0  0  0  0
  248.1953   99.3211  -31.0611 H   0  0  0  0  0  0  0  0  0  0  0  0
  248.9306  100.5029  -29.8972 H   0  0  0  0  0  0  0  0  0  0  0  0
  246.7703  101.1689  -29.5547 H   0  0  0  0  0  0  0  0  0  0  0  0
  246.9916  102.0615  -31.0977 H   0  0  0  0  0  0  0  0  0  0  0  0
  246.1944  100.4518  -31.0977 H   0  0  0  0  0  0  0  0  0  0  0  0
  253.6113  111.0265  -35.7844 H   0  0  0  0  0  0  0  0  0  0  0  0
  1  2  1  0
  1 19  2  0
  1 20  1  0
  2  3  1  0
  3  4  1  0
  4  5  1  0
  5  6  1  0
  6  7  1  0
  7  8  1  0
  8  9  1  0
  9 10  2  0
 10 11  1  0
 11 12  1  0
 12 13  2  0
 13 14  1  0
 14 15  1  0
 15 16  1  0
 16 17  1  0
 17 18  1  0
  2 21  1  0
  2 22  1  0
  3 23  1  0
  3 24  1  0
  4 25  1  0
  4 26  1  0
  5 27  1  0
  5 28  1  0
  6 29  1  0
  6 30  1  0
  7 31  1  0
  7 32  1  0
  8 33  1  0
  8 34  1  0
  9 35  1  0
 10 36  1  0
 11 37  1  0
 11 38  1  0
 12 39  1  0
 13 40  1  0
 14 41  1  0
 14 42  1  0
 15 43  1  0
 15 44  1  0
 16 45  1  0
 16 46  1  0
 17 47  1  0
 17 48  1  0
 18 49  1  0
 18 50  1  0
 18 51  1  0
 20 52  1  0
A    1
C1
A    2
C2
A    3
C3
A    4
C4
A    5
C5
A    6
C6
A    7
C7
A    8
C8
A    9
C9
A   10
C10
A   11
C11
A   12
C12
A   13
C13
A   14
C14
A   15
C15
A   16
C16
A   17
C17
A   18
C18
A   19
O1
A   20
O2
M  END
