1IJR_CC0_A_150
     RDKit          3D

 81 83  0  0  0  0  0  0  0  0999 V2000
   69.0730   26.5080   34.2270 P   0  0  0  0  0  0  0  0  0  0  0  0
   68.7380   27.4620   35.3400 O   0  0  0  0  0  0  0  0  0  0  0  0
   69.8460   27.2460   33.1800 O   0  0  0  0  0  0  0  0  0  0  0  0
   69.8900   25.3630   34.7600 O   0  0  0  0  0  0  0  0  0  0  0  0
   59.6350   27.6920   33.5900 C   0  0  0  0  0  0  0  0  0  0  0  0
   60.9750   27.6510   33.0400 N   0  0  0  0  0  0  0  0  0  0  0  0
   63.3860   27.4740   33.2620 C   0  0  0  0  0  0  0  0  0  0  0  0
   62.0580   27.9400   33.7790 C   0  0  0  0  0  0  0  0  0  0  0  0
   62.0300   28.5790   34.8280 O   0  0  0  0  0  0  0  0  0  0  0  0
   64.3720   28.5450   33.3860 N   0  0  0  0  0  0  0  0  0  0  0  0
   63.7640   26.2010   34.0420 C   0  0  0  0  0  0  0  0  0  0  0  0
   65.1140   25.7390   33.4800 C   0  0  0  0  0  0  0  0  0  0  0  0
   66.3100   26.2430   34.0160 C   0  0  0  0  0  0  0  0  0  0  0  0
   65.1570   24.8140   32.4250 C   0  0  0  0  0  0  0  0  0  0  0  0
   67.5610   25.8410   33.5080 C   0  0  0  0  0  0  0  0  0  0  0  0
   66.3980   24.4060   31.9130 C   0  0  0  0  0  0  0  0  0  0  0  0
   67.6000   24.9100   32.4390 C   0  0  0  0  0  0  0  0  0  0  0  0
   68.8590   24.5050   31.9220 O   0  0  0  0  0  0  0  0  0  0  0  0
   58.5880   27.7530   32.4190 C   0  0  0  0  0  0  0  0  0  0  0  0
   64.7360   29.2730   32.3040 C   0  0  0  0  0  0  0  0  0  0  0  0
   65.7590   30.3510   32.4900 C   0  0  0  0  0  0  0  0  0  0  0  0
   64.2780   29.0970   31.1900 O   0  0  0  0  0  0  0  0  0  0  0  0
   57.8780   23.7910   37.4620 O   0  0  0  0  0  0  0  0  0  0  0  0
   59.3150   26.4940   34.5070 C   0  0  0  0  0  0  0  0  0  0  0  0
   59.9890   25.2960   34.7590 C   0  0  0  0  0  0  0  0  0  0  0  0
   59.5490   24.4050   35.7560 C   0  0  0  0  0  0  0  0  0  0  0  0
   58.3900   24.7090   36.5180 C   0  0  0  0  0  0  0  0  0  0  0  0
   57.7910   25.9790   36.3170 C   0  0  0  0  0  0  0  0  0  0  0  0
   58.1620   26.7780   35.2500 C   0  0  0  0  0  0  0  0  0  0  0  0
   56.5890   24.0310   38.0720 C   0  0  0  0  0  0  0  0  0  0  0  0
   55.5950   22.9110   37.7080 C   0  0  0  0  0  0  0  0  0  0  0  0
   54.1410   23.4810   37.8030 C   0  0  0  0  0  0  0  0  0  0  0  0
   53.1280   22.3830   37.4490 C   0  0  0  0  0  0  0  0  0  0  0  0
   53.4250   21.8200   36.0260 C   0  0  0  0  0  0  0  0  0  0  0  0
   54.8760   21.2970   35.8900 C   0  0  0  0  0  0  0  0  0  0  0  0
   55.8650   22.4220   36.2520 C   0  0  0  0  0  0  0  0  0  0  0  0
   60.3970   23.1620   36.0040 C   0  0  0  0  0  0  0  0  0  0  0  0
   59.9180   22.0260   36.5690 N   0  0  0  0  0  0  0  0  0  0  0  0
   61.5730   23.1920   35.6510 O   0  0  0  0  0  0  0  0  0  0  0  0
   68.7890   23.3300   31.0960 C   0  0  0  0  0  0  0  0  0  0  0  0
   68.8420   23.7080   29.6400 C   0  0  0  0  0  0  0  0  0  0  0  0
   69.4850   22.8610   28.8250 O   0  0  0  0  0  0  0  0  0  0  0  0
   68.3060   24.7440   29.2510 O   0  0  0  0  0  0  0  0  0  0  0  0
   68.8934   27.0195   36.2119 H   0  0  0  0  0  0  0  0  0  0  0  0
   69.8771   25.3810   35.7498 H   0  0  0  0  0  0  0  0  0  0  0  0
   59.5746   28.5954   34.2147 H   0  0  0  0  0  0  0  0  0  0  0  0
   61.1006   27.3920   32.0510 H   0  0  0  0  0  0  0  0  0  0  0  0
   63.3464   27.2255   32.1912 H   0  0  0  0  0  0  0  0  0  0  0  0
   64.7935   28.7478   34.3037 H   0  0  0  0  0  0  0  0  0  0  0  0
   63.8542   26.4243   35.1153 H   0  0  0  0  0  0  0  0  0  0  0  0
   62.9962   25.4210   33.9319 H   0  0  0  0  0  0  0  0  0  0  0  0
   66.2694   26.9635   34.8462 H   0  0  0  0  0  0  0  0  0  0  0  0
   64.2243   24.4118   32.0026 H   0  0  0  0  0  0  0  0  0  0  0  0
   66.4307   23.6803   31.0870 H   0  0  0  0  0  0  0  0  0  0  0  0
   57.5726   27.8122   32.8378 H   0  0  0  0  0  0  0  0  0  0  0  0
   58.7816   28.6414   31.7999 H   0  0  0  0  0  0  0  0  0  0  0  0
   58.6772   26.8481   31.7999 H   0  0  0  0  0  0  0  0  0  0  0  0
   65.9208   30.5215   33.5646 H   0  0  0  0  0  0  0  0  0  0  0  0
   66.7053   30.0434   32.0210 H   0  0  0  0  0  0  0  0  0  0  0  0
   65.4023   31.2799   32.0210 H   0  0  0  0  0  0  0  0  0  0  0  0
   60.8810   25.0443   34.1665 H   0  0  0  0  0  0  0  0  0  0  0  0
   57.0214   26.3333   37.0186 H   0  0  0  0  0  0  0  0  0  0  0  0
   57.5436   27.6473   34.9818 H   0  0  0  0  0  0  0  0  0  0  0  0
   56.7081   24.0665   39.1650 H   0  0  0  0  0  0  0  0  0  0  0  0
   56.1947   24.9877   37.6989 H   0  0  0  0  0  0  0  0  0  0  0  0
   55.7159   22.0651   38.4007 H   0  0  0  0  0  0  0  0  0  0  0  0
   53.9535   23.8343   38.8277 H   0  0  0  0  0  0  0  0  0  0  0  0
   54.0318   24.3173   37.0969 H   0  0  0  0  0  0  0  0  0  0  0  0
   53.2015   21.5689   38.1851 H   0  0  0  0  0  0  0  0  0  0  0  0
   52.1142   22.8097   37.4634 H   0  0  0  0  0  0  0  0  0  0  0  0
   52.7303   20.9920   35.8214 H   0  0  0  0  0  0  0  0  0  0  0  0
   53.2954   22.6416   35.3061 H   0  0  0  0  0  0  0  0  0  0  0  0
   55.0240   20.4458   36.5709 H   0  0  0  0  0  0  0  0  0  0  0  0
   55.0529   20.9734   34.8537 H   0  0  0  0  0  0  0  0  0  0  0  0
   55.7345   23.2621   35.5540 H   0  0  0  0  0  0  0  0  0  0  0  0
   56.8938   22.0393   36.1812 H   0  0  0  0  0  0  0  0  0  0  0  0
   59.8805   21.9370   37.5945 H   0  0  0  0  0  0  0  0  0  0  0  0
   59.5917   21.2522   35.9727 H   0  0  0  0  0  0  0  0  0  0  0  0
   69.6380   22.6711   31.3305 H   0  0  0  0  0  0  0  0  0  0  0  0
   67.8404   22.8099   31.2952 H   0  0  0  0  0  0  0  0  0  0  0  0
   67.9656   25.4020   29.9077 H   0  0  0  0  0  0  0  0  0  0  0  0
  1  2  1  0
  1  3  2  0
  1  4  1  0
  1 15  1  0
  5  6  1  0
  5 19  1  0
  5 24  1  0
  6  8  1  0
  7  8  1  0
  7 10  1  0
  7 11  1  0
  8  9  2  0
 10 20  1  0
 11 12  1  0
 12 13  2  0
 12 14  1  0
 13 15  1  0
 14 16  2  0
 15 17  2  0
 16 17  1  0
 17 18  1  0
 18 40  1  0
 20 21  1  0
 20 22  2  0
 23 27  1  0
 23 30  1  0
 24 25  2  0
 24 29  1  0
 25 26  1  0
 26 27  2  0
 26 37  1  0
 27 28  1  0
 28 29  2  0
 30 31  1  0
 31 32  1  0
 31 36  1  0
 32 33  1  0
 33 34  1  0
 34 35  1  0
 35 36  1  0
 37 38  1  0
 37 39  2  0
 40 41  1  0
 41 42  2  0
 41 43  1  0
  2 44  1  0
  4 45  1  0
  5 46  1  0
  6 47  1  0
  7 48  1  0
 10 49  1  0
 11 50  1  0
 11 51  1  0
 13 52  1  0
 14 53  1  0
 16 54  1  0
 19 55  1  0
 19 56  1  0
 19 57  1  0
 21 58  1  0
 21 59  1  0
 21 60  1  0
 25 61  1  0
 28 62  1  0
 29 63  1  0
 30 64  1  0
 30 65  1  0
 31 66  1  0
 32 67  1  0
 32 68  1  0
 33 69  1  0
 33 70  1  0
 34 71  1  0
 34 72  1  0
 35 73  1  0
 35 74  1  0
 36 75  1  0
 36 76  1  0
 38 77  1  0
 38 78  1  0
 40 79  1  0
 40 80  1  0
 43 81  1  0
A    1
P1
A    2
OR1
A    3
OR2
A    4
O10
A    5
C1
A    6
N1
A    7
C0
A    8
C3
A    9
O2
A   10
N2
A   11
C4
A   12
C5
A   13
C6
A   14
C7
A   15
C8
A   16
C9
A   17
C10
A   18
O3
A   19
C11
A   20
C12
A   21
C13
A   22
O4
A   23
O5
A   24
C14
A   25
C15
A   26
C16
A   27
C17
A   28
C18
A   29
C19
A   30
C20
A   31
C21
A   32
C22
A   33
C23
A   34
C24
A   35
C25
A   36
C26
A   37
C27
A   38
N3
A   39
O6
A   40
C28
A   41
C29
A   42
O7
A   43
O8
M  END
