1IKI_REY_A_400
     RDKit          3D

 42 41  0  0  0  0  0  0  0  0999 V2000
   20.2040  -16.1840   38.4200 C   0  0  0  0  0  0  0  0  0  0  0  0
   21.3270  -16.8820   37.6600 C   0  0  0  0  0  0  0  0  0  0  0  0
   19.5590  -15.1140   37.5760 C   0  0  0  0  0  0  0  0  0  0  0  0
   22.2530  -15.7680   37.1380 C   0  0  0  0  0  0  0  0  0  0  0  0
   18.1810  -14.7260   38.1420 C   0  0  0  0  0  0  0  0  0  0  0  0
   17.6640  -13.6920   37.4560 N   0  0  0  0  0  0  0  0  0  0  0  0
   17.6660  -15.2610   39.0930 O   0  0  0  0  0  0  0  0  0  0  0  0
   16.5270  -12.8390   37.7460 C   0  0  0  0  0  0  0  0  0  0  0  0
   15.5610  -13.1020   36.6150 C   0  0  0  0  0  0  0  0  0  0  0  0
   15.9470  -13.0860   39.1150 C   0  0  0  0  0  0  0  0  0  0  0  0
   15.3830  -12.2100   35.7540 O   0  0  0  0  0  0  0  0  0  0  0  0
   23.7130  -16.2400   36.8610 C   0  0  0  0  0  0  0  0  0  0  0  0
   24.4860  -16.5640   38.0170 N   0  0  0  0  0  0  0  0  0  0  0  0
   24.3910  -15.0540   36.1460 C   0  0  0  0  0  0  0  0  0  0  0  0
   24.8340  -17.8330   38.3220 C   0  0  0  0  0  0  0  0  0  0  0  0
   25.4460  -18.0100   39.6840 C   0  0  0  0  0  0  0  0  0  0  0  0
   24.6180  -18.7470   37.5610 O   0  0  0  0  0  0  0  0  0  0  0  0
   26.0650  -19.3480   39.7440 N   0  0  0  0  0  0  0  0  0  0  0  0
   24.1860  -14.9750   34.9530 O   0  0  0  0  0  0  0  0  0  0  0  0
   25.0720  -14.2630   36.7800 O   0  0  0  0  0  0  0  0  0  0  0  0
   14.9990  -14.2150   36.5590 O   0  0  0  0  0  0  0  0  0  0  0  0
   19.4434  -16.9278   38.6997 H   0  0  0  0  0  0  0  0  0  0  0  0
   20.6311  -15.7109   39.3165 H   0  0  0  0  0  0  0  0  0  0  0  0
   21.8810  -17.5542   38.3317 H   0  0  0  0  0  0  0  0  0  0  0  0
   20.9319  -17.4928   36.8349 H   0  0  0  0  0  0  0  0  0  0  0  0
   20.2069  -14.2251   37.5639 H   0  0  0  0  0  0  0  0  0  0  0  0
   19.4236  -15.5039   36.5564 H   0  0  0  0  0  0  0  0  0  0  0  0
   21.8311  -15.3777   36.2001 H   0  0  0  0  0  0  0  0  0  0  0  0
   22.3084  -15.0026   37.9261 H   0  0  0  0  0  0  0  0  0  0  0  0
   18.1566  -13.4684   36.5795 H   0  0  0  0  0  0  0  0  0  0  0  0
   16.8034  -11.7753   37.7924 H   0  0  0  0  0  0  0  0  0  0  0  0
   16.6726  -12.7770   39.8818 H   0  0  0  0  0  0  0  0  0  0  0  0
   15.0206  -12.5043   39.2312 H   0  0  0  0  0  0  0  0  0  0  0  0
   15.7245  -14.1570   39.2312 H   0  0  0  0  0  0  0  0  0  0  0  0
   15.1973  -11.2795   36.0364 H   0  0  0  0  0  0  0  0  0  0  0  0
   23.6636  -17.1741   36.2822 H   0  0  0  0  0  0  0  0  0  0  0  0
   24.7892  -15.8025   38.6408 H   0  0  0  0  0  0  0  0  0  0  0  0
   26.2118  -17.2382   39.8507 H   0  0  0  0  0  0  0  0  0  0  0  0
   24.6738  -17.9147   40.4615 H   0  0  0  0  0  0  0  0  0  0  0  0
   26.1925  -19.6235   40.7283 H   0  0  0  0  0  0  0  0  0  0  0  0
   25.4541  -20.0304   39.2728 H   0  0  0  0  0  0  0  0  0  0  0  0
   26.9806  -19.3242   39.2728 H   0  0  0  0  0  0  0  0  0  0  0  0
  1  2  1  0
  1  3  1  0
  2  4  1  0
  3  5  1  0
  4 12  1  0
  5  6  1  0
  5  7  2  0
  6  8  1  0
  8  9  1  0
  8 10  1  0
  9 11  1  0
  9 21  2  0
 12 13  1  0
 12 14  1  0
 13 15  1  0
 14 19  2  0
 14 20  1  0
 15 16  1  0
 15 17  2  0
 16 18  1  0
  1 22  1  0
  1 23  1  0
  2 24  1  0
  2 25  1  0
  3 26  1  0
  3 27  1  0
  4 28  1  0
  4 29  1  0
  6 30  1  0
  8 31  1  0
 10 32  1  0
 10 33  1  0
 10 34  1  0
 11 35  1  0
 12 36  1  0
 13 37  1  0
 16 38  1  0
 16 39  1  0
 18 40  1  0
 18 41  1  0
 18 42  1  0
M  CHG  2  18   1  20  -1
A    1
C1
A    2
C2
A    3
C3
A    4
C4
A    5
C5
A    6
N1
A    7
O1
A    8
C6
A    9
C7
A   10
C8
A   11
O2
A   12
C9
A   13
N3
A   14
C10
A   15
C11
A   16
C12
A   17
O3
A   18
N4
A   19
O4
A   20
O5
A   21
O6
M  END
