1IKY_MSD_A_2000
     RDKit          3D

 45 47  0  0  0  0  0  0  0  0999 V2000
   -6.7450  144.9320  173.0870 C   0  0  0  0  0  0  0  0  0  0  0  0
   -8.0380  144.4230  173.4340 C   0  0  0  0  0  0  0  0  0  0  0  0
   -8.6910  143.5870  172.5340 N   0  0  0  0  0  0  0  0  0  0  0  0
   -8.1540  143.2040  171.2900 C   0  0  0  0  0  0  0  0  0  0  0  0
   -6.8630  143.6820  170.9020 C   0  0  0  0  0  0  0  0  0  0  0  0
   -6.1610  144.5490  171.8060 C   0  0  0  0  0  0  0  0  0  0  0  0
   -8.9220  142.3440  170.4380 N   0  0  0  0  0  0  0  0  0  0  0  0
  -10.2420  142.0310  170.5760 C   0  0  0  0  0  0  0  0  0  0  0  0
  -10.8040  141.2360  169.7250 S   0  0  0  0  0  0  0  0  0  0  0  0
  -10.9120  142.5950  171.6400 N   0  0  0  0  0  0  0  0  0  0  0  0
  -12.2980  142.3220  171.8730 C   0  0  0  0  0  0  0  0  0  0  0  0
  -13.0660  143.3560  172.7010 C   0  0  0  0  0  0  0  0  0  0  0  0
  -13.0230  141.8170  173.0670 C   0  0  0  0  0  0  0  0  0  0  0  0
  -12.2260  141.4410  174.3570 C   0  0  0  0  0  0  0  0  0  0  0  0
  -12.4060  140.1020  174.8280 C   0  0  0  0  0  0  0  0  0  0  0  0
  -11.7190  139.6550  176.0280 C   0  0  0  0  0  0  0  0  0  0  0  0
  -10.8620  140.5310  176.7570 C   0  0  0  0  0  0  0  0  0  0  0  0
  -10.6430  141.8860  176.3210 C   0  0  0  0  0  0  0  0  0  0  0  0
  -11.3270  142.3570  175.1080 C   0  0  0  0  0  0  0  0  0  0  0  0
  -11.1430  143.6500  174.6600 O   0  0  0  0  0  0  0  0  0  0  0  0
   -9.7100  142.8040  177.1290 C   0  0  0  0  0  0  0  0  0  0  0  0
   -9.5340  143.9540  176.7340 O   0  0  0  0  0  0  0  0  0  0  0  0
   -8.9920  142.3540  178.3970 C   0  0  0  0  0  0  0  0  0  0  0  0
  -13.2240  139.2690  174.1470 O   0  0  0  0  0  0  0  0  0  0  0  0
   -5.9200  145.8590  173.9610 C   0  0  0  0  0  0  0  0  0  0  0  0
   -5.4110  146.6420  174.6890 N   0  0  0  0  0  0  0  0  0  0  0  0
  -12.9980  138.0490  173.9420 C   0  0  0  0  0  0  0  0  0  0  0  0
   -8.5057  144.6880  174.3937 H   0  0  0  0  0  0  0  0  0  0  0  0
   -6.4200  143.3933  169.9374 H   0  0  0  0  0  0  0  0  0  0  0  0
   -5.1673  144.9304  171.5284 H   0  0  0  0  0  0  0  0  0  0  0  0
   -8.4265  141.9196  169.6409 H   0  0  0  0  0  0  0  0  0  0  0  0
  -10.4063  143.2246  172.2794 H   0  0  0  0  0  0  0  0  0  0  0  0
  -12.2796  141.8748  170.8682 H   0  0  0  0  0  0  0  0  0  0  0  0
  -12.5262  144.0913  173.3158 H   0  0  0  0  0  0  0  0  0  0  0  0
  -13.8472  144.1065  172.5099 H   0  0  0  0  0  0  0  0  0  0  0  0
  -13.7539  141.0102  173.2246 H   0  0  0  0  0  0  0  0  0  0  0  0
  -11.8626  138.6228  176.3801 H   0  0  0  0  0  0  0  0  0  0  0  0
  -10.3608  140.1665  177.6658 H   0  0  0  0  0  0  0  0  0  0  0  0
  -11.0378  144.3890  175.3104 H   0  0  0  0  0  0  0  0  0  0  0  0
   -9.5500  142.7037  179.2781 H   0  0  0  0  0  0  0  0  0  0  0  0
   -8.9310  141.2558  178.4137 H   0  0  0  0  0  0  0  0  0  0  0  0
   -7.9771  142.7779  178.4137 H   0  0  0  0  0  0  0  0  0  0  0  0
  -12.9013  137.5271  174.9054 H   0  0  0  0  0  0  0  0  0  0  0  0
  -13.8306  137.6128  173.3706 H   0  0  0  0  0  0  0  0  0  0  0  0
  -12.0644  137.9400  173.3706 H   0  0  0  0  0  0  0  0  0  0  0  0
  1  2  2  0
  1  6  1  0
  1 25  1  0
  2  3  1  0
  3  4  2  0
  4  5  1  0
  4  7  1  0
  5  6  2  0
  7  8  1  0
  8  9  2  0
  8 10  1  0
 10 11  1  0
 11 12  1  0
 11 13  1  0
 12 13  1  0
 13 14  1  0
 14 15  2  0
 14 19  1  0
 15 16  1  0
 15 24  1  0
 16 17  2  0
 17 18  1  0
 18 19  2  0
 18 21  1  0
 19 20  1  0
 21 22  2  0
 21 23  1  0
 24 27  1  0
 25 26  3  0
  2 28  1  0
  5 29  1  0
  6 30  1  0
  7 31  1  0
 10 32  1  0
 11 33  1  0
 12 34  1  0
 12 35  1  0
 13 36  1  0
 16 37  1  0
 17 38  1  0
 20 39  1  0
 23 40  1  0
 23 41  1  0
 23 42  1  0
 27 43  1  0
 27 44  1  0
 27 45  1  0
A    1
C2
A    2
C3
A    3
N4
A    4
C5
A    5
C6
A    6
C7
A    7
N8
A    8
C9
A    9
S10
A   10
N11
A   11
C12
A   12
C13
A   13
C14
A   14
C15
A   15
C16
A   16
C18
A   17
C19
A   18
C20
A   19
C21
A   20
O22
A   21
C23
A   22
O24
A   23
C25
A   24
O41
A   25
C42
A   26
N43
A   27
C44
M  END
