1INH_ST6_A_471
     RDKit          3D

 32 32  0  0  0  0  0  0  0  0999 V2000
   49.1590   22.8940  -20.3130 C   0  0  0  0  0  0  0  0  0  0  0  0
   48.8090   24.0970  -20.3000 O   0  0  0  0  0  0  0  0  0  0  0  0
   50.1610   22.4630  -19.7150 O   0  0  0  0  0  0  0  0  0  0  0  0
   48.4220   22.0010  -21.0640 C   0  0  0  0  0  0  0  0  0  0  0  0
   48.0050   22.3500  -22.3260 C   0  0  0  0  0  0  0  0  0  0  0  0
   47.1900   21.5240  -23.0560 C   0  0  0  0  0  0  0  0  0  0  0  0
   46.7040   21.9540  -24.2500 N   0  0  0  0  0  0  0  0  0  0  0  0
   45.4800   22.4630  -24.2410 C   0  0  0  0  0  0  0  0  0  0  0  0
   44.6760   22.2600  -23.3220 O   0  0  0  0  0  0  0  0  0  0  0  0
   45.0710   23.3040  -25.3850 C   0  0  0  0  0  0  0  0  0  0  0  0
   43.9630   24.1370  -24.8820 N   0  0  0  0  0  0  0  0  0  0  0  0
   46.7520   20.3250  -22.5170 C   0  0  0  0  0  0  0  0  0  0  0  0
   45.8800   19.5340  -23.2300 N   0  0  0  0  0  0  0  0  0  0  0  0
   46.3100   18.6060  -24.0750 C   0  0  0  0  0  0  0  0  0  0  0  0
   47.5120   18.3860  -24.2480 O   0  0  0  0  0  0  0  0  0  0  0  0
   45.2900   17.7760  -24.8320 C   0  0  0  0  0  0  0  0  0  0  0  0
   47.1760   19.9470  -21.2600 C   0  0  0  0  0  0  0  0  0  0  0  0
   47.9950   20.7870  -20.5260 C   0  0  0  0  0  0  0  0  0  0  0  0
   50.1811   22.4544  -18.7252 H   0  0  0  0  0  0  0  0  0  0  0  0
   48.3305   23.3080  -22.7576 H   0  0  0  0  0  0  0  0  0  0  0  0
   47.2574   21.8879  -25.1162 H   0  0  0  0  0  0  0  0  0  0  0  0
   45.9079   23.9361  -25.7167 H   0  0  0  0  0  0  0  0  0  0  0  0
   44.7665   22.6973  -26.2506 H   0  0  0  0  0  0  0  0  0  0  0  0
   43.9698   24.1319  -23.8520 H   0  0  0  0  0  0  0  0  0  0  0  0
   44.0780   25.1027  -25.2213 H   0  0  0  0  0  0  0  0  0  0  0  0
   43.0673   23.7583  -25.2213 H   0  0  0  0  0  0  0  0  0  0  0  0
   44.8663   19.6661  -23.1041 H   0  0  0  0  0  0  0  0  0  0  0  0
   44.6422   17.2489  -24.1161 H   0  0  0  0  0  0  0  0  0  0  0  0
   44.6773   18.4354  -25.4643 H   0  0  0  0  0  0  0  0  0  0  0  0
   45.8111   17.0421  -25.4643 H   0  0  0  0  0  0  0  0  0  0  0  0
   46.8635   18.9789  -20.8415 H   0  0  0  0  0  0  0  0  0  0  0  0
   48.3108   20.4959  -19.5133 H   0  0  0  0  0  0  0  0  0  0  0  0
  1  2  2  0
  1  3  1  0
  1  4  1  0
  4  5  2  0
  4 18  1  0
  5  6  1  0
  6  7  1  0
  6 12  2  0
  7  8  1  0
  8  9  2  0
  8 10  1  0
 10 11  1  0
 12 13  1  0
 12 17  1  0
 13 14  1  0
 14 15  2  0
 14 16  1  0
 17 18  2  0
  3 19  1  0
  5 20  1  0
  7 21  1  0
 10 22  1  0
 10 23  1  0
 11 24  1  0
 11 25  1  0
 11 26  1  0
 13 27  1  0
 16 28  1  0
 16 29  1  0
 16 30  1  0
 17 31  1  0
 18 32  1  0
M  CHG  1  11   1
A    1
C'
A    2
O1'
A    3
O2'
A    4
C1
A    5
C2
A    6
C3
A    7
N3
A    8
C3'
A    9
O3
A   10
CM3
A   11
N3'
A   12
C4
A   13
N4
A   14
C4'
A   15
O4
A   16
CM4
A   17
C5
A   18
C6
M  END
