1IOV_POB_A_321
     RDKit          3D

 32 31  0  0  0  0  0  0  0  0999 V2000
   19.8820   11.0160   46.9830 C   0  0  0  0  0  0  0  0  0  0  0  0
   19.8070   12.1990   46.5750 O   0  0  0  0  0  0  0  0  0  0  0  0
   20.1490   10.7340   48.1640 O   0  0  0  0  0  0  0  0  0  0  0  0
   19.6050    9.9550   45.9420 C   0  0  0  0  0  0  0  0  0  0  0  0
   20.8620    9.7070   45.1420 C   0  0  0  0  0  0  0  0  0  0  0  0
   22.0510   10.6090   45.4590 C   0  0  0  0  0  0  0  0  0  0  0  0
   19.2890    8.7380   46.6270 O   0  0  0  0  0  0  0  0  0  0  0  0
   17.8510    8.2430   46.7380 P   0  0  0  0  0  0  0  0  0  0  0  0
   16.8430    9.1860   47.1100 O   0  0  0  0  0  0  0  0  0  0  0  0
   17.4230    7.8350   45.2790 O   0  0  0  0  0  0  0  0  0  0  0  0
   17.7940    6.5740   44.4210 P   0  0  0  0  0  0  0  0  0  0  0  0
   17.7470    6.6610   42.9610 O   0  0  0  0  0  0  0  0  0  0  0  0
   16.8980    5.4740   45.0620 O   0  0  0  0  0  0  0  0  0  0  0  0
   19.2580    6.3110   44.8440 O   0  0  0  0  0  0  0  0  0  0  0  0
   17.8300    7.0010   47.6680 C   0  0  0  0  0  0  0  0  0  0  0  0
   16.8600    5.9440   47.5910 N   0  0  0  0  0  0  0  0  0  0  0  0
   18.1150    7.3580   49.1140 C   0  0  0  0  0  0  0  0  0  0  0  0
   19.6953   11.2131   48.9020 H   0  0  0  0  0  0  0  0  0  0  0  0
   18.7846   10.2775   45.2841 H   0  0  0  0  0  0  0  0  0  0  0  0
   21.1730    8.6669   45.3194 H   0  0  0  0  0  0  0  0  0  0  0  0
   20.5950    9.9279   44.0980 H   0  0  0  0  0  0  0  0  0  0  0  0
   22.1651   10.6955   46.5496 H   0  0  0  0  0  0  0  0  0  0  0  0
   22.9654   10.1753   45.0280 H   0  0  0  0  0  0  0  0  0  0  0  0
   21.8798   11.6064   45.0280 H   0  0  0  0  0  0  0  0  0  0  0  0
   16.9508    5.5388   46.0485 H   0  0  0  0  0  0  0  0  0  0  0  0
   19.3191    6.3000   45.8321 H   0  0  0  0  0  0  0  0  0  0  0  0
   18.6490    6.4822   47.1483 H   0  0  0  0  0  0  0  0  0  0  0  0
   16.5930    5.6531   48.5423 H   0  0  0  0  0  0  0  0  0  0  0  0
   16.0262    6.2792   47.0877 H   0  0  0  0  0  0  0  0  0  0  0  0
   17.5669    6.6715   49.7760 H   0  0  0  0  0  0  0  0  0  0  0  0
   19.1943    7.2704   49.3074 H   0  0  0  0  0  0  0  0  0  0  0  0
   17.7905    8.3911   49.3074 H   0  0  0  0  0  0  0  0  0  0  0  0
  1  2  2  0
  1  3  1  0
  1  4  1  0
  4  5  1  0
  4  7  1  0
  5  6  1  0
  7  8  1  0
  8  9  2  0
  8 10  1  0
  8 15  1  0
 10 11  1  0
 11 12  2  0
 11 13  1  0
 11 14  1  0
 15 16  1  0
 15 17  1  0
  3 18  1  0
  4 19  1  0
  5 20  1  0
  5 21  1  0
  6 22  1  0
  6 23  1  0
  6 24  1  0
 13 25  1  0
 14 26  1  0
 15 27  1  0
 16 28  1  0
 16 29  1  0
 17 30  1  0
 17 31  1  0
 17 32  1  0
A    1
C1
A    2
O1
A    3
O2
A    4
C2
A    5
C3
A    6
C4
A    7
O2P
A    8
P1
A    9
O1P
A   10
O3P
A   11
P2
A   12
O4P
A   13
O5P
A   14
O6P
A   15
C1'
A   16
N1'
A   17
C2'
M  END
