1IQH_XMF_A_401
     RDKit          3D

 65 69  0  0  0  0  0  0  0  0999 V2000
    7.9570   25.1600    8.2000 C   0  0  0  0  0  0  0  0  0  0  0  0
    8.6190   23.9250    7.8330 C   0  0  0  0  0  0  0  0  0  0  0  0
    8.1170   24.5270   10.6970 C   0  0  0  0  0  0  0  0  0  0  0  0
    8.7910   23.2710   10.3010 C   0  0  0  0  0  0  0  0  0  0  0  0
    9.0300   22.9870    8.9120 C   0  0  0  0  0  0  0  0  0  0  0  0
    7.6850   25.5070    9.5910 C   0  0  0  0  0  0  0  0  0  0  0  0
    6.8600   26.5430   14.0820 Cl  0  0  0  0  0  0  0  0  0  0  0  0
    7.0120   26.7600    9.9780 C   0  0  0  0  0  0  0  0  0  0  0  0
    7.8420   24.8870   12.0860 C   0  0  0  0  0  0  0  0  0  0  0  0
    6.7750   27.0510   11.3490 C   0  0  0  0  0  0  0  0  0  0  0  0
    7.1800   26.1320   12.4170 C   0  0  0  0  0  0  0  0  0  0  0  0
    8.9160   23.5680    6.1530 S   0  0  0  0  0  0  0  0  0  0  0  0
    8.9340   24.8720    5.3310 O   0  0  0  0  0  0  0  0  0  0  0  0
    5.2780   22.2080    4.6160 C   0  0  0  0  0  0  0  0  0  0  0  0
    6.3010   23.1310    5.3660 C   0  0  0  0  0  0  0  0  0  0  0  0
    7.6760   22.5400    5.5110 N   0  0  0  0  0  0  0  0  0  0  0  0
    6.5150   20.1750    5.6050 C   0  0  0  0  0  0  0  0  0  0  0  0
    6.6260   18.9830    5.8990 O   0  0  0  0  0  0  0  0  0  0  0  0
    7.7010   21.1300    5.9810 C   0  0  0  0  0  0  0  0  0  0  0  0
    5.3590   20.7370    4.9510 N   0  0  0  0  0  0  0  0  0  0  0  0
   10.2660   22.8620    5.9810 O   0  0  0  0  0  0  0  0  0  0  0  0
    4.1880   19.8750    4.5680 C   0  0  0  0  0  0  0  0  0  0  0  0
   -0.5100   17.6300   11.1850 C   0  0  0  0  0  0  0  0  0  0  0  0
    1.5610   18.0010    7.8740 N   0  0  0  0  0  0  0  0  0  0  0  0
    0.5580   17.5180    8.8970 C   0  0  0  0  0  0  0  0  0  0  0  0
    0.4600   18.1260   10.2500 C   0  0  0  0  0  0  0  0  0  0  0  0
    1.6540   17.3500    6.4480 C   0  0  0  0  0  0  0  0  0  0  0  0
   -0.3850   16.4070    8.6140 C   0  0  0  0  0  0  0  0  0  0  0  0
    2.5260   19.1730    8.2190 C   0  0  0  0  0  0  0  0  0  0  0  0
    3.0650   19.4820    5.6110 C   0  0  0  0  0  0  0  0  0  0  0  0
    1.7960   20.3750    5.2760 C   0  0  0  0  0  0  0  0  0  0  0  0
    1.9800   21.7860    5.3490 O   0  0  0  0  0  0  0  0  0  0  0  0
    2.7270   17.9410    5.4340 C   0  0  0  0  0  0  0  0  0  0  0  0
   -1.3730   16.5910   10.8810 N   0  0  0  0  0  0  0  0  0  0  0  0
   -1.3160   15.9950    9.6310 C   0  0  0  0  0  0  0  0  0  0  0  0
    3.5620   19.6140    7.1180 C   0  0  0  0  0  0  0  0  0  0  0  0
    7.6501   25.8571    7.4064 H   0  0  0  0  0  0  0  0  0  0  0  0
    9.1099   22.5529   11.0708 H   0  0  0  0  0  0  0  0  0  0  0  0
    9.5322   22.0472    8.6387 H   0  0  0  0  0  0  0  0  0  0  0  0
    6.6921   27.4723    9.2032 H   0  0  0  0  0  0  0  0  0  0  0  0
    8.1423   24.2021   12.8927 H   0  0  0  0  0  0  0  0  0  0  0  0
    6.2733   27.9927   11.6163 H   0  0  0  0  0  0  0  0  0  0  0  0
    4.2641   22.5560    4.8627 H   0  0  0  0  0  0  0  0  0  0  0  0
    5.5277   22.2876    3.5477 H   0  0  0  0  0  0  0  0  0  0  0  0
    6.3885   24.0741    4.8067 H   0  0  0  0  0  0  0  0  0  0  0  0
    5.9099   23.2729    6.3843 H   0  0  0  0  0  0  0  0  0  0  0  0
    8.6190   20.6746    5.5812 H   0  0  0  0  0  0  0  0  0  0  0  0
    7.6278   21.2185    7.0750 H   0  0  0  0  0  0  0  0  0  0  0  0
    3.6766   20.3965    3.7455 H   0  0  0  0  0  0  0  0  0  0  0  0
    4.6681   18.9060    4.3665 H   0  0  0  0  0  0  0  0  0  0  0  0
   -0.5698   18.0932   12.1809 H   0  0  0  0  0  0  0  0  0  0  0  0
    1.1280   18.9526   10.5336 H   0  0  0  0  0  0  0  0  0  0  0  0
    1.8866   16.2840    6.5881 H   0  0  0  0  0  0  0  0  0  0  0  0
    0.6818   17.5649    5.9804 H   0  0  0  0  0  0  0  0  0  0  0  0
   -0.3722   15.9034    7.6361 H   0  0  0  0  0  0  0  0  0  0  0  0
    1.9063   20.0499    8.4575 H   0  0  0  0  0  0  0  0  0  0  0  0
    3.1432   18.7918    9.0459 H   0  0  0  0  0  0  0  0  0  0  0  0
    1.4755   20.1313    4.2523 H   0  0  0  0  0  0  0  0  0  0  0  0
    1.0552   20.1352    6.0530 H   0  0  0  0  0  0  0  0  0  0  0  0
    2.0164   22.0654    6.2981 H   0  0  0  0  0  0  0  0  0  0  0  0
    3.6606   17.3734    5.5610 H   0  0  0  0  0  0  0  0  0  0  0  0
    2.2794   17.8450    4.4338 H   0  0  0  0  0  0  0  0  0  0  0  0
   -2.0115   15.1727    9.4070 H   0  0  0  0  0  0  0  0  0  0  0  0
    3.8187   20.6683    7.2982 H   0  0  0  0  0  0  0  0  0  0  0  0
    4.4141   18.9251    7.2145 H   0  0  0  0  0  0  0  0  0  0  0  0
  1  2  2  0
  1  6  1  0
  2  5  1  0
  2 12  1  0
  3  4  1  0
  3  6  2  0
  3  9  1  0
  4  5  2  0
  6  8  1  0
  7 11  1  0
  8 10  2  0
  9 11  2  0
 10 11  1  0
 12 13  2  0
 12 16  1  0
 12 21  2  0
 14 15  1  0
 14 20  1  0
 15 16  1  0
 16 19  1  0
 17 18  2  0
 17 19  1  0
 17 20  1  0
 20 22  1  0
 22 30  1  0
 23 26  2  0
 23 34  1  0
 24 25  1  0
 24 27  1  0
 24 29  1  0
 25 26  1  0
 25 28  2  0
 27 33  1  0
 28 35  1  0
 29 36  1  0
 30 31  1  0
 30 33  1  0
 30 36  1  0
 31 32  1  0
 34 35  2  0
  1 37  1  0
  4 38  1  0
  5 39  1  0
  8 40  1  0
  9 41  1  0
 10 42  1  0
 14 43  1  0
 14 44  1  0
 15 45  1  0
 15 46  1  0
 19 47  1  0
 19 48  1  0
 22 49  1  0
 22 50  1  0
 23 51  1  0
 26 52  1  0
 27 53  1  0
 27 54  1  0
 28 55  1  0
 29 56  1  0
 29 57  1  0
 31 58  1  0
 31 59  1  0
 32 60  1  0
 33 61  1  0
 33 62  1  0
 35 63  1  0
 36 64  1  0
 36 65  1  0
A    1
C1
A    2
C2
A    3
C3
A    4
C4
A    5
C5
A    6
C6
A    7
CL7
A    8
C8
A    9
C9
A   10
C10
A   11
C11
A   12
S12
A   13
O13
A   14
C14
A   15
C15
A   16
N16
A   17
C17
A   18
O18
A   19
C19
A   20
N20
A   21
O21
A   22
C22
A   23
C23
A   24
N24
A   25
C25
A   26
C26
A   27
C27
A   28
C28
A   29
C29
A   30
C30
A   31
C31
A   32
O32
A   33
C33
A   34
N34
A   35
C35
A   36
C36
M  END
