1IQK_XMI_A_401
     RDKit          3D

 61 65  0  0  0  0  0  0  0  0999 V2000
    9.0970   23.7730    6.1530 S   0  0  0  0  0  0  0  0  0  0  0  0
    9.2570   25.0650    5.3140 O   0  0  0  0  0  0  0  0  0  0  0  0
    5.2950   22.9100    4.4790 C   0  0  0  0  0  0  0  0  0  0  0  0
    4.3620   23.5920    4.0420 O   0  0  0  0  0  0  0  0  0  0  0  0
    6.5580   23.6730    5.0370 C   0  0  0  0  0  0  0  0  0  0  0  0
    7.7240   22.8770    5.5350 N   0  0  0  0  0  0  0  0  0  0  0  0
    6.3790   20.7200    5.2920 C   0  0  0  0  0  0  0  0  0  0  0  0
    7.3550   21.5700    6.1740 C   0  0  0  0  0  0  0  0  0  0  0  0
    5.1950   21.4970    4.7510 N   0  0  0  0  0  0  0  0  0  0  0  0
   10.3630   22.9160    5.9750 O   0  0  0  0  0  0  0  0  0  0  0  0
    3.8980   20.7740    4.4790 C   0  0  0  0  0  0  0  0  0  0  0  0
   -0.9450   15.9340    9.3280 C   0  0  0  0  0  0  0  0  0  0  0  0
    1.3310   18.5650    7.5540 N   0  0  0  0  0  0  0  0  0  0  0  0
    0.4500   17.8860    8.5610 C   0  0  0  0  0  0  0  0  0  0  0  0
   -0.1050   16.5330    8.3290 C   0  0  0  0  0  0  0  0  0  0  0  0
    2.4770   19.4880    8.0100 C   0  0  0  0  0  0  0  0  0  0  0  0
    0.0870   18.5330    9.8440 C   0  0  0  0  0  0  0  0  0  0  0  0
    1.2150   18.2480    6.0460 C   0  0  0  0  0  0  0  0  0  0  0  0
    3.2780   19.8250    5.5490 C   0  0  0  0  0  0  0  0  0  0  0  0
    3.0810   20.4770    6.9640 C   0  0  0  0  0  0  0  0  0  0  0  0
   -1.2620   16.5670   10.5170 N   0  0  0  0  0  0  0  0  0  0  0  0
   -0.7590   17.8360   10.7720 C   0  0  0  0  0  0  0  0  0  0  0  0
    1.9200   19.2150    5.0330 C   0  0  0  0  0  0  0  0  0  0  0  0
    8.0090   25.3120    8.1980 C   0  0  0  0  0  0  0  0  0  0  0  0
    8.8220   24.1610    7.8310 C   0  0  0  0  0  0  0  0  0  0  0  0
    8.3300   24.7520   10.6940 C   0  0  0  0  0  0  0  0  0  0  0  0
    9.1550   23.5910   10.2940 C   0  0  0  0  0  0  0  0  0  0  0  0
    9.3850   23.3130    8.9090 C   0  0  0  0  0  0  0  0  0  0  0  0
    7.7370   25.6470    9.5930 C   0  0  0  0  0  0  0  0  0  0  0  0
    6.9230   26.5740   14.1350 Cl  0  0  0  0  0  0  0  0  0  0  0  0
    6.9120   26.8040    9.9930 C   0  0  0  0  0  0  0  0  0  0  0  0
    8.0510   25.0810   12.0880 C   0  0  0  0  0  0  0  0  0  0  0  0
    6.6760   27.0740   11.3810 C   0  0  0  0  0  0  0  0  0  0  0  0
    7.2390   26.2200   12.4460 C   0  0  0  0  0  0  0  0  0  0  0  0
    6.9298   24.3172    4.2266 H   0  0  0  0  0  0  0  0  0  0  0  0
    6.1827   24.1830    5.9364 H   0  0  0  0  0  0  0  0  0  0  0  0
    6.9461   20.3174    4.4397 H   0  0  0  0  0  0  0  0  0  0  0  0
    5.9702   19.9322    5.9418 H   0  0  0  0  0  0  0  0  0  0  0  0
    8.2737   20.9889    6.3423 H   0  0  0  0  0  0  0  0  0  0  0  0
    6.8379   21.7962    7.1181 H   0  0  0  0  0  0  0  0  0  0  0  0
    3.1444   21.5477    4.2704 H   0  0  0  0  0  0  0  0  0  0  0  0
    4.1669   20.0845    3.6651 H   0  0  0  0  0  0  0  0  0  0  0  0
   -1.3535   14.9301    9.1402 H   0  0  0  0  0  0  0  0  0  0  0  0
    0.1241   15.9913    7.3994 H   0  0  0  0  0  0  0  0  0  0  0  0
    2.0981   20.0902    8.8489 H   0  0  0  0  0  0  0  0  0  0  0  0
    3.3034   18.8026    8.2496 H   0  0  0  0  0  0  0  0  0  0  0  0
    0.4625   19.5388   10.0835 H   0  0  0  0  0  0  0  0  0  0  0  0
    1.6386   17.2450    5.8893 H   0  0  0  0  0  0  0  0  0  0  0  0
    0.1426   18.3540    5.8252 H   0  0  0  0  0  0  0  0  0  0  0  0
    4.0191   19.0246    5.6909 H   0  0  0  0  0  0  0  0  0  0  0  0
    2.4034   21.3376    6.8626 H   0  0  0  0  0  0  0  0  0  0  0  0
    4.0737   20.7784    7.3296 H   0  0  0  0  0  0  0  0  0  0  0  0
   -1.0186   18.3265   11.7217 H   0  0  0  0  0  0  0  0  0  0  0  0
    2.1243   18.6548    4.1086 H   0  0  0  0  0  0  0  0  0  0  0  0
    1.2347   20.0618    4.8803 H   0  0  0  0  0  0  0  0  0  0  0  0
    7.5886   25.9459    7.4033 H   0  0  0  0  0  0  0  0  0  0  0  0
    9.5933   22.9390   11.0639 H   0  0  0  0  0  0  0  0  0  0  0  0
    9.9991   22.4423    8.6356 H   0  0  0  0  0  0  0  0  0  0  0  0
    6.4775   27.4602    9.2245 H   0  0  0  0  0  0  0  0  0  0  0  0
    8.4687   24.4470   12.8840 H   0  0  0  0  0  0  0  0  0  0  0  0
    6.0589   27.9407   11.6602 H   0  0  0  0  0  0  0  0  0  0  0  0
  1  2  2  0
  1  6  1  0
  1 10  2  0
  1 25  1  0
  3  4  2  0
  3  5  1  0
  3  9  1  0
  5  6  1  0
  6  8  1  0
  7  8  1  0
  7  9  1  0
  9 11  1  0
 11 19  1  0
 12 15  2  0
 12 21  1  0
 13 14  1  0
 13 16  1  0
 13 18  1  0
 14 15  1  0
 14 17  2  0
 16 20  1  0
 17 22  1  0
 18 23  1  0
 19 20  1  0
 19 23  1  0
 21 22  2  0
 24 25  2  0
 24 29  1  0
 25 28  1  0
 26 27  1  0
 26 29  2  0
 26 32  1  0
 27 28  2  0
 29 31  1  0
 30 34  1  0
 31 33  2  0
 32 34  2  0
 33 34  1  0
  5 35  1  0
  5 36  1  0
  7 37  1  0
  7 38  1  0
  8 39  1  0
  8 40  1  0
 11 41  1  0
 11 42  1  0
 12 43  1  0
 15 44  1  0
 16 45  1  0
 16 46  1  0
 17 47  1  0
 18 48  1  0
 18 49  1  0
 19 50  1  0
 20 51  1  0
 20 52  1  0
 22 53  1  0
 23 54  1  0
 23 55  1  0
 24 56  1  0
 27 57  1  0
 28 58  1  0
 31 59  1  0
 32 60  1  0
 33 61  1  0
A    1
S1
A    2
O2
A    3
C3
A    4
O4
A    5
C5
A    6
N6
A    7
C7
A    8
C8
A    9
N9
A   10
O10
A   11
C11
A   12
C12
A   13
N13
A   14
C14
A   15
C15
A   16
C16
A   17
C17
A   18
C18
A   19
C19
A   20
C20
A   21
N21
A   22
C22
A   23
C23
A   24
C24
A   25
C25
A   26
C26
A   27
C27
A   28
C28
A   29
C29
A   30
CL30
A   31
C31
A   32
C32
A   33
C33
A   34
C34
M  END
