1IQL_XMJ_A_401
     RDKit          3D

 59 62  0  0  0  0  0  0  0  0999 V2000
    7.7490   24.5890    8.2840 C   0  0  0  0  0  0  0  0  0  0  0  0
    8.8770   23.9890    7.8470 C   0  0  0  0  0  0  0  0  0  0  0  0
    7.7510   24.2380   10.8730 C   0  0  0  0  0  0  0  0  0  0  0  0
    9.0830   23.5510    6.1830 S   0  0  0  0  0  0  0  0  0  0  0  0
    7.5830   25.1060    9.6860 C   0  0  0  0  0  0  0  0  0  0  0  0
    7.0520   26.7500   14.0000 Cl  0  0  0  0  0  0  0  0  0  0  0  0
    9.2840   24.8270    5.3410 O   0  0  0  0  0  0  0  0  0  0  0  0
    5.3410   22.5350    4.3950 C   0  0  0  0  0  0  0  0  0  0  0  0
    4.3940   23.1450    3.8770 O   0  0  0  0  0  0  0  0  0  0  0  0
    6.5650   23.3810    4.9480 C   0  0  0  0  0  0  0  0  0  0  0  0
    7.7200   22.6470    5.5650 N   0  0  0  0  0  0  0  0  0  0  0  0
    7.2510   26.5220    9.9100 C   0  0  0  0  0  0  0  0  0  0  0  0
    6.6070   20.4260    5.1840 C   0  0  0  0  0  0  0  0  0  0  0  0
    7.3830   21.3350    6.1810 C   0  0  0  0  0  0  0  0  0  0  0  0
    7.5880   24.7600   12.1910 C   0  0  0  0  0  0  0  0  0  0  0  0
    5.4170   21.0990    4.5310 N   0  0  0  0  0  0  0  0  0  0  0  0
    7.0910   27.0320   11.2460 C   0  0  0  0  0  0  0  0  0  0  0  0
    7.2560   26.1530   12.3950 C   0  0  0  0  0  0  0  0  0  0  0  0
   10.3230   22.6430    6.1100 O   0  0  0  0  0  0  0  0  0  0  0  0
    4.3280   20.2220    4.0360 C   0  0  0  0  0  0  0  0  0  0  0  0
   -1.0800   16.3150    8.9680 C   0  0  0  0  0  0  0  0  0  0  0  0
    1.6300   18.4600    7.2540 N   0  0  0  0  0  0  0  0  0  0  0  0
    0.7550   17.8790    8.2780 C   0  0  0  0  0  0  0  0  0  0  0  0
   -0.2430   16.8500    7.9290 C   0  0  0  0  0  0  0  0  0  0  0  0
    1.5030   17.9950    5.7890 C   0  0  0  0  0  0  0  0  0  0  0  0
    0.8320   18.3000    9.6910 C   0  0  0  0  0  0  0  0  0  0  0  0
    2.6720   19.5320    7.6190 C   0  0  0  0  0  0  0  0  0  0  0  0
    3.2360   19.8200    5.0570 C   0  0  0  0  0  0  0  0  0  0  0  0
    2.6180   18.4100    4.7720 C   0  0  0  0  0  0  0  0  0  0  0  0
   -0.9870   16.7300   10.2900 N   0  0  0  0  0  0  0  0  0  0  0  0
   -0.0560   17.6960   10.6440 C   0  0  0  0  0  0  0  0  0  0  0  0
    3.7520   19.9140    6.5370 C   0  0  0  0  0  0  0  0  0  0  0  0
    6.9114   24.7051    7.5805 H   0  0  0  0  0  0  0  0  0  0  0  0
    9.6834   23.7734    8.5634 H   0  0  0  0  0  0  0  0  0  0  0  0
    8.0049   23.1763   10.7374 H   0  0  0  0  0  0  0  0  0  0  0  0
    6.9637   23.9650    4.1054 H   0  0  0  0  0  0  0  0  0  0  0  0
    6.1386   23.9614    5.7794 H   0  0  0  0  0  0  0  0  0  0  0  0
    7.1242   27.1957    9.0497 H   0  0  0  0  0  0  0  0  0  0  0  0
    7.3021   20.1093    4.3924 H   0  0  0  0  0  0  0  0  0  0  0  0
    6.2129   19.5803    5.7666 H   0  0  0  0  0  0  0  0  0  0  0  0
    8.3134   20.8288    6.4780 H   0  0  0  0  0  0  0  0  0  0  0  0
    6.7426   21.5164    7.0568 H   0  0  0  0  0  0  0  0  0  0  0  0
    7.7160   24.0972   13.0595 H   0  0  0  0  0  0  0  0  0  0  0  0
    6.8425   28.0924   11.4002 H   0  0  0  0  0  0  0  0  0  0  0  0
    3.8308   20.7453    3.2059 H   0  0  0  0  0  0  0  0  0  0  0  0
    4.8220   19.2795    3.7574 H   0  0  0  0  0  0  0  0  0  0  0  0
   -1.8228   15.5472    8.7058 H   0  0  0  0  0  0  0  0  0  0  0  0
   -0.3448   16.4983    6.8917 H   0  0  0  0  0  0  0  0  0  0  0  0
    1.4668   16.8956    5.7997 H   0  0  0  0  0  0  0  0  0  0  0  0
    0.6013   18.5072    5.4222 H   0  0  0  0  0  0  0  0  0  0  0  0
    1.5575   19.0635   10.0083 H   0  0  0  0  0  0  0  0  0  0  0  0
    2.1217   20.4507    7.8701 H   0  0  0  0  0  0  0  0  0  0  0  0
    3.2519   19.0829    8.4388 H   0  0  0  0  0  0  0  0  0  0  0  0
    2.4275   20.5548    4.9293 H   0  0  0  0  0  0  0  0  0  0  0  0
    3.4237   17.6624    4.8156 H   0  0  0  0  0  0  0  0  0  0  0  0
    2.1458   18.4604    3.7798 H   0  0  0  0  0  0  0  0  0  0  0  0
    0.0041   18.0115   11.6961 H   0  0  0  0  0  0  0  0  0  0  0  0
    4.0784   20.9476    6.7243 H   0  0  0  0  0  0  0  0  0  0  0  0
    4.5710   19.1862    6.6348 H   0  0  0  0  0  0  0  0  0  0  0  0
  1  2  2  0
  1  5  1  0
  2  4  1  0
  3  5  2  0
  3 15  1  0
  4  7  2  0
  4 11  1  0
  4 19  2  0
  5 12  1  0
  6 18  1  0
  8  9  2  0
  8 10  1  0
  8 16  1  0
 10 11  1  0
 11 14  1  0
 12 17  2  0
 13 14  1  0
 13 16  1  0
 15 18  2  0
 16 20  1  0
 17 18  1  0
 20 28  1  0
 21 24  2  0
 21 30  1  0
 22 23  1  0
 22 25  1  0
 22 27  1  0
 23 24  1  0
 23 26  2  0
 25 29  1  0
 26 31  1  0
 27 32  1  0
 28 29  1  0
 28 32  1  0
 30 31  2  0
  1 33  1  0
  2 34  1  0
  3 35  1  0
 10 36  1  0
 10 37  1  0
 12 38  1  0
 13 39  1  0
 13 40  1  0
 14 41  1  0
 14 42  1  0
 15 43  1  0
 17 44  1  0
 20 45  1  0
 20 46  1  0
 21 47  1  0
 24 48  1  0
 25 49  1  0
 25 50  1  0
 26 51  1  0
 27 52  1  0
 27 53  1  0
 28 54  1  0
 29 55  1  0
 29 56  1  0
 31 57  1  0
 32 58  1  0
 32 59  1  0
A    1
C1
A    2
C2
A    3
C3
A    4
S4
A    5
C5
A    6
CL6
A    7
O7
A    8
C8
A    9
O9
A   10
C10
A   11
N11
A   12
C12
A   13
C13
A   14
C14
A   15
C15
A   16
N16
A   17
C17
A   18
C18
A   19
O19
A   20
C20
A   21
C21
A   22
N22
A   23
C23
A   24
C24
A   25
C25
A   26
C26
A   27
C27
A   28
C28
A   29
C29
A   30
N30
A   31
C31
A   32
C32
M  END
