1ISH_ENP_A_1001
     RDKit          3D

 66 70  0  0  0  0  0  0  0  0999 V2000
    9.2380    7.5940   85.8980 P   0  0  0  0  0  0  0  0  0  0  0  0
    8.8620    6.3600   85.1170 O   0  0  0  0  0  0  0  0  0  0  0  0
    8.4570    7.5360   87.1820 O   0  0  0  0  0  0  0  0  0  0  0  0
    8.8240    8.8960   85.0850 O   0  0  0  0  0  0  0  0  0  0  0  0
    9.3120    9.0540   83.6980 C   0  0  0  0  0  0  0  0  0  0  0  0
    9.3950   10.5180   83.1280 C   0  0  0  0  0  0  0  0  0  0  0  0
   10.5870   11.1930   83.6120 O   0  0  0  0  0  0  0  0  0  0  0  0
    9.4540   10.6190   81.5890 C   0  0  0  0  0  0  0  0  0  0  0  0
    8.5500   11.4740   81.1110 O   0  0  0  0  0  0  0  0  0  0  0  0
   10.9230   11.0310   81.2740 C   0  0  0  0  0  0  0  0  0  0  0  0
   11.0480   11.8370   80.0360 O   0  0  0  0  0  0  0  0  0  0  0  0
   11.4310   11.7480   82.5620 C   0  0  0  0  0  0  0  0  0  0  0  0
   12.8710   11.4530   82.8930 N   0  0  0  0  0  0  0  0  0  0  0  0
   13.7420   12.3640   83.5330 C   0  0  0  0  0  0  0  0  0  0  0  0
   15.0450   11.8980   83.7640 N   0  0  0  0  0  0  0  0  0  0  0  0
   14.8810   10.6830   83.2290 C   0  0  0  0  0  0  0  0  0  0  0  0
   15.9460    9.6900   83.1750 C   0  0  0  0  0  0  0  0  0  0  0  0
   17.1590    9.9880   83.6800 N   0  0  0  0  0  0  0  0  0  0  0  0
   15.6060    8.5150   82.6000 N   0  0  0  0  0  0  0  0  0  0  0  0
   14.3580    8.1420   82.0530 C   0  0  0  0  0  0  0  0  0  0  0  0
   13.3810    9.0570   82.1020 N   0  0  0  0  0  0  0  0  0  0  0  0
   13.6600   10.3160   82.6900 C   0  0  0  0  0  0  0  0  0  0  0  0
   10.8200    7.6040   86.1630 O   0  0  0  0  0  0  0  0  0  0  0  0
   12.1160    6.7680   85.7050 P   0  0  0  0  0  0  0  0  0  0  0  0
   12.1160    6.5580   84.2040 O   0  0  0  0  0  0  0  0  0  0  0  0
   12.1590    5.3970   86.3430 O   0  0  0  0  0  0  0  0  0  0  0  0
   13.4490    7.5890   86.0650 O   0  0  0  0  0  0  0  0  0  0  0  0
   14.5680    7.0200   86.8580 C   0  0  0  0  0  0  0  0  0  0  0  0
   15.9840    7.4070   86.2880 C   0  0  0  0  0  0  0  0  0  0  0  0
   16.1590    8.8370   86.1270 O   0  0  0  0  0  0  0  0  0  0  0  0
   17.2610    6.9510   87.0860 C   0  0  0  0  0  0  0  0  0  0  0  0
   18.1750    6.4910   86.2180 O   0  0  0  0  0  0  0  0  0  0  0  0
   17.6720    8.2800   87.8000 C   0  0  0  0  0  0  0  0  0  0  0  0
   18.9230    8.2640   88.2920 O   0  0  0  0  0  0  0  0  0  0  0  0
   17.4520    9.1660   86.6410 C   0  0  0  0  0  0  0  0  0  0  0  0
   10.5740   11.2500   78.6620 P   0  0  0  0  0  0  0  0  0  0  0  0
    9.0860   11.4710   78.5230 O   0  0  0  0  0  0  0  0  0  0  0  0
   11.2260   11.9450   77.5060 O   0  0  0  0  0  0  0  0  0  0  0  0
   10.8170    9.7690   78.5310 O   0  0  0  0  0  0  0  0  0  0  0  0
   17.7030    8.7530   83.3560 C   0  0  0  0  0  0  0  0  0  0  0  0
   16.7820    7.8680   82.7140 C   0  0  0  0  0  0  0  0  0  0  0  0
   17.6080   10.5850   86.5550 O   0  0  0  0  0  0  0  0  0  0  0  0
    8.6388    5.6276   85.7445 H   0  0  0  0  0  0  0  0  0  0  0  0
   10.3229    8.6229   83.6516 H   0  0  0  0  0  0  0  0  0  0  0  0
    8.5607    8.5485   83.0735 H   0  0  0  0  0  0  0  0  0  0  0  0
    8.4610   10.9822   83.4776 H   0  0  0  0  0  0  0  0  0  0  0  0
    9.1981    9.6695   81.0961 H   0  0  0  0  0  0  0  0  0  0  0  0
    8.0830   11.9157   81.8640 H   0  0  0  0  0  0  0  0  0  0  0  0
   11.5523   10.1581   81.0458 H   0  0  0  0  0  0  0  0  0  0  0  0
   11.3776   12.8401   82.4416 H   0  0  0  0  0  0  0  0  0  0  0  0
   13.4192   13.3726   83.8305 H   0  0  0  0  0  0  0  0  0  0  0  0
   14.1965    7.1488   81.6086 H   0  0  0  0  0  0  0  0  0  0  0  0
   13.0494    6.5123   83.8772 H   0  0  0  0  0  0  0  0  0  0  0  0
   14.4915    7.3928   87.8901 H   0  0  0  0  0  0  0  0  0  0  0  0
   14.4819    5.9244   86.8102 H   0  0  0  0  0  0  0  0  0  0  0  0
   15.9427    6.8451   85.3432 H   0  0  0  0  0  0  0  0  0  0  0  0
   17.1246    6.1296   87.8048 H   0  0  0  0  0  0  0  0  0  0  0  0
   18.9391    6.1064   86.7163 H   0  0  0  0  0  0  0  0  0  0  0  0
   17.1293    8.5534   88.7169 H   0  0  0  0  0  0  0  0  0  0  0  0
   18.8885    8.2644   89.2814 H   0  0  0  0  0  0  0  0  0  0  0  0
   18.3873    8.9321   86.1113 H   0  0  0  0  0  0  0  0  0  0  0  0
    8.6760   11.5319   79.4221 H   0  0  0  0  0  0  0  0  0  0  0  0
   11.8624   12.6233   77.8451 H   0  0  0  0  0  0  0  0  0  0  0  0
   18.7463    8.4804   83.5731 H   0  0  0  0  0  0  0  0  0  0  0  0
   16.9951    6.8437   82.3744 H   0  0  0  0  0  0  0  0  0  0  0  0
   17.6501   10.9682   87.4668 H   0  0  0  0  0  0  0  0  0  0  0  0
  1  2  1  0
  1  3  2  0
  1  4  1  0
  1 23  1  0
  4  5  1  0
  5  6  1  0
  6  7  1  0
  6  8  1  0
  7 12  1  0
  8  9  1  0
  8 10  1  0
 10 11  1  0
 10 12  1  0
 11 36  1  0
 12 13  1  0
 13 14  1  0
 13 22  1  0
 14 15  2  0
 15 16  1  0
 16 17  1  0
 16 22  2  0
 17 18  2  0
 17 19  1  0
 18 40  1  0
 19 20  1  0
 19 41  1  0
 20 21  2  0
 21 22  1  0
 23 24  1  0
 24 25  1  0
 24 26  2  0
 24 27  1  0
 27 28  1  0
 28 29  1  0
 29 30  1  0
 29 31  1  0
 30 35  1  0
 31 32  1  0
 31 33  1  0
 33 34  1  0
 33 35  1  0
 35 42  1  0
 36 37  1  0
 36 38  1  0
 36 39  2  0
 40 41  2  0
  2 43  1  0
  5 44  1  0
  5 45  1  0
  6 46  1  0
  8 47  1  0
  9 48  1  0
 10 49  1  0
 12 50  1  0
 14 51  1  0
 20 52  1  0
 25 53  1  0
 28 54  1  0
 28 55  1  0
 29 56  1  0
 31 57  1  0
 32 58  1  0
 33 59  1  0
 34 60  1  0
 35 61  1  0
 37 62  1  0
 38 63  1  0
 40 64  1  0
 41 65  1  0
 42 66  1  0
A    1
P1
A    2
O1
A    3
O2
A    4
O5'
A    5
C5'
A    6
C4'
A    7
O4'
A    8
C3'
A    9
O3'
A   10
C2'
A   11
O2'
A   12
C1'
A   13
N9
A   14
C8
A   15
N7
A   16
C5
A   17
C6
A   18
N6
A   19
N1
A   20
C2
A   21
N3
A   22
C4
A   23
O3
A   24
P2
A   25
O4
A   26
O5
A   27
O9'
A   28
C0'
A   29
C9'
A   30
O8'
A   31
C8'
A   32
O7'
A   33
C7'
A   34
O6'
A   35
C6'
A   36
P3
A   37
O7
A   38
O8
A   39
O9
A   40
C1
A   41
C9
A   42
O6
M  END
