1ISS_MCG_A_1001
     RDKit          3D

 26 26  0  0  0  0  0  0  0  0999 V2000
   83.9080   71.0120  107.2220 N   0  0  0  0  0  0  0  0  0  0  0  0
   83.1230   70.7010  106.0080 C   0  0  0  0  0  0  0  0  0  0  0  0
   82.9290   69.2090  105.8730 C   0  0  0  0  0  0  0  0  0  0  0  0
   83.8130   71.2460  104.7770 C   0  0  0  0  0  0  0  0  0  0  0  0
   84.3410   70.3700  103.7950 C   0  0  0  0  0  0  0  0  0  0  0  0
   83.9670   72.6420  104.6230 C   0  0  0  0  0  0  0  0  0  0  0  0
   85.0290   70.8950  102.6840 C   0  0  0  0  0  0  0  0  0  0  0  0
   84.6530   73.1570  103.5130 C   0  0  0  0  0  0  0  0  0  0  0  0
   85.1880   72.2870  102.5550 C   0  0  0  0  0  0  0  0  0  0  0  0
   85.9320   72.8250  101.4480 C   0  0  0  0  0  0  0  0  0  0  0  0
   85.3600   73.6430  100.7010 O   0  0  0  0  0  0  0  0  0  0  0  0
   87.1170   72.4530  101.2970 O   0  0  0  0  0  0  0  0  0  0  0  0
   81.8970   68.8000  105.2940 O   0  0  0  0  0  0  0  0  0  0  0  0
   83.8120   68.4580  106.3460 O   0  0  0  0  0  0  0  0  0  0  0  0
   81.6940   71.2940  106.1250 C   0  0  0  0  0  0  0  0  0  0  0  0
   83.3491   70.7906  108.0583 H   0  0  0  0  0  0  0  0  0  0  0  0
   84.7706   70.4492  107.2266 H   0  0  0  0  0  0  0  0  0  0  0  0
   84.2135   69.2825  103.9008 H   0  0  0  0  0  0  0  0  0  0  0  0
   83.5480   73.3266  105.3752 H   0  0  0  0  0  0  0  0  0  0  0  0
   85.4406   70.2192  101.9198 H   0  0  0  0  0  0  0  0  0  0  0  0
   84.7707   74.2443  103.3951 H   0  0  0  0  0  0  0  0  0  0  0  0
   84.8385   74.3888  101.0908 H   0  0  0  0  0  0  0  0  0  0  0  0
   83.9144   68.3709  107.3268 H   0  0  0  0  0  0  0  0  0  0  0  0
   81.4285   71.4042  107.1868 H   0  0  0  0  0  0  0  0  0  0  0  0
   81.6644   72.2787  105.6356 H   0  0  0  0  0  0  0  0  0  0  0  0
   80.9759   70.6196  105.6356 H   0  0  0  0  0  0  0  0  0  0  0  0
  1  2  1  0
  2  3  1  0
  2  4  1  0
  2 15  1  0
  3 13  2  0
  3 14  1  0
  4  5  2  0
  4  6  1  0
  5  7  1  0
  6  8  2  0
  7  9  2  0
  8  9  1  0
  9 10  1  0
 10 11  1  0
 10 12  2  0
  1 16  1  0
  1 17  1  0
  5 18  1  0
  6 19  1  0
  7 20  1  0
  8 21  1  0
 11 22  1  0
 14 23  1  0
 15 24  1  0
 15 25  1  0
 15 26  1  0
A    1
N
A    2
CA
A    3
C
A    4
CB
A    5
CG1
A    6
CG2
A    7
CD1
A    8
CD2
A    9
CE
A   10
CZ
A   11
OH2
A   12
OH1
A   13
O
A   14
OXT
A   15
CM
M  END
