1ITU_CIL_A_451
     RDKit          3D

 35 35  0  0  0  0  0  0  0  0999 V2000
  -11.9420   11.0220    5.0620 C   0  0  0  0  0  0  0  0  0  0  0  0
  -13.2540   11.1670    4.3510 C   0  0  0  0  0  0  0  0  0  0  0  0
  -12.8620   12.1610    5.3950 C   0  0  0  0  0  0  0  0  0  0  0  0
  -12.4550   13.5510    4.9650 C   0  0  0  0  0  0  0  0  0  0  0  0
  -13.5990   12.1240    6.7080 C   0  0  0  0  0  0  0  0  0  0  0  0
  -13.2650   11.5560    2.9470 C   0  0  0  0  0  0  0  0  0  0  0  0
  -14.4770   11.4920    2.2940 N   0  0  0  0  0  0  0  0  0  0  0  0
  -14.6450   11.8180    0.9850 C   0  0  0  0  0  0  0  0  0  0  0  0
  -15.5490   12.7340    0.6080 C   0  0  0  0  0  0  0  0  0  0  0  0
  -12.2450   11.9150    2.3750 O   0  0  0  0  0  0  0  0  0  0  0  0
  -13.8130   11.1530   -0.1070 C   0  0  0  0  0  0  0  0  0  0  0  0
  -13.4290   11.8060   -1.0820 O   0  0  0  0  0  0  0  0  0  0  0  0
  -13.5310    9.9710   -0.0250 O   0  0  0  0  0  0  0  0  0  0  0  0
  -16.4350   13.4680    1.5620 C   0  0  0  0  0  0  0  0  0  0  0  0
  -16.0630   14.9420    1.5210 C   0  0  0  0  0  0  0  0  0  0  0  0
  -17.1400   15.7690    2.2170 C   0  0  0  0  0  0  0  0  0  0  0  0
  -11.7937   10.2048    5.7832 H   0  0  0  0  0  0  0  0  0  0  0  0
  -10.8911   10.9347    4.7488 H   0  0  0  0  0  0  0  0  0  0  0  0
  -14.1287   10.5201    4.1889 H   0  0  0  0  0  0  0  0  0  0  0  0
  -12.2733   14.1716    5.8548 H   0  0  0  0  0  0  0  0  0  0  0  0
  -11.5357   13.4943    4.3635 H   0  0  0  0  0  0  0  0  0  0  0  0
  -13.2597   13.9991    4.3635 H   0  0  0  0  0  0  0  0  0  0  0  0
  -12.8755   12.1603    7.5358 H   0  0  0  0  0  0  0  0  0  0  0  0
  -14.2749   12.9893    6.7736 H   0  0  0  0  0  0  0  0  0  0  0  0
  -14.1849   11.1953    6.7736 H   0  0  0  0  0  0  0  0  0  0  0  0
  -15.3011   11.1799    2.8273 H   0  0  0  0  0  0  0  0  0  0  0  0
  -15.6439   12.9580   -0.4648 H   0  0  0  0  0  0  0  0  0  0  0  0
  -12.9319   12.6514   -0.9469 H   0  0  0  0  0  0  0  0  0  0  0  0
  -17.4867   13.3414    1.2655 H   0  0  0  0  0  0  0  0  0  0  0  0
  -16.3057   13.0725    2.5803 H   0  0  0  0  0  0  0  0  0  0  0  0
  -15.1012   15.0898    2.0340 H   0  0  0  0  0  0  0  0  0  0  0  0
  -15.9790   15.2653    0.4729 H   0  0  0  0  0  0  0  0  0  0  0  0
  -17.0236   15.6796    3.3072 H   0  0  0  0  0  0  0  0  0  0  0  0
  -17.0394   16.8241    1.9228 H   0  0  0  0  0  0  0  0  0  0  0  0
  -18.1334   15.3994    1.9228 H   0  0  0  0  0  0  0  0  0  0  0  0
  1  2  1  0
  1  3  1  0
  2  3  1  0
  2  6  1  0
  3  4  1  0
  3  5  1  0
  6  7  1  0
  6 10  2  0
  7  8  1  0
  8  9  2  0
  8 11  1  0
  9 14  1  0
 11 12  1  0
 11 13  2  0
 14 15  1  0
 15 16  1  0
  1 17  1  0
  1 18  1  0
  2 19  1  0
  4 20  1  0
  4 21  1  0
  4 22  1  0
  5 23  1  0
  5 24  1  0
  5 25  1  0
  7 26  1  0
  9 27  1  0
 12 28  1  0
 14 29  1  0
 14 30  1  0
 15 31  1  0
 15 32  1  0
 16 33  1  0
 16 34  1  0
 16 35  1  0
A    1
C1
A    2
C2
A    3
C3
A    4
C4
A    5
C5
A    6
C6
A    7
N7
A    8
C8
A    9
C9
A   10
O10
A   11
C11
A   12
O12
A   13
O13
A   14
C14
A   15
C15
A   16
C16
M  END
