1IUS_PAB_A_396
     RDKit          3D

 17 17  0  0  0  0  0  0  0  0999 V2000
   17.4110   96.9980   45.8070 C   0  0  0  0  0  0  0  0  0  0  0  0
   18.2170   97.7260   46.3340 O   0  0  0  0  0  0  0  0  0  0  0  0
   16.4650   97.5990   45.3020 O   0  0  0  0  0  0  0  0  0  0  0  0
   17.5430   95.5910   45.7760 C   0  0  0  0  0  0  0  0  0  0  0  0
   18.5590   94.8760   46.3490 C   0  0  0  0  0  0  0  0  0  0  0  0
   18.5890   93.4880   46.3430 C   0  0  0  0  0  0  0  0  0  0  0  0
   17.5660   92.7880   45.7410 C   0  0  0  0  0  0  0  0  0  0  0  0
   16.5580   93.4890   45.1630 C   0  0  0  0  0  0  0  0  0  0  0  0
   16.5510   94.8600   45.1830 C   0  0  0  0  0  0  0  0  0  0  0  0
   17.4780   91.4720   45.6820 N   0  0  0  0  0  0  0  0  0  0  0  0
   15.7868   98.0299   45.8803 H   0  0  0  0  0  0  0  0  0  0  0  0
   19.3829   95.4213   46.8325 H   0  0  0  0  0  0  0  0  0  0  0  0
   19.4241   92.9504   46.8158 H   0  0  0  0  0  0  0  0  0  0  0  0
   15.7349   92.9497   44.6715 H   0  0  0  0  0  0  0  0  0  0  0  0
   15.7158   95.3920   44.7039 H   0  0  0  0  0  0  0  0  0  0  0  0
   17.4410   90.9189   46.5501 H   0  0  0  0  0  0  0  0  0  0  0  0
   17.4463   90.9984   44.7679 H   0  0  0  0  0  0  0  0  0  0  0  0
  1  2  2  0
  1  3  1  0
  1  4  1  0
  4  5  2  0
  4  9  1  0
  5  6  1  0
  6  7  2  0
  7  8  1  0
  7 10  1  0
  8  9  2  0
  3 11  1  0
  5 12  1  0
  6 13  1  0
  8 14  1  0
  9 15  1  0
 10 16  1  0
 10 17  1  0
A    1
C1'
A    2
O1'
A    3
O2'
A    4
C1
A    5
C2
A    6
C3
A    7
C4
A    8
C5
A    9
C6
A   10
N4
M  END
