1IVC_ST2_A_471
     RDKit          3D

 25 25  0  0  0  0  0  0  0  0999 V2000
   49.5200   22.8930  -20.4860 C   0  0  0  0  0  0  0  0  0  0  0  0
   50.6240   22.5360  -20.0020 O   0  0  0  0  0  0  0  0  0  0  0  0
   48.9740   23.9900  -20.1850 O   0  0  0  0  0  0  0  0  0  0  0  0
   48.9080   22.0650  -21.4490 C   0  0  0  0  0  0  0  0  0  0  0  0
   47.5760   21.6720  -21.3290 C   0  0  0  0  0  0  0  0  0  0  0  0
   46.9480   20.8810  -22.3200 C   0  0  0  0  0  0  0  0  0  0  0  0
   45.6050   20.5600  -22.1930 N   0  0  0  0  0  0  0  0  0  0  0  0
   47.6840   20.4600  -23.4710 C   0  0  0  0  0  0  0  0  0  0  0  0
   47.0780   19.7080  -24.4980 N   0  0  0  0  0  0  0  0  0  0  0  0
   46.6160   18.5270  -24.0590 C   0  0  0  0  0  0  0  0  0  0  0  0
   47.3750   17.6680  -23.5990 O   0  0  0  0  0  0  0  0  0  0  0  0
   45.1360   18.1940  -24.1730 C   0  0  0  0  0  0  0  0  0  0  0  0
   49.0390   20.8530  -23.5860 C   0  0  0  0  0  0  0  0  0  0  0  0
   49.7960   20.4650  -24.6910 O   0  0  0  0  0  0  0  0  0  0  0  0
   49.6300   21.6470  -22.5760 C   0  0  0  0  0  0  0  0  0  0  0  0
   48.8509   24.2373  -19.2343 H   0  0  0  0  0  0  0  0  0  0  0  0
   47.0006   21.9835  -20.4448 H   0  0  0  0  0  0  0  0  0  0  0  0
   45.1857   20.4598  -21.2576 H   0  0  0  0  0  0  0  0  0  0  0  0
   45.0268   20.4218  -23.0341 H   0  0  0  0  0  0  0  0  0  0  0  0
   46.9989   20.0284  -25.4737 H   0  0  0  0  0  0  0  0  0  0  0  0
   44.7035   18.0967  -23.1663 H   0  0  0  0  0  0  0  0  0  0  0  0
   44.6200   18.9985  -24.7176 H   0  0  0  0  0  0  0  0  0  0  0  0
   45.0143   17.2460  -24.7176 H   0  0  0  0  0  0  0  0  0  0  0  0
   50.6693   20.0174  -24.5602 H   0  0  0  0  0  0  0  0  0  0  0  0
   50.6841   21.9446  -22.6772 H   0  0  0  0  0  0  0  0  0  0  0  0
  1  2  2  0
  1  3  1  0
  1  4  1  0
  4  5  2  0
  4 15  1  0
  5  6  1  0
  6  7  1  0
  6  8  2  0
  8  9  1  0
  8 13  1  0
  9 10  1  0
 10 11  2  0
 10 12  1  0
 13 14  1  0
 13 15  2  0
  3 16  1  0
  5 17  1  0
  7 18  1  0
  7 19  1  0
  9 20  1  0
 12 21  1  0
 12 22  1  0
 12 23  1  0
 14 24  1  0
 15 25  1  0
A    1
C'
A    2
O1'
A    3
O2'
A    4
C1
A    5
C2
A    6
C3
A    7
N3
A    8
C4
A    9
N4
A   10
C4'
A   11
O4'
A   12
CM4
A   13
C5
A   14
O5
A   15
C6
M  END
