1IVQ_0PX_A_100
     RDKit          3D

 95 97  0  0  0  0  0  0  0  0999 V2000
   -0.7050   23.8550   23.4910 O   0  0  0  0  0  0  0  0  0  0  0  0
   -1.4620   22.8670   23.4430 C   0  0  0  0  0  0  0  0  0  0  0  0
   -3.8310   21.8550   23.0180 N   0  0  0  0  0  0  0  0  0  0  0  0
   -2.9450   22.9890   23.3790 C   0  0  0  0  0  0  0  0  0  0  0  0
   -3.7730   24.1890   23.6930 C   0  0  0  0  0  0  0  0  0  0  0  0
   -4.7710   24.4830   22.8210 C   0  0  0  0  0  0  0  0  0  0  0  0
   -5.6350   23.3160   22.5610 C   0  0  0  0  0  0  0  0  0  0  0  0
   -6.9540   23.4930   22.1930 C   0  0  0  0  0  0  0  0  0  0  0  0
   -7.7800   22.4070   21.9680 C   0  0  0  0  0  0  0  0  0  0  0  0
   -7.2590   21.1300   22.0650 C   0  0  0  0  0  0  0  0  0  0  0  0
   -5.9240   20.9500   22.3910 C   0  0  0  0  0  0  0  0  0  0  0  0
   -5.1190   22.0330   22.6500 C   0  0  0  0  0  0  0  0  0  0  0  0
   -1.0370   21.6280   23.4590 N   0  0  0  0  0  0  0  0  0  0  0  0
    0.3770   21.1990   23.5220 C   0  0  0  0  0  0  0  0  0  0  0  0
    0.4870   20.1840   22.3630 C   0  0  0  0  0  0  0  0  0  0  0  0
    0.0270   19.0360   22.4640 O   0  0  0  0  0  0  0  0  0  0  0  0
    0.7170   20.6430   24.8890 C   0  0  0  0  0  0  0  0  0  0  0  0
    0.4710   21.6360   26.0090 C   0  0  0  0  0  0  0  0  0  0  0  0
    1.4060   22.3930   26.3260 O   0  0  0  0  0  0  0  0  0  0  0  0
   -0.7240   21.6370   26.6110 N   0  0  0  0  0  0  0  0  0  0  0  0
    1.0580   20.7520   21.3030 N   0  0  0  0  0  0  0  0  0  0  0  0
    1.2490   20.0590   20.0240 C   0  0  0  0  0  0  0  0  0  0  0  0
    0.5770   20.4900   18.8850 C   0  0  0  0  0  0  0  0  0  0  0  0
   -0.8830   20.8890   18.7500 C   0  0  0  0  0  0  0  0  0  0  0  0
   -1.2980   22.2280   19.3780 C   0  0  0  0  0  0  0  0  0  0  0  0
   -1.9630   19.8110   18.9230 C   0  0  0  0  0  0  0  0  0  0  0  0
   -2.7190   22.6890   19.0100 C   0  0  0  0  0  0  0  0  0  0  0  0
   -3.3410   20.3190   18.4440 C   0  0  0  0  0  0  0  0  0  0  0  0
   -3.7750   21.5810   19.2160 C   0  0  0  0  0  0  0  0  0  0  0  0
    2.6800   19.5110   19.8990 C   0  0  0  0  0  0  0  0  0  0  0  0
    3.5990   20.2980   20.2190 O   0  0  0  0  0  0  0  0  0  0  0  0
    2.6810   18.1850   20.6320 C   0  0  0  0  0  0  0  0  0  0  0  0
    3.7040   17.1610   20.0340 C   0  0  0  0  0  0  0  0  0  0  0  0
    4.3390   16.4100   21.2750 C   0  0  0  0  0  0  0  0  0  0  0  0
    5.7700   15.9210   21.2610 C   0  0  0  0  0  0  0  0  0  0  0  0
    3.4040   15.5400   22.0860 C   0  0  0  0  0  0  0  0  0  0  0  0
    2.9470   16.1580   19.1440 C   0  0  0  0  0  0  0  0  0  0  0  0
    1.9280   15.5520   19.5430 O   0  0  0  0  0  0  0  0  0  0  0  0
    3.4380   15.9240   17.9510 N   0  0  0  0  0  0  0  0  0  0  0  0
    2.8340   14.9600   17.0030 C   0  0  0  0  0  0  0  0  0  0  0  0
    1.8730   15.7200   16.0320 C   0  0  0  0  0  0  0  0  0  0  0  0
    2.5830   16.8560   15.2660 C   0  0  0  0  0  0  0  0  0  0  0  0
    0.8420   16.3720   16.9770 C   0  0  0  0  0  0  0  0  0  0  0  0
    1.2790   14.7730   14.9960 C   0  0  0  0  0  0  0  0  0  0  0  0
   -3.5847   24.8042   24.5852 H   0  0  0  0  0  0  0  0  0  0  0  0
   -4.9178   25.4725   22.3633 H   0  0  0  0  0  0  0  0  0  0  0  0
   -7.3531   24.5115   22.0773 H   0  0  0  0  0  0  0  0  0  0  0  0
   -8.8398   22.5575   21.7147 H   0  0  0  0  0  0  0  0  0  0  0  0
   -7.9037   20.2574   21.8835 H   0  0  0  0  0  0  0  0  0  0  0  0
   -5.5063   19.9337   22.4427 H   0  0  0  0  0  0  0  0  0  0  0  0
   -1.7511   20.8866   23.4246 H   0  0  0  0  0  0  0  0  0  0  0  0
    1.1081   22.0119   23.4006 H   0  0  0  0  0  0  0  0  0  0  0  0
    0.0986   19.7512   25.0687 H   0  0  0  0  0  0  0  0  0  0  0  0
    1.7908   20.4042   24.8901 H   0  0  0  0  0  0  0  0  0  0  0  0
   -0.7826   21.6370   27.6393 H   0  0  0  0  0  0  0  0  0  0  0  0
   -1.5853   21.6377   26.0461 H   0  0  0  0  0  0  0  0  0  0  0  0
    1.3818   21.7264   21.3848 H   0  0  0  0  0  0  0  0  0  0  0  0
    0.5924   19.1784   20.0828 H   0  0  0  0  0  0  0  0  0  0  0  0
    1.1385   21.3744   18.5496 H   0  0  0  0  0  0  0  0  0  0  0  0
    0.5355   19.5317   18.3466 H   0  0  0  0  0  0  0  0  0  0  0  0
   -0.8605   21.0544   17.6627 H   0  0  0  0  0  0  0  0  0  0  0  0
   -1.2414   22.1272   20.4719 H   0  0  0  0  0  0  0  0  0  0  0  0
   -0.6087   22.9879   18.9813 H   0  0  0  0  0  0  0  0  0  0  0  0
   -1.6829   18.9248   18.3346 H   0  0  0  0  0  0  0  0  0  0  0  0
   -2.0365   19.5598   19.9914 H   0  0  0  0  0  0  0  0  0  0  0  0
   -2.9844   23.5502   19.6408 H   0  0  0  0  0  0  0  0  0  0  0  0
   -2.7174   22.9533   17.9422 H   0  0  0  0  0  0  0  0  0  0  0  0
   -3.2814   20.5581   17.3720 H   0  0  0  0  0  0  0  0  0  0  0  0
   -4.0839   19.5287   18.6270 H   0  0  0  0  0  0  0  0  0  0  0  0
   -3.8584   21.3466   20.2875 H   0  0  0  0  0  0  0  0  0  0  0  0
   -4.7507   21.9257   18.8430 H   0  0  0  0  0  0  0  0  0  0  0  0
    2.9331   19.3687   18.8380 H   0  0  0  0  0  0  0  0  0  0  0  0
    3.6600   20.3503   21.2057 H   0  0  0  0  0  0  0  0  0  0  0  0
    2.9403   18.3661   21.6855 H   0  0  0  0  0  0  0  0  0  0  0  0
    1.6767   17.7486   20.5278 H   0  0  0  0  0  0  0  0  0  0  0  0
    4.4767   17.6511   19.4235 H   0  0  0  0  0  0  0  0  0  0  0  0
    4.4988   17.3408   21.8389 H   0  0  0  0  0  0  0  0  0  0  0  0
    6.1260   15.7993   22.2947 H   0  0  0  0  0  0  0  0  0  0  0  0
    5.8220   14.9541   20.7391 H   0  0  0  0  0  0  0  0  0  0  0  0
    6.4028   16.6539   20.7391 H   0  0  0  0  0  0  0  0  0  0  0  0
    3.5844   15.7079   23.1580 H   0  0  0  0  0  0  0  0  0  0  0  0
    2.3621   15.7973   21.8448 H   0  0  0  0  0  0  0  0  0  0  0  0
    3.5857   14.4823   21.8448 H   0  0  0  0  0  0  0  0  0  0  0  0
    4.2836   16.4347   17.6595 H   0  0  0  0  0  0  0  0  0  0  0  0
    3.6289   14.4687   16.4227 H   0  0  0  0  0  0  0  0  0  0  0  0
    2.2670   14.2010   17.5619 H   0  0  0  0  0  0  0  0  0  0  0  0
    3.0245   17.5625   15.9843 H   0  0  0  0  0  0  0  0  0  0  0  0
    3.3769   16.4316   14.6338 H   0  0  0  0  0  0  0  0  0  0  0  0
    1.8537   17.3837   14.6338 H   0  0  0  0  0  0  0  0  0  0  0  0
    1.1338   16.1875   18.0214 H   0  0  0  0  0  0  0  0  0  0  0  0
    0.8087   17.4558   16.7916 H   0  0  0  0  0  0  0  0  0  0  0  0
   -0.1514   15.9376   16.7916 H   0  0  0  0  0  0  0  0  0  0  0  0
    0.7615   13.9480   15.5074 H   0  0  0  0  0  0  0  0  0  0  0  0
    0.5625   15.3210   14.3664 H   0  0  0  0  0  0  0  0  0  0  0  0
    2.0842   14.3665   14.3664 H   0  0  0  0  0  0  0  0  0  0  0  0
  1  2  2  0
  2  4  1  0
  3  4  2  0
  3 12  1  0
  4  5  1  0
  5  6  2  0
  6  7  1  0
  7  8  1  0
  7 12  2  0
  8  9  2  0
  9 10  1  0
 10 11  2  0
 11 12  1  0
 13 14  1  0
 14 15  1  0
 14 17  1  0
 15 16  2  0
 17 18  1  0
 18 19  2  0
 18 20  1  0
 21 22  1  0
 22 23  1  0
 22 30  1  0
 23 24  1  0
 24 25  1  0
 24 26  1  0
 25 27  1  0
 26 28  1  0
 27 29  1  0
 28 29  1  0
 30 31  1  0
 30 32  1  0
 32 33  1  0
 33 34  1  0
 33 37  1  0
 34 35  1  0
 34 36  1  0
 37 38  2  0
 39 40  1  0
 40 41  1  0
 41 42  1  0
 41 43  1  0
 41 44  1  0
  2 13  1  0
 15 21  1  0
 37 39  1  0
  5 45  1  0
  6 46  1  0
  8 47  1  0
  9 48  1  0
 10 49  1  0
 11 50  1  0
 13 51  1  0
 14 52  1  0
 17 53  1  0
 17 54  1  0
 20 55  1  0
 20 56  1  0
 21 57  1  0
 22 58  1  0
 23 59  1  0
 23 60  1  0
 24 61  1  0
 25 62  1  0
 25 63  1  0
 26 64  1  0
 26 65  1  0
 27 66  1  0
 27 67  1  0
 28 68  1  0
 28 69  1  0
 29 70  1  0
 29 71  1  0
 30 72  1  0
 31 73  1  0
 32 74  1  0
 32 75  1  0
 33 76  1  0
 34 77  1  0
 35 78  1  0
 35 79  1  0
 35 80  1  0
 36 81  1  0
 36 82  1  0
 36 83  1  0
 39 84  1  0
 40 85  1  0
 40 86  1  0
 42 87  1  0
 42 88  1  0
 42 89  1  0
 43 90  1  0
 43 91  1  0
 43 92  1  0
 44 93  1  0
 44 94  1  0
 44 95  1  0
A    1
O
A    2
C
A    3
N1
A    4
C2
A    5
C3
A    6
C4
A    7
C4A
A    8
C5
A    9
C6
A   10
C7
A   11
C8
A   12
C8A
A   13
N
A   14
CA
A   15
C1
A   16
O1
A   17
CB
A   18
CG
A   19
OD1
A   20
ND2
A   21
N2
A   22
CA1
A   23
CB1
A   24
CG1
A   25
CD1
A   26
CD2
A   27
CE1
A   28
CE2
A   29
CZ
A   30
CH
A   31
OH
A   32
CB11
A   33
CA'
A   34
CB'
A   35
CG11
A   36
CG2
A   37
C9
A   38
O2
A   39
N3
A   40
C11
A   41
C21
A   42
C31
A   43
C41
A   44
C51
M  END
