1A0T_SUC_P_1
     RDKit          3D

 45 46  0  0  0  0  0  0  0  0999 V2000
  -44.9520  -14.6450  -14.2580 C   0  0  0  0  0  0  0  0  0  0  0  0
  -43.9740  -15.8130  -14.4360 C   0  0  0  0  0  0  0  0  0  0  0  0
  -44.3250  -16.9490  -13.4760 C   0  0  0  0  0  0  0  0  0  0  0  0
  -44.2860  -16.4420  -12.0850 C   0  0  0  0  0  0  0  0  0  0  0  0
  -45.2770  -15.3040  -11.9210 C   0  0  0  0  0  0  0  0  0  0  0  0
  -45.2450  -14.7580  -10.5290 C   0  0  0  0  0  0  0  0  0  0  0  0
  -46.2730  -15.0610  -14.6480 O   0  0  0  0  0  0  0  0  0  0  0  0
  -43.9850  -16.2330  -15.8010 O   0  0  0  0  0  0  0  0  0  0  0  0
  -43.3750  -17.9870  -13.6420 O   0  0  0  0  0  0  0  0  0  0  0  0
  -44.6130  -17.5380  -11.1870 O   0  0  0  0  0  0  0  0  0  0  0  0
  -44.9180  -14.2440  -12.8600 O   0  0  0  0  0  0  0  0  0  0  0  0
  -46.1150  -15.5190   -9.6790 O   0  0  0  0  0  0  0  0  0  0  0  0
  -47.2710  -13.5190  -16.2880 C   0  0  0  0  0  0  0  0  0  0  0  0
  -47.2900  -14.0250  -14.8500 C   0  0  0  0  0  0  0  0  0  0  0  0
  -48.6560  -14.5810  -14.3610 C   0  0  0  0  0  0  0  0  0  0  0  0
  -48.6700  -14.1750  -12.9030 C   0  0  0  0  0  0  0  0  0  0  0  0
  -48.0640  -12.7740  -13.0260 C   0  0  0  0  0  0  0  0  0  0  0  0
  -47.5100  -12.1450  -11.7790 C   0  0  0  0  0  0  0  0  0  0  0  0
  -48.4900  -12.8180  -16.5360 O   0  0  0  0  0  0  0  0  0  0  0  0
  -47.0210  -12.9340  -14.0020 O   0  0  0  0  0  0  0  0  0  0  0  0
  -48.8650  -15.9510  -14.6060 O   0  0  0  0  0  0  0  0  0  0  0  0
  -50.0050  -14.1820  -12.3880 O   0  0  0  0  0  0  0  0  0  0  0  0
  -47.9020  -12.8310  -10.6210 O   0  0  0  0  0  0  0  0  0  0  0  0
  -44.6686  -13.7908  -14.8905 H   0  0  0  0  0  0  0  0  0  0  0  0
  -42.9517  -15.4907  -14.1889 H   0  0  0  0  0  0  0  0  0  0  0  0
  -45.3338  -17.3335  -13.6871 H   0  0  0  0  0  0  0  0  0  0  0  0
  -43.2829  -16.0578  -11.8480 H   0  0  0  0  0  0  0  0  0  0  0  0
  -46.2915  -15.6800  -12.1194 H   0  0  0  0  0  0  0  0  0  0  0  0
  -44.2174  -14.8133  -10.1404 H   0  0  0  0  0  0  0  0  0  0  0  0
  -45.5840  -13.7117  -10.5456 H   0  0  0  0  0  0  0  0  0  0  0  0
  -44.0109  -17.2218  -15.8418 H   0  0  0  0  0  0  0  0  0  0  0  0
  -43.0799  -18.3094  -12.7537 H   0  0  0  0  0  0  0  0  0  0  0  0
  -44.5224  -17.2344  -10.2491 H   0  0  0  0  0  0  0  0  0  0  0  0
  -45.8989  -15.3300   -8.7315 H   0  0  0  0  0  0  0  0  0  0  0  0
  -46.4168  -12.8410  -16.4319 H   0  0  0  0  0  0  0  0  0  0  0  0
  -47.1732  -14.3647  -16.9846 H   0  0  0  0  0  0  0  0  0  0  0  0
  -49.5086  -14.1704  -14.9218 H   0  0  0  0  0  0  0  0  0  0  0  0
  -48.1303  -14.8310  -12.2041 H   0  0  0  0  0  0  0  0  0  0  0  0
  -48.8693  -12.0737  -13.2925 H   0  0  0  0  0  0  0  0  0  0  0  0
  -46.4116  -12.1487  -11.8382 H   0  0  0  0  0  0  0  0  0  0  0  0
  -47.9039  -11.1200  -11.7140 H   0  0  0  0  0  0  0  0  0  0  0  0
  -48.9123  -12.5752  -15.6741 H   0  0  0  0  0  0  0  0  0  0  0  0
  -48.9385  -16.4329  -13.7443 H   0  0  0  0  0  0  0  0  0  0  0  0
  -49.9769  -14.1819  -11.3984 H   0  0  0  0  0  0  0  0  0  0  0  0
  -47.6117  -12.3231   -9.8223 H   0  0  0  0  0  0  0  0  0  0  0  0
  1  2  1  0
  1  7  1  0
  1 11  1  0
  2  3  1  0
  2  8  1  0
  3  4  1  0
  3  9  1  0
  4  5  1  0
  4 10  1  0
  5  6  1  0
  5 11  1  0
  6 12  1  0
  7 14  1  0
 13 14  1  0
 13 19  1  0
 14 15  1  0
 14 20  1  0
 15 16  1  0
 15 21  1  0
 16 17  1  0
 16 22  1  0
 17 18  1  0
 17 20  1  0
 18 23  1  0
  1 24  1  0
  2 25  1  0
  3 26  1  0
  4 27  1  0
  5 28  1  0
  6 29  1  0
  6 30  1  0
  8 31  1  0
  9 32  1  0
 10 33  1  0
 12 34  1  0
 13 35  1  0
 13 36  1  0
 15 37  1  0
 16 38  1  0
 17 39  1  0
 18 40  1  0
 18 41  1  0
 19 42  1  0
 21 43  1  0
 22 44  1  0
 23 45  1  0
A    1
C1
A    2
C2
A    3
C3
A    4
C4
A    5
C5
A    6
C6
A    7
O1
A    8
O2
A    9
O3
A   10
O4
A   11
O5
A   12
O6
A   13
C1'
A   14
C2'
A   15
C3'
A   16
C4'
A   17
C5'
A   18
C6'
A   19
O1'
A   20
O2'
A   21
O3'
A   22
O4'
A   23
O6'
M  END
