1J91_TBS_A_338
     RDKit          3D

 14 15  0  0  0  0  0  0  0  0999 V2000
  -11.5580    5.4450    4.6080 C   0  0  0  0  0  0  0  0  0  0  0  0
  -11.9420    5.7270    3.2360 C   0  0  0  0  0  0  0  0  0  0  0  0
  -12.0550    4.6430    2.2960 C   0  0  0  0  0  0  0  0  0  0  0  0
  -11.2970    4.0910    5.0170 C   0  0  0  0  0  0  0  0  0  0  0  0
  -11.2270    1.7100    4.1120 N   0  0  0  0  0  0  0  0  0  0  0  0
  -11.4160    3.0770    4.0430 C   0  0  0  0  0  0  0  0  0  0  0  0
  -11.7750    3.3400    2.7360 C   0  0  0  0  0  0  0  0  0  0  0  0
  -11.8070    2.1200    2.0310 N   0  0  0  0  0  0  0  0  0  0  0  0
  -11.4910    1.2070    2.8120 N   0  0  0  0  0  0  0  0  0  0  0  0
  -10.7940    3.6310    6.8020 Br  0  0  0  0  0  0  0  0  0  0  0  0
  -11.4000    6.8510    5.8860 Br  0  0  0  0  0  0  0  0  0  0  0  0
  -12.2990    7.5300    2.6470 Br  0  0  0  0  0  0  0  0  0  0  0  0
  -12.5560    4.9120    0.4870 Br  0  0  0  0  0  0  0  0  0  0  0  0
  -10.9500    1.1653    4.9411 H   0  0  0  0  0  0  0  0  0  0  0  0
  1  2  2  0
  1  4  1  0
  1 11  1  0
  2  3  1  0
  2 12  1  0
  3  7  2  0
  3 13  1  0
  4  6  2  0
  4 10  1  0
  5  6  1  0
  5  9  1  0
  6  7  1  0
  7  8  1  0
  8  9  2  0
  5 14  1  0
A    1
C1
A    2
C2
A    3
C3
A    4
C4
A    5
N5
A    6
C6
A    7
C7
A    8
N8
A    9
N9
A   10
BR10
A   11
BR11
A   12
BR12
A   13
BR13
M  END
