1JCQ_739_B_3012
     RDKit          3D

 73 73  0  0  0  0  0  0  0  0999 V2000
   19.9260  131.9130    2.4460 C   0  0  0  0  0  0  0  0  0  0  0  0
   18.9710  133.3520    3.0440 S   0  0  0  0  0  0  0  0  0  0  0  0
   20.1410  133.0100    0.2620 C   0  0  0  0  0  0  0  0  0  0  0  0
   21.8670  133.3060    1.9500 N   0  0  0  0  0  0  0  0  0  0  0  0
   20.9150  132.3250    1.3690 C   0  0  0  0  0  0  0  0  0  0  0  0
   20.7760  133.0450   -0.9890 N   0  0  0  0  0  0  0  0  0  0  0  0
   20.0110  133.7290   -2.0020 C   0  0  0  0  0  0  0  0  0  0  0  0
   21.0760  134.4560   -2.9250 C   0  0  0  0  0  0  0  0  0  0  0  0
   22.1060  133.4930   -3.4920 C   0  0  0  0  0  0  0  0  0  0  0  0
   20.3840  135.2130   -4.0690 C   0  0  0  0  0  0  0  0  0  0  0  0
   21.3420  135.9250   -5.0000 C   0  0  0  0  0  0  0  0  0  0  0  0
   19.1360  132.6900   -2.7320 C   0  0  0  0  0  0  0  0  0  0  0  0
   18.2700  133.2580   -3.7960 O   0  0  0  0  0  0  0  0  0  0  0  0
   17.4930  132.2240   -4.4230 C   0  0  0  0  0  0  0  0  0  0  0  0
   16.1900  132.0400   -3.6070 C   0  0  0  0  0  0  0  0  0  0  0  0
   15.3270  133.2650   -3.7320 C   0  0  0  0  0  0  0  0  0  0  0  0
   14.2280  133.2540   -4.5830 C   0  0  0  0  0  0  0  0  0  0  0  0
   15.6260  134.4180   -3.0310 C   0  0  0  0  0  0  0  0  0  0  0  0
   13.4160  134.3840   -4.7330 C   0  0  0  0  0  0  0  0  0  0  0  0
   14.8270  135.5700   -3.1820 C   0  0  0  0  0  0  0  0  0  0  0  0
   13.7070  135.5490   -4.0450 C   0  0  0  0  0  0  0  0  0  0  0  0
   17.1210  132.7260   -5.8270 C   0  0  0  0  0  0  0  0  0  0  0  0
   16.4810  132.0170   -6.5870 O   0  0  0  0  0  0  0  0  0  0  0  0
   17.4470  133.9730   -6.1390 N   0  0  0  0  0  0  0  0  0  0  0  0
   17.0700  134.5200   -7.4470 C   0  0  0  0  0  0  0  0  0  0  0  0
   15.5900  134.9550   -7.4560 C   0  0  0  0  0  0  0  0  0  0  0  0
   15.2010  135.5090   -8.7990 C   0  0  0  0  0  0  0  0  0  0  0  0
   13.5960  136.0640   -8.9060 S   0  0  0  0  0  0  0  0  0  0  0  0
   13.2980  137.0250   -7.7460 O   0  0  0  0  0  0  0  0  0  0  0  0
   12.5090  134.8130   -9.0350 O   0  0  0  0  0  0  0  0  0  0  0  0
   13.5850  137.0950  -10.2940 C   0  0  0  0  0  0  0  0  0  0  0  0
   17.9420  135.7390   -7.7340 C   0  0  0  0  0  0  0  0  0  0  0  0
   18.2060  136.0420   -8.9280 O   0  0  0  0  0  0  0  0  0  0  0  0
   18.3600  136.3740   -6.7440 O   0  0  0  0  0  0  0  0  0  0  0  0
   20.4764  131.4709    3.2896 H   0  0  0  0  0  0  0  0  0  0  0  0
   19.2254  131.1815    2.0169 H   0  0  0  0  0  0  0  0  0  0  0  0
   18.9661  133.3594    4.4140 H   0  0  0  0  0  0  0  0  0  0  0  0
   19.1838  132.4817    0.1411 H   0  0  0  0  0  0  0  0  0  0  0  0
   20.0331  134.0591    0.5745 H   0  0  0  0  0  0  0  0  0  0  0  0
   21.8225  133.2602    2.9780 H   0  0  0  0  0  0  0  0  0  0  0  0
   22.8228  133.0834    1.6374 H   0  0  0  0  0  0  0  0  0  0  0  0
   21.4576  131.4488    0.9846 H   0  0  0  0  0  0  0  0  0  0  0  0
   21.6803  133.5264   -0.8825 H   0  0  0  0  0  0  0  0  0  0  0  0
   19.3139  134.4865   -1.6144 H   0  0  0  0  0  0  0  0  0  0  0  0
   21.6081  135.1739   -2.2835 H   0  0  0  0  0  0  0  0  0  0  0  0
   22.6371  132.9964   -2.6666 H   0  0  0  0  0  0  0  0  0  0  0  0
   21.5998  132.7367   -4.1099 H   0  0  0  0  0  0  0  0  0  0  0  0
   22.8266  134.0488   -4.1099 H   0  0  0  0  0  0  0  0  0  0  0  0
   19.7999  134.4912   -4.6587 H   0  0  0  0  0  0  0  0  0  0  0  0
   19.7543  135.9867   -3.6055 H   0  0  0  0  0  0  0  0  0  0  0  0
   22.0860  136.4779   -4.4078 H   0  0  0  0  0  0  0  0  0  0  0  0
   21.8538  135.1864   -5.6344 H   0  0  0  0  0  0  0  0  0  0  0  0
   20.7823  136.6281   -5.6344 H   0  0  0  0  0  0  0  0  0  0  0  0
   19.7998  131.9425   -3.1909 H   0  0  0  0  0  0  0  0  0  0  0  0
   18.4633  132.2587   -1.9760 H   0  0  0  0  0  0  0  0  0  0  0  0
   18.0483  131.2758   -4.4737 H   0  0  0  0  0  0  0  0  0  0  0  0
   15.6409  131.1671   -3.9897 H   0  0  0  0  0  0  0  0  0  0  0  0
   16.4459  131.8854   -2.5484 H   0  0  0  0  0  0  0  0  0  0  0  0
   13.9922  132.3406   -5.1488 H   0  0  0  0  0  0  0  0  0  0  0  0
   16.4913  134.4371   -2.3521 H   0  0  0  0  0  0  0  0  0  0  0  0
   12.5426  134.3460   -5.4007 H   0  0  0  0  0  0  0  0  0  0  0  0
   15.0754  136.4869   -2.6274 H   0  0  0  0  0  0  0  0  0  0  0  0
   13.0780  136.4431   -4.1673 H   0  0  0  0  0  0  0  0  0  0  0  0
   17.9634  134.5559   -5.4649 H   0  0  0  0  0  0  0  0  0  0  0  0
   17.2137  133.7432   -8.2125 H   0  0  0  0  0  0  0  0  0  0  0  0
   14.9574  134.0842   -7.2288 H   0  0  0  0  0  0  0  0  0  0  0  0
   15.4501  135.7401   -6.6983 H   0  0  0  0  0  0  0  0  0  0  0  0
   15.8701  136.3515   -9.0282 H   0  0  0  0  0  0  0  0  0  0  0  0
   15.2887  134.6773   -9.5135 H   0  0  0  0  0  0  0  0  0  0  0  0
   13.5738  138.1461   -9.9699 H   0  0  0  0  0  0  0  0  0  0  0  0
   14.4852  136.9070  -10.8976 H   0  0  0  0  0  0  0  0  0  0  0  0
   12.6890  136.8878  -10.8976 H   0  0  0  0  0  0  0  0  0  0  0  0
   18.8435  136.7737   -9.1236 H   0  0  0  0  0  0  0  0  0  0  0  0
  1  2  1  0
  1  5  1  0
  3  5  1  0
  3  6  1  0
  4  5  1  0
  6  7  1  0
  7  8  1  0
  7 12  1  0
  8  9  1  0
  8 10  1  0
 10 11  1  0
 12 13  1  0
 13 14  1  0
 14 15  1  0
 14 22  1  0
 15 16  1  0
 16 17  2  0
 16 18  1  0
 17 19  1  0
 18 20  2  0
 19 21  2  0
 20 21  1  0
 22 23  2  0
 22 24  1  0
 24 25  1  0
 25 26  1  0
 25 32  1  0
 26 27  1  0
 27 28  1  0
 28 29  2  0
 28 30  2  0
 28 31  1  0
 32 33  1  0
 32 34  2  0
  1 35  1  0
  1 36  1  0
  2 37  1  0
  3 38  1  0
  3 39  1  0
  4 40  1  0
  4 41  1  0
  5 42  1  0
  6 43  1  0
  7 44  1  0
  8 45  1  0
  9 46  1  0
  9 47  1  0
  9 48  1  0
 10 49  1  0
 10 50  1  0
 11 51  1  0
 11 52  1  0
 11 53  1  0
 12 54  1  0
 12 55  1  0
 14 56  1  0
 15 57  1  0
 15 58  1  0
 17 59  1  0
 18 60  1  0
 19 61  1  0
 20 62  1  0
 21 63  1  0
 24 64  1  0
 25 65  1  0
 26 66  1  0
 26 67  1  0
 27 68  1  0
 27 69  1  0
 31 70  1  0
 31 71  1  0
 31 72  1  0
 33 73  1  0
A    1
CBC
A    2
SCC
A    3
CC
A    4
NC
A    5
CAC
A    6
NI
A    7
CAI
A    8
CBI
A    9
CCI
A   10
CDI
A   11
CEI
A   12
CI
A   13
O'F
A   14
CAF
A   15
CBF
A   16
CCF
A   17
CDF
A   18
CEF
A   19
CFF
A   20
CGF
A   21
CHF
A   22
CF
A   23
OF
A   24
NM
A   25
CAM
A   26
CBM
A   27
CCM
A   28
SDM
A   29
ODM
A   30
OEM
A   31
CEM
A   32
CM
A   33
O
A   34
OXT
M  END
