1G7V_PAI_A_300
     RDKit          3D

 48 47  0  0  0  0  0  0  0  0999 V2000
    7.5020  101.7470   79.8450 P   0  0  0  0  0  0  0  0  0  0  0  0
    6.3700  101.5580   81.0220 O   0  0  0  0  0  0  0  0  0  0  0  0
    7.5090  100.4130   78.9330 O   0  0  0  0  0  0  0  0  0  0  0  0
    7.1910  103.1300   78.8710 O   0  0  0  0  0  0  0  0  0  0  0  0
    8.9520  101.9100   80.5560 O   0  0  0  0  0  0  0  0  0  0  0  0
    7.1240  104.5570   79.3780 C   0  0  0  0  0  0  0  0  0  0  0  0
    6.5590  105.7140   78.3910 C   0  0  0  0  0  0  0  0  0  0  0  0
    6.7970  106.9620   79.0640 O   0  0  0  0  0  0  0  0  0  0  0  0
    7.2140  105.7910   76.9190 C   0  0  0  0  0  0  0  0  0  0  0  0
    6.9200  104.5030   76.3320 O   0  0  0  0  0  0  0  0  0  0  0  0
    6.7040  106.9460   75.8260 C   0  0  0  0  0  0  0  0  0  0  0  0
    7.0740  106.3710   74.5370 O   0  0  0  0  0  0  0  0  0  0  0  0
    7.4580  108.3790   75.8270 C   0  0  0  0  0  0  0  0  0  0  0  0
    7.1800  109.1160   77.0050 O   0  0  0  0  0  0  0  0  0  0  0  0
    7.1410  109.4070   74.6570 C   0  0  0  0  0  0  0  0  0  0  0  0
    5.7140  109.7020   74.2780 N   0  0  0  0  0  0  0  0  0  0  0  0
    5.4600  110.1480   72.8380 C   0  0  0  0  0  0  0  0  0  0  0  0
    5.1740  109.0060   71.8210 C   0  0  0  0  0  0  0  0  0  0  0  0
    4.1300  108.2600   71.9520 O   0  0  0  0  0  0  0  0  0  0  0  0
    5.9590  108.8750   70.8640 O   0  0  0  0  0  0  0  0  0  0  0  0
    5.0530  110.6530   75.2690 C   0  0  0  0  0  0  0  0  0  0  0  0
    5.5890  112.3360   75.0920 P   0  0  0  0  0  0  0  0  0  0  0  0
    4.5340  112.9810   74.0490 O   0  0  0  0  0  0  0  0  0  0  0  0
    5.5880  113.1960   76.4670 O   0  0  0  0  0  0  0  0  0  0  0  0
    7.0600  112.2980   74.4760 O   0  0  0  0  0  0  0  0  0  0  0  0
    7.5132   99.6138   79.5173 H   0  0  0  0  0  0  0  0  0  0  0  0
    8.8405  101.8975   81.5396 H   0  0  0  0  0  0  0  0  0  0  0  0
    6.4817  104.5525   80.2710 H   0  0  0  0  0  0  0  0  0  0  0  0
    8.1775  104.8326   79.5334 H   0  0  0  0  0  0  0  0  0  0  0  0
    5.5006  105.4809   78.2024 H   0  0  0  0  0  0  0  0  0  0  0  0
    6.7698  106.8193   80.0433 H   0  0  0  0  0  0  0  0  0  0  0  0
    8.2632  106.0743   77.0887 H   0  0  0  0  0  0  0  0  0  0  0  0
    6.7686  103.8395   77.0510 H   0  0  0  0  0  0  0  0  0  0  0  0
    5.6494  107.1526   76.0610 H   0  0  0  0  0  0  0  0  0  0  0  0
    7.6039  105.5476   74.6829 H   0  0  0  0  0  0  0  0  0  0  0  0
    8.4978  108.0387   75.7129 H   0  0  0  0  0  0  0  0  0  0  0  0
    7.3891  108.5617   77.7981 H   0  0  0  0  0  0  0  0  0  0  0  0
    7.5975  110.3656   74.9447 H   0  0  0  0  0  0  0  0  0  0  0  0
    7.5400  108.9035   73.7641 H   0  0  0  0  0  0  0  0  0  0  0  0
    4.5919  110.8236   72.8411 H   0  0  0  0  0  0  0  0  0  0  0  0
    6.3929  110.6239   72.5015 H   0  0  0  0  0  0  0  0  0  0  0  0
    5.7517  108.3069   72.4436 H   0  0  0  0  0  0  0  0  0  0  0  0
    3.9400  108.1243   72.9141 H   0  0  0  0  0  0  0  0  0  0  0  0
    6.8750  108.7221   71.2071 H   0  0  0  0  0  0  0  0  0  0  0  0
    3.9644  110.6154   75.1159 H   0  0  0  0  0  0  0  0  0  0  0  0
    5.3414  110.3238   76.2782 H   0  0  0  0  0  0  0  0  0  0  0  0
    5.5887  112.5796   77.2417 H   0  0  0  0  0  0  0  0  0  0  0  0
    7.7246  112.2808   75.2096 H   0  0  0  0  0  0  0  0  0  0  0  0
  1  2  2  0
  1  3  1  0
  1  4  1  0
  1  5  1  0
  4  6  1  0
  6  7  1  0
  7  8  1  0
  7  9  1  0
  9 10  1  0
  9 11  1  0
 11 12  1  0
 11 13  1  0
 13 14  1  0
 13 15  1  0
 15 16  1  0
 16 17  1  0
 16 21  1  0
 17 18  1  0
 18 19  1  0
 18 20  1  0
 21 22  1  0
 22 23  2  0
 22 24  1  0
 22 25  1  0
  3 26  1  0
  5 27  1  0
  6 28  1  0
  6 29  1  0
  7 30  1  0
  8 31  1  0
  9 32  1  0
 10 33  1  0
 11 34  1  0
 12 35  1  0
 13 36  1  0
 14 37  1  0
 15 38  1  0
 15 39  1  0
 17 40  1  0
 17 41  1  0
 18 42  1  0
 19 43  1  0
 20 44  1  0
 21 45  1  0
 21 46  1  0
 24 47  1  0
 25 48  1  0
A    1
P1
A    2
O1P
A    3
O2P
A    4
O3P
A    5
O4P
A    6
C6
A    7
C5
A    8
O1
A    9
C4
A   10
O4
A   11
C3
A   12
O3
A   13
C2
A   14
O2
A   15
C1
A   16
N1
A   17
C7
A   18
C8
A   19
O5
A   20
O6
A   21
C9
A   22
P2
A   23
O5P
A   24
O6P
A   25
O7P
M  END
