1JGT_CMA_A_803
     RDKit          3D

 35 34  0  0  0  0  0  0  0  0999 V2000
   -6.6230   90.0120   61.6450 C   0  0  0  0  0  0  0  0  0  0  0  0
   -7.4260   88.7970   62.1640 C   0  0  0  0  0  0  0  0  0  0  0  0
   -7.6910   91.9680   62.4780 O   0  0  0  0  0  0  0  0  0  0  0  0
   -7.5560   91.2100   61.4940 C   0  0  0  0  0  0  0  0  0  0  0  0
   -4.4740   89.3840   62.9500 C   0  0  0  0  0  0  0  0  0  0  0  0
   -4.5010   88.9800   64.4310 C   0  0  0  0  0  0  0  0  0  0  0  0
   -4.4680   90.1700   65.4050 C   0  0  0  0  0  0  0  0  0  0  0  0
   -4.2590   89.9470   66.6210 O   0  0  0  0  0  0  0  0  0  0  0  0
   -4.6550   91.3250   64.9510 O   0  0  0  0  0  0  0  0  0  0  0  0
   -5.5230   90.3430   62.5670 N   0  0  0  0  0  0  0  0  0  0  0  0
   -7.5040   87.6200   61.1970 C   0  0  0  0  0  0  0  0  0  0  0  0
   -8.9360   87.2760   60.8400 C   0  0  0  0  0  0  0  0  0  0  0  0
   -9.0690   86.7060   59.5020 N   0  0  0  0  0  0  0  0  0  0  0  0
  -10.2240   86.3020   58.9500 C   0  0  0  0  0  0  0  0  0  0  0  0
  -11.3770   86.3910   59.6160 N   0  0  0  0  0  0  0  0  0  0  0  0
  -10.2160   85.7990   57.7260 N   0  0  0  0  0  0  0  0  0  0  0  0
   -8.1370   91.3800   60.4030 O   0  0  0  0  0  0  0  0  0  0  0  0
   -6.1877   89.7582   60.6672 H   0  0  0  0  0  0  0  0  0  0  0  0
   -6.9527   88.4457   63.0927 H   0  0  0  0  0  0  0  0  0  0  0  0
   -8.4586   89.1477   62.3081 H   0  0  0  0  0  0  0  0  0  0  0  0
   -3.4957   89.8383   62.7341 H   0  0  0  0  0  0  0  0  0  0  0  0
   -4.6559   88.4678   62.3690 H   0  0  0  0  0  0  0  0  0  0  0  0
   -5.4213   88.4067   64.6164 H   0  0  0  0  0  0  0  0  0  0  0  0
   -3.5905   88.3914   64.6169 H   0  0  0  0  0  0  0  0  0  0  0  0
   -4.7783   92.0867   65.5712 H   0  0  0  0  0  0  0  0  0  0  0  0
   -5.0326   91.1447   62.1454 H   0  0  0  0  0  0  0  0  0  0  0  0
   -6.9605   87.8794   60.2765 H   0  0  0  0  0  0  0  0  0  0  0  0
   -7.0555   86.7443   61.6889 H   0  0  0  0  0  0  0  0  0  0  0  0
   -9.3140   86.5462   61.5711 H   0  0  0  0  0  0  0  0  0  0  0  0
   -9.5137   88.2119   60.8580 H   0  0  0  0  0  0  0  0  0  0  0  0
   -8.2119   86.6065   58.9395 H   0  0  0  0  0  0  0  0  0  0  0  0
  -11.3781   86.3911   60.6460 H   0  0  0  0  0  0  0  0  0  0  0  0
  -12.2658   86.4596   59.1000 H   0  0  0  0  0  0  0  0  0  0  0  0
  -11.0961   85.4857   57.2922 H   0  0  0  0  0  0  0  0  0  0  0  0
   -9.0870   91.6580   60.3861 H   0  0  0  0  0  0  0  0  0  0  0  0
  1  2  1  0
  1  4  1  0
  1 10  1  0
  2 11  1  0
  3  4  2  0
  4 17  1  0
  5  6  1  0
  5 10  1  0
  6  7  1  0
  7  8  2  0
  7  9  1  0
 11 12  1  0
 12 13  1  0
 13 14  1  0
 14 15  1  0
 14 16  2  3
  1 18  1  0
  2 19  1  0
  2 20  1  0
  5 21  1  0
  5 22  1  0
  6 23  1  0
  6 24  1  0
  9 25  1  0
 10 26  1  0
 11 27  1  0
 11 28  1  0
 12 29  1  0
 12 30  1  0
 13 31  1  0
 15 32  1  0
 15 33  1  0
 16 34  1  0
 17 35  1  0
A    1
CA
A    2
CB
A    3
O
A    4
C
A    5
C1
A    6
C2
A    7
C3
A    8
O1
A    9
O2
A   10
N
A   11
CG
A   12
CD
A   13
NE
A   14
CZ
A   15
NH1
A   16
NH2
A   17
OXT
M  END
