1D0V_NIO_A_991
     RDKit          3D

 14 14  0  0  0  0  0  0  0  0999 V2000
   54.2720   40.2030    8.2750 N   0  0  0  0  0  0  0  0  0  0  0  0
   53.0520   39.7210    8.4760 C   0  0  0  0  0  0  0  0  0  0  0  0
   52.0440   39.9250    7.5070 C   0  0  0  0  0  0  0  0  0  0  0  0
   52.3560   40.5910    6.2950 C   0  0  0  0  0  0  0  0  0  0  0  0
   53.6520   41.0240    6.1220 C   0  0  0  0  0  0  0  0  0  0  0  0
   54.5880   40.8200    7.1400 C   0  0  0  0  0  0  0  0  0  0  0  0
   50.6750   39.4110    7.7310 C   0  0  0  0  0  0  0  0  0  0  0  0
   49.7930   39.5990    6.8350 O   0  0  0  0  0  0  0  0  0  0  0  0
   50.3800   38.7770    8.8030 O   0  0  0  0  0  0  0  0  0  0  0  0
   52.8256   39.1629    9.3965 H   0  0  0  0  0  0  0  0  0  0  0  0
   51.5914   40.7558    5.5215 H   0  0  0  0  0  0  0  0  0  0  0  0
   53.9483   41.5267    5.1895 H   0  0  0  0  0  0  0  0  0  0  0  0
   55.6174   41.1808    6.9980 H   0  0  0  0  0  0  0  0  0  0  0  0
   50.5689   39.1829    9.6860 H   0  0  0  0  0  0  0  0  0  0  0  0
  1  2  2  0
  1  6  1  0
  2  3  1  0
  3  4  2  0
  3  7  1  0
  4  5  1  0
  5  6  2  0
  7  8  2  0
  7  9  1  0
  2 10  1  0
  4 11  1  0
  5 12  1  0
  6 13  1  0
  9 14  1  0
A    1
N
A    2
C1
A    3
C2
A    4
C3
A    5
C4
A    6
C5
A    7
C6
A    8
O1
A    9
O2
M  END
