1JHM_5MB_A_990
     RDKit          3D

 18 19  0  0  0  0  0  0  0  0999 V2000
   56.4640   41.6500   14.4970 N   0  0  0  0  0  0  0  0  0  0  0  0
   57.0520   40.9580   12.4570 N   0  0  0  0  0  0  0  0  0  0  0  0
   56.2050   40.8020   13.4950 C   0  0  0  0  0  0  0  0  0  0  0  0
   57.9280   41.9830   12.8440 C   0  0  0  0  0  0  0  0  0  0  0  0
   57.5640   42.4020   14.1000 C   0  0  0  0  0  0  0  0  0  0  0  0
   58.2930   43.4110   14.7280 C   0  0  0  0  0  0  0  0  0  0  0  0
   59.3670   44.0060   14.0820 C   0  0  0  0  0  0  0  0  0  0  0  0
   59.7570   43.5780   12.7890 C   0  0  0  0  0  0  0  0  0  0  0  0
   59.0550   42.5510   12.1890 C   0  0  0  0  0  0  0  0  0  0  0  0
   60.1060   45.1250   14.7890 C   0  0  0  0  0  0  0  0  0  0  0  0
   55.9503   41.7299   15.3862 H   0  0  0  0  0  0  0  0  0  0  0  0
   55.3925   40.0608   13.5155 H   0  0  0  0  0  0  0  0  0  0  0  0
   58.0151   43.7371   15.7411 H   0  0  0  0  0  0  0  0  0  0  0  0
   60.6032   44.0548   12.2726 H   0  0  0  0  0  0  0  0  0  0  0  0
   59.3677   42.1725   11.2046 H   0  0  0  0  0  0  0  0  0  0  0  0
   60.0182   44.9921   15.8774 H   0  0  0  0  0  0  0  0  0  0  0  0
   61.1675   45.1025   14.5013 H   0  0  0  0  0  0  0  0  0  0  0  0
   59.6686   46.0924   14.5013 H   0  0  0  0  0  0  0  0  0  0  0  0
  1  3  1  0
  1  5  1  0
  2  3  2  0
  2  4  1  0
  4  5  2  0
  4  9  1  0
  5  6  1  0
  6  7  2  0
  7  8  1  0
  7 10  1  0
  8  9  2  0
  1 11  1  0
  3 12  1  0
  6 13  1  0
  8 14  1  0
  9 15  1  0
 10 16  1  0
 10 17  1  0
 10 18  1  0
A    1
N3
A    2
N1
A    3
C2
A    4
C7A
A    5
C3A
A    6
C4
A    7
C5
A    8
C6
A    9
C7
A   10
C8
M  END
