1JHP_5OB_A_990
     RDKit          3D

 19 20  0  0  0  0  0  0  0  0999 V2000
   56.7140   41.9650   14.3000 N   0  0  0  0  0  0  0  0  0  0  0  0
   57.1840   41.2770   12.2080 N   0  0  0  0  0  0  0  0  0  0  0  0
   56.3550   41.1740   13.2730 C   0  0  0  0  0  0  0  0  0  0  0  0
   58.1580   42.2030   12.6270 C   0  0  0  0  0  0  0  0  0  0  0  0
   57.8640   42.6370   13.9010 C   0  0  0  0  0  0  0  0  0  0  0  0
   58.6840   43.5690   14.5350 C   0  0  0  0  0  0  0  0  0  0  0  0
   59.7950   44.0700   13.8700 C   0  0  0  0  0  0  0  0  0  0  0  0
   60.0940   43.6370   12.5670 C   0  0  0  0  0  0  0  0  0  0  0  0
   59.2790   42.6910   11.9660 C   0  0  0  0  0  0  0  0  0  0  0  0
   60.4820   44.9670   14.5990 O   0  0  0  0  0  0  0  0  0  0  0  0
   59.9190   45.0480   15.8860 C   0  0  0  0  0  0  0  0  0  0  0  0
   56.2312   42.0553   15.2053 H   0  0  0  0  0  0  0  0  0  0  0  0
   55.4774   40.5112   13.2963 H   0  0  0  0  0  0  0  0  0  0  0  0
   58.4522   43.9056   15.5563 H   0  0  0  0  0  0  0  0  0  0  0  0
   60.9641   44.0439   12.0308 H   0  0  0  0  0  0  0  0  0  0  0  0
   59.5212   42.3234   10.9579 H   0  0  0  0  0  0  0  0  0  0  0  0
   60.7112   44.9340   16.6406 H   0  0  0  0  0  0  0  0  0  0  0  0
   59.4307   46.0256   16.0118 H   0  0  0  0  0  0  0  0  0  0  0  0
   59.1749   44.2477   16.0118 H   0  0  0  0  0  0  0  0  0  0  0  0
  1  3  1  0
  1  5  1  0
  2  3  2  0
  2  4  1  0
  4  5  2  0
  4  9  1  0
  5  6  1  0
  6  7  2  0
  7  8  1  0
  7 10  1  0
  8  9  2  0
 10 11  1  0
  1 12  1  0
  3 13  1  0
  6 14  1  0
  8 15  1  0
  9 16  1  0
 11 17  1  0
 11 18  1  0
 11 19  1  0
A    1
N3
A    2
N1
A    3
C2
A    4
C7A
A    5
C3A
A    6
C4
A    7
C5
A    8
C6
A    9
C7
A   10
O10
A   11
C11
M  END
