1JHQ_PMO_A_990
     RDKit          3D

 41 43  0  0  0  0  0  0  0  0999 V2000
   56.2990   41.4010   14.0420 N   0  0  0  0  0  0  0  0  0  0  0  0
   56.6380   40.8340   11.8820 N   0  0  0  0  0  0  0  0  0  0  0  0
   55.8530   40.7170   12.9820 C   0  0  0  0  0  0  0  0  0  0  0  0
   57.7000   41.6680   12.3270 C   0  0  0  0  0  0  0  0  0  0  0  0
   57.4650   42.0330   13.6400 C   0  0  0  0  0  0  0  0  0  0  0  0
   58.3190   42.9080   14.3140 C   0  0  0  0  0  0  0  0  0  0  0  0
   59.4620   43.3810   13.6920 C   0  0  0  0  0  0  0  0  0  0  0  0
   59.7050   43.0180   12.3450 C   0  0  0  0  0  0  0  0  0  0  0  0
   58.8380   42.1620   11.6770 C   0  0  0  0  0  0  0  0  0  0  0  0
   60.4090   44.2570   14.1570 O   0  0  0  0  0  0  0  0  0  0  0  0
   60.1040   44.6980   15.4660 C   0  0  0  0  0  0  0  0  0  0  0  0
   59.3970   39.3310    6.1030 P   0  0  0  0  0  0  0  0  0  0  0  0
   58.9980   38.1260    5.3200 O   0  0  0  0  0  0  0  0  0  0  0  0
   59.6280   40.4890    5.2080 O   0  0  0  0  0  0  0  0  0  0  0  0
   60.5080   39.1890    7.0990 O   0  0  0  0  0  0  0  0  0  0  0  0
   58.0280   39.6190    6.9290 O   0  0  0  0  0  0  0  0  0  0  0  0
   57.5420   38.6740    7.8900 C   0  0  0  0  0  0  0  0  0  0  0  0
   58.0550   39.0570    9.2670 C   0  0  0  0  0  0  0  0  0  0  0  0
   57.5090   40.3700    9.6420 O   0  0  0  0  0  0  0  0  0  0  0  0
   57.6220   38.1250   10.3890 C   0  0  0  0  0  0  0  0  0  0  0  0
   58.4000   38.2690   11.5860 O   0  0  0  0  0  0  0  0  0  0  0  0
   56.2070   38.6900   10.6080 C   0  0  0  0  0  0  0  0  0  0  0  0
   55.7520   38.2440   11.9090 O   0  0  0  0  0  0  0  0  0  0  0  0
   56.4200   40.2110   10.5510 C   0  0  0  0  0  0  0  0  0  0  0  0
   54.9330   40.1143   13.0009 H   0  0  0  0  0  0  0  0  0  0  0  0
   58.0833   43.2223   15.3414 H   0  0  0  0  0  0  0  0  0  0  0  0
   60.5874   43.4170   11.8232 H   0  0  0  0  0  0  0  0  0  0  0  0
   59.0457   41.8720   10.6364 H   0  0  0  0  0  0  0  0  0  0  0  0
   60.5708   44.0230   16.1984 H   0  0  0  0  0  0  0  0  0  0  0  0
   60.4907   45.7179   15.6087 H   0  0  0  0  0  0  0  0  0  0  0  0
   59.0133   44.6961   15.6087 H   0  0  0  0  0  0  0  0  0  0  0  0
   59.7897   41.2998    5.7525 H   0  0  0  0  0  0  0  0  0  0  0  0
   60.1374   39.2364    8.0158 H   0  0  0  0  0  0  0  0  0  0  0  0
   56.4420   38.6825    7.8912 H   0  0  0  0  0  0  0  0  0  0  0  0
   57.8962   37.6656    7.6299 H   0  0  0  0  0  0  0  0  0  0  0  0
   59.1505   39.0261    9.1726 H   0  0  0  0  0  0  0  0  0  0  0  0
   57.7136   37.0547   10.1521 H   0  0  0  0  0  0  0  0  0  0  0  0
   57.8133   38.1604   12.3760 H   0  0  0  0  0  0  0  0  0  0  0  0
   55.4502   38.3698    9.8767 H   0  0  0  0  0  0  0  0  0  0  0  0
   56.2470   38.7292   12.6159 H   0  0  0  0  0  0  0  0  0  0  0  0
   55.5224   40.7452   10.2062 H   0  0  0  0  0  0  0  0  0  0  0  0
  1  3  2  0
  1  5  1  0
  2  3  1  0
  2  4  1  0
  2 24  1  0
  4  5  2  0
  4  9  1  0
  5  6  1  0
  6  7  2  0
  7  8  1  0
  7 10  1  0
  8  9  2  0
 10 11  1  0
 12 13  2  0
 12 14  1  0
 12 15  1  0
 12 16  1  0
 16 17  1  0
 17 18  1  0
 18 19  1  0
 18 20  1  0
 19 24  1  0
 20 21  1  0
 20 22  1  0
 22 23  1  0
 22 24  1  0
  3 25  1  0
  6 26  1  0
  8 27  1  0
  9 28  1  0
 11 29  1  0
 11 30  1  0
 11 31  1  0
 14 32  1  0
 15 33  1  0
 17 34  1  0
 17 35  1  0
 18 36  1  0
 20 37  1  0
 21 38  1  0
 22 39  1  0
 23 40  1  0
 24 41  1  0
A    1
N3
A    2
N1
A    3
C2
A    4
C7A
A    5
C3A
A    6
C4
A    7
C5
A    8
C6
A    9
C7
A   10
O10
A   11
C11
A   12
P
A   13
O1P
A   14
O2P
A   15
O3P
A   16
O5'
A   17
C5'
A   18
C4'
A   19
O4'
A   20
C3'
A   21
O3'
A   22
C2'
A   23
O2'
A   24
C1'
M  END
