1JIL_485_A_421
     RDKit          3D

 51 52  0  0  0  0  0  0  0  0999 V2000
   25.3940    7.2340   83.6780 O   0  0  0  0  0  0  0  0  0  0  0  0
   26.5770    7.7550   83.3260 C   0  0  0  0  0  0  0  0  0  0  0  0
   27.2530    8.6040   84.2080 C   0  0  0  0  0  0  0  0  0  0  0  0
   28.5160    9.1540   83.8180 C   0  0  0  0  0  0  0  0  0  0  0  0
   29.0530    8.8310   82.5570 C   0  0  0  0  0  0  0  0  0  0  0  0
   28.3420    7.9560   81.6770 C   0  0  0  0  0  0  0  0  0  0  0  0
   27.1200    7.4330   82.0720 C   0  0  0  0  0  0  0  0  0  0  0  0
   30.3740    9.4080   82.1210 C   0  0  0  0  0  0  0  0  0  0  0  0
   30.3560   10.9040   81.8700 C   0  0  0  0  0  0  0  0  0  0  0  0
   29.2130   11.3250   80.9800 N   0  0  0  0  0  0  0  0  0  0  0  0
   31.7220   11.3520   81.3210 C   0  0  0  0  0  0  0  0  0  0  0  0
   31.8770   11.5220   80.1490 O   0  0  0  0  0  0  0  0  0  0  0  0
   32.7040   11.5320   82.2170 N   0  0  0  0  0  0  0  0  0  0  0  0
   34.1280   11.9840   81.9310 C   0  0  0  0  0  0  0  0  0  0  0  0
   35.0240   10.8290   81.3040 C   0  0  0  0  0  0  0  0  0  0  0  0
   34.4000    9.5790   81.3100 O   0  0  0  0  0  0  0  0  0  0  0  0
   36.1870   11.0400   80.8280 O   0  0  0  0  0  0  0  0  0  0  0  0
   34.7180   12.5970   83.1920 C   0  0  0  0  0  0  0  0  0  0  0  0
   34.0090   13.8940   83.5760 C   0  0  0  0  0  0  0  0  0  0  0  0
   34.6110   14.4620   84.8880 C   0  0  0  0  0  0  0  0  0  0  0  0
   34.5260   13.4490   86.0500 C   0  0  0  0  0  0  0  0  0  0  0  0
   35.2370   12.0900   85.6240 C   0  0  0  0  0  0  0  0  0  0  0  0
   34.5810   11.6560   84.3650 O   0  0  0  0  0  0  0  0  0  0  0  0
   34.1700   14.8400   82.5490 O   0  0  0  0  0  0  0  0  0  0  0  0
   33.8810   15.6110   85.2070 O   0  0  0  0  0  0  0  0  0  0  0  0
   33.1260   13.2250   86.2990 O   0  0  0  0  0  0  0  0  0  0  0  0
   35.1070   10.9150   86.6270 C   0  0  0  0  0  0  0  0  0  0  0  0
   25.1631    7.1323   84.6353 H   0  0  0  0  0  0  0  0  0  0  0  0
   26.8196    8.8463   85.1895 H   0  0  0  0  0  0  0  0  0  0  0  0
   29.0627    9.8237   84.4982 H   0  0  0  0  0  0  0  0  0  0  0  0
   28.7618    7.6996   80.6931 H   0  0  0  0  0  0  0  0  0  0  0  0
   26.5712    6.7599   81.3969 H   0  0  0  0  0  0  0  0  0  0  0  0
   31.1154    9.2005   82.9067 H   0  0  0  0  0  0  0  0  0  0  0  0
   30.6205    8.9329   81.1600 H   0  0  0  0  0  0  0  0  0  0  0  0
   30.1819   11.4144   82.8287 H   0  0  0  0  0  0  0  0  0  0  0  0
   28.4153   11.6188   81.5615 H   0  0  0  0  0  0  0  0  0  0  0  0
   29.5123   12.1110   80.3854 H   0  0  0  0  0  0  0  0  0  0  0  0
   32.4691   11.3444   83.2022 H   0  0  0  0  0  0  0  0  0  0  0  0
   34.1092   12.7602   81.1518 H   0  0  0  0  0  0  0  0  0  0  0  0
   34.1806    9.1394   82.1695 H   0  0  0  0  0  0  0  0  0  0  0  0
   35.7765   12.7956   82.9683 H   0  0  0  0  0  0  0  0  0  0  0  0
   32.9398   13.6840   83.7268 H   0  0  0  0  0  0  0  0  0  0  0  0
   35.6780   14.6836   84.7387 H   0  0  0  0  0  0  0  0  0  0  0  0
   35.0280   13.8256   86.9534 H   0  0  0  0  0  0  0  0  0  0  0  0
   36.3128   12.3074   85.5504 H   0  0  0  0  0  0  0  0  0  0  0  0
   34.3222   15.7344   82.9451 H   0  0  0  0  0  0  0  0  0  0  0  0
   33.8229   15.7024   86.1911 H   0  0  0  0  0  0  0  0  0  0  0  0
   32.9645   13.1992   87.2754 H   0  0  0  0  0  0  0  0  0  0  0  0
   35.1500   11.3040   87.6550 H   0  0  0  0  0  0  0  0  0  0  0  0
   34.1467   10.4024   86.4688 H   0  0  0  0  0  0  0  0  0  0  0  0
   35.9321   10.2049   86.4688 H   0  0  0  0  0  0  0  0  0  0  0  0
  1  2  1  0
  2  3  2  0
  2  7  1  0
  3  4  1  0
  4  5  2  0
  5  6  1  0
  5  8  1  0
  6  7  2  0
  8  9  1  0
  9 10  1  0
  9 11  1  0
 11 12  2  0
 11 13  1  0
 13 14  1  0
 14 15  1  0
 14 18  1  0
 15 16  1  0
 15 17  2  0
 18 19  1  0
 18 23  1  0
 19 20  1  0
 19 24  1  0
 20 21  1  0
 20 25  1  0
 21 22  1  0
 21 26  1  0
 22 23  1  0
 22 27  1  0
  1 28  1  0
  3 29  1  0
  4 30  1  0
  6 31  1  0
  7 32  1  0
  8 33  1  0
  8 34  1  0
  9 35  1  0
 10 36  1  0
 10 37  1  0
 13 38  1  0
 14 39  1  0
 16 40  1  0
 18 41  1  0
 19 42  1  0
 20 43  1  0
 21 44  1  0
 22 45  1  0
 24 46  1  0
 25 47  1  0
 26 48  1  0
 27 49  1  0
 27 50  1  0
 27 51  1  0
A    1
O1
A    2
C2
A    3
C3
A    4
C4
A    5
C5
A    6
C6
A    7
C7
A    8
C8
A    9
C9
A   10
N10
A   11
C11
A   12
O12
A   13
N13
A   14
C14
A   15
C15
A   16
O16
A   17
O17
A   18
C18
A   19
C19
A   20
C20
A   21
C21
A   22
C22
A   23
O23
A   24
O24
A   25
O25
A   26
O26
A   27
C27
M  END
