1JIN_KTN_A_801
     RDKit          3D

 64 68  0  0  0  0  0  0  0  0999 V2000
  -10.0180    9.2440   12.5580 N   0  0  0  0  0  0  0  0  0  0  0  0
   -9.9880   10.3420   11.7910 C   0  0  0  0  0  0  0  0  0  0  0  0
   -8.9190   10.4050   11.0950 N   0  0  0  0  0  0  0  0  0  0  0  0
   -8.2310    9.2860   11.4360 C   0  0  0  0  0  0  0  0  0  0  0  0
   -8.8840    8.5540   12.3370 C   0  0  0  0  0  0  0  0  0  0  0  0
  -11.0530    8.9480   13.4330 C   0  0  0  0  0  0  0  0  0  0  0  0
  -11.0420   10.1450   14.2860 C   0  0  0  0  0  0  0  0  0  0  0  0
  -11.7490   11.2480   13.8660 O   0  0  0  0  0  0  0  0  0  0  0  0
  -11.5560   12.3200   14.9600 C   0  0  0  0  0  0  0  0  0  0  0  0
  -10.8740   11.5530   16.1330 C   0  0  0  0  0  0  0  0  0  0  0  0
  -10.5020   10.3140   15.5500 O   0  0  0  0  0  0  0  0  0  0  0  0
  -12.2390    9.3290   14.9650 C   0  0  0  0  0  0  0  0  0  0  0  0
  -12.0930    8.0860   15.6920 C   0  0  0  0  0  0  0  0  0  0  0  0
  -13.1780    7.4240   16.2640 C   0  0  0  0  0  0  0  0  0  0  0  0
  -14.4460    7.9810   16.1390 C   0  0  0  0  0  0  0  0  0  0  0  0
  -14.6440    9.1640   15.4490 C   0  0  0  0  0  0  0  0  0  0  0  0
  -13.5640    9.8130   14.8840 C   0  0  0  0  0  0  0  0  0  0  0  0
  -15.8140    7.1740   16.8540 Cl  0  0  0  0  0  0  0  0  0  0  0  0
  -12.9870   12.7680   15.1450 C   0  0  0  0  0  0  0  0  0  0  0  0
  -13.4170   12.6590   13.7890 O   0  0  0  0  0  0  0  0  0  0  0  0
  -14.7550   12.8020   13.4840 C   0  0  0  0  0  0  0  0  0  0  0  0
  -15.7290   12.9940   14.4270 C   0  0  0  0  0  0  0  0  0  0  0  0
  -17.0480   13.0420   13.9680 C   0  0  0  0  0  0  0  0  0  0  0  0
  -17.2850   12.8760   12.6230 C   0  0  0  0  0  0  0  0  0  0  0  0
  -16.2190   12.7280   11.7680 C   0  0  0  0  0  0  0  0  0  0  0  0
  -14.9170   12.6640   12.1980 C   0  0  0  0  0  0  0  0  0  0  0  0
  -18.6210   12.9090   12.1780 N   0  0  0  0  0  0  0  0  0  0  0  0
  -19.4610   13.9090   12.8100 C   0  0  0  0  0  0  0  0  0  0  0  0
  -20.8860   13.6960   12.4410 C   0  0  0  0  0  0  0  0  0  0  0  0
  -21.3860   12.5090   13.1100 N   0  0  0  0  0  0  0  0  0  0  0  0
  -20.3490   11.4760   13.3280 C   0  0  0  0  0  0  0  0  0  0  0  0
  -19.2860   11.5670   12.2520 C   0  0  0  0  0  0  0  0  0  0  0  0
  -22.6440   12.3120   13.4810 C   0  0  0  0  0  0  0  0  0  0  0  0
  -22.9800   11.2740   14.0020 O   0  0  0  0  0  0  0  0  0  0  0  0
  -23.6270   13.4070   13.2370 C   0  0  0  0  0  0  0  0  0  0  0  0
  -10.5450    7.2820   15.9310 Cl  0  0  0  0  0  0  0  0  0  0  0  0
  -10.7870   11.0975   11.7640 H   0  0  0  0  0  0  0  0  0  0  0  0
   -7.2502    9.0156   11.0178 H   0  0  0  0  0  0  0  0  0  0  0  0
   -8.5691    7.6046   12.7948 H   0  0  0  0  0  0  0  0  0  0  0  0
  -12.0110    8.8364   12.9041 H   0  0  0  0  0  0  0  0  0  0  0  0
  -10.9328    7.9995   13.9770 H   0  0  0  0  0  0  0  0  0  0  0  0
  -10.9246   13.2054   14.7945 H   0  0  0  0  0  0  0  0  0  0  0  0
   -9.9899   12.0971   16.4966 H   0  0  0  0  0  0  0  0  0  0  0  0
  -11.5326   11.4340   17.0060 H   0  0  0  0  0  0  0  0  0  0  0  0
  -13.0337    6.4772   16.8050 H   0  0  0  0  0  0  0  0  0  0  0  0
  -15.6556    9.5849   15.3512 H   0  0  0  0  0  0  0  0  0  0  0  0
  -13.7443   10.7541   14.3437 H   0  0  0  0  0  0  0  0  0  0  0  0
  -13.5483   12.0984   15.8133 H   0  0  0  0  0  0  0  0  0  0  0  0
  -13.1232   13.7543   15.6125 H   0  0  0  0  0  0  0  0  0  0  0  0
  -15.4851   13.1050   15.4939 H   0  0  0  0  0  0  0  0  0  0  0  0
  -17.8800   13.2091   14.6679 H   0  0  0  0  0  0  0  0  0  0  0  0
  -16.4186   12.6575   10.6886 H   0  0  0  0  0  0  0  0  0  0  0  0
  -14.0737   12.5080   11.5091 H   0  0  0  0  0  0  0  0  0  0  0  0
  -19.3542   13.8345   13.9023 H   0  0  0  0  0  0  0  0  0  0  0  0
  -19.1485   14.9064   12.4673 H   0  0  0  0  0  0  0  0  0  0  0  0
  -21.4795   14.5689   12.7505 H   0  0  0  0  0  0  0  0  0  0  0  0
  -20.9675   13.5652   11.3518 H   0  0  0  0  0  0  0  0  0  0  0  0
  -19.8836   11.6304   14.3127 H   0  0  0  0  0  0  0  0  0  0  0  0
  -20.8180   10.4819   13.2863 H   0  0  0  0  0  0  0  0  0  0  0  0
  -19.7562   11.3577   11.2799 H   0  0  0  0  0  0  0  0  0  0  0  0
  -18.5062   10.8338   12.5057 H   0  0  0  0  0  0  0  0  0  0  0  0
  -23.9820   13.8024   14.2001 H   0  0  0  0  0  0  0  0  0  0  0  0
  -23.1436   14.2130   12.6655 H   0  0  0  0  0  0  0  0  0  0  0  0
  -24.4803   13.0131   12.6655 H   0  0  0  0  0  0  0  0  0  0  0  0
  1  2  1  0
  1  5  1  0
  1  6  1  0
  2  3  2  0
  3  4  1  0
  4  5  2  0
  6  7  1  0
  7  8  1  0
  7 11  1  0
  7 12  1  0
  8  9  1  0
  9 10  1  0
  9 19  1  0
 10 11  1  0
 12 13  2  0
 12 17  1  0
 13 14  1  0
 13 36  1  0
 14 15  2  0
 15 16  1  0
 15 18  1  0
 16 17  2  0
 19 20  1  0
 20 21  1  0
 21 22  2  0
 21 26  1  0
 22 23  1  0
 23 24  2  0
 24 25  1  0
 24 27  1  0
 25 26  2  0
 27 28  1  0
 27 32  1  0
 28 29  1  0
 29 30  1  0
 30 31  1  0
 30 33  1  0
 31 32  1  0
 33 34  2  0
 33 35  1  0
  2 37  1  0
  4 38  1  0
  5 39  1  0
  6 40  1  0
  6 41  1  0
  9 42  1  0
 10 43  1  0
 10 44  1  0
 14 45  1  0
 16 46  1  0
 17 47  1  0
 19 48  1  0
 19 49  1  0
 22 50  1  0
 23 51  1  0
 25 52  1  0
 26 53  1  0
 28 54  1  0
 28 55  1  0
 29 56  1  0
 29 57  1  0
 31 58  1  0
 31 59  1  0
 32 60  1  0
 32 61  1  0
 35 62  1  0
 35 63  1  0
 35 64  1  0
A    1
N1
A    2
C1
A    3
N2
A    4
C2
A    5
C3
A    6
C4
A    7
C5
A    8
O1
A    9
C6
A   10
C7
A   11
O2
A   12
C8
A   13
C9
A   14
C10
A   15
C11
A   16
C12
A   17
C13
A   18
CL1
A   19
C14
A   20
O3
A   21
C15
A   22
C16
A   23
C17
A   24
C18
A   25
C19
A   26
C20
A   27
N3
A   28
C21
A   29
C22
A   30
N4
A   31
C23
A   32
C24
A   33
C25
A   34
O4
A   35
C26
A   36
CL2
M  END
