1DTH_BAT_A_972
     RDKit          3D

 63 64  0  0  0  0  0  0  0  0999 V2000
    0.7920   24.7450    4.8560 C   0  0  0  0  0  0  0  0  0  0  0  0
   -0.2630   25.9070    4.8400 C   0  0  0  0  0  0  0  0  0  0  0  0
    0.3100   23.6760    5.8560 C   0  0  0  0  0  0  0  0  0  0  0  0
   -0.2370   22.9720    8.5430 C   0  0  0  0  0  0  0  0  0  0  0  0
   -1.1300   23.5310    9.4650 C   0  0  0  0  0  0  0  0  0  0  0  0
   -1.9180   22.4830   10.1190 C   0  0  0  0  0  0  0  0  0  0  0  0
   -1.5540   21.2200    9.6350 C   0  0  0  0  0  0  0  0  0  0  0  0
    1.1870   24.0170    3.5230 C   0  0  0  0  0  0  0  0  0  0  0  0
    0.3100   23.1220    2.5980 C   0  0  0  0  0  0  0  0  0  0  0  0
   -0.9920   23.7080    1.9890 C   0  0  0  0  0  0  0  0  0  0  0  0
   -2.0500   24.4930    2.7870 C   0  0  0  0  0  0  0  0  0  0  0  0
   -1.6830   22.3680    1.6670 C   0  0  0  0  0  0  0  0  0  0  0  0
    2.0360   24.8390    2.5270 C   0  0  0  0  0  0  0  0  0  0  0  0
    4.0160   24.6010    1.0720 C   0  0  0  0  0  0  0  0  0  0  0  0
    4.7520   25.8210    1.6620 C   0  0  0  0  0  0  0  0  0  0  0  0
    5.5300   28.0650    1.4470 C   0  0  0  0  0  0  0  0  0  0  0  0
    3.2990   24.6910   -0.2760 C   0  0  0  0  0  0  0  0  0  0  0  0
    2.9660   23.2830   -0.7290 C   0  0  0  0  0  0  0  0  0  0  0  0
    3.9240   22.5100   -1.3840 C   0  0  0  0  0  0  0  0  0  0  0  0
    3.6270   21.1950   -1.7730 C   0  0  0  0  0  0  0  0  0  0  0  0
    2.3740   20.6560   -1.5010 C   0  0  0  0  0  0  0  0  0  0  0  0
    1.4140   21.4250   -0.8440 C   0  0  0  0  0  0  0  0  0  0  0  0
    1.7120   22.7420   -0.4570 C   0  0  0  0  0  0  0  0  0  0  0  0
    0.3130   27.0680    4.4810 N   0  0  0  0  0  0  0  0  0  0  0  0
    3.0650   24.1100    2.0520 N   0  0  0  0  0  0  0  0  0  0  0  0
    4.8310   26.9170    0.8930 N   0  0  0  0  0  0  0  0  0  0  0  0
   -1.4080   25.7970    5.1360 O   0  0  0  0  0  0  0  0  0  0  0  0
   -0.0950   28.0490    4.4010 O   0  0  0  0  0  0  0  0  0  0  0  0
    1.6630   25.8920    1.9890 O   0  0  0  0  0  0  0  0  0  0  0  0
    5.3100   25.7360    2.7580 O   0  0  0  0  0  0  0  0  0  0  0  0
    0.8630   23.8970    7.5670 S   0  0  0  0  0  0  0  0  0  0  0  0
   -0.3220   21.2450    8.4400 S   0  0  0  0  0  0  0  0  0  0  0  0
    1.7196   25.2728    5.1226 H   0  0  0  0  0  0  0  0  0  0  0  0
   -0.7900   23.6813    5.8527 H   0  0  0  0  0  0  0  0  0  0  0  0
    0.7518   22.7271    5.5176 H   0  0  0  0  0  0  0  0  0  0  0  0
   -1.2266   24.6074    9.6700 H   0  0  0  0  0  0  0  0  0  0  0  0
   -2.6881   22.6630   10.8835 H   0  0  0  0  0  0  0  0  0  0  0  0
   -2.0192   20.2890    9.9912 H   0  0  0  0  0  0  0  0  0  0  0  0
    1.6492   23.2837    4.2003 H   0  0  0  0  0  0  0  0  0  0  0  0
    0.9459   22.8095    1.7566 H   0  0  0  0  0  0  0  0  0  0  0  0
   -0.0497   22.3273    3.2681 H   0  0  0  0  0  0  0  0  0  0  0  0
   -0.6844   24.4730    1.2608 H   0  0  0  0  0  0  0  0  0  0  0  0
   -1.8704   24.3597    3.8640 H   0  0  0  0  0  0  0  0  0  0  0  0
   -1.9824   25.5612    2.5334 H   0  0  0  0  0  0  0  0  0  0  0  0
   -3.0528   24.1187    2.5334 H   0  0  0  0  0  0  0  0  0  0  0  0
   -1.9466   21.8568    2.6046 H   0  0  0  0  0  0  0  0  0  0  0  0
   -2.5960   22.5572    1.0833 H   0  0  0  0  0  0  0  0  0  0  0  0
   -0.9994   21.7339    1.0833 H   0  0  0  0  0  0  0  0  0  0  0  0
    4.8597   23.9338    0.8417 H   0  0  0  0  0  0  0  0  0  0  0  0
    5.5008   28.0170    2.5456 H   0  0  0  0  0  0  0  0  0  0  0  0
    6.5762   28.0562    1.1073 H   0  0  0  0  0  0  0  0  0  0  0  0
    5.0419   28.9904    1.1073 H   0  0  0  0  0  0  0  0  0  0  0  0
    2.3739   25.2761   -0.1676 H   0  0  0  0  0  0  0  0  0  0  0  0
    3.9431   25.1868   -1.0172 H   0  0  0  0  0  0  0  0  0  0  0  0
    4.9169   22.9330   -1.5967 H   0  0  0  0  0  0  0  0  0  0  0  0
    4.3849   20.5906   -2.2929 H   0  0  0  0  0  0  0  0  0  0  0  0
    2.1406   19.6245   -1.8037 H   0  0  0  0  0  0  0  0  0  0  0  0
    0.4226   20.9999   -0.6286 H   0  0  0  0  0  0  0  0  0  0  0  0
    0.9537   23.3469    0.0617 H   0  0  0  0  0  0  0  0  0  0  0  0
    1.3130   26.9972    4.2445 H   0  0  0  0  0  0  0  0  0  0  0  0
    3.1833   23.1495    2.4046 H   0  0  0  0  0  0  0  0  0  0  0  0
    4.4147   26.9441   -0.0487 H   0  0  0  0  0  0  0  0  0  0  0  0
   -0.2483   28.4175    5.3070 H   0  0  0  0  0  0  0  0  0  0  0  0
  1  2  1  0
  1  3  1  0
  1  8  1  0
  2 24  1  0
  2 27  2  0
  3 31  1  0
  4  5  2  0
  4 31  1  0
  4 32  1  0
  5  6  1  0
  6  7  2  0
  7 32  1  0
  8  9  1  0
  8 13  1  0
  9 10  1  0
 10 11  1  0
 10 12  1  0
 13 25  1  0
 13 29  2  0
 14 15  1  0
 14 17  1  0
 14 25  1  0
 15 26  1  0
 15 30  2  0
 16 26  1  0
 17 18  1  0
 18 19  2  0
 18 23  1  0
 19 20  1  0
 20 21  2  0
 21 22  1  0
 22 23  2  0
 24 28  1  0
  1 33  1  0
  3 34  1  0
  3 35  1  0
  5 36  1  0
  6 37  1  0
  7 38  1  0
  8 39  1  0
  9 40  1  0
  9 41  1  0
 10 42  1  0
 11 43  1  0
 11 44  1  0
 11 45  1  0
 12 46  1  0
 12 47  1  0
 12 48  1  0
 14 49  1  0
 16 50  1  0
 16 51  1  0
 16 52  1  0
 17 53  1  0
 17 54  1  0
 19 55  1  0
 20 56  1  0
 21 57  1  0
 22 58  1  0
 23 59  1  0
 24 60  1  0
 25 61  1  0
 26 62  1  0
 28 63  1  0
A    1
C1
A    2
C2
A    3
C3
A    4
C4
A    5
C5
A    6
C6
A    7
C7
A    8
C8
A    9
C9
A   10
C10
A   11
C11
A   12
C12
A   13
C13
A   14
C14
A   15
C15
A   16
C16
A   17
C17
A   18
C18
A   19
C19
A   20
C20
A   21
C21
A   22
C22
A   23
C23
A   24
N1
A   25
N2
A   26
N3
A   27
O1
A   28
O2
A   29
O3
A   30
O4
A   31
S1
A   32
S2
M  END
