1JKX_138_A_1221
     RDKit          3D

 89 92  0  0  0  0  0  0  0  0999 V2000
   28.1530    5.2640   57.5190 N   0  0  0  0  0  0  0  0  0  0  0  0
   28.8800    5.5280   58.7020 C   0  0  0  0  0  0  0  0  0  0  0  0
   30.1310    4.8170   58.9720 N   0  0  0  0  0  0  0  0  0  0  0  0
   28.3980    6.4830   59.6330 N   0  0  0  0  0  0  0  0  0  0  0  0
   27.1840    7.1810   59.3990 C   0  0  0  0  0  0  0  0  0  0  0  0
   26.7480    8.1210   60.3610 O   0  0  0  0  0  0  0  0  0  0  0  0
   26.4330    6.9210   58.2170 C   0  0  0  0  0  0  0  0  0  0  0  0
   26.9300    5.9480   57.2570 C   0  0  0  0  0  0  0  0  0  0  0  0
   26.1920    5.6730   56.0540 C   0  0  0  0  0  0  0  0  0  0  0  0
   24.9520    6.3520   55.8020 C   0  0  0  0  0  0  0  0  0  0  0  0
   24.4480    7.3200   56.7710 C   0  0  0  0  0  0  0  0  0  0  0  0
   23.0890    8.0490   56.5520 C   0  0  0  0  0  0  0  0  0  0  0  0
   21.8720    7.3770   57.4170 C   0  0  0  0  0  0  0  0  0  0  0  0
   22.0650    7.5800   58.8300 O   0  0  0  0  0  0  0  0  0  0  0  0
   20.4830    7.9750   57.0240 C   0  0  0  0  0  0  0  0  0  0  0  0
   25.1940    7.6010   57.9650 C   0  0  0  0  0  0  0  0  0  0  0  0
   22.2130    4.8380   58.0830 C   0  0  0  0  0  0  0  0  0  0  0  0
   22.0980    3.4450   57.8000 C   0  0  0  0  0  0  0  0  0  0  0  0
   21.5090    3.0100   56.5550 C   0  0  0  0  0  0  0  0  0  0  0  0
   21.3820    1.5370   56.2200 C   0  0  0  0  0  0  0  0  0  0  0  0
   21.3040    0.7380   57.4150 O   0  0  0  0  0  0  0  0  0  0  0  0
   21.0380    3.9650   55.5980 C   0  0  0  0  0  0  0  0  0  0  0  0
   21.1470    5.3560   55.8640 C   0  0  0  0  0  0  0  0  0  0  0  0
   21.7400    5.8210   57.1180 C   0  0  0  0  0  0  0  0  0  0  0  0
   21.3560    1.0770   54.9870 N   0  0  0  0  0  0  0  0  0  0  0  0
   21.2360   -0.3500   54.7660 C   0  0  0  0  0  0  0  0  0  0  0  0
   22.6000   -0.9870   54.5820 C   0  0  0  0  0  0  0  0  0  0  0  0
   22.5760   -2.3890   54.3770 O   0  0  0  0  0  0  0  0  0  0  0  0
   23.6630   -0.3260   54.6130 O   0  0  0  0  0  0  0  0  0  0  0  0
   20.3100   -0.5920   53.5210 C   0  0  0  0  0  0  0  0  0  0  0  0
   18.8220   -0.1050   53.6290 C   0  0  0  0  0  0  0  0  0  0  0  0
   17.8660   -0.3130   52.4520 C   0  0  0  0  0  0  0  0  0  0  0  0
   16.7720   -0.9200   52.6210 O   0  0  0  0  0  0  0  0  0  0  0  0
   18.2120    0.1520   51.3410 O   0  0  0  0  0  0  0  0  0  0  0  0
   18.5910   14.5210   52.7180 C   0  0  0  0  0  0  0  0  0  0  0  0
   17.4660   15.3180   53.1580 O   0  0  0  0  0  0  0  0  0  0  0  0
   19.4680   13.9790   53.8390 C   0  0  0  0  0  0  0  0  0  0  0  0
   19.4130   14.7110   55.0410 O   0  0  0  0  0  0  0  0  0  0  0  0
   18.9850   12.5820   54.0180 C   0  0  0  0  0  0  0  0  0  0  0  0
   18.8180   12.1830   52.6820 O   0  0  0  0  0  0  0  0  0  0  0  0
   18.1850   13.2560   51.9740 C   0  0  0  0  0  0  0  0  0  0  0  0
   18.7150   13.2860   50.5460 C   0  0  0  0  0  0  0  0  0  0  0  0
   18.0930   14.3330   49.7990 O   0  0  0  0  0  0  0  0  0  0  0  0
   19.9430   11.6770   54.6190 N   0  0  0  0  0  0  0  0  0  0  0  0
   19.6420   10.8410   55.5860 C   0  0  0  0  0  0  0  0  0  0  0  0
   18.4720   10.4630   55.7880 O   0  0  0  0  0  0  0  0  0  0  0  0
   20.8110   10.3510   56.4620 C   0  0  0  0  0  0  0  0  0  0  0  0
   20.6200    9.3990   57.6010 N   0  0  0  0  0  0  0  0  0  0  0  0
   18.4950   14.6210   48.3260 P   0  0  0  0  0  0  0  0  0  0  0  0
   19.7810   15.4790   48.5740 O   0  0  0  0  0  0  0  0  0  0  0  0
   17.3370   15.4450   47.6230 O   0  0  0  0  0  0  0  0  0  0  0  0
   18.7570   13.4310   47.5820 O   0  0  0  0  0  0  0  0  0  0  0  0
   30.4280    4.6482   59.9437 H   0  0  0  0  0  0  0  0  0  0  0  0
   30.7141    4.4856   58.1903 H   0  0  0  0  0  0  0  0  0  0  0  0
   26.8408    7.9209   61.3261 H   0  0  0  0  0  0  0  0  0  0  0  0
   26.5771    4.9428   55.3270 H   0  0  0  0  0  0  0  0  0  0  0  0
   24.3847    6.1435   54.8829 H   0  0  0  0  0  0  0  0  0  0  0  0
   23.1994    9.1004   56.8560 H   0  0  0  0  0  0  0  0  0  0  0  0
   22.8302    7.9618   55.4864 H   0  0  0  0  0  0  0  0  0  0  0  0
   21.4784    6.9630   59.3352 H   0  0  0  0  0  0  0  0  0  0  0  0
   20.3408    7.9902   55.9333 H   0  0  0  0  0  0  0  0  0  0  0  0
   19.6168    7.4092   57.3976 H   0  0  0  0  0  0  0  0  0  0  0  0
   24.8156    8.3386   58.6880 H   0  0  0  0  0  0  0  0  0  0  0  0
   22.6597    5.1706   59.0316 H   0  0  0  0  0  0  0  0  0  0  0  0
   22.4572    2.7032   58.5285 H   0  0  0  0  0  0  0  0  0  0  0  0
   20.5904    3.6205   54.6540 H   0  0  0  0  0  0  0  0  0  0  0  0
   20.7845    6.0857   55.1250 H   0  0  0  0  0  0  0  0  0  0  0  0
   21.4202    1.7241   54.1882 H   0  0  0  0  0  0  0  0  0  0  0  0
   20.7816   -0.8255   55.6477 H   0  0  0  0  0  0  0  0  0  0  0  0
   22.5655   -3.0027   55.1537 H   0  0  0  0  0  0  0  0  0  0  0  0
   20.7661   -0.0751   52.6638 H   0  0  0  0  0  0  0  0  0  0  0  0
   20.2443   -1.6858   53.4246 H   0  0  0  0  0  0  0  0  0  0  0  0
   18.3798   -0.6217   54.4936 H   0  0  0  0  0  0  0  0  0  0  0  0
   18.9158    0.9892   53.6909 H   0  0  0  0  0  0  0  0  0  0  0  0
   18.8024    0.9455   51.2987 H   0  0  0  0  0  0  0  0  0  0  0  0
   19.1257   15.2473   52.0882 H   0  0  0  0  0  0  0  0  0  0  0  0
   17.4410   15.3357   54.1475 H   0  0  0  0  0  0  0  0  0  0  0  0
   20.5322   14.0500   53.5698 H   0  0  0  0  0  0  0  0  0  0  0  0
   19.4598   14.0882   55.8091 H   0  0  0  0  0  0  0  0  0  0  0  0
   18.1085   12.5524   54.6820 H   0  0  0  0  0  0  0  0  0  0  0  0
   17.0911   13.1507   51.9270 H   0  0  0  0  0  0  0  0  0  0  0  0
   19.8019   13.4542   50.5676 H   0  0  0  0  0  0  0  0  0  0  0  0
   18.4875   12.3239   50.0638 H   0  0  0  0  0  0  0  0  0  0  0  0
   20.9118   11.6898   54.2694 H   0  0  0  0  0  0  0  0  0  0  0  0
   21.5241    9.8686   55.7773 H   0  0  0  0  0  0  0  0  0  0  0  0
   21.1012   11.2735   56.9862 H   0  0  0  0  0  0  0  0  0  0  0  0
   19.7673    9.6469   58.1229 H   0  0  0  0  0  0  0  0  0  0  0  0
   19.9291   15.5778   49.5479 H   0  0  0  0  0  0  0  0  0  0  0  0
   16.7588   15.8564   48.3133 H   0  0  0  0  0  0  0  0  0  0  0  0
  1  2  2  0
  1  8  1  0
  2  3  1  0
  2  4  1  0
  4  5  2  0
  5  6  1  0
  5  7  1  0
  7  8  2  0
  7 16  1  0
  8  9  1  0
  9 10  2  0
 10 11  1  0
 11 12  1  0
 11 16  2  0
 12 13  1  0
 13 14  1  0
 13 15  1  0
 13 24  1  0
 15 48  1  0
 17 18  2  0
 17 24  1  0
 18 19  1  0
 19 20  1  0
 19 22  2  0
 20 21  2  0
 20 25  1  0
 22 23  1  0
 23 24  2  0
 25 26  1  0
 26 27  1  0
 26 30  1  0
 27 28  1  0
 27 29  2  0
 30 31  1  0
 31 32  1  0
 32 33  2  0
 32 34  1  0
 35 36  1  0
 35 37  1  0
 35 41  1  0
 37 38  1  0
 37 39  1  0
 39 40  1  0
 39 44  1  0
 40 41  1  0
 41 42  1  0
 42 43  1  0
 43 49  1  0
 44 45  1  0
 45 46  2  0
 45 47  1  0
 47 48  1  0
 49 50  1  0
 49 51  1  0
 49 52  2  0
  3 53  1  0
  3 54  1  0
  6 55  1  0
  9 56  1  0
 10 57  1  0
 12 58  1  0
 12 59  1  0
 14 60  1  0
 15 61  1  0
 15 62  1  0
 16 63  1  0
 17 64  1  0
 18 65  1  0
 22 66  1  0
 23 67  1  0
 25 68  1  0
 26 69  1  0
 28 70  1  0
 30 71  1  0
 30 72  1  0
 31 73  1  0
 31 74  1  0
 34 75  1  0
 35 76  1  0
 36 77  1  0
 37 78  1  0
 38 79  1  0
 39 80  1  0
 41 81  1  0
 42 82  1  0
 42 83  1  0
 44 84  1  0
 47 85  1  0
 47 86  1  0
 48 87  1  0
 50 88  1  0
 51 89  1  0
A    1
N1
A    2
C2
A    3
NA2
A    4
N3
A    5
C4
A    6
O4
A    7
C4A
A    8
C8A
A    9
C8
A   10
C7
A   11
C6
A   12
C9
A   13
C10
A   14
OA2
A   15
CA1
A   16
C5
A   17
C13
A   18
C12
A   19
C11
A   20
C17
A   21
O17
A   22
C16
A   23
C15
A   24
C14
A   25
N
A   26
CA
A   27
C
A   28
O
A   29
OT
A   30
CB
A   31
CG
A   32
CD
A   33
OE2
A   34
OE1
A   35
C24
A   36
O24
A   37
C23
A   38
O23
A   39
C22
A   40
O26
A   41
C25
A   42
C27
A   43
O28
A   44
N21
A   45
C20
A   46
O20
A   47
C19
A   48
N18
A   49
P29
A   50
O30
A   51
O31
A   52
O32
M  END
