1JLA_TNK_A_999
     RDKit          3D

 51 53  0  0  0  0  0  0  0  0999 V2000
   -1.3780  -34.4600   27.0050 C   0  0  0  0  0  0  0  0  0  0  0  0
   -2.1390  -33.8020   27.9850 C   0  0  0  0  0  0  0  0  0  0  0  0
   -1.5300  -32.8260   28.8160 C   0  0  0  0  0  0  0  0  0  0  0  0
   -0.1520  -32.5130   28.6540 C   0  0  0  0  0  0  0  0  0  0  0  0
    0.6070  -33.1720   27.6660 C   0  0  0  0  0  0  0  0  0  0  0  0
   -0.0120  -34.1430   26.8430 C   0  0  0  0  0  0  0  0  0  0  0  0
   -1.8260  -35.6760   24.6790 C   0  0  0  0  0  0  0  0  0  0  0  0
   -2.6010  -34.8070   23.8740 N   0  0  0  0  0  0  0  0  0  0  0  0
   -2.5220  -34.8430   22.4620 C   0  0  0  0  0  0  0  0  0  0  0  0
   -3.2020  -34.1350   21.7220 O   0  0  0  0  0  0  0  0  0  0  0  0
   -1.6430  -35.7660   21.9260 N   0  0  0  0  0  0  0  0  0  0  0  0
   -0.8410  -36.6590   22.6310 C   0  0  0  0  0  0  0  0  0  0  0  0
   -0.0970  -37.4240   22.0200 O   0  0  0  0  0  0  0  0  0  0  0  0
   -0.9480  -36.6120   24.0760 C   0  0  0  0  0  0  0  0  0  0  0  0
   -2.0230  -35.5800   26.2030 C   0  0  0  0  0  0  0  0  0  0  0  0
   -0.1340  -37.7070   24.7950 C   0  0  0  0  0  0  0  0  0  0  0  0
   -0.9790  -38.7840   25.5020 C   0  0  0  0  0  0  0  0  0  0  0  0
    1.0590  -37.1900   25.5710 C   0  0  0  0  0  0  0  0  0  0  0  0
   -3.5950  -33.8570   24.4600 C   0  0  0  0  0  0  0  0  0  0  0  0
   -4.8720  -34.0610   23.8810 O   0  0  0  0  0  0  0  0  0  0  0  0
   -5.9150  -33.9310   24.8330 C   0  0  0  0  0  0  0  0  0  0  0  0
   -7.0520  -34.8480   24.5050 C   0  0  0  0  0  0  0  0  0  0  0  0
   -6.9530  -35.7380   23.4180 C   0  0  0  0  0  0  0  0  0  0  0  0
   -7.9700  -36.6810   23.1770 C   0  0  0  0  0  0  0  0  0  0  0  0
   -9.0930  -36.7290   24.0330 C   0  0  0  0  0  0  0  0  0  0  0  0
   -9.1890  -35.8280   25.1210 C   0  0  0  0  0  0  0  0  0  0  0  0
   -8.1640  -34.8880   25.3500 C   0  0  0  0  0  0  0  0  0  0  0  0
   -3.2052  -34.0427   28.1082 H   0  0  0  0  0  0  0  0  0  0  0  0
   -2.1239  -32.3114   29.5857 H   0  0  0  0  0  0  0  0  0  0  0  0
    0.3207  -31.7576   29.2989 H   0  0  0  0  0  0  0  0  0  0  0  0
    1.6728  -32.9334   27.5355 H   0  0  0  0  0  0  0  0  0  0  0  0
    0.5776  -34.6560   26.0690 H   0  0  0  0  0  0  0  0  0  0  0  0
   -1.5746  -35.7959   20.8987 H   0  0  0  0  0  0  0  0  0  0  0  0
   -1.6499  -36.5239   26.6271 H   0  0  0  0  0  0  0  0  0  0  0  0
   -3.0964  -35.3582   26.2957 H   0  0  0  0  0  0  0  0  0  0  0  0
    0.3324  -38.2770   23.9779 H   0  0  0  0  0  0  0  0  0  0  0  0
   -0.8863  -38.6659   26.5917 H   0  0  0  0  0  0  0  0  0  0  0  0
   -2.0336  -38.6731   25.2095 H   0  0  0  0  0  0  0  0  0  0  0  0
   -0.6204  -39.7819   25.2095 H   0  0  0  0  0  0  0  0  0  0  0  0
    0.8602  -37.2761   26.6495 H   0  0  0  0  0  0  0  0  0  0  0  0
    1.9489  -37.7832   25.3136 H   0  0  0  0  0  0  0  0  0  0  0  0
    1.2346  -36.1350   25.3136 H   0  0  0  0  0  0  0  0  0  0  0  0
   -3.6584  -34.0224   25.5457 H   0  0  0  0  0  0  0  0  0  0  0  0
   -3.2694  -32.8267   24.2537 H   0  0  0  0  0  0  0  0  0  0  0  0
   -5.5258  -34.1819   25.8308 H   0  0  0  0  0  0  0  0  0  0  0  0
   -6.2819  -32.8941   24.8145 H   0  0  0  0  0  0  0  0  0  0  0  0
   -6.0769  -35.6961   22.7542 H   0  0  0  0  0  0  0  0  0  0  0  0
   -7.8909  -37.3758   22.3279 H   0  0  0  0  0  0  0  0  0  0  0  0
   -9.8910  -37.4648   23.8546 H   0  0  0  0  0  0  0  0  0  0  0  0
  -10.0634  -35.8616   25.7875 H   0  0  0  0  0  0  0  0  0  0  0  0
   -8.2395  -34.1862   26.1936 H   0  0  0  0  0  0  0  0  0  0  0  0
  1  2  2  0
  1  6  1  0
  1 15  1  0
  2  3  1  0
  3  4  2  0
  4  5  1  0
  5  6  2  0
  7  8  1  0
  7 14  2  0
  7 15  1  0
  8  9  1  0
  8 19  1  0
  9 10  2  0
  9 11  1  0
 11 12  1  0
 12 13  2  0
 12 14  1  0
 14 16  1  0
 16 17  1  0
 16 18  1  0
 19 20  1  0
 20 21  1  0
 21 22  1  0
 22 23  2  0
 22 27  1  0
 23 24  1  0
 24 25  2  0
 25 26  1  0
 26 27  2  0
  2 28  1  0
  3 29  1  0
  4 30  1  0
  5 31  1  0
  6 32  1  0
 11 33  1  0
 15 34  1  0
 15 35  1  0
 16 36  1  0
 17 37  1  0
 17 38  1  0
 17 39  1  0
 18 40  1  0
 18 41  1  0
 18 42  1  0
 19 43  1  0
 19 44  1  0
 21 45  1  0
 21 46  1  0
 23 47  1  0
 24 48  1  0
 25 49  1  0
 26 50  1  0
 27 51  1  0
A    1
C1
A    2
C2
A    3
C3
A    4
C4
A    5
C5
A    6
C6
A    7
C7
A    8
N8
A    9
C9
A   10
O9
A   11
N10
A   12
C11
A   13
O11
A   14
C12
A   15
C13
A   16
C14
A   17
C15
A   18
C16
A   19
C17
A   20
O17
A   21
C18
A   22
C19
A   23
C20
A   24
C21
A   25
C22
A   26
C23
A   27
C24
M  END
