1JLD_0PP_A_100
     RDKit          3D

 99101  0  0  0  0  0  0  0  0999 V2000
   50.5590   24.7130    8.9000 C   0  0  0  0  0  0  0  0  0  0  0  0
   51.4700   25.4350    9.3670 O   0  0  0  0  0  0  0  0  0  0  0  0
   48.1710   24.2520    8.6240 N   0  0  0  0  0  0  0  0  0  0  0  0
   49.1780   25.0630    9.0140 C   0  0  0  0  0  0  0  0  0  0  0  0
   48.7950   26.2640    9.6010 C   0  0  0  0  0  0  0  0  0  0  0  0
   47.4710   26.5910    9.7860 C   0  0  0  0  0  0  0  0  0  0  0  0
   45.1340   25.9660    9.6050 C   0  0  0  0  0  0  0  0  0  0  0  0
   44.1780   25.0330    9.2070 C   0  0  0  0  0  0  0  0  0  0  0  0
   44.5670   23.8590    8.5830 C   0  0  0  0  0  0  0  0  0  0  0  0
   45.9120   23.5790    8.4230 C   0  0  0  0  0  0  0  0  0  0  0  0
   46.4930   25.6790    9.4010 C   0  0  0  0  0  0  0  0  0  0  0  0
   46.8650   24.4980    8.8280 C   0  0  0  0  0  0  0  0  0  0  0  0
   50.8130   23.5560    8.2440 N   0  0  0  0  0  0  0  0  0  0  0  0
   52.0030   22.8000    7.8570 C   0  0  0  0  0  0  0  0  0  0  0  0
   51.9010   22.5860    6.3820 C   0  0  0  0  0  0  0  0  0  0  0  0
   51.5660   21.5230    5.8780 O   0  0  0  0  0  0  0  0  0  0  0  0
   52.2940   21.5030    8.6990 C   0  0  0  0  0  0  0  0  0  0  0  0
   52.2630   21.7830   10.0830 O   0  0  0  0  0  0  0  0  0  0  0  0
   53.6660   20.9320    8.4200 C   0  0  0  0  0  0  0  0  0  0  0  0
   52.1260   23.6900    5.6800 N   0  0  0  0  0  0  0  0  0  0  0  0
   51.9530   23.7360    4.2490 C   0  0  0  0  0  0  0  0  0  0  0  0
   53.1780   23.2420    3.4810 C   0  0  0  0  0  0  0  0  0  0  0  0
   54.2820   24.0700    3.7580 O   0  0  0  0  0  0  0  0  0  0  0  0
   51.4800   25.1470    3.9090 C   0  0  0  0  0  0  0  0  0  0  0  0
   50.2000   25.4940    4.6090 C   0  0  0  0  0  0  0  0  0  0  0  0
   49.0140   24.8240    4.3060 C   0  0  0  0  0  0  0  0  0  0  0  0
   50.1550   26.4840    5.5930 C   0  0  0  0  0  0  0  0  0  0  0  0
   47.8180   25.1670    4.9520 C   0  0  0  0  0  0  0  0  0  0  0  0
   48.9750   26.8020    6.2710 C   0  0  0  0  0  0  0  0  0  0  0  0
   47.7900   26.1530    5.9400 C   0  0  0  0  0  0  0  0  0  0  0  0
   53.0020   23.2400    1.9740 C   0  0  0  0  0  0  0  0  0  0  0  0
   53.8160   22.1940    1.3720 N   0  0  0  0  0  0  0  0  0  0  0  0
   53.3310   21.0160    1.0390 C   0  0  0  0  0  0  0  0  0  0  0  0
   52.1730   20.6780    1.2170 O   0  0  0  0  0  0  0  0  0  0  0  0
   54.3530   20.0750    0.4120 C   0  0  0  0  0  0  0  0  0  0  0  0
   55.0150   19.0140    1.3740 C   0  0  0  0  0  0  0  0  0  0  0  0
   54.1180   17.8190    1.6870 C   0  0  0  0  0  0  0  0  0  0  0  0
   56.2290   18.4800    0.6270 C   0  0  0  0  0  0  0  0  0  0  0  0
   55.3950   19.6960    2.6770 C   0  0  0  0  0  0  0  0  0  0  0  0
   53.7680   19.5300   -0.9070 C   0  0  0  0  0  0  0  0  0  0  0  0
   53.5070   20.6100   -1.9390 C   0  0  0  0  0  0  0  0  0  0  0  0
   54.4620   21.3520   -2.5570 O   0  0  0  0  0  0  0  0  0  0  0  0
   52.2540   20.8780   -2.3260 N   0  0  0  0  0  0  0  0  0  0  0  0
   51.9150   21.8640   -3.3120 C   0  0  0  0  0  0  0  0  0  0  0  0
   51.3430   21.1730   -4.5400 C   0  0  0  0  0  0  0  0  0  0  0  0
   52.0920   19.8800   -4.9720 C   0  0  0  0  0  0  0  0  0  0  0  0
   50.8200   22.7680   -2.7800 C   0  0  0  0  0  0  0  0  0  0  0  0
   51.1740   23.6170   -1.5270 C   0  0  0  0  0  0  0  0  0  0  0  0
   49.5714   26.9720    9.9264 H   0  0  0  0  0  0  0  0  0  0  0  0
   47.1905   27.5572   10.2308 H   0  0  0  0  0  0  0  0  0  0  0  0
   44.8280   26.9136   10.0723 H   0  0  0  0  0  0  0  0  0  0  0  0
   43.1111   25.2296    9.3890 H   0  0  0  0  0  0  0  0  0  0  0  0
   43.8087   23.1517    8.2159 H   0  0  0  0  0  0  0  0  0  0  0  0
   46.2249   22.6250    7.9735 H   0  0  0  0  0  0  0  0  0  0  0  0
   49.9466   23.0893    7.9400 H   0  0  0  0  0  0  0  0  0  0  0  0
   52.9043   23.3822    8.0994 H   0  0  0  0  0  0  0  0  0  0  0  0
   51.5134   20.7843    8.4090 H   0  0  0  0  0  0  0  0  0  0  0  0
   52.3564   20.9393   10.5925 H   0  0  0  0  0  0  0  0  0  0  0  0
   54.1754   20.7200    9.3716 H   0  0  0  0  0  0  0  0  0  0  0  0
   53.5653   20.0011    7.8427 H   0  0  0  0  0  0  0  0  0  0  0  0
   54.2555   21.6595    7.8427 H   0  0  0  0  0  0  0  0  0  0  0  0
   52.4338   24.5405    6.1728 H   0  0  0  0  0  0  0  0  0  0  0  0
   51.1857   23.0223    3.9143 H   0  0  0  0  0  0  0  0  0  0  0  0
   53.3299   22.2052    3.8156 H   0  0  0  0  0  0  0  0  0  0  0  0
   54.3939   24.1539    4.7381 H   0  0  0  0  0  0  0  0  0  0  0  0
   52.2565   25.8647    4.2123 H   0  0  0  0  0  0  0  0  0  0  0  0
   51.2978   25.1925    2.8251 H   0  0  0  0  0  0  0  0  0  0  0  0
   49.0176   24.0206    3.5546 H   0  0  0  0  0  0  0  0  0  0  0  0
   51.0767   27.0303    5.8421 H   0  0  0  0  0  0  0  0  0  0  0  0
   46.8866   24.6509    4.6760 H   0  0  0  0  0  0  0  0  0  0  0  0
   48.9833   27.5637    7.0645 H   0  0  0  0  0  0  0  0  0  0  0  0
   46.8488   26.4117    6.4471 H   0  0  0  0  0  0  0  0  0  0  0  0
   51.9439   23.0608    1.7324 H   0  0  0  0  0  0  0  0  0  0  0  0
   53.3195   24.2148    1.5752 H   0  0  0  0  0  0  0  0  0  0  0  0
   54.8136   22.3834    1.1992 H   0  0  0  0  0  0  0  0  0  0  0  0
   55.2544   20.6591    0.1747 H   0  0  0  0  0  0  0  0  0  0  0  0
   54.0302   17.7020    2.7772 H   0  0  0  0  0  0  0  0  0  0  0  0
   53.1204   17.9861    1.2546 H   0  0  0  0  0  0  0  0  0  0  0  0
   54.5570   16.9078    1.2546 H   0  0  0  0  0  0  0  0  0  0  0  0
   56.9873   18.1464    1.3507 H   0  0  0  0  0  0  0  0  0  0  0  0
   55.9269   17.6317   -0.0048 H   0  0  0  0  0  0  0  0  0  0  0  0
   56.6501   19.2760   -0.0048 H   0  0  0  0  0  0  0  0  0  0  0  0
   55.0537   19.0835    3.5246 H   0  0  0  0  0  0  0  0  0  0  0  0
   56.4878   19.8120    2.7250 H   0  0  0  0  0  0  0  0  0  0  0  0
   54.9187   20.6863    2.7250 H   0  0  0  0  0  0  0  0  0  0  0  0
   54.4791   18.8060   -1.3315 H   0  0  0  0  0  0  0  0  0  0  0  0
   52.7991   19.0676   -0.6672 H   0  0  0  0  0  0  0  0  0  0  0  0
   51.4878   20.3450   -1.8903 H   0  0  0  0  0  0  0  0  0  0  0  0
   52.8218   22.4376   -3.5544 H   0  0  0  0  0  0  0  0  0  0  0  0
   50.2972   20.9070   -4.3264 H   0  0  0  0  0  0  0  0  0  0  0  0
   51.4500   21.8843   -5.3723 H   0  0  0  0  0  0  0  0  0  0  0  0
   52.4129   19.3260   -4.0775 H   0  0  0  0  0  0  0  0  0  0  0  0
   51.4192   19.2496   -5.5720 H   0  0  0  0  0  0  0  0  0  0  0  0
   52.9735   20.1500   -5.5720 H   0  0  0  0  0  0  0  0  0  0  0  0
   50.5376   23.4617   -3.5856 H   0  0  0  0  0  0  0  0  0  0  0  0
   50.0138   22.0926   -2.4577 H   0  0  0  0  0  0  0  0  0  0  0  0
   50.9358   23.0457   -0.6177 H   0  0  0  0  0  0  0  0  0  0  0  0
   52.2473   23.8574   -1.5383 H   0  0  0  0  0  0  0  0  0  0  0  0
   50.5894   24.5487   -1.5383 H   0  0  0  0  0  0  0  0  0  0  0  0
  2  1  2  0
  1  4  1  0
  3  4  2  0
  3 12  1  0
  4  5  1  0
  5  6  2  0
  6 11  1  0
 11  7  1  0
 11 12  2  0
  7  8  2  0
  8  9  1  0
  9 10  2  0
 10 12  1  0
 13 14  1  0
 14 15  1  0
 14 17  1  0
 15 16  2  0
 17 18  1  0
 17 19  1  0
 20 21  1  0
 21 22  1  0
 21 24  1  0
 22 23  1  0
 22 31  1  0
 24 25  1  0
 25 26  2  0
 25 27  1  0
 26 28  1  0
 27 29  2  0
 28 30  2  0
 29 30  1  0
 32 33  1  0
 33 34  2  0
 33 35  1  0
 35 36  1  0
 35 40  1  0
 36 37  1  0
 36 38  1  0
 36 39  1  0
 40 41  1  0
 41 42  2  0
 41 43  1  0
 43 44  1  0
 44 45  1  0
 44 47  1  0
 45 46  1  0
 47 48  1  0
  1 13  1  0
 15 20  1  0
 31 32  1  0
  5 49  1  0
  6 50  1  0
  7 51  1  0
  8 52  1  0
  9 53  1  0
 10 54  1  0
 13 55  1  0
 14 56  1  0
 17 57  1  0
 18 58  1  0
 19 59  1  0
 19 60  1  0
 19 61  1  0
 20 62  1  0
 21 63  1  0
 22 64  1  0
 23 65  1  0
 24 66  1  0
 24 67  1  0
 26 68  1  0
 27 69  1  0
 28 70  1  0
 29 71  1  0
 30 72  1  0
 31 73  1  0
 31 74  1  0
 32 75  1  0
 35 76  1  0
 37 77  1  0
 37 78  1  0
 37 79  1  0
 38 80  1  0
 38 81  1  0
 38 82  1  0
 39 83  1  0
 39 84  1  0
 39 85  1  0
 40 86  1  0
 40 87  1  0
 43 88  1  0
 44 89  1  0
 45 90  1  0
 45 91  1  0
 46 92  1  0
 46 93  1  0
 46 94  1  0
 47 95  1  0
 47 96  1  0
 48 97  1  0
 48 98  1  0
 48 99  1  0
A    1
C
A    2
O
A    3
N1
A    4
C2
A    5
C3
A    6
C4
A    7
C5
A    8
C6
A    9
C7
A   10
C8
A   11
C4A
A   12
C8A
A   13
N
A   14
CA
A   15
C1
A   16
O1
A   17
CB
A   18
OG1
A   19
CG2
A   20
N2
A   21
CA1
A   22
C9
A   23
OXT
A   24
CB1
A   25
CG
A   26
CD1
A   27
CD2
A   28
CE1
A   29
CE2
A   30
CZ
A   31
CM
A   32
N'
A   33
C'
A   34
O'
A   35
C2'
A   36
CT1
A   37
CT2
A   38
CT3
A   39
CT4
A   40
C1'
A   41
CC
A   42
O2
A   43
N3
A   44
C31
A   45
C41
A   46
C51
A   47
C21
A   48
C11
M  END
