1JN2_SFP_P_1001
     RDKit          3D

 56 58  0  0  0  0  0  0  0  0999 V2000
   26.7480   27.5660   27.2040 C   0  0  0  0  0  0  0  0  0  0  0  0
   25.9960   27.5080   28.3980 C   0  0  0  0  0  0  0  0  0  0  0  0
   26.8860   27.4290   29.4890 N   0  0  0  0  0  0  0  0  0  0  0  0
   24.6030   27.4930   28.4970 C   0  0  0  0  0  0  0  0  0  0  0  0
   23.8700   27.4580   29.6670 C   0  0  0  0  0  0  0  0  0  0  0  0
   22.4860   27.4170   29.7550 C   0  0  0  0  0  0  0  0  0  0  0  0
   22.1440   27.4230   31.0570 C   0  0  0  0  0  0  0  0  0  0  0  0
   23.3260   27.4580   31.8240 C   0  0  0  0  0  0  0  0  0  0  0  0
   24.3970   27.4700   30.9590 N   0  0  0  0  0  0  0  0  0  0  0  0
   23.4050   27.4760   33.2090 C   0  0  0  0  0  0  0  0  0  0  0  0
   24.6030   27.4460   33.9590 C   0  0  0  0  0  0  0  0  0  0  0  0
   24.7010   27.4550   35.3610 C   0  0  0  0  0  0  0  0  0  0  0  0
   25.9070   27.3550   33.4250 N   0  0  0  0  0  0  0  0  0  0  0  0
   21.0460   28.4630   33.6140 C   0  0  0  0  0  0  0  0  0  0  0  0
   19.8510   28.4480   34.2740 C   0  0  0  0  0  0  0  0  0  0  0  0
   19.6210   27.5040   35.2930 C   0  0  0  0  0  0  0  0  0  0  0  0
   20.5910   26.5480   35.6600 C   0  0  0  0  0  0  0  0  0  0  0  0
   21.8030   26.5300   35.0020 C   0  0  0  0  0  0  0  0  0  0  0  0
   22.0530   27.4960   33.9640 C   0  0  0  0  0  0  0  0  0  0  0  0
   23.9640   26.3540   26.3180 C   0  0  0  0  0  0  0  0  0  0  0  0
   23.7750   27.4790   27.1880 C   0  0  0  0  0  0  0  0  0  0  0  0
   22.8410   28.5110   26.8480 C   0  0  0  0  0  0  0  0  0  0  0  0
   22.1130   28.3970   25.6420 C   0  0  0  0  0  0  0  0  0  0  0  0
   22.3190   27.2950   24.8070 C   0  0  0  0  0  0  0  0  0  0  0  0
   23.2370   26.2690   25.1250 C   0  0  0  0  0  0  0  0  0  0  0  0
   18.0950   27.4980   36.1410 S   0  0  0  0  0  0  0  0  0  0  0  0
   17.2430   28.5390   35.6510 O   0  0  0  0  0  0  0  0  0  0  0  0
   18.4080   27.6960   37.5150 O   0  0  0  0  0  0  0  0  0  0  0  0
   17.4300   26.1250   35.9280 O   0  0  0  0  0  0  0  0  0  0  0  0
   21.4420   27.1510   23.3080 S   0  0  0  0  0  0  0  0  0  0  0  0
   22.3500   27.4330   22.2650 O   0  0  0  0  0  0  0  0  0  0  0  0
   20.3390   28.0710   23.2660 O   0  0  0  0  0  0  0  0  0  0  0  0
   20.9530   25.7200   23.2290 O   0  0  0  0  0  0  0  0  0  0  0  0
   26.2347   27.6317   26.2333 H   0  0  0  0  0  0  0  0  0  0  0  0
   27.8471   27.5455   27.2447 H   0  0  0  0  0  0  0  0  0  0  0  0
   26.5236   27.4612   30.4526 H   0  0  0  0  0  0  0  0  0  0  0  0
   27.8984   27.3391   29.3223 H   0  0  0  0  0  0  0  0  0  0  0  0
   21.7874   27.3850   28.9059 H   0  0  0  0  0  0  0  0  0  0  0  0
   21.1183   27.4039   31.4541 H   0  0  0  0  0  0  0  0  0  0  0  0
   23.6964   27.3627   35.7994 H   0  0  0  0  0  0  0  0  0  0  0  0
   25.3238   26.6103   35.6905 H   0  0  0  0  0  0  0  0  0  0  0  0
   25.1595   28.3990   35.6905 H   0  0  0  0  0  0  0  0  0  0  0  0
   26.7191   27.2983   34.0560 H   0  0  0  0  0  0  0  0  0  0  0  0
   26.0461   27.3453   32.4045 H   0  0  0  0  0  0  0  0  0  0  0  0
   21.2369   29.2049   32.8246 H   0  0  0  0  0  0  0  0  0  0  0  0
   19.0677   29.1736   34.0096 H   0  0  0  0  0  0  0  0  0  0  0  0
   20.3831   25.8247   36.4623 H   0  0  0  0  0  0  0  0  0  0  0  0
   22.5693   25.7867   35.2670 H   0  0  0  0  0  0  0  0  0  0  0  0
   24.6775   25.5613   26.5875 H   0  0  0  0  0  0  0  0  0  0  0  0
   22.6935   29.3750   27.5126 H   0  0  0  0  0  0  0  0  0  0  0  0
   21.3862   29.1734   25.3611 H   0  0  0  0  0  0  0  0  0  0  0  0
   23.3782   25.4160   24.4450 H   0  0  0  0  0  0  0  0  0  0  0  0
   17.7190   27.2601   38.0766 H   0  0  0  0  0  0  0  0  0  0  0  0
   17.2313   25.7147   36.8068 H   0  0  0  0  0  0  0  0  0  0  0  0
   23.2211   27.7035   22.6499 H   0  0  0  0  0  0  0  0  0  0  0  0
   20.8307   25.3621   24.1439 H   0  0  0  0  0  0  0  0  0  0  0  0
  1  2  2  0
  2  3  1  0
  2  4  1  0
  4  5  2  0
  4 21  1  0
  5  6  1  0
  5  9  1  0
  6  7  2  0
  7  8  1  0
  8  9  2  0
  8 10  1  0
 10 11  2  0
 10 19  1  0
 11 12  1  0
 11 13  1  0
 14 15  2  0
 14 19  1  0
 15 16  1  0
 16 17  2  0
 16 26  1  0
 17 18  1  0
 18 19  2  0
 20 21  2  0
 20 25  1  0
 21 22  1  0
 22 23  2  0
 23 24  1  0
 24 25  2  0
 24 30  1  0
 26 27  1  0
 26 28  1  0
 26 29  1  0
 30 31  1  0
 30 32  1  0
 30 33  1  0
  1 34  1  0
  1 35  1  0
  3 36  1  0
  3 37  1  0
  6 38  1  0
  7 39  1  0
 12 40  1  0
 12 41  1  0
 12 42  1  0
 13 43  1  0
 13 44  1  0
 14 45  1  0
 15 46  1  0
 17 47  1  0
 18 48  1  0
 20 49  1  0
 22 50  1  0
 23 51  1  0
 25 52  1  0
 28 53  1  0
 29 54  1  0
 31 55  1  0
 33 56  1  0
M  CHG  2  27  -1  32  -1
A    1
C2
A    2
C2A
A    3
N2B
A    4
CA
A    5
C4C
A    6
C3
A    7
C4
A    8
C4A
A    9
N4B
A   10
CB
A   11
C6C
A   12
C5
A   13
N6B
A   14
C15
A   15
C16
A   16
C17
A   17
C18
A   18
C19
A   19
C20
A   20
C27
A   21
C28
A   22
C29
A   23
C30
A   24
C31
A   25
C32
A   26
S2
A   27
O5
A   28
O6
A   29
O7
A   30
S4
A   31
O11
A   32
O12
A   33
O13
M  END
