1JNQ_EGT_A_871
     RDKit          3D

 36 38  0  0  0  0  0  0  0  0999 V2000
   21.9960    4.5370   20.0880 O   0  0  0  0  0  0  0  0  0  0  0  0
   21.2800    4.4580   21.3100 C   0  0  0  0  0  0  0  0  0  0  0  0
   20.0180    5.3470   21.0750 C   0  0  0  0  0  0  0  0  0  0  0  0
   19.1680    4.5750   20.0110 C   0  0  0  0  0  0  0  0  0  0  0  0
   20.0060    4.5180   18.7390 C   0  0  0  0  0  0  0  0  0  0  0  0
   19.4280    4.5220   17.4660 C   0  0  0  0  0  0  0  0  0  0  0  0
   20.2280    4.7180   16.3390 C   0  0  0  0  0  0  0  0  0  0  0  0
   21.5970    4.8980   16.4780 C   0  0  0  0  0  0  0  0  0  0  0  0
   22.1930    4.8650   17.7340 C   0  0  0  0  0  0  0  0  0  0  0  0
   21.4150    4.6660   18.8580 C   0  0  0  0  0  0  0  0  0  0  0  0
   20.9770    2.9530   21.4330 C   0  0  0  0  0  0  0  0  0  0  0  0
   20.2410    2.4680   22.5170 C   0  0  0  0  0  0  0  0  0  0  0  0
   19.8690    1.1210   22.5680 C   0  0  0  0  0  0  0  0  0  0  0  0
   20.2350    0.2490   21.5540 C   0  0  0  0  0  0  0  0  0  0  0  0
   20.9800    0.7250   20.4940 C   0  0  0  0  0  0  0  0  0  0  0  0
   21.3360    2.0630   20.4470 C   0  0  0  0  0  0  0  0  0  0  0  0
   19.2840    5.5380   22.2630 O   0  0  0  0  0  0  0  0  0  0  0  0
   18.0990    4.3050   17.3010 O   0  0  0  0  0  0  0  0  0  0  0  0
   22.3440    5.1750   15.3970 O   0  0  0  0  0  0  0  0  0  0  0  0
   19.1480    0.6590   23.6030 O   0  0  0  0  0  0  0  0  0  0  0  0
   19.8380   -1.0450   21.5810 O   0  0  0  0  0  0  0  0  0  0  0  0
   21.4050   -0.1230   19.5260 O   0  0  0  0  0  0  0  0  0  0  0  0
   21.7735    4.8055   22.2296 H   0  0  0  0  0  0  0  0  0  0  0  0
   20.2959    6.3552   20.7338 H   0  0  0  0  0  0  0  0  0  0  0  0
   18.9488    3.5574   20.3666 H   0  0  0  0  0  0  0  0  0  0  0  0
   18.2075    5.0796   19.8299 H   0  0  0  0  0  0  0  0  0  0  0  0
   19.7721    4.7298   15.3380 H   0  0  0  0  0  0  0  0  0  0  0  0
   23.2806    4.9970   17.8322 H   0  0  0  0  0  0  0  0  0  0  0  0
   19.9533    3.1477   23.3327 H   0  0  0  0  0  0  0  0  0  0  0  0
   21.9257    2.4262   19.5924 H   0  0  0  0  0  0  0  0  0  0  0  0
   19.8735    5.3846   23.0434 H   0  0  0  0  0  0  0  0  0  0  0  0
   17.5112    4.2090   18.0918 H   0  0  0  0  0  0  0  0  0  0  0  0
   23.2665    5.5171   15.5072 H   0  0  0  0  0  0  0  0  0  0  0  0
   19.4385    0.8452   24.5309 H   0  0  0  0  0  0  0  0  0  0  0  0
   19.6979   -1.5018   22.4481 H   0  0  0  0  0  0  0  0  0  0  0  0
   21.8346   -0.9802   19.7725 H   0  0  0  0  0  0  0  0  0  0  0  0
  1  2  1  0
  1 10  1  0
  2  3  1  0
  2 11  1  0
  3  4  1  0
  3 17  1  0
  4  5  1  0
  5  6  1  0
  5 10  2  0
  6  7  2  0
  6 18  1  0
  7  8  1  0
  8  9  2  0
  8 19  1  0
  9 10  1  0
 11 12  2  0
 11 16  1  0
 12 13  1  0
 13 14  2  0
 13 20  1  0
 14 15  1  0
 14 21  1  0
 15 16  2  0
 15 22  1  0
  2 23  1  0
  3 24  1  0
  4 25  1  0
  4 26  1  0
  7 27  1  0
  9 28  1  0
 12 29  1  0
 16 30  1  0
 17 31  1  0
 18 32  1  0
 19 33  1  0
 20 34  1  0
 21 35  1  0
 22 36  1  0
A    1
O1
A    2
C2
A    3
C3
A    4
C4
A    5
C5
A    6
C6
A    7
C7
A    8
C8
A    9
C9
A   10
C10
A   11
C11
A   12
C12
A   13
C13
A   14
C14
A   15
C15
A   16
C16
A   17
O17
A   18
O18
A   19
O19
A   20
O20
A   21
O21
A   22
O22
M  END
