1JP3_EGC_A_701
     RDKit          3D

 30 29  0  0  0  0  0  0  0  0999 V2000
   45.7240   29.5000   55.1440 O   0  0  0  0  0  0  0  0  0  0  0  0
   45.8650   30.3780   56.2450 C   0  0  0  0  0  0  0  0  0  0  0  0
   45.8620   31.8170   55.7680 C   0  0  0  0  0  0  0  0  0  0  0  0
   44.6050   32.4250   56.0790 O   0  0  0  0  0  0  0  0  0  0  0  0
   44.4960   33.7430   55.5360 C   0  0  0  0  0  0  0  0  0  0  0  0
   43.5310   33.7470   54.3540 C   0  0  0  0  0  0  0  0  0  0  0  0
   43.3720   35.0860   53.8530 O   0  0  0  0  0  0  0  0  0  0  0  0
   44.6160   35.6530   53.3960 C   0  0  0  0  0  0  0  0  0  0  0  0
   44.6510   35.6840   51.8740 C   0  0  0  0  0  0  0  0  0  0  0  0
   44.6790   37.0410   51.4140 O   0  0  0  0  0  0  0  0  0  0  0  0
   45.4640   37.1930   50.2230 C   0  0  0  0  0  0  0  0  0  0  0  0
   46.6150   38.1630   50.4750 C   0  0  0  0  0  0  0  0  0  0  0  0
   45.5760   28.5783   55.4738 H   0  0  0  0  0  0  0  0  0  0  0  0
   45.0283   30.2242   56.9424 H   0  0  0  0  0  0  0  0  0  0  0  0
   46.8185   30.1690   56.7522 H   0  0  0  0  0  0  0  0  0  0  0  0
   46.6698   32.3702   56.2694 H   0  0  0  0  0  0  0  0  0  0  0  0
   46.0188   31.8405   54.6795 H   0  0  0  0  0  0  0  0  0  0  0  0
   44.1222   34.4264   56.3127 H   0  0  0  0  0  0  0  0  0  0  0  0
   45.4873   34.0728   55.1916 H   0  0  0  0  0  0  0  0  0  0  0  0
   43.9304   33.1044   53.5555 H   0  0  0  0  0  0  0  0  0  0  0  0
   42.5532   33.3669   54.6849 H   0  0  0  0  0  0  0  0  0  0  0  0
   44.7120   36.6783   53.7828 H   0  0  0  0  0  0  0  0  0  0  0  0
   45.4487   35.0345   53.7620 H   0  0  0  0  0  0  0  0  0  0  0  0
   45.5507   35.1600   51.5192 H   0  0  0  0  0  0  0  0  0  0  0  0
   43.7518   35.1870   51.4810 H   0  0  0  0  0  0  0  0  0  0  0  0
   45.8706   36.2145   49.9277 H   0  0  0  0  0  0  0  0  0  0  0  0
   44.8267   37.5908   49.4195 H   0  0  0  0  0  0  0  0  0  0  0  0
   46.7606   38.2857   51.5584 H   0  0  0  0  0  0  0  0  0  0  0  0
   47.5358   37.7644   50.0241 H   0  0  0  0  0  0  0  0  0  0  0  0
   46.3782   39.1380   50.0241 H   0  0  0  0  0  0  0  0  0  0  0  0
  1  2  1  0
  2  3  1  0
  3  4  1  0
  4  5  1  0
  5  6  1  0
  6  7  1  0
  7  8  1  0
  8  9  1  0
  9 10  1  0
 10 11  1  0
 11 12  1  0
  1 13  1  0
  2 14  1  0
  2 15  1  0
  3 16  1  0
  3 17  1  0
  5 18  1  0
  5 19  1  0
  6 20  1  0
  6 21  1  0
  8 22  1  0
  8 23  1  0
  9 24  1  0
  9 25  1  0
 11 26  1  0
 11 27  1  0
 12 28  1  0
 12 29  1  0
 12 30  1  0
A    1
O1
A    2
C2
A    3
C3
A    4
O4
A    5
C5
A    6
C6
A    7
O7
A    8
C8
A    9
C9
A   10
O10
A   11
C11
A   12
C12
M  END
