1AVN_HSM_A_264
     RDKit          3D

 17 17  0  0  0  0  0  0  0  0999 V2000
    0.4720    5.1050    9.7360 N   0  0  0  0  0  0  0  0  0  0  0  0
   -0.6460    5.9190   10.2390 C   0  0  0  0  0  0  0  0  0  0  0  0
   -1.9700    5.5830    9.5670 C   0  0  0  0  0  0  0  0  0  0  0  0
   -3.1410    4.9460   10.2360 C   0  0  0  0  0  0  0  0  0  0  0  0
   -3.4800    3.6270   10.0410 N   0  0  0  0  0  0  0  0  0  0  0  0
   -4.0830    5.4150   11.0870 C   0  0  0  0  0  0  0  0  0  0  0  0
   -4.5450    3.2880   10.7310 C   0  0  0  0  0  0  0  0  0  0  0  0
   -4.9260    4.3630   11.3830 N   0  0  0  0  0  0  0  0  0  0  0  0
    1.0012    4.7197   10.5313 H   0  0  0  0  0  0  0  0  0  0  0  0
    0.1037    4.3329    9.1623 H   0  0  0  0  0  0  0  0  0  0  0  0
   -0.7473    5.7467   11.3207 H   0  0  0  0  0  0  0  0  0  0  0  0
   -0.4176    6.9710   10.0128 H   0  0  0  0  0  0  0  0  0  0  0  0
   -2.3453    6.5374    9.1693 H   0  0  0  0  0  0  0  0  0  0  0  0
   -1.6509    4.7606    8.9099 H   0  0  0  0  0  0  0  0  0  0  0  0
   -4.1620    6.4427   11.4711 H   0  0  0  0  0  0  0  0  0  0  0  0
   -5.0240    2.2981   10.7577 H   0  0  0  0  0  0  0  0  0  0  0  0
   -5.7336    4.4133   12.0203 H   0  0  0  0  0  0  0  0  0  0  0  0
  1  2  1  0
  2  3  1  0
  3  4  1  0
  4  5  1  0
  4  6  2  0
  5  7  2  0
  6  8  1  0
  7  8  1  0
  1  9  1  0
  1 10  1  0
  2 11  1  0
  2 12  1  0
  3 13  1  0
  3 14  1  0
  6 15  1  0
  7 16  1  0
  8 17  1  0
A    1
N
A    2
CA
A    3
CB
A    4
CG
A    5
ND1
A    6
CD2
A    7
CE1
A    8
NE2
M  END
