1JR4_CL4_A_301
     RDKit          3D

 53 56  0  0  0  0  0  0  0  0999 V2000
   40.4570   11.1030   17.9400 C   0  0  0  0  0  0  0  0  0  0  0  0
   40.8130   10.9260   19.3770 C   0  0  0  0  0  0  0  0  0  0  0  0
   39.6320   10.5730   20.1280 N   0  0  0  0  0  0  0  0  0  0  0  0
   41.3070   11.6990   17.1150 C   0  0  0  0  0  0  0  0  0  0  0  0
   40.9620   11.9030   15.7080 C   0  0  0  0  0  0  0  0  0  0  0  0
   41.3790   13.2520   15.3570 O   0  0  0  0  0  0  0  0  0  0  0  0
   41.7760   10.9640   14.8470 C   0  0  0  0  0  0  0  0  0  0  0  0
   41.1010   10.7370   13.6050 O   0  0  0  0  0  0  0  0  0  0  0  0
   43.0590   11.7530   14.6210 C   0  0  0  0  0  0  0  0  0  0  0  0
   43.6010   11.3710   13.3660 O   0  0  0  0  0  0  0  0  0  0  0  0
   42.5830   13.2320   14.5610 C   0  0  0  0  0  0  0  0  0  0  0  0
   43.5930   14.1490   15.1510 N   0  0  0  0  0  0  0  0  0  0  0  0
   44.2900   13.8680   16.3360 C   0  0  0  0  0  0  0  0  0  0  0  0
   45.1050   14.8480   16.6960 N   0  0  0  0  0  0  0  0  0  0  0  0
   44.9500   15.8060   15.7450 C   0  0  0  0  0  0  0  0  0  0  0  0
   45.5510   17.0950   15.5780 C   0  0  0  0  0  0  0  0  0  0  0  0
   46.5070   17.5570   16.4370 N   0  0  0  0  0  0  0  0  0  0  0  0
   45.1720   17.8620   14.5270 N   0  0  0  0  0  0  0  0  0  0  0  0
   44.2510   17.3810   13.6450 C   0  0  0  0  0  0  0  0  0  0  0  0
   43.6790   16.1780   13.7150 N   0  0  0  0  0  0  0  0  0  0  0  0
   44.0230   15.4160   14.7760 C   0  0  0  0  0  0  0  0  0  0  0  0
   37.1450    9.9130   21.3220 C   0  0  0  0  0  0  0  0  0  0  0  0
   35.9130    9.5000   21.8640 C   0  0  0  0  0  0  0  0  0  0  0  0
   35.8390    8.3520   22.6510 C   0  0  0  0  0  0  0  0  0  0  0  0
   37.0230    7.6310   22.8900 C   0  0  0  0  0  0  0  0  0  0  0  0
   38.2630    8.0290   22.3890 C   0  0  0  0  0  0  0  0  0  0  0  0
   38.3330    9.1820   21.5930 C   0  0  0  0  0  0  0  0  0  0  0  0
   34.8250   10.2650   21.5980 O   0  0  0  0  0  0  0  0  0  0  0  0
   37.1390   11.0330   20.5480 O   0  0  0  0  0  0  0  0  0  0  0  0
   39.6220    9.5870   21.0460 C   0  0  0  0  0  0  0  0  0  0  0  0
   40.6820    9.1020   21.4150 O   0  0  0  0  0  0  0  0  0  0  0  0
   36.9410    6.4080   23.6890 N   0  0  0  0  0  0  0  0  0  0  0  0
   35.8180    5.9400   23.9230 O   0  0  0  0  0  0  0  0  0  0  0  0
   37.9660    5.8920   24.1700 O   0  0  0  0  0  0  0  0  0  0  0  0
   39.4893   10.7392   17.5642 H   0  0  0  0  0  0  0  0  0  0  0  0
   41.5609   10.1251   19.4730 H   0  0  0  0  0  0  0  0  0  0  0  0
   41.2281   11.8661   19.7692 H   0  0  0  0  0  0  0  0  0  0  0  0
   38.7617   11.0961   19.9551 H   0  0  0  0  0  0  0  0  0  0  0  0
   42.2812   12.0434   17.4923 H   0  0  0  0  0  0  0  0  0  0  0  0
   39.8859   11.7340   15.5548 H   0  0  0  0  0  0  0  0  0  0  0  0
   41.9450    9.9747   15.2973 H   0  0  0  0  0  0  0  0  0  0  0  0
   40.1779   10.4266   13.7830 H   0  0  0  0  0  0  0  0  0  0  0  0
   43.8243   11.5893   15.3940 H   0  0  0  0  0  0  0  0  0  0  0  0
   44.4016   10.8068   13.5103 H   0  0  0  0  0  0  0  0  0  0  0  0
   42.4240   13.5681   13.5257 H   0  0  0  0  0  0  0  0  0  0  0  0
   44.1722   12.9340   16.9049 H   0  0  0  0  0  0  0  0  0  0  0  0
   46.3623   17.4871   17.4544 H   0  0  0  0  0  0  0  0  0  0  0  0
   47.3726   17.9753   16.0674 H   0  0  0  0  0  0  0  0  0  0  0  0
   43.9567   18.0353   12.8111 H   0  0  0  0  0  0  0  0  0  0  0  0
   34.8799    8.0186   23.0741 H   0  0  0  0  0  0  0  0  0  0  0  0
   39.1699    7.4487   22.6143 H   0  0  0  0  0  0  0  0  0  0  0  0
   34.2904   10.6409   22.3416 H   0  0  0  0  0  0  0  0  0  0  0  0
   37.1342   11.9276   20.9719 H   0  0  0  0  0  0  0  0  0  0  0  0
  1  2  1  0
  1  4  2  0
  2  3  1  0
  3 30  1  0
  4  5  1  0
  5  6  1  0
  5  7  1  0
  6 11  1  0
  7  8  1  0
  7  9  1  0
  9 10  1  0
  9 11  1  0
 11 12  1  0
 12 13  1  0
 12 21  1  0
 13 14  2  0
 14 15  1  0
 15 16  1  0
 15 21  2  0
 16 17  1  0
 16 18  2  0
 18 19  1  0
 19 20  2  0
 20 21  1  0
 22 23  2  0
 22 27  1  0
 22 29  1  0
 23 24  1  0
 23 28  1  0
 24 25  2  0
 25 26  1  0
 25 32  1  0
 26 27  2  0
 27 30  1  0
 30 31  2  0
 32 33  2  0
 32 34  1  0
  1 35  1  0
  2 36  1  0
  2 37  1  0
  3 38  1  0
  4 39  1  0
  5 40  1  0
  7 41  1  0
  8 42  1  0
  9 43  1  0
 10 44  1  0
 11 45  1  0
 13 46  1  0
 17 47  1  0
 17 48  1  0
 19 49  1  0
 24 50  1  0
 26 51  1  0
 28 52  1  0
 29 53  1  0
M  CHG  2  32   1  34  -1
A    1
C1
A    2
C2
A    3
N3
A    4
C4
A    5
C5
A    6
O6
A    7
C7
A    8
O8
A    9
C9
A   10
O10
A   11
C11
A   12
N12
A   13
C13
A   14
N14
A   15
C15
A   16
C16
A   17
N17
A   18
N18
A   19
C19
A   20
N20
A   21
C21
A   22
C22
A   23
C23
A   24
C24
A   25
C25
A   26
C26
A   27
C27
A   28
O28
A   29
O29
A   30
C30
A   31
O31
A   32
N32
A   33
O33
A   34
O34
M  END
