1JUM_BER_A_803
     RDKit          3D

 43 47  0  0  0  0  0  0  0  0999 V2000
  109.4260   45.7030   92.5270 C   0  0  0  0  0  0  0  0  0  0  0  0
  108.1270   45.5120   91.7750 C   0  0  0  0  0  0  0  0  0  0  0  0
  110.6700   45.8690   91.7770 N   0  0  0  0  0  0  0  0  0  0  0  0
  109.4440   45.7040   93.9760 C   0  0  0  0  0  0  0  0  0  0  0  0
  108.1510   45.2260   90.2920 C   0  0  0  0  0  0  0  0  0  0  0  0
  106.8650   45.5660   92.4910 C   0  0  0  0  0  0  0  0  0  0  0  0
  111.9180   46.0010   92.4950 C   0  0  0  0  0  0  0  0  0  0  0  0
  110.6800   45.8880   90.2280 C   0  0  0  0  0  0  0  0  0  0  0  0
  110.6800   45.8460   94.6710 C   0  0  0  0  0  0  0  0  0  0  0  0
  106.8950   45.0240   89.6000 C   0  0  0  0  0  0  0  0  0  0  0  0
  109.4880   45.1430   89.5030 C   0  0  0  0  0  0  0  0  0  0  0  0
  105.6350   45.3590   91.7890 C   0  0  0  0  0  0  0  0  0  0  0  0
  111.9490   45.9850   93.9430 C   0  0  0  0  0  0  0  0  0  0  0  0
  110.6670   45.8410   96.0790 C   0  0  0  0  0  0  0  0  0  0  0  0
  105.6320   45.0880   90.3420 C   0  0  0  0  0  0  0  0  0  0  0  0
  104.3340   45.3560   92.2340 O   0  0  0  0  0  0  0  0  0  0  0  0
  113.2240   46.1070   94.6790 C   0  0  0  0  0  0  0  0  0  0  0  0
  111.8940   45.9670   96.8140 C   0  0  0  0  0  0  0  0  0  0  0  0
  104.3020   44.9320   89.9270 O   0  0  0  0  0  0  0  0  0  0  0  0
  103.5270   44.7790   91.1460 C   0  0  0  0  0  0  0  0  0  0  0  0
  113.1880   46.0930   96.1620 C   0  0  0  0  0  0  0  0  0  0  0  0
  114.4410   46.2270   93.9300 O   0  0  0  0  0  0  0  0  0  0  0  0
  114.3930   46.2110   96.9490 O   0  0  0  0  0  0  0  0  0  0  0  0
  115.7720   46.3520   94.5300 C   0  0  0  0  0  0  0  0  0  0  0  0
  114.3920   46.2070   98.4200 C   0  0  0  0  0  0  0  0  0  0  0  0
  108.5050   45.5953   94.5386 H   0  0  0  0  0  0  0  0  0  0  0  0
  106.8542   45.7659   93.5726 H   0  0  0  0  0  0  0  0  0  0  0  0
  112.8571   46.1152   91.9337 H   0  0  0  0  0  0  0  0  0  0  0  0
  110.6606   46.9399   89.9070 H   0  0  0  0  0  0  0  0  0  0  0  0
  111.5864   45.3368   89.9370 H   0  0  0  0  0  0  0  0  0  0  0  0
  106.8885   44.8227   88.5186 H   0  0  0  0  0  0  0  0  0  0  0  0
  109.7585   44.0837   89.3819 H   0  0  0  0  0  0  0  0  0  0  0  0
  109.3300   45.6395   88.5342 H   0  0  0  0  0  0  0  0  0  0  0  0
  109.7133   45.7402   96.6178 H   0  0  0  0  0  0  0  0  0  0  0  0
  111.8538   45.9683   97.9133 H   0  0  0  0  0  0  0  0  0  0  0  0
  103.3332   43.7139   91.3412 H   0  0  0  0  0  0  0  0  0  0  0  0
  102.5539   45.2852   91.0631 H   0  0  0  0  0  0  0  0  0  0  0  0
  115.6823   46.3436   95.6263 H   0  0  0  0  0  0  0  0  0  0  0  0
  116.4004   45.5089   94.2071 H   0  0  0  0  0  0  0  0  0  0  0  0
  116.2325   47.2973   94.2071 H   0  0  0  0  0  0  0  0  0  0  0  0
  114.6433   47.2121   98.7896 H   0  0  0  0  0  0  0  0  0  0  0  0
  113.3947   45.9208   98.7852 H   0  0  0  0  0  0  0  0  0  0  0  0
  115.1373   45.4851   98.7852 H   0  0  0  0  0  0  0  0  0  0  0  0
  1  2  1  0
  1  3  1  0
  1  4  2  0
  2  5  2  0
  2  6  1  0
  3  7  2  0
  3  8  1  0
  4  9  1  0
  5 10  1  0
  5 11  1  0
  6 12  2  0
  7 13  1  0
  8 11  1  0
  9 13  2  0
  9 14  1  0
 10 15  2  0
 12 15  1  0
 12 16  1  0
 13 17  1  0
 14 18  2  0
 15 19  1  0
 16 20  1  0
 17 21  2  0
 17 22  1  0
 18 21  1  0
 19 20  1  0
 21 23  1  0
 22 24  1  0
 23 25  1  0
  4 26  1  0
  6 27  1  0
  7 28  1  0
  8 29  1  0
  8 30  1  0
 10 31  1  0
 11 32  1  0
 11 33  1  0
 14 34  1  0
 18 35  1  0
 20 36  1  0
 20 37  1  0
 24 38  1  0
 24 39  1  0
 24 40  1  0
 25 41  1  0
 25 42  1  0
 25 43  1  0
M  CHG  1   3   1
A    1
C1
A    2
C2
A    3
N1
A    4
C3
A    5
C4
A    6
C5
A    7
C6
A    8
C7
A    9
C8
A   10
C9
A   11
C10
A   12
C11
A   13
C12
A   14
C13
A   15
C14
A   16
O1
A   17
C15
A   18
C16
A   19
O2
A   20
C17
A   21
C18
A   22
O3
A   23
O4
A   24
C19
A   25
C20
M  END
