1JUY_H5P_A_433
     RDKit          3D

 30 31  0  0  0  0  0  0  0  0999 V2000
  -10.7280   52.8510   51.4510 C   0  0  0  0  0  0  0  0  0  0  0  0
  -10.1330   52.8610   52.5320 O   0  0  0  0  0  0  0  0  0  0  0  0
  -10.3390   52.3060   50.2360 N   0  0  0  0  0  0  0  0  0  0  0  0
  -11.3810   52.3040   49.3260 C   0  0  0  0  0  0  0  0  0  0  0  0
  -11.3370   51.8470   48.1890 O   0  0  0  0  0  0  0  0  0  0  0  0
  -12.4740   52.8990   49.9820 N   0  0  0  0  0  0  0  0  0  0  0  0
  -12.1960   53.2880   51.2970 C   0  0  0  0  0  0  0  0  0  0  0  0
  -12.3370   54.7540   51.5470 C   0  0  0  0  0  0  0  0  0  0  0  0
  -11.0840   55.3820   51.3910 O   0  0  0  0  0  0  0  0  0  0  0  0
  -12.9560   54.8880   52.9330 C   0  0  0  0  0  0  0  0  0  0  0  0
  -11.9760   55.0050   53.9940 O   0  0  0  0  0  0  0  0  0  0  0  0
  -13.7820   53.5840   52.9760 C   0  0  0  0  0  0  0  0  0  0  0  0
  -13.0360   52.6300   52.2600 O   0  0  0  0  0  0  0  0  0  0  0  0
  -15.1970   53.7780   52.4420 C   0  0  0  0  0  0  0  0  0  0  0  0
  -15.2850   54.5360   51.1590 O   0  0  0  0  0  0  0  0  0  0  0  0
  -15.9990   53.9340   49.8330 P   0  0  0  0  0  0  0  0  0  0  0  0
  -15.5040   54.8890   48.8390 O   0  0  0  0  0  0  0  0  0  0  0  0
  -17.4540   54.1050   50.0730 O   0  0  0  0  0  0  0  0  0  0  0  0
  -15.3420   52.6100   49.6380 O   0  0  0  0  0  0  0  0  0  0  0  0
   -9.3940   51.9481   50.0367 H   0  0  0  0  0  0  0  0  0  0  0  0
  -13.3925   53.0355   49.5363 H   0  0  0  0  0  0  0  0  0  0  0  0
  -12.9940   55.2645   50.8275 H   0  0  0  0  0  0  0  0  0  0  0  0
  -10.6985   55.5752   52.2821 H   0  0  0  0  0  0  0  0  0  0  0  0
  -13.5445   55.8033   53.0937 H   0  0  0  0  0  0  0  0  0  0  0  0
  -12.4314   54.9506   54.8713 H   0  0  0  0  0  0  0  0  0  0  0  0
  -13.9418   53.2420   54.0092 H   0  0  0  0  0  0  0  0  0  0  0  0
  -15.6418   52.7845   52.2834 H   0  0  0  0  0  0  0  0  0  0  0  0
  -15.7311   54.3786   53.1930 H   0  0  0  0  0  0  0  0  0  0  0  0
  -17.6276   54.1254   51.0475 H   0  0  0  0  0  0  0  0  0  0  0  0
  -15.1423   52.2076   50.5202 H   0  0  0  0  0  0  0  0  0  0  0  0
  1  2  2  0
  1  3  1  0
  1  7  1  0
  3  4  1  0
  4  5  2  0
  4  6  1  0
  6  7  1  0
  7  8  1  0
  7 13  1  0
  8  9  1  0
  8 10  1  0
 10 11  1  0
 10 12  1  0
 12 13  1  0
 12 14  1  0
 14 15  1  0
 15 16  1  0
 16 17  2  0
 16 18  1  0
 16 19  1  0
  3 20  1  0
  6 21  1  0
  8 22  1  0
  9 23  1  0
 10 24  1  0
 11 25  1  0
 12 26  1  0
 14 27  1  0
 14 28  1  0
 18 29  1  0
 19 30  1  0
A    1
C2
A    2
O2
A    3
N3
A    4
C4
A    5
O4
A    6
N5
A    7
C1'
A    8
C2'
A    9
O2'
A   10
C3'
A   11
O3'
A   12
C4'
A   13
O4'
A   14
C5'
A   15
O5'
A   16
P
A   17
O1P
A   18
O2P
A   19
O3P
M  END
