1I06_TZL_A_405
     RDKit          3D

 20 20  0  0  0  0  0  0  0  0999 V2000
   23.9600   18.2690   28.0280 S   0  0  0  0  0  0  0  0  0  0  0  0
   23.4820   17.2780   29.3680 C   0  0  0  0  0  0  0  0  0  0  0  0
   24.4630   16.4840   29.7900 N   0  0  0  0  0  0  0  0  0  0  0  0
   25.6760   16.5140   29.0040 C   0  0  0  0  0  0  0  0  0  0  0  0
   25.5650   17.6050   27.9130 C   0  0  0  0  0  0  0  0  0  0  0  0
   22.0060   17.2890   29.7950 C   0  0  0  0  0  0  0  0  0  0  0  0
   21.7920   18.1180   31.0640 C   0  0  0  0  0  0  0  0  0  0  0  0
   20.4710   18.9180   30.9770 C   0  0  0  0  0  0  0  0  0  0  0  0
   21.4320   15.8150   29.8800 C   0  0  0  0  0  0  0  0  0  0  0  0
   26.5466   15.8597   29.1585 H   0  0  0  0  0  0  0  0  0  0  0  0
   26.3491   17.9036   27.2017 H   0  0  0  0  0  0  0  0  0  0  0  0
   21.4169   17.7980   29.0179 H   0  0  0  0  0  0  0  0  0  0  0  0
   21.7499   17.4445   31.9327 H   0  0  0  0  0  0  0  0  0  0  0  0
   22.6279   18.8252   31.1701 H   0  0  0  0  0  0  0  0  0  0  0  0
   20.1080   19.1379   31.9918 H   0  0  0  0  0  0  0  0  0  0  0  0
   20.6481   19.8608   30.4387 H   0  0  0  0  0  0  0  0  0  0  0  0
   19.7176   18.3243   30.4387 H   0  0  0  0  0  0  0  0  0  0  0  0
   21.3193   15.5257   30.9353 H   0  0  0  0  0  0  0  0  0  0  0  0
   20.4521   15.7738   29.3819 H   0  0  0  0  0  0  0  0  0  0  0  0
   22.1260   15.1220   29.3819 H   0  0  0  0  0  0  0  0  0  0  0  0
  1  2  1  0
  1  5  1  0
  2  3  2  0
  2  6  1  0
  3  4  1  0
  4  5  2  0
  6  7  1  0
  6  9  1  0
  7  8  1  0
  4 10  1  0
  5 11  1  0
  6 12  1  0
  7 13  1  0
  7 14  1  0
  8 15  1  0
  8 16  1  0
  8 17  1  0
  9 18  1  0
  9 19  1  0
  9 20  1  0
A    1
S1
A    2
C2
A    3
N3
A    4
C4
A    5
C5
A    6
C6
A    7
C7
A    8
C8
A    9
C9
M  END
