1JVZ_CEN_B_999
     RDKit          3D

 44 45  0  0  0  0  0  0  0  0999 V2000
   67.5720   13.8900   29.1280 S   0  0  0  0  0  0  0  0  0  0  0  0
   68.6590   14.5770   30.4310 C   0  0  0  0  0  0  0  0  0  0  0  0
   69.6390   13.6220   31.1470 C   0  0  0  0  0  0  0  0  0  0  0  0
   69.8630   12.3000   30.7550 C   0  0  0  0  0  0  0  0  0  0  0  0
   69.1870   11.8700   29.5670 N   0  0  0  0  0  0  0  0  0  0  0  0
   68.7330   12.6970   28.4360 C   0  0  0  0  0  0  0  0  0  0  0  0
   68.1410   11.4180   27.7470 C   0  0  0  0  0  0  0  0  0  0  0  0
   68.6620   10.6700   29.0490 C   0  0  0  0  0  0  0  0  0  0  0  0
   68.6160    9.5200   29.4400 O   0  0  0  0  0  0  0  0  0  0  0  0
   70.3280   14.3740   32.2660 C   0  0  0  0  0  0  0  0  0  0  0  0
   66.6830   11.6070   27.7470 N   0  0  0  0  0  0  0  0  0  0  0  0
   65.9920   11.5390   26.5550 C   0  0  0  0  0  0  0  0  0  0  0  0
   66.5460   11.3040   25.4740 O   0  0  0  0  0  0  0  0  0  0  0  0
   64.4840   11.7390   26.6530 C   0  0  0  0  0  0  0  0  0  0  0  0
   72.2230   15.7150   32.7240 C   0  0  0  0  0  0  0  0  0  0  0  0
   71.9740   16.8530   33.0520 O   0  0  0  0  0  0  0  0  0  0  0  0
   71.5260   15.0270   31.8030 O   0  0  0  0  0  0  0  0  0  0  0  0
   73.3620   14.8420   33.2600 C   0  0  0  0  0  0  0  0  0  0  0  0
   64.0180   13.1970   26.4980 C   0  0  0  0  0  0  0  0  0  0  0  0
   62.4860   13.3970   26.6130 C   0  0  0  0  0  0  0  0  0  0  0  0
   61.8470   13.0000   27.9480 C   0  0  0  0  0  0  0  0  0  0  0  0
   60.6280   13.1500   28.0470 O   0  0  0  0  0  0  0  0  0  0  0  0
   62.5750   12.5660   28.8350 O   0  0  0  0  0  0  0  0  0  0  0  0
   70.8320   11.3230   31.4390 C   0  0  0  0  0  0  0  0  0  0  0  0
   71.8020   10.8990   30.7660 O   0  0  0  0  0  0  0  0  0  0  0  0
   70.6170   11.0380   32.6410 O   0  0  0  0  0  0  0  0  0  0  0  0
   69.2604   15.3727   29.9671 H   0  0  0  0  0  0  0  0  0  0  0  0
   67.9649   14.8963   31.2224 H   0  0  0  0  0  0  0  0  0  0  0  0
   69.3677   13.3334   27.8018 H   0  0  0  0  0  0  0  0  0  0  0  0
   68.3703   11.0393   26.7400 H   0  0  0  0  0  0  0  0  0  0  0  0
   69.6384   15.1327   32.6645 H   0  0  0  0  0  0  0  0  0  0  0  0
   70.6081   13.6514   33.0466 H   0  0  0  0  0  0  0  0  0  0  0  0
   66.1823   11.7885   28.6286 H   0  0  0  0  0  0  0  0  0  0  0  0
   64.0069   11.1408   25.8627 H   0  0  0  0  0  0  0  0  0  0  0  0
   64.1941   11.4261   27.6669 H   0  0  0  0  0  0  0  0  0  0  0  0
   73.3466   14.8538   34.3598 H   0  0  0  0  0  0  0  0  0  0  0  0
   73.2323   13.8098   32.9025 H   0  0  0  0  0  0  0  0  0  0  0  0
   74.3250   15.2355   32.9025 H   0  0  0  0  0  0  0  0  0  0  0  0
   64.5028   13.7979   27.2815 H   0  0  0  0  0  0  0  0  0  0  0  0
   64.2990   13.5091   25.4813 H   0  0  0  0  0  0  0  0  0  0  0  0
   62.2737   14.4630   26.4439 H   0  0  0  0  0  0  0  0  0  0  0  0
   62.0454   12.7215   25.8650 H   0  0  0  0  0  0  0  0  0  0  0  0
   60.2067   13.2018   28.9414 H   0  0  0  0  0  0  0  0  0  0  0  0
   72.6062   10.5475   31.2240 H   0  0  0  0  0  0  0  0  0  0  0  0
  1  2  1  0
  1  6  1  0
  2  3  1  0
  3  4  2  0
  3 10  1  0
  4  5  1  0
  4 24  1  0
  5  6  1  0
  5  8  1  0
  6  7  1  0
  7  8  1  0
  7 11  1  0
  8  9  2  0
 10 17  1  0
 11 12  1  0
 12 13  2  0
 12 14  1  0
 14 19  1  0
 15 16  2  0
 15 17  1  0
 15 18  1  0
 19 20  1  0
 20 21  1  0
 21 22  1  0
 21 23  2  0
 24 25  1  0
 24 26  2  0
  2 27  1  0
  2 28  1  0
  6 29  1  0
  7 30  1  0
 10 31  1  0
 10 32  1  0
 11 33  1  0
 14 34  1  0
 14 35  1  0
 18 36  1  0
 18 37  1  0
 18 38  1  0
 19 39  1  0
 19 40  1  0
 20 41  1  0
 20 42  1  0
 22 43  1  0
 25 44  1  0
A    1
S1
A    2
C2
A    3
C3
A    4
C4
A    5
N5
A    6
C6
A    7
C7
A    8
C8
A    9
O9
A   10
C13
A   11
N14
A   12
C15
A   13
O16
A   14
C17
A   15
C1
A   16
O2
A   17
O3
A   18
C
A   19
C5
A   20
C9
A   21
C11
A   22
O
A   23
O1
A   24
C10
A   25
O4
A   26
O5
M  END
