1JX6_AI2_A_400
     RDKit          3D

 23 24  0  0  0  0  0  0  0  0999 V2000
  -16.5960  -19.9490   10.4330 O   0  0  0  0  0  0  0  0  0  0  0  0
  -15.6770  -20.9780   10.7350 B   0  0  0  0  0  0  0  0  0  0  0  0
  -16.2040  -21.9320   11.7780 O   0  0  0  0  0  0  0  0  0  0  0  0
  -15.3740  -21.7050    9.5010 O   0  0  0  0  0  0  0  0  0  0  0  0
  -14.4820  -20.3020   11.3670 O   0  0  0  0  0  0  0  0  0  0  0  0
  -14.7860  -18.8930   11.6450 C   0  0  0  0  0  0  0  0  0  0  0  0
  -14.4180  -18.7310   13.0820 C   0  0  0  0  0  0  0  0  0  0  0  0
  -14.0110  -18.0380   10.7550 O   0  0  0  0  0  0  0  0  0  0  0  0
  -14.9260  -17.5220    9.7970 C   0  0  0  0  0  0  0  0  0  0  0  0
  -16.2820  -17.4810   10.4710 C   0  0  0  0  0  0  0  0  0  0  0  0
  -16.4380  -16.3370   11.2460 O   0  0  0  0  0  0  0  0  0  0  0  0
  -16.3460  -18.8750   11.1780 C   0  0  0  0  0  0  0  0  0  0  0  0
  -17.1600  -18.7160   12.3510 O   0  0  0  0  0  0  0  0  0  0  0  0
  -16.0072  -21.5758   12.6805 H   0  0  0  0  0  0  0  0  0  0  0  0
  -15.0030  -22.5951    9.7250 H   0  0  0  0  0  0  0  0  0  0  0  0
  -15.2417  -19.0936   13.7146 H   0  0  0  0  0  0  0  0  0  0  0  0
  -13.5087  -19.3120   13.2954 H   0  0  0  0  0  0  0  0  0  0  0  0
  -14.2324  -17.6680   13.2954 H   0  0  0  0  0  0  0  0  0  0  0  0
  -14.6238  -16.5097    9.4906 H   0  0  0  0  0  0  0  0  0  0  0  0
  -14.9509  -18.1500    8.8942 H   0  0  0  0  0  0  0  0  0  0  0  0
  -17.1530  -17.3689    9.8086 H   0  0  0  0  0  0  0  0  0  0  0  0
  -16.4047  -16.5809   12.2049 H   0  0  0  0  0  0  0  0  0  0  0  0
  -16.5990  -18.8256   13.1593 H   0  0  0  0  0  0  0  0  0  0  0  0
  1  2  1  0
  1 12  1  0
  2  3  1  0
  2  4  1  0
  2  5  1  0
  5  6  1  0
  6  7  1  0
  6  8  1  0
  6 12  1  0
  8  9  1  0
  9 10  1  0
 10 11  1  0
 10 12  1  0
 12 13  1  0
  3 14  1  0
  4 15  1  0
  7 16  1  0
  7 17  1  0
  7 18  1  0
  9 19  1  0
  9 20  1  0
 10 21  1  0
 11 22  1  0
 13 23  1  0
M  CHG  1   2  -1
A    1
O1
A    2
B2
A    3
O9
A    4
O10
A    5
O3
A    6
C4
A    7
C11
A    8
O5
A    9
C6
A   10
C7
A   11
O12
A   12
C8
A   13
O13
M  END
