1GLQ_GTB_A_210
     RDKit          3D

 52 52  0  0  0  0  0  0  0  0999 V2000
   60.2710   10.3730   10.0540 N   0  0  0  0  0  0  0  0  0  0  0  0
   59.8890    9.0110   10.1120 C   0  0  0  0  0  0  0  0  0  0  0  0
   59.9170    8.6840    8.6190 C   0  0  0  0  0  0  0  0  0  0  0  0
   60.1810    7.5330    8.2770 O   0  0  0  0  0  0  0  0  0  0  0  0
   59.7360    9.5830    7.7740 O   0  0  0  0  0  0  0  0  0  0  0  0
   58.5070    8.9020   10.6760 C   0  0  0  0  0  0  0  0  0  0  0  0
   58.1350    7.4420   10.8010 C   0  0  0  0  0  0  0  0  0  0  0  0
   56.8070    7.1960   11.4700 C   0  0  0  0  0  0  0  0  0  0  0  0
   56.0640    8.1030   11.8410 O   0  0  0  0  0  0  0  0  0  0  0  0
   56.6660    5.9050   11.7150 N   0  0  0  0  0  0  0  0  0  0  0  0
   55.4590    5.3220   12.2760 C   0  0  0  0  0  0  0  0  0  0  0  0
   55.8100    4.3740   13.3860 C   0  0  0  0  0  0  0  0  0  0  0  0
   56.7760    3.6310   13.1970 O   0  0  0  0  0  0  0  0  0  0  0  0
   54.7080    4.5330   11.1980 C   0  0  0  0  0  0  0  0  0  0  0  0
   54.0370    5.5530    9.8410 S   0  0  0  0  0  0  0  0  0  0  0  0
   55.0640    4.3310   14.4860 N   0  0  0  0  0  0  0  0  0  0  0  0
   55.3080    3.2900   15.4680 C   0  0  0  0  0  0  0  0  0  0  0  0
   55.7300    3.8870   16.7850 C   0  0  0  0  0  0  0  0  0  0  0  0
   55.7500    3.1400   17.7720 O   0  0  0  0  0  0  0  0  0  0  0  0
   56.0040    5.1010   16.8170 O   0  0  0  0  0  0  0  0  0  0  0  0
   52.4410    5.9310   10.6290 C   0  0  0  0  0  0  0  0  0  0  0  0
   51.6320    4.6700   10.9240 C   0  0  0  0  0  0  0  0  0  0  0  0
   51.2900    4.3320   12.2300 C   0  0  0  0  0  0  0  0  0  0  0  0
   50.5790    3.1690   12.4830 C   0  0  0  0  0  0  0  0  0  0  0  0
   50.2170    2.3270   11.4270 C   0  0  0  0  0  0  0  0  0  0  0  0
   49.5080    1.0300   11.6930 N   0  0  0  0  0  0  0  0  0  0  0  0
   49.3110    0.6860   12.8350 O   0  0  0  0  0  0  0  0  0  0  0  0
   49.2210    0.2700   10.7880 O   0  0  0  0  0  0  0  0  0  0  0  0
   50.5360    2.6870   10.1190 C   0  0  0  0  0  0  0  0  0  0  0  0
   51.2520    3.8440    9.8720 C   0  0  0  0  0  0  0  0  0  0  0  0
   60.3744   10.7416   11.0102 H   0  0  0  0  0  0  0  0  0  0  0  0
   61.1680   10.4570    9.5548 H   0  0  0  0  0  0  0  0  0  0  0  0
   60.5090    8.3519   10.7374 H   0  0  0  0  0  0  0  0  0  0  0  0
   59.5495   10.5094    8.0691 H   0  0  0  0  0  0  0  0  0  0  0  0
   58.4761    9.3758   11.6682 H   0  0  0  0  0  0  0  0  0  0  0  0
   57.7945    9.4092   10.0089 H   0  0  0  0  0  0  0  0  0  0  0  0
   58.0976    7.0082    9.7908 H   0  0  0  0  0  0  0  0  0  0  0  0
   58.9004    6.9751   11.4383 H   0  0  0  0  0  0  0  0  0  0  0  0
   57.4539    5.2785   11.4966 H   0  0  0  0  0  0  0  0  0  0  0  0
   54.8296    6.1385   12.6597 H   0  0  0  0  0  0  0  0  0  0  0  0
   55.4021    3.7980   10.7643 H   0  0  0  0  0  0  0  0  0  0  0  0
   53.8443    4.0681   11.6959 H   0  0  0  0  0  0  0  0  0  0  0  0
   54.3216    5.0283   14.6395 H   0  0  0  0  0  0  0  0  0  0  0  0
   54.3857    2.7086   15.6143 H   0  0  0  0  0  0  0  0  0  0  0  0
   56.1154    2.6398   15.1001 H   0  0  0  0  0  0  0  0  0  0  0  0
   56.1081    5.5622   17.6868 H   0  0  0  0  0  0  0  0  0  0  0  0
   52.6291    6.4608   11.5745 H   0  0  0  0  0  0  0  0  0  0  0  0
   51.8583    6.5515    9.9323 H   0  0  0  0  0  0  0  0  0  0  0  0
   51.5841    4.9883   13.0624 H   0  0  0  0  0  0  0  0  0  0  0  0
   50.2996    2.9086   13.5146 H   0  0  0  0  0  0  0  0  0  0  0  0
   50.2175    2.0494    9.2812 H   0  0  0  0  0  0  0  0  0  0  0  0
   51.5218    4.1118    8.8398 H   0  0  0  0  0  0  0  0  0  0  0  0
  1  2  1  0
  2  3  1  0
  2  6  1  0
  3  4  2  0
  3  5  1  0
  6  7  1  0
  7  8  1  0
  8  9  2  0
  8 10  1  0
 10 11  1  0
 11 12  1  0
 11 14  1  0
 12 13  2  0
 12 16  1  0
 14 15  1  0
 15 21  1  0
 16 17  1  0
 17 18  1  0
 18 19  2  0
 18 20  1  0
 21 22  1  0
 22 23  2  0
 22 30  1  0
 23 24  1  0
 24 25  2  0
 25 26  1  0
 25 29  1  0
 26 27  1  0
 26 28  2  0
 29 30  2  0
  1 31  1  0
  1 32  1  0
  2 33  1  0
  5 34  1  0
  6 35  1  0
  6 36  1  0
  7 37  1  0
  7 38  1  0
 10 39  1  0
 11 40  1  0
 14 41  1  0
 14 42  1  0
 16 43  1  0
 17 44  1  0
 17 45  1  0
 20 46  1  0
 21 47  1  0
 21 48  1  0
 23 49  1  0
 24 50  1  0
 29 51  1  0
 30 52  1  0
M  CHG  2  26   1  27  -1
A    1
N1
A    2
CA1
A    3
C1
A    4
O11
A    5
O12
A    6
CB1
A    7
CG1
A    8
CD1
A    9
OE1
A   10
N2
A   11
CA2
A   12
C2
A   13
O2
A   14
CB2
A   15
SG2
A   16
N3
A   17
CA3
A   18
C3
A   19
O31
A   20
O32
A   21
C'
A   22
C1'
A   23
C2'
A   24
C3'
A   25
C4'
A   26
N41
A   27
O41
A   28
O42
A   29
C5'
A   30
C6'
M  END
