1K1I_FD1_A_999
     RDKit          3D

 64 67  0  0  0  0  0  0  0  0999 V2000
   -1.9460   16.3580   17.9190 C   0  0  0  0  0  0  0  0  0  0  0  0
   -2.1720   15.7500   16.6690 C   0  0  0  0  0  0  0  0  0  0  0  0
   -1.2090   15.6570   18.9080 C   0  0  0  0  0  0  0  0  0  0  0  0
   -0.7120   14.3700   18.6440 C   0  0  0  0  0  0  0  0  0  0  0  0
   -0.9510   13.7740   17.3880 C   0  0  0  0  0  0  0  0  0  0  0  0
   -1.6850   14.4660   16.3940 C   0  0  0  0  0  0  0  0  0  0  0  0
   -1.9390   13.8370   15.0520 C   0  0  0  0  0  0  0  0  0  0  0  0
   -1.5300   12.6220   14.8450 N   0  0  0  0  0  0  0  0  0  0  0  0
   -2.5590   14.5170   14.1140 N   0  0  0  0  0  0  0  0  0  0  0  0
   -2.4960   17.7690   18.1950 C   0  0  0  0  0  0  0  0  0  0  0  0
   -1.5620   18.8980   17.7300 C   0  0  0  0  0  0  0  0  0  0  0  0
   -0.0870   18.6680   18.0210 C   0  0  0  0  0  0  0  0  0  0  0  0
    0.5340   18.1360   17.1000 O   0  0  0  0  0  0  0  0  0  0  0  0
    0.5010   19.0230   19.2100 N   0  0  0  0  0  0  0  0  0  0  0  0
   -0.2470   19.8150   20.2320 C   0  0  0  0  0  0  0  0  0  0  0  0
    0.6530   21.0230   20.5920 C   0  0  0  0  0  0  0  0  0  0  0  0
    2.7150   19.5710   19.9480 C   0  0  0  0  0  0  0  0  0  0  0  0
    1.7780   18.3950   19.6130 C   0  0  0  0  0  0  0  0  0  0  0  0
    2.0670   20.6970   20.6950 C   0  0  0  0  0  0  0  0  0  0  0  0
   -0.5820   18.9880   21.4490 C   0  0  0  0  0  0  0  0  0  0  0  0
   -0.9650   19.5460   22.5220 O   0  0  0  0  0  0  0  0  0  0  0  0
   -0.5010   17.7150   21.4050 O   0  0  0  0  0  0  0  0  0  0  0  0
   -1.7630   19.2270   16.3130 N   0  0  0  0  0  0  0  0  0  0  0  0
   -2.1700   20.8310   15.8680 S   0  0  0  0  0  0  0  0  0  0  0  0
   -2.4500   20.8760   14.4610 O   0  0  0  0  0  0  0  0  0  0  0  0
   -3.0810   21.3790   16.8160 O   0  0  0  0  0  0  0  0  0  0  0  0
   -0.6520   21.6130   16.0820 C   0  0  0  0  0  0  0  0  0  0  0  0
    0.4730   21.0990   15.4000 C   0  0  0  0  0  0  0  0  0  0  0  0
    1.7430   21.7340   15.5420 C   0  0  0  0  0  0  0  0  0  0  0  0
    0.6820   23.4060   17.0380 C   0  0  0  0  0  0  0  0  0  0  0  0
    1.8520   22.9000   16.3680 C   0  0  0  0  0  0  0  0  0  0  0  0
   -0.5600   22.7480   16.8740 C   0  0  0  0  0  0  0  0  0  0  0  0
    3.0890   23.5910   16.5510 C   0  0  0  0  0  0  0  0  0  0  0  0
    3.1560   24.7650   17.3910 C   0  0  0  0  0  0  0  0  0  0  0  0
    1.9960   25.2380   18.0410 C   0  0  0  0  0  0  0  0  0  0  0  0
    0.7660   24.5690   17.8660 C   0  0  0  0  0  0  0  0  0  0  0  0
   -2.7392   16.2914   15.8975 H   0  0  0  0  0  0  0  0  0  0  0  0
   -1.0257   16.1239   19.8870 H   0  0  0  0  0  0  0  0  0  0  0  0
   -0.1396   13.8299   19.4125 H   0  0  0  0  0  0  0  0  0  0  0  0
   -0.5648   12.7654   17.1793 H   0  0  0  0  0  0  0  0  0  0  0  0
   -1.3224   12.0054   15.6435 H   0  0  0  0  0  0  0  0  0  0  0  0
   -1.4132   12.2749   13.8823 H   0  0  0  0  0  0  0  0  0  0  0  0
   -2.7328   14.0858   13.1949 H   0  0  0  0  0  0  0  0  0  0  0  0
   -3.4574   17.8756   17.6711 H   0  0  0  0  0  0  0  0  0  0  0  0
   -2.5995   17.8661   19.2858 H   0  0  0  0  0  0  0  0  0  0  0  0
   -1.8561   19.7614   18.3448 H   0  0  0  0  0  0  0  0  0  0  0  0
   -1.2153   20.1509   19.8326 H   0  0  0  0  0  0  0  0  0  0  0  0
    0.5306   21.7899   19.8130 H   0  0  0  0  0  0  0  0  0  0  0  0
    0.3338   21.3732   21.5847 H   0  0  0  0  0  0  0  0  0  0  0  0
    3.5429   19.1852   20.5610 H   0  0  0  0  0  0  0  0  0  0  0  0
    3.0458   19.9876   18.9852 H   0  0  0  0  0  0  0  0  0  0  0  0
    1.6319   17.7542   20.4951 H   0  0  0  0  0  0  0  0  0  0  0  0
    2.1897   17.7526   18.8206 H   0  0  0  0  0  0  0  0  0  0  0  0
    2.6074   21.6068   20.3945 H   0  0  0  0  0  0  0  0  0  0  0  0
    2.1263   20.3288   21.7298 H   0  0  0  0  0  0  0  0  0  0  0  0
   -0.7041   19.1658   23.3981 H   0  0  0  0  0  0  0  0  0  0  0  0
   -0.8869   18.9938   15.8242 H   0  0  0  0  0  0  0  0  0  0  0  0
    0.3703   20.2102   14.7601 H   0  0  0  0  0  0  0  0  0  0  0  0
    2.6270   21.3336   15.0241 H   0  0  0  0  0  0  0  0  0  0  0  0
   -1.4569   23.1385   17.3771 H   0  0  0  0  0  0  0  0  0  0  0  0
    3.9973   23.2266   16.0487 H   0  0  0  0  0  0  0  0  0  0  0  0
    4.1129   25.2910   17.5240 H   0  0  0  0  0  0  0  0  0  0  0  0
    2.0508   26.1286   18.6843 H   0  0  0  0  0  0  0  0  0  0  0  0
   -0.1360   24.9453   18.3708 H   0  0  0  0  0  0  0  0  0  0  0  0
  1  2  2  0
  1  3  1  0
  1 10  1  0
  2  6  1  0
  3  4  2  0
  4  5  1  0
  5  6  2  0
  6  7  1  0
  7  8  1  0
  7  9  2  3
 10 11  1  0
 11 12  1  0
 11 23  1  0
 12 13  2  0
 12 14  1  0
 14 15  1  0
 14 18  1  0
 15 16  1  0
 15 20  1  0
 16 19  1  0
 17 18  1  0
 17 19  1  0
 20 21  1  0
 20 22  2  0
 23 24  1  0
 24 25  2  0
 24 26  2  0
 24 27  1  0
 27 28  2  0
 27 32  1  0
 28 29  1  0
 29 31  2  0
 30 31  1  0
 30 32  2  0
 30 36  1  0
 31 33  1  0
 33 34  2  0
 34 35  1  0
 35 36  2  0
  2 37  1  0
  3 38  1  0
  4 39  1  0
  5 40  1  0
  8 41  1  0
  8 42  1  0
  9 43  1  0
 10 44  1  0
 10 45  1  0
 11 46  1  0
 15 47  1  0
 16 48  1  0
 16 49  1  0
 17 50  1  0
 17 51  1  0
 18 52  1  0
 18 53  1  0
 19 54  1  0
 19 55  1  0
 21 56  1  0
 23 57  1  0
 28 58  1  0
 29 59  1  0
 32 60  1  0
 33 61  1  0
 34 62  1  0
 35 63  1  0
 36 64  1  0
A    1
C65
A    2
C66
A    3
C64
A    4
C63
A    5
C62
A    6
C61
A    7
C25
A    8
N43
A    9
N54
A   10
C34
A   11
C31
A   12
C35
A   13
O36
A   14
N81
A   15
C71
A   16
C72
A   17
C74
A   18
C75
A   19
C40
A   20
C91
A   21
O92
A   22
O93
A   23
N29
A   24
S12
A   25
O32
A   26
O33
A   27
C2
A   28
C3
A   29
C4
A   30
C9
A   31
C10
A   32
C1
A   33
C5
A   34
C6
A   35
C7
A   36
C8
M  END
