1K4H_APQ_A_900
     RDKit          3D

 34 35  0  0  0  0  0  0  0  0999 V2000
   12.9290   14.6350   18.0240 C   0  0  0  0  0  0  0  0  0  0  0  0
   12.3480   15.9970   17.5590 C   0  0  0  0  0  0  0  0  0  0  0  0
   11.7970   15.8360   16.1110 C   0  0  0  0  0  0  0  0  0  0  0  0
   14.6910   14.8460   18.4000 S   0  0  0  0  0  0  0  0  0  0  0  0
   14.9260   16.5260   19.1510 C   0  0  0  0  0  0  0  0  0  0  0  0
   16.3500   16.9360   19.6250 C   0  0  0  0  0  0  0  0  0  0  0  0
   16.5660   17.1270   21.0140 C   0  0  0  0  0  0  0  0  0  0  0  0
   15.5460   16.9320   21.9280 N   0  0  0  0  0  0  0  0  0  0  0  0
   15.6810   17.0890   23.2010 C   0  0  0  0  0  0  0  0  0  0  0  0
   16.8540   17.4550   23.7440 N   0  0  0  0  0  0  0  0  0  0  0  0
   17.9440   17.6790   23.0040 C   0  0  0  0  0  0  0  0  0  0  0  0
   19.0240   18.0180   23.5010 O   0  0  0  0  0  0  0  0  0  0  0  0
   17.8510   17.5110   21.4910 C   0  0  0  0  0  0  0  0  0  0  0  0
   18.9310   17.7190   20.5890 C   0  0  0  0  0  0  0  0  0  0  0  0
   18.7120   17.5300   19.1980 C   0  0  0  0  0  0  0  0  0  0  0  0
   19.7060   17.7150   18.2950 N   0  0  0  0  0  0  0  0  0  0  0  0
   17.4320   17.1480   18.7450 C   0  0  0  0  0  0  0  0  0  0  0  0
   14.6500   16.8820   23.9810 N   0  0  0  0  0  0  0  0  0  0  0  0
   12.3973   14.2949   18.9249 H   0  0  0  0  0  0  0  0  0  0  0  0
   12.8046   13.8855   17.2285 H   0  0  0  0  0  0  0  0  0  0  0  0
   11.5340   16.3018   18.2331 H   0  0  0  0  0  0  0  0  0  0  0  0
   13.1342   16.7661   17.5777 H   0  0  0  0  0  0  0  0  0  0  0  0
   10.7419   15.5277   16.1523 H   0  0  0  0  0  0  0  0  0  0  0  0
   11.8781   16.7954   15.5790 H   0  0  0  0  0  0  0  0  0  0  0  0
   12.3819   15.0712   15.5790 H   0  0  0  0  0  0  0  0  0  0  0  0
   14.6089   17.2644   18.3999 H   0  0  0  0  0  0  0  0  0  0  0  0
   14.3340   16.4914   20.0775 H   0  0  0  0  0  0  0  0  0  0  0  0
   16.9154   17.5668   24.7661 H   0  0  0  0  0  0  0  0  0  0  0  0
   19.9204   18.0215   20.9626 H   0  0  0  0  0  0  0  0  0  0  0  0
   20.6678   17.8940   18.6172 H   0  0  0  0  0  0  0  0  0  0  0  0
   19.4995   17.6766   17.2867 H   0  0  0  0  0  0  0  0  0  0  0  0
   17.2715   17.0103   17.6655 H   0  0  0  0  0  0  0  0  0  0  0  0
   14.7655   16.9052   25.0042 H   0  0  0  0  0  0  0  0  0  0  0  0
   13.7234   16.6960   23.5714 H   0  0  0  0  0  0  0  0  0  0  0  0
  1  2  1  0
  1  4  1  0
  2  3  1  0
  4  5  1  0
  5  6  1  0
  6  7  2  0
  6 17  1  0
  7  8  1  0
  7 13  1  0
  8  9  2  0
  9 10  1  0
  9 18  1  0
 10 11  1  0
 11 12  2  0
 11 13  1  0
 13 14  2  0
 14 15  1  0
 15 16  1  0
 15 17  2  0
  1 19  1  0
  1 20  1  0
  2 21  1  0
  2 22  1  0
  3 23  1  0
  3 24  1  0
  3 25  1  0
  5 26  1  0
  5 27  1  0
 10 28  1  0
 14 29  1  0
 16 30  1  0
 16 31  1  0
 17 32  1  0
 18 33  1  0
 18 34  1  0
A    1
C10
A    2
C11
A    3
C12
A    4
S1
A    5
C9
A    6
C2
A    7
C3
A    8
N3
A    9
C8
A   10
N1
A   11
C7
A   12
O1
A   13
C4
A   14
C5
A   15
C6
A   16
N4
A   17
C1
A   18
N2
M  END
