1K70_HPY_A_501
     RDKit          3D

 14 14  0  0  0  0  0  0  0  0999 V2000
    4.0510   23.8590  101.9090 N   0  0  0  0  0  0  0  0  0  0  0  0
    4.0490   22.4900  102.1910 C   0  0  0  0  0  0  0  0  0  0  0  0
    3.4570   21.6010  101.5480 O   0  0  0  0  0  0  0  0  0  0  0  0
    4.7840   22.1460  103.2880 N   0  0  0  0  0  0  0  0  0  0  0  0
    5.5110   23.0250  104.0990 C   0  0  0  0  0  0  0  0  0  0  0  0
    6.9130   22.7170  103.7790 O   0  0  0  0  0  0  0  0  0  0  0  0
    5.4770   24.4340  103.7770 C   0  0  0  0  0  0  0  0  0  0  0  0
    4.7720   24.8330  102.7210 C   0  0  0  0  0  0  0  0  0  0  0  0
    3.5204   24.1946  101.0925 H   0  0  0  0  0  0  0  0  0  0  0  0
    4.8058   21.1482  103.5425 H   0  0  0  0  0  0  0  0  0  0  0  0
    5.1035   22.8888  105.1116 H   0  0  0  0  0  0  0  0  0  0  0  0
    7.4260   22.6043  104.6182 H   0  0  0  0  0  0  0  0  0  0  0  0
    6.0237   25.1628  104.3934 H   0  0  0  0  0  0  0  0  0  0  0  0
    4.7329   25.9008  102.4597 H   0  0  0  0  0  0  0  0  0  0  0  0
  1  2  1  0
  1  8  1  0
  2  3  2  0
  2  4  1  0
  4  5  1  0
  5  6  1  0
  5  7  1  0
  7  8  2  0
  1  9  1  0
  4 10  1  0
  5 11  1  0
  6 12  1  0
  7 13  1  0
  8 14  1  0
A    1
N1
A    2
C2
A    3
O2
A    4
N3
A    5
C4
A    6
O4
A    7
C5
A    8
C6
M  END
