1K7E_IAG_A_401
     RDKit          3D

 29 30  0  0  0  0  0  0  0  0999 V2000
   49.4140   29.5250   11.1820 O   0  0  0  0  0  0  0  0  0  0  0  0
   48.2180   29.0230   11.2100 C   0  0  0  0  0  0  0  0  0  0  0  0
   47.4310   29.3280   10.2450 O   0  0  0  0  0  0  0  0  0  0  0  0
   47.6370   28.1530   12.2900 C   0  0  0  0  0  0  0  0  0  0  0  0
   48.5140   27.9430   13.3910 N   0  0  0  0  0  0  0  0  0  0  0  0
   47.9500   27.4150   14.4670 C   0  0  0  0  0  0  0  0  0  0  0  0
   46.7960   26.7980   14.6250 O   0  0  0  0  0  0  0  0  0  0  0  0
   49.0260   27.6640   15.4500 C   0  0  0  0  0  0  0  0  0  0  0  0
   50.2880   26.8490   15.1930 C   0  0  0  0  0  0  0  0  0  0  0  0
   51.5240   27.4030   15.2790 C   0  0  0  0  0  0  0  0  0  0  0  0
   52.4570   26.3960   14.9880 N   0  0  0  0  0  0  0  0  0  0  0  0
   50.4120   25.4840   14.9980 C   0  0  0  0  0  0  0  0  0  0  0  0
   51.7850   25.2200   14.8520 C   0  0  0  0  0  0  0  0  0  0  0  0
   52.2270   23.9360   14.6680 C   0  0  0  0  0  0  0  0  0  0  0  0
   51.3140   22.8810   14.6360 C   0  0  0  0  0  0  0  0  0  0  0  0
   49.9820   23.1440   14.8230 C   0  0  0  0  0  0  0  0  0  0  0  0
   49.5250   24.4560   15.0160 C   0  0  0  0  0  0  0  0  0  0  0  0
   49.8874   29.7237   12.0285 H   0  0  0  0  0  0  0  0  0  0  0  0
   46.7190   28.6302   12.6637 H   0  0  0  0  0  0  0  0  0  0  0  0
   47.4455   27.1677   11.8399 H   0  0  0  0  0  0  0  0  0  0  0  0
   49.5147   28.1841   13.3539 H   0  0  0  0  0  0  0  0  0  0  0  0
   49.2885   28.7317   15.4153 H   0  0  0  0  0  0  0  0  0  0  0  0
   48.6404   27.3597   16.4342 H   0  0  0  0  0  0  0  0  0  0  0  0
   51.7524   28.4492   15.5306 H   0  0  0  0  0  0  0  0  0  0  0  0
   53.4746   26.5245   14.8936 H   0  0  0  0  0  0  0  0  0  0  0  0
   53.3019   23.7368   14.5455 H   0  0  0  0  0  0  0  0  0  0  0  0
   51.6592   21.8510   14.4628 H   0  0  0  0  0  0  0  0  0  0  0  0
   49.2605   22.3137   14.8217 H   0  0  0  0  0  0  0  0  0  0  0  0
   48.4550   24.6509   15.1809 H   0  0  0  0  0  0  0  0  0  0  0  0
  1  2  1  0
  2  3  2  0
  2  4  1  0
  4  5  1  0
  5  6  1  0
  6  7  2  0
  6  8  1  0
  8  9  1  0
  9 10  2  0
  9 12  1  0
 10 11  1  0
 11 13  1  0
 12 13  2  0
 12 17  1  0
 13 14  1  0
 14 15  2  0
 15 16  1  0
 16 17  2  0
  1 18  1  0
  4 19  1  0
  4 20  1  0
  5 21  1  0
  8 22  1  0
  8 23  1  0
 10 24  1  0
 11 25  1  0
 14 26  1  0
 15 27  1  0
 16 28  1  0
 17 29  1  0
A    1
O3
A    2
C12
A    3
O2
A    4
C11
A    5
N2
A    6
C10
A    7
O1
A    8
C9
A    9
C2
A   10
C1
A   11
N1
A   12
C7
A   13
C8
A   14
C6
A   15
C5
A   16
C4
A   17
C3
M  END
