1K74_544_D_478
     RDKit          3D

 68 71  0  0  0  0  0  0  0  0999 V2000
   13.8080   18.8420   13.1020 N   0  0  0  0  0  0  0  0  0  0  0  0
   14.5880   20.0790   13.5200 C   0  0  0  0  0  0  0  0  0  0  0  0
   13.6120   21.2520   13.9040 C   0  0  0  0  0  0  0  0  0  0  0  0
   12.5520   21.5230   12.8220 C   0  0  0  0  0  0  0  0  0  0  0  0
   11.2030   21.0490   13.0120 C   0  0  0  0  0  0  0  0  0  0  0  0
   12.8940   22.2380   11.6280 C   0  0  0  0  0  0  0  0  0  0  0  0
   10.2210   21.2890   12.0120 C   0  0  0  0  0  0  0  0  0  0  0  0
   11.9220   22.4690   10.6530 C   0  0  0  0  0  0  0  0  0  0  0  0
   10.5530   21.9960   10.8260 C   0  0  0  0  0  0  0  0  0  0  0  0
    9.4930   22.1760    9.8960 O   0  0  0  0  0  0  0  0  0  0  0  0
   14.2340   17.5730   12.5590 C   0  0  0  0  0  0  0  0  0  0  0  0
   13.2430   16.6480   12.2570 C   0  0  0  0  0  0  0  0  0  0  0  0
   15.6850   17.1920   12.2920 C   0  0  0  0  0  0  0  0  0  0  0  0
   10.7580   15.7490   12.0520 C   0  0  0  0  0  0  0  0  0  0  0  0
    9.4570   16.1300   11.5410 C   0  0  0  0  0  0  0  0  0  0  0  0
    8.5140   15.1500   11.1500 C   0  0  0  0  0  0  0  0  0  0  0  0
    8.8460   13.7720   11.2590 C   0  0  0  0  0  0  0  0  0  0  0  0
   10.1290   13.3750   11.7540 C   0  0  0  0  0  0  0  0  0  0  0  0
   11.0770   14.3550   12.1470 C   0  0  0  0  0  0  0  0  0  0  0  0
   11.6840   16.7840   12.4410 C   0  0  0  0  0  0  0  0  0  0  0  0
   11.2330   17.8270   12.9510 O   0  0  0  0  0  0  0  0  0  0  0  0
    8.4500   19.1640    6.5920 O   0  0  0  0  0  0  0  0  0  0  0  0
    9.2060   19.7800    5.6050 C   0  0  0  0  0  0  0  0  0  0  0  0
    9.3400   21.1640    5.8780 N   0  0  0  0  0  0  0  0  0  0  0  0
    8.6550   21.3640    7.0750 C   0  0  0  0  0  0  0  0  0  0  0  0
    8.1090   20.1160    7.5100 C   0  0  0  0  0  0  0  0  0  0  0  0
    7.2690   19.8030    8.7640 C   0  0  0  0  0  0  0  0  0  0  0  0
    9.7190   19.1060    4.4870 C   0  0  0  0  0  0  0  0  0  0  0  0
   10.4990   19.7720    3.4700 C   0  0  0  0  0  0  0  0  0  0  0  0
   11.0110   19.0490    2.3630 C   0  0  0  0  0  0  0  0  0  0  0  0
   10.7620   17.6630    2.2440 C   0  0  0  0  0  0  0  0  0  0  0  0
   10.0030   16.9880    3.2360 C   0  0  0  0  0  0  0  0  0  0  0  0
    9.4850   17.7030    4.3490 C   0  0  0  0  0  0  0  0  0  0  0  0
    9.6990   23.0300    8.7320 C   0  0  0  0  0  0  0  0  0  0  0  0
    8.5550   22.7630    7.7470 C   0  0  0  0  0  0  0  0  0  0  0  0
   16.6900   20.6420   14.4420 O   0  0  0  0  0  0  0  0  0  0  0  0
   15.6170   18.9840   15.3970 O   0  0  0  0  0  0  0  0  0  0  0  0
   15.7040   19.8850   14.5270 C   0  0  0  0  0  0  0  0  0  0  0  0
   12.7892   18.9242   13.2295 H   0  0  0  0  0  0  0  0  0  0  0  0
   15.1528   20.3578   12.6181 H   0  0  0  0  0  0  0  0  0  0  0  0
   13.0989   20.9900   14.8411 H   0  0  0  0  0  0  0  0  0  0  0  0
   14.2166   22.1646   14.0117 H   0  0  0  0  0  0  0  0  0  0  0  0
   10.9345   20.5031   13.9284 H   0  0  0  0  0  0  0  0  0  0  0  0
   13.9207   22.6042   11.4801 H   0  0  0  0  0  0  0  0  0  0  0  0
    9.1939   20.9234   12.1585 H   0  0  0  0  0  0  0  0  0  0  0  0
   12.1931   23.0171    9.7386 H   0  0  0  0  0  0  0  0  0  0  0  0
   13.5925   15.6948   11.8336 H   0  0  0  0  0  0  0  0  0  0  0  0
   16.2099   17.0542   13.2488 H   0  0  0  0  0  0  0  0  0  0  0  0
   15.7182   16.2547   11.7172 H   0  0  0  0  0  0  0  0  0  0  0  0
   16.1744   17.9921   11.7172 H   0  0  0  0  0  0  0  0  0  0  0  0
    9.1986   17.1958   11.4558 H   0  0  0  0  0  0  0  0  0  0  0  0
    7.5295   15.4528   10.7639 H   0  0  0  0  0  0  0  0  0  0  0  0
    8.1134   13.0072   10.9615 H   0  0  0  0  0  0  0  0  0  0  0  0
   10.3809   12.3069   11.8300 H   0  0  0  0  0  0  0  0  0  0  0  0
   12.0613   14.0433   12.5263 H   0  0  0  0  0  0  0  0  0  0  0  0
    7.8598   20.0231    9.6654 H   0  0  0  0  0  0  0  0  0  0  0  0
    6.3603   20.4229    8.7607 H   0  0  0  0  0  0  0  0  0  0  0  0
    6.9875   18.7396    8.7607 H   0  0  0  0  0  0  0  0  0  0  0  0
   10.6977   20.8505    3.5551 H   0  0  0  0  0  0  0  0  0  0  0  0
   11.6034   19.5681    1.5951 H   0  0  0  0  0  0  0  0  0  0  0  0
   11.1569   17.1062    1.3814 H   0  0  0  0  0  0  0  0  0  0  0  0
    9.8155   15.9081    3.1425 H   0  0  0  0  0  0  0  0  0  0  0  0
    8.8979   17.1713    5.1123 H   0  0  0  0  0  0  0  0  0  0  0  0
    9.6912   24.0868    9.0371 H   0  0  0  0  0  0  0  0  0  0  0  0
   10.6695   22.8120    8.2622 H   0  0  0  0  0  0  0  0  0  0  0  0
    8.5799   23.5330    6.9618 H   0  0  0  0  0  0  0  0  0  0  0  0
    7.6138   22.7917    8.3156 H   0  0  0  0  0  0  0  0  0  0  0  0
   15.6398   19.2201   16.3582 H   0  0  0  0  0  0  0  0  0  0  0  0
  1  2  1  0
  1 11  1  0
  2  3  1  0
  2 38  1  0
  3  4  1  0
  4  5  2  0
  4  6  1  0
  5  7  1  0
  6  8  2  0
  7  9  2  0
  8  9  1  0
  9 10  1  0
 10 34  1  0
 11 12  2  0
 11 13  1  0
 12 20  1  0
 14 15  2  0
 14 19  1  0
 14 20  1  0
 15 16  1  0
 16 17  2  0
 17 18  1  0
 18 19  2  0
 20 21  2  0
 22 23  1  0
 22 26  1  0
 23 24  2  0
 23 28  1  0
 24 25  1  0
 25 26  2  0
 25 35  1  0
 26 27  1  0
 28 29  2  0
 28 33  1  0
 29 30  1  0
 30 31  2  0
 31 32  1  0
 32 33  2  0
 34 35  1  0
 36 38  2  0
 37 38  1  0
  1 39  1  0
  2 40  1  0
  3 41  1  0
  3 42  1  0
  5 43  1  0
  6 44  1  0
  7 45  1  0
  8 46  1  0
 12 47  1  0
 13 48  1  0
 13 49  1  0
 13 50  1  0
 15 51  1  0
 16 52  1  0
 17 53  1  0
 18 54  1  0
 19 55  1  0
 27 56  1  0
 27 57  1  0
 27 58  1  0
 29 59  1  0
 30 60  1  0
 31 61  1  0
 32 62  1  0
 33 63  1  0
 34 64  1  0
 34 65  1  0
 35 66  1  0
 35 67  1  0
 37 68  1  0
A    1
N
A    2
CA
A    3
CB
A    4
CG
A    5
CD1
A    6
CD2
A    7
CE1
A    8
CE2
A    9
CZ
A   10
OH
A   11
C1A
A   12
C1F
A   13
C1B
A   14
C1H
A   15
C1I
A   16
C1J
A   17
C1K
A   18
C1L
A   19
C1M
A   20
C1G
A   21
O1G
A   22
O3F
A   23
C3G
A   24
N3H
A   25
C3C
A   26
C3D
A   27
C3E
A   28
C3I
A   29
C3N
A   30
C3M
A   31
C3L
A   32
C3K
A   33
C3J
A   34
C3A
A   35
C3B
A   36
O2
A   37
O1
A   38
C
M  END
