1KBQ_936_A_703
     RDKit          3D

 42 44  0  0  0  0  0  0  0  0999 V2000
   13.6400   36.6260   19.1790 C   0  0  0  0  0  0  0  0  0  0  0  0
   13.6130   35.1800   18.7900 C   0  0  0  0  0  0  0  0  0  0  0  0
   13.1760   34.2440   19.6680 C   0  0  0  0  0  0  0  0  0  0  0  0
   12.7340   34.6090   20.9680 C   0  0  0  0  0  0  0  0  0  0  0  0
   12.7390   35.9140   21.3820 C   0  0  0  0  0  0  0  0  0  0  0  0
   13.2180   36.9910   20.4390 C   0  0  0  0  0  0  0  0  0  0  0  0
   13.0660   32.8570   19.5330 N   0  0  0  0  0  0  0  0  0  0  0  0
   12.5600   32.3480   20.7240 C   0  0  0  0  0  0  0  0  0  0  0  0
   12.3370   33.3890   21.6300 C   0  0  0  0  0  0  0  0  0  0  0  0
   12.3750   36.2480   22.4820 O   0  0  0  0  0  0  0  0  0  0  0  0
   13.9940   34.8630   17.6690 O   0  0  0  0  0  0  0  0  0  0  0  0
   13.3970   31.9780   18.3850 C   0  0  0  0  0  0  0  0  0  0  0  0
   11.7600   33.1620   23.0660 C   0  0  0  0  0  0  0  0  0  0  0  0
   11.6170   34.3700   23.7990 O   0  0  0  0  0  0  0  0  0  0  0  0
   10.2890   34.8910   23.8400 C   0  0  0  0  0  0  0  0  0  0  0  0
   10.1000   36.1560   24.4610 C   0  0  0  0  0  0  0  0  0  0  0  0
    8.8340   36.7630   24.4970 C   0  0  0  0  0  0  0  0  0  0  0  0
    7.7300   36.1080   23.9230 C   0  0  0  0  0  0  0  0  0  0  0  0
    7.8940   34.8390   23.3160 C   0  0  0  0  0  0  0  0  0  0  0  0
    9.1700   34.2380   23.2490 C   0  0  0  0  0  0  0  0  0  0  0  0
    6.5140   36.7000   23.9340 N   0  0  0  0  0  0  0  0  0  0  0  0
    6.2000   37.8180   23.1520 O   0  0  0  0  0  0  0  0  0  0  0  0
    5.4440   36.2650   24.7060 O   0  0  0  0  0  0  0  0  0  0  0  0
   12.3510   30.8610   20.9730 C   0  0  0  0  0  0  0  0  0  0  0  0
   13.2060   38.3070   20.9060 O   0  0  0  0  0  0  0  0  0  0  0  0
   13.6560   39.3270   20.0220 C   0  0  0  0  0  0  0  0  0  0  0  0
   13.9924   37.3874   18.4676 H   0  0  0  0  0  0  0  0  0  0  0  0
   13.7617   31.0095   18.7579 H   0  0  0  0  0  0  0  0  0  0  0  0
   12.4969   31.8198   17.7729 H   0  0  0  0  0  0  0  0  0  0  0  0
   14.1779   32.4528   17.7729 H   0  0  0  0  0  0  0  0  0  0  0  0
   10.7723   32.6861   22.9767 H   0  0  0  0  0  0  0  0  0  0  0  0
   12.4718   32.5255   23.6121 H   0  0  0  0  0  0  0  0  0  0  0  0
   10.9588   36.6673   24.9204 H   0  0  0  0  0  0  0  0  0  0  0  0
    8.7066   37.7468   24.9723 H   0  0  0  0  0  0  0  0  0  0  0  0
    7.0218   34.3182   22.8940 H   0  0  0  0  0  0  0  0  0  0  0  0
    9.2990   33.2700   22.7427 H   0  0  0  0  0  0  0  0  0  0  0  0
   12.3243   30.6708   22.0561 H   0  0  0  0  0  0  0  0  0  0  0  0
   11.3994   30.5438   20.5214 H   0  0  0  0  0  0  0  0  0  0  0  0
   13.1782   30.2938   20.5214 H   0  0  0  0  0  0  0  0  0  0  0  0
   14.0321   40.1794   20.6068 H   0  0  0  0  0  0  0  0  0  0  0  0
   14.4637   38.9326   19.3879 H   0  0  0  0  0  0  0  0  0  0  0  0
   12.8202   39.6576   19.3879 H   0  0  0  0  0  0  0  0  0  0  0  0
  1  2  1  0
  1  6  2  0
  2  3  1  0
  2 11  2  0
  3  4  2  0
  3  7  1  0
  4  5  1  0
  4  9  1  0
  5  6  1  0
  5 10  2  0
  6 25  1  0
  7  8  1  0
  7 12  1  0
  8  9  2  0
  8 24  1  0
  9 13  1  0
 13 14  1  0
 14 15  1  0
 15 16  2  0
 15 20  1  0
 16 17  1  0
 17 18  2  0
 18 19  1  0
 18 21  1  0
 19 20  2  0
 21 22  1  0
 21 23  2  0
 25 26  1  0
  1 27  1  0
 12 28  1  0
 12 29  1  0
 12 30  1  0
 13 31  1  0
 13 32  1  0
 16 33  1  0
 17 34  1  0
 19 35  1  0
 20 36  1  0
 24 37  1  0
 24 38  1  0
 24 39  1  0
 26 40  1  0
 26 41  1  0
 26 42  1  0
M  CHG  2  21   1  22  -1
A    1
C1
A    2
C2
A    3
C3
A    4
C4
A    5
C5
A    6
C6
A    7
N7
A    8
C8
A    9
C9
A   10
O10
A   11
O11
A   12
C12
A   13
C19
A   14
O20
A   15
C24
A   16
C25
A   17
C26
A   18
C27
A   19
C28
A   20
C29
A   21
N34
A   22
O35
A   23
O36
A   24
C37
A   25
O44
A   26
C45
M  END
