1KE6_LS2_A_299
     RDKit          3D

 42 45  0  0  0  0  0  0  0  0999 V2000
   26.5500   15.5690   13.4080 N   0  0  0  0  0  0  0  0  0  0  0  0
   26.0960   14.6940   12.4600 C   0  0  0  0  0  0  0  0  0  0  0  0
   26.7910   13.3850   12.6280 C   0  0  0  0  0  0  0  0  0  0  0  0
   28.5820   12.6570   14.4330 C   0  0  0  0  0  0  0  0  0  0  0  0
   29.2930   13.1430   15.6760 C   0  0  0  0  0  0  0  0  0  0  0  0
   29.0870   14.5130   16.1560 C   0  0  0  0  0  0  0  0  0  0  0  0
   28.1730   15.4350   15.4190 C   0  0  0  0  0  0  0  0  0  0  0  0
   27.4450   14.9380   14.2280 C   0  0  0  0  0  0  0  0  0  0  0  0
   27.6550   13.5730   13.7640 C   0  0  0  0  0  0  0  0  0  0  0  0
   25.2610   14.8730   11.5720 O   0  0  0  0  0  0  0  0  0  0  0  0
   26.5880   12.2050   11.8110 N   0  0  0  0  0  0  0  0  0  0  0  0
   29.0340   11.0610   14.0640 S   0  0  0  0  0  0  0  0  0  0  0  0
   30.0340   10.9520   15.4460 C   0  0  0  0  0  0  0  0  0  0  0  0
   30.0640   12.0930   16.1860 N   0  0  0  0  0  0  0  0  0  0  0  0
   26.1900   12.2200   10.6240 N   0  0  0  0  0  0  0  0  0  0  0  0
   25.9420   11.1170    9.8670 C   0  0  0  0  0  0  0  0  0  0  0  0
   24.6700   11.0850    9.1060 C   0  0  0  0  0  0  0  0  0  0  0  0
   24.2740    9.8510    8.3950 C   0  0  0  0  0  0  0  0  0  0  0  0
   25.1700    8.6650    8.4120 C   0  0  0  0  0  0  0  0  0  0  0  0
   26.4270    8.6910    9.1900 C   0  0  0  0  0  0  0  0  0  0  0  0
   26.8640    9.9290    9.8230 C   0  0  0  0  0  0  0  0  0  0  0  0
   24.8910    7.4670    7.5500 C   0  0  0  0  0  0  0  0  0  0  0  0
   26.0100    7.1890    6.1740 S   0  0  0  0  0  0  0  0  0  0  0  0
   26.3310    8.4560    5.5640 O   0  0  0  0  0  0  0  0  0  0  0  0
   25.4880    6.1380    5.3390 O   0  0  0  0  0  0  0  0  0  0  0  0
   27.4280    6.5770    6.7500 N   0  0  0  0  0  0  0  0  0  0  0  0
   27.4910    5.3730    7.5610 C   0  0  0  0  0  0  0  0  0  0  0  0
   26.2616   16.5542   13.4919 H   0  0  0  0  0  0  0  0  0  0  0  0
   29.6067   14.8620   17.0605 H   0  0  0  0  0  0  0  0  0  0  0  0
   28.0412   16.4735   15.7569 H   0  0  0  0  0  0  0  0  0  0  0  0
   30.5990   10.0463   15.7114 H   0  0  0  0  0  0  0  0  0  0  0  0
   26.0384   13.1398   10.1861 H   0  0  0  0  0  0  0  0  0  0  0  0
   24.0243   11.9749    9.0707 H   0  0  0  0  0  0  0  0  0  0  0  0
   23.3172    9.8104    7.8538 H   0  0  0  0  0  0  0  0  0  0  0  0
   27.0314    7.7775    9.2909 H   0  0  0  0  0  0  0  0  0  0  0  0
   27.8676    9.9947   10.2684 H   0  0  0  0  0  0  0  0  0  0  0  0
   24.9269    6.5764    8.1946 H   0  0  0  0  0  0  0  0  0  0  0  0
   23.9102    7.6615    7.0916 H   0  0  0  0  0  0  0  0  0  0  0  0
   28.0167    6.3959    5.9245 H   0  0  0  0  0  0  0  0  0  0  0  0
   27.4767    5.6472    8.6262 H   0  0  0  0  0  0  0  0  0  0  0  0
   26.6251    4.7332    7.3354 H   0  0  0  0  0  0  0  0  0  0  0  0
   28.4189    4.8271    7.3354 H   0  0  0  0  0  0  0  0  0  0  0  0
  1  2  1  0
  1  8  1  0
  2  3  1  0
  2 10  2  0
  3  9  1  0
  3 11  2  0
  4  5  1  0
  4  9  2  0
  4 12  1  0
  5  6  2  0
  5 14  1  0
  6  7  1  0
  7  8  2  0
  8  9  1  0
 11 15  1  0
 12 13  1  0
 13 14  2  0
 15 16  1  0
 16 17  2  0
 16 21  1  0
 17 18  1  0
 18 19  2  0
 19 20  1  0
 19 22  1  0
 20 21  2  0
 22 23  1  0
 23 24  2  0
 23 25  2  0
 23 26  1  0
 26 27  1  0
  1 28  1  0
  6 29  1  0
  7 30  1  0
 13 31  1  0
 15 32  1  0
 17 33  1  0
 18 34  1  0
 20 35  1  0
 21 36  1  0
 22 37  1  0
 22 38  1  0
 26 39  1  0
 27 40  1  0
 27 41  1  0
 27 42  1  0
A    1
N1
A    2
C2
A    3
C3
A    4
C4
A    5
C5
A    6
C6
A    7
C7
A    8
C8
A    9
C9
A   10
O11
A   11
N12
A   12
S13
A   13
C14
A   14
N15
A   15
N19
A   16
C21
A   17
C22
A   18
C23
A   19
C24
A   20
C25
A   21
C26
A   22
C29
A   23
S34
A   24
O35
A   25
O36
A   26
N37
A   27
C39
M  END
