1KE7_LS3_A_299
     RDKit          3D

 43 47  0  0  0  0  0  0  0  0999 V2000
  -10.9100   52.3530   11.7630 O   0  0  0  0  0  0  0  0  0  0  0  0
  -10.1870   51.8690   12.6200 C   0  0  0  0  0  0  0  0  0  0  0  0
   -9.6420   52.5270   13.6990 N   0  0  0  0  0  0  0  0  0  0  0  0
   -8.8130   51.6860   14.3930 C   0  0  0  0  0  0  0  0  0  0  0  0
   -7.9970   51.9080   15.6130 C   0  0  0  0  0  0  0  0  0  0  0  0
   -7.1340   50.7930   16.1090 C   0  0  0  0  0  0  0  0  0  0  0  0
   -7.0150   49.4940   15.3550 C   0  0  0  0  0  0  0  0  0  0  0  0
   -6.1390   48.4270   15.8200 C   0  0  0  0  0  0  0  0  0  0  0  0
   -5.8340   48.2230   17.1420 O   0  0  0  0  0  0  0  0  0  0  0  0
   -5.1820   47.0170   17.1810 C   0  0  0  0  0  0  0  0  0  0  0  0
   -4.8760   46.5750   15.9410 N   0  0  0  0  0  0  0  0  0  0  0  0
   -5.4640   47.4140   15.0610 C   0  0  0  0  0  0  0  0  0  0  0  0
   -7.8730   49.3310   14.1390 C   0  0  0  0  0  0  0  0  0  0  0  0
   -8.7920   50.4060   13.7060 C   0  0  0  0  0  0  0  0  0  0  0  0
   -9.7530   50.4380   12.6230 C   0  0  0  0  0  0  0  0  0  0  0  0
  -10.1730   49.4120   11.8460 C   0  0  0  0  0  0  0  0  0  0  0  0
  -10.9420   49.3820   10.5820 N   0  0  0  0  0  0  0  0  0  0  0  0
  -11.1170   48.2830    9.7730 C   0  0  0  0  0  0  0  0  0  0  0  0
  -10.0100   47.3440    9.3940 C   0  0  0  0  0  0  0  0  0  0  0  0
  -10.2970   46.1970    8.5330 C   0  0  0  0  0  0  0  0  0  0  0  0
   -9.3360   45.1630    8.0910 C   0  0  0  0  0  0  0  0  0  0  0  0
   -9.9210   44.4500    6.5620 S   0  0  0  0  0  0  0  0  0  0  0  0
   -9.6840   43.0320    6.5110 O   0  0  0  0  0  0  0  0  0  0  0  0
   -9.4570   45.3080    5.5090 O   0  0  0  0  0  0  0  0  0  0  0  0
  -11.6310   44.8710    6.9850 C   0  0  0  0  0  0  0  0  0  0  0  0
  -11.6380   45.9950    7.9680 C   0  0  0  0  0  0  0  0  0  0  0  0
  -12.7620   46.8820    8.3510 C   0  0  0  0  0  0  0  0  0  0  0  0
  -12.4880   48.0360    9.2410 C   0  0  0  0  0  0  0  0  0  0  0  0
   -9.8301   53.5085   13.9482 H   0  0  0  0  0  0  0  0  0  0  0  0
   -8.0268   52.8726   16.1408 H   0  0  0  0  0  0  0  0  0  0  0  0
   -6.5729   50.9238   17.0460 H   0  0  0  0  0  0  0  0  0  0  0  0
   -4.9382   46.4762   18.1073 H   0  0  0  0  0  0  0  0  0  0  0  0
   -5.4313   47.3351   13.9643 H   0  0  0  0  0  0  0  0  0  0  0  0
   -7.8191   48.3979   13.5590 H   0  0  0  0  0  0  0  0  0  0  0  0
   -9.8908   48.4181   12.2236 H   0  0  0  0  0  0  0  0  0  0  0  0
  -11.3854   50.2617   10.2813 H   0  0  0  0  0  0  0  0  0  0  0  0
   -8.9879   47.5172    9.7617 H   0  0  0  0  0  0  0  0  0  0  0  0
   -8.3483   45.6202    7.9317 H   0  0  0  0  0  0  0  0  0  0  0  0
   -9.2492   44.3805    8.8592 H   0  0  0  0  0  0  0  0  0  0  0  0
  -12.1693   45.1759    6.0755 H   0  0  0  0  0  0  0  0  0  0  0  0
  -12.1260   43.9939    7.4273 H   0  0  0  0  0  0  0  0  0  0  0  0
  -13.7800   46.6880    7.9821 H   0  0  0  0  0  0  0  0  0  0  0  0
  -13.3067   48.7187    9.5123 H   0  0  0  0  0  0  0  0  0  0  0  0
  1  2  2  0
  2  3  1  0
  2 15  1  0
  3  4  1  0
  4  5  2  0
  4 14  1  0
  5  6  1  0
  6  7  2  0
  7  8  1  0
  7 13  1  0
  8  9  1  0
  8 12  2  0
  9 10  1  0
 10 11  2  0
 11 12  1  0
 13 14  2  0
 14 15  1  0
 15 16  2  0
 16 17  1  0
 17 18  1  0
 18 19  2  0
 18 28  1  0
 19 20  1  0
 20 21  1  0
 20 26  2  0
 21 22  1  0
 22 23  2  0
 22 24  2  0
 22 25  1  0
 25 26  1  0
 26 27  1  0
 27 28  2  0
  3 29  1  0
  5 30  1  0
  6 31  1  0
 10 32  1  0
 12 33  1  0
 13 34  1  0
 16 35  1  0
 17 36  1  0
 19 37  1  0
 21 38  1  0
 21 39  1  0
 25 40  1  0
 25 41  1  0
 27 42  1  0
 28 43  1  0
A    1
O5
A    2
C6
A    3
N7
A    4
C8
A    5
C9
A    6
C10
A    7
C11
A    8
C12
A    9
O13
A   10
C14
A   11
N15
A   12
C16
A   13
C17
A   14
C18
A   15
C19
A   16
C20
A   17
N21
A   18
C22
A   19
C23
A   20
C24
A   21
C25
A   22
S26
A   23
O27
A   24
O28
A   25
C29
A   26
C30
A   27
C31
A   28
C32
M  END
