1KE8_LS4_A_299
     RDKit          3D

 41 44  0  0  0  0  0  0  0  0999 V2000
  -10.8190   52.1550   11.8230 O   0  0  0  0  0  0  0  0  0  0  0  0
  -10.0070   51.9120   12.7190 C   0  0  0  0  0  0  0  0  0  0  0  0
   -9.5010   52.7810   13.6290 N   0  0  0  0  0  0  0  0  0  0  0  0
   -8.6060   52.1330   14.4470 C   0  0  0  0  0  0  0  0  0  0  0  0
   -7.8120   52.6600   15.5750 C   0  0  0  0  0  0  0  0  0  0  0  0
   -6.9680   51.7230   16.3700 C   0  0  0  0  0  0  0  0  0  0  0  0
   -6.9040   50.2770   16.0150 C   0  0  0  0  0  0  0  0  0  0  0  0
   -7.6760   49.7610   14.8490 C   0  0  0  0  0  0  0  0  0  0  0  0
   -8.5240   50.7210   14.0790 C   0  0  0  0  0  0  0  0  0  0  0  0
   -9.3810   50.5430   12.9320 C   0  0  0  0  0  0  0  0  0  0  0  0
   -9.5920   49.4490   12.1800 C   0  0  0  0  0  0  0  0  0  0  0  0
  -10.3110   49.4570   10.8820 N   0  0  0  0  0  0  0  0  0  0  0  0
  -10.2960   48.4740    9.9550 C   0  0  0  0  0  0  0  0  0  0  0  0
   -9.1870   47.4670    9.7740 C   0  0  0  0  0  0  0  0  0  0  0  0
   -9.2960   46.4410    8.7540 C   0  0  0  0  0  0  0  0  0  0  0  0
  -10.4760   46.4250    7.8570 C   0  0  0  0  0  0  0  0  0  0  0  0
  -11.5790   47.3970    8.0280 C   0  0  0  0  0  0  0  0  0  0  0  0
  -11.4850   48.4260    9.0790 C   0  0  0  0  0  0  0  0  0  0  0  0
  -10.5600   45.1590    6.6180 S   0  0  0  0  0  0  0  0  0  0  0  0
  -11.6480   45.3940    5.7120 O   0  0  0  0  0  0  0  0  0  0  0  0
   -9.2440   45.0910    6.0680 O   0  0  0  0  0  0  0  0  0  0  0  0
  -10.8840   43.7170    7.4040 N   0  0  0  0  0  0  0  0  0  0  0  0
  -12.1880   43.4200    8.0910 C   0  0  0  0  0  0  0  0  0  0  0  0
  -12.3050   42.4420    9.4760 S   0  0  0  0  0  0  0  0  0  0  0  0
  -13.9770   42.6840    9.6300 C   0  0  0  0  0  0  0  0  0  0  0  0
  -14.4510   43.4440    8.5470 C   0  0  0  0  0  0  0  0  0  0  0  0
  -13.4300   43.8560    7.7220 N   0  0  0  0  0  0  0  0  0  0  0  0
   -9.7502   53.7781   13.6971 H   0  0  0  0  0  0  0  0  0  0  0  0
   -7.8429   53.7306   15.8255 H   0  0  0  0  0  0  0  0  0  0  0  0
   -6.3883   52.1016   17.2248 H   0  0  0  0  0  0  0  0  0  0  0  0
   -6.2871   49.5905   16.6134 H   0  0  0  0  0  0  0  0  0  0  0  0
   -7.6229   48.7003   14.5625 H   0  0  0  0  0  0  0  0  0  0  0  0
   -9.2074   48.4872   12.5502 H   0  0  0  0  0  0  0  0  0  0  0  0
  -10.8753   50.2914   10.6671 H   0  0  0  0  0  0  0  0  0  0  0  0
   -8.2949   47.5108   10.4161 H   0  0  0  0  0  0  0  0  0  0  0  0
   -8.5086   45.6804    8.6471 H   0  0  0  0  0  0  0  0  0  0  0  0
  -12.4631   47.3517    7.3750 H   0  0  0  0  0  0  0  0  0  0  0  0
  -12.2973   49.1559    9.2108 H   0  0  0  0  0  0  0  0  0  0  0  0
  -10.1504   42.9941    7.4177 H   0  0  0  0  0  0  0  0  0  0  0  0
  -14.5975   42.3029   10.4545 H   0  0  0  0  0  0  0  0  0  0  0  0
  -15.5119   43.6812    8.3790 H   0  0  0  0  0  0  0  0  0  0  0  0
  1  2  2  0
  2  3  1  0
  2 10  1  0
  3  4  1  0
  4  5  2  0
  4  9  1  0
  5  6  1  0
  6  7  2  0
  7  8  1  0
  8  9  2  0
  9 10  1  0
 10 11  2  0
 11 12  1  0
 12 13  1  0
 13 14  2  0
 13 18  1  0
 14 15  1  0
 15 16  2  0
 16 17  1  0
 16 19  1  0
 17 18  2  0
 19 20  2  0
 19 21  2  0
 19 22  1  0
 22 23  1  0
 23 24  1  0
 23 27  2  0
 24 25  1  0
 25 26  2  0
 26 27  1  0
  3 28  1  0
  5 29  1  0
  6 30  1  0
  7 31  1  0
  8 32  1  0
 11 33  1  0
 12 34  1  0
 14 35  1  0
 15 36  1  0
 17 37  1  0
 18 38  1  0
 22 39  1  0
 25 40  1  0
 26 41  1  0
A    1
O5
A    2
C6
A    3
N7
A    4
C8
A    5
C9
A    6
C10
A    7
C11
A    8
C12
A    9
C13
A   10
C14
A   11
C15
A   12
N16
A   13
C17
A   14
C18
A   15
C19
A   16
C20
A   17
C21
A   18
C22
A   19
S23
A   20
O24
A   21
O25
A   22
N26
A   23
C27
A   24
S28
A   25
C29
A   26
C30
A   27
N31
M  END
