1KEK_HTL_A_2236
     RDKit          3D

 50 51  0  0  0  0  0  0  0  0999 V2000
  -27.3070  -64.0400   24.7640 N   0  0  0  0  0  0  0  0  0  0  0  0
  -25.9930  -64.1980   25.4030 C   0  0  0  0  0  0  0  0  0  0  0  0
  -25.4240  -63.1740   26.1510 C   0  0  0  0  0  0  0  0  0  0  0  0
  -25.2600  -65.4080   25.2760 N   0  0  0  0  0  0  0  0  0  0  0  0
  -25.8020  -66.5270   24.4990 C   0  0  0  0  0  0  0  0  0  0  0  0
  -24.9690  -67.7140   24.4360 N   0  0  0  0  0  0  0  0  0  0  0  0
  -27.1950  -66.3990   23.8020 C   0  0  0  0  0  0  0  0  0  0  0  0
  -27.8580  -65.1690   23.9770 C   0  0  0  0  0  0  0  0  0  0  0  0
  -27.7990  -67.5210   22.9880 C   0  0  0  0  0  0  0  0  0  0  0  0
  -27.0130  -67.7820   21.7980 N   0  0  0  0  0  0  0  0  0  0  0  0
  -26.2310  -69.0560   21.5680 C   0  0  0  0  0  0  0  0  0  0  0  0
  -26.6140  -69.5520   20.0780 S   0  0  0  0  0  0  0  0  0  0  0  0
  -26.7930  -67.8560   19.5970 C   0  0  0  0  0  0  0  0  0  0  0  0
  -27.4530  -67.2640   20.5830 C   0  0  0  0  0  0  0  0  0  0  0  0
  -28.4860  -66.3350   20.2690 C   0  0  0  0  0  0  0  0  0  0  0  0
  -27.5950  -67.9510   18.3070 C   0  0  0  0  0  0  0  0  0  0  0  0
  -26.5420  -67.4380   17.3460 C   0  0  0  0  0  0  0  0  0  0  0  0
  -26.8020  -66.7530   16.0280 O   0  0  0  0  0  0  0  0  0  0  0  0
  -25.8660  -66.3950   14.8380 P   0  0  0  0  0  0  0  0  0  0  0  0
  -25.2770  -67.8230   14.5660 O   0  0  0  0  0  0  0  0  0  0  0  0
  -26.5720  -65.8830   13.6430 O   0  0  0  0  0  0  0  0  0  0  0  0
  -24.8150  -65.5830   15.4320 O   0  0  0  0  0  0  0  0  0  0  0  0
  -25.8670  -69.1770   13.7900 P   0  0  0  0  0  0  0  0  0  0  0  0
  -24.7770  -69.6480   12.8360 O   0  0  0  0  0  0  0  0  0  0  0  0
  -26.3910  -70.0310   14.8430 O   0  0  0  0  0  0  0  0  0  0  0  0
  -27.0020  -68.5680   12.9360 O   0  0  0  0  0  0  0  0  0  0  0  0
  -26.0290  -70.5290   22.8650 C   0  0  0  0  0  0  0  0  0  0  0  0
  -26.0800  -70.3580   24.0890 O   0  0  0  0  0  0  0  0  0  0  0  0
  -25.5710  -71.9420   22.3450 C   0  0  0  0  0  0  0  0  0  0  0  0
  -25.5450  -63.3917   27.2224 H   0  0  0  0  0  0  0  0  0  0  0  0
  -24.3533  -63.0962   25.9113 H   0  0  0  0  0  0  0  0  0  0  0  0
  -25.9234  -62.2237   25.9113 H   0  0  0  0  0  0  0  0  0  0  0  0
  -24.6512  -68.1668   25.3048 H   0  0  0  0  0  0  0  0  0  0  0  0
  -24.6957  -68.1035   23.5225 H   0  0  0  0  0  0  0  0  0  0  0  0
  -28.8416  -65.0384   23.5023 H   0  0  0  0  0  0  0  0  0  0  0  0
  -27.8343  -68.4325   23.6027 H   0  0  0  0  0  0  0  0  0  0  0  0
  -28.8124  -67.2239   22.6801 H   0  0  0  0  0  0  0  0  0  0  0  0
  -28.9219  -65.9430   21.1997 H   0  0  0  0  0  0  0  0  0  0  0  0
  -28.0664  -65.5045   19.6824 H   0  0  0  0  0  0  0  0  0  0  0  0
  -29.2675  -66.8401   19.6824 H   0  0  0  0  0  0  0  0  0  0  0  0
  -27.8936  -68.9852   18.0804 H   0  0  0  0  0  0  0  0  0  0  0  0
  -28.5518  -67.4083   18.2996 H   0  0  0  0  0  0  0  0  0  0  0  0
  -25.9435  -66.7228   17.9293 H   0  0  0  0  0  0  0  0  0  0  0  0
  -26.1381  -68.3946   16.9831 H   0  0  0  0  0  0  0  0  0  0  0  0
  -24.8782  -65.6318   16.4188 H   0  0  0  0  0  0  0  0  0  0  0  0
  -26.1563  -69.6485   15.7255 H   0  0  0  0  0  0  0  0  0  0  0  0
  -27.6988  -68.1941   13.5316 H   0  0  0  0  0  0  0  0  0  0  0  0
  -25.3586  -72.5972   23.2027 H   0  0  0  0  0  0  0  0  0  0  0  0
  -26.3715  -72.3852   21.7344 H   0  0  0  0  0  0  0  0  0  0  0  0
  -24.6627  -71.8313   21.7344 H   0  0  0  0  0  0  0  0  0  0  0  0
  1  2  2  0
  1  8  1  0
  2  3  1  0
  2  4  1  0
  4  5  2  0
  5  6  1  0
  5  7  1  0
  7  8  2  0
  7  9  1  0
  9 10  1  0
 10 11  2  0
 10 14  1  0
 11 12  1  0
 11 27  1  0
 12 13  1  0
 13 14  2  0
 13 16  1  0
 14 15  1  0
 16 17  1  0
 17 18  1  0
 18 19  1  0
 19 20  1  0
 19 21  2  0
 19 22  1  0
 20 23  1  0
 23 24  2  0
 23 25  1  0
 23 26  1  0
 27 28  2  0
 27 29  1  0
  3 30  1  0
  3 31  1  0
  3 32  1  0
  6 33  1  0
  6 34  1  0
  8 35  1  0
  9 36  1  0
  9 37  1  0
 15 38  1  0
 15 39  1  0
 15 40  1  0
 16 41  1  0
 16 42  1  0
 17 43  1  0
 17 44  1  0
 22 45  1  0
 25 46  1  0
 26 47  1  0
 29 48  1  0
 29 49  1  0
 29 50  1  0
M  CHG  1  10   1
A    1
N1'
A    2
C2'
A    3
C2A
A    4
N3'
A    5
C4'
A    6
N4'
A    7
C5'
A    8
C6'
A    9
C35
A   10
N3
A   11
C2
A   12
S1
A   13
C5
A   14
C4
A   15
C4A
A   16
C5A
A   17
C5B
A   18
O5G
A   19
P1
A   20
O11
A   21
O12
A   22
O13
A   23
P2
A   24
O21
A   25
O22
A   26
O23
A   27
C1'
A   28
O2'
A   29
C3'
M  END
