1KI3_PE2_A_1
     RDKit          3D

 33 34  0  0  0  0  0  0  0  0999 V2000
   43.7820   84.9180   54.0320 C   0  0  0  0  0  0  0  0  0  0  0  0
   45.5620   85.1640   55.3970 C   0  0  0  0  0  0  0  0  0  0  0  0
   44.8980   86.0070   56.2830 C   0  0  0  0  0  0  0  0  0  0  0  0
   50.0930   82.1860   53.3420 C   0  0  0  0  0  0  0  0  0  0  0  0
   51.0830   81.4290   54.0660 O   0  0  0  0  0  0  0  0  0  0  0  0
   50.8880   84.1840   54.2580 C   0  0  0  0  0  0  0  0  0  0  0  0
   51.3170   84.3360   52.8480 O   0  0  0  0  0  0  0  0  0  0  0  0
   49.7830   83.2010   54.3400 C   0  0  0  0  0  0  0  0  0  0  0  0
   48.4790   83.8510   54.0490 C   0  0  0  0  0  0  0  0  0  0  0  0
   47.9910   84.1700   55.4610 C   0  0  0  0  0  0  0  0  0  0  0  0
   46.8390   84.9920   55.9310 N   0  0  0  0  0  0  0  0  0  0  0  0
   45.0750   84.5790   54.2330 N   0  0  0  0  0  0  0  0  0  0  0  0
   43.1930   84.3930   52.9340 N   0  0  0  0  0  0  0  0  0  0  0  0
   43.0530   85.7900   54.8810 N   0  0  0  0  0  0  0  0  0  0  0  0
   43.5490   86.3930   56.0470 C   0  0  0  0  0  0  0  0  0  0  0  0
   42.9050   87.1620   56.7820 O   0  0  0  0  0  0  0  0  0  0  0  0
   45.7270   86.3800   57.3400 N   0  0  0  0  0  0  0  0  0  0  0  0
   46.8010   85.7380   57.0630 C   0  0  0  0  0  0  0  0  0  0  0  0
   50.5063   82.6277   52.4232 H   0  0  0  0  0  0  0  0  0  0  0  0
   49.2305   81.6044   52.9846 H   0  0  0  0  0  0  0  0  0  0  0  0
   50.9372   81.5405   55.0388 H   0  0  0  0  0  0  0  0  0  0  0  0
   51.7367   83.8315   54.8625 H   0  0  0  0  0  0  0  0  0  0  0  0
   50.5408   85.1553   54.6401 H   0  0  0  0  0  0  0  0  0  0  0  0
   52.2498   84.6665   52.8207 H   0  0  0  0  0  0  0  0  0  0  0  0
   49.6957   82.7662   55.3466 H   0  0  0  0  0  0  0  0  0  0  0  0
   48.6077   84.7646   53.4500 H   0  0  0  0  0  0  0  0  0  0  0  0
   47.7862   83.2335   53.4584 H   0  0  0  0  0  0  0  0  0  0  0  0
   47.8102   83.1813   55.9080 H   0  0  0  0  0  0  0  0  0  0  0  0
   48.7849   84.8854   55.7217 H   0  0  0  0  0  0  0  0  0  0  0  0
   42.4279   83.7110   53.0363 H   0  0  0  0  0  0  0  0  0  0  0  0
   43.5094   84.6750   51.9952 H   0  0  0  0  0  0  0  0  0  0  0  0
   42.0786   85.9978   54.6198 H   0  0  0  0  0  0  0  0  0  0  0  0
   47.6743   85.7909   57.7298 H   0  0  0  0  0  0  0  0  0  0  0  0
  1 12  2  0
  1 13  1  0
  1 14  1  0
  2  3  2  0
  2 11  1  0
  2 12  1  0
  3 15  1  0
  3 17  1  0
  4  5  1  0
  4  8  1  0
  6  7  1  0
  6  8  1  0
  8  9  1  0
  9 10  1  0
 10 11  1  0
 11 18  1  0
 14 15  1  0
 15 16  2  0
 17 18  2  0
  4 19  1  0
  4 20  1  0
  5 21  1  0
  6 22  1  0
  6 23  1  0
  7 24  1  0
  8 25  1  0
  9 26  1  0
  9 27  1  0
 10 28  1  0
 10 29  1  0
 13 30  1  0
 13 31  1  0
 14 32  1  0
 18 33  1  0
A    1
C2
A    2
C4
A    3
C5
A    4
C4'
A    5
O4'
A    6
C3'
A    7
O3'
A    8
C2'
A    9
C12
A   10
C1'
A   11
N9
A   12
N3
A   13
N2
A   14
N1
A   15
C6
A   16
O6
A   17
N7
A   18
C8
M  END
