1KI7_ID2_A_1
     RDKit          3D

 28 29  0  0  0  0  0  0  0  0999 V2000
   45.4900   84.6150   54.6470 C   0  0  0  0  0  0  0  0  0  0  0  0
   44.2990   83.2730   52.9440 C   0  0  0  0  0  0  0  0  0  0  0  0
   45.5110   82.6620   52.6490 C   0  0  0  0  0  0  0  0  0  0  0  0
   46.6490   83.0110   53.3330 C   0  0  0  0  0  0  0  0  0  0  0  0
   45.3330   85.5090   55.5000 O   0  0  0  0  0  0  0  0  0  0  0  0
   49.7210   81.8830   53.3150 O   0  0  0  0  0  0  0  0  0  0  0  0
   50.6490   82.9020   53.1400 C   0  0  0  0  0  0  0  0  0  0  0  0
   50.2190   84.0180   54.1080 C   0  0  0  0  0  0  0  0  0  0  0  0
   48.8670   84.4010   53.8300 O   0  0  0  0  0  0  0  0  0  0  0  0
   47.9450   84.3040   54.9560 C   0  0  0  0  0  0  0  0  0  0  0  0
   46.6630   83.9530   54.3200 N   0  0  0  0  0  0  0  0  0  0  0  0
   44.4030   84.2040   53.9290 N   0  0  0  0  0  0  0  0  0  0  0  0
   43.2180   83.0280   52.3940 O   0  0  0  0  0  0  0  0  0  0  0  0
   45.5170   81.2190   51.1000 I   0  0  0  0  0  0  0  0  0  0  0  0
   48.6570   83.2240   55.7490 C   0  0  0  0  0  0  0  0  0  0  0  0
   50.1230   83.4780   55.5440 C   0  0  0  0  0  0  0  0  0  0  0  0
   50.5320   84.4100   56.4580 O   0  0  0  0  0  0  0  0  0  0  0  0
   47.5924   82.5084   53.0736 H   0  0  0  0  0  0  0  0  0  0  0  0
   49.5797   81.7279   54.2825 H   0  0  0  0  0  0  0  0  0  0  0  0
   51.6607   82.5475   53.3866 H   0  0  0  0  0  0  0  0  0  0  0  0
   50.6785   83.2535   52.0981 H   0  0  0  0  0  0  0  0  0  0  0  0
   50.9502   84.8321   53.9964 H   0  0  0  0  0  0  0  0  0  0  0  0
   47.7216   85.1571   55.6135 H   0  0  0  0  0  0  0  0  0  0  0  0
   43.5203   84.6753   54.1732 H   0  0  0  0  0  0  0  0  0  0  0  0
   48.3994   83.2972   56.8159 H   0  0  0  0  0  0  0  0  0  0  0  0
   48.3668   82.2158   55.4183 H   0  0  0  0  0  0  0  0  0  0  0  0
   50.7562   82.5885   55.6774 H   0  0  0  0  0  0  0  0  0  0  0  0
   50.3801   84.0638   57.3729 H   0  0  0  0  0  0  0  0  0  0  0  0
  1  5  2  0
  1 11  1  0
  1 12  1  0
  2  3  1  0
  2 12  1  0
  2 13  2  0
  3  4  2  0
  3 14  1  0
  4 11  1  0
  6  7  1  0
  7  8  1  0
  8  9  1  0
  8 16  1  0
  9 10  1  0
 10 11  1  0
 10 15  1  0
 15 16  1  0
 16 17  1  0
  4 18  1  0
  6 19  1  0
  7 20  1  0
  7 21  1  0
  8 22  1  0
 10 23  1  0
 12 24  1  0
 15 25  1  0
 15 26  1  0
 16 27  1  0
 17 28  1  0
A    1
C2
A    2
C4
A    3
C5
A    4
C6
A    5
O2
A    6
O5'
A    7
C5'
A    8
C4'
A    9
O4'
A   10
C1'
A   11
N1
A   12
N3
A   13
O4
A   14
I
A   15
C2'
A   16
C3'
A   17
O3'
M  END
