1KLK_PMD_A_653
     RDKit          3D

 45 49  0  0  0  0  0  0  0  0999 V2000
   10.4280    2.3360   11.6530 C   0  0  0  0  0  0  0  0  0  0  0  0
   11.2440    3.8480   13.3410 C   0  0  0  0  0  0  0  0  0  0  0  0
   12.4910    3.9500   12.6560 C   0  0  0  0  0  0  0  0  0  0  0  0
   14.7430    4.7590   12.4280 C   0  0  0  0  0  0  0  0  0  0  0  0
   14.8660    3.9970   11.2110 C   0  0  0  0  0  0  0  0  0  0  0  0
   12.6420    3.1830   11.4420 C   0  0  0  0  0  0  0  0  0  0  0  0
   15.9900    5.5790   12.9390 C   0  0  0  0  0  0  0  0  0  0  0  0
   18.1610    6.5300   12.3670 C   0  0  0  0  0  0  0  0  0  0  0  0
   18.4220    6.2660   13.7700 C   0  0  0  0  0  0  0  0  0  0  0  0
   19.7390    6.3230   14.2830 C   0  0  0  0  0  0  0  0  0  0  0  0
   20.8170    6.5670   13.4070 C   0  0  0  0  0  0  0  0  0  0  0  0
   20.5880    6.7990   12.0330 C   0  0  0  0  0  0  0  0  0  0  0  0
   19.2800    6.8530   11.4780 C   0  0  0  0  0  0  0  0  0  0  0  0
   19.1950    7.0730    9.9570 C   0  0  0  0  0  0  0  0  0  0  0  0
   18.1240    7.4530    9.2210 C   0  0  0  0  0  0  0  0  0  0  0  0
   16.7080    7.7490    9.7220 C   0  0  0  0  0  0  0  0  0  0  0  0
   15.8660    8.4810    8.8090 C   0  0  0  0  0  0  0  0  0  0  0  0
   14.5220    8.8140    9.1370 C   0  0  0  0  0  0  0  0  0  0  0  0
   13.9650    8.4020   10.3790 C   0  0  0  0  0  0  0  0  0  0  0  0
   14.7310    7.6040   11.2610 C   0  0  0  0  0  0  0  0  0  0  0  0
   16.1060    7.2490   10.9720 C   0  0  0  0  0  0  0  0  0  0  0  0
   11.6080    2.4180   10.9740 N   0  0  0  0  0  0  0  0  0  0  0  0
    9.4430    1.5440   11.1790 N   0  0  0  0  0  0  0  0  0  0  0  0
   10.2560    3.0510   12.8080 N   0  0  0  0  0  0  0  0  0  0  0  0
   11.0270    4.5250   14.4890 N   0  0  0  0  0  0  0  0  0  0  0  0
   13.5600    4.7170   13.1260 N   0  0  0  0  0  0  0  0  0  0  0  0
   13.8210    3.2440   10.7540 N   0  0  0  0  0  0  0  0  0  0  0  0
   16.8340    6.2410   11.8210 N   0  0  0  0  0  0  0  0  0  0  0  0
   15.8089    4.0216   10.6451 H   0  0  0  0  0  0  0  0  0  0  0  0
   15.6269    6.3723   13.6090 H   0  0  0  0  0  0  0  0  0  0  0  0
   16.6514    4.8570   13.4403 H   0  0  0  0  0  0  0  0  0  0  0  0
   17.5867    6.0189   14.4417 H   0  0  0  0  0  0  0  0  0  0  0  0
   19.9211    6.1780   15.3581 H   0  0  0  0  0  0  0  0  0  0  0  0
   21.8453    6.5767   13.7975 H   0  0  0  0  0  0  0  0  0  0  0  0
   21.4525    6.9431   11.3682 H   0  0  0  0  0  0  0  0  0  0  0  0
   20.1246    6.8990    9.3953 H   0  0  0  0  0  0  0  0  0  0  0  0
   18.2904    7.5615    8.1391 H   0  0  0  0  0  0  0  0  0  0  0  0
   16.2726    8.7898    7.8347 H   0  0  0  0  0  0  0  0  0  0  0  0
   13.9118    9.3921    8.4275 H   0  0  0  0  0  0  0  0  0  0  0  0
   12.9429    8.7025   10.6527 H   0  0  0  0  0  0  0  0  0  0  0  0
   14.2700    7.2429   12.1922 H   0  0  0  0  0  0  0  0  0  0  0  0
    8.8231    1.0456   11.8334 H   0  0  0  0  0  0  0  0  0  0  0  0
    9.3113    1.4381   10.1630 H   0  0  0  0  0  0  0  0  0  0  0  0
   11.1757    4.0610   15.3965 H   0  0  0  0  0  0  0  0  0  0  0  0
   10.7128    5.5054   14.4572 H   0  0  0  0  0  0  0  0  0  0  0  0
  1 22  2  0
  1 23  1  0
  1 24  1  0
  2  3  1  0
  2 24  2  0
  2 25  1  0
  3  6  2  0
  3 26  1  0
  4  5  1  0
  4  7  1  0
  4 26  2  0
  5 27  2  0
  6 22  1  0
  6 27  1  0
  7 28  1  0
  8  9  2  0
  8 13  1  0
  8 28  1  0
  9 10  1  0
 10 11  2  0
 11 12  1  0
 12 13  2  0
 13 14  1  0
 14 15  2  0
 15 16  1  0
 16 17  1  0
 16 21  2  0
 17 18  2  0
 18 19  1  0
 19 20  2  0
 20 21  1  0
 21 28  1  0
  5 29  1  0
  7 30  1  0
  7 31  1  0
  9 32  1  0
 10 33  1  0
 11 34  1  0
 12 35  1  0
 14 36  1  0
 15 37  1  0
 17 38  1  0
 18 39  1  0
 19 40  1  0
 20 41  1  0
 23 42  1  0
 23 43  1  0
 25 44  1  0
 25 45  1  0
A    1
C2B
A    2
C4B
A    3
C4
A    4
C6B
A    5
C7B
A    6
C8
A    7
C9B
A    8
C0'
A    9
C1'
A   10
C2'
A   11
C3'
A   12
C4'
A   13
C5'
A   14
C6'
A   15
C6
A   16
C7'
A   17
C8'
A   18
C9'
A   19
CA'
A   20
CB'
A   21
CC'
A   22
N1'
A   23
N2'
A   24
N3'
A   25
N4'
A   26
N5'
A   27
N8'
A   28
N0'
M  END
