1KAE_HSO_A_1001
     RDKit          3D

 22 22  0  0  0  0  0  0  0  0999 V2000
   13.6590  113.3380   65.5980 N   0  0  0  0  0  0  0  0  0  0  0  0
   14.4550  112.2520   64.9950 C   0  0  0  0  0  0  0  0  0  0  0  0
   13.8390  110.8890   65.3160 C   0  0  0  0  0  0  0  0  0  0  0  0
   14.0180  110.4290   66.7330 C   0  0  0  0  0  0  0  0  0  0  0  0
   13.6950  111.2150   67.8250 N   0  0  0  0  0  0  0  0  0  0  0  0
   14.3870  109.2190   67.2280 C   0  0  0  0  0  0  0  0  0  0  0  0
   13.8530  110.4980   68.9340 C   0  0  0  0  0  0  0  0  0  0  0  0
   14.2750  109.2850   68.5980 N   0  0  0  0  0  0  0  0  0  0  0  0
   14.5350  112.4420   63.4650 C   0  0  0  0  0  0  0  0  0  0  0  0
   13.2100  112.5080   62.8840 O   0  0  0  0  0  0  0  0  0  0  0  0
   13.7084  113.2706   66.6246 H   0  0  0  0  0  0  0  0  0  0  0  0
   14.0347  114.2480   65.2952 H   0  0  0  0  0  0  0  0  0  0  0  0
   15.4692  112.2882   65.4193 H   0  0  0  0  0  0  0  0  0  0  0  0
   12.7600  110.9452   65.1094 H   0  0  0  0  0  0  0  0  0  0  0  0
   14.3672  110.1575   64.6868 H   0  0  0  0  0  0  0  0  0  0  0  0
   13.3830  112.1958   67.7855 H   0  0  0  0  0  0  0  0  0  0  0  0
   14.7147  108.3476   66.6421 H   0  0  0  0  0  0  0  0  0  0  0  0
   13.6653  110.8512   69.9587 H   0  0  0  0  0  0  0  0  0  0  0  0
   14.4841  108.5194   69.2545 H   0  0  0  0  0  0  0  0  0  0  0  0
   15.0718  113.3767   63.2454 H   0  0  0  0  0  0  0  0  0  0  0  0
   15.0675  111.5830   63.0308 H   0  0  0  0  0  0  0  0  0  0  0  0
   12.5341  112.5417   63.6066 H   0  0  0  0  0  0  0  0  0  0  0  0
  1  2  1  0
  7  8  1  0
  7  5  2  0
  8  6  1  0
  2  9  1  0
  2  3  1  0
  5  4  1  0
  6  4  2  0
 10  9  1  0
  4  3  1  0
  1 11  1  0
  1 12  1  0
  2 13  1  0
  3 14  1  0
  3 15  1  0
  5 16  1  0
  6 17  1  0
  7 18  1  0
  8 19  1  0
  9 20  1  0
  9 21  1  0
 10 22  1  0
M  CHG  1   5   1
A    1
N
A    2
CA
A    3
CB
A    4
CG
A    5
ND1
A    6
CD2
A    7
CE1
A    8
NE2
A    9
C
A   10
O
M  END
