1KMV_LII_A_201
     RDKit          3D

 44 46  0  0  0  0  0  0  0  0999 V2000
   13.7320   24.1770   32.2440 C   0  0  0  0  0  0  0  0  0  0  0  0
   15.0590   24.2740   31.7180 C   0  0  0  0  0  0  0  0  0  0  0  0
   14.6820   22.5230   30.2630 C   0  0  0  0  0  0  0  0  0  0  0  0
   12.8780   23.3290   31.5750 C   0  0  0  0  0  0  0  0  0  0  0  0
   13.1900   24.9470   33.3790 C   0  0  0  0  0  0  0  0  0  0  0  0
   11.8790   24.9590   33.5350 C   0  0  0  0  0  0  0  0  0  0  0  0
   11.0050   23.9870   32.7670 C   0  0  0  0  0  0  0  0  0  0  0  0
   14.0540   25.6400   34.3650 C   0  0  0  0  0  0  0  0  0  0  0  0
   11.0920   25.9000   34.4630 C   0  0  0  0  0  0  0  0  0  0  0  0
    9.6990   24.1260   35.8350 C   0  0  0  0  0  0  0  0  0  0  0  0
   10.5750   23.1020   36.1780 C   0  0  0  0  0  0  0  0  0  0  0  0
   10.0870   21.8830   36.5780 C   0  0  0  0  0  0  0  0  0  0  0  0
    8.7060   21.6770   36.6270 C   0  0  0  0  0  0  0  0  0  0  0  0
    7.8140   22.6790   36.2890 C   0  0  0  0  0  0  0  0  0  0  0  0
    8.3300   23.8990   35.8950 C   0  0  0  0  0  0  0  0  0  0  0  0
   10.1650   25.5060   35.3870 C   0  0  0  0  0  0  0  0  0  0  0  0
   12.6970   22.2420   36.0020 C   0  0  0  0  0  0  0  0  0  0  0  0
    5.6270   23.6940   36.2150 C   0  0  0  0  0  0  0  0  0  0  0  0
   15.5040   23.4370   30.7740 N   0  0  0  0  0  0  0  0  0  0  0  0
   13.3990   22.4420   30.6080 N   0  0  0  0  0  0  0  0  0  0  0  0
   11.5550   23.2240   31.8130 N   0  0  0  0  0  0  0  0  0  0  0  0
   15.9540   25.1520   32.1230 N   0  0  0  0  0  0  0  0  0  0  0  0
   15.1430   21.6620   29.3730 N   0  0  0  0  0  0  0  0  0  0  0  0
   11.9030   23.4250   36.0890 O   0  0  0  0  0  0  0  0  0  0  0  0
    6.4510   22.5660   36.3120 O   0  0  0  0  0  0  0  0  0  0  0  0
    9.9308   23.9091   32.9907 H   0  0  0  0  0  0  0  0  0  0  0  0
   13.7297   25.3799   35.3834 H   0  0  0  0  0  0  0  0  0  0  0  0
   15.0986   25.3265   34.2215 H   0  0  0  0  0  0  0  0  0  0  0  0
   13.9746   26.7277   34.2215 H   0  0  0  0  0  0  0  0  0  0  0  0
   11.2915   26.9782   34.3759 H   0  0  0  0  0  0  0  0  0  0  0  0
   10.7781   21.0743   36.8579 H   0  0  0  0  0  0  0  0  0  0  0  0
    8.3194   20.6963   36.9413 H   0  0  0  0  0  0  0  0  0  0  0  0
    7.6393   24.7105   35.6221 H   0  0  0  0  0  0  0  0  0  0  0  0
    9.6629   26.3383   35.9020 H   0  0  0  0  0  0  0  0  0  0  0  0
   12.9362   21.8856   37.0148 H   0  0  0  0  0  0  0  0  0  0  0  0
   12.1376   21.4638   35.4621 H   0  0  0  0  0  0  0  0  0  0  0  0
   13.6291   22.4649   35.4621 H   0  0  0  0  0  0  0  0  0  0  0  0
    5.3689   24.0474   37.2242 H   0  0  0  0  0  0  0  0  0  0  0  0
    6.1577   24.4902   35.6723 H   0  0  0  0  0  0  0  0  0  0  0  0
    4.7072   23.4306   35.6723 H   0  0  0  0  0  0  0  0  0  0  0  0
   16.1081   25.3032   33.1301 H   0  0  0  0  0  0  0  0  0  0  0  0
   16.4996   25.6872   31.4325 H   0  0  0  0  0  0  0  0  0  0  0  0
   15.6063   20.7967   29.6854 H   0  0  0  0  0  0  0  0  0  0  0  0
   15.0391   21.8561   28.3668 H   0  0  0  0  0  0  0  0  0  0  0  0
  1  2  2  0
  1  4  1  0
  1  5  1  0
  2 19  1  0
  2 22  1  0
  3 19  2  0
  3 20  1  0
  3 23  1  0
  4 20  2  0
  4 21  1  0
  5  6  2  0
  5  8  1  0
  6  7  1  0
  6  9  1  0
  7 21  2  0
  9 16  2  0
 10 11  2  0
 10 15  1  0
 10 16  1  0
 11 12  1  0
 11 24  1  0
 12 13  2  0
 13 14  1  0
 14 15  2  0
 14 25  1  0
 17 24  1  0
 18 25  1  0
  7 26  1  0
  8 27  1  0
  8 28  1  0
  8 29  1  0
  9 30  1  0
 12 31  1  0
 13 32  1  0
 15 33  1  0
 16 34  1  0
 17 35  1  0
 17 36  1  0
 17 37  1  0
 18 38  1  0
 18 39  1  0
 18 40  1  0
 22 41  1  0
 22 42  1  0
 23 43  1  0
 23 44  1  0
A    1
C4A
A    2
C4
A    3
C2
A    4
C8A
A    5
C5
A    6
C6
A    7
C7
A    8
C5A
A    9
C9
A   10
C1'
A   11
C2'
A   12
C3'
A   13
C4'
A   14
C5'
A   15
C6'
A   16
C10
A   17
C2X
A   18
C5X
A   19
N3
A   20
N1
A   21
N8
A   22
N4
A   23
N16
A   24
O2'
A   25
O5'
M  END
