1KNU_YPA_A_1001
     RDKit          3D

 55 58  0  0  0  0  0  0  0  0999 V2000
   11.3500   64.0610    9.5710 C   0  0  0  0  0  0  0  0  0  0  0  0
   12.1110   65.1960    9.1690 C   0  0  0  0  0  0  0  0  0  0  0  0
   13.4960   65.2200    9.4160 C   0  0  0  0  0  0  0  0  0  0  0  0
   14.1610   64.1620   10.0660 C   0  0  0  0  0  0  0  0  0  0  0  0
   13.3940   63.0120   10.4740 C   0  0  0  0  0  0  0  0  0  0  0  0
   11.9900   62.9680   10.2220 C   0  0  0  0  0  0  0  0  0  0  0  0
   14.4990   66.2440    9.1110 C   0  0  0  0  0  0  0  0  0  0  0  0
   15.7200   65.7600    9.5840 C   0  0  0  0  0  0  0  0  0  0  0  0
   15.5370   64.5100   10.1770 N   0  0  0  0  0  0  0  0  0  0  0  0
   14.4000   67.4960    8.4660 C   0  0  0  0  0  0  0  0  0  0  0  0
   15.5850   68.2770    8.3080 C   0  0  0  0  0  0  0  0  0  0  0  0
   16.8410   67.8010    8.7910 C   0  0  0  0  0  0  0  0  0  0  0  0
   16.9110   66.5330    9.4390 C   0  0  0  0  0  0  0  0  0  0  0  0
   16.7230   63.7720   10.7910 C   0  0  0  0  0  0  0  0  0  0  0  0
   16.5560   62.3900   11.4740 C   0  0  0  0  0  0  0  0  0  0  0  0
   17.8010   61.9100   12.0160 O   0  0  0  0  0  0  0  0  0  0  0  0
   17.9080   61.9910   13.4520 C   0  0  0  0  0  0  0  0  0  0  0  0
   19.2100   61.9590   14.0060 C   0  0  0  0  0  0  0  0  0  0  0  0
   19.4160   62.0300   15.4130 C   0  0  0  0  0  0  0  0  0  0  0  0
   18.3190   62.1370   16.3160 C   0  0  0  0  0  0  0  0  0  0  0  0
   16.9990   62.1690   15.7720 C   0  0  0  0  0  0  0  0  0  0  0  0
   16.7910   62.0960   14.3590 C   0  0  0  0  0  0  0  0  0  0  0  0
   18.5770   62.2180   17.8320 C   0  0  0  0  0  0  0  0  0  0  0  0
   18.8510   63.6670   18.3730 C   0  0  0  0  0  0  0  0  0  0  0  0
   18.7990   63.7140   19.9670 C   0  0  0  0  0  0  0  0  0  0  0  0
   20.0200   63.7990   20.5510 O   0  0  0  0  0  0  0  0  0  0  0  0
   17.7960   63.6950   20.6260 O   0  0  0  0  0  0  0  0  0  0  0  0
   20.1230   64.1290   17.8300 O   0  0  0  0  0  0  0  0  0  0  0  0
   20.6170   65.4340   18.1520 C   0  0  0  0  0  0  0  0  0  0  0  0
   20.8780   66.2160   16.8710 C   0  0  0  0  0  0  0  0  0  0  0  0
   10.2675   64.0287    9.3785 H   0  0  0  0  0  0  0  0  0  0  0  0
   11.6208   66.0452    8.6705 H   0  0  0  0  0  0  0  0  0  0  0  0
   13.8899   62.1698   10.9787 H   0  0  0  0  0  0  0  0  0  0  0  0
   11.4026   62.0905   10.5304 H   0  0  0  0  0  0  0  0  0  0  0  0
   13.4317   67.8617    8.0935 H   0  0  0  0  0  0  0  0  0  0  0  0
   15.5293   69.2557    7.8089 H   0  0  0  0  0  0  0  0  0  0  0  0
   17.7491   68.4086    8.6641 H   0  0  0  0  0  0  0  0  0  0  0  0
   17.8704   66.1554    9.8222 H   0  0  0  0  0  0  0  0  0  0  0  0
   17.4530   63.6306    9.9804 H   0  0  0  0  0  0  0  0  0  0  0  0
   16.9911   64.4214   11.6374 H   0  0  0  0  0  0  0  0  0  0  0  0
   15.8238   62.4816   12.2898 H   0  0  0  0  0  0  0  0  0  0  0  0
   16.2126   61.6716   10.7151 H   0  0  0  0  0  0  0  0  0  0  0  0
   20.0793   61.8777   13.3368 H   0  0  0  0  0  0  0  0  0  0  0  0
   20.4413   62.0017   15.8104 H   0  0  0  0  0  0  0  0  0  0  0  0
   16.1338   62.2506   16.4464 H   0  0  0  0  0  0  0  0  0  0  0  0
   15.7667   62.1202   13.9588 H   0  0  0  0  0  0  0  0  0  0  0  0
   17.6935   61.8191   18.3520 H   0  0  0  0  0  0  0  0  0  0  0  0
   19.4905   61.6360   18.0239 H   0  0  0  0  0  0  0  0  0  0  0  0
   18.0592   64.3527   18.0371 H   0  0  0  0  0  0  0  0  0  0  0  0
   20.0974   63.8044   21.5380 H   0  0  0  0  0  0  0  0  0  0  0  0
   19.8714   65.9672   18.7601 H   0  0  0  0  0  0  0  0  0  0  0  0
   21.5557   65.3383   18.7175 H   0  0  0  0  0  0  0  0  0  0  0  0
   21.2169   67.2315   17.1239 H   0  0  0  0  0  0  0  0  0  0  0  0
   21.6547   65.7063   16.2820 H   0  0  0  0  0  0  0  0  0  0  0  0
   19.9508   66.2750   16.2820 H   0  0  0  0  0  0  0  0  0  0  0  0
  1  2  2  0
  1  6  1  0
  2  3  1  0
  3  4  2  0
  3  7  1  0
  4  5  1  0
  4  9  1  0
  5  6  2  0
  7  8  2  0
  7 10  1  0
  8  9  1  0
  8 13  1  0
  9 14  1  0
 10 11  2  0
 11 12  1  0
 12 13  2  0
 14 15  1  0
 15 16  1  0
 16 17  1  0
 17 18  2  0
 17 22  1  0
 18 19  1  0
 19 20  2  0
 20 21  1  0
 20 23  1  0
 21 22  2  0
 23 24  1  0
 24 25  1  0
 24 28  1  0
 25 26  1  0
 25 27  2  0
 28 29  1  0
 29 30  1  0
  1 31  1  0
  2 32  1  0
  5 33  1  0
  6 34  1  0
 10 35  1  0
 11 36  1  0
 12 37  1  0
 13 38  1  0
 14 39  1  0
 14 40  1  0
 15 41  1  0
 15 42  1  0
 18 43  1  0
 19 44  1  0
 21 45  1  0
 22 46  1  0
 23 47  1  0
 23 48  1  0
 24 49  1  0
 26 50  1  0
 29 51  1  0
 29 52  1  0
 30 53  1  0
 30 54  1  0
 30 55  1  0
A    1
C1
A    2
C2
A    3
C3
A    4
C4
A    5
C5
A    6
C6
A    7
C11
A    8
C12
A    9
N13
A   10
C14
A   11
C15
A   12
C16
A   13
C17
A   14
C22
A   15
C23
A   16
O26
A   17
C29
A   18
C30
A   19
C31
A   20
C32
A   21
C33
A   22
C34
A   23
C39
A   24
C40
A   25
C43
A   26
O44
A   27
O45
A   28
O47
A   29
C49
A   30
C50
M  END
