1KPE_ADW_B_127
     RDKit          3D

 42 44  0  0  0  0  0  0  0  0999 V2000
   43.6190   31.9590   48.9970 W   0  0  0  0  0  5  0  0  0  0  0  0
   44.3360   33.0580   50.0860 O   0  0  0  0  0  0  0  0  0  0  0  0
   44.0940   32.3520   47.3960 O   0  0  0  0  0  0  0  0  0  0  0  0
   44.1620   30.3900   49.3960 O   0  0  0  0  0  0  0  0  0  0  0  0
   40.0740   32.8310   50.0720 W   0  0  0  0  0  5  0  0  0  0  0  0
   39.0550   31.6720   49.3880 O   0  0  0  0  0  0  0  0  0  0  0  0
   40.3110   34.3310   49.2900 O   0  0  0  0  0  0  0  0  0  0  0  0
   41.8130   32.0800   49.1730 O   0  0  0  0  0  0  0  0  0  0  0  0
   40.7530   32.4910   51.6260 O   0  0  0  0  0  0  0  0  0  0  0  0
   40.7280   31.4780   52.4720 C   0  0  0  0  0  0  0  0  0  0  0  0
   41.2630   32.3980   53.6270 C   0  0  0  0  0  0  0  0  0  0  0  0
   40.7500   31.4700   54.6610 O   0  0  0  0  0  0  0  0  0  0  0  0
   42.8330   32.1540   53.5050 C   0  0  0  0  0  0  0  0  0  0  0  0
   43.6220   33.3300   53.8060 O   0  0  0  0  0  0  0  0  0  0  0  0
   43.0830   31.0040   54.5680 C   0  0  0  0  0  0  0  0  0  0  0  0
   44.3270   31.0560   55.2780 O   0  0  0  0  0  0  0  0  0  0  0  0
   41.8850   31.1910   55.5480 C   0  0  0  0  0  0  0  0  0  0  0  0
   41.4750   30.0590   56.4300 N   0  0  0  0  0  0  0  0  0  0  0  0
   41.1420   28.7740   56.0390 C   0  0  0  0  0  0  0  0  0  0  0  0
   40.7880   27.9540   57.0260 N   0  0  0  0  0  0  0  0  0  0  0  0
   40.8990   28.8200   58.1560 C   0  0  0  0  0  0  0  0  0  0  0  0
   40.7100   28.5870   59.6100 C   0  0  0  0  0  0  0  0  0  0  0  0
   40.5010   27.3450   60.0860 N   0  0  0  0  0  0  0  0  0  0  0  0
   40.7650   29.7040   60.3750 N   0  0  0  0  0  0  0  0  0  0  0  0
   41.2440   30.8930   59.9500 C   0  0  0  0  0  0  0  0  0  0  0  0
   41.3330   31.2320   58.6360 N   0  0  0  0  0  0  0  0  0  0  0  0
   41.2370   30.1100   57.7980 C   0  0  0  0  0  0  0  0  0  0  0  0
   44.8565   32.9829   47.4235 H   0  0  0  0  0  0  0  0  0  0  0  0
   44.1956   30.2929   50.3807 H   0  0  0  0  0  0  0  0  0  0  0  0
   40.4235   35.0429   49.9687 H   0  0  0  0  0  0  0  0  0  0  0  0
   39.7211   31.0742   52.6541 H   0  0  0  0  0  0  0  0  0  0  0  0
   41.2544   30.5440   52.2257 H   0  0  0  0  0  0  0  0  0  0  0  0
   41.0291   33.4691   53.7163 H   0  0  0  0  0  0  0  0  0  0  0  0
   43.1365   31.8960   52.4797 H   0  0  0  0  0  0  0  0  0  0  0  0
   43.6937   33.4369   54.7876 H   0  0  0  0  0  0  0  0  0  0  0  0
   43.1474   30.0276   54.0654 H   0  0  0  0  0  0  0  0  0  0  0  0
   44.1515   31.0487   56.2523 H   0  0  0  0  0  0  0  0  0  0  0  0
   42.1985   31.9619   56.2673 H   0  0  0  0  0  0  0  0  0  0  0  0
   41.1680   28.4530   54.9872 H   0  0  0  0  0  0  0  0  0  0  0  0
   40.4734   27.1809   61.1025 H   0  0  0  0  0  0  0  0  0  0  0  0
   40.3687   26.5590   59.4337 H   0  0  0  0  0  0  0  0  0  0  0  0
   41.5782   31.6222   60.7027 H   0  0  0  0  0  0  0  0  0  0  0  0
  1  2  2  0
  1  3  1  0
  1  4  1  0
  1  8  1  0
  5  6  2  0
  5  7  1  0
  5  8  1  0
  5  9  1  0
  9 10  1  0
 10 11  1  0
 11 12  1  0
 11 13  1  0
 12 17  1  0
 13 14  1  0
 13 15  1  0
 15 16  1  0
 15 17  1  0
 17 18  1  0
 18 19  1  0
 18 27  1  0
 19 20  2  0
 20 21  1  0
 21 22  1  0
 21 27  2  0
 22 23  1  0
 22 24  2  0
 24 25  1  0
 25 26  2  0
 26 27  1  0
  3 28  1  0
  4 29  1  0
  7 30  1  0
 10 31  1  0
 10 32  1  0
 11 33  1  0
 13 34  1  0
 14 35  1  0
 15 36  1  0
 16 37  1  0
 17 38  1  0
 19 39  1  0
 23 40  1  0
 23 41  1  0
 25 42  1  0
A    1
WB
A    2
O1B
A    3
O2B
A    4
O3B
A    5
WA
A    6
O1A
A    7
O2A
A    8
O3A
A    9
O5'
A   10
C5'
A   11
C4'
A   12
O4'
A   13
C3'
A   14
O3'
A   15
C2'
A   16
O2'
A   17
C1'
A   18
N9
A   19
C8
A   20
N7
A   21
C5
A   22
C6
A   23
N6
A   24
N1
A   25
C2
A   26
N3
A   27
C4
M  END
