1A4M_PRH_A_354
     RDKit          3D

 34 36  0  0  0  0  0  0  0  0999 V2000
   42.5180   21.8840   54.0210 N   0  0  0  0  0  0  0  0  0  0  0  0
   43.5210   21.4580   53.2580 C   0  0  0  0  0  0  0  0  0  0  0  0
   43.3100   20.9690   52.0350 N   0  0  0  0  0  0  0  0  0  0  0  0
   42.0220   20.8840   51.5120 C   0  0  0  0  0  0  0  0  0  0  0  0
   40.9670   21.3010   52.2440 C   0  0  0  0  0  0  0  0  0  0  0  0
   41.2000   21.8320   53.5610 C   0  0  0  0  0  0  0  0  0  0  0  0
   40.5460   23.2950   53.6830 O   0  0  0  0  0  0  0  0  0  0  0  0
   39.8430   21.1100   51.5070 N   0  0  0  0  0  0  0  0  0  0  0  0
   40.1960   20.5780   50.3350 C   0  0  0  0  0  0  0  0  0  0  0  0
   41.5390   20.4300   50.3160 N   0  0  0  0  0  0  0  0  0  0  0  0
   42.3350   19.8660   49.2340 C   0  0  0  0  0  0  0  0  0  0  0  0
   41.6760   18.5710   48.6820 C   0  0  0  0  0  0  0  0  0  0  0  0
   42.6470   17.5160   48.5850 O   0  0  0  0  0  0  0  0  0  0  0  0
   41.0570   18.8410   47.2770 C   0  0  0  0  0  0  0  0  0  0  0  0
   41.2670   17.7040   46.4350 O   0  0  0  0  0  0  0  0  0  0  0  0
   42.1750   19.9560   47.0240 C   0  0  0  0  0  0  0  0  0  0  0  0
   42.3620   20.7420   48.1390 O   0  0  0  0  0  0  0  0  0  0  0  0
   41.8650   20.8400   45.7960 C   0  0  0  0  0  0  0  0  0  0  0  0
   40.6550   21.5940   45.9760 O   0  0  0  0  0  0  0  0  0  0  0  0
   42.7153   22.2561   54.9609 H   0  0  0  0  0  0  0  0  0  0  0  0
   44.5493   21.5103   53.6450 H   0  0  0  0  0  0  0  0  0  0  0  0
   40.7194   21.0898   54.2153 H   0  0  0  0  0  0  0  0  0  0  0  0
   40.4406   23.5307   54.6387 H   0  0  0  0  0  0  0  0  0  0  0  0
   38.8825   21.3368   51.8018 H   0  0  0  0  0  0  0  0  0  0  0  0
   39.5086   20.3055   49.5206 H   0  0  0  0  0  0  0  0  0  0  0  0
   43.3366   19.6779   49.6480 H   0  0  0  0  0  0  0  0  0  0  0  0
   40.8807   18.2628   49.3767 H   0  0  0  0  0  0  0  0  0  0  0  0
   42.9126   17.2274   49.4940 H   0  0  0  0  0  0  0  0  0  0  0  0
   39.9900   19.0735   47.1445 H   0  0  0  0  0  0  0  0  0  0  0  0
   41.4152   16.9014   46.9953 H   0  0  0  0  0  0  0  0  0  0  0  0
   43.1074   19.4118   46.8130 H   0  0  0  0  0  0  0  0  0  0  0  0
   42.7003   21.5384   45.6395 H   0  0  0  0  0  0  0  0  0  0  0  0
   41.7327   20.1821   44.9244 H   0  0  0  0  0  0  0  0  0  0  0  0
   40.4764   21.7053   46.9434 H   0  0  0  0  0  0  0  0  0  0  0  0
  1  2  1  0
  1  6  1  0
  2  3  2  0
  3  4  1  0
  4  5  2  0
  4 10  1  0
  5  6  1  0
  5  8  1  0
  6  7  1  0
  8  9  2  0
  9 10  1  0
 10 11  1  0
 11 12  1  0
 11 17  1  0
 12 13  1  0
 12 14  1  0
 14 15  1  0
 14 16  1  0
 16 17  1  0
 16 18  1  0
 18 19  1  0
  1 20  1  0
  2 21  1  0
  6 22  1  0
  7 23  1  0
  8 24  1  0
  9 25  1  0
 11 26  1  0
 12 27  1  0
 13 28  1  0
 14 29  1  0
 15 30  1  0
 16 31  1  0
 18 32  1  0
 18 33  1  0
 19 34  1  0
M  CHG  1   8   1
A    1
N1
A    2
C2
A    3
N3
A    4
C4
A    5
C5
A    6
C6
A    7
O6
A    8
N7
A    9
C8
A   10
N9
A   11
C1'
A   12
C2'
A   13
O2'
A   14
C3'
A   15
O3'
A   16
C4'
A   17
O4'
A   18
C5'
A   19
O5'
M  END
