1KVL_THN_B_372
     RDKit          3D

 37 38  0  0  0  0  0  0  0  0999 V2000
   79.3940    7.0590   27.6060 S   0  0  0  0  0  0  0  0  0  0  0  0
   80.9990    7.5240   26.7440 C   0  0  0  0  0  0  0  0  0  0  0  0
   81.9870    8.2250   27.7220 C   0  0  0  0  0  0  0  0  0  0  0  0
   82.8910    9.1520   27.2260 C   0  0  0  0  0  0  0  0  0  0  0  0
   81.9580    7.8660   29.2540 C   0  0  0  0  0  0  0  0  0  0  0  0
   82.8530    8.5770   30.3130 C   0  0  0  0  0  0  0  0  0  0  0  0
   83.9560    8.0560   30.6100 O   0  0  0  0  0  0  0  0  0  0  0  0
   82.4530    9.6590   30.8300 O   0  0  0  0  0  0  0  0  0  0  0  0
   81.0710    6.8950   29.7640 N   0  0  0  0  0  0  0  0  0  0  0  0
   80.1130    6.0750   28.9650 C   0  0  0  0  0  0  0  0  0  0  0  0
   79.0490    5.5390   29.9610 C   0  0  0  0  0  0  0  0  0  0  0  0
   78.1440    4.5370   29.2290 C   0  0  0  0  0  0  0  0  0  0  0  0
   78.5880    3.4450   28.8720 O   0  0  0  0  0  0  0  0  0  0  0  0
   76.9600    4.8200   29.0330 O   0  0  0  0  0  0  0  0  0  0  0  0
   79.6700    4.7910   31.0350 N   0  0  0  0  0  0  0  0  0  0  0  0
   79.7730    5.2660   32.2660 C   0  0  0  0  0  0  0  0  0  0  0  0
   79.3420    6.3610   32.5970 O   0  0  0  0  0  0  0  0  0  0  0  0
   80.5190    4.3990   33.2450 C   0  0  0  0  0  0  0  0  0  0  0  0
   81.9720    4.6990   33.4680 C   0  0  0  0  0  0  0  0  0  0  0  0
   82.8300    5.2940   32.5300 C   0  0  0  0  0  0  0  0  0  0  0  0
   84.1130    5.3900   33.2180 C   0  0  0  0  0  0  0  0  0  0  0  0
   84.1720    4.9300   34.4250 C   0  0  0  0  0  0  0  0  0  0  0  0
   82.6750    4.3230   34.8850 S   0  0  0  0  0  0  0  0  0  0  0  0
   81.4714    6.6117   26.3510 H   0  0  0  0  0  0  0  0  0  0  0  0
   80.7638    8.2242   25.9289 H   0  0  0  0  0  0  0  0  0  0  0  0
   83.5939    9.6537   27.9073 H   0  0  0  0  0  0  0  0  0  0  0  0
   82.9052    9.3857   26.1512 H   0  0  0  0  0  0  0  0  0  0  0  0
   82.7453    7.1149   29.0929 H   0  0  0  0  0  0  0  0  0  0  0  0
   84.2075    7.9372   31.5601 H   0  0  0  0  0  0  0  0  0  0  0  0
   78.4976    6.4046   30.3568 H   0  0  0  0  0  0  0  0  0  0  0  0
   76.3521    4.9653   29.8008 H   0  0  0  0  0  0  0  0  0  0  0  0
   80.0458    3.8535   30.8328 H   0  0  0  0  0  0  0  0  0  0  0  0
   80.0113    4.4872   34.2168 H   0  0  0  0  0  0  0  0  0  0  0  0
   80.5056    3.3945   32.7969 H   0  0  0  0  0  0  0  0  0  0  0  0
   82.5892    5.6157   31.5060 H   0  0  0  0  0  0  0  0  0  0  0  0
   84.9930    5.8349   32.7305 H   0  0  0  0  0  0  0  0  0  0  0  0
   85.0714    4.9354   35.0582 H   0  0  0  0  0  0  0  0  0  0  0  0
  1  2  1  0
  1 10  1  0
  2  3  1  0
  3  4  2  3
  3  5  1  0
  5  6  1  0
  5  9  1  0
  6  7  1  0
  6  8  2  0
  9 10  2  0
 10 11  1  0
 11 12  1  0
 11 15  1  0
 12 13  2  0
 12 14  1  0
 15 16  1  0
 16 17  2  0
 16 18  1  0
 18 19  1  0
 19 20  2  0
 19 23  1  0
 20 21  1  0
 21 22  2  0
 22 23  1  0
  2 24  1  0
  2 25  1  0
  4 26  1  0
  4 27  1  0
  5 28  1  0
  7 29  1  0
 11 30  1  0
 14 31  1  0
 15 32  1  0
 18 33  1  0
 18 34  1  0
 20 35  1  0
 21 36  1  0
 22 37  1  0
A    1
S1
A    2
C2
A    3
C3
A    4
C3'
A    5
C4
A    6
C4'
A    7
O4A
A    8
O4B
A    9
N5
A   10
C6
A   11
C7
A   12
C8
A   13
O9A
A   14
O9B
A   15
N10
A   16
C11
A   17
O12
A   18
C13
A   19
C14
A   20
C15
A   21
C16
A   22
C17
A   23
S19
M  END
