1KW1_LG6_A_502
     RDKit          3D

 30 29  0  0  0  0  0  0  0  0999 V2000
   60.9090   20.8370   21.9090 C   0  0  0  0  0  0  0  0  0  0  0  0
   58.6010   20.3590   22.4420 O   0  0  0  0  0  0  0  0  0  0  0  0
   59.6040   20.0850   21.7160 C   0  0  0  0  0  0  0  0  0  0  0  0
   59.5200   19.2120   20.8640 O   0  0  0  0  0  0  0  0  0  0  0  0
   60.6250   22.2170   22.1880 O   0  0  0  0  0  0  0  0  0  0  0  0
   61.7230   20.2480   23.0760 C   0  0  0  0  0  0  0  0  0  0  0  0
   61.5110   18.8260   23.2130 O   0  0  0  0  0  0  0  0  0  0  0  0
   63.2160   20.5600   22.8590 C   0  0  0  0  0  0  0  0  0  0  0  0
   63.9740   20.4800   24.2010 C   0  0  0  0  0  0  0  0  0  0  0  0
   63.7750   19.6240   21.9220 O   0  0  0  0  0  0  0  0  0  0  0  0
   65.4530   20.8440   24.0210 C   0  0  0  0  0  0  0  0  0  0  0  0
   63.8930   19.1470   24.7300 O   0  0  0  0  0  0  0  0  0  0  0  0
   65.8630   23.3570   24.2260 P   0  0  0  0  0  0  0  0  0  0  0  0
   65.5370   22.1270   23.4170 O   0  0  0  0  0  0  0  0  0  0  0  0
   66.1930   24.4630   23.2740 O   0  0  0  0  0  0  0  0  0  0  0  0
   67.0350   23.0980   25.1180 O   0  0  0  0  0  0  0  0  0  0  0  0
   64.6980   23.7360   25.0640 O   0  0  0  0  0  0  0  0  0  0  0  0
   61.5003   20.7440   20.9861 H   0  0  0  0  0  0  0  0  0  0  0  0
   59.4288   18.2639   21.1340 H   0  0  0  0  0  0  0  0  0  0  0  0
   60.5963   22.3565   23.1677 H   0  0  0  0  0  0  0  0  0  0  0  0
   61.3809   20.7134   24.0122 H   0  0  0  0  0  0  0  0  0  0  0  0
   61.4756   18.5887   24.1735 H   0  0  0  0  0  0  0  0  0  0  0  0
   63.3162   21.5785   22.4557 H   0  0  0  0  0  0  0  0  0  0  0  0
   63.5072   21.1955   24.8939 H   0  0  0  0  0  0  0  0  0  0  0  0
   64.2153   18.8868   22.4148 H   0  0  0  0  0  0  0  0  0  0  0  0
   65.9512   20.8633   25.0015 H   0  0  0  0  0  0  0  0  0  0  0  0
   65.9475   20.0967   23.3830 H   0  0  0  0  0  0  0  0  0  0  0  0
   63.8952   19.1839   25.7193 H   0  0  0  0  0  0  0  0  0  0  0  0
   66.7500   23.1610   26.0640 H   0  0  0  0  0  0  0  0  0  0  0  0
   64.9401   23.6572   26.0207 H   0  0  0  0  0  0  0  0  0  0  0  0
  1  3  1  0
  1  5  1  0
  1  6  1  0
  2  3  2  0
  3  4  1  0
  6  7  1  0
  6  8  1  0
  8  9  1  0
  8 10  1  0
  9 11  1  0
  9 12  1  0
 11 14  1  0
 13 14  1  0
 13 15  2  0
 13 16  1  0
 13 17  1  0
  1 18  1  0
  4 19  1  0
  5 20  1  0
  6 21  1  0
  7 22  1  0
  8 23  1  0
  9 24  1  0
 10 25  1  0
 11 26  1  0
 11 27  1  0
 12 28  1  0
 16 29  1  0
 17 30  1  0
A    1
C1
A    2
O2A
A    3
C2
A    4
O2B
A    5
O1
A    6
C3
A    7
O3
A    8
C4
A    9
C5
A   10
O4
A   11
C6
A   12
O5
A   13
P
A   14
O6
A   15
O1P
A   16
O2P
A   17
O3P
M  END
