1KYN_KTP_A_601
     RDKit          3D

 44 47  0  0  0  0  0  0  0  0999 V2000
   27.8380   29.9660  -10.0090 P   0  0  0  0  0  0  0  0  0  0  0  0
   28.8980   30.5040   -9.1280 O   0  0  0  0  0  0  0  0  0  0  0  0
   27.8300   32.3130  -13.3310 O   0  0  0  0  0  0  0  0  0  0  0  0
   27.0030   31.2560  -11.1260 C   0  0  0  0  0  0  0  0  0  0  0  0
   27.7890   32.4570  -12.1650 C   0  0  0  0  0  0  0  0  0  0  0  0
   28.5770   28.8080  -10.8530 O   0  0  0  0  0  0  0  0  0  0  0  0
   26.7670   29.2760   -9.0320 O   0  0  0  0  0  0  0  0  0  0  0  0
   28.5230   33.7920  -11.8940 C   0  0  0  0  0  0  0  0  0  0  0  0
   28.6370   34.2440  -10.5640 C   0  0  0  0  0  0  0  0  0  0  0  0
   29.2880   35.4500  -10.2510 C   0  0  0  0  0  0  0  0  0  0  0  0
   29.3870   35.8780   -8.9140 C   0  0  0  0  0  0  0  0  0  0  0  0
   30.0440   37.0900   -8.6120 C   0  0  0  0  0  0  0  0  0  0  0  0
   30.6060   37.8890   -9.6640 C   0  0  0  0  0  0  0  0  0  0  0  0
   30.5140   37.4670  -11.0220 C   0  0  0  0  0  0  0  0  0  0  0  0
   29.8660   36.2640  -11.3270 C   0  0  0  0  0  0  0  0  0  0  0  0
   29.7610   35.8340  -12.6540 C   0  0  0  0  0  0  0  0  0  0  0  0
   29.0990   34.6130  -12.9350 C   0  0  0  0  0  0  0  0  0  0  0  0
   26.2530   29.2250  -12.5800 C   0  0  0  0  0  0  0  0  0  0  0  0
   25.9220   30.4300  -11.9150 C   0  0  0  0  0  0  0  0  0  0  0  0
   24.5210   30.8960  -11.9800 C   0  0  0  0  0  0  0  0  0  0  0  0
   24.1010   32.0970  -11.3460 C   0  0  0  0  0  0  0  0  0  0  0  0
   22.7360   32.5220  -11.4280 C   0  0  0  0  0  0  0  0  0  0  0  0
   21.7790   31.7400  -12.1500 C   0  0  0  0  0  0  0  0  0  0  0  0
   22.1850   30.5220  -12.7970 C   0  0  0  0  0  0  0  0  0  0  0  0
   23.5310   30.0950  -12.7240 C   0  0  0  0  0  0  0  0  0  0  0  0
   23.9270   28.9020  -13.3610 C   0  0  0  0  0  0  0  0  0  0  0  0
   25.2830   28.4680  -13.2910 C   0  0  0  0  0  0  0  0  0  0  0  0
   26.7167   32.0260  -10.3945 H   0  0  0  0  0  0  0  0  0  0  0  0
   28.9911   28.1591  -10.2305 H   0  0  0  0  0  0  0  0  0  0  0  0
   27.0243   29.4418   -8.0905 H   0  0  0  0  0  0  0  0  0  0  0  0
   28.2067   33.6392   -9.7522 H   0  0  0  0  0  0  0  0  0  0  0  0
   28.9535   35.2696   -8.1066 H   0  0  0  0  0  0  0  0  0  0  0  0
   30.1257   37.4236   -7.5670 H   0  0  0  0  0  0  0  0  0  0  0  0
   31.1118   38.8348   -9.4198 H   0  0  0  0  0  0  0  0  0  0  0  0
   30.9486   38.0815  -11.8242 H   0  0  0  0  0  0  0  0  0  0  0  0
   30.1872   36.4365  -13.4697 H   0  0  0  0  0  0  0  0  0  0  0  0
   29.0208   34.2788  -13.9801 H   0  0  0  0  0  0  0  0  0  0  0  0
   27.2915   28.8640  -12.5454 H   0  0  0  0  0  0  0  0  0  0  0  0
   24.8295   32.7040  -10.7886 H   0  0  0  0  0  0  0  0  0  0  0  0
   22.4216   33.4533  -10.9341 H   0  0  0  0  0  0  0  0  0  0  0  0
   20.7318   32.0713  -12.2099 H   0  0  0  0  0  0  0  0  0  0  0  0
   21.4475   29.9214  -13.3496 H   0  0  0  0  0  0  0  0  0  0  0  0
   23.1876   28.3039  -13.9138 H   0  0  0  0  0  0  0  0  0  0  0  0
   25.5821   27.5362  -13.7932 H   0  0  0  0  0  0  0  0  0  0  0  0
  1  2  2  0
  1  4  1  0
  1  6  1  0
  1  7  1  0
  3  5  2  0
  4  5  1  0
  4 19  1  0
  5  8  1  0
  8  9  2  0
  8 17  1  0
  9 10  1  0
 10 11  2  0
 10 15  1  0
 11 12  1  0
 12 13  2  0
 13 14  1  0
 14 15  2  0
 15 16  1  0
 16 17  2  0
 18 19  2  0
 18 27  1  0
 19 20  1  0
 20 21  2  0
 20 25  1  0
 21 22  1  0
 22 23  2  0
 23 24  1  0
 24 25  2  0
 25 26  1  0
 26 27  2  0
  4 28  1  0
  6 29  1  0
  7 30  1  0
  9 31  1  0
 11 32  1  0
 12 33  1  0
 13 34  1  0
 14 35  1  0
 16 36  1  0
 17 37  1  0
 18 38  1  0
 21 39  1  0
 22 40  1  0
 23 41  1  0
 24 42  1  0
 26 43  1  0
 27 44  1  0
A    1
P1
A    2
O1
A    3
O2
A    4
C1
A    5
C2
A    6
O3
A    7
O4
A    8
C3
A    9
C4
A   10
C5
A   11
C6
A   12
C7
A   13
C8
A   14
C9
A   15
C10
A   16
C11
A   17
C12
A   18
C13
A   19
C14
A   20
C15
A   21
C16
A   22
C17
A   23
C18
A   24
C19
A   25
C20
A   26
C21
A   27
C22
M  END
