1BU5_RBF_A_301
     RDKit          3D

 47 49  0  0  0  0  0  0  0  0999 V2000
   17.9890   13.2700    9.4170 N   0  0  0  0  0  0  0  0  0  0  0  0
   19.2970   13.4720    9.0360 C   0  0  0  0  0  0  0  0  0  0  0  0
   19.6520   12.9570    8.0080 O   0  0  0  0  0  0  0  0  0  0  0  0
   20.0450   14.2140    9.8680 N   0  0  0  0  0  0  0  0  0  0  0  0
   19.6710   14.8370   11.0410 C   0  0  0  0  0  0  0  0  0  0  0  0
   20.4470   15.4940   11.6750 O   0  0  0  0  0  0  0  0  0  0  0  0
   18.2230   14.6030   11.4010 C   0  0  0  0  0  0  0  0  0  0  0  0
   17.7720   15.1100   12.5090 N   0  0  0  0  0  0  0  0  0  0  0  0
   16.4060   14.9820   12.7630 C   0  0  0  0  0  0  0  0  0  0  0  0
   15.9380   15.6790   13.9190 C   0  0  0  0  0  0  0  0  0  0  0  0
   14.5950   15.5560   14.1410 C   0  0  0  0  0  0  0  0  0  0  0  0
   13.8670   16.2270   15.3100 C   0  0  0  0  0  0  0  0  0  0  0  0
   13.7860   14.7300   13.3010 C   0  0  0  0  0  0  0  0  0  0  0  0
   12.2720   14.6590   13.6550 C   0  0  0  0  0  0  0  0  0  0  0  0
   14.1910   14.0550   12.1790 C   0  0  0  0  0  0  0  0  0  0  0  0
   15.5740   14.1900   11.9600 C   0  0  0  0  0  0  0  0  0  0  0  0
   16.1670   13.5390   10.8370 N   0  0  0  0  0  0  0  0  0  0  0  0
   17.4500   13.7870   10.5580 C   0  0  0  0  0  0  0  0  0  0  0  0
   15.2640   12.7060   10.0150 C   0  0  0  0  0  0  0  0  0  0  0  0
   15.1240   11.3730   10.7660 C   0  0  0  0  0  0  0  0  0  0  0  0
   16.4000   10.6930   10.8720 O   0  0  0  0  0  0  0  0  0  0  0  0
   14.3840   10.3290   10.0280 C   0  0  0  0  0  0  0  0  0  0  0  0
   15.1440    9.8230    8.9530 O   0  0  0  0  0  0  0  0  0  0  0  0
   13.0320   10.6210    9.5420 C   0  0  0  0  0  0  0  0  0  0  0  0
   12.1040   11.2460   10.4250 O   0  0  0  0  0  0  0  0  0  0  0  0
   12.5930    9.1320    9.2240 C   0  0  0  0  0  0  0  0  0  0  0  0
   13.7770    8.3910    8.8640 O   0  0  0  0  0  0  0  0  0  0  0  0
   21.0305   14.3344    9.5939 H   0  0  0  0  0  0  0  0  0  0  0  0
   16.6010   16.2639   14.5735 H   0  0  0  0  0  0  0  0  0  0  0  0
   14.2747   15.8512   16.2601 H   0  0  0  0  0  0  0  0  0  0  0  0
   14.0105   17.3162   15.2547 H   0  0  0  0  0  0  0  0  0  0  0  0
   12.7931   15.9954   15.2547 H   0  0  0  0  0  0  0  0  0  0  0  0
   12.1510   14.6533   14.7483 H   0  0  0  0  0  0  0  0  0  0  0  0
   11.7555   15.5339   13.2334 H   0  0  0  0  0  0  0  0  0  0  0  0
   11.8396   13.7396   13.2334 H   0  0  0  0  0  0  0  0  0  0  0  0
   13.5168   13.4780   11.5290 H   0  0  0  0  0  0  0  0  0  0  0  0
   14.2827   13.1922    9.9116 H   0  0  0  0  0  0  0  0  0  0  0  0
   15.6614   12.5588    8.9999 H   0  0  0  0  0  0  0  0  0  0  0  0
   14.6424   11.6886   11.7033 H   0  0  0  0  0  0  0  0  0  0  0  0
   16.6302   10.5703   11.8270 H   0  0  0  0  0  0  0  0  0  0  0  0
   14.2255    9.5916   10.8287 H   0  0  0  0  0  0  0  0  0  0  0  0
   15.9140    9.3103    9.3057 H   0  0  0  0  0  0  0  0  0  0  0  0
   13.0384   11.3716    8.7379 H   0  0  0  0  0  0  0  0  0  0  0  0
   12.3688   11.0677   11.3621 H   0  0  0  0  0  0  0  0  0  0  0  0
   12.1254    8.6819   10.1121 H   0  0  0  0  0  0  0  0  0  0  0  0
   11.8632    9.1138    8.4012 H   0  0  0  0  0  0  0  0  0  0  0  0
   14.2453    8.0979    9.6855 H   0  0  0  0  0  0  0  0  0  0  0  0
  1  2  1  0
  1 18  2  0
  2  3  2  0
  2  4  1  0
  4  5  1  0
  5  6  2  0
  5  7  1  0
  7  8  2  0
  7 18  1  0
  8  9  1  0
  9 10  1  0
  9 16  2  0
 10 11  2  0
 11 12  1  0
 11 13  1  0
 13 14  1  0
 13 15  2  0
 15 16  1  0
 16 17  1  0
 17 18  1  0
 17 19  1  0
 19 20  1  0
 20 21  1  0
 20 22  1  0
 22 23  1  0
 22 24  1  0
 24 25  1  0
 24 26  1  0
 26 27  1  0
  4 28  1  0
 10 29  1  0
 12 30  1  0
 12 31  1  0
 12 32  1  0
 14 33  1  0
 14 34  1  0
 14 35  1  0
 15 36  1  0
 19 37  1  0
 19 38  1  0
 20 39  1  0
 21 40  1  0
 22 41  1  0
 23 42  1  0
 24 43  1  0
 25 44  1  0
 26 45  1  0
 26 46  1  0
 27 47  1  0
A    1
N1
A    2
C2
A    3
O2
A    4
N3
A    5
C4
A    6
O4
A    7
C4A
A    8
N5
A    9
C5A
A   10
C6
A   11
C7
A   12
C7M
A   13
C8
A   14
C8M
A   15
C9
A   16
C9A
A   17
N10
A   18
C10
A   19
C1'
A   20
C2'
A   21
O2'
A   22
C3'
A   23
O3'
A   24
C4'
A   25
O4'
A   26
C5'
A   27
O5'
M  END
