1F1P_FPP_?_900
     RDKit          3D

 52 51  0  0  0  0  0  0  0  0999 V2000
   39.1840   39.0900   26.5790 C   0  0  0  0  0  0  0  0  0  0  0  0
   38.7800   40.3180   27.1820 O   0  0  0  0  0  0  0  0  0  0  0  0
   38.7650   37.9380   27.4720 C   0  0  0  0  0  0  0  0  0  0  0  0
   37.5200   37.4620   27.6540 C   0  0  0  0  0  0  0  0  0  0  0  0
   36.2990   38.0260   26.9670 C   0  0  0  0  0  0  0  0  0  0  0  0
   37.2560   36.2900   28.5910 C   0  0  0  0  0  0  0  0  0  0  0  0
   37.0910   34.9340   27.8830 C   0  0  0  0  0  0  0  0  0  0  0  0
   38.3420   34.5520   27.1360 C   0  0  0  0  0  0  0  0  0  0  0  0
   38.5410   34.5540   25.8190 C   0  0  0  0  0  0  0  0  0  0  0  0
   37.5190   34.9500   24.7820 C   0  0  0  0  0  0  0  0  0  0  0  0
   39.8950   34.1330   25.2680 C   0  0  0  0  0  0  0  0  0  0  0  0
   40.8990   35.2990   25.1340 C   0  0  0  0  0  0  0  0  0  0  0  0
   40.6650   36.1990   23.9410 C   0  0  0  0  0  0  0  0  0  0  0  0
   41.4200   37.2720   23.6200 C   0  0  0  0  0  0  0  0  0  0  0  0
   41.1160   38.1190   22.4170 C   0  0  0  0  0  0  0  0  0  0  0  0
   42.6140   37.7240   24.4080 C   0  0  0  0  0  0  0  0  0  0  0  0
   39.5000   40.8410   28.5320 P   0  0  0  0  0  0  0  0  0  0  0  0
   38.8240   42.2450   28.9290 O   0  0  0  0  0  0  0  0  0  0  0  0
   39.1890   39.9390   29.8180 O   0  0  0  0  0  0  0  0  0  0  0  0
   41.0970   41.0860   28.3900 O   0  0  0  0  0  0  0  0  0  0  0  0
   41.6910   41.5940   29.8090 P   0  0  0  0  0  0  0  0  0  0  0  0
   41.1120   42.9960   30.3210 O   0  0  0  0  0  0  0  0  0  0  0  0
   43.2590   41.8500   29.7550 O   0  0  0  0  0  0  0  0  0  0  0  0
   41.4950   40.5370   30.9930 O   0  0  0  0  0  0  0  0  0  0  0  0
   38.7034   38.9871   25.5949 H   0  0  0  0  0  0  0  0  0  0  0  0
   40.2765   39.0815   26.4508 H   0  0  0  0  0  0  0  0  0  0  0  0
   39.5675   37.4364   28.0326 H   0  0  0  0  0  0  0  0  0  0  0  0
   35.5743   38.3608   27.7238 H   0  0  0  0  0  0  0  0  0  0  0  0
   36.5933   38.8794   26.3384 H   0  0  0  0  0  0  0  0  0  0  0  0
   35.8401   37.2487   26.3384 H   0  0  0  0  0  0  0  0  0  0  0  0
   38.1011   36.2120   29.2908 H   0  0  0  0  0  0  0  0  0  0  0  0
   36.3004   36.4996   29.0938 H   0  0  0  0  0  0  0  0  0  0  0  0
   36.8723   34.1613   28.6347 H   0  0  0  0  0  0  0  0  0  0  0  0
   36.2662   35.0174   27.1600 H   0  0  0  0  0  0  0  0  0  0  0  0
   39.1948   34.2326   27.7531 H   0  0  0  0  0  0  0  0  0  0  0  0
   36.6060   35.3038   25.2833 H   0  0  0  0  0  0  0  0  0  0  0  0
   37.9275   35.7549   24.1533 H   0  0  0  0  0  0  0  0  0  0  0  0
   37.2785   34.0800   24.1533 H   0  0  0  0  0  0  0  0  0  0  0  0
   40.3259   33.3792   25.9434 H   0  0  0  0  0  0  0  0  0  0  0  0
   39.7223   33.7387   24.2557 H   0  0  0  0  0  0  0  0  0  0  0  0
   40.8350   35.9130   26.0445 H   0  0  0  0  0  0  0  0  0  0  0  0
   41.8892   34.8421   24.9897 H   0  0  0  0  0  0  0  0  0  0  0  0
   39.8149   35.9615   23.2846 H   0  0  0  0  0  0  0  0  0  0  0  0
   40.7613   39.1073   22.7446 H   0  0  0  0  0  0  0  0  0  0  0  0
   42.0274   38.2383   21.8128 H   0  0  0  0  0  0  0  0  0  0  0  0
   40.3367   37.6315   21.8128 H   0  0  0  0  0  0  0  0  0  0  0  0
   42.3964   37.6416   25.4831 H   0  0  0  0  0  0  0  0  0  0  0  0
   43.4785   37.0909   24.1593 H   0  0  0  0  0  0  0  0  0  0  0  0
   42.8425   38.7709   24.1593 H   0  0  0  0  0  0  0  0  0  0  0  0
   39.3692   40.4618   30.6392 H   0  0  0  0  0  0  0  0  0  0  0  0
   43.6158   41.9083   30.6766 H   0  0  0  0  0  0  0  0  0  0  0  0
   41.5805   40.9983   31.8647 H   0  0  0  0  0  0  0  0  0  0  0  0
  1  2  1  0
  1  3  1  0
  2 17  1  0
  3  4  2  0
  4  5  1  0
  4  6  1  0
  6  7  1  0
  7  8  1  0
  8  9  2  0
  9 10  1  0
  9 11  1  0
 11 12  1  0
 12 13  1  0
 13 14  2  0
 14 15  1  0
 14 16  1  0
 17 18  2  0
 17 19  1  0
 17 20  1  0
 20 21  1  0
 21 22  2  0
 21 23  1  0
 21 24  1  0
  1 25  1  0
  1 26  1  0
  3 27  1  0
  5 28  1  0
  5 29  1  0
  5 30  1  0
  6 31  1  0
  6 32  1  0
  7 33  1  0
  7 34  1  0
  8 35  1  0
 10 36  1  0
 10 37  1  0
 10 38  1  0
 11 39  1  0
 11 40  1  0
 12 41  1  0
 12 42  1  0
 13 43  1  0
 15 44  1  0
 15 45  1  0
 15 46  1  0
 16 47  1  0
 16 48  1  0
 16 49  1  0
 19 50  1  0
 23 51  1  0
 24 52  1  0
A    1
C1
A    2
O1
A    3
C2
A    4
C3
A    5
C4
A    6
C5
A    7
C6
A    8
C7
A    9
C8
A   10
C10
A   11
C9
A   12
C11
A   13
C12
A   14
C13
A   15
C14
A   16
C15
A   17
PA
A   18
O1A
A   19
O2A
A   20
O3A
A   21
PB
A   22
O1B
A   23
O2B
A   24
O3B
M  END
