1L2S_STC_A_1115
     RDKit          3D

 27 28  0  0  0  0  0  0  0  0999 V2000
   23.9580    4.3210   13.8760 N   0  0  0  0  0  0  0  0  0  0  0  0
   22.7830    4.6990   13.2060 C   0  0  0  0  0  0  0  0  0  0  0  0
   21.7520    5.3460   13.9220 C   0  0  0  0  0  0  0  0  0  0  0  0
   22.6370    4.4260   11.8220 C   0  0  0  0  0  0  0  0  0  0  0  0
   20.5620    5.7140   13.2600 C   0  0  0  0  0  0  0  0  0  0  0  0
   21.4460    4.7960   11.1610 C   0  0  0  0  0  0  0  0  0  0  0  0
   20.4110    5.4330   11.8830 C   0  0  0  0  0  0  0  0  0  0  0  0
   18.9380    5.8670   11.0820 Cl  0  0  0  0  0  0  0  0  0  0  0  0
   25.2760    5.4300   13.8970 S   0  0  0  0  0  0  0  0  0  0  0  0
   25.0170    6.7010   15.2220 C   0  0  0  0  0  0  0  0  0  0  0  0
   26.4830    4.6860   14.1520 O   0  0  0  0  0  0  0  0  0  0  0  0
   25.3670    6.0870   12.6250 O   0  0  0  0  0  0  0  0  0  0  0  0
   24.7470    6.4870   16.5870 C   0  0  0  0  0  0  0  0  0  0  0  0
   25.0600    8.0870   15.0100 C   0  0  0  0  0  0  0  0  0  0  0  0
   24.6290    7.7630   17.2160 S   0  0  0  0  0  0  0  0  0  0  0  0
   24.6010    5.1790   17.2960 C   0  0  0  0  0  0  0  0  0  0  0  0
   24.8220    8.7390   16.2240 C   0  0  0  0  0  0  0  0  0  0  0  0
   24.7180    4.0210   16.6520 O   0  0  0  0  0  0  0  0  0  0  0  0
   24.3710    5.1850   18.4900 O   0  0  0  0  0  0  0  0  0  0  0  0
   24.0297    3.4054   14.3422 H   0  0  0  0  0  0  0  0  0  0  0  0
   21.8766    5.5625   14.9933 H   0  0  0  0  0  0  0  0  0  0  0  0
   23.4466    3.9292   11.2673 H   0  0  0  0  0  0  0  0  0  0  0  0
   19.7552    6.2174   13.8129 H   0  0  0  0  0  0  0  0  0  0  0  0
   21.3236    4.5893   10.0875 H   0  0  0  0  0  0  0  0  0  0  0  0
   25.2500    8.5807   14.0456 H   0  0  0  0  0  0  0  0  0  0  0  0
   24.7912    9.8280   16.3760 H   0  0  0  0  0  0  0  0  0  0  0  0
   24.8033    3.1771   17.1625 H   0  0  0  0  0  0  0  0  0  0  0  0
  1  2  1  0
  1  9  1  0
  2  3  2  0
  2  4  1  0
  3  5  1  0
  4  6  2  0
  5  7  2  0
  6  7  1  0
  7  8  1  0
  9 10  1  0
  9 11  2  0
  9 12  2  0
 10 13  2  0
 10 14  1  0
 13 15  1  0
 13 16  1  0
 14 17  2  0
 15 17  1  0
 16 18  1  0
 16 19  2  0
  1 20  1  0
  3 21  1  0
  4 22  1  0
  5 23  1  0
  6 24  1  0
 14 25  1  0
 17 26  1  0
 18 27  1  0
A    1
N1
A    2
C2
A    3
C3
A    4
C4
A    5
C5
A    6
C6
A    7
C7
A    8
CL8
A    9
S13
A   10
C15
A   11
O16
A   12
O17
A   13
C18
A   14
C19
A   15
S20
A   16
C21
A   17
C22
A   18
O23
A   19
O24
M  END
