1L4K_34A_A_990
     RDKit          3D

 20 20  0  0  0  0  0  0  0  0999 V2000
   56.1860   41.4630   13.9910 N   0  0  0  0  0  0  0  0  0  0  0  0
   57.3840   42.1780   13.6180 C   0  0  0  0  0  0  0  0  0  0  0  0
   57.9610   41.9430   12.3330 C   0  0  0  0  0  0  0  0  0  0  0  0
   59.0930   42.6050   11.9510 C   0  0  0  0  0  0  0  0  0  0  0  0
   59.7110   43.5230   12.8020 C   0  0  0  0  0  0  0  0  0  0  0  0
   59.1390   43.7650   14.0960 C   0  0  0  0  0  0  0  0  0  0  0  0
   57.9630   43.0690   14.4820 C   0  0  0  0  0  0  0  0  0  0  0  0
   60.9710   44.2490   12.3420 C   0  0  0  0  0  0  0  0  0  0  0  0
   59.7970   44.7560   15.0310 C   0  0  0  0  0  0  0  0  0  0  0  0
   55.9566   41.3261   14.9858 H   0  0  0  0  0  0  0  0  0  0  0  0
   55.5609   41.0899   13.2623 H   0  0  0  0  0  0  0  0  0  0  0  0
   57.4906   41.2240   11.6462 H   0  0  0  0  0  0  0  0  0  0  0  0
   59.5243   42.4119   10.9577 H   0  0  0  0  0  0  0  0  0  0  0  0
   57.5182   43.2451   15.4725 H   0  0  0  0  0  0  0  0  0  0  0  0
   61.5449   44.5797   13.2202 H   0  0  0  0  0  0  0  0  0  0  0  0
   61.5868   43.5672   11.7370 H   0  0  0  0  0  0  0  0  0  0  0  0
   60.6900   45.1237   11.7370 H   0  0  0  0  0  0  0  0  0  0  0  0
   59.6020   44.4622   16.0730 H   0  0  0  0  0  0  0  0  0  0  0  0
   60.8819   44.7663   14.8499 H   0  0  0  0  0  0  0  0  0  0  0  0
   59.3855   45.7599   14.8499 H   0  0  0  0  0  0  0  0  0  0  0  0
  1  2  1  0
  2  3  2  0
  2  7  1  0
  3  4  1  0
  4  5  2  0
  5  6  1  0
  5  8  1  0
  6  7  2  0
  6  9  1  0
  1 10  1  0
  1 11  1  0
  3 12  1  0
  4 13  1  0
  7 14  1  0
  8 15  1  0
  8 16  1  0
  8 17  1  0
  9 18  1  0
  9 19  1  0
  9 20  1  0
A    1
N1
A    2
C1
A    3
C2
A    4
C3
A    5
C4
A    6
C5
A    7
C6
A    8
C7
A    9
C8
M  END
