1L4M_2AC_A_990
     RDKit          3D

 18 18  0  0  0  0  0  0  0  0999 V2000
   56.6390   41.9480   14.2990 N   0  0  0  0  0  0  0  0  0  0  0  0
   57.6090   41.1710   11.7370 O   0  0  0  0  0  0  0  0  0  0  0  0
   57.8390   42.5610   13.7660 C   0  0  0  0  0  0  0  0  0  0  0  0
   58.3310   42.1680   12.4750 C   0  0  0  0  0  0  0  0  0  0  0  0
   59.4660   42.7230   11.9340 C   0  0  0  0  0  0  0  0  0  0  0  0
   60.1710   43.6910   12.6400 C   0  0  0  0  0  0  0  0  0  0  0  0
   59.6420   44.0980   14.0010 C   0  0  0  0  0  0  0  0  0  0  0  0
   58.4910   43.5050   14.4990 C   0  0  0  0  0  0  0  0  0  0  0  0
   60.3940   45.1460   14.7780 C   0  0  0  0  0  0  0  0  0  0  0  0
   56.5047   41.8794   15.3179 H   0  0  0  0  0  0  0  0  0  0  0  0
   55.9203   41.5809   13.6590 H   0  0  0  0  0  0  0  0  0  0  0  0
   57.1014   40.4701   12.2178 H   0  0  0  0  0  0  0  0  0  0  0  0
   59.8166   42.4012   10.9423 H   0  0  0  0  0  0  0  0  0  0  0  0
   61.0822   44.1464   12.2249 H   0  0  0  0  0  0  0  0  0  0  0  0
   58.1049   43.7976   15.4866 H   0  0  0  0  0  0  0  0  0  0  0  0
   60.2651   44.9664   15.8556 H   0  0  0  0  0  0  0  0  0  0  0  0
   61.4628   45.0950   14.5230 H   0  0  0  0  0  0  0  0  0  0  0  0
   60.0034   46.1422   14.5230 H   0  0  0  0  0  0  0  0  0  0  0  0
  1  3  1  0
  2  4  1  0
  3  4  2  0
  3  8  1  0
  4  5  1  0
  5  6  2  0
  6  7  1  0
  7  8  2  0
  7  9  1  0
  1 10  1  0
  1 11  1  0
  2 12  1  0
  5 13  1  0
  6 14  1  0
  8 15  1  0
  9 16  1  0
  9 17  1  0
  9 18  1  0
A    1
N
A    2
O
A    3
C1
A    4
C2
A    5
C3
A    6
C4
A    7
C5
A    8
C6
A    9
C8
M  END
