1L4N_2AF_A_990
     RDKit          3D

 15 15  0  0  0  0  0  0  0  0999 V2000
   57.6850   43.3840   15.5270 N   0  0  0  0  0  0  0  0  0  0  0  0
   56.3570   41.3390   13.9010 O   0  0  0  0  0  0  0  0  0  0  0  0
   58.2320   43.0170   14.2400 C   0  0  0  0  0  0  0  0  0  0  0  0
   57.5690   42.0060   13.4430 C   0  0  0  0  0  0  0  0  0  0  0  0
   58.1750   41.6830   12.1460 C   0  0  0  0  0  0  0  0  0  0  0  0
   59.3500   42.3540   11.7350 C   0  0  0  0  0  0  0  0  0  0  0  0
   59.9340   43.3330   12.5810 C   0  0  0  0  0  0  0  0  0  0  0  0
   59.3710   43.6490   13.8150 C   0  0  0  0  0  0  0  0  0  0  0  0
   58.1495   43.0723   16.3918 H   0  0  0  0  0  0  0  0  0  0  0  0
   56.8308   43.9571   15.5790 H   0  0  0  0  0  0  0  0  0  0  0  0
   56.1814   41.2424   14.8705 H   0  0  0  0  0  0  0  0  0  0  0  0
   57.7173   40.9224   11.4965 H   0  0  0  0  0  0  0  0  0  0  0  0
   59.8096   42.1183   10.7638 H   0  0  0  0  0  0  0  0  0  0  0  0
   60.8480   43.8515   12.2559 H   0  0  0  0  0  0  0  0  0  0  0  0
   59.8437   44.4107   14.4524 H   0  0  0  0  0  0  0  0  0  0  0  0
  1  3  1  0
  2  4  1  0
  3  4  2  0
  3  8  1  0
  4  5  1  0
  5  6  2  0
  6  7  1  0
  7  8  2  0
  1  9  1  0
  1 10  1  0
  2 11  1  0
  5 12  1  0
  6 13  1  0
  7 14  1  0
  8 15  1  0
A    1
N
A    2
O
A    3
C1
A    4
C2
A    5
C3
A    6
C4
A    7
C5
A    8
C6
M  END
