1L5L_7RP_A_990
     RDKit          3D

 35 37  0  0  0  0  0  0  0  0999 V2000
   56.0250   40.8870   13.1500 C   0  0  0  0  0  0  0  0  0  0  0  0
   56.5850   41.5450   14.1670 N   0  0  0  0  0  0  0  0  0  0  0  0
   57.7210   42.0890   13.6830 C   0  0  0  0  0  0  0  0  0  0  0  0
   57.7930   41.7070   12.3350 C   0  0  0  0  0  0  0  0  0  0  0  0
   56.7000   40.9360   11.9980 N   0  0  0  0  0  0  0  0  0  0  0  0
   58.6030   42.8500   14.3790 N   0  0  0  0  0  0  0  0  0  0  0  0
   59.6470   43.2440   13.5900 C   0  0  0  0  0  0  0  0  0  0  0  0
   59.8430   42.9380   12.2590 N   0  0  0  0  0  0  0  0  0  0  0  0
   58.9460   42.1720   11.5840 C   0  0  0  0  0  0  0  0  0  0  0  0
   59.3380   39.3390    6.1320 P   0  0  0  0  0  0  0  0  0  0  0  0
   59.1450   38.1080    5.3160 O   0  0  0  0  0  0  0  0  0  0  0  0
   59.5560   40.5290    5.2590 O   0  0  0  0  0  0  0  0  0  0  0  0
   60.5100   39.1840    7.0400 O   0  0  0  0  0  0  0  0  0  0  0  0
   58.0650   39.5990    7.0720 O   0  0  0  0  0  0  0  0  0  0  0  0
   57.6000   38.6080    7.9690 C   0  0  0  0  0  0  0  0  0  0  0  0
   57.9090   39.0810    9.3700 C   0  0  0  0  0  0  0  0  0  0  0  0
   57.2670   40.3710    9.6110 O   0  0  0  0  0  0  0  0  0  0  0  0
   57.4170   38.2000   10.4780 C   0  0  0  0  0  0  0  0  0  0  0  0
   58.2700   38.2610   11.6560 O   0  0  0  0  0  0  0  0  0  0  0  0
   56.0480   38.7610   10.7200 C   0  0  0  0  0  0  0  0  0  0  0  0
   55.6270   38.2200   11.9710 O   0  0  0  0  0  0  0  0  0  0  0  0
   56.3040   40.2810   10.6880 C   0  0  0  0  0  0  0  0  0  0  0  0
   55.0747   40.3427   13.2529 H   0  0  0  0  0  0  0  0  0  0  0  0
   60.4133   43.8725   14.0673 H   0  0  0  0  0  0  0  0  0  0  0  0
   59.0860   41.9172   10.5231 H   0  0  0  0  0  0  0  0  0  0  0  0
   59.7026   41.3295    5.8228 H   0  0  0  0  0  0  0  0  0  0  0  0
   60.2058   39.2242    7.9813 H   0  0  0  0  0  0  0  0  0  0  0  0
   56.5149   38.4727    7.8493 H   0  0  0  0  0  0  0  0  0  0  0  0
   58.0908   37.6441    7.7690 H   0  0  0  0  0  0  0  0  0  0  0  0
   59.0085   39.1013    9.3961 H   0  0  0  0  0  0  0  0  0  0  0  0
   57.4158   37.1281   10.2310 H   0  0  0  0  0  0  0  0  0  0  0  0
   57.7100   38.2210   12.4714 H   0  0  0  0  0  0  0  0  0  0  0  0
   55.2443   38.5227   10.0078 H   0  0  0  0  0  0  0  0  0  0  0  0
   56.0323   38.7408   12.7089 H   0  0  0  0  0  0  0  0  0  0  0  0
   55.3914   40.8716   10.5197 H   0  0  0  0  0  0  0  0  0  0  0  0
  1  2  2  0
  1  5  1  0
  2  3  1  0
  3  4  2  0
  3  6  1  0
  4  5  1  0
  4  9  1  0
  5 22  1  0
  6  7  2  0
  7  8  1  0
  8  9  2  0
 10 11  2  0
 10 12  1  0
 10 13  1  0
 10 14  1  0
 14 15  1  0
 15 16  1  0
 16 17  1  0
 16 18  1  0
 17 22  1  0
 18 19  1  0
 18 20  1  0
 20 21  1  0
 20 22  1  0
  1 23  1  0
  7 24  1  0
  9 25  1  0
 12 26  1  0
 13 27  1  0
 15 28  1  0
 15 29  1  0
 16 30  1  0
 18 31  1  0
 19 32  1  0
 20 33  1  0
 21 34  1  0
 22 35  1  0
A    1
C8
A    2
N9
A    3
C4
A    4
C5
A    5
N7
A    6
N3
A    7
C2
A    8
N1
A    9
C6
A   10
P
A   11
O1P
A   12
O2P
A   13
O3P
A   14
O5'
A   15
C5'
A   16
C4'
A   17
O4'
A   18
C3'
A   19
O3'
A   20
C2'
A   21
O2'
A   22
C1'
M  END
