1L5M_7RA_A_990
     RDKit          3D

 37 39  0  0  0  0  0  0  0  0999 V2000
   57.4670   42.2190   13.6950 C   0  0  0  0  0  0  0  0  0  0  0  0
   57.6370   41.7840   12.3690 C   0  0  0  0  0  0  0  0  0  0  0  0
   58.7840   42.2420   11.6450 C   0  0  0  0  0  0  0  0  0  0  0  0
   59.6460   43.0890   12.3010 N   0  0  0  0  0  0  0  0  0  0  0  0
   59.4320   43.4870   13.6030 C   0  0  0  0  0  0  0  0  0  0  0  0
   58.3480   43.0580   14.3140 N   0  0  0  0  0  0  0  0  0  0  0  0
   56.3410   41.6650   14.1380 N   0  0  0  0  0  0  0  0  0  0  0  0
   55.8280   40.9360   13.1480 C   0  0  0  0  0  0  0  0  0  0  0  0
   56.5900   40.9610   12.0320 N   0  0  0  0  0  0  0  0  0  0  0  0
   60.3380   44.3490   14.2150 N   0  0  0  0  0  0  0  0  0  0  0  0
   59.4020   39.4460    6.1920 P   0  0  0  0  0  0  0  0  0  0  0  0
   59.1720   38.1860    5.4050 O   0  0  0  0  0  0  0  0  0  0  0  0
   59.6340   40.6170    5.3180 O   0  0  0  0  0  0  0  0  0  0  0  0
   60.5840   39.2580    7.0720 O   0  0  0  0  0  0  0  0  0  0  0  0
   58.0720   39.7210    7.0580 O   0  0  0  0  0  0  0  0  0  0  0  0
   57.5600   38.7240    7.9780 C   0  0  0  0  0  0  0  0  0  0  0  0
   57.9250   39.1200    9.3880 C   0  0  0  0  0  0  0  0  0  0  0  0
   57.3510   40.4210    9.7870 O   0  0  0  0  0  0  0  0  0  0  0  0
   57.4630   38.1810   10.5040 C   0  0  0  0  0  0  0  0  0  0  0  0
   58.3000   38.2360   11.6690 O   0  0  0  0  0  0  0  0  0  0  0  0
   56.0890   38.7450   10.7710 C   0  0  0  0  0  0  0  0  0  0  0  0
   55.5570   38.2820   12.0170 O   0  0  0  0  0  0  0  0  0  0  0  0
   56.2870   40.2540   10.6940 C   0  0  0  0  0  0  0  0  0  0  0  0
   58.9682   41.9292   10.6066 H   0  0  0  0  0  0  0  0  0  0  0  0
   54.8858   40.3743   13.2300 H   0  0  0  0  0  0  0  0  0  0  0  0
   60.3891   44.3976   15.2426 H   0  0  0  0  0  0  0  0  0  0  0  0
   60.9572   44.9381   13.6402 H   0  0  0  0  0  0  0  0  0  0  0  0
   59.7929   41.4191    5.8762 H   0  0  0  0  0  0  0  0  0  0  0  0
   60.3005   39.3031    8.0195 H   0  0  0  0  0  0  0  0  0  0  0  0
   56.4657   38.6633    7.8839 H   0  0  0  0  0  0  0  0  0  0  0  0
   57.9985   37.7429    7.7432 H   0  0  0  0  0  0  0  0  0  0  0  0
   59.0223   39.1144    9.3110 H   0  0  0  0  0  0  0  0  0  0  0  0
   57.4895   37.1148   10.2348 H   0  0  0  0  0  0  0  0  0  0  0  0
   57.7366   38.1990   12.4822 H   0  0  0  0  0  0  0  0  0  0  0  0
   55.3327   38.4136   10.0442 H   0  0  0  0  0  0  0  0  0  0  0  0
   56.0471   38.7085   12.7640 H   0  0  0  0  0  0  0  0  0  0  0  0
   55.3450   40.7279   10.3808 H   0  0  0  0  0  0  0  0  0  0  0  0
  1  2  1  0
  1  6  2  0
  1  7  1  0
  2  3  2  0
  2  9  1  0
  3  4  1  0
  4  5  2  0
  5  6  1  0
  5 10  1  0
  7  8  2  0
  8  9  1  0
  9 23  1  0
 11 12  2  0
 11 13  1  0
 11 14  1  0
 11 15  1  0
 15 16  1  0
 16 17  1  0
 17 18  1  0
 17 19  1  0
 18 23  1  0
 19 20  1  0
 19 21  1  0
 21 22  1  0
 21 23  1  0
  3 24  1  0
  8 25  1  0
 10 26  1  0
 10 27  1  0
 13 28  1  0
 14 29  1  0
 16 30  1  0
 16 31  1  0
 17 32  1  0
 19 33  1  0
 20 34  1  0
 21 35  1  0
 22 36  1  0
 23 37  1  0
A    1
C4
A    2
C5
A    3
C6
A    4
N1
A    5
C2
A    6
N3
A    7
N9
A    8
C8
A    9
N7
A   10
N10
A   11
P
A   12
O1P
A   13
O2P
A   14
O3P
A   15
O5'
A   16
C5'
A   17
C4'
A   18
O4'
A   19
C3'
A   20
O3'
A   21
C2'
A   22
O2'
A   23
C1'
M  END
