1L5O_2MP_A_990
     RDKit          3D

 19 19  0  0  0  0  0  0  0  0999 V2000
   56.1950   41.4410   14.3090 O   0  0  0  0  0  0  0  0  0  0  0  0
   57.3570   42.2260   13.9470 C   0  0  0  0  0  0  0  0  0  0  0  0
   58.0010   41.9840   12.6590 C   0  0  0  0  0  0  0  0  0  0  0  0
   59.1250   42.7260   12.2850 C   0  0  0  0  0  0  0  0  0  0  0  0
   59.6580   43.7340   13.1310 C   0  0  0  0  0  0  0  0  0  0  0  0
   59.0150   43.9790   14.4310 C   0  0  0  0  0  0  0  0  0  0  0  0
   57.8460   43.2010   14.8070 C   0  0  0  0  0  0  0  0  0  0  0  0
   60.8950   44.5240   12.6660 C   0  0  0  0  0  0  0  0  0  0  0  0
   59.5600   45.0510   15.3710 C   0  0  0  0  0  0  0  0  0  0  0  0
   55.9754   41.2927   15.2629 H   0  0  0  0  0  0  0  0  0  0  0  0
   57.6005   41.2157   11.9812 H   0  0  0  0  0  0  0  0  0  0  0  0
   59.6060   42.5251   11.3164 H   0  0  0  0  0  0  0  0  0  0  0  0
   57.3494   43.3842   15.7713 H   0  0  0  0  0  0  0  0  0  0  0  0
   61.4536   44.8807   13.5439 H   0  0  0  0  0  0  0  0  0  0  0  0
   61.5410   43.8709   12.0609 H   0  0  0  0  0  0  0  0  0  0  0  0
   60.5742   45.3848   12.0609 H   0  0  0  0  0  0  0  0  0  0  0  0
   59.4015   44.7392   16.4139 H   0  0  0  0  0  0  0  0  0  0  0  0
   60.6363   45.1862   15.1883 H   0  0  0  0  0  0  0  0  0  0  0  0
   59.0350   46.0002   15.1883 H   0  0  0  0  0  0  0  0  0  0  0  0
  1  2  1  0
  2  3  2  0
  2  7  1  0
  3  4  1  0
  4  5  2  0
  5  6  1  0
  5  8  1  0
  6  7  2  0
  6  9  1  0
  1 10  1  0
  3 11  1  0
  4 12  1  0
  7 13  1  0
  8 14  1  0
  8 15  1  0
  8 16  1  0
  9 17  1  0
  9 18  1  0
  9 19  1  0
A    1
O1
A    2
C1
A    3
C2
A    4
C3
A    5
C4
A    6
C5
A    7
C6
A    8
C7
A    9
C8
M  END
