1C9C_PP3_A_413
     RDKit          3D

 38 38  0  0  0  0  0  0  0  0999 V2000
   26.6460    5.0320  -14.7580 N   0  0  0  0  0  0  0  0  0  0  0  0
   26.3640    6.2200  -15.3820 C   0  0  0  0  0  0  0  0  0  0  0  0
   27.1110    6.2820  -16.7010 C   0  0  0  0  0  0  0  0  0  0  0  0
   25.4840    7.1310  -14.7300 C   0  0  0  0  0  0  0  0  0  0  0  0
   25.3170    8.2460  -15.4850 O   0  0  0  0  0  0  0  0  0  0  0  0
   24.8840    6.8770  -13.4850 C   0  0  0  0  0  0  0  0  0  0  0  0
   23.9350    7.8740  -12.8170 C   0  0  0  0  0  0  0  0  0  0  0  0
   25.2650    5.5980  -12.9570 C   0  0  0  0  0  0  0  0  0  0  0  0
   26.1200    4.6990  -13.5540 C   0  0  0  0  0  0  0  0  0  0  0  0
   24.7630    5.0650  -11.6130 C   0  0  0  0  0  0  0  0  0  0  0  0
   23.5410    5.5040  -11.1580 O   0  0  0  0  0  0  0  0  0  0  0  0
   22.7360    4.8170   -9.9690 P   0  0  0  0  0  0  0  0  0  0  0  0
   22.1630    3.5590  -10.3500 O   0  0  0  0  0  0  0  0  0  0  0  0
   21.9240    5.9310   -9.3940 O   0  0  0  0  0  0  0  0  0  0  0  0
   23.7830    4.4080   -8.9730 O   0  0  0  0  0  0  0  0  0  0  0  0
   24.3690    9.2070  -13.3950 N   0  0  0  0  0  0  0  0  0  0  0  0
   23.4670   10.3030  -12.9270 C   0  0  0  0  0  0  0  0  0  0  0  0
   23.9340   11.6600  -13.5150 C   0  0  0  0  0  0  0  0  0  0  0  0
   24.6580   11.4880  -14.6590 O   0  0  0  0  0  0  0  0  0  0  0  0
   23.4490   10.3180  -11.4060 C   0  0  0  0  0  0  0  0  0  0  0  0
   23.6790   12.8360  -12.9820 O   0  0  0  0  0  0  0  0  0  0  0  0
   28.1901    6.3716  -16.5074 H   0  0  0  0  0  0  0  0  0  0  0  0
   26.9165    5.3646  -17.2760 H   0  0  0  0  0  0  0  0  0  0  0  0
   26.7680    7.1548  -17.2760 H   0  0  0  0  0  0  0  0  0  0  0  0
   25.1854    9.1246  -15.0480 H   0  0  0  0  0  0  0  0  0  0  0  0
   22.8881    7.6548  -13.0740 H   0  0  0  0  0  0  0  0  0  0  0  0
   23.9823    7.8445  -11.7184 H   0  0  0  0  0  0  0  0  0  0  0  0
   26.3679    3.7427  -13.0702 H   0  0  0  0  0  0  0  0  0  0  0  0
   24.7063    3.9696  -11.6965 H   0  0  0  0  0  0  0  0  0  0  0  0
   25.4841    5.4522  -10.8781 H   0  0  0  0  0  0  0  0  0  0  0  0
   21.9563    5.8868   -8.4055 H   0  0  0  0  0  0  0  0  0  0  0  0
   23.4365    4.5434   -8.0556 H   0  0  0  0  0  0  0  0  0  0  0  0
   25.3325    9.4094  -13.0924 H   0  0  0  0  0  0  0  0  0  0  0  0
   22.4401   10.1287  -13.2808 H   0  0  0  0  0  0  0  0  0  0  0  0
   24.2413    9.6578  -11.0234 H   0  0  0  0  0  0  0  0  0  0  0  0
   23.6213   11.3435  -11.0474 H   0  0  0  0  0  0  0  0  0  0  0  0
   22.4714    9.9636  -11.0474 H   0  0  0  0  0  0  0  0  0  0  0  0
   23.6567   12.9390  -11.9976 H   0  0  0  0  0  0  0  0  0  0  0  0
  1  2  2  0
  1  9  1  0
  2  3  1  0
  2  4  1  0
  4  5  1  0
  4  6  2  0
  6  7  1  0
  6  8  1  0
  7 16  1  0
  8  9  2  0
  8 10  1  0
 10 11  1  0
 11 12  1  0
 12 13  2  0
 12 14  1  0
 12 15  1  0
 16 17  1  0
 17 18  1  0
 17 20  1  0
 18 19  2  0
 18 21  1  0
  3 22  1  0
  3 23  1  0
  3 24  1  0
  5 25  1  0
  7 26  1  0
  7 27  1  0
  9 28  1  0
 10 29  1  0
 10 30  1  0
 14 31  1  0
 15 32  1  0
 16 33  1  0
 17 34  1  0
 20 35  1  0
 20 36  1  0
 20 37  1  0
 21 38  1  0
A    1
N1
A    2
C2
A    3
C2A
A    4
C3
A    5
O3
A    6
C4
A    7
C4A
A    8
C5
A    9
C6
A   10
C5A
A   11
O4P
A   12
P
A   13
O1P
A   14
O2P
A   15
O3P
A   16
N
A   17
CA
A   18
C
A   19
O
A   20
CB
A   21
OXT
M  END
