1L6G_PDD_A_390
     RDKit          3D

 38 38  0  0  0  0  0  0  0  0999 V2000
   24.6880   15.9230   69.1900 N   0  0  0  0  0  0  0  0  0  0  0  0
   23.9660   10.7140   69.2640 N   0  0  0  0  0  0  0  0  0  0  0  0
   25.0930   11.4600   69.4010 C   0  0  0  0  0  0  0  0  0  0  0  0
   26.3400   10.7270   69.7900 C   0  0  0  0  0  0  0  0  0  0  0  0
   25.1000   12.8560   69.1920 C   0  0  0  0  0  0  0  0  0  0  0  0
   26.2680   13.5640   69.3880 O   0  0  0  0  0  0  0  0  0  0  0  0
   23.8980   13.5100   68.7430 C   0  0  0  0  0  0  0  0  0  0  0  0
   24.0400   14.9740   68.2870 C   0  0  0  0  0  0  0  0  0  0  0  0
   22.6760   12.7250   68.6440 C   0  0  0  0  0  0  0  0  0  0  0  0
   21.3340   13.2980   68.2460 C   0  0  0  0  0  0  0  0  0  0  0  0
   21.4540   13.9280   66.9780 O   0  0  0  0  0  0  0  0  0  0  0  0
   20.2960   14.7690   66.4060 P   0  0  0  0  0  0  0  0  0  0  0  0
   19.0980   13.8950   66.2780 O   0  0  0  0  0  0  0  0  0  0  0  0
   20.7230   15.3040   65.0680 O   0  0  0  0  0  0  0  0  0  0  0  0
   19.9880   15.9150   67.2960 O   0  0  0  0  0  0  0  0  0  0  0  0
   22.7840   11.3380   68.9050 C   0  0  0  0  0  0  0  0  0  0  0  0
   24.8920   17.3500   68.8090 C   0  0  0  0  0  0  0  0  0  0  0  0
   23.7660   17.9290   67.9280 C   0  0  0  0  0  0  0  0  0  0  0  0
   26.2580   17.5820   68.0970 C   0  0  0  0  0  0  0  0  0  0  0  0
   26.4220   18.8440   67.6640 O   0  0  0  0  0  0  0  0  0  0  0  0
   27.0970   16.7660   67.9480 O   0  0  0  0  0  0  0  0  0  0  0  0
   24.1270   15.9308   70.0538 H   0  0  0  0  0  0  0  0  0  0  0  0
   26.4131   10.6841   70.8867 H   0  0  0  0  0  0  0  0  0  0  0  0
   26.3062    9.7050   69.3845 H   0  0  0  0  0  0  0  0  0  0  0  0
   27.2165   11.2536   69.3845 H   0  0  0  0  0  0  0  0  0  0  0  0
   26.5829   13.7549   70.3070 H   0  0  0  0  0  0  0  0  0  0  0  0
   23.0264   15.3530   68.0896 H   0  0  0  0  0  0  0  0  0  0  0  0
   24.7139   14.9230   67.4191 H   0  0  0  0  0  0  0  0  0  0  0  0
   20.5913   12.4888   68.1863 H   0  0  0  0  0  0  0  0  0  0  0  0
   21.0087   14.0342   68.9958 H   0  0  0  0  0  0  0  0  0  0  0  0
   21.3351   16.0709   65.1993 H   0  0  0  0  0  0  0  0  0  0  0  0
   20.0648   15.6291   68.2407 H   0  0  0  0  0  0  0  0  0  0  0  0
   21.8773   10.7213   68.8176 H   0  0  0  0  0  0  0  0  0  0  0  0
   24.8795   17.8875   69.7687 H   0  0  0  0  0  0  0  0  0  0  0  0
   22.9716   18.3375   68.5699 H   0  0  0  0  0  0  0  0  0  0  0  0
   24.1724   18.7299   67.2929 H   0  0  0  0  0  0  0  0  0  0  0  0
   23.3510   17.1325   67.2929 H   0  0  0  0  0  0  0  0  0  0  0  0
   27.5266   16.3482   68.7360 H   0  0  0  0  0  0  0  0  0  0  0  0
  1  8  1  0
  1 17  1  0
  2  3  2  0
  2 16  1  0
  3  4  1  0
  3  5  1  0
  5  6  1  0
  5  7  2  0
  7  8  1  0
  7  9  1  0
  9 10  1  0
  9 16  2  0
 10 11  1  0
 11 12  1  0
 12 13  2  0
 12 14  1  0
 12 15  1  0
 17 18  1  0
 17 19  1  0
 19 20  2  0
 19 21  1  0
  1 22  1  0
  4 23  1  0
  4 24  1  0
  4 25  1  0
  6 26  1  0
  8 27  1  0
  8 28  1  0
 10 29  1  0
 10 30  1  0
 14 31  1  0
 15 32  1  0
 16 33  1  0
 17 34  1  0
 18 35  1  0
 18 36  1  0
 18 37  1  0
 21 38  1  0
A    1
N
A    2
N1
A    3
C2
A    4
C2A
A    5
C3
A    6
O3A
A    7
C4
A    8
C4A
A    9
C5
A   10
C5A
A   11
OP4
A   12
P
A   13
OP1
A   14
OP2
A   15
OP3
A   16
C6
A   17
CA
A   18
CB
A   19
C
A   20
O
A   21
OXT
M  END
