1L8G_DBD_A_322
     RDKit          3D

 45 48  0  0  0  0  0  0  0  0999 V2000
   13.8920   44.1980   17.3490 O   0  0  0  0  0  0  0  0  0  0  0  0
   13.8160   45.0440   18.4860 C   0  0  0  0  0  0  0  0  0  0  0  0
   12.3870   45.3720   18.7680 C   0  0  0  0  0  0  0  0  0  0  0  0
   11.3530   45.0390   17.9810 C   0  0  0  0  0  0  0  0  0  0  0  0
   11.5430   44.2110   16.7580 C   0  0  0  0  0  0  0  0  0  0  0  0
   12.7840   43.3770   17.0760 C   0  0  0  0  0  0  0  0  0  0  0  0
   11.9370   46.0750   20.2580 S   0  0  0  0  0  0  0  0  0  0  0  0
   10.2880   45.9120   19.7710 C   0  0  0  0  0  0  0  0  0  0  0  0
   10.0470   45.4020   18.5570 C   0  0  0  0  0  0  0  0  0  0  0  0
    8.6630   45.2970   17.9530 C   0  0  0  0  0  0  0  0  0  0  0  0
    8.5370   45.2500   16.7650 O   0  0  0  0  0  0  0  0  0  0  0  0
    7.5520   45.2430   18.6900 O   0  0  0  0  0  0  0  0  0  0  0  0
    9.2060   46.3660   20.6110 N   0  0  0  0  0  0  0  0  0  0  0  0
    9.3180   47.0700   21.7370 C   0  0  0  0  0  0  0  0  0  0  0  0
    7.9750   47.4890   22.3640 C   0  0  0  0  0  0  0  0  0  0  0  0
    7.7770   48.5280   22.9140 O   0  0  0  0  0  0  0  0  0  0  0  0
    7.0080   46.5590   22.4130 O   0  0  0  0  0  0  0  0  0  0  0  0
   10.3750   47.3510   22.3230 O   0  0  0  0  0  0  0  0  0  0  0  0
   14.6380   46.2120   18.0600 C   0  0  0  0  0  0  0  0  0  0  0  0
   15.8770   45.6790   17.6670 O   0  0  0  0  0  0  0  0  0  0  0  0
   16.7130   45.2310   18.6980 C   0  0  0  0  0  0  0  0  0  0  0  0
   17.9490   44.5430   18.4230 C   0  0  0  0  0  0  0  0  0  0  0  0
   18.6350   44.3150   19.6090 C   0  0  0  0  0  0  0  0  0  0  0  0
   17.7800   44.7840   21.0230 S   0  0  0  0  0  0  0  0  0  0  0  0
   16.6010   45.2910   20.0500 N   0  0  0  0  0  0  0  0  0  0  0  0
   18.4620   44.2680   17.1770 C   0  0  0  0  0  0  0  0  0  0  0  0
   19.6700   43.5760   17.0860 C   0  0  0  0  0  0  0  0  0  0  0  0
   20.3960   43.3130   18.2530 C   0  0  0  0  0  0  0  0  0  0  0  0
   19.8710   43.6200   19.5010 C   0  0  0  0  0  0  0  0  0  0  0  0
   18.4200   45.8790   21.6250 O   0  0  0  0  0  0  0  0  0  0  0  0
   17.3760   43.6030   21.7820 O   0  0  0  0  0  0  0  0  0  0  0  0
   14.1858   44.6161   19.4295 H   0  0  0  0  0  0  0  0  0  0  0  0
   10.6704   43.5648   16.5820 H   0  0  0  0  0  0  0  0  0  0  0  0
   11.6574   44.8160   15.8465 H   0  0  0  0  0  0  0  0  0  0  0  0
   13.0164   42.7360   16.2128 H   0  0  0  0  0  0  0  0  0  0  0  0
   12.5747   42.7668   17.9670 H   0  0  0  0  0  0  0  0  0  0  0  0
    7.6128   45.2460   19.6781 H   0  0  0  0  0  0  0  0  0  0  0  0
    8.2517   46.1215   20.3102 H   0  0  0  0  0  0  0  0  0  0  0  0
    6.6740   46.2378   23.2879 H   0  0  0  0  0  0  0  0  0  0  0  0
   14.1589   46.7317   17.2172 H   0  0  0  0  0  0  0  0  0  0  0  0
   14.7500   46.9478   18.8699 H   0  0  0  0  0  0  0  0  0  0  0  0
   17.9298   44.5877   16.2690 H   0  0  0  0  0  0  0  0  0  0  0  0
   20.0473   43.2411   16.1085 H   0  0  0  0  0  0  0  0  0  0  0  0
   21.3947   42.8575   18.1807 H   0  0  0  0  0  0  0  0  0  0  0  0
   20.4138   43.3242   20.4109 H   0  0  0  0  0  0  0  0  0  0  0  0
  1  2  1  0
  1  6  1  0
  2  3  1  0
  2 19  1  0
  3  4  2  0
  3  7  1  0
  4  5  1  0
  4  9  1  0
  5  6  1  0
  7  8  1  0
  8  9  2  0
  8 13  1  0
  9 10  1  0
 10 11  2  0
 10 12  1  0
 13 14  1  0
 14 15  1  0
 14 18  2  0
 15 16  2  0
 15 17  1  0
 19 20  1  0
 20 21  1  0
 21 22  1  0
 21 25  2  0
 22 23  2  0
 22 26  1  0
 23 24  1  0
 23 29  1  0
 24 25  1  0
 24 30  2  0
 24 31  2  0
 26 27  2  0
 27 28  1  0
 28 29  2  0
  2 32  1  0
  5 33  1  0
  5 34  1  0
  6 35  1  0
  6 36  1  0
 12 37  1  0
 13 38  1  0
 17 39  1  0
 19 40  1  0
 19 41  1  0
 26 42  1  0
 27 43  1  0
 28 44  1  0
 29 45  1  0
A    1
O1
A    2
C2
A    3
C3
A    4
C4
A    5
C5
A    6
C6
A    7
S7
A    8
C8
A    9
C9
A   10
C10
A   11
O11
A   12
O12
A   13
N13
A   14
C14
A   15
C15
A   16
O16
A   17
O17
A   18
O18
A   19
C19
A   20
O20
A   21
C21
A   22
C22
A   23
C23
A   24
S24
A   25
N25
A   26
C26
A   27
C27
A   28
C28
A   29
C29
A   30
O30
A   31
O31
M  END
