1LC8_33P_A_800
     RDKit          3D

 44 44  0  0  0  0  0  0  0  0999 V2000
   22.9920   21.1140   47.0670 N   0  0  0  0  0  0  0  0  0  0  0  0
   23.0120   21.4240   45.7460 C   0  0  0  0  0  0  0  0  0  0  0  0
   22.0050   20.8780   44.8480 C   0  0  0  0  0  0  0  0  0  0  0  0
   24.0830   22.2850   45.3190 C   0  0  0  0  0  0  0  0  0  0  0  0
   24.1640   22.6140   44.0720 O   0  0  0  0  0  0  0  0  0  0  0  0
   25.0340   22.7610   46.3320 C   0  0  0  0  0  0  0  0  0  0  0  0
   26.0950   23.6280   45.8450 C   0  0  0  0  0  0  0  0  0  0  0  0
   24.9340   22.3910   47.6630 C   0  0  0  0  0  0  0  0  0  0  0  0
   23.8580   21.5400   48.0540 C   0  0  0  0  0  0  0  0  0  0  0  0
   25.8200   22.7950   48.7730 C   0  0  0  0  0  0  0  0  0  0  0  0
   25.5900   24.1940   49.0520 O   0  0  0  0  0  0  0  0  0  0  0  0
   26.2750   25.0150   50.2350 P   0  0  0  0  0  0  0  0  0  0  0  0
   25.1370   25.4090   51.2280 O   0  0  0  0  0  0  0  0  0  0  0  0
   26.9870   26.3140   49.7080 O   0  0  0  0  0  0  0  0  0  0  0  0
   27.2580   24.0650   50.9600 O   0  0  0  0  0  0  0  0  0  0  0  0
   28.1140   22.5230   41.3060 P   0  0  0  0  0  0  0  0  0  0  0  0
   28.5390   21.0520   41.3400 O   0  0  0  0  0  0  0  0  0  0  0  0
   28.8310   23.2820   40.1730 O   0  0  0  0  0  0  0  0  0  0  0  0
   26.5940   22.6090   41.1000 O   0  0  0  0  0  0  0  0  0  0  0  0
   26.7040   23.8450   44.7410 N   0  0  0  0  0  0  0  0  0  0  0  0
   27.7480   24.7510   44.3420 C   0  0  0  0  0  0  0  0  0  0  0  0
   28.1170   24.5470   42.8820 C   0  0  0  0  0  0  0  0  0  0  0  0
   28.4810   23.1650   42.7120 O   0  0  0  0  0  0  0  0  0  0  0  0
   29.2880   25.4490   42.5870 C   0  0  0  0  0  0  0  0  0  0  0  0
   21.1888   20.4355   45.4380 H   0  0  0  0  0  0  0  0  0  0  0  0
   21.6045   21.6825   44.2137 H   0  0  0  0  0  0  0  0  0  0  0  0
   22.4607   20.1034   44.2137 H   0  0  0  0  0  0  0  0  0  0  0  0
   24.3928   23.5434   43.8191 H   0  0  0  0  0  0  0  0  0  0  0  0
   25.7086   24.6271   46.0949 H   0  0  0  0  0  0  0  0  0  0  0  0
   26.8969   22.9894   46.2438 H   0  0  0  0  0  0  0  0  0  0  0  0
   23.7234   21.2348   49.1022 H   0  0  0  0  0  0  0  0  0  0  0  0
   25.5931   22.1954   49.6669 H   0  0  0  0  0  0  0  0  0  0  0  0
   26.8721   22.6321   48.4962 H   0  0  0  0  0  0  0  0  0  0  0  0
   27.2868   26.8610   50.4768 H   0  0  0  0  0  0  0  0  0  0  0  0
   27.1532   24.1663   51.9392 H   0  0  0  0  0  0  0  0  0  0  0  0
   29.4559   23.9435   40.5629 H   0  0  0  0  0  0  0  0  0  0  0  0
   26.1426   22.6345   41.9807 H   0  0  0  0  0  0  0  0  0  0  0  0
   27.0929   22.9213   44.5033 H   0  0  0  0  0  0  0  0  0  0  0  0
   27.4008   25.7850   44.4843 H   0  0  0  0  0  0  0  0  0  0  0  0
   28.6372   24.5549   44.9591 H   0  0  0  0  0  0  0  0  0  0  0  0
   27.2877   24.7868   42.2003 H   0  0  0  0  0  0  0  0  0  0  0  0
   29.7337   25.7923   43.5323 H   0  0  0  0  0  0  0  0  0  0  0  0
   30.0405   24.8950   42.0067 H   0  0  0  0  0  0  0  0  0  0  0  0
   28.9444   26.3180   42.0067 H   0  0  0  0  0  0  0  0  0  0  0  0
  1  2  2  0
  1  9  1  0
  2  3  1  0
  2  4  1  0
  4  5  1  0
  4  6  2  0
  6  7  1  0
  6  8  1  0
  7 20  1  0
  8  9  2  0
  8 10  1  0
 10 11  1  0
 11 12  1  0
 12 13  2  0
 12 14  1  0
 12 15  1  0
 16 17  2  0
 16 18  1  0
 16 19  1  0
 16 23  1  0
 20 21  1  0
 21 22  1  0
 22 23  1  0
 22 24  1  0
  3 25  1  0
  3 26  1  0
  3 27  1  0
  5 28  1  0
  7 29  1  0
  7 30  1  0
  9 31  1  0
 10 32  1  0
 10 33  1  0
 14 34  1  0
 15 35  1  0
 18 36  1  0
 19 37  1  0
 20 38  1  0
 21 39  1  0
 21 40  1  0
 22 41  1  0
 24 42  1  0
 24 43  1  0
 24 44  1  0
A    1
N1
A    2
C2
A    3
C2A
A    4
C3
A    5
O3
A    6
C4
A    7
C4A
A    8
C5
A    9
C6
A   10
C5A
A   11
O4A
A   12
PA
A   13
O1A
A   14
O2A
A   15
O3A
A   16
PB
A   17
O1B
A   18
O2B
A   19
O3B
A   20
N7
A   21
C8
A   22
C9
A   23
O4B
A   24
C10
M  END
