1LCW_SHM_A_401
     RDKit          3D

 35 36  0  0  0  0  0  0  0  0999 V2000
   -4.6800   34.4140   10.1530 C   0  0  0  0  0  0  0  0  0  0  0  0
   -5.9760   34.4890   10.9740 C   0  0  0  0  0  0  0  0  0  0  0  0
   -5.6760   35.5660   11.9290 N   0  0  0  0  0  0  0  0  0  0  0  0
   -4.4340   36.0580   11.7320 C   0  0  0  0  0  0  0  0  0  0  0  0
   -3.8070   35.4380   10.7180 N   0  0  0  0  0  0  0  0  0  0  0  0
   -6.2200   33.0800   11.6480 C   0  0  0  0  0  0  0  0  0  0  0  0
   -4.5250   32.4450   11.8730 S   0  0  0  0  0  0  0  0  0  0  0  0
   -3.9850   33.0190   10.2250 C   0  0  0  0  0  0  0  0  0  0  0  0
   -7.0650   33.1200   12.9570 C   0  0  0  0  0  0  0  0  0  0  0  0
   -7.5050   31.7400   13.4620 C   0  0  0  0  0  0  0  0  0  0  0  0
   -8.7580   31.8410   14.3420 C   0  0  0  0  0  0  0  0  0  0  0  0
   -9.0070   30.5030   15.0840 C   0  0  0  0  0  0  0  0  0  0  0  0
   -9.2420   29.3320   14.0840 C   0  0  0  0  0  0  0  0  0  0  0  0
  -10.5690   29.4360   13.3480 C   0  0  0  0  0  0  0  0  0  0  0  0
  -10.8970   28.4830   12.4410 O   0  0  0  0  0  0  0  0  0  0  0  0
  -11.3610   30.3540   13.5390 O   0  0  0  0  0  0  0  0  0  0  0  0
   -3.9350   36.9650   12.3990 O   0  0  0  0  0  0  0  0  0  0  0  0
   -4.9002   34.5722    9.0869 H   0  0  0  0  0  0  0  0  0  0  0  0
   -6.8987   34.7035   10.4149 H   0  0  0  0  0  0  0  0  0  0  0  0
   -6.3275   35.9011   12.6530 H   0  0  0  0  0  0  0  0  0  0  0  0
   -2.8548   35.6529   10.3894 H   0  0  0  0  0  0  0  0  0  0  0  0
   -6.8461   32.4223   11.0272 H   0  0  0  0  0  0  0  0  0  0  0  0
   -4.3398   32.3493    9.4277 H   0  0  0  0  0  0  0  0  0  0  0  0
   -2.8937   33.0487   10.0904 H   0  0  0  0  0  0  0  0  0  0  0  0
   -6.4622   33.5990   13.7426 H   0  0  0  0  0  0  0  0  0  0  0  0
   -7.9830   33.6797   12.7245 H   0  0  0  0  0  0  0  0  0  0  0  0
   -7.7251   31.0958   12.5979 H   0  0  0  0  0  0  0  0  0  0  0  0
   -6.6898   31.3157   14.0665 H   0  0  0  0  0  0  0  0  0  0  0  0
   -8.6184   32.6443   15.0804 H   0  0  0  0  0  0  0  0  0  0  0  0
   -9.6258   32.0613   13.7030 H   0  0  0  0  0  0  0  0  0  0  0  0
   -8.1305   30.2710   15.7068 H   0  0  0  0  0  0  0  0  0  0  0  0
   -9.9088   30.6143   15.7039 H   0  0  0  0  0  0  0  0  0  0  0  0
   -8.4290   29.3354   13.3430 H   0  0  0  0  0  0  0  0  0  0  0  0
   -9.2618   28.3999   14.6678 H   0  0  0  0  0  0  0  0  0  0  0  0
  -11.5933   30.6232   14.4630 H   0  0  0  0  0  0  0  0  0  0  0  0
  1  2  1  0
  1  5  1  0
  1  8  1  0
  2  3  1  0
  2  6  1  0
  3  4  1  0
  4  5  1  0
  4 17  2  0
  6  7  1  0
  6  9  1  0
  7  8  1  0
  9 10  1  0
 10 11  1  0
 11 12  1  0
 12 13  1  0
 13 14  1  0
 14 15  2  0
 14 16  1  0
  1 18  1  0
  2 19  1  0
  3 20  1  0
  5 21  1  0
  6 22  1  0
  8 23  1  0
  8 24  1  0
  9 25  1  0
  9 26  1  0
 10 27  1  0
 10 28  1  0
 11 29  1  0
 11 30  1  0
 12 31  1  0
 12 32  1  0
 13 33  1  0
 13 34  1  0
 16 35  1  0
A    1
C1
A    2
C2
A    3
N3
A    4
C4
A    5
N5
A    6
C6
A    7
S7
A    8
C8
A    9
C9
A   10
C10
A   11
C11
A   12
C12
A   13
C13
A   14
C14
A   15
O15
A   16
O16
A   17
O17
M  END
