1LCZ_BH7_A_401
     RDKit          3D

 51 52  0  0  0  0  0  0  0  0999 V2000
   -3.9690   35.0130   10.5890 N   0  0  0  0  0  0  0  0  0  0  0  0
   -4.9090   33.9880   10.0180 C   0  0  0  0  0  0  0  0  0  0  0  0
   -6.1330   34.0800   10.9340 C   0  0  0  0  0  0  0  0  0  0  0  0
   -5.7700   35.1310   11.9010 N   0  0  0  0  0  0  0  0  0  0  0  0
   -4.5170   35.6640   11.6870 C   0  0  0  0  0  0  0  0  0  0  0  0
   -4.3730   32.5450   10.0010 C   0  0  0  0  0  0  0  0  0  0  0  0
   -4.8770   31.8330   11.6080 S   0  0  0  0  0  0  0  0  0  0  0  0
   -6.4700   32.6760   11.6010 C   0  0  0  0  0  0  0  0  0  0  0  0
   -4.0110   36.5260   12.3410 O   0  0  0  0  0  0  0  0  0  0  0  0
   -7.1560   32.7580   12.9680 C   0  0  0  0  0  0  0  0  0  0  0  0
   -7.4560   31.3590   13.4820 C   0  0  0  0  0  0  0  0  0  0  0  0
   -8.6980   31.3370   14.3490 C   0  0  0  0  0  0  0  0  0  0  0  0
   -9.0300   29.9120   14.8390 C   0  0  0  0  0  0  0  0  0  0  0  0
  -10.1140   29.1770   14.0450 C   0  0  0  0  0  0  0  0  0  0  0  0
  -10.0470   27.9830   13.8510 O   0  0  0  0  0  0  0  0  0  0  0  0
  -11.1690   29.9780   13.5790 N   0  0  0  0  0  0  0  0  0  0  0  0
  -12.3730   29.4890   12.7800 C   0  0  0  0  0  0  0  0  0  0  0  0
  -12.3010   29.7440   11.2380 C   0  0  0  0  0  0  0  0  0  0  0  0
  -13.3210   28.8830   10.3950 C   0  0  0  0  0  0  0  0  0  0  0  0
  -13.5660   27.4180   10.9420 C   0  0  0  0  0  0  0  0  0  0  0  0
  -12.4130   26.4360   10.5910 C   0  0  0  0  0  0  0  0  0  0  0  0
  -12.6420   25.0110   11.1250 C   0  0  0  0  0  0  0  0  0  0  0  0
  -13.1850   24.0540   10.5570 O   0  0  0  0  0  0  0  0  0  0  0  0
  -12.1520   24.8860   12.3980 O   0  0  0  0  0  0  0  0  0  0  0  0
   -3.0310   35.2091   10.2113 H   0  0  0  0  0  0  0  0  0  0  0  0
   -5.1003   34.2027    8.9563 H   0  0  0  0  0  0  0  0  0  0  0  0
   -7.0614   34.3357   10.4022 H   0  0  0  0  0  0  0  0  0  0  0  0
   -6.3920   35.4375   12.6626 H   0  0  0  0  0  0  0  0  0  0  0  0
   -4.8176   31.9773    9.1703 H   0  0  0  0  0  0  0  0  0  0  0  0
   -3.2828   32.5112    9.8581 H   0  0  0  0  0  0  0  0  0  0  0  0
   -7.2355   32.1224   11.0374 H   0  0  0  0  0  0  0  0  0  0  0  0
   -6.4927   33.2730   13.6785 H   0  0  0  0  0  0  0  0  0  0  0  0
   -8.0985   33.3162   12.8670 H   0  0  0  0  0  0  0  0  0  0  0  0
   -7.6083   30.6884   12.6234 H   0  0  0  0  0  0  0  0  0  0  0  0
   -6.6039   31.0275   14.0936 H   0  0  0  0  0  0  0  0  0  0  0  0
   -8.5337   31.9847   15.2228 H   0  0  0  0  0  0  0  0  0  0  0  0
   -9.5436   31.6960   13.7440 H   0  0  0  0  0  0  0  0  0  0  0  0
   -8.1086   29.3132   14.7889 H   0  0  0  0  0  0  0  0  0  0  0  0
   -9.4287   30.0284   15.8576 H   0  0  0  0  0  0  0  0  0  0  0  0
  -11.1262   30.9840   13.7957 H   0  0  0  0  0  0  0  0  0  0  0  0
  -12.4701   28.4052   12.9410 H   0  0  0  0  0  0  0  0  0  0  0  0
  -13.2347   30.0678   13.1439 H   0  0  0  0  0  0  0  0  0  0  0  0
  -12.5114   30.8078   11.0534 H   0  0  0  0  0  0  0  0  0  0  0  0
  -11.2922   29.4486   10.9140 H   0  0  0  0  0  0  0  0  0  0  0  0
  -14.2865   29.4100   10.3846 H   0  0  0  0  0  0  0  0  0  0  0  0
  -12.8769   28.7693    9.3951 H   0  0  0  0  0  0  0  0  0  0  0  0
  -13.6651   27.4649   12.0365 H   0  0  0  0  0  0  0  0  0  0  0  0
  -14.4794   27.0368   10.4621 H   0  0  0  0  0  0  0  0  0  0  0  0
  -12.3173   26.3872    9.4963 H   0  0  0  0  0  0  0  0  0  0  0  0
  -11.5008   26.8205   11.0706 H   0  0  0  0  0  0  0  0  0  0  0  0
  -13.5961   23.3294   11.0918 H   0  0  0  0  0  0  0  0  0  0  0  0
  1  2  1  0
  1  5  1  0
  2  3  1  0
  2  6  1  0
  3  4  1  0
  3  8  1  0
  4  5  1  0
  5  9  2  0
  6  7  1  0
  7  8  1  0
  8 10  1  0
 10 11  1  0
 11 12  1  0
 12 13  1  0
 13 14  1  0
 14 15  2  0
 14 16  1  0
 16 17  1  0
 17 18  1  0
 18 19  1  0
 19 20  1  0
 20 21  1  0
 21 22  1  0
 22 23  1  0
 22 24  2  0
  1 25  1  0
  2 26  1  0
  3 27  1  0
  4 28  1  0
  6 29  1  0
  6 30  1  0
  8 31  1  0
 10 32  1  0
 10 33  1  0
 11 34  1  0
 11 35  1  0
 12 36  1  0
 12 37  1  0
 13 38  1  0
 13 39  1  0
 16 40  1  0
 17 41  1  0
 17 42  1  0
 18 43  1  0
 18 44  1  0
 19 45  1  0
 19 46  1  0
 20 47  1  0
 20 48  1  0
 21 49  1  0
 21 50  1  0
 23 51  1  0
A    1
N1
A    2
C2
A    3
C3
A    4
N4
A    5
C5
A    6
C6
A    7
S7
A    8
C8
A    9
O9
A   10
C10
A   11
C11
A   12
C12
A   13
C13
A   14
C14
A   15
O15
A   16
N16
A   17
C17
A   18
C18
A   19
C19
A   20
C20
A   21
C21
A   22
C22
A   23
O23
A   24
O24
M  END
