1LD7_U66_B_1003
     RDKit          3D

 61 66  0  0  0  0  0  0  0  0999 V2000
   15.4840  134.7230   -3.5960 C   0  0  0  0  0  0  0  0  0  0  0  0
   15.8530  136.0910   -3.8710 C   0  0  0  0  0  0  0  0  0  0  0  0
   14.1660  134.2280   -3.9540 C   0  0  0  0  0  0  0  0  0  0  0  0
   16.3520  133.8080   -2.9790 C   0  0  0  0  0  0  0  0  0  0  0  0
   17.1620  136.6060   -3.5460 N   0  0  0  0  0  0  0  0  0  0  0  0
   14.8920  136.9410   -4.4960 C   0  0  0  0  0  0  0  0  0  0  0  0
   13.7990  132.8670   -3.6870 C   0  0  0  0  0  0  0  0  0  0  0  0
   13.2420  135.1050   -4.5740 C   0  0  0  0  0  0  0  0  0  0  0  0
   16.0150  132.4470   -2.7110 C   0  0  0  0  0  0  0  0  0  0  0  0
   17.5370  137.2590   -2.3550 C   0  0  0  0  0  0  0  0  0  0  0  0
   18.2950  136.4860   -4.4480 C   0  0  0  0  0  0  0  0  0  0  0  0
   13.6000  136.4490   -4.8400 C   0  0  0  0  0  0  0  0  0  0  0  0
   14.7260  131.9730   -3.0710 C   0  0  0  0  0  0  0  0  0  0  0  0
   16.9350  131.5260   -2.1370 O   0  0  0  0  0  0  0  0  0  0  0  0
   19.0690  137.4730   -2.3930 C   0  0  0  0  0  0  0  0  0  0  0  0
   16.8270  137.5100   -1.4000 O   0  0  0  0  0  0  0  0  0  0  0  0
   19.4870  136.4930   -3.5110 C   0  0  0  0  0  0  0  0  0  0  0  0
   18.3230  131.8620   -2.1810 C   0  0  0  0  0  0  0  0  0  0  0  0
   19.7250  137.1780   -1.0840 N   0  0  0  0  0  0  0  0  0  0  0  0
   19.1080  132.0530   -3.3940 C   0  0  0  0  0  0  0  0  0  0  0  0
   18.9550  132.0180   -0.9140 C   0  0  0  0  0  0  0  0  0  0  0  0
   19.4420  135.8650   -0.4440 C   0  0  0  0  0  0  0  0  0  0  0  0
   20.4770  132.4050   -3.2740 C   0  0  0  0  0  0  0  0  0  0  0  0
   18.5190  131.8940   -4.7040 C   0  0  0  0  0  0  0  0  0  0  0  0
   20.3430  132.3640   -0.8160 C   0  0  0  0  0  0  0  0  0  0  0  0
   20.2050  135.6780    0.8550 C   0  0  0  0  0  0  0  0  0  0  0  0
   21.0850  132.5610   -2.0050 C   0  0  0  0  0  0  0  0  0  0  0  0
   17.9820  131.7600   -5.7230 N   0  0  0  0  0  0  0  0  0  0  0  0
   21.0630  132.5310    0.5020 C   0  0  0  0  0  0  0  0  0  0  0  0
   19.8860  134.4810    1.6960 C   0  0  0  0  0  0  0  0  0  0  0  0
   20.2520  133.1600    1.5410 N   0  0  0  0  0  0  0  0  0  0  0  0
   19.1280  134.4720    2.8420 C   0  0  0  0  0  0  0  0  0  0  0  0
   19.7040  132.4560    2.5870 C   0  0  0  0  0  0  0  0  0  0  0  0
   19.0090  133.2280    3.4020 N   0  0  0  0  0  0  0  0  0  0  0  0
   17.3514  134.1610   -2.6846 H   0  0  0  0  0  0  0  0  0  0  0  0
   15.1516  137.9873   -4.7145 H   0  0  0  0  0  0  0  0  0  0  0  0
   12.7950  132.5094   -3.9592 H   0  0  0  0  0  0  0  0  0  0  0  0
   12.2417  134.7401   -4.8501 H   0  0  0  0  0  0  0  0  0  0  0  0
   18.2472  135.5466   -5.0183 H   0  0  0  0  0  0  0  0  0  0  0  0
   18.3336  137.2873   -5.2006 H   0  0  0  0  0  0  0  0  0  0  0  0
   12.8720  137.1210   -5.3179 H   0  0  0  0  0  0  0  0  0  0  0  0
   14.4444  130.9274   -2.8772 H   0  0  0  0  0  0  0  0  0  0  0  0
   19.3696  138.5139   -2.5829 H   0  0  0  0  0  0  0  0  0  0  0  0
   19.6710  135.4882   -3.1031 H   0  0  0  0  0  0  0  0  0  0  0  0
   20.4204  136.7905   -4.0113 H   0  0  0  0  0  0  0  0  0  0  0  0
   18.5818  130.7929   -2.1819 H   0  0  0  0  0  0  0  0  0  0  0  0
   20.7428  137.2344   -1.2313 H   0  0  0  0  0  0  0  0  0  0  0  0
   18.8348  133.1185   -3.4030 H   0  0  0  0  0  0  0  0  0  0  0  0
   18.3990  132.8043   -0.3825 H   0  0  0  0  0  0  0  0  0  0  0  0
   18.9322  130.9966   -0.5063 H   0  0  0  0  0  0  0  0  0  0  0  0
   18.3644  135.7997   -0.2333 H   0  0  0  0  0  0  0  0  0  0  0  0
   19.7652  135.0763   -1.1394 H   0  0  0  0  0  0  0  0  0  0  0  0
   21.0470  131.6243   -3.7991 H   0  0  0  0  0  0  0  0  0  0  0  0
   20.4980  133.4281   -3.6776 H   0  0  0  0  0  0  0  0  0  0  0  0
   21.2737  135.6226    0.6006 H   0  0  0  0  0  0  0  0  0  0  0  0
   19.9031  136.5352    1.4747 H   0  0  0  0  0  0  0  0  0  0  0  0
   22.1475  132.8388   -1.9423 H   0  0  0  0  0  0  0  0  0  0  0  0
   21.3714  131.5366    0.8572 H   0  0  0  0  0  0  0  0  0  0  0  0
   21.9193  133.1963    0.3173 H   0  0  0  0  0  0  0  0  0  0  0  0
   18.6633  135.3738    3.2671 H   0  0  0  0  0  0  0  0  0  0  0  0
   19.8302  131.3725    2.7288 H   0  0  0  0  0  0  0  0  0  0  0  0
  1  2  1  0
  1  3  1  0
  1  4  2  0
  2  5  1  0
  2  6  2  0
  3  7  2  0
  3  8  1  0
  4  9  1  0
  5 10  1  0
  5 11  1  0
  6 12  1  0
  7 13  1  0
  8 12  2  0
  9 13  2  0
  9 14  1  0
 10 15  1  0
 10 16  2  0
 11 17  1  0
 14 18  1  0
 15 17  1  0
 15 19  1  0
 18 20  1  0
 18 21  1  0
 19 22  1  0
 20 23  1  0
 20 24  1  0
 21 25  1  0
 22 26  1  0
 23 27  1  0
 24 28  3  0
 25 27  2  0
 25 29  1  0
 26 30  1  0
 29 31  1  0
 30 31  1  0
 30 32  2  0
 31 33  1  0
 32 34  1  0
 33 34  2  0
  4 35  1  0
  6 36  1  0
  7 37  1  0
  8 38  1  0
 11 39  1  0
 11 40  1  0
 12 41  1  0
 13 42  1  0
 15 43  1  0
 17 44  1  0
 17 45  1  0
 18 46  1  0
 19 47  1  0
 20 48  1  0
 21 49  1  0
 21 50  1  0
 22 51  1  0
 22 52  1  0
 23 53  1  0
 23 54  1  0
 26 55  1  0
 26 56  1  0
 27 57  1  0
 29 58  1  0
 29 59  1  0
 32 60  1  0
 33 61  1  0
A    1
C
A    2
C1
A    3
C2
A    4
C3
A    5
N
A    6
C4
A    7
C5
A    8
C6
A    9
C7
A   10
C8
A   11
C9
A   12
C10
A   13
C11
A   14
O
A   15
C12
A   16
O13
A   17
C14
A   18
C15
A   19
N16
A   20
C17
A   21
C18
A   22
C19
A   23
C20
A   24
C21
A   25
C22
A   26
C23
A   27
C24
A   28
N25
A   29
C26
A   30
C27
A   31
N28
A   32
C29
A   33
C30
A   34
NZ
M  END
