1LDE_FPI_A_378
     RDKit          3D

 19 19  0  0  0  0  0  0  0  0999 V2000
   19.6100    0.6910   11.2300 N   0  0  0  0  0  0  0  0  0  0  0  0
   20.3710    1.9440   11.4840 C   0  0  0  0  0  0  0  0  0  0  0  0
   19.3840    3.1220   11.9140 C   0  0  0  0  0  0  0  0  0  0  0  0
   18.5700    2.6020   13.2100 C   0  0  0  0  0  0  0  0  0  0  0  0
   17.7770    1.3170   12.8790 C   0  0  0  0  0  0  0  0  0  0  0  0
   18.7750    0.2940   12.3910 C   0  0  0  0  0  0  0  0  0  0  0  0
   19.5990   -0.2420   10.2250 C   0  0  0  0  0  0  0  0  0  0  0  0
   20.4900   -0.1840    9.2640 O   0  0  0  0  0  0  0  0  0  0  0  0
   21.0978    1.7685   12.2908 H   0  0  0  0  0  0  0  0  0  0  0  0
   20.8918    2.2365   10.5603 H   0  0  0  0  0  0  0  0  0  0  0  0
   19.9596    4.0249   12.1659 H   0  0  0  0  0  0  0  0  0  0  0  0
   18.6970    3.3793   11.0944 H   0  0  0  0  0  0  0  0  0  0  0  0
   19.2815    2.3881   14.0212 H   0  0  0  0  0  0  0  0  0  0  0  0
   17.8615    3.3845   13.5195 H   0  0  0  0  0  0  0  0  0  0  0  0
   17.2660    0.9461   13.7798 H   0  0  0  0  0  0  0  0  0  0  0  0
   17.0121    1.5146   12.1135 H   0  0  0  0  0  0  0  0  0  0  0  0
   18.2166   -0.6106   12.1083 H   0  0  0  0  0  0  0  0  0  0  0  0
   19.4796    0.1515   13.2236 H   0  0  0  0  0  0  0  0  0  0  0  0
   18.8420   -1.0401   10.2247 H   0  0  0  0  0  0  0  0  0  0  0  0
  1  2  1  0
  1  6  1  0
  1  7  1  0
  2  3  1  0
  3  4  1  0
  4  5  1  0
  5  6  1  0
  7  8  2  0
  2  9  1  0
  2 10  1  0
  3 11  1  0
  3 12  1  0
  4 13  1  0
  4 14  1  0
  5 15  1  0
  5 16  1  0
  6 17  1  0
  6 18  1  0
  7 19  1  0
A    1
N
A    2
C2
A    3
C3
A    4
C4
A    5
C5
A    6
C6
A    7
C7
A    8
O
M  END
