1LHO_AOM_A_301
     RDKit          3D

 53 56  0  0  0  0  0  0  0  0999 V2000
   23.9090    9.9710   30.8320 C   0  0  0  0  0  0  0  0  0  0  0  0
   23.3110   10.6280   32.1130 C   0  0  0  0  0  0  0  0  0  0  0  0
   21.2280    9.0200   32.0830 C   0  0  0  0  0  0  0  0  0  0  0  0
   19.6640    8.9240   32.0890 C   0  0  0  0  0  0  0  0  0  0  0  0
   19.0480    9.6620   33.2930 C   0  0  0  0  0  0  0  0  0  0  0  0
   19.5520   11.1410   33.3070 C   0  0  0  0  0  0  0  0  0  0  0  0
   18.6810   11.8100   34.4110 C   0  0  0  0  0  0  0  0  0  0  0  0
   17.3040   11.0230   34.2930 C   0  0  0  0  0  0  0  0  0  0  0  0
   17.5510    9.9770   33.1870 C   0  0  0  0  0  0  0  0  0  0  0  0
   19.3570    8.8690   34.6140 C   0  0  0  0  0  0  0  0  0  0  0  0
   23.8960    9.8600   33.3630 C   0  0  0  0  0  0  0  0  0  0  0  0
   25.4600   10.1710   30.7200 C   0  0  0  0  0  0  0  0  0  0  0  0
   25.7790   11.6910   30.7630 C   0  0  0  0  0  0  0  0  0  0  0  0
   25.2450   12.3640   32.0570 C   0  0  0  0  0  0  0  0  0  0  0  0
   23.7100   12.1830   32.1350 C   0  0  0  0  0  0  0  0  0  0  0  0
   23.1250   12.8590   33.4040 C   0  0  0  0  0  0  0  0  0  0  0  0
   21.5880   12.7150   33.4100 C   0  0  0  0  0  0  0  0  0  0  0  0
   21.1030   11.2410   33.3810 C   0  0  0  0  0  0  0  0  0  0  0  0
   21.7310   10.5040   32.1260 C   0  0  0  0  0  0  0  0  0  0  0  0
   27.2040   11.8800   30.6560 O   0  0  0  0  0  0  0  0  0  0  0  0
   16.7000    8.8370   33.4000 O   0  0  0  0  0  0  0  0  0  0  0  0
   23.6936    8.8926   30.8558 H   0  0  0  0  0  0  0  0  0  0  0  0
   23.4464   10.4579   29.9608 H   0  0  0  0  0  0  0  0  0  0  0  0
   21.6188    8.4880   32.9629 H   0  0  0  0  0  0  0  0  0  0  0  0
   21.5902    8.5679   31.1479 H   0  0  0  0  0  0  0  0  0  0  0  0
   19.2767    9.3711   31.1616 H   0  0  0  0  0  0  0  0  0  0  0  0
   19.3878    7.8618   32.1624 H   0  0  0  0  0  0  0  0  0  0  0  0
   19.4086   11.7059   32.3741 H   0  0  0  0  0  0  0  0  0  0  0  0
   19.1303   11.6766   35.4061 H   0  0  0  0  0  0  0  0  0  0  0  0
   18.5749   12.8976   34.2846 H   0  0  0  0  0  0  0  0  0  0  0  0
   17.0544   10.5311   35.2447 H   0  0  0  0  0  0  0  0  0  0  0  0
   16.4604   11.6887   34.0584 H   0  0  0  0  0  0  0  0  0  0  0  0
   17.3072   10.3242   32.1721 H   0  0  0  0  0  0  0  0  0  0  0  0
   19.1126    9.4963   35.4839 H   0  0  0  0  0  0  0  0  0  0  0  0
   18.7505    7.9517   34.6414 H   0  0  0  0  0  0  0  0  0  0  0  0
   20.4242    8.6039   34.6414 H   0  0  0  0  0  0  0  0  0  0  0  0
   23.5345   10.3346   34.2871 H   0  0  0  0  0  0  0  0  0  0  0  0
   23.5660    8.8110   33.3362 H   0  0  0  0  0  0  0  0  0  0  0  0
   24.9950    9.8995   33.3362 H   0  0  0  0  0  0  0  0  0  0  0  0
   25.9585    9.6657   31.5603 H   0  0  0  0  0  0  0  0  0  0  0  0
   25.8225    9.7420   29.7742 H   0  0  0  0  0  0  0  0  0  0  0  0
   25.2692   12.1712   29.9147 H   0  0  0  0  0  0  0  0  0  0  0  0
   25.7147   11.8960   32.9347 H   0  0  0  0  0  0  0  0  0  0  0  0
   25.4880   13.4367   32.0403 H   0  0  0  0  0  0  0  0  0  0  0  0
   23.2791   12.6723   31.2491 H   0  0  0  0  0  0  0  0  0  0  0  0
   23.5408   12.3755   34.3003 H   0  0  0  0  0  0  0  0  0  0  0  0
   23.3904   13.9265   33.4027 H   0  0  0  0  0  0  0  0  0  0  0  0
   21.1974   13.1920   34.3210 H   0  0  0  0  0  0  0  0  0  0  0  0
   21.2149   13.1959   32.4937 H   0  0  0  0  0  0  0  0  0  0  0  0
   21.4311   10.7622   34.3154 H   0  0  0  0  0  0  0  0  0  0  0  0
   21.3896   10.9963   31.2035 H   0  0  0  0  0  0  0  0  0  0  0  0
   27.5989   11.9324   31.5623 H   0  0  0  0  0  0  0  0  0  0  0  0
   16.5875    8.6862   34.3720 H   0  0  0  0  0  0  0  0  0  0  0  0
  1  2  1  0
  1 12  1  0
  2 11  1  0
  2 15  1  0
  2 19  1  0
  3  4  1  0
  3 19  1  0
  4  5  1  0
  5  6  1  0
  5  9  1  0
  5 10  1  0
  6  7  1  0
  6 18  1  0
  7  8  1  0
  8  9  1  0
  9 21  1  0
 12 13  1  0
 13 14  1  0
 13 20  1  0
 14 15  1  0
 15 16  1  0
 16 17  1  0
 17 18  1  0
 18 19  1  0
  1 22  1  0
  1 23  1  0
  3 24  1  0
  3 25  1  0
  4 26  1  0
  4 27  1  0
  6 28  1  0
  7 29  1  0
  7 30  1  0
  8 31  1  0
  8 32  1  0
  9 33  1  0
 10 34  1  0
 10 35  1  0
 10 36  1  0
 11 37  1  0
 11 38  1  0
 11 39  1  0
 12 40  1  0
 12 41  1  0
 13 42  1  0
 14 43  1  0
 14 44  1  0
 15 45  1  0
 16 46  1  0
 16 47  1  0
 17 48  1  0
 17 49  1  0
 18 50  1  0
 19 51  1  0
 20 52  1  0
 21 53  1  0
A    1
C1
A    2
C10
A    3
C11
A    4
C12
A    5
C13
A    6
C14
A    7
C15
A    8
C16
A    9
C17
A   10
C18
A   11
C19
A   12
C2
A   13
C3
A   14
C4
A   15
C5
A   16
C6
A   17
C7
A   18
C8
A   19
C9
A   20
O3
A   21
O17
M  END
