1LHW_ESM_A_301
     RDKit          3D

 48 51  0  0  0  0  0  0  0  0999 V2000
   20.5540    9.0130   33.4050 C   0  0  0  0  0  0  0  0  0  0  0  0
   20.9210   10.3670   33.4410 C   0  0  0  0  0  0  0  0  0  0  0  0
   23.1460    9.8710   32.3250 C   0  0  0  0  0  0  0  0  0  0  0  0
   24.5870   10.3250   32.1460 C   0  0  0  0  0  0  0  0  0  0  0  0
   24.7000   11.7870   31.6690 C   0  0  0  0  0  0  0  0  0  0  0  0
   23.9390   12.6610   32.6610 C   0  0  0  0  0  0  0  0  0  0  0  0
   24.3180   14.0970   32.2300 C   0  0  0  0  0  0  0  0  0  0  0  0
   25.7490   13.9280   31.6970 C   0  0  0  0  0  0  0  0  0  0  0  0
   26.0630   12.4400   31.7880 C   0  0  0  0  0  0  0  0  0  0  0  0
   24.1420   11.8940   30.2190 C   0  0  0  0  0  0  0  0  0  0  0  0
   19.2630    8.5960   33.5510 C   0  0  0  0  0  0  0  0  0  0  0  0
   18.2560    9.5210   33.7390 C   0  0  0  0  0  0  0  0  0  0  0  0
   18.5920   10.8680   33.7950 C   0  0  0  0  0  0  0  0  0  0  0  0
   19.8940   11.3040   33.6540 C   0  0  0  0  0  0  0  0  0  0  0  0
   20.1630   12.8100   33.7270 C   0  0  0  0  0  0  0  0  0  0  0  0
   21.6490   13.1860   33.7010 C   0  0  0  0  0  0  0  0  0  0  0  0
   22.4460   12.2860   32.7540 C   0  0  0  0  0  0  0  0  0  0  0  0
   22.3650   10.7990   33.2610 C   0  0  0  0  0  0  0  0  0  0  0  0
   26.9810   12.0830   30.7200 O   0  0  0  0  0  0  0  0  0  0  0  0
   16.9710    9.0850   33.8630 O   0  0  0  0  0  0  0  0  0  0  0  0
   18.8040    7.2760   33.5290 O   0  0  0  0  0  0  0  0  0  0  0  0
   19.7890    6.2700   33.3550 C   0  0  0  0  0  0  0  0  0  0  0  0
   21.3387    8.2573   33.2529 H   0  0  0  0  0  0  0  0  0  0  0  0
   22.6522    9.8601   31.3421 H   0  0  0  0  0  0  0  0  0  0  0  0
   23.1589    8.8670   32.7743 H   0  0  0  0  0  0  0  0  0  0  0  0
   25.1077   10.2290   33.1102 H   0  0  0  0  0  0  0  0  0  0  0  0
   25.0400    9.6888   31.3714 H   0  0  0  0  0  0  0  0  0  0  0  0
   24.2117   12.5242   33.7178 H   0  0  0  0  0  0  0  0  0  0  0  0
   23.6433   14.4652   31.4431 H   0  0  0  0  0  0  0  0  0  0  0  0
   24.2419   14.8303   33.0464 H   0  0  0  0  0  0  0  0  0  0  0  0
   25.8095   14.2674   30.6524 H   0  0  0  0  0  0  0  0  0  0  0  0
   26.4666   14.5256   32.2783 H   0  0  0  0  0  0  0  0  0  0  0  0
   26.5647   12.1217   32.7137 H   0  0  0  0  0  0  0  0  0  0  0  0
   23.0623   12.1010   30.2560 H   0  0  0  0  0  0  0  0  0  0  0  0
   24.6539   12.7103   29.6884 H   0  0  0  0  0  0  0  0  0  0  0  0
   24.3156   10.9462   29.6884 H   0  0  0  0  0  0  0  0  0  0  0  0
   17.7960   11.6097   33.9567 H   0  0  0  0  0  0  0  0  0  0  0  0
   19.6708   13.2902   32.8684 H   0  0  0  0  0  0  0  0  0  0  0  0
   19.7670   13.1549   34.6936 H   0  0  0  0  0  0  0  0  0  0  0  0
   21.7465   14.2295   33.3669 H   0  0  0  0  0  0  0  0  0  0  0  0
   22.0524   13.0568   34.7162 H   0  0  0  0  0  0  0  0  0  0  0  0
   21.9982   12.4149   31.7576 H   0  0  0  0  0  0  0  0  0  0  0  0
   22.8391   10.7322   34.2513 H   0  0  0  0  0  0  0  0  0  0  0  0
   27.8290   11.7532   31.1102 H   0  0  0  0  0  0  0  0  0  0  0  0
   16.5781    8.9517   34.7619 H   0  0  0  0  0  0  0  0  0  0  0  0
   20.1326    5.9191   34.3393 H   0  0  0  0  0  0  0  0  0  0  0  0
   19.3573    5.4271   32.7954 H   0  0  0  0  0  0  0  0  0  0  0  0
   20.6408    6.6838   32.7954 H   0  0  0  0  0  0  0  0  0  0  0  0
  1  2  2  0
  1 11  1  0
  2 14  1  0
  2 18  1  0
  3  4  1  0
  3 18  1  0
  4  5  1  0
  5  6  1  0
  5  9  1  0
  5 10  1  0
  6  7  1  0
  6 17  1  0
  7  8  1  0
  8  9  1  0
  9 19  1  0
 11 12  2  0
 11 21  1  0
 12 13  1  0
 12 20  1  0
 13 14  2  0
 14 15  1  0
 15 16  1  0
 16 17  1  0
 17 18  1  0
 21 22  1  0
  1 23  1  0
  3 24  1  0
  3 25  1  0
  4 26  1  0
  4 27  1  0
  6 28  1  0
  7 29  1  0
  7 30  1  0
  8 31  1  0
  8 32  1  0
  9 33  1  0
 10 34  1  0
 10 35  1  0
 10 36  1  0
 13 37  1  0
 15 38  1  0
 15 39  1  0
 16 40  1  0
 16 41  1  0
 17 42  1  0
 18 43  1  0
 19 44  1  0
 20 45  1  0
 22 46  1  0
 22 47  1  0
 22 48  1  0
A    1
C1
A    2
C10
A    3
C11
A    4
C12
A    5
C13
A    6
C14
A    7
C15
A    8
C16
A    9
C17
A   10
C18
A   11
C2
A   12
C3
A   13
C4
A   14
C5
A   15
C6
A   16
C7
A   17
C8
A   18
C9
A   19
O17
A   20
O3
A   21
O2
A   22
C19
M  END
