1EXW_HDS_A_430
     RDKit          3D

 53 52  0  0  0  0  0  0  0  0999 V2000
   42.9280    9.5870   58.8790 C   0  0  0  0  0  0  0  0  0  0  0  0
   42.4020    8.1950   58.9090 C   0  0  0  0  0  0  0  0  0  0  0  0
   43.3180    7.4860   59.9130 C   0  0  0  0  0  0  0  0  0  0  0  0
   42.9660    5.9840   60.0950 C   0  0  0  0  0  0  0  0  0  0  0  0
   41.6680    5.9380   60.9320 C   0  0  0  0  0  0  0  0  0  0  0  0
   40.5870    5.1780   60.2490 C   0  0  0  0  0  0  0  0  0  0  0  0
   40.3280    3.8060   60.9430 C   0  0  0  0  0  0  0  0  0  0  0  0
   39.2100    3.1460   60.1060 C   0  0  0  0  0  0  0  0  0  0  0  0
   38.6800    1.8610   60.8410 C   0  0  0  0  0  0  0  0  0  0  0  0
   37.6330    1.2890   59.9530 C   0  0  0  0  0  0  0  0  0  0  0  0
   38.0770    0.3380   58.8450 C   0  0  0  0  0  0  0  0  0  0  0  0
   36.7940   -0.0060   58.1900 C   0  0  0  0  0  0  0  0  0  0  0  0
   36.3680   -1.4740   58.1560 C   0  0  0  0  0  0  0  0  0  0  0  0
   34.9320   -1.5630   57.7120 C   0  0  0  0  0  0  0  0  0  0  0  0
   34.4130   -3.0320   57.6580 C   0  0  0  0  0  0  0  0  0  0  0  0
   32.9770   -2.9910   57.7820 C   0  0  0  0  0  0  0  0  0  0  0  0
   42.4510   10.9840   59.0130 S   0  0  0  0  0  0  0  0  0  0  0  0
   41.3870   11.3750   57.7520 O   0  0  0  0  0  0  0  0  0  0  0  0
   41.4500   11.5150   60.4350 O   0  0  0  0  0  0  0  0  0  0  0  0
   43.6994    9.5447   59.6621 H   0  0  0  0  0  0  0  0  0  0  0  0
   42.8932    9.6287   57.7803 H   0  0  0  0  0  0  0  0  0  0  0  0
   41.3565    8.1773   59.2505 H   0  0  0  0  0  0  0  0  0  0  0  0
   42.4014    7.7165   57.9185 H   0  0  0  0  0  0  0  0  0  0  0  0
   44.3558    7.5628   59.5565 H   0  0  0  0  0  0  0  0  0  0  0  0
   43.1831    7.9775   60.8878 H   0  0  0  0  0  0  0  0  0  0  0  0
   42.8041    5.5099   59.1157 H   0  0  0  0  0  0  0  0  0  0  0  0
   43.7819    5.4411   60.5946 H   0  0  0  0  0  0  0  0  0  0  0  0
   41.8852    5.4560   61.8966 H   0  0  0  0  0  0  0  0  0  0  0  0
   41.3186    6.9717   61.0713 H   0  0  0  0  0  0  0  0  0  0  0  0
   39.6614    5.7719   60.2743 H   0  0  0  0  0  0  0  0  0  0  0  0
   40.9010    4.9869   59.2122 H   0  0  0  0  0  0  0  0  0  0  0  0
   41.2377    3.1876   60.9309 H   0  0  0  0  0  0  0  0  0  0  0  0
   40.0430    3.9218   61.9991 H   0  0  0  0  0  0  0  0  0  0  0  0
   38.3826    3.8591   59.9755 H   0  0  0  0  0  0  0  0  0  0  0  0
   39.6133    2.8610   59.1231 H   0  0  0  0  0  0  0  0  0  0  0  0
   39.4965    1.1382   60.9854 H   0  0  0  0  0  0  0  0  0  0  0  0
   38.2794    2.1006   61.8370 H   0  0  0  0  0  0  0  0  0  0  0  0
   36.9259    0.7398   60.5921 H   0  0  0  0  0  0  0  0  0  0  0  0
   37.2184    2.1578   59.4207 H   0  0  0  0  0  0  0  0  0  0  0  0
   38.7614    0.8366   58.1429 H   0  0  0  0  0  0  0  0  0  0  0  0
   38.6320   -0.5376   59.2128 H   0  0  0  0  0  0  0  0  0  0  0  0
   36.0021    0.5508   58.7124 H   0  0  0  0  0  0  0  0  0  0  0  0
   36.9502    0.2558   57.1331 H   0  0  0  0  0  0  0  0  0  0  0  0
   37.0061   -2.0260   57.4502 H   0  0  0  0  0  0  0  0  0  0  0  0
   36.4722   -1.9122   59.1595 H   0  0  0  0  0  0  0  0  0  0  0  0
   34.3087   -0.9945   58.4180 H   0  0  0  0  0  0  0  0  0  0  0  0
   34.8709   -1.1496   56.6945 H   0  0  0  0  0  0  0  0  0  0  0  0
   34.6939   -3.4942   56.7002 H   0  0  0  0  0  0  0  0  0  0  0  0
   34.8544   -3.6281   58.4703 H   0  0  0  0  0  0  0  0  0  0  0  0
   32.7010   -2.9831   58.8468 H   0  0  0  0  0  0  0  0  0  0  0  0
   32.5929   -2.0815   57.2969 H   0  0  0  0  0  0  0  0  0  0  0  0
   32.5416   -3.8771   57.2969 H   0  0  0  0  0  0  0  0  0  0  0  0
   43.6793   11.5863   59.0876 H   0  0  0  0  0  0  0  0  0  0  0  0
  1  2  1  0
  1 17  1  0
  2  3  1  0
  3  4  1  0
  4  5  1  0
  5  6  1  0
  6  7  1  0
  7  8  1  0
  8  9  1  0
  9 10  1  0
 10 11  1  0
 11 12  1  0
 12 13  1  0
 13 14  1  0
 14 15  1  0
 15 16  1  0
 17 18  2  0
 17 19  2  0
  1 20  1  0
  1 21  1  0
  2 22  1  0
  2 23  1  0
  3 24  1  0
  3 25  1  0
  4 26  1  0
  4 27  1  0
  5 28  1  0
  5 29  1  0
  6 30  1  0
  6 31  1  0
  7 32  1  0
  7 33  1  0
  8 34  1  0
  8 35  1  0
  9 36  1  0
  9 37  1  0
 10 38  1  0
 10 39  1  0
 11 40  1  0
 11 41  1  0
 12 42  1  0
 12 43  1  0
 13 44  1  0
 13 45  1  0
 14 46  1  0
 14 47  1  0
 15 48  1  0
 15 49  1  0
 16 50  1  0
 16 51  1  0
 16 52  1  0
 17 53  1  0
A    1
C1
A    2
C2
A    3
C3
A    4
C4
A    5
C5
A    6
C6
A    7
C7
A    8
C8
A    9
C9
A   10
C10
A   11
C11
A   12
C12
A   13
C13
A   14
C14
A   15
C15
A   16
C16
A   17
S1
A   18
O1S
A   19
O2S
M  END
