1LK7_DER_A_1001
     RDKit          3D

 22 21  0  0  0  0  0  0  0  0999 V2000
   15.3090   10.5100   90.6770 O   0  0  0  0  0  0  0  0  0  0  0  0
   16.3410   11.1430   90.9290 C   0  0  0  0  0  0  0  0  0  0  0  0
   16.2950   12.1710   91.6100 O   0  0  0  0  0  0  0  0  0  0  0  0
   17.6640   10.6730   90.3750 C   0  0  0  0  0  0  0  0  0  0  0  0
   18.6940   10.6620   91.3580 O   0  0  0  0  0  0  0  0  0  0  0  0
   18.0260   11.6680   89.2820 C   0  0  0  0  0  0  0  0  0  0  0  0
   18.1360   12.9290   89.9020 O   0  0  0  0  0  0  0  0  0  0  0  0
   19.3310   11.3190   88.5940 C   0  0  0  0  0  0  0  0  0  0  0  0
   19.2900    9.9640   88.1220 O   0  0  0  0  0  0  0  0  0  0  0  0
   20.4240    9.5400   87.0690 P   0  0  0  0  0  0  0  0  0  0  0  0
   19.9600    8.3440   86.2910 O   0  0  0  0  0  0  0  0  0  0  0  0
   21.6430    9.2950   87.9200 O   0  0  0  0  0  0  0  0  0  0  0  0
   20.5230   10.7050   86.1190 O   0  0  0  0  0  0  0  0  0  0  0  0
   14.7470   10.1653   91.4155 H   0  0  0  0  0  0  0  0  0  0  0  0
   17.5725    9.6397   90.0090 H   0  0  0  0  0  0  0  0  0  0  0  0
   18.2884   10.6663   92.2611 H   0  0  0  0  0  0  0  0  0  0  0  0
   17.2501   11.6563   88.5024 H   0  0  0  0  0  0  0  0  0  0  0  0
   18.1261   12.8152   90.8854 H   0  0  0  0  0  0  0  0  0  0  0  0
   19.4863   11.9971   87.7419 H   0  0  0  0  0  0  0  0  0  0  0  0
   20.1576   11.4265   89.3117 H   0  0  0  0  0  0  0  0  0  0  0  0
   21.3931    9.3452   88.8766 H   0  0  0  0  0  0  0  0  0  0  0  0
   20.5945   11.5467   86.6353 H   0  0  0  0  0  0  0  0  0  0  0  0
  1  2  1  0
  2  3  2  0
  2  4  1  0
  4  5  1  0
  4  6  1  0
  6  7  1  0
  6  8  1  0
  8  9  1  0
  9 10  1  0
 10 11  2  0
 10 12  1  0
 10 13  1  0
  1 14  1  0
  4 15  1  0
  5 16  1  0
  6 17  1  0
  7 18  1  0
  8 19  1  0
  8 20  1  0
 12 21  1  0
 13 22  1  0
A    1
OH2
A    2
C1
A    3
OH1
A    4
C2
A    5
O2
A    6
C3
A    7
O3
A    8
C4
A    9
O4
A   10
P
A   11
O1P
A   12
O2P
A   13
O3P
M  END
