1BXH_MMA_A_242
     RDKit          3D

 27 27  0  0  0  0  0  0  0  0999 V2000
   50.3780   47.8170    5.9530 C   0  0  0  0  0  0  0  0  0  0  0  0
   50.7450   49.0760    6.7350 C   0  0  0  0  0  0  0  0  0  0  0  0
   52.2530   49.1360    6.9480 C   0  0  0  0  0  0  0  0  0  0  0  0
   52.7120   47.8540    7.6540 C   0  0  0  0  0  0  0  0  0  0  0  0
   52.2810   46.6310    6.8530 C   0  0  0  0  0  0  0  0  0  0  0  0
   52.6000   45.3420    7.5830 C   0  0  0  0  0  0  0  0  0  0  0  0
   49.9860   47.3750    3.7220 C   0  0  0  0  0  0  0  0  0  0  0  0
   50.9420   47.8540    4.6900 O   0  0  0  0  0  0  0  0  0  0  0  0
   50.0930   49.0410    8.0190 O   0  0  0  0  0  0  0  0  0  0  0  0
   52.5610   50.2690    7.7520 O   0  0  0  0  0  0  0  0  0  0  0  0
   54.1230   47.8530    7.7910 O   0  0  0  0  0  0  0  0  0  0  0  0
   50.8510   46.6460    6.6380 O   0  0  0  0  0  0  0  0  0  0  0  0
   52.2110   44.2090    6.8150 O   0  0  0  0  0  0  0  0  0  0  0  0
   49.2821   47.7763    5.8676 H   0  0  0  0  0  0  0  0  0  0  0  0
   50.4210   49.9610    6.1677 H   0  0  0  0  0  0  0  0  0  0  0  0
   52.7703   49.2222    5.9810 H   0  0  0  0  0  0  0  0  0  0  0  0
   52.2486   47.8173    8.6510 H   0  0  0  0  0  0  0  0  0  0  0  0
   52.8304   46.6730    5.9010 H   0  0  0  0  0  0  0  0  0  0  0  0
   53.6827   45.2941    7.7711 H   0  0  0  0  0  0  0  0  0  0  0  0
   52.0422   45.3299    8.5310 H   0  0  0  0  0  0  0  0  0  0  0  0
   49.1207   46.9414    4.2448 H   0  0  0  0  0  0  0  0  0  0  0  0
   49.6518   48.2121    3.0915 H   0  0  0  0  0  0  0  0  0  0  0  0
   50.4564   46.6061    3.0915 H   0  0  0  0  0  0  0  0  0  0  0  0
   50.7744   49.0776    8.7362 H   0  0  0  0  0  0  0  0  0  0  0  0
   52.4941   50.0229    8.7086 H   0  0  0  0  0  0  0  0  0  0  0  0
   54.3612   47.8528    8.7519 H   0  0  0  0  0  0  0  0  0  0  0  0
   51.9572   43.4698    7.4227 H   0  0  0  0  0  0  0  0  0  0  0  0
  1  2  1  0
  1  8  1  0
  1 12  1  0
  2  3  1  0
  2  9  1  0
  3  4  1  0
  3 10  1  0
  4  5  1  0
  4 11  1  0
  5  6  1  0
  5 12  1  0
  6 13  1  0
  7  8  1  0
  1 14  1  0
  2 15  1  0
  3 16  1  0
  4 17  1  0
  5 18  1  0
  6 19  1  0
  6 20  1  0
  7 21  1  0
  7 22  1  0
  7 23  1  0
  9 24  1  0
 10 25  1  0
 11 26  1  0
 13 27  1  0
A    1
C1
A    2
C2
A    3
C3
A    4
C4
A    5
C5
A    6
C6
A    7
C7
A    8
O1
A    9
O2
A   10
O3
A   11
O4
A   12
O5
A   13
O6
M  END
