1LPZ_CMB_B_301
     RDKit          3D

 54 57  0  0  0  0  0  0  0  0999 V2000
    3.9020    9.7100   25.8190 C   0  0  0  0  0  0  0  0  0  0  0  0
    5.0190    8.9440   25.4540 C   0  0  0  0  0  0  0  0  0  0  0  0
    5.3240    8.7110   24.0820 C   0  0  0  0  0  0  0  0  0  0  0  0
    4.5650    9.2430   23.0410 C   0  0  0  0  0  0  0  0  0  0  0  0
    3.4020   10.0360   23.4190 C   0  0  0  0  0  0  0  0  0  0  0  0
    3.0890   10.2410   24.7900 C   0  0  0  0  0  0  0  0  0  0  0  0
    6.3100    7.8910   23.5500 N   0  0  0  0  0  0  0  0  0  0  0  0
    6.1790    7.9630   22.1710 C   0  0  0  0  0  0  0  0  0  0  0  0
    5.1020    8.8590   21.7940 C   0  0  0  0  0  0  0  0  0  0  0  0
    2.5560   10.6660   22.3880 C   0  0  0  0  0  0  0  0  0  0  0  0
    6.9710    7.2330   21.2470 C   0  0  0  0  0  0  0  0  0  0  0  0
    6.4300    6.9100   20.0470 N   0  0  0  0  0  0  0  0  0  0  0  0
    7.2180    6.1500   19.0760 C   0  0  0  0  0  0  0  0  0  0  0  0
    7.5250    4.6930   19.4150 C   0  0  0  0  0  0  0  0  0  0  0  0
    7.1730    7.0070   24.3450 C   0  0  0  0  0  0  0  0  0  0  0  0
    8.4660    7.6430   24.7880 C   0  0  0  0  0  0  0  0  0  0  0  0
    9.1520    8.6530   24.0800 C   0  0  0  0  0  0  0  0  0  0  0  0
   10.4430    9.0430   24.4850 C   0  0  0  0  0  0  0  0  0  0  0  0
   11.0080    8.4270   25.6190 C   0  0  0  0  0  0  0  0  0  0  0  0
   10.2730    7.4690   26.3560 C   0  0  0  0  0  0  0  0  0  0  0  0
    9.0090    7.0820   25.9340 C   0  0  0  0  0  0  0  0  0  0  0  0
    8.4830    3.9960   18.6620 C   0  0  0  0  0  0  0  0  0  0  0  0
    8.7180    2.6240   18.8490 C   0  0  0  0  0  0  0  0  0  0  0  0
    7.9850    1.9400   19.8330 C   0  0  0  0  0  0  0  0  0  0  0  0
    7.0210    2.6140   20.6080 C   0  0  0  0  0  0  0  0  0  0  0  0
    6.8080    3.9930   20.3970 C   0  0  0  0  0  0  0  0  0  0  0  0
   10.7420    6.8550   27.5860 C   0  0  0  0  0  0  0  0  0  0  0  0
   12.0200    6.8870   27.9700 N   0  0  0  0  0  0  0  0  0  0  0  0
    9.8430    1.7730   17.8020 Cl  0  0  0  0  0  0  0  0  0  0  0  0
    6.0320    1.7510   21.7850 Cl  0  0  0  0  0  0  0  0  0  0  0  0
    8.1180    6.8820   21.5360 O   0  0  0  0  0  0  0  0  0  0  0  0
    9.8220    6.2060   28.2890 N   0  0  0  0  0  0  0  0  0  0  0  0
    3.6644    9.8930   26.8773 H   0  0  0  0  0  0  0  0  0  0  0  0
    5.6662    8.5188   26.2352 H   0  0  0  0  0  0  0  0  0  0  0  0
    2.1957   10.8249   25.0568 H   0  0  0  0  0  0  0  0  0  0  0  0
    4.7832    9.1634   20.7862 H   0  0  0  0  0  0  0  0  0  0  0  0
    1.7643   11.2556   22.8734 H   0  0  0  0  0  0  0  0  0  0  0  0
    3.1728   11.3265   21.7609 H   0  0  0  0  0  0  0  0  0  0  0  0
    2.1000    9.8858   21.7609 H   0  0  0  0  0  0  0  0  0  0  0  0
    5.4678    7.1984   19.8194 H   0  0  0  0  0  0  0  0  0  0  0  0
    6.6681    6.1595   18.1234 H   0  0  0  0  0  0  0  0  0  0  0  0
    8.1982    6.6488   19.0532 H   0  0  0  0  0  0  0  0  0  0  0  0
    6.6164    6.6960   25.2413 H   0  0  0  0  0  0  0  0  0  0  0  0
    7.4424    6.1604   23.6964 H   0  0  0  0  0  0  0  0  0  0  0  0
    8.6784    9.1353   23.2122 H   0  0  0  0  0  0  0  0  0  0  0  0
   10.9983    9.8120   23.9280 H   0  0  0  0  0  0  0  0  0  0  0  0
   12.0280    8.6928   25.9336 H   0  0  0  0  0  0  0  0  0  0  0  0
    8.4405    6.3338   26.5058 H   0  0  0  0  0  0  0  0  0  0  0  0
    9.0661    4.5397   17.9041 H   0  0  0  0  0  0  0  0  0  0  0  0
    8.1655    0.8678   19.9999 H   0  0  0  0  0  0  0  0  0  0  0  0
    6.0686    4.5272   21.0118 H   0  0  0  0  0  0  0  0  0  0  0  0
   12.3043    6.4366   28.8516 H   0  0  0  0  0  0  0  0  0  0  0  0
    9.8511    6.2265   29.3184 H   0  0  0  0  0  0  0  0  0  0  0  0
    9.0790    5.6819   27.8051 H   0  0  0  0  0  0  0  0  0  0  0  0
  1  2  2  0
  1  6  1  0
  2  3  1  0
  3  4  2  0
  3  7  1  0
  4  5  1  0
  4  9  1  0
  5  6  2  0
  5 10  1  0
  7  8  1  0
  7 15  1  0
  8  9  2  0
  8 11  1  0
 11 12  1  0
 11 31  2  0
 12 13  1  0
 13 14  1  0
 14 22  2  0
 14 26  1  0
 15 16  1  0
 16 17  2  0
 16 21  1  0
 17 18  1  0
 18 19  2  0
 19 20  1  0
 20 21  2  0
 20 27  1  0
 22 23  1  0
 23 24  2  0
 23 29  1  0
 24 25  1  0
 25 26  2  0
 25 30  1  0
 27 28  2  3
 27 32  1  0
  1 33  1  0
  2 34  1  0
  6 35  1  0
  9 36  1  0
 10 37  1  0
 10 38  1  0
 10 39  1  0
 12 40  1  0
 13 41  1  0
 13 42  1  0
 15 43  1  0
 15 44  1  0
 17 45  1  0
 18 46  1  0
 19 47  1  0
 21 48  1  0
 22 49  1  0
 24 50  1  0
 26 51  1  0
 28 52  1  0
 32 53  1  0
 32 54  1  0
A    1
C1
A    2
C2
A    3
C3
A    4
C4
A    5
C5
A    6
C6
A    7
N7
A    8
C8
A    9
C9
A   10
C10
A   11
C11
A   12
N12
A   13
C13
A   14
C14
A   15
C17
A   16
C18
A   17
C21
A   18
C22
A   19
C23
A   20
C24
A   21
C25
A   22
C26
A   23
C27
A   24
C28
A   25
C29
A   26
C30
A   27
C31
A   28
N32
A   29
CL1
A   30
CL2
A   31
O45
A   32
N53
M  END
