1LQD_CMI_B_301
     RDKit          3D

 60 63  0  0  0  0  0  0  0  0999 V2000
    3.9950    9.8270   26.0300 C   0  0  0  0  0  0  0  0  0  0  0  0
    5.1220    9.0170   25.7360 C   0  0  0  0  0  0  0  0  0  0  0  0
    5.4830    8.7740   24.3940 C   0  0  0  0  0  0  0  0  0  0  0  0
    4.7220    9.3540   23.3370 C   0  0  0  0  0  0  0  0  0  0  0  0
    3.6250   10.1630   23.6360 C   0  0  0  0  0  0  0  0  0  0  0  0
    3.2440   10.3960   24.9770 C   0  0  0  0  0  0  0  0  0  0  0  0
    6.4910    8.0150   23.8430 N   0  0  0  0  0  0  0  0  0  0  0  0
    6.4200    8.0830   22.4790 C   0  0  0  0  0  0  0  0  0  0  0  0
    5.3180    8.9120   22.1370 C   0  0  0  0  0  0  0  0  0  0  0  0
    2.8670   10.8550   22.5810 C   0  0  0  0  0  0  0  0  0  0  0  0
    7.3340    7.4780   21.5790 C   0  0  0  0  0  0  0  0  0  0  0  0
    6.8170    6.8980   20.4730 N   0  0  0  0  0  0  0  0  0  0  0  0
    7.6720    6.1290   19.5650 C   0  0  0  0  0  0  0  0  0  0  0  0
    7.6970    4.6350   19.7800 C   0  0  0  0  0  0  0  0  0  0  0  0
    7.4060    7.1730   24.6290 C   0  0  0  0  0  0  0  0  0  0  0  0
    8.6510    7.8780   25.0410 C   0  0  0  0  0  0  0  0  0  0  0  0
    9.1340    9.0130   24.3640 C   0  0  0  0  0  0  0  0  0  0  0  0
   10.3580    9.5810   24.7100 C   0  0  0  0  0  0  0  0  0  0  0  0
   11.0850    9.0040   25.7540 C   0  0  0  0  0  0  0  0  0  0  0  0
   10.5980    7.8850   26.4720 C   0  0  0  0  0  0  0  0  0  0  0  0
    9.3620    7.3300   26.1050 C   0  0  0  0  0  0  0  0  0  0  0  0
    8.5200    3.8950   18.9260 C   0  0  0  0  0  0  0  0  0  0  0  0
    8.6650    2.5220   19.1280 C   0  0  0  0  0  0  0  0  0  0  0  0
    7.9680    1.8700   20.1460 C   0  0  0  0  0  0  0  0  0  0  0  0
    7.1220    2.5790   20.9880 C   0  0  0  0  0  0  0  0  0  0  0  0
    6.9850    3.9750   20.8130 C   0  0  0  0  0  0  0  0  0  0  0  0
   11.3900    7.2820   27.5660 C   0  0  0  0  0  0  0  0  0  0  0  0
   12.6920    7.5590   27.7040 N   0  0  0  0  0  0  0  0  0  0  0  0
    9.6010    1.7610   18.3000 C   0  0  0  0  0  0  0  0  0  0  0  0
    6.3970    1.8470   22.0430 C   0  0  0  0  0  0  0  0  0  0  0  0
    8.5510    7.5220   21.7870 O   0  0  0  0  0  0  0  0  0  0  0  0
   10.8420    6.4280   28.4260 N   0  0  0  0  0  0  0  0  0  0  0  0
    3.7065   10.0117   27.0753 H   0  0  0  0  0  0  0  0  0  0  0  0
    5.7136    8.5790   26.5534 H   0  0  0  0  0  0  0  0  0  0  0  0
    2.3651   11.0187   25.2003 H   0  0  0  0  0  0  0  0  0  0  0  0
    4.9883    9.1642   21.1183 H   0  0  0  0  0  0  0  0  0  0  0  0
    2.1292   11.5286   23.0414 H   0  0  0  0  0  0  0  0  0  0  0  0
    3.5582   11.4401   21.9566 H   0  0  0  0  0  0  0  0  0  0  0  0
    2.3471   10.1135   21.9566 H   0  0  0  0  0  0  0  0  0  0  0  0
    5.8128    6.9975   20.2666 H   0  0  0  0  0  0  0  0  0  0  0  0
    7.3240    6.3147   18.5382 H   0  0  0  0  0  0  0  0  0  0  0  0
    8.6978    6.4727   19.7640 H   0  0  0  0  0  0  0  0  0  0  0  0
    6.8796    6.8370   25.5345 H   0  0  0  0  0  0  0  0  0  0  0  0
    7.7063    6.3321   23.9866 H   0  0  0  0  0  0  0  0  0  0  0  0
    8.5385    9.4567   23.5525 H   0  0  0  0  0  0  0  0  0  0  0  0
   10.7424   10.4617   24.1746 H   0  0  0  0  0  0  0  0  0  0  0  0
   12.0620    9.4304   26.0256 H   0  0  0  0  0  0  0  0  0  0  0  0
    8.9577    6.4673   26.6548 H   0  0  0  0  0  0  0  0  0  0  0  0
    9.0499    4.3919   18.1000 H   0  0  0  0  0  0  0  0  0  0  0  0
    8.0899    0.7853   20.2825 H   0  0  0  0  0  0  0  0  0  0  0  0
    6.3250    4.5499   21.4793 H   0  0  0  0  0  0  0  0  0  0  0  0
   13.1031    7.6465   28.6444 H   0  0  0  0  0  0  0  0  0  0  0  0
   13.2830    7.6847   26.8699 H   0  0  0  0  0  0  0  0  0  0  0  0
   10.2909    1.2001   18.9476 H   0  0  0  0  0  0  0  0  0  0  0  0
    9.0413    1.0585   17.6650 H   0  0  0  0  0  0  0  0  0  0  0  0
   10.1745    2.4523   17.6650 H   0  0  0  0  0  0  0  0  0  0  0  0
    6.7389    2.1922   23.0299 H   0  0  0  0  0  0  0  0  0  0  0  0
    5.3175    2.0334   21.9430 H   0  0  0  0  0  0  0  0  0  0  0  0
    6.5938    0.7694   21.9430 H   0  0  0  0  0  0  0  0  0  0  0  0
   11.4121    6.0199   29.1805 H   0  0  0  0  0  0  0  0  0  0  0  0
  1  2  2  0
  1  6  1  0
  2  3  1  0
  3  4  2  0
  3  7  1  0
  4  5  1  0
  4  9  1  0
  5  6  2  0
  5 10  1  0
  7  8  1  0
  7 15  1  0
  8  9  2  0
  8 11  1  0
 11 12  1  0
 11 31  2  0
 12 13  1  0
 13 14  1  0
 14 22  2  0
 14 26  1  0
 15 16  1  0
 16 17  2  0
 16 21  1  0
 17 18  1  0
 18 19  2  0
 19 20  1  0
 20 21  2  0
 20 27  1  0
 22 23  1  0
 23 24  2  0
 23 29  1  0
 24 25  1  0
 25 26  2  0
 25 30  1  0
 27 28  1  0
 27 32  2  3
  1 33  1  0
  2 34  1  0
  6 35  1  0
  9 36  1  0
 10 37  1  0
 10 38  1  0
 10 39  1  0
 12 40  1  0
 13 41  1  0
 13 42  1  0
 15 43  1  0
 15 44  1  0
 17 45  1  0
 18 46  1  0
 19 47  1  0
 21 48  1  0
 22 49  1  0
 24 50  1  0
 26 51  1  0
 28 52  1  0
 28 53  1  0
 29 54  1  0
 29 55  1  0
 29 56  1  0
 30 57  1  0
 30 58  1  0
 30 59  1  0
 32 60  1  0
A    1
C1
A    2
C2
A    3
C3
A    4
C4
A    5
C5
A    6
C6
A    7
N7
A    8
C8
A    9
C9
A   10
C10
A   11
C11
A   12
N12
A   13
C13
A   14
C14
A   15
C17
A   16
C18
A   17
C21
A   18
C22
A   19
C23
A   20
C24
A   21
C25
A   22
C26
A   23
C27
A   24
C28
A   25
C29
A   26
C30
A   27
C31
A   28
N32
A   29
C33
A   30
C37
A   31
O45
A   32
N53
M  END
