1LT8_CBH_A_601
     RDKit          3D

 32 31  0  0  0  0  0  0  0  0999 V2000
   25.2290    9.9420   -8.1580 O   0  0  0  0  0  0  0  0  0  0  0  0
   25.3000   11.1010   -7.6910 C   0  0  0  0  0  0  0  0  0  0  0  0
   26.0540   12.0090   -8.1040 O   0  0  0  0  0  0  0  0  0  0  0  0
   24.3630   11.4460   -6.5140 C   0  0  0  0  0  0  0  0  0  0  0  0
   23.3610   10.3820   -6.3490 N   0  0  0  0  0  0  0  0  0  0  0  0
   25.1460   11.6090   -5.2040 C   0  0  0  0  0  0  0  0  0  0  0  0
   26.0490   12.8420   -5.2360 C   0  0  0  0  0  0  0  0  0  0  0  0
   26.8990   13.1910   -3.6470 S   0  0  0  0  0  0  0  0  0  0  0  0
   27.7880   14.6950   -4.1820 C   0  0  0  0  0  0  0  0  0  0  0  0
   28.4570   15.4440   -3.0400 C   0  0  0  0  0  0  0  0  0  0  0  0
   28.8720   16.8390   -3.5000 C   0  0  0  0  0  0  0  0  0  0  0  0
   29.3560   17.6710   -2.3280 C   0  0  0  0  0  0  0  0  0  0  0  0
   29.3990   19.1470   -2.7140 C   0  0  0  0  0  0  0  0  0  0  0  0
   28.3370   19.7910   -2.5930 O   0  0  0  0  0  0  0  0  0  0  0  0
   30.4840   19.5990   -3.1210 O   0  0  0  0  0  0  0  0  0  0  0  0
   25.1814    9.1643   -7.5473 H   0  0  0  0  0  0  0  0  0  0  0  0
   23.8679   12.4008   -6.7447 H   0  0  0  0  0  0  0  0  0  0  0  0
   23.2018   10.2129   -5.3455 H   0  0  0  0  0  0  0  0  0  0  0  0
   22.4775   10.6705   -6.7930 H   0  0  0  0  0  0  0  0  0  0  0  0
   24.4330   11.7106   -4.3726 H   0  0  0  0  0  0  0  0  0  0  0  0
   25.7817   10.7212   -5.0712 H   0  0  0  0  0  0  0  0  0  0  0  0
   26.8146   12.6892   -6.0109 H   0  0  0  0  0  0  0  0  0  0  0  0
   25.3995   13.7051   -5.4442 H   0  0  0  0  0  0  0  0  0  0  0  0
   28.5619   14.4024   -4.9069 H   0  0  0  0  0  0  0  0  0  0  0  0
   27.0409   15.3735   -4.6196 H   0  0  0  0  0  0  0  0  0  0  0  0
   27.7519   15.5325   -2.2004 H   0  0  0  0  0  0  0  0  0  0  0  0
   29.3515   14.8892   -2.7205 H   0  0  0  0  0  0  0  0  0  0  0  0
   29.6830   16.7490   -4.2377 H   0  0  0  0  0  0  0  0  0  0  0  0
   27.9995   17.3363   -3.9488 H   0  0  0  0  0  0  0  0  0  0  0  0
   28.6697   17.5370   -1.4788 H   0  0  0  0  0  0  0  0  0  0  0  0
   30.3677   17.3429   -2.0474 H   0  0  0  0  0  0  0  0  0  0  0  0
   31.1747   19.8868   -2.4728 H   0  0  0  0  0  0  0  0  0  0  0  0
  1  2  1  0
  2  3  2  0
  2  4  1  0
  4  5  1  0
  4  6  1  0
  6  7  1  0
  7  8  1  0
  8  9  1  0
  9 10  1  0
 10 11  1  0
 11 12  1  0
 12 13  1  0
 13 14  2  0
 13 15  1  0
  1 16  1  0
  4 17  1  0
  5 18  1  0
  5 19  1  0
  6 20  1  0
  6 21  1  0
  7 22  1  0
  7 23  1  0
  9 24  1  0
  9 25  1  0
 10 26  1  0
 10 27  1  0
 11 28  1  0
 11 29  1  0
 12 30  1  0
 12 31  1  0
 15 32  1  0
A    1
O11
A    2
C12
A    3
O13
A    4
C14
A    5
N15
A    6
C16
A    7
C17
A    8
S18
A    9
C19
A   10
C20
A   11
C21
A   12
C22
A   13
C23
A   14
O25
A   15
O24
M  END
