1AVD_BTN_A_400
     RDKit          3D

 32 33  0  0  0  0  0  0  0  0999 V2000
   33.3470    7.5510   14.5800 C   0  0  0  0  0  0  0  0  0  0  0  0
   32.4630    6.7800   14.3090 O   0  0  0  0  0  0  0  0  0  0  0  0
   34.6310    7.3580   14.2570 O   0  0  0  0  0  0  0  0  0  0  0  0
   33.0640    8.8120   15.3570 C   0  0  0  0  0  0  0  0  0  0  0  0
   34.3370    9.2700   16.1400 C   0  0  0  0  0  0  0  0  0  0  0  0
   34.1000   10.3970   17.1550 C   0  0  0  0  0  0  0  0  0  0  0  0
   35.4080   11.0180   17.7030 C   0  0  0  0  0  0  0  0  0  0  0  0
   36.0120   10.2850   18.9330 C   0  0  0  0  0  0  0  0  0  0  0  0
   35.0490   10.3590   20.4690 S   0  0  0  0  0  0  0  0  0  0  0  0
   36.5110    9.7330   21.3280 C   0  0  0  0  0  0  0  0  0  0  0  0
   37.5950   10.6450   20.7660 C   0  0  0  0  0  0  0  0  0  0  0  0
   37.4320   11.9640   21.3400 N   0  0  0  0  0  0  0  0  0  0  0  0
   37.0050   12.8970   20.5100 C   0  0  0  0  0  0  0  0  0  0  0  0
   36.7480   14.0660   20.8030 O   0  0  0  0  0  0  0  0  0  0  0  0
   36.9170   12.3440   19.2800 N   0  0  0  0  0  0  0  0  0  0  0  0
   37.3380   10.9370   19.2710 C   0  0  0  0  0  0  0  0  0  0  0  0
   35.3107    7.2558   14.9695 H   0  0  0  0  0  0  0  0  0  0  0  0
   32.7626    9.6072   14.6592 H   0  0  0  0  0  0  0  0  0  0  0  0
   32.2563    8.6127   16.0766 H   0  0  0  0  0  0  0  0  0  0  0  0
   34.7363    8.4001   16.6821 H   0  0  0  0  0  0  0  0  0  0  0  0
   35.0333    9.6719   15.3893 H   0  0  0  0  0  0  0  0  0  0  0  0
   33.5164   11.1902   16.6649 H   0  0  0  0  0  0  0  0  0  0  0  0
   33.5674    9.9560   18.0105 H   0  0  0  0  0  0  0  0  0  0  0  0
   36.1561   11.0069   16.8967 H   0  0  0  0  0  0  0  0  0  0  0  0
   35.1508   12.0322   18.0425 H   0  0  0  0  0  0  0  0  0  0  0  0
   36.0619    9.2310   18.6221 H   0  0  0  0  0  0  0  0  0  0  0  0
   36.4164    9.8432   22.4184 H   0  0  0  0  0  0  0  0  0  0  0  0
   36.6996    8.6599   21.1768 H   0  0  0  0  0  0  0  0  0  0  0  0
   38.5603   10.1559   20.9634 H   0  0  0  0  0  0  0  0  0  0  0  0
   37.6357   12.1611   22.3302 H   0  0  0  0  0  0  0  0  0  0  0  0
   36.5919   12.8512   18.4446 H   0  0  0  0  0  0  0  0  0  0  0  0
   38.1853   10.6485   18.6316 H   0  0  0  0  0  0  0  0  0  0  0  0
  1  2  2  0
  1  3  1  0
  1  4  1  0
  4  5  1  0
  5  6  1  0
  6  7  1  0
  7  8  1  0
  8  9  1  0
  8 16  1  0
  9 10  1  0
 10 11  1  0
 11 12  1  0
 11 16  1  0
 12 13  1  0
 13 14  2  0
 13 15  1  0
 15 16  1  0
  3 17  1  0
  4 18  1  0
  4 19  1  0
  5 20  1  0
  5 21  1  0
  6 22  1  0
  6 23  1  0
  7 24  1  0
  7 25  1  0
  8 26  1  0
 10 27  1  0
 10 28  1  0
 11 29  1  0
 12 30  1  0
 15 31  1  0
 16 32  1  0
A    1
C11
A    2
O11
A    3
O12
A    4
C10
A    5
C9
A    6
C8
A    7
C7
A    8
C2
A    9
S1
A   10
C6
A   11
C5
A   12
N1
A   13
C3
A   14
O3
A   15
N2
A   16
C4
M  END
