1LX6_ZAM_A_502
     RDKit          3D

 54 56  0  0  0  0  0  0  0  0999 V2000
    1.6280   18.6920  137.9950 C   0  0  0  0  0  0  0  0  0  0  0  0
    0.5510   16.4280  138.2540 C   0  0  0  0  0  0  0  0  0  0  0  0
    2.6990   22.3650  134.6720 C   0  0  0  0  0  0  0  0  0  0  0  0
    2.6570   21.8430  132.1820 C   0  0  0  0  0  0  0  0  0  0  0  0
    3.1520   24.1290  132.9870 C   0  0  0  0  0  0  0  0  0  0  0  0
    3.2210   18.3140  135.9900 C   0  0  0  0  0  0  0  0  0  0  0  0
    2.2990   19.1770  136.7000 C   0  0  0  0  0  0  0  0  0  0  0  0
    2.0900   20.4960  136.2170 C   0  0  0  0  0  0  0  0  0  0  0  0
    2.7800   20.9540  135.0920 C   0  0  0  0  0  0  0  0  0  0  0  0
    3.6640   20.1220  134.4180 C   0  0  0  0  0  0  0  0  0  0  0  0
    3.8990   18.8100  134.8440 C   0  0  0  0  0  0  0  0  0  0  0  0
    3.5080   16.9930  136.3720 N   0  0  0  0  0  0  0  0  0  0  0  0
    0.4780   17.7760  137.8460 N   0  0  0  0  0  0  0  0  0  0  0  0
   -0.6780   18.3290  137.1330 C   0  0  0  0  0  0  0  0  0  0  0  0
    1.5000   15.9540  138.9110 O   0  0  0  0  0  0  0  0  0  0  0  0
   -0.5900   15.5270  137.8620 C   0  0  0  0  0  0  0  0  0  0  0  0
    2.8590   22.7490  133.3260 N   0  0  0  0  0  0  0  0  0  0  0  0
    2.5510   23.1770  135.5670 O   0  0  0  0  0  0  0  0  0  0  0  0
    1.2280   21.8550  131.7910 C   0  0  0  0  0  0  0  0  0  0  0  0
    0.2010   21.0440  132.3500 C   0  0  0  0  0  0  0  0  0  0  0  0
   -0.9850   21.5070  131.6960 C   0  0  0  0  0  0  0  0  0  0  0  0
   -0.6520   22.5570  130.8080 C   0  0  0  0  0  0  0  0  0  0  0  0
    0.7310   22.7740  130.8710 N   0  0  0  0  0  0  0  0  0  0  0  0
    1.5010   23.7540  130.0920 C   0  0  0  0  0  0  0  0  0  0  0  0
   -2.3920   21.2210  131.7930 C   0  0  0  0  0  0  0  0  0  0  0  0
   -3.3270   21.9380  131.0300 C   0  0  0  0  0  0  0  0  0  0  0  0
   -1.5530   23.2930  130.0390 C   0  0  0  0  0  0  0  0  0  0  0  0
   -2.9090   22.9750  130.1680 C   0  0  0  0  0  0  0  0  0  0  0  0
    2.3923   18.1725  138.5916 H   0  0  0  0  0  0  0  0  0  0  0  0
    1.2159   19.5982  138.4629 H   0  0  0  0  0  0  0  0  0  0  0  0
    3.2722   22.1793  131.3344 H   0  0  0  0  0  0  0  0  0  0  0  0
    2.9518   20.8219  132.4655 H   0  0  0  0  0  0  0  0  0  0  0  0
    3.2764   24.7148  133.9097 H   0  0  0  0  0  0  0  0  0  0  0  0
    4.0794   24.1727  132.3971 H   0  0  0  0  0  0  0  0  0  0  0  0
    2.3223   24.5458  132.3971 H   0  0  0  0  0  0  0  0  0  0  0  0
    1.3807   21.1608  136.7317 H   0  0  0  0  0  0  0  0  0  0  0  0
    4.1907   20.5023  133.5304 H   0  0  0  0  0  0  0  0  0  0  0  0
    4.6035   18.1673  134.2957 H   0  0  0  0  0  0  0  0  0  0  0  0
    3.5617   16.7457  137.3704 H   0  0  0  0  0  0  0  0  0  0  0  0
    3.6647   16.2717  135.6537 H   0  0  0  0  0  0  0  0  0  0  0  0
   -1.4219   18.6849  137.8610 H   0  0  0  0  0  0  0  0  0  0  0  0
   -0.3520   19.1687  136.5016 H   0  0  0  0  0  0  0  0  0  0  0  0
   -1.1272   17.5483  136.5016 H   0  0  0  0  0  0  0  0  0  0  0  0
   -1.0797   15.1403  138.7679 H   0  0  0  0  0  0  0  0  0  0  0  0
   -1.3185   16.0961  137.2659 H   0  0  0  0  0  0  0  0  0  0  0  0
   -0.2053   14.6864  137.2659 H   0  0  0  0  0  0  0  0  0  0  0  0
    0.2960   20.2499  133.1053 H   0  0  0  0  0  0  0  0  0  0  0  0
    2.0327   24.4307  130.7771 H   0  0  0  0  0  0  0  0  0  0  0  0
    2.2295   23.2275  129.4579 H   0  0  0  0  0  0  0  0  0  0  0  0
    0.8171   24.3373  129.4579 H   0  0  0  0  0  0  0  0  0  0  0  0
   -2.7394   20.4301  132.4740 H   0  0  0  0  0  0  0  0  0  0  0  0
   -4.3960   21.6894  131.1045 H   0  0  0  0  0  0  0  0  0  0  0  0
   -1.2121   24.0889  129.3605 H   0  0  0  0  0  0  0  0  0  0  0  0
   -3.6575   23.5388  129.5918 H   0  0  0  0  0  0  0  0  0  0  0  0
  1  7  1  0
  1 13  1  0
  2 13  1  0
  2 15  2  0
  2 16  1  0
  3  9  1  0
  3 17  1  0
  3 18  2  0
  4 17  1  0
  4 19  1  0
  5 17  1  0
  6  7  2  0
  6 11  1  0
  6 12  1  0
  7  8  1  0
  8  9  2  0
  9 10  1  0
 10 11  2  0
 13 14  1  0
 19 20  2  0
 19 23  1  0
 20 21  1  0
 21 22  2  0
 21 25  1  0
 22 23  1  0
 22 27  1  0
 23 24  1  0
 25 26  2  0
 26 28  1  0
 27 28  2  0
  1 29  1  0
  1 30  1  0
  4 31  1  0
  4 32  1  0
  5 33  1  0
  5 34  1  0
  5 35  1  0
  8 36  1  0
 10 37  1  0
 11 38  1  0
 12 39  1  0
 12 40  1  0
 14 41  1  0
 14 42  1  0
 14 43  1  0
 16 44  1  0
 16 45  1  0
 16 46  1  0
 20 47  1  0
 24 48  1  0
 24 49  1  0
 24 50  1  0
 25 51  1  0
 26 52  1  0
 27 53  1  0
 28 54  1  0
A    1
C13
A    2
C21
A    3
C27
A    4
C30
A    5
C33
A    6
C01
A    7
C02
A    8
C03
A    9
C04
A   10
C05
A   11
C06
A   12
N10
A   13
N16
A   14
C17
A   15
O22
A   16
C23
A   17
N28
A   18
O29
A   19
C37
A   20
C38
A   21
C39
A   22
C40
A   23
N41
A   24
C43
A   25
C47
A   26
C48
A   27
C51
A   28
C52
M  END
