1LXC_AYM_A_302
     RDKit          3D

 44 46  0  0  0  0  0  0  0  0999 V2000
   -2.0870   16.1000  137.0360 N   0  0  0  0  0  0  0  0  0  0  0  0
   -1.4430   17.3190  136.7350 C   0  0  0  0  0  0  0  0  0  0  0  0
   -1.1610   18.3620  137.7440 N   0  0  0  0  0  0  0  0  0  0  0  0
   -0.4970   19.5920  137.3670 C   0  0  0  0  0  0  0  0  0  0  0  0
   -0.1090   19.8100  136.0310 C   0  0  0  0  0  0  0  0  0  0  0  0
   -0.4020   18.7270  134.9880 C   0  0  0  0  0  0  0  0  0  0  0  0
   -1.0520   17.5210  135.3580 C   0  0  0  0  0  0  0  0  0  0  0  0
    0.5600   21.0710  135.6180 C   0  0  0  0  0  0  0  0  0  0  0  0
    1.7790   21.0840  134.9170 C   0  0  0  0  0  0  0  0  0  0  0  0
    2.3850   22.3960  134.5280 C   0  0  0  0  0  0  0  0  0  0  0  0
    2.5970   23.1650  135.4560 O   0  0  0  0  0  0  0  0  0  0  0  0
    2.6970   22.7590  133.1770 N   0  0  0  0  0  0  0  0  0  0  0  0
    3.2750   24.0710  132.9220 C   0  0  0  0  0  0  0  0  0  0  0  0
    2.4760   21.9070  131.9550 C   0  0  0  0  0  0  0  0  0  0  0  0
    1.1250   22.2270  131.4100 C   0  0  0  0  0  0  0  0  0  0  0  0
   -0.0860   21.5910  131.8190 C   0  0  0  0  0  0  0  0  0  0  0  0
   -1.0960   22.2360  131.0520 C   0  0  0  0  0  0  0  0  0  0  0  0
   -0.4870   23.2320  130.2030 C   0  0  0  0  0  0  0  0  0  0  0  0
    0.9100   23.2210  130.4270 N   0  0  0  0  0  0  0  0  0  0  0  0
    1.9200   24.0870  129.7630 C   0  0  0  0  0  0  0  0  0  0  0  0
   -2.5580   22.1190  130.9420 C   0  0  0  0  0  0  0  0  0  0  0  0
   -3.2920   22.9530  130.0520 C   0  0  0  0  0  0  0  0  0  0  0  0
   -2.6110   23.9270  129.2370 C   0  0  0  0  0  0  0  0  0  0  0  0
   -1.1890   24.0810  129.3030 C   0  0  0  0  0  0  0  0  0  0  0  0
   -2.2332   15.8234  138.0173 H   0  0  0  0  0  0  0  0  0  0  0  0
   -2.4109   15.4869  136.2744 H   0  0  0  0  0  0  0  0  0  0  0  0
   -0.2946   20.3601  138.1280 H   0  0  0  0  0  0  0  0  0  0  0  0
   -0.1053   18.8859  133.9408 H   0  0  0  0  0  0  0  0  0  0  0  0
   -1.2565   16.7468  134.6038 H   0  0  0  0  0  0  0  0  0  0  0  0
    0.0839   22.0301  135.8700 H   0  0  0  0  0  0  0  0  0  0  0  0
    2.2815   20.1405  134.6575 H   0  0  0  0  0  0  0  0  0  0  0  0
    3.4938   24.5676  133.8789 H   0  0  0  0  0  0  0  0  0  0  0  0
    4.2059   23.9562  132.3473 H   0  0  0  0  0  0  0  0  0  0  0  0
    2.5620   24.6804  132.3473 H   0  0  0  0  0  0  0  0  0  0  0  0
    3.2453   22.1290  131.2007 H   0  0  0  0  0  0  0  0  0  0  0  0
    2.5408   20.8402  132.2154 H   0  0  0  0  0  0  0  0  0  0  0  0
   -0.2099   20.7860  132.5584 H   0  0  0  0  0  0  0  0  0  0  0  0
    2.5206   24.6020  130.5272 H   0  0  0  0  0  0  0  0  0  0  0  0
    2.5779   23.4680  129.1353 H   0  0  0  0  0  0  0  0  0  0  0  0
    1.4087   24.8317  129.1353 H   0  0  0  0  0  0  0  0  0  0  0  0
   -3.0910   21.3776  131.5553 H   0  0  0  0  0  0  0  0  0  0  0  0
   -4.3855   22.8534  129.9860 H   0  0  0  0  0  0  0  0  0  0  0  0
   -3.1930   24.5624  128.5532 H   0  0  0  0  0  0  0  0  0  0  0  0
   -0.6625   24.8232  128.6849 H   0  0  0  0  0  0  0  0  0  0  0  0
  1  2  1  0
  2  3  2  0
  2  7  1  0
  3  4  1  0
  4  5  2  0
  5  6  1  0
  5  8  1  0
  6  7  2  0
  8  9  2  0
  9 10  1  0
 10 11  2  0
 10 12  1  0
 12 13  1  0
 12 14  1  0
 14 15  1  0
 15 16  2  0
 15 19  1  0
 16 17  1  0
 17 18  2  0
 17 21  1  0
 18 19  1  0
 18 24  1  0
 19 20  1  0
 21 22  2  0
 22 23  1  0
 23 24  2  0
  1 25  1  0
  1 26  1  0
  4 27  1  0
  6 28  1  0
  7 29  1  0
  8 30  1  0
  9 31  1  0
 13 32  1  0
 13 33  1  0
 13 34  1  0
 14 35  1  0
 14 36  1  0
 16 37  1  0
 20 38  1  0
 20 39  1  0
 20 40  1  0
 21 41  1  0
 22 42  1  0
 23 43  1  0
 24 44  1  0
A    1
N01
A    2
C02
A    3
N03
A    4
C04
A    5
C05
A    6
C06
A    7
C07
A    8
C08
A    9
C09
A   10
C10
A   11
O11
A   12
N12
A   13
C13
A   14
C14
A   15
C15
A   16
C16
A   17
C17
A   18
C18
A   19
N19
A   20
C20
A   21
C21
A   22
C22
A   23
C23
A   24
C24
M  END
