1M13_HYF_A_435
     RDKit          3D

 91 92  0  0  0  0  0  0  0  0999 V2000
    9.5070   71.9840   -4.1800 C   0  0  0  0  0  0  0  0  0  0  0  0
   13.6650   77.9120   -5.8650 C   0  0  0  0  0  0  0  0  0  0  0  0
   15.1880   79.1870   -4.2550 C   0  0  0  0  0  0  0  0  0  0  0  0
    5.0030   74.6870   -1.2500 C   0  0  0  0  0  0  0  0  0  0  0  0
    6.2350   74.6680   -0.3330 C   0  0  0  0  0  0  0  0  0  0  0  0
    5.8040   74.2810    1.0940 C   0  0  0  0  0  0  0  0  0  0  0  0
    7.0020   76.0620   -0.3760 C   0  0  0  0  0  0  0  0  0  0  0  0
    6.2840   77.0480   -0.1880 O   0  0  0  0  0  0  0  0  0  0  0  0
   13.3150   77.8590   -3.3460 C   0  0  0  0  0  0  0  0  0  0  0  0
   13.9980   78.2770   -4.4340 C   0  0  0  0  0  0  0  0  0  0  0  0
   12.0810   76.9660   -3.2950 C   0  0  0  0  0  0  0  0  0  0  0  0
    8.4820   77.4650   -3.1420 C   0  0  0  0  0  0  0  0  0  0  0  0
   13.6170   80.8910   -0.1630 C   0  0  0  0  0  0  0  0  0  0  0  0
   11.7280   82.6660   -0.4250 C   0  0  0  0  0  0  0  0  0  0  0  0
   12.1300   81.2800    0.0420 C   0  0  0  0  0  0  0  0  0  0  0  0
   11.1890   80.4850    0.6070 C   0  0  0  0  0  0  0  0  0  0  0  0
   11.3950   79.0610    1.1560 C   0  0  0  0  0  0  0  0  0  0  0  0
    9.2020   77.7360    0.0590 C   0  0  0  0  0  0  0  0  0  0  0  0
    8.4850   78.7260    0.2600 O   0  0  0  0  0  0  0  0  0  0  0  0
   11.4100   76.5640    2.5800 O   0  0  0  0  0  0  0  0  0  0  0  0
    8.9400   73.7130   -0.4720 O   0  0  0  0  0  0  0  0  0  0  0  0
   13.8920   73.3240   -0.3130 C   0  0  0  0  0  0  0  0  0  0  0  0
   12.6770   71.1600   -1.0270 C   0  0  0  0  0  0  0  0  0  0  0  0
   12.6530   72.4240   -0.1930 C   0  0  0  0  0  0  0  0  0  0  0  0
   11.5570   72.6370    0.5940 C   0  0  0  0  0  0  0  0  0  0  0  0
   11.1320   73.7480    1.5960 C   0  0  0  0  0  0  0  0  0  0  0  0
    8.6440   76.2870   -0.6350 C   0  0  0  0  0  0  0  0  0  0  0  0
    9.3820   74.9580   -0.0020 C   0  0  0  0  0  0  0  0  0  0  0  0
   10.4180   74.9830    0.9740 C   0  0  0  0  0  0  0  0  0  0  0  0
   10.9160   76.4320    1.4580 C   0  0  0  0  0  0  0  0  0  0  0  0
   10.7900   77.7140    0.4640 C   0  0  0  0  0  0  0  0  0  0  0  0
   11.6690   77.3300   -0.8830 C   0  0  0  0  0  0  0  0  0  0  0  0
   10.9400   77.4360   -2.3010 C   0  0  0  0  0  0  0  0  0  0  0  0
    9.3900   76.5270   -2.2530 C   0  0  0  0  0  0  0  0  0  0  0  0
    9.6030   75.2470   -3.1780 C   0  0  0  0  0  0  0  0  0  0  0  0
    8.4640   74.3130   -3.6750 C   0  0  0  0  0  0  0  0  0  0  0  0
    9.0340   73.1930   -4.5490 C   0  0  0  0  0  0  0  0  0  0  0  0
    9.5590   71.4920   -2.7470 C   0  0  0  0  0  0  0  0  0  0  0  0
   10.0210   71.0400   -5.2370 C   0  0  0  0  0  0  0  0  0  0  0  0
   12.9236   77.0994   -5.8731 H   0  0  0  0  0  0  0  0  0  0  0  0
   13.2512   78.7910   -6.3808 H   0  0  0  0  0  0  0  0  0  0  0  0
   14.5782   77.5804   -6.3808 H   0  0  0  0  0  0  0  0  0  0  0  0
   15.3795   79.3334   -3.1817 H   0  0  0  0  0  0  0  0  0  0  0  0
   16.0717   78.7321   -4.7264 H   0  0  0  0  0  0  0  0  0  0  0  0
   14.9805   80.1590   -4.7264 H   0  0  0  0  0  0  0  0  0  0  0  0
    4.0898   74.7011   -0.6369 H   0  0  0  0  0  0  0  0  0  0  0  0
    5.0323   75.5848   -1.8849 H   0  0  0  0  0  0  0  0  0  0  0  0
    5.0046   73.7887   -1.8849 H   0  0  0  0  0  0  0  0  0  0  0  0
    6.9479   73.9113   -0.6924 H   0  0  0  0  0  0  0  0  0  0  0  0
    6.4164   74.8309    1.8238 H   0  0  0  0  0  0  0  0  0  0  0  0
    4.7438   74.5361    1.2387 H   0  0  0  0  0  0  0  0  0  0  0  0
    5.9439   73.1996    1.2387 H   0  0  0  0  0  0  0  0  0  0  0  0
   13.6975   78.2068   -2.3751 H   0  0  0  0  0  0  0  0  0  0  0  0
   11.6521   76.9223   -4.3070 H   0  0  0  0  0  0  0  0  0  0  0  0
   12.4279   75.9925   -2.9183 H   0  0  0  0  0  0  0  0  0  0  0  0
    7.8652   78.1022   -2.4912 H   0  0  0  0  0  0  0  0  0  0  0  0
    9.1195   78.0977   -3.7770 H   0  0  0  0  0  0  0  0  0  0  0  0
    7.8289   76.8484   -3.7770 H   0  0  0  0  0  0  0  0  0  0  0  0
   14.1013   80.7643    0.8165 H   0  0  0  0  0  0  0  0  0  0  0  0
   13.6750   79.9475   -0.7255 H   0  0  0  0  0  0  0  0  0  0  0  0
   14.1296   81.6853   -0.7255 H   0  0  0  0  0  0  0  0  0  0  0  0
   11.5419   83.3077    0.4488 H   0  0  0  0  0  0  0  0  0  0  0  0
   12.5379   83.0979   -1.0312 H   0  0  0  0  0  0  0  0  0  0  0  0
   10.8127   82.5975   -1.0312 H   0  0  0  0  0  0  0  0  0  0  0  0
   10.1729   80.8998    0.6811 H   0  0  0  0  0  0  0  0  0  0  0  0
   12.4842   78.9119    1.1935 H   0  0  0  0  0  0  0  0  0  0  0  0
   10.7960   79.1065    2.0775 H   0  0  0  0  0  0  0  0  0  0  0  0
    8.6878   73.0027    0.1699 H   0  0  0  0  0  0  0  0  0  0  0  0
   14.2533   73.5864    0.6923 H   0  0  0  0  0  0  0  0  0  0  0  0
   14.6828   72.7884   -0.8586 H   0  0  0  0  0  0  0  0  0  0  0  0
   13.6271   74.2417   -0.8586 H   0  0  0  0  0  0  0  0  0  0  0  0
   12.6937   70.2830   -0.3632 H   0  0  0  0  0  0  0  0  0  0  0  0
   11.7794   71.1224   -1.6618 H   0  0  0  0  0  0  0  0  0  0  0  0
   13.5754   71.1565   -1.6618 H   0  0  0  0  0  0  0  0  0  0  0  0
   10.8034   71.8416    0.4970 H   0  0  0  0  0  0  0  0  0  0  0  0
   10.4482   73.2970    2.3301 H   0  0  0  0  0  0  0  0  0  0  0  0
   12.0665   74.1310    2.0319 H   0  0  0  0  0  0  0  0  0  0  0  0
   12.5393   78.0022   -0.9100 H   0  0  0  0  0  0  0  0  0  0  0  0
   11.9001   76.2607   -0.7685 H   0  0  0  0  0  0  0  0  0  0  0  0
   10.5829   78.4240   -2.6272 H   0  0  0  0  0  0  0  0  0  0  0  0
   10.0959   75.6200   -4.0879 H   0  0  0  0  0  0  0  0  0  0  0  0
   10.1209   74.5763   -2.4766 H   0  0  0  0  0  0  0  0  0  0  0  0
    7.9534   73.8708   -2.8068 H   0  0  0  0  0  0  0  0  0  0  0  0
    7.7534   74.9039   -4.2715 H   0  0  0  0  0  0  0  0  0  0  0  0
    9.0620   73.4028   -5.6284 H   0  0  0  0  0  0  0  0  0  0  0  0
    9.4685   72.3479   -2.0620 H   0  0  0  0  0  0  0  0  0  0  0  0
    8.7299   70.7912   -2.5696 H   0  0  0  0  0  0  0  0  0  0  0  0
   10.5163   70.9800   -2.5696 H   0  0  0  0  0  0  0  0  0  0  0  0
   10.4937   70.1718   -4.7546 H   0  0  0  0  0  0  0  0  0  0  0  0
    9.1834   70.7002   -5.8638 H   0  0  0  0  0  0  0  0  0  0  0  0
   10.7610   71.5592   -5.8638 H   0  0  0  0  0  0  0  0  0  0  0  0
  1 37  2  0
  1 38  1  0
  1 39  1  0
  2 10  1  0
  3 10  1  0
  4  5  1  0
  5  6  1  0
  5  7  1  0
  7  8  2  0
  7 27  1  0
  9 10  2  0
  9 11  1  0
 11 33  1  0
 12 34  1  0
 13 15  1  0
 14 15  1  0
 15 16  2  0
 16 17  1  0
 17 31  1  0
 18 19  2  0
 18 27  1  0
 18 31  1  0
 20 30  2  0
 21 28  1  0
 22 24  1  0
 23 24  1  0
 24 25  2  0
 25 26  1  0
 26 29  1  0
 27 28  1  0
 27 34  1  0
 28 29  2  0
 29 30  1  0
 30 31  1  0
 31 32  1  0
 32 33  1  0
 33 34  1  0
 34 35  1  0
 35 36  1  0
 36 37  1  0
  2 40  1  0
  2 41  1  0
  2 42  1  0
  3 43  1  0
  3 44  1  0
  3 45  1  0
  4 46  1  0
  4 47  1  0
  4 48  1  0
  5 49  1  0
  6 50  1  0
  6 51  1  0
  6 52  1  0
  9 53  1  0
 11 54  1  0
 11 55  1  0
 12 56  1  0
 12 57  1  0
 12 58  1  0
 13 59  1  0
 13 60  1  0
 13 61  1  0
 14 62  1  0
 14 63  1  0
 14 64  1  0
 16 65  1  0
 17 66  1  0
 17 67  1  0
 21 68  1  0
 22 69  1  0
 22 70  1  0
 22 71  1  0
 23 72  1  0
 23 73  1  0
 23 74  1  0
 25 75  1  0
 26 76  1  0
 26 77  1  0
 32 78  1  0
 32 79  1  0
 33 80  1  0
 35 81  1  0
 35 82  1  0
 36 83  1  0
 36 84  1  0
 37 85  1  0
 38 86  1  0
 38 87  1  0
 38 88  1  0
 39 89  1  0
 39 90  1  0
 39 91  1  0
A    1
C1
A    2
C2
A    3
C3
A    4
C4
A    5
C5
A    6
C6
A    7
C7
A    8
O8
A    9
C9
A   10
C10
A   11
C11
A   12
C12
A   13
C13
A   14
C14
A   15
C15
A   16
C16
A   17
C17
A   18
C18
A   19
O19
A   20
O20
A   21
O21
A   22
C22
A   23
C23
A   24
C24
A   25
C25
A   26
C26
A   27
C27
A   28
C28
A   29
C29
A   30
C30
A   31
C31
A   32
C32
A   33
C33
A   34
C34
A   35
C35
A   36
C36
A   37
C37
A   38
C38
A   39
C39
M  END
