1AFY_CAA_?_1
     RDKit          3D

 12 11  0  0  0  0  0  0  0  0999 V2000
   60.9670    1.7970   91.4270 C   0  0  0  0  0  0  0  0  0  0  0  0
   60.6000    0.9040   90.6100 O   0  0  0  0  0  0  0  0  0  0  0  0
   60.0390    2.2700   92.5280 C   0  0  0  0  0  0  0  0  0  0  0  0
   58.6550    1.7520   92.7510 C   0  0  0  0  0  0  0  0  0  0  0  0
   58.1710    0.8880   92.0600 O   0  0  0  0  0  0  0  0  0  0  0  0
   57.7230    2.2060   93.8310 C   0  0  0  0  0  0  0  0  0  0  0  0
   61.9718    2.2356   91.3374 H   0  0  0  0  0  0  0  0  0  0  0  0
   60.5786    2.0856   93.4687 H   0  0  0  0  0  0  0  0  0  0  0  0
   59.8204    3.2918   92.1843 H   0  0  0  0  0  0  0  0  0  0  0  0
   58.1674    1.9895   94.8137 H   0  0  0  0  0  0  0  0  0  0  0  0
   57.5517    3.2885   93.7364 H   0  0  0  0  0  0  0  0  0  0  0  0
   56.7651    1.6736   93.7364 H   0  0  0  0  0  0  0  0  0  0  0  0
  1  2  2  0
  1  3  1  0
  3  4  1  0
  4  5  2  0
  4  6  1  0
  1  7  1  0
  3  8  1  0
  3  9  1  0
  6 10  1  0
  6 11  1  0
  6 12  1  0
A    1
C1
A    2
O1
A    3
C2
A    4
C3
A    5
O3
A    6
C4
M  END
