1M2P_HNA_A_351
     RDKit          3D

 28 30  0  0  0  0  0  0  0  0999 V2000
   25.4730    3.5510   18.0020 C   0  0  0  0  0  0  0  0  0  0  0  0
   24.7120    4.7670   17.8750 C   0  0  0  0  0  0  0  0  0  0  0  0
   23.9660    5.2700   19.0040 C   0  0  0  0  0  0  0  0  0  0  0  0
   23.9970    4.5440   20.2210 C   0  0  0  0  0  0  0  0  0  0  0  0
   24.7510    3.3410   20.3100 C   0  0  0  0  0  0  0  0  0  0  0  0
   25.4880    2.8460   19.2180 C   0  0  0  0  0  0  0  0  0  0  0  0
   23.1930    6.5650   18.8220 C   0  0  0  0  0  0  0  0  0  0  0  0
   23.1880    7.2810   17.5300 C   0  0  0  0  0  0  0  0  0  0  0  0
   23.9130    6.7760   16.4070 C   0  0  0  0  0  0  0  0  0  0  0  0
   24.7000    5.5090   16.5640 C   0  0  0  0  0  0  0  0  0  0  0  0
   23.8740    7.5060   15.1610 C   0  0  0  0  0  0  0  0  0  0  0  0
   23.1230    8.7050   15.0700 C   0  0  0  0  0  0  0  0  0  0  0  0
   22.4120    9.2000   16.1920 C   0  0  0  0  0  0  0  0  0  0  0  0
   22.4420    8.4920   17.4110 C   0  0  0  0  0  0  0  0  0  0  0  0
   25.3340    5.0620   15.6100 O   0  0  0  0  0  0  0  0  0  0  0  0
   22.5320    7.0670   19.7280 O   0  0  0  0  0  0  0  0  0  0  0  0
   26.2070    3.0380   16.9470 O   0  0  0  0  0  0  0  0  0  0  0  0
   24.5420    7.0670   14.0280 O   0  0  0  0  0  0  0  0  0  0  0  0
   23.3090    4.8910   21.4330 N   0  0  0  0  0  0  0  0  0  0  0  0
   22.0820    4.4920   21.5490 O   0  0  0  0  0  0  0  0  0  0  0  0
   23.8020    5.5610   22.3750 O   0  0  0  0  0  0  0  0  0  0  0  0
   24.7582    2.7827   21.2578 H   0  0  0  0  0  0  0  0  0  0  0  0
   26.0696    1.9174   19.3150 H   0  0  0  0  0  0  0  0  0  0  0  0
   23.0917    9.2569   14.1190 H   0  0  0  0  0  0  0  0  0  0  0  0
   21.8379   10.1348   16.1118 H   0  0  0  0  0  0  0  0  0  0  0  0
   21.8853    8.8765   18.2783 H   0  0  0  0  0  0  0  0  0  0  0  0
   27.0053    2.4800   17.1244 H   0  0  0  0  0  0  0  0  0  0  0  0
   25.3659    6.5255   14.1178 H   0  0  0  0  0  0  0  0  0  0  0  0
  1  2  2  0
  1  6  1  0
  1 17  1  0
  2  3  1  0
  2 10  1  0
  3  4  2  0
  3  7  1  0
  4  5  1  0
  4 19  1  0
  5  6  2  0
  7  8  1  0
  7 16  2  0
  8  9  2  0
  8 14  1  0
  9 10  1  0
  9 11  1  0
 10 15  2  0
 11 12  2  0
 11 18  1  0
 12 13  1  0
 13 14  2  0
 19 20  1  0
 19 21  2  0
  5 22  1  0
  6 23  1  0
 12 24  1  0
 13 25  1  0
 14 26  1  0
 17 27  1  0
 18 28  1  0
M  CHG  2  19   1  20  -1
A    1
C1
A    2
C2
A    3
C3
A    4
C4
A    5
C5
A    6
C6
A    7
C13
A    8
C14
A    9
C15
A   10
C16
A   11
C22
A   12
C23
A   13
C24
A   14
C25
A   15
O16
A   16
O13
A   17
O1
A   18
O22
A   19
N4
A   20
O4B
A   21
O4A
M  END
