1M48_FRG_A_301
     RDKit          3D

 63 65  0  0  0  0  0  0  0  0999 V2000
    2.5640   20.9650    0.1020 N   0  0  0  0  0  0  0  0  0  0  0  0
    2.6030   20.1150   -0.9240 C   0  0  0  0  0  0  0  0  0  0  0  0
    3.6640   19.3090   -1.0060 N   0  0  0  0  0  0  0  0  0  0  0  0
    1.4640   20.0100   -1.8160 N   0  0  0  0  0  0  0  0  0  0  0  0
    1.5440   18.8910   -2.7960 C   0  0  0  0  0  0  0  0  0  0  0  0
    0.7770   21.2590   -2.2630 C   0  0  0  0  0  0  0  0  0  0  0  0
    0.7920   21.5550   -3.7680 C   0  0  0  0  0  0  0  0  0  0  0  0
    0.7650   20.3340   -4.6850 C   0  0  0  0  0  0  0  0  0  0  0  0
    1.7800   19.2790   -4.2560 C   0  0  0  0  0  0  0  0  0  0  0  0
    1.7010   18.0400   -5.1720 C   0  0  0  0  0  0  0  0  0  0  0  0
    1.8640   18.4240   -6.6300 C   0  0  0  0  0  0  0  0  0  0  0  0
    2.9290   18.8790   -7.0090 O   0  0  0  0  0  0  0  0  0  0  0  0
    0.8130   18.2520   -7.4550 N   0  0  0  0  0  0  0  0  0  0  0  0
    0.9170   18.4640   -8.9030 C   0  0  0  0  0  0  0  0  0  0  0  0
    0.7970   19.9100   -9.3270 C   0  0  0  0  0  0  0  0  0  0  0  0
    1.4720   20.3790  -10.2350 O   0  0  0  0  0  0  0  0  0  0  0  0
   -0.1090   20.8010   -8.6190 O   0  0  0  0  0  0  0  0  0  0  0  0
   -0.4400   22.0880   -9.1400 C   0  0  0  0  0  0  0  0  0  0  0  0
   -0.0450   17.5560   -9.6420 C   0  0  0  0  0  0  0  0  0  0  0  0
   -0.0430   16.0920   -9.4220 C   0  0  0  0  0  0  0  0  0  0  0  0
   -1.0430   15.4670   -8.6800 C   0  0  0  0  0  0  0  0  0  0  0  0
   -1.0440   14.0910   -8.5070 C   0  0  0  0  0  0  0  0  0  0  0  0
    0.9720   15.3360   -9.9940 C   0  0  0  0  0  0  0  0  0  0  0  0
    0.9930   13.9710   -9.8210 C   0  0  0  0  0  0  0  0  0  0  0  0
   -0.0100   13.3710   -9.0720 C   0  0  0  0  0  0  0  0  0  0  0  0
    0.0450   11.9300   -8.9320 C   0  0  0  0  0  0  0  0  0  0  0  0
    0.1140   10.6380   -8.8620 C   0  0  0  0  0  0  0  0  0  0  0  0
    0.1600    9.1950   -8.8240 C   0  0  0  0  0  0  0  0  0  0  0  0
   -0.6990    8.5090   -9.6690 C   0  0  0  0  0  0  0  0  0  0  0  0
   -0.6930    7.1280   -9.6580 C   0  0  0  0  0  0  0  0  0  0  0  0
    1.0160    8.5670   -7.9560 C   0  0  0  0  0  0  0  0  0  0  0  0
    1.0230    7.1890   -7.9480 C   0  0  0  0  0  0  0  0  0  0  0  0
    0.1680    6.4790   -8.7830 C   0  0  0  0  0  0  0  0  0  0  0  0
    1.7659   21.6073    0.2086 H   0  0  0  0  0  0  0  0  0  0  0  0
    4.1169   18.9649   -0.1473 H   0  0  0  0  0  0  0  0  0  0  0  0
    4.0297   19.0312   -1.9280 H   0  0  0  0  0  0  0  0  0  0  0  0
    2.3705   18.2343   -2.4868 H   0  0  0  0  0  0  0  0  0  0  0  0
    0.5520   18.4160   -2.7775 H   0  0  0  0  0  0  0  0  0  0  0  0
   -0.2746   21.1917   -1.9474 H   0  0  0  0  0  0  0  0  0  0  0  0
    1.3446   22.0808   -1.8020 H   0  0  0  0  0  0  0  0  0  0  0  0
   -0.0894   22.1709   -3.9998 H   0  0  0  0  0  0  0  0  0  0  0  0
    1.7514   22.0557   -3.9648 H   0  0  0  0  0  0  0  0  0  0  0  0
   -0.2415   19.8911   -4.6581 H   0  0  0  0  0  0  0  0  0  0  0  0
    1.0252   20.6646   -5.7013 H   0  0  0  0  0  0  0  0  0  0  0  0
    2.7908   19.7029   -4.3488 H   0  0  0  0  0  0  0  0  0  0  0  0
    2.5005   17.3373   -4.8946 H   0  0  0  0  0  0  0  0  0  0  0  0
    0.7129   17.5742   -5.0431 H   0  0  0  0  0  0  0  0  0  0  0  0
   -0.0918   17.9626   -7.0568 H   0  0  0  0  0  0  0  0  0  0  0  0
    1.9423   18.1861   -9.1887 H   0  0  0  0  0  0  0  0  0  0  0  0
   -0.6193   22.7852   -8.3083 H   0  0  0  0  0  0  0  0  0  0  0  0
    0.3920   22.4590   -9.7566 H   0  0  0  0  0  0  0  0  0  0  0  0
   -1.3477   22.0116   -9.7566 H   0  0  0  0  0  0  0  0  0  0  0  0
   -1.0575   17.9068   -9.3935 H   0  0  0  0  0  0  0  0  0  0  0  0
    0.2983   17.6414  -10.6835 H   0  0  0  0  0  0  0  0  0  0  0  0
   -1.8414   16.0723   -8.2259 H   0  0  0  0  0  0  0  0  0  0  0  0
   -1.8416   13.5900   -7.9388 H   0  0  0  0  0  0  0  0  0  0  0  0
    1.7586   15.8280  -10.5849 H   0  0  0  0  0  0  0  0  0  0  0  0
    1.7931   13.3640  -10.2698 H   0  0  0  0  0  0  0  0  0  0  0  0
   -1.3766    9.0577  -10.3396 H   0  0  0  0  0  0  0  0  0  0  0  0
   -1.3540    6.5562  -10.3260 H   0  0  0  0  0  0  0  0  0  0  0  0
    1.6743    9.1433   -7.2892 H   0  0  0  0  0  0  0  0  0  0  0  0
    1.7080    6.6486   -7.2781 H   0  0  0  0  0  0  0  0  0  0  0  0
    0.1736    5.3795   -8.7499 H   0  0  0  0  0  0  0  0  0  0  0  0
  1  2  2  3
  2  3  1  0
  2  4  1  0
  4  5  1  0
  4  6  1  0
  5  9  1  0
  6  7  1  0
  7  8  1  0
  8  9  1  0
  9 10  1  0
 10 11  1  0
 11 12  2  0
 11 13  1  0
 13 14  1  0
 14 15  1  0
 14 19  1  0
 15 16  2  0
 15 17  1  0
 17 18  1  0
 19 20  1  0
 20 21  2  0
 20 23  1  0
 21 22  1  0
 22 25  2  0
 23 24  2  0
 24 25  1  0
 25 26  1  0
 26 27  3  0
 27 28  1  0
 28 29  2  0
 28 31  1  0
 29 30  1  0
 30 33  2  0
 31 32  2  0
 32 33  1  0
  1 34  1  0
  3 35  1  0
  3 36  1  0
  5 37  1  0
  5 38  1  0
  6 39  1  0
  6 40  1  0
  7 41  1  0
  7 42  1  0
  8 43  1  0
  8 44  1  0
  9 45  1  0
 10 46  1  0
 10 47  1  0
 13 48  1  0
 14 49  1  0
 18 50  1  0
 18 51  1  0
 18 52  1  0
 19 53  1  0
 19 54  1  0
 21 55  1  0
 22 56  1  0
 23 57  1  0
 24 58  1  0
 29 59  1  0
 30 60  1  0
 31 61  1  0
 32 62  1  0
 33 63  1  0
A    1
N33
A    2
C31
A    3
N32
A    4
N29
A    5
C30
A    6
C28
A    7
C27
A    8
C26
A    9
C24
A   10
C23
A   11
C22
A   12
O25
A   13
N21
A   14
C16
A   15
C17
A   16
O19
A   17
O18
A   18
C20
A   19
C15
A   20
C12
A   21
C13
A   22
C14
A   23
C11
A   24
C10
A   25
C9
A   26
C8
A   27
C7
A   28
C4
A   29
C5
A   30
C6
A   31
C3
A   32
C2
A   33
C1
M  END
