1M51_TSX_A_1001
     RDKit          3D

 54 56  0  0  0  0  0  0  0  0999 V2000
   37.0340   39.3300   34.0690 O   0  0  0  0  0  0  0  0  0  0  0  0
   37.1400   40.4010   33.5010 C   0  0  0  0  0  0  0  0  0  0  0  0
   36.2240   40.7180   32.4980 N   0  0  0  0  0  0  0  0  0  0  0  0
   35.2460   39.6580   32.1950 C   0  0  0  0  0  0  0  0  0  0  0  0
   33.8140   39.8250   32.5280 C   0  0  0  0  0  0  0  0  0  0  0  0
   32.8080   39.1790   31.9170 C   0  0  0  0  0  0  0  0  0  0  0  0
   38.1410   41.2270   33.9000 N   0  0  0  0  0  0  0  0  0  0  0  0
   39.0810   40.8890   34.9830 C   0  0  0  0  0  0  0  0  0  0  0  0
   40.2060   39.9490   34.4560 C   0  0  0  0  0  0  0  0  0  0  0  0
   41.2930   39.5840   35.5170 C   0  0  0  0  0  0  0  0  0  0  0  0
   40.8800   38.4050   36.4370 C   0  0  0  0  0  0  0  0  0  0  0  0
   38.2540   42.4850   33.2590 C   0  0  0  0  0  0  0  0  0  0  0  0
   39.1700   43.4230   33.5300 N   0  0  0  0  0  0  0  0  0  0  0  0
   37.3950   42.8590   32.2500 C   0  0  0  0  0  0  0  0  0  0  0  0
   36.2910   41.9140   31.8230 C   0  0  0  0  0  0  0  0  0  0  0  0
   35.5300   42.2790   30.9240 O   0  0  0  0  0  0  0  0  0  0  0  0
   37.7050   44.0890   31.8070 N   0  0  0  0  0  0  0  0  0  0  0  0
   38.8510   44.3900   32.6400 C   0  0  0  0  0  0  0  0  0  0  0  0
   39.6100   45.6860   32.5210 C   0  0  0  0  0  0  0  0  0  0  0  0
   38.8670   46.6470   33.4400 C   0  0  0  0  0  0  0  0  0  0  0  0
   37.9330   47.5730   32.9620 C   0  0  0  0  0  0  0  0  0  0  0  0
   37.3140   48.3970   33.9160 C   0  0  0  0  0  0  0  0  0  0  0  0
   37.6520   48.2720   35.2860 C   0  0  0  0  0  0  0  0  0  0  0  0
   38.5820   47.3420   35.7290 C   0  0  0  0  0  0  0  0  0  0  0  0
   39.1950   46.5180   34.7890 C   0  0  0  0  0  0  0  0  0  0  0  0
   37.0680   49.0560   36.3250 N   0  0  0  0  0  0  0  0  0  0  0  0
   36.5170   50.2780   36.1330 C   0  0  0  0  0  0  0  0  0  0  0  0
   36.4540   50.8550   35.0450 O   0  0  0  0  0  0  0  0  0  0  0  0
   35.9530   50.9380   37.3690 C   0  0  0  0  0  0  0  0  0  0  0  0
   35.2968   39.4864   31.1096 H   0  0  0  0  0  0  0  0  0  0  0  0
   35.5569   38.8430   32.8652 H   0  0  0  0  0  0  0  0  0  0  0  0
   33.5553   40.5283   33.3333 H   0  0  0  0  0  0  0  0  0  0  0  0
   31.7685   39.3617   32.2268 H   0  0  0  0  0  0  0  0  0  0  0  0
   33.0233   38.4670   31.1066 H   0  0  0  0  0  0  0  0  0  0  0  0
   39.5339   41.8134   35.3708 H   0  0  0  0  0  0  0  0  0  0  0  0
   38.5309   40.3715   35.7827 H   0  0  0  0  0  0  0  0  0  0  0  0
   39.7392   39.0161   34.1070 H   0  0  0  0  0  0  0  0  0  0  0  0
   40.7223   40.4969   33.6540 H   0  0  0  0  0  0  0  0  0  0  0  0
   42.2176   39.3077   34.9890 H   0  0  0  0  0  0  0  0  0  0  0  0
   41.4308   40.4662   36.1595 H   0  0  0  0  0  0  0  0  0  0  0  0
   40.9857   38.7068   37.4895 H   0  0  0  0  0  0  0  0  0  0  0  0
   39.8331   38.1331   36.2369 H   0  0  0  0  0  0  0  0  0  0  0  0
   41.5284   37.5392   36.2369 H   0  0  0  0  0  0  0  0  0  0  0  0
   37.2533   44.6593   31.0778 H   0  0  0  0  0  0  0  0  0  0  0  0
   40.6515   45.5587   32.8513 H   0  0  0  0  0  0  0  0  0  0  0  0
   39.6572   46.0501   31.4841 H   0  0  0  0  0  0  0  0  0  0  0  0
   37.6952   47.6517   31.8909 H   0  0  0  0  0  0  0  0  0  0  0  0
   36.5667   49.1395   33.5994 H   0  0  0  0  0  0  0  0  0  0  0  0
   38.8290   47.2579   36.7976 H   0  0  0  0  0  0  0  0  0  0  0  0
   39.9343   45.7690   35.1090 H   0  0  0  0  0  0  0  0  0  0  0  0
   37.0653   48.6689   37.2795 H   0  0  0  0  0  0  0  0  0  0  0  0
   36.3674   50.4530   38.2651 H   0  0  0  0  0  0  0  0  0  0  0  0
   36.2232   52.0043   37.3710 H   0  0  0  0  0  0  0  0  0  0  0  0
   34.8576   50.8373   37.3710 H   0  0  0  0  0  0  0  0  0  0  0  0
  1  2  2  0
  2  3  1  0
  2  7  1  0
  3  4  1  0
  3 15  1  0
  4  5  1  0
  5  6  2  3
  7  8  1  0
  7 12  1  0
  8  9  1  0
  9 10  1  0
 10 11  1  0
 12 13  1  0
 12 14  2  0
 13 18  2  0
 14 15  1  0
 14 17  1  0
 15 16  2  0
 17 18  1  0
 18 19  1  0
 19 20  1  0
 20 21  2  0
 20 25  1  0
 21 22  1  0
 22 23  2  0
 23 24  1  0
 23 26  1  0
 24 25  2  0
 26 27  1  0
 27 28  2  0
 27 29  1  0
  4 30  1  0
  4 31  1  0
  5 32  1  0
  6 33  1  0
  6 34  1  0
  8 35  1  0
  8 36  1  0
  9 37  1  0
  9 38  1  0
 10 39  1  0
 10 40  1  0
 11 41  1  0
 11 42  1  0
 11 43  1  0
 17 44  1  0
 19 45  1  0
 19 46  1  0
 21 47  1  0
 22 48  1  0
 24 49  1  0
 25 50  1  0
 26 51  1  0
 29 52  1  0
 29 53  1  0
 29 54  1  0
A    1
O13
A    2
C5
A    3
N4
A    4
C31
A    5
C32
A    6
C33
A    7
N6
A    8
C41
A    9
C42
A   10
C43
A   11
C44
A   12
C7
A   13
N12
A   14
C8
A   15
C3
A   16
O12
A   17
N9
A   18
C11
A   19
C14
A   20
C21
A   21
C22
A   22
C23
A   23
C24
A   24
C25
A   25
C26
A   26
N
A   27
C
A   28
O
A   29
C4
M  END
