1M5B_BN1_A_2100
     RDKit          3D

 28 29  0  0  0  0  0  0  0  0999 V2000
   76.0980   26.8560   45.4000 O   0  0  0  0  0  0  0  0  0  0  0  0
   76.8500   26.2100   44.6050 C   0  0  0  0  0  0  0  0  0  0  0  0
   77.7060   25.3710   44.9280 O   0  0  0  0  0  0  0  0  0  0  0  0
   76.6920   26.5000   43.0780 C   0  0  0  0  0  0  0  0  0  0  0  0
   75.7490   27.7040   42.9610 N   0  0  0  0  0  0  0  0  0  0  0  0
   78.0440   26.7530   42.3960 C   0  0  0  0  0  0  0  0  0  0  0  0
   78.0720   26.2780   41.0010 C   0  0  0  0  0  0  0  0  0  0  0  0
   77.8140   26.8410   39.7900 C   0  0  0  0  0  0  0  0  0  0  0  0
   77.9840   25.9660   38.7480 O   0  0  0  0  0  0  0  0  0  0  0  0
   78.4070   24.6650   39.3750 N   0  0  0  0  0  0  0  0  0  0  0  0
   78.4510   24.8880   40.7210 C   0  0  0  0  0  0  0  0  0  0  0  0
   78.7670   24.0140   41.5670 O   0  0  0  0  0  0  0  0  0  0  0  0
   77.4040   28.1690   39.4580 C   0  0  0  0  0  0  0  0  0  0  0  0
   77.1610   29.2360   40.2960 N   0  0  0  0  0  0  0  0  0  0  0  0
   76.7990   30.2840   39.5470 N   0  0  0  0  0  0  0  0  0  0  0  0
   76.8070   29.9290   38.3250 N   0  0  0  0  0  0  0  0  0  0  0  0
   77.1670   28.6540   38.2090 N   0  0  0  0  0  0  0  0  0  0  0  0
   76.4770   31.5590   40.1790 C   0  0  0  0  0  0  0  0  0  0  0  0
   76.2119   26.7581   46.3785 H   0  0  0  0  0  0  0  0  0  0  0  0
   76.2728   25.6271   42.5561 H   0  0  0  0  0  0  0  0  0  0  0  0
   75.4922   28.0318   43.9031 H   0  0  0  0  0  0  0  0  0  0  0  0
   76.2228   28.4629   42.4507 H   0  0  0  0  0  0  0  0  0  0  0  0
   78.2461   27.8343   42.4043 H   0  0  0  0  0  0  0  0  0  0  0  0
   78.8090   26.1934   42.9542 H   0  0  0  0  0  0  0  0  0  0  0  0
   78.6952   24.2125   42.5342 H   0  0  0  0  0  0  0  0  0  0  0  0
   76.5061   31.4439   41.2726 H   0  0  0  0  0  0  0  0  0  0  0  0
   77.2119   32.3171   39.8705 H   0  0  0  0  0  0  0  0  0  0  0  0
   75.4703   31.8773   39.8705 H   0  0  0  0  0  0  0  0  0  0  0  0
  1  2  1  0
  2  3  2  0
  2  4  1  0
  4  5  1  0
  4  6  1  0
  6  7  1  0
  7  8  2  0
  7 11  1  0
  8  9  1  0
  8 13  1  0
  9 10  1  0
 10 11  2  0
 11 12  1  0
 13 14  2  0
 13 17  1  0
 14 15  1  0
 15 16  1  0
 15 18  1  0
 16 17  2  0
  1 19  1  0
  4 20  1  0
  5 21  1  0
  5 22  1  0
  6 23  1  0
  6 24  1  0
 12 25  1  0
 18 26  1  0
 18 27  1  0
 18 28  1  0
A    1
O1
A    2
C1
A    3
O2
A    4
C2
A    5
N1
A    6
C3
A    7
C4
A    8
C5
A    9
O3
A   10
N2
A   11
C6
A   12
O4
A   13
C7
A   14
N3
A   15
N4
A   16
N5
A   17
N6
A   18
C8
M  END
