1M5E_AM1_A_1700
     RDKit          3D

 25 25  0  0  0  0  0  0  0  0999 V2000
   77.7270   24.5350   38.3730 O   0  0  0  0  0  0  0  0  0  0  0  0
   77.7000   25.1890   39.4530 C   0  0  0  0  0  0  0  0  0  0  0  0
   77.9240   24.6760   40.6170 O   0  0  0  0  0  0  0  0  0  0  0  0
   77.3690   26.6660   39.3920 C   0  0  0  0  0  0  0  0  0  0  0  0
   77.1010   27.3070   38.2390 N   0  0  0  0  0  0  0  0  0  0  0  0
   76.8430   28.6200   38.5750 O   0  0  0  0  0  0  0  0  0  0  0  0
   76.9500   28.7850   39.9160 C   0  0  0  0  0  0  0  0  0  0  0  0
   77.2850   27.5860   40.5130 C   0  0  0  0  0  0  0  0  0  0  0  0
   77.4970   27.3260   41.9770 C   0  0  0  0  0  0  0  0  0  0  0  0
   76.2700   26.7670   42.7030 C   0  0  0  0  0  0  0  0  0  0  0  0
   75.1100   27.7140   42.5760 N   0  0  0  0  0  0  0  0  0  0  0  0
   76.5800   26.4710   44.1990 C   0  0  0  0  0  0  0  0  0  0  0  0
   75.8020   27.0650   44.9980 O   0  0  0  0  0  0  0  0  0  0  0  0
   77.5300   25.6930   44.4260 O   0  0  0  0  0  0  0  0  0  0  0  0
   76.6920   30.1500   40.4220 C   0  0  0  0  0  0  0  0  0  0  0  0
   77.7678   23.5461   38.3941 H   0  0  0  0  0  0  0  0  0  0  0  0
   78.3189   26.6025   42.0827 H   0  0  0  0  0  0  0  0  0  0  0  0
   77.7205   28.2985   42.4400 H   0  0  0  0  0  0  0  0  0  0  0  0
   75.9992   25.8135   42.2260 H   0  0  0  0  0  0  0  0  0  0  0  0
   74.7814   27.9822   43.5146 H   0  0  0  0  0  0  0  0  0  0  0  0
   75.4086   28.5559   42.0632 H   0  0  0  0  0  0  0  0  0  0  0  0
   77.7860   25.4833   45.3591 H   0  0  0  0  0  0  0  0  0  0  0  0
   76.6939   30.1398   41.5220 H   0  0  0  0  0  0  0  0  0  0  0  0
   77.4776   30.8297   40.0603 H   0  0  0  0  0  0  0  0  0  0  0  0
   75.7125   30.4961   40.0603 H   0  0  0  0  0  0  0  0  0  0  0  0
  1  2  1  0
  2  3  2  0
  2  4  1  0
  4  5  2  0
  4  8  1  0
  5  6  1  0
  6  7  1  0
  7  8  2  0
  7 15  1  0
  8  9  1  0
  9 10  1  0
 10 11  1  0
 10 12  1  0
 12 13  2  0
 12 14  1  0
  1 16  1  0
  9 17  1  0
  9 18  1  0
 10 19  1  0
 11 20  1  0
 11 21  1  0
 14 22  1  0
 15 23  1  0
 15 24  1  0
 15 25  1  0
A    1
O1
A    2
C1
A    3
O2
A    4
C2
A    5
N1
A    6
O3
A    7
C3
A    8
C4
A    9
C5
A   10
C6
A   11
N2
A   12
C7
A   13
O4
A   14
O5
A   15
C8
M  END
