1M67_BOA_A_402
     RDKit          3D

 14 15  0  0  0  0  0  0  0  0999 V2000
   33.2130   56.8540   31.4240 O   0  0  0  0  0  0  0  0  0  0  0  0
   33.8920   55.9380   30.9070 C   0  0  0  0  0  0  0  0  0  0  0  0
   35.2010   55.8360   31.1340 N   0  0  0  0  0  0  0  0  0  0  0  0
   35.9390   54.8620   30.5870 C   0  0  0  0  0  0  0  0  0  0  0  0
   37.7700   54.8530   30.9930 Br  0  0  0  0  0  0  0  0  0  0  0  0
   33.2790   54.9240   30.0230 C   0  0  0  0  0  0  0  0  0  0  0  0
   34.1570   53.8870   29.4630 C   0  0  0  0  0  0  0  0  0  0  0  0
   35.4530   53.9120   29.7750 N   0  0  0  0  0  0  0  0  0  0  0  0
   32.0520   54.6780   29.5620 N   0  0  0  0  0  0  0  0  0  0  0  0
   32.1100   53.5760   28.7690 C   0  0  0  0  0  0  0  0  0  0  0  0
   33.3800   53.0990   28.7080 N   0  0  0  0  0  0  0  0  0  0  0  0
   33.1554   56.9317   32.4093 H   0  0  0  0  0  0  0  0  0  0  0  0
   31.2066   55.2281   29.7709 H   0  0  0  0  0  0  0  0  0  0  0  0
   31.2483   53.1322   28.2489 H   0  0  0  0  0  0  0  0  0  0  0  0
  1  2  1  0
  2  3  2  0
  2  6  1  0
  3  4  1  0
  4  5  1  0
  4  8  2  0
  6  7  2  0
  6  9  1  0
  7  8  1  0
  7 11  1  0
  9 10  1  0
 10 11  2  0
  1 12  1  0
  9 13  1  0
 10 14  1  0
A    1
O6
A    2
C6
A    3
N1
A    4
C2
A    5
BR
A    6
C5
A    7
C4
A    8
N3
A    9
N7
A   10
C8
A   11
N9
M  END
