1M79_MQ1_A_194
     RDKit          3D

 35 37  0  0  0  0  0  0  0  0999 V2000
   29.0490   -2.8660   -0.4850 C   0  0  0  0  0  0  0  0  0  0  0  0
   29.2230   -2.8120    0.9140 C   0  0  0  0  0  0  0  0  0  0  0  0
   28.2740   -1.9530    1.6700 C   0  0  0  0  0  0  0  0  0  0  0  0
   27.3430   -1.2680    1.0840 N   0  0  0  0  0  0  0  0  0  0  0  0
   27.2020   -1.2600   -0.2450 C   0  0  0  0  0  0  0  0  0  0  0  0
   28.0110   -2.0510   -1.0670 N   0  0  0  0  0  0  0  0  0  0  0  0
   28.3360   -1.7870    3.0070 N   0  0  0  0  0  0  0  0  0  0  0  0
   29.9380   -3.6380   -1.2920 C   0  0  0  0  0  0  0  0  0  0  0  0
   30.9550   -4.3400   -0.6840 C   0  0  0  0  0  0  0  0  0  0  0  0
   31.1090   -4.3580    0.6910 C   0  0  0  0  0  0  0  0  0  0  0  0
   30.2310   -3.5800    1.4760 C   0  0  0  0  0  0  0  0  0  0  0  0
   26.2550   -0.5620   -0.8530 N   0  0  0  0  0  0  0  0  0  0  0  0
   30.4340   -3.5660    2.8350 O   0  0  0  0  0  0  0  0  0  0  0  0
   31.4130   -4.4100    3.3620 C   0  0  0  0  0  0  0  0  0  0  0  0
   31.1610   -5.7610    3.5000 C   0  0  0  0  0  0  0  0  0  0  0  0
   32.1250   -6.5670    4.0890 C   0  0  0  0  0  0  0  0  0  0  0  0
   33.3320   -6.0360    4.5230 C   0  0  0  0  0  0  0  0  0  0  0  0
   33.5870   -4.6640    4.4060 C   0  0  0  0  0  0  0  0  0  0  0  0
   32.5900   -3.8440    3.8010 C   0  0  0  0  0  0  0  0  0  0  0  0
   34.3370   -6.8310    5.0540 O   0  0  0  0  0  0  0  0  0  0  0  0
   34.0550   -8.2080    5.1700 C   0  0  0  0  0  0  0  0  0  0  0  0
   28.0503   -2.5520    3.6347 H   0  0  0  0  0  0  0  0  0  0  0  0
   28.6691   -0.8952    3.4003 H   0  0  0  0  0  0  0  0  0  0  0  0
   29.8125   -3.6718   -2.3843 H   0  0  0  0  0  0  0  0  0  0  0  0
   31.6647   -4.9021   -1.3089 H   0  0  0  0  0  0  0  0  0  0  0  0
   31.8971   -4.9644    1.1613 H   0  0  0  0  0  0  0  0  0  0  0  0
   25.5570   -0.0476   -0.2970 H   0  0  0  0  0  0  0  0  0  0  0  0
   26.2164   -0.5335   -1.8819 H   0  0  0  0  0  0  0  0  0  0  0  0
   30.2115   -6.1911    3.1487 H   0  0  0  0  0  0  0  0  0  0  0  0
   31.9299   -7.6423    4.2138 H   0  0  0  0  0  0  0  0  0  0  0  0
   34.5302   -4.2311    4.7707 H   0  0  0  0  0  0  0  0  0  0  0  0
   32.7598   -2.7634    3.6851 H   0  0  0  0  0  0  0  0  0  0  0  0
   33.9988   -8.4824    6.2337 H   0  0  0  0  0  0  0  0  0  0  0  0
   33.0932   -8.4276    4.6834 H   0  0  0  0  0  0  0  0  0  0  0  0
   34.8530   -8.7880    4.6834 H   0  0  0  0  0  0  0  0  0  0  0  0
  1  2  1  0
  1  6  2  0
  1  8  1  0
  2  3  2  0
  2 11  1  0
  3  4  1  0
  3  7  1  0
  4  5  2  0
  5  6  1  0
  5 12  1  0
  8  9  2  0
  9 10  1  0
 10 11  2  0
 11 13  1  0
 13 14  1  0
 14 15  2  0
 14 19  1  0
 15 16  1  0
 16 17  2  0
 17 18  1  0
 17 20  1  0
 18 19  2  0
 20 21  1  0
  7 22  1  0
  7 23  1  0
  8 24  1  0
  9 25  1  0
 10 26  1  0
 12 27  1  0
 12 28  1  0
 15 29  1  0
 16 30  1  0
 18 31  1  0
 19 32  1  0
 21 33  1  0
 21 34  1  0
 21 35  1  0
A    1
C1
A    2
C2
A    3
C3
A    4
N4
A    5
C5
A    6
N6
A    7
N7
A    8
C8
A    9
C9
A   10
C12
A   11
C13
A   12
N14
A   13
O20
A   14
C22
A   15
C23
A   16
C24
A   17
C25
A   18
C26
A   19
C27
A   20
O32
A   21
C33
M  END
