1M7Q_DQO_A_501
     RDKit          3D

 53 57  0  0  0  0  0  0  0  0999 V2000
   43.9700   33.1090   31.4590 C   0  0  0  0  0  0  0  0  0  0  0  0
   43.1590   31.9130   31.3160 C   0  0  0  0  0  0  0  0  0  0  0  0
   43.8110   30.6620   31.0680 C   0  0  0  0  0  0  0  0  0  0  0  0
   45.2260   30.5790   30.9530 C   0  0  0  0  0  0  0  0  0  0  0  0
   46.0080   31.7440   31.0740 C   0  0  0  0  0  0  0  0  0  0  0  0
   45.4100   33.0490   31.3300 C   0  0  0  0  0  0  0  0  0  0  0  0
   45.9420   29.5640   30.7570 N   0  0  0  0  0  0  0  0  0  0  0  0
   41.6580   31.9160   31.4240 C   0  0  0  0  0  0  0  0  0  0  0  0
   46.1960   34.2930   31.4760 N   0  0  0  0  0  0  0  0  0  0  0  0
   45.5900   35.5440   31.7460 C   0  0  0  0  0  0  0  0  0  0  0  0
   44.2620   35.5890   31.8680 N   0  0  0  0  0  0  0  0  0  0  0  0
   43.3460   34.4680   31.7410 C   0  0  0  0  0  0  0  0  0  0  0  0
   46.2070   36.5930   31.8800 O   0  0  0  0  0  0  0  0  0  0  0  0
   47.3830   34.2240   31.3460 C   0  0  0  0  0  0  0  0  0  0  0  0
   41.0130   31.4150   32.5910 C   0  0  0  0  0  0  0  0  0  0  0  0
   39.5880   31.4310   32.7000 C   0  0  0  0  0  0  0  0  0  0  0  0
   38.8120   31.9600   31.6220 C   0  0  0  0  0  0  0  0  0  0  0  0
   39.4250   32.4610   30.4440 C   0  0  0  0  0  0  0  0  0  0  0  0
   40.8340   32.4370   30.3490 C   0  0  0  0  0  0  0  0  0  0  0  0
   48.3920   33.8600   32.3530 C   0  0  0  0  0  0  0  0  0  0  0  0
   49.7750   33.8300   32.0280 C   0  0  0  0  0  0  0  0  0  0  0  0
   50.2240   34.1480   30.7010 C   0  0  0  0  0  0  0  0  0  0  0  0
   49.2970   34.4980   29.6720 C   0  0  0  0  0  0  0  0  0  0  0  0
   47.9020   34.5410   29.9590 C   0  0  0  0  0  0  0  0  0  0  0  0
   41.3250   32.9390   29.1860 F   0  0  0  0  0  0  0  0  0  0  0  0
   37.4810   31.9890   31.7250 F   0  0  0  0  0  0  0  0  0  0  0  0
   46.8400   34.9750   28.5960 Cl  0  0  0  0  0  0  0  0  0  0  0  0
   47.9630   33.4370   33.9810 Cl  0  0  0  0  0  0  0  0  0  0  0  0
   46.1520   28.9520   29.4020 C   0  0  0  0  0  0  0  0  0  0  0  0
   45.9120   27.4140   29.5260 C   0  0  0  0  0  0  0  0  0  0  0  0
   46.6400   26.7970   30.6970 N   0  0  0  0  0  0  0  0  0  0  0  0
   46.3320   27.4280   32.0110 C   0  0  0  0  0  0  0  0  0  0  0  0
   46.5970   28.9550   31.9860 C   0  0  0  0  0  0  0  0  0  0  0  0
   43.2063   29.7490   30.9646 H   0  0  0  0  0  0  0  0  0  0  0  0
   47.1006   31.6673   30.9725 H   0  0  0  0  0  0  0  0  0  0  0  0
   43.8452   36.5085   32.0722 H   0  0  0  0  0  0  0  0  0  0  0  0
   42.6528   34.6947   30.9175 H   0  0  0  0  0  0  0  0  0  0  0  0
   42.8682   34.3697   32.7269 H   0  0  0  0  0  0  0  0  0  0  0  0
   41.6177   31.0117   33.4166 H   0  0  0  0  0  0  0  0  0  0  0  0
   39.0943   31.0410   33.6023 H   0  0  0  0  0  0  0  0  0  0  0  0
   38.8144   32.8603   29.6208 H   0  0  0  0  0  0  0  0  0  0  0  0
   50.5098   33.5603   32.8009 H   0  0  0  0  0  0  0  0  0  0  0  0
   51.2999   34.1215   30.4734 H   0  0  0  0  0  0  0  0  0  0  0  0
   49.6593   34.7338   28.6605 H   0  0  0  0  0  0  0  0  0  0  0  0
   45.4408   29.3842   28.6827 H   0  0  0  0  0  0  0  0  0  0  0  0
   47.1733   29.1524   29.0458 H   0  0  0  0  0  0  0  0  0  0  0  0
   44.8336   27.2361   29.6502 H   0  0  0  0  0  0  0  0  0  0  0  0
   46.3021   26.9446   28.6109 H   0  0  0  0  0  0  0  0  0  0  0  0
   46.3821   25.8012   30.7489 H   0  0  0  0  0  0  0  0  0  0  0  0
   45.2729   27.2532   32.2516 H   0  0  0  0  0  0  0  0  0  0  0  0
   46.9868   26.9773   32.7713 H   0  0  0  0  0  0  0  0  0  0  0  0
   47.6811   29.1383   31.9523 H   0  0  0  0  0  0  0  0  0  0  0  0
   46.1748   29.4148   32.8917 H   0  0  0  0  0  0  0  0  0  0  0  0
  1  2  1  0
  1  6  2  0
  1 12  1  0
  2  3  2  0
  2  8  1  0
  3  4  1  0
  4  5  2  0
  4  7  1  0
  5  6  1  0
  6  9  1  0
  7 29  1  0
  7 33  1  0
  8 15  2  0
  8 19  1  0
  9 10  1  0
  9 14  1  0
 10 11  1  0
 10 13  2  0
 11 12  1  0
 14 20  2  0
 14 24  1  0
 15 16  1  0
 16 17  2  0
 17 18  1  0
 17 26  1  0
 18 19  2  0
 19 25  1  0
 20 21  1  0
 20 28  1  0
 21 22  2  0
 22 23  1  0
 23 24  2  0
 24 27  1  0
 29 30  1  0
 30 31  1  0
 31 32  1  0
 32 33  1  0
  3 34  1  0
  5 35  1  0
 11 36  1  0
 12 37  1  0
 12 38  1  0
 15 39  1  0
 16 40  1  0
 18 41  1  0
 21 42  1  0
 22 43  1  0
 23 44  1  0
 29 45  1  0
 29 46  1  0
 30 47  1  0
 30 48  1  0
 31 49  1  0
 32 50  1  0
 32 51  1  0
 33 52  1  0
 33 53  1  0
A    1
C1
A    2
C2
A    3
C3
A    4
C4
A    5
C5
A    6
C6
A    7
N9
A    8
C10
A    9
N11
A   10
C12
A   11
N13
A   12
C14
A   13
O18
A   14
C19
A   15
C20
A   16
C21
A   17
C22
A   18
C23
A   19
C24
A   20
C28
A   21
C29
A   22
C30
A   23
C31
A   24
C32
A   25
F36
A   26
F37
A   27
CL38
A   28
CL39
A   29
C40
A   30
C41
A   31
N42
A   32
C43
A   33
C44
M  END
