1MAP_KET_A_412
     RDKit          3D

 40 40  0  0  0  0  0  0  0  0999 V2000
   43.7820   15.8150   45.4620 N   0  0  0  0  0  0  0  0  0  0  0  0
   44.9730   15.4720   45.9950 C   0  0  0  0  0  0  0  0  0  0  0  0
   45.3700   16.0650   47.3230 C   0  0  0  0  0  0  0  0  0  0  0  0
   45.7680   14.5540   45.2780 C   0  0  0  0  0  0  0  0  0  0  0  0
   46.9430   14.2160   45.8560 O   0  0  0  0  0  0  0  0  0  0  0  0
   45.3430   14.0190   44.0760 C   0  0  0  0  0  0  0  0  0  0  0  0
   46.1770   13.0790   43.3690 C   0  0  0  0  0  0  0  0  0  0  0  0
   44.0610   14.4240   43.6120 C   0  0  0  0  0  0  0  0  0  0  0  0
   43.3210   15.3390   44.3000 C   0  0  0  0  0  0  0  0  0  0  0  0
   43.5470   13.9730   42.2130 C   0  0  0  0  0  0  0  0  0  0  0  0
   43.3010   12.5740   42.1310 O   0  0  0  0  0  0  0  0  0  0  0  0
   42.4780   11.9660   40.9090 P   0  0  0  0  0  0  0  0  0  0  0  0
   41.3350   11.1960   41.4430 O   0  0  0  0  0  0  0  0  0  0  0  0
   43.4300   10.9970   40.1470 O   0  0  0  0  0  0  0  0  0  0  0  0
   42.1630   13.1400   40.0980 O   0  0  0  0  0  0  0  0  0  0  0  0
   47.4360   13.1720   43.5860 N   0  0  0  0  0  0  0  0  0  0  0  0
   48.3860   12.9210   42.6910 C   0  0  0  0  0  0  0  0  0  0  0  0
   48.1130   12.4730   41.2420 C   0  0  0  0  0  0  0  0  0  0  0  0
   48.1530   13.6160   40.2680 C   0  0  0  0  0  0  0  0  0  0  0  0
   48.9510   14.5290   40.3610 O   0  0  0  0  0  0  0  0  0  0  0  0
   47.2710   13.5120   39.3030 O   0  0  0  0  0  0  0  0  0  0  0  0
   49.9010   13.1000   42.9970 C   0  0  0  0  0  0  0  0  0  0  0  0
   50.3060   13.9760   43.7380 O   0  0  0  0  0  0  0  0  0  0  0  0
   50.7030   12.2670   42.3730 O   0  0  0  0  0  0  0  0  0  0  0  0
   43.1932   16.4825   45.9802 H   0  0  0  0  0  0  0  0  0  0  0  0
   44.9583   15.4501   48.1369 H   0  0  0  0  0  0  0  0  0  0  0  0
   46.4670   16.0891   47.4005 H   0  0  0  0  0  0  0  0  0  0  0  0
   44.9743   17.0884   47.4005 H   0  0  0  0  0  0  0  0  0  0  0  0
   47.0209   14.1936   46.8427 H   0  0  0  0  0  0  0  0  0  0  0  0
   45.7573   12.3272   42.6844 H   0  0  0  0  0  0  0  0  0  0  0  0
   42.3542   15.6826   43.9035 H   0  0  0  0  0  0  0  0  0  0  0  0
   42.6096   14.5062   41.9963 H   0  0  0  0  0  0  0  0  0  0  0  0
   44.3351   14.2099   41.4830 H   0  0  0  0  0  0  0  0  0  0  0  0
   43.9517   10.4660   40.7996 H   0  0  0  0  0  0  0  0  0  0  0  0
   41.9576   13.9055   40.6913 H   0  0  0  0  0  0  0  0  0  0  0  0
   48.4102   11.8691   43.0117 H   0  0  0  0  0  0  0  0  0  0  0  0
   48.8756   11.7354   40.9515 H   0  0  0  0  0  0  0  0  0  0  0  0
   47.1010   12.0431   41.2107 H   0  0  0  0  0  0  0  0  0  0  0  0
   46.3116   13.3989   39.5194 H   0  0  0  0  0  0  0  0  0  0  0  0
   51.2875   11.6599   42.8924 H   0  0  0  0  0  0  0  0  0  0  0  0
  1  2  2  0
  1  9  1  0
  2  3  1  0
  2  4  1  0
  4  5  1  0
  4  6  2  0
  6  7  1  0
  6  8  1  0
  7 16  2  0
  8  9  2  0
  8 10  1  0
 10 11  1  0
 11 12  1  0
 12 13  2  0
 12 14  1  0
 12 15  1  0
 16 17  1  0
 17 18  1  0
 17 22  1  0
 18 19  1  0
 19 20  2  0
 19 21  1  0
 22 23  2  0
 22 24  1  0
  1 25  1  0
  3 26  1  0
  3 27  1  0
  3 28  1  0
  5 29  1  0
  7 30  1  0
  9 31  1  0
 10 32  1  0
 10 33  1  0
 14 34  1  0
 15 35  1  0
 17 36  1  0
 18 37  1  0
 18 38  1  0
 21 39  1  0
 24 40  1  0
M  CHG  1   1   1
A    1
N1
A    2
C2
A    3
C2A
A    4
C3
A    5
O3
A    6
C4
A    7
C4A
A    8
C5
A    9
C6
A   10
C5A
A   11
OP4
A   12
P
A   13
OP1
A   14
OP2
A   15
OP3
A   16
N
A   17
CA
A   18
CB
A   19
CG
A   20
OD1
A   21
OD2
A   22
C
A   23
O
A   24
OXT
M  END
