1MD2_233_D_2201
     RDKit          3D

 50 50  0  0  0  0  0  0  0  0999 V2000
  -11.2510   19.6650    2.2490 C   0  0  0  0  0  0  0  0  0  0  0  0
  -11.0100   18.4420    3.1300 C   0  0  0  0  0  0  0  0  0  0  0  0
  -11.3960   18.7550    4.5860 C   0  0  0  0  0  0  0  0  0  0  0  0
  -10.6580   20.0290    5.1000 C   0  0  0  0  0  0  0  0  0  0  0  0
  -10.8690   21.1710    4.1010 C   0  0  0  0  0  0  0  0  0  0  0  0
  -10.0350   22.4240    4.4320 C   0  0  0  0  0  0  0  0  0  0  0  0
  -11.8450   17.3720    2.6400 O   0  0  0  0  0  0  0  0  0  0  0  0
  -11.0010   17.6610    5.3980 O   0  0  0  0  0  0  0  0  0  0  0  0
   -9.2310   19.7460    5.1280 O   0  0  0  0  0  0  0  0  0  0  0  0
  -10.4650   20.7670    2.7880 O   0  0  0  0  0  0  0  0  0  0  0  0
  -10.4120   23.5360    3.6260 O   0  0  0  0  0  0  0  0  0  0  0  0
  -10.6430   19.4980    0.9200 N   0  0  0  0  0  0  0  0  0  0  0  0
  -12.2160   20.7980   -0.0440 O   0  0  0  0  0  0  0  0  0  0  0  0
  -11.1900   20.1070   -0.1180 C   0  0  0  0  0  0  0  0  0  0  0  0
  -10.4820   19.8640   -1.4370 C   0  0  0  0  0  0  0  0  0  0  0  0
  -10.4380   21.1460   -2.2600 C   0  0  0  0  0  0  0  0  0  0  0  0
   -9.4770   22.1710   -1.6700 C   0  0  0  0  0  0  0  0  0  0  0  0
   -8.6210   22.7980   -2.7740 C   0  0  0  0  0  0  0  0  0  0  0  0
   -9.1330   24.1370   -3.2590 C   0  0  0  0  0  0  0  0  0  0  0  0
  -10.2870   24.1360   -4.0910 N   0  0  0  0  0  0  0  0  0  0  0  0
  -11.1220   25.0120   -4.6070 C   0  0  0  0  0  0  0  0  0  0  0  0
  -10.8440   26.4100   -4.3710 O   0  0  0  0  0  0  0  0  0  0  0  0
  -12.2340   24.7050   -5.4280 O   0  0  0  0  0  0  0  0  0  0  0  0
  -13.4590   24.1040   -4.9580 C   0  0  0  0  0  0  0  0  0  0  0  0
  -12.3392   19.8202    2.2062 H   0  0  0  0  0  0  0  0  0  0  0  0
   -9.9475   18.1589    3.0981 H   0  0  0  0  0  0  0  0  0  0  0  0
  -12.4816   18.9258    4.6340 H   0  0  0  0  0  0  0  0  0  0  0  0
  -11.0400   20.3037    6.0943 H   0  0  0  0  0  0  0  0  0  0  0  0
  -11.9412   21.4104    4.1568 H   0  0  0  0  0  0  0  0  0  0  0  0
  -10.1860   22.6834    5.4903 H   0  0  0  0  0  0  0  0  0  0  0  0
   -8.9783   22.1959    4.2288 H   0  0  0  0  0  0  0  0  0  0  0  0
  -12.2309   16.8774    3.4059 H   0  0  0  0  0  0  0  0  0  0  0  0
  -11.0906   17.9090    6.3522 H   0  0  0  0  0  0  0  0  0  0  0  0
   -8.9250   19.6853    6.0676 H   0  0  0  0  0  0  0  0  0  0  0  0
  -10.6690   24.2939    4.2088 H   0  0  0  0  0  0  0  0  0  0  0  0
   -9.8027   18.9146    0.7998 H   0  0  0  0  0  0  0  0  0  0  0  0
   -9.4545   19.5244   -1.2397 H   0  0  0  0  0  0  0  0  0  0  0  0
  -11.0319   19.0963   -2.0012 H   0  0  0  0  0  0  0  0  0  0  0  0
  -10.1124   20.9010   -3.2817 H   0  0  0  0  0  0  0  0  0  0  0  0
  -11.4464   21.5855   -2.2581 H   0  0  0  0  0  0  0  0  0  0  0  0
  -10.0538   22.9606   -1.1662 H   0  0  0  0  0  0  0  0  0  0  0  0
   -8.8163   21.6670   -0.9493 H   0  0  0  0  0  0  0  0  0  0  0  0
   -7.6014   22.9369   -2.3853 H   0  0  0  0  0  0  0  0  0  0  0  0
   -8.6547   22.1122   -3.6334 H   0  0  0  0  0  0  0  0  0  0  0  0
   -9.3677   24.7416   -2.3705 H   0  0  0  0  0  0  0  0  0  0  0  0
   -8.3278   24.5310   -3.8965 H   0  0  0  0  0  0  0  0  0  0  0  0
  -10.5409   23.1770   -4.3681 H   0  0  0  0  0  0  0  0  0  0  0  0
  -13.4670   24.1001   -3.8580 H   0  0  0  0  0  0  0  0  0  0  0  0
  -14.3174   24.6832   -5.3289 H   0  0  0  0  0  0  0  0  0  0  0  0
  -13.5263   23.0706   -5.3289 H   0  0  0  0  0  0  0  0  0  0  0  0
  1  2  1  0
  1 10  1  0
  1 12  1  0
  2  3  1  0
  2  7  1  0
  3  4  1  0
  3  8  1  0
  4  5  1  0
  4  9  1  0
  5  6  1  0
  5 10  1  0
  6 11  1  0
 12 14  1  0
 13 14  2  0
 14 15  1  0
 15 16  1  0
 16 17  1  0
 17 18  1  0
 18 19  1  0
 19 20  1  0
 20 21  1  0
 21 22  2  0
 21 23  1  0
 23 24  1  0
  1 25  1  0
  2 26  1  0
  3 27  1  0
  4 28  1  0
  5 29  1  0
  6 30  1  0
  6 31  1  0
  7 32  1  0
  8 33  1  0
  9 34  1  0
 11 35  1  0
 12 36  1  0
 15 37  1  0
 15 38  1  0
 16 39  1  0
 16 40  1  0
 17 41  1  0
 17 42  1  0
 18 43  1  0
 18 44  1  0
 19 45  1  0
 19 46  1  0
 20 47  1  0
 24 48  1  0
 24 49  1  0
 24 50  1  0
A    1
C1
A    2
C2
A    3
C3
A    4
C4
A    5
C5
A    6
C6
A    7
O2
A    8
O3
A    9
O4
A   10
O5
A   11
O6
A   12
N1
A   13
O7
A   14
C7
A   15
C8
A   16
C9
A   17
C10
A   18
C11
A   19
C12
A   20
N13
A   21
C14
A   22
O15
A   23
O16
A   24
C17
M  END
