1MDL_SMN_A_399
     RDKit          3D

 19 19  0  0  0  0  0  0  0  0999 V2000
   30.9900    4.4120   17.1630 C   0  0  0  0  0  0  0  0  0  0  0  0
   32.1080    5.0460   17.7140 C   0  0  0  0  0  0  0  0  0  0  0  0
   33.3790    4.9040   17.1770 C   0  0  0  0  0  0  0  0  0  0  0  0
   33.5240    4.1960   16.0110 C   0  0  0  0  0  0  0  0  0  0  0  0
   32.4330    3.5570   15.4510 C   0  0  0  0  0  0  0  0  0  0  0  0
   31.1570    3.6340   16.0460 C   0  0  0  0  0  0  0  0  0  0  0  0
   29.5990    4.4870   17.8540 C   0  0  0  0  0  0  0  0  0  0  0  0
   29.0730    5.9340   18.0330 C   0  0  0  0  0  0  0  0  0  0  0  0
   28.6710    3.6850   17.0860 O   0  0  0  0  0  0  0  0  0  0  0  0
   27.9450    6.1880   17.6550 O   0  0  0  0  0  0  0  0  0  0  0  0
   29.7570    6.8030   18.5550 O   0  0  0  0  0  0  0  0  0  0  0  0
   31.9749    5.6790   18.6037 H   0  0  0  0  0  0  0  0  0  0  0  0
   34.2523    5.3497   17.6756 H   0  0  0  0  0  0  0  0  0  0  0  0
   34.5075    4.1366   15.5218 H   0  0  0  0  0  0  0  0  0  0  0  0
   32.5629    2.9782   14.5247 H   0  0  0  0  0  0  0  0  0  0  0  0
   30.3082    3.0784   15.6207 H   0  0  0  0  0  0  0  0  0  0  0  0
   29.7013    4.0933   18.8760 H   0  0  0  0  0  0  0  0  0  0  0  0
   28.0846    3.1782   17.7020 H   0  0  0  0  0  0  0  0  0  0  0  0
   29.8075    6.8672   19.5416 H   0  0  0  0  0  0  0  0  0  0  0  0
  1  2  2  0
  1  6  1  0
  1  7  1  0
  2  3  1  0
  3  4  2  0
  4  5  1  0
  5  6  2  0
  7  8  1  0
  7  9  1  0
  8 10  2  0
  8 11  1  0
  2 12  1  0
  3 13  1  0
  4 14  1  0
  5 15  1  0
  6 16  1  0
  7 17  1  0
  9 18  1  0
 11 19  1  0
A    1
C1
A    2
C2
A    3
C3
A    4
C4
A    5
C5
A    6
C6
A    7
C7
A    8
C10
A    9
O8
A   10
O11
A   11
O12
M  END
