1ME6_IVS_A_347
     RDKit          3D

 81 80  0  0  0  0  0  0  0  0999 V2000
   54.2730   65.5340   24.3030 C   0  0  0  0  0  0  0  0  0  0  0  0
   53.4420   64.3420   24.4600 O   0  0  0  0  0  0  0  0  0  0  0  0
   53.8000   63.5170   25.4770 C   0  0  0  0  0  0  0  0  0  0  0  0
   54.7040   63.8940   26.2550 O   0  0  0  0  0  0  0  0  0  0  0  0
   53.4560   62.0860   25.5210 C   0  0  0  0  0  0  0  0  0  0  0  0
   53.7230   61.2950   24.2090 C   0  0  0  0  0  0  0  0  0  0  0  0
   52.5490   60.4830   23.8830 O   0  0  0  0  0  0  0  0  0  0  0  0
   54.9790   60.3420   24.3240 C   0  0  0  0  0  0  0  0  0  0  0  0
   55.2280   59.5220   23.0420 C   0  0  0  0  0  0  0  0  0  0  0  0
   54.8040   59.4120   25.4550 N   0  0  0  0  0  0  0  0  0  0  0  0
   55.7930   59.1970   26.2770 C   0  0  0  0  0  0  0  0  0  0  0  0
   56.8040   59.9180   26.3460 O   0  0  0  0  0  0  0  0  0  0  0  0
   55.6380   57.9670   27.1900 C   0  0  0  0  0  0  0  0  0  0  0  0
   56.6360   56.9940   26.7020 N   0  0  0  0  0  0  0  0  0  0  0  0
   56.2980   55.7420   26.3490 C   0  0  0  0  0  0  0  0  0  0  0  0
   55.1640   55.2720   26.4220 O   0  0  0  0  0  0  0  0  0  0  0  0
   57.4480   54.8670   25.8580 C   0  0  0  0  0  0  0  0  0  0  0  0
   57.3190   53.6780   26.7020 N   0  0  0  0  0  0  0  0  0  0  0  0
   58.3320   53.4330   27.5890 C   0  0  0  0  0  0  0  0  0  0  0  0
   59.3500   54.1360   27.7260 O   0  0  0  0  0  0  0  0  0  0  0  0
   58.1040   52.2010   28.4270 C   0  0  0  0  0  0  0  0  0  0  0  0
   57.7490   52.5020   29.8930 C   0  0  0  0  0  0  0  0  0  0  0  0
   56.5360   53.4220   30.0000 C   0  0  0  0  0  0  0  0  0  0  0  0
   53.6080   66.5310   23.3480 C   0  0  0  0  0  0  0  0  0  0  0  0
   56.5620   59.8610   22.3660 C   0  0  0  0  0  0  0  0  0  0  0  0
   57.7680   59.6170   23.2790 C   0  0  0  0  0  0  0  0  0  0  0  0
   56.7070   59.0110   21.1480 C   0  0  0  0  0  0  0  0  0  0  0  0
   55.8760   58.3690   28.7010 C   0  0  0  0  0  0  0  0  0  0  0  0
   54.8330   59.3860   29.1560 C   0  0  0  0  0  0  0  0  0  0  0  0
   55.7520   57.1450   29.6180 C   0  0  0  0  0  0  0  0  0  0  0  0
   57.3270   54.5790   24.3300 C   0  0  0  0  0  0  0  0  0  0  0  0
   57.4420   55.8600   23.5360 C   0  0  0  0  0  0  0  0  0  0  0  0
   58.4480   53.6960   23.8810 C   0  0  0  0  0  0  0  0  0  0  0  0
   57.5600   51.1400   30.5810 C   0  0  0  0  0  0  0  0  0  0  0  0
   54.4113   66.0105   25.2847 H   0  0  0  0  0  0  0  0  0  0  0  0
   55.2460   65.2364   23.8850 H   0  0  0  0  0  0  0  0  0  0  0  0
   54.0455   61.6198   26.3242 H   0  0  0  0  0  0  0  0  0  0  0  0
   52.3695   62.0405   25.6865 H   0  0  0  0  0  0  0  0  0  0  0  0
   53.9267   62.0333   23.4194 H   0  0  0  0  0  0  0  0  0  0  0  0
   52.1135   60.1818   24.7195 H   0  0  0  0  0  0  0  0  0  0  0  0
   55.8521   60.9919   24.4833 H   0  0  0  0  0  0  0  0  0  0  0  0
   55.2286   58.4535   23.3035 H   0  0  0  0  0  0  0  0  0  0  0  0
   54.4257   59.7692   22.3312 H   0  0  0  0  0  0  0  0  0  0  0  0
   53.9028   58.9335   25.5952 H   0  0  0  0  0  0  0  0  0  0  0  0
   54.6262   57.5367   27.1551 H   0  0  0  0  0  0  0  0  0  0  0  0
   57.6217   57.2839   26.6299 H   0  0  0  0  0  0  0  0  0  0  0  0
   58.4438   55.3259   25.9462 H   0  0  0  0  0  0  0  0  0  0  0  0
   56.5027   53.0539   26.6315 H   0  0  0  0  0  0  0  0  0  0  0  0
   57.2783   51.6269   27.9814 H   0  0  0  0  0  0  0  0  0  0  0  0
   59.0507   51.6410   28.4360 H   0  0  0  0  0  0  0  0  0  0  0  0
   58.5496   53.0599   30.4006 H   0  0  0  0  0  0  0  0  0  0  0  0
   56.3025   53.5991   31.0602 H   0  0  0  0  0  0  0  0  0  0  0  0
   56.7584   54.3806   29.5084 H   0  0  0  0  0  0  0  0  0  0  0  0
   55.6729   52.9494   29.5084 H   0  0  0  0  0  0  0  0  0  0  0  0
   53.0902   67.3072   23.9306 H   0  0  0  0  0  0  0  0  0  0  0  0
   54.3754   66.9991   22.7140 H   0  0  0  0  0  0  0  0  0  0  0  0
   52.8810   66.0023   22.7140 H   0  0  0  0  0  0  0  0  0  0  0  0
   56.5458   60.9324   22.1172 H   0  0  0  0  0  0  0  0  0  0  0  0
   57.4509   59.6812   24.3303 H   0  0  0  0  0  0  0  0  0  0  0  0
   58.1814   58.6170   23.0811 H   0  0  0  0  0  0  0  0  0  0  0  0
   58.5376   60.3776   23.0811 H   0  0  0  0  0  0  0  0  0  0  0  0
   56.8850   57.9678   21.4480 H   0  0  0  0  0  0  0  0  0  0  0  0
   55.7861   59.0683   20.5491 H   0  0  0  0  0  0  0  0  0  0  0  0
   57.5568   59.3704   20.5491 H   0  0  0  0  0  0  0  0  0  0  0  0
   56.8878   58.7954   28.7670 H   0  0  0  0  0  0  0  0  0  0  0  0
   54.8038   59.4145   30.2552 H   0  0  0  0  0  0  0  0  0  0  0  0
   55.0987   60.3813   28.7704 H   0  0  0  0  0  0  0  0  0  0  0  0
   53.8447   59.0952   28.7704 H   0  0  0  0  0  0  0  0  0  0  0  0
   55.7848   57.4691   30.6686 H   0  0  0  0  0  0  0  0  0  0  0  0
   54.7976   56.6347   29.4214 H   0  0  0  0  0  0  0  0  0  0  0  0
   56.5847   56.4537   29.4214 H   0  0  0  0  0  0  0  0  0  0  0  0
   56.3504   54.1011   24.1631 H   0  0  0  0  0  0  0  0  0  0  0  0
   57.5186   56.7134   24.2259 H   0  0  0  0  0  0  0  0  0  0  0  0
   58.3401   55.8191   22.9021 H   0  0  0  0  0  0  0  0  0  0  0  0
   56.5510   55.9798   22.9021 H   0  0  0  0  0  0  0  0  0  0  0  0
   58.9673   53.2870   24.7602 H   0  0  0  0  0  0  0  0  0  0  0  0
   58.0447   52.8703   23.2763 H   0  0  0  0  0  0  0  0  0  0  0  0
   59.1563   54.2814   23.2763 H   0  0  0  0  0  0  0  0  0  0  0  0
   57.5787   51.2749   31.6725 H   0  0  0  0  0  0  0  0  0  0  0  0
   56.5934   50.7088   30.2813 H   0  0  0  0  0  0  0  0  0  0  0  0
   58.3727   50.4619   30.2813 H   0  0  0  0  0  0  0  0  0  0  0  0
  1  2  1  0
  1 24  1  0
  2  3  1  0
  3  4  2  0
  3  5  1  0
  5  6  1  0
  6  7  1  0
  6  8  1  0
  8  9  1  0
  8 10  1  0
  9 25  1  0
 10 11  1  0
 11 12  2  0
 11 13  1  0
 13 14  1  0
 13 28  1  0
 14 15  1  0
 15 16  2  0
 15 17  1  0
 17 18  1  0
 17 31  1  0
 18 19  1  0
 19 20  2  0
 19 21  1  0
 21 22  1  0
 22 23  1  0
 22 34  1  0
 25 26  1  0
 25 27  1  0
 28 29  1  0
 28 30  1  0
 31 32  1  0
 31 33  1  0
  1 35  1  0
  1 36  1  0
  5 37  1  0
  5 38  1  0
  6 39  1  0
  7 40  1  0
  8 41  1  0
  9 42  1  0
  9 43  1  0
 10 44  1  0
 13 45  1  0
 14 46  1  0
 17 47  1  0
 18 48  1  0
 21 49  1  0
 21 50  1  0
 22 51  1  0
 23 52  1  0
 23 53  1  0
 23 54  1  0
 24 55  1  0
 24 56  1  0
 24 57  1  0
 25 58  1  0
 26 59  1  0
 26 60  1  0
 26 61  1  0
 27 62  1  0
 27 63  1  0
 27 64  1  0
 28 65  1  0
 29 66  1  0
 29 67  1  0
 29 68  1  0
 30 69  1  0
 30 70  1  0
 30 71  1  0
 31 72  1  0
 32 73  1  0
 32 74  1  0
 32 75  1  0
 33 76  1  0
 33 77  1  0
 33 78  1  0
 34 79  1  0
 34 80  1  0
 34 81  1  0
A    1
C57
A    2
O56
A    3
C53
A    4
O75
A    5
C52
A    6
C51
A    7
O72
A    8
C23
A    9
C58
A   10
N22
A   11
C21
A   12
O19
A   13
C20
A   14
N19
A   15
C18
A   16
O36
A   17
C17
A   18
N16
A   19
C12
A   20
O15
A   21
C10
A   22
C2
A   23
C6
A   24
C76
A   25
C60
A   26
C67
A   27
C63
A   28
C38
A   29
C40
A   30
C44
A   31
C25
A   32
C27
A   33
C31
A   34
C1
M  END
