1MN9_RTP_A_160
     RDKit          3D

 44 45  0  0  0  0  0  0  0  0999 V2000
   70.0200   29.1910    2.1890 P   0  0  0  0  0  0  0  0  0  0  0  0
   70.4090   30.4430    2.9010 O   0  0  0  0  0  0  0  0  0  0  0  0
   70.1770   27.9030    2.9240 O   0  0  0  0  0  0  0  0  0  0  0  0
   70.6850   29.3210    0.8610 O   0  0  0  0  0  0  0  0  0  0  0  0
   68.4370   29.3140    1.8860 O   0  0  0  0  0  0  0  0  0  0  0  0
   67.3110   29.1810    0.7370 P   0  0  0  0  0  0  0  0  0  0  0  0
   67.5840   27.9800   -0.0980 O   0  0  0  0  0  0  0  0  0  0  0  0
   65.9830   29.3250    1.3750 O   0  0  0  0  0  0  0  0  0  0  0  0
   67.4870   30.4490   -0.2150 O   0  0  0  0  0  0  0  0  0  0  0  0
   68.2070   30.6740   -1.6210 P   0  0  0  0  0  0  0  0  0  0  0  0
   67.1900   30.7300   -2.7040 O   0  0  0  0  0  0  0  0  0  0  0  0
   69.3520   29.7350   -1.7300 O   0  0  0  0  0  0  0  0  0  0  0  0
   68.7850   32.1350   -1.3840 O   0  0  0  0  0  0  0  0  0  0  0  0
   69.7850   32.3530   -0.4040 C   0  0  0  0  0  0  0  0  0  0  0  0
   69.3340   33.4110    0.5640 C   0  0  0  0  0  0  0  0  0  0  0  0
   69.3620   34.7110   -0.0840 O   0  0  0  0  0  0  0  0  0  0  0  0
   68.2010   35.4600    0.2670 C   0  0  0  0  0  0  0  0  0  0  0  0
   67.3870   35.6090   -0.9340 N   0  0  0  0  0  0  0  0  0  0  0  0
   66.7520   36.7470   -1.3400 N   0  0  0  0  0  0  0  0  0  0  0  0
   65.2750   38.5860   -2.7230 N   0  0  0  0  0  0  0  0  0  0  0  0
   65.3130   37.3100   -3.2900 C   0  0  0  0  0  0  0  0  0  0  0  0
   64.6960   37.0780   -4.3350 O   0  0  0  0  0  0  0  0  0  0  0  0
   66.1010   36.4210   -2.5240 C   0  0  0  0  0  0  0  0  0  0  0  0
   66.3460   35.0870   -2.8370 N   0  0  0  0  0  0  0  0  0  0  0  0
   67.1060   34.6510   -1.8730 C   0  0  0  0  0  0  0  0  0  0  0  0
   67.4720   34.6990    1.3770 C   0  0  0  0  0  0  0  0  0  0  0  0
   67.9550   35.1380    2.6350 O   0  0  0  0  0  0  0  0  0  0  0  0
   67.9030   33.2870    1.0440 C   0  0  0  0  0  0  0  0  0  0  0  0
   67.7990   32.4120    2.1590 O   0  0  0  0  0  0  0  0  0  0  0  0
   70.1561   28.0746    3.8988 H   0  0  0  0  0  0  0  0  0  0  0  0
   71.6482   29.5093    0.9913 H   0  0  0  0  0  0  0  0  0  0  0  0
   66.0869   29.3137    2.3595 H   0  0  0  0  0  0  0  0  0  0  0  0
   69.6595   29.4829   -0.8234 H   0  0  0  0  0  0  0  0  0  0  0  0
   69.9712   31.4159    0.1412 H   0  0  0  0  0  0  0  0  0  0  0  0
   70.7090   32.6865   -0.8989 H   0  0  0  0  0  0  0  0  0  0  0  0
   70.0219   33.2910    1.4140 H   0  0  0  0  0  0  0  0  0  0  0  0
   68.4413   36.4654    0.6432 H   0  0  0  0  0  0  0  0  0  0  0  0
   65.2718   38.6945   -1.6987 H   0  0  0  0  0  0  0  0  0  0  0  0
   65.2502   39.4184   -3.3292 H   0  0  0  0  0  0  0  0  0  0  0  0
   67.4837   33.6193   -1.8182 H   0  0  0  0  0  0  0  0  0  0  0  0
   66.3806   34.8238    1.4341 H   0  0  0  0  0  0  0  0  0  0  0  0
   67.4544   34.6830    3.3578 H   0  0  0  0  0  0  0  0  0  0  0  0
   67.2497   32.8427    0.2786 H   0  0  0  0  0  0  0  0  0  0  0  0
   67.8613   32.9360    2.9966 H   0  0  0  0  0  0  0  0  0  0  0  0
  1  2  2  0
  1  3  1  0
  1  4  1  0
  1  5  1  0
  5  6  1  0
  6  7  2  0
  6  8  1  0
  6  9  1  0
  9 10  1  0
 10 11  2  0
 10 12  1  0
 10 13  1  0
 13 14  1  0
 14 15  1  0
 15 16  1  0
 15 28  1  0
 16 17  1  0
 17 18  1  0
 17 26  1  0
 18 19  1  0
 18 25  1  0
 19 23  2  0
 20 21  1  0
 21 22  2  0
 21 23  1  0
 23 24  1  0
 24 25  2  0
 26 27  1  0
 26 28  1  0
 28 29  1  0
  3 30  1  0
  4 31  1  0
  8 32  1  0
 12 33  1  0
 14 34  1  0
 14 35  1  0
 15 36  1  0
 17 37  1  0
 20 38  1  0
 20 39  1  0
 25 40  1  0
 26 41  1  0
 27 42  1  0
 28 43  1  0
 29 44  1  0
A    1
PG
A    2
O1G
A    3
O2G
A    4
O3G
A    5
O3B
A    6
PB
A    7
O1B
A    8
O2B
A    9
O3A
A   10
PA
A   11
O1A
A   12
O2A
A   13
O5'
A   14
C5'
A   15
C4'
A   16
O4'
A   17
C1'
A   18
N1
A   19
N2
A   20
N3
A   21
C6
A   22
O3
A   23
C3
A   24
N4
A   25
C5
A   26
C2'
A   27
O2'
A   28
C3'
A   29
O3'
M  END
