1IFU_FMC_A_264
     RDKit          3D

 28 30  0  0  0  0  0  0  0  0999 V2000
   60.5800  -23.4560   98.3750 N   0  0  0  0  0  0  0  0  0  0  0  0
   60.0870  -23.0600   97.2310 C   0  0  0  0  0  0  0  0  0  0  0  0
   58.9040  -23.2050   96.7920 N   0  0  0  0  0  0  0  0  0  0  0  0
   58.1530  -23.8540   97.6930 C   0  0  0  0  0  0  0  0  0  0  0  0
   58.5560  -24.2920   98.9280 C   0  0  0  0  0  0  0  0  0  0  0  0
   59.8540  -24.0890   99.3080 C   0  0  0  0  0  0  0  0  0  0  0  0
   60.3740  -24.4930  100.4700 N   0  0  0  0  0  0  0  0  0  0  0  0
   57.5360  -24.9090   99.5160 N   0  0  0  0  0  0  0  0  0  0  0  0
   56.5040  -24.8620   98.6450 N   0  0  0  0  0  0  0  0  0  0  0  0
   56.7930  -24.2260   97.4890 C   0  0  0  0  0  0  0  0  0  0  0  0
   55.8260  -23.9700   96.3090 C   0  0  0  0  0  0  0  0  0  0  0  0
   56.4910  -23.8720   94.9190 C   0  0  0  0  0  0  0  0  0  0  0  0
   55.6520  -23.0510   93.9660 O   0  0  0  0  0  0  0  0  0  0  0  0
   56.5740  -25.3040   94.5890 C   0  0  0  0  0  0  0  0  0  0  0  0
   56.9320  -25.3560   93.2060 O   0  0  0  0  0  0  0  0  0  0  0  0
   55.0940  -25.6610   94.9450 C   0  0  0  0  0  0  0  0  0  0  0  0
   54.8450  -25.0260   96.1980 O   0  0  0  0  0  0  0  0  0  0  0  0
   60.7856  -22.5342   96.5635 H   0  0  0  0  0  0  0  0  0  0  0  0
   59.9617  -24.1727  101.3578 H   0  0  0  0  0  0  0  0  0  0  0  0
   61.1873  -25.1249  100.4783 H   0  0  0  0  0  0  0  0  0  0  0  0
   57.5329  -25.3387  100.4521 H   0  0  0  0  0  0  0  0  0  0  0  0
   55.3840  -22.9945   96.5601 H   0  0  0  0  0  0  0  0  0  0  0  0
   57.4616  -23.3566   94.8712 H   0  0  0  0  0  0  0  0  0  0  0  0
   55.0484  -22.4604   94.4826 H   0  0  0  0  0  0  0  0  0  0  0  0
   57.2908  -25.9786   95.0801 H   0  0  0  0  0  0  0  0  0  0  0  0
   57.9083  -25.4978   93.1229 H   0  0  0  0  0  0  0  0  0  0  0  0
   54.4089  -25.2763   94.1751 H   0  0  0  0  0  0  0  0  0  0  0  0
   54.9354  -26.7482   94.9973 H   0  0  0  0  0  0  0  0  0  0  0  0
  1  2  2  0
  1  6  1  0
  2  3  1  0
  3  4  2  0
  4  5  1  0
  4 10  1  0
  5  6  2  0
  5  8  1  0
  6  7  1  0
  8  9  1  0
  9 10  2  0
 10 11  1  0
 11 12  1  0
 11 17  1  0
 12 13  1  0
 12 14  1  0
 14 15  1  0
 14 16  1  0
 16 17  1  0
  2 18  1  0
  7 19  1  0
  7 20  1  0
  8 21  1  0
 11 22  1  0
 12 23  1  0
 13 24  1  0
 14 25  1  0
 15 26  1  0
 16 27  1  0
 16 28  1  0
A    1
N1
A    2
C2
A    3
N3
A    4
C4
A    5
C5
A    6
C6
A    7
N6
A    8
N7
A    9
N8
A   10
C9
A   11
C1'
A   12
C2'
A   13
O2'
A   14
C3'
A   15
O3'
A   16
C4'
A   17
O4'
M  END
