1MTC_GPR_A_5218
     RDKit          3D

 62 64  0  0  0  0  0  0  0  0999 V2000
   14.7140   14.6330   24.8280 N   0  0  0  0  0  0  0  0  0  0  0  0
   14.3700   15.4060   26.1090 C   0  0  0  0  0  0  0  0  0  0  0  0
   13.3900   16.5210   25.9510 C   0  0  0  0  0  0  0  0  0  0  0  0
   12.5670   16.7820   26.8510 O   0  0  0  0  0  0  0  0  0  0  0  0
   13.3410   17.1330   24.7270 O   0  0  0  0  0  0  0  0  0  0  0  0
   15.6300   16.0370   26.7430 C   0  0  0  0  0  0  0  0  0  0  0  0
   15.5450   15.7070   28.1800 C   0  0  0  0  0  0  0  0  0  0  0  0
   16.6200   16.0430   29.0850 C   0  0  0  0  0  0  0  0  0  0  0  0
   17.8030   15.7410   28.7570 O   0  0  0  0  0  0  0  0  0  0  0  0
   16.2060   16.3550   30.3400 N   0  0  0  0  0  0  0  0  0  0  0  0
   17.3000   16.8680   31.2000 C   0  0  0  0  0  0  0  0  0  0  0  0
   17.2890   16.1660   32.6180 C   0  0  0  0  0  0  0  0  0  0  0  0
   17.6750   16.9010   33.5470 O   0  0  0  0  0  0  0  0  0  0  0  0
   16.9960   18.3810   31.4070 C   0  0  0  0  0  0  0  0  0  0  0  0
   17.3270   19.1790   29.8370 S   0  0  0  0  0  0  0  0  0  0  0  0
   16.5530   15.0890   32.6910 N   0  0  0  0  0  0  0  0  0  0  0  0
   16.0170   14.6450   34.0200 C   0  0  0  0  0  0  0  0  0  0  0  0
   16.9140   13.6680   34.6310 C   0  0  0  0  0  0  0  0  0  0  0  0
   17.8960   13.1100   34.0960 O   0  0  0  0  0  0  0  0  0  0  0  0
   16.5630   12.9510   35.6710 O   0  0  0  0  0  0  0  0  0  0  0  0
   18.9470   18.7650   30.1900 C   0  0  0  0  0  0  0  0  0  0  0  0
   19.6670   20.0820   30.4570 C   0  0  0  0  0  0  0  0  0  0  0  0
   19.9510   20.5020   31.8010 C   0  0  0  0  0  0  0  0  0  0  0  0
   20.5210   21.7700   31.9730 C   0  0  0  0  0  0  0  0  0  0  0  0
   20.8030   22.5950   30.8700 C   0  0  0  0  0  0  0  0  0  0  0  0
   20.5310   22.1900   29.5580 C   0  0  0  0  0  0  0  0  0  0  0  0
   19.9590   20.9300   29.3420 C   0  0  0  0  0  0  0  0  0  0  0  0
   19.7100   20.3120   27.9940 C   0  0  0  0  0  0  0  0  0  0  0  0
   19.1340   21.1490   26.9720 C   0  0  0  0  0  0  0  0  0  0  0  0
   18.7770   20.4770   25.8240 C   0  0  0  0  0  0  0  0  0  0  0  0
   18.9280   19.1180   25.6100 C   0  0  0  0  0  0  0  0  0  0  0  0
   19.4870   18.3210   26.5990 C   0  0  0  0  0  0  0  0  0  0  0  0
   19.8620   18.9500   27.7880 C   0  0  0  0  0  0  0  0  0  0  0  0
   19.3860   18.0400   28.9350 C   0  0  0  0  0  0  0  0  0  0  0  0
   20.1700   16.8870   28.8510 O   0  0  0  0  0  0  0  0  0  0  0  0
   15.1204   13.7198   25.0767 H   0  0  0  0  0  0  0  0  0  0  0  0
   13.8579   14.4883   24.2739 H   0  0  0  0  0  0  0  0  0  0  0  0
   13.9136   14.6295   26.7404 H   0  0  0  0  0  0  0  0  0  0  0  0
   13.2621   18.1181   24.6689 H   0  0  0  0  0  0  0  0  0  0  0  0
   16.5410   15.6069   26.3014 H   0  0  0  0  0  0  0  0  0  0  0  0
   15.6775   17.1226   26.5719 H   0  0  0  0  0  0  0  0  0  0  0  0
   14.6446   16.2092   28.5636 H   0  0  0  0  0  0  0  0  0  0  0  0
   15.5654   14.6072   28.1775 H   0  0  0  0  0  0  0  0  0  0  0  0
   15.2334   16.2467   30.6613 H   0  0  0  0  0  0  0  0  0  0  0  0
   18.2776   16.6785   30.7327 H   0  0  0  0  0  0  0  0  0  0  0  0
   15.9430   18.5226   31.6918 H   0  0  0  0  0  0  0  0  0  0  0  0
   17.6145   18.8071   32.2107 H   0  0  0  0  0  0  0  0  0  0  0  0
   16.3419   14.5476   31.8406 H   0  0  0  0  0  0  0  0  0  0  0  0
   15.9256   15.5175   34.6836 H   0  0  0  0  0  0  0  0  0  0  0  0
   15.0319   14.1792   33.8694 H   0  0  0  0  0  0  0  0  0  0  0  0
   16.7295   13.2911   36.5857 H   0  0  0  0  0  0  0  0  0  0  0  0
   19.1361   18.1264   31.0655 H   0  0  0  0  0  0  0  0  0  0  0  0
   19.7296   19.8534   32.6614 H   0  0  0  0  0  0  0  0  0  0  0  0
   20.7518   22.1261   32.9878 H   0  0  0  0  0  0  0  0  0  0  0  0
   21.2494   23.5854   31.0427 H   0  0  0  0  0  0  0  0  0  0  0  0
   20.7629   22.8510   28.7099 H   0  0  0  0  0  0  0  0  0  0  0  0
   18.9916   22.2324   27.0981 H   0  0  0  0  0  0  0  0  0  0  0  0
   18.3351   21.0697   25.0095 H   0  0  0  0  0  0  0  0  0  0  0  0
   18.6057   18.6707   24.6582 H   0  0  0  0  0  0  0  0  0  0  0  0
   19.6286   17.2400   26.4526 H   0  0  0  0  0  0  0  0  0  0  0  0
   18.3729   17.6135   28.8939 H   0  0  0  0  0  0  0  0  0  0  0  0
   20.3868   16.5682   29.7628 H   0  0  0  0  0  0  0  0  0  0  0  0
  1  2  1  0
  2  3  1  0
  2  6  1  0
  3  4  2  0
  3  5  1  0
  6  7  1  0
  7  8  1  0
  8  9  2  0
  8 10  1  0
 10 11  1  0
 11 12  1  0
 11 14  1  0
 12 13  2  0
 12 16  1  0
 14 15  1  0
 15 21  1  0
 16 17  1  0
 17 18  1  0
 18 19  2  0
 18 20  1  0
 21 22  1  0
 21 34  1  0
 22 23  1  0
 22 27  2  0
 23 24  2  0
 24 25  1  0
 25 26  2  0
 26 27  1  0
 27 28  1  0
 28 29  1  0
 28 33  2  0
 29 30  2  0
 30 31  1  0
 31 32  2  0
 32 33  1  0
 33 34  1  0
 34 35  1  0
  1 36  1  0
  1 37  1  0
  2 38  1  0
  5 39  1  0
  6 40  1  0
  6 41  1  0
  7 42  1  0
  7 43  1  0
 10 44  1  0
 11 45  1  0
 14 46  1  0
 14 47  1  0
 16 48  1  0
 17 49  1  0
 17 50  1  0
 20 51  1  0
 21 52  1  0
 23 53  1  0
 24 54  1  0
 25 55  1  0
 26 56  1  0
 29 57  1  0
 30 58  1  0
 31 59  1  0
 32 60  1  0
 34 61  1  0
 35 62  1  0
A    1
N1
A    2
CA1
A    3
C1
A    4
O11
A    5
O12
A    6
CB1
A    7
CG1
A    8
CD1
A    9
OE1
A   10
N2
A   11
CA2
A   12
C2
A   13
O2
A   14
CB2
A   15
SG2
A   16
N3
A   17
CA3
A   18
C3
A   19
O31
A   20
O32
A   21
CA4
A   22
CB4
A   23
CG4
A   24
CD4
A   25
CE4
A   26
CZ4
A   27
CH4
A   28
CH5
A   29
CZ5
A   30
CE5
A   31
CD5
A   32
CG5
A   33
CB5
A   34
CA5
A   35
O5
M  END
