1MTS_BX3_A_999
     RDKit          3D

 64 67  0  0  0  0  0  0  0  0999 V2000
   -5.1880    9.9610   19.8880 N   0  0  0  0  0  0  0  0  0  0  0  0
   -3.7550    9.8640   19.6430 C   0  0  0  0  0  0  0  0  0  0  0  0
   -3.0270   10.8440   19.2620 N   0  0  0  0  0  0  0  0  0  0  0  0
   -3.0880    8.5380   19.8600 C   0  0  0  0  0  0  0  0  0  0  0  0
   -1.7840    8.2620   19.3640 C   0  0  0  0  0  0  0  0  0  0  0  0
   -1.1970    7.0190   19.5920 C   0  0  0  0  0  0  0  0  0  0  0  0
   -1.9010    6.0310   20.3120 C   0  0  0  0  0  0  0  0  0  0  0  0
   -3.2350    6.2770   20.8330 C   0  0  0  0  0  0  0  0  0  0  0  0
   -3.8020    7.5630   20.5790 C   0  0  0  0  0  0  0  0  0  0  0  0
   -1.3110    4.8030   20.5280 C   0  0  0  0  0  0  0  0  0  0  0  0
   -2.0710    3.8490   21.2660 C   0  0  0  0  0  0  0  0  0  0  0  0
   -4.0900    5.2030   21.6680 C   0  0  0  0  0  0  0  0  0  0  0  0
   -3.4290    4.0210   21.8140 C   0  0  0  0  0  0  0  0  0  0  0  0
   -4.1630    2.8870   22.6250 C   0  0  0  0  0  0  0  0  0  0  0  0
   -3.5700    2.3870   23.9460 C   0  0  0  0  0  0  0  0  0  0  0  0
   -3.1640    3.4260   24.9990 C   0  0  0  0  0  0  0  0  0  0  0  0
   -4.0290    4.4830   25.3620 C   0  0  0  0  0  0  0  0  0  0  0  0
   -3.6270    5.4140   26.3340 C   0  0  0  0  0  0  0  0  0  0  0  0
   -2.3610    5.2760   26.9230 C   0  0  0  0  0  0  0  0  0  0  0  0
   -1.4900    4.2240   26.5680 C   0  0  0  0  0  0  0  0  0  0  0  0
   -1.8970    3.2900   25.5930 C   0  0  0  0  0  0  0  0  0  0  0  0
   -4.3500    1.2100   24.4570 C   0  0  0  0  0  0  0  0  0  0  0  0
   -3.6990    0.1020   24.3930 O   0  0  0  0  0  0  0  0  0  0  0  0
   -5.5360    1.4380   24.8630 O   0  0  0  0  0  0  0  0  0  0  0  0
   -2.0140    6.2270   27.8580 O   0  0  0  0  0  0  0  0  0  0  0  0
   -1.6330    5.8800   29.1690 C   0  0  0  0  0  0  0  0  0  0  0  0
   -2.8760    5.6810   30.0800 C   0  0  0  0  0  0  0  0  0  0  0  0
   -2.2610    7.6740   31.2900 N   0  0  0  0  0  0  0  0  0  0  0  0
   -1.2620    8.1800   30.3630 C   0  0  0  0  0  0  0  0  0  0  0  0
   -0.6290    6.9620   29.6610 C   0  0  0  0  0  0  0  0  0  0  0  0
   -2.1170    7.7750   32.6020 C   0  0  0  0  0  0  0  0  0  0  0  0
   -1.2650    8.5190   33.1860 N   0  0  0  0  0  0  0  0  0  0  0  0
   -2.9770    6.9470   33.5190 C   0  0  0  0  0  0  0  0  0  0  0  0
   -3.3890    7.0160   30.6450 C   0  0  0  0  0  0  0  0  0  0  0  0
   -5.7155    9.1309   20.1940 H   0  0  0  0  0  0  0  0  0  0  0  0
   -2.5754   11.4520   19.9601 H   0  0  0  0  0  0  0  0  0  0  0  0
   -2.8923   11.0253   18.2571 H   0  0  0  0  0  0  0  0  0  0  0  0
   -1.2375    9.0316   18.7991 H   0  0  0  0  0  0  0  0  0  0  0  0
   -0.1867    6.8085   19.2113 H   0  0  0  0  0  0  0  0  0  0  0  0
   -4.8111    7.7939   20.9509 H   0  0  0  0  0  0  0  0  0  0  0  0
   -0.3044    4.5714   20.1497 H   0  0  0  0  0  0  0  0  0  0  0  0
   -1.5907    2.8760   21.4468 H   0  0  0  0  0  0  0  0  0  0  0  0
   -5.0930    5.3995   22.0747 H   0  0  0  0  0  0  0  0  0  0  0  0
   -5.1728    3.2602   22.8508 H   0  0  0  0  0  0  0  0  0  0  0  0
   -4.0852    2.0111   21.9641 H   0  0  0  0  0  0  0  0  0  0  0  0
   -2.5586    2.0405   23.6870 H   0  0  0  0  0  0  0  0  0  0  0  0
   -5.0154    4.5765   24.8842 H   0  0  0  0  0  0  0  0  0  0  0  0
   -4.2938    6.2378   26.6286 H   0  0  0  0  0  0  0  0  0  0  0  0
   -0.5038    4.1335   27.0468 H   0  0  0  0  0  0  0  0  0  0  0  0
   -1.2310    2.4648   25.3007 H   0  0  0  0  0  0  0  0  0  0  0  0
   -5.7285    1.4750   25.8334 H   0  0  0  0  0  0  0  0  0  0  0  0
   -1.1239    4.9055   29.2028 H   0  0  0  0  0  0  0  0  0  0  0  0
   -3.6779    5.2120   29.4909 H   0  0  0  0  0  0  0  0  0  0  0  0
   -2.5816    5.0422   30.9257 H   0  0  0  0  0  0  0  0  0  0  0  0
   -1.7368    8.8378   29.6201 H   0  0  0  0  0  0  0  0  0  0  0  0
   -0.4967    8.7636   30.8957 H   0  0  0  0  0  0  0  0  0  0  0  0
    0.0646    6.4847   30.3689 H   0  0  0  0  0  0  0  0  0  0  0  0
   -0.1382    7.3536   28.7578 H   0  0  0  0  0  0  0  0  0  0  0  0
   -1.2184    8.5393   34.2147 H   0  0  0  0  0  0  0  0  0  0  0  0
   -2.7314    7.1835   34.5648 H   0  0  0  0  0  0  0  0  0  0  0  0
   -4.0370    7.1732   33.3311 H   0  0  0  0  0  0  0  0  0  0  0  0
   -2.7911    5.8792   33.3311 H   0  0  0  0  0  0  0  0  0  0  0  0
   -3.7768    7.6455   29.8306 H   0  0  0  0  0  0  0  0  0  0  0  0
   -4.2050    6.8476   31.3632 H   0  0  0  0  0  0  0  0  0  0  0  0
  1  2  2  3
  2  3  1  0
  2  4  1  0
  4  5  2  0
  4  9  1  0
  5  6  1  0
  6  7  2  0
  7  8  1  0
  7 10  1  0
  8  9  2  0
  8 12  1  0
 10 11  2  0
 11 13  1  0
 12 13  2  0
 13 14  1  0
 14 15  1  0
 15 16  1  0
 15 22  1  0
 16 17  2  0
 16 21  1  0
 17 18  1  0
 18 19  2  0
 19 20  1  0
 19 25  1  0
 20 21  2  0
 22 23  2  0
 22 24  1  0
 25 26  1  0
 26 27  1  0
 26 30  1  0
 27 34  1  0
 28 29  1  0
 28 31  1  0
 28 34  1  0
 29 30  1  0
 31 32  2  3
 31 33  1  0
  1 35  1  0
  3 36  1  0
  3 37  1  0
  5 38  1  0
  6 39  1  0
  9 40  1  0
 10 41  1  0
 11 42  1  0
 12 43  1  0
 14 44  1  0
 14 45  1  0
 15 46  1  0
 17 47  1  0
 18 48  1  0
 20 49  1  0
 21 50  1  0
 24 51  1  0
 26 52  1  0
 27 53  1  0
 27 54  1  0
 29 55  1  0
 29 56  1  0
 30 57  1  0
 30 58  1  0
 32 59  1  0
 33 60  1  0
 33 61  1  0
 33 62  1  0
 34 63  1  0
 34 64  1  0
A    1
N1
A    2
C2
A    3
N3
A    4
C4
A    5
C5
A    6
C6
A    7
C7
A    8
C8
A    9
C9
A   10
C10
A   11
C11
A   12
C12
A   13
C13
A   14
C14
A   15
C15
A   16
C16
A   17
C17
A   18
C18
A   19
C19
A   20
C20
A   21
C21
A   22
C22
A   23
O23
A   24
O24
A   25
O25
A   26
C26
A   27
C27
A   28
N28
A   29
C29
A   30
C30
A   31
C31
A   32
N32
A   33
C33
A   34
C34
M  END
