1MXC_ABP_A_385
     RDKit          3D

 42 44  0  0  0  0  0  0  0  0999 V2000
  -13.6070   42.7550   18.0520 P   0  0  0  0  0  0  0  0  0  0  0  0
  -12.2780   43.3390   18.3720 O   0  0  0  0  0  0  0  0  0  0  0  0
  -13.5260   41.3580   17.4910 O   0  0  0  0  0  0  0  0  0  0  0  0
  -14.5490   42.8870   19.1840 O   0  0  0  0  0  0  0  0  0  0  0  0
  -15.7830   43.1090   16.5160 P   0  0  0  0  0  0  0  0  0  0  0  0
  -16.6370   43.2510   17.7490 O   0  0  0  0  0  0  0  0  0  0  0  0
  -15.6240   41.7610   15.8750 O   0  0  0  0  0  0  0  0  0  0  0  0
  -14.2890   43.6630   16.8810 O   0  0  0  0  0  0  0  0  0  0  0  0
  -16.5270   44.1000   15.5050 O   0  0  0  0  0  0  0  0  0  0  0  0
  -17.0240   43.7720   14.2060 C   0  0  0  0  0  0  0  0  0  0  0  0
  -16.0600   44.2130   13.0910 C   0  0  0  0  0  0  0  0  0  0  0  0
  -16.6040   45.2620   12.2550 O   0  0  0  0  0  0  0  0  0  0  0  0
  -14.7230   44.7220   13.6260 C   0  0  0  0  0  0  0  0  0  0  0  0
  -13.8120   43.6300   13.8740 O   0  0  0  0  0  0  0  0  0  0  0  0
  -14.2340   45.7190   12.5810 C   0  0  0  0  0  0  0  0  0  0  0  0
  -13.2810   45.0960   11.6960 O   0  0  0  0  0  0  0  0  0  0  0  0
  -15.5050   46.1010   11.7920 C   0  0  0  0  0  0  0  0  0  0  0  0
  -15.8720   47.5710   11.7690 N   0  0  0  0  0  0  0  0  0  0  0  0
  -15.2790   48.7560   12.2870 C   0  0  0  0  0  0  0  0  0  0  0  0
  -14.0590   48.9630   13.7470 Br  0  0  0  0  0  0  0  0  0  0  0  0
  -15.6850   49.8310   11.6620 N   0  0  0  0  0  0  0  0  0  0  0  0
  -16.6270   49.3890   10.7390 C   0  0  0  0  0  0  0  0  0  0  0  0
  -17.2870   50.0500    9.6790 C   0  0  0  0  0  0  0  0  0  0  0  0
  -17.3990   51.3760    9.6220 N   0  0  0  0  0  0  0  0  0  0  0  0
  -17.9220   49.2960    8.7600 N   0  0  0  0  0  0  0  0  0  0  0  0
  -17.9830   47.9860    8.9440 C   0  0  0  0  0  0  0  0  0  0  0  0
  -17.4180   47.2410    9.8890 N   0  0  0  0  0  0  0  0  0  0  0  0
  -16.7550   48.0260   10.7960 C   0  0  0  0  0  0  0  0  0  0  0  0
  -13.4882   40.7055   18.2346 H   0  0  0  0  0  0  0  0  0  0  0  0
  -14.0516   42.8173   20.0371 H   0  0  0  0  0  0  0  0  0  0  0  0
  -15.5424   41.0688   16.5781 H   0  0  0  0  0  0  0  0  0  0  0  0
  -17.1639   42.6827   14.1441 H   0  0  0  0  0  0  0  0  0  0  0  0
  -17.9757   44.3046   14.0622 H   0  0  0  0  0  0  0  0  0  0  0  0
  -15.9092   43.2973   12.5004 H   0  0  0  0  0  0  0  0  0  0  0  0
  -14.8096   45.2160   14.6050 H   0  0  0  0  0  0  0  0  0  0  0  0
  -13.7065   43.5035   14.8502 H   0  0  0  0  0  0  0  0  0  0  0  0
  -13.7340   46.5869   13.0358 H   0  0  0  0  0  0  0  0  0  0  0  0
  -12.5835   44.6400   12.2304 H   0  0  0  0  0  0  0  0  0  0  0  0
  -15.2800   45.9091   10.7325 H   0  0  0  0  0  0  0  0  0  0  0  0
  -17.4455   51.9267   10.4911 H   0  0  0  0  0  0  0  0  0  0  0  0
  -17.4391   51.8507    8.7088 H   0  0  0  0  0  0  0  0  0  0  0  0
  -18.5883   47.4350    8.2091 H   0  0  0  0  0  0  0  0  0  0  0  0
  1  2  2  0
  1  3  1  0
  1  4  1  0
  1  8  1  0
  5  6  2  0
  5  7  1  0
  5  8  1  0
  5  9  1  0
  9 10  1  0
 10 11  1  0
 11 12  1  0
 11 13  1  0
 12 17  1  0
 13 14  1  0
 13 15  1  0
 15 16  1  0
 15 17  1  0
 17 18  1  0
 18 19  1  0
 18 28  1  0
 19 20  1  0
 19 21  2  0
 21 22  1  0
 22 23  1  0
 22 28  2  0
 23 24  1  0
 23 25  2  0
 25 26  1  0
 26 27  2  0
 27 28  1  0
  3 29  1  0
  4 30  1  0
  7 31  1  0
 10 32  1  0
 10 33  1  0
 11 34  1  0
 13 35  1  0
 14 36  1  0
 15 37  1  0
 16 38  1  0
 17 39  1  0
 24 40  1  0
 24 41  1  0
 26 42  1  0
A    1
PB
A    2
O1B
A    3
O2B
A    4
O3B
A    5
PA
A    6
O1A
A    7
O2A
A    8
O3A
A    9
O5'
A   10
C5'
A   11
C4'
A   12
O4'
A   13
C3'
A   14
O3'
A   15
C2'
A   16
O2'
A   17
C1'
A   18
N9
A   19
C8
A   20
BR8
A   21
N7
A   22
C5
A   23
C6
A   24
N6
A   25
N1
A   26
C2
A   27
N3
A   28
C4
M  END
