1N0U_SO1_A_843
     RDKit          3D

 77 81  0  0  0  0  0  0  0  0999 V2000
   73.5780   56.4450   17.8940 O   0  0  0  0  0  0  0  0  0  0  0  0
   74.7810   56.1340   18.0310 C   0  0  0  0  0  0  0  0  0  0  0  0
   75.7690   56.9160   18.0860 O   0  0  0  0  0  0  0  0  0  0  0  0
   75.0880   54.5970   18.1300 C   0  0  0  0  0  0  0  0  0  0  0  0
   75.6900   54.0340   16.7740 C   0  0  0  0  0  0  0  0  0  0  0  0
   75.5400   52.6650   16.8680 C   0  0  0  0  0  0  0  0  0  0  0  0
   74.9070   52.4090   18.2170 C   0  0  0  0  0  0  0  0  0  0  0  0
   76.0400   52.6070   19.2760 C   0  0  0  0  0  0  0  0  0  0  0  0
   76.0060   54.1740   19.4040 C   0  0  0  0  0  0  0  0  0  0  0  0
   77.4090   54.7920   19.2660 C   0  0  0  0  0  0  0  0  0  0  0  0
   78.4330   54.1740   19.0560 O   0  0  0  0  0  0  0  0  0  0  0  0
   75.2860   54.7010   20.7060 C   0  0  0  0  0  0  0  0  0  0  0  0
   75.9060   54.5300   22.0760 C   0  0  0  0  0  0  0  0  0  0  0  0
   74.7430   54.9410   22.9870 C   0  0  0  0  0  0  0  0  0  0  0  0
   73.4380   54.5230   22.2550 C   0  0  0  0  0  0  0  0  0  0  0  0
   72.5480   55.7540   22.0350 C   0  0  0  0  0  0  0  0  0  0  0  0
   73.9770   53.8780   20.9560 C   0  0  0  0  0  0  0  0  0  0  0  0
   73.0930   53.8050   19.7130 C   0  0  0  0  0  0  0  0  0  0  0  0
   73.8990   53.6000   18.3410 C   0  0  0  0  0  0  0  0  0  0  0  0
   72.7480   53.5740   17.2740 C   0  0  0  0  0  0  0  0  0  0  0  0
   72.0730   52.3450   17.3850 O   0  0  0  0  0  0  0  0  0  0  0  0
   70.9840   52.2120   16.5240 C   0  0  0  0  0  0  0  0  0  0  0  0
   70.0070   53.2670   16.7900 O   0  0  0  0  0  0  0  0  0  0  0  0
   68.9220   53.2750   15.8440 C   0  0  0  0  0  0  0  0  0  0  0  0
   68.0010   54.4470   16.2080 C   0  0  0  0  0  0  0  0  0  0  0  0
   68.1750   51.9010   15.8900 C   0  0  0  0  0  0  0  0  0  0  0  0
   67.0910   51.8670   14.9390 O   0  0  0  0  0  0  0  0  0  0  0  0
   65.8060   51.6550   15.5250 C   0  0  0  0  0  0  0  0  0  0  0  0
   69.1510   50.7520   15.5710 C   0  0  0  0  0  0  0  0  0  0  0  0
   69.6330   50.8670   14.2330 O   0  0  0  0  0  0  0  0  0  0  0  0
   70.3440   50.7920   16.5400 C   0  0  0  0  0  0  0  0  0  0  0  0
   69.8840   50.4540   17.8470 O   0  0  0  0  0  0  0  0  0  0  0  0
   76.3000   54.8350   15.6410 C   0  0  0  0  0  0  0  0  0  0  0  0
   77.4120   54.0600   14.9040 C   0  0  0  0  0  0  0  0  0  0  0  0
   75.2290   55.2730   14.6170 C   0  0  0  0  0  0  0  0  0  0  0  0
   73.0107   56.5917   18.6920 H   0  0  0  0  0  0  0  0  0  0  0  0
   76.6809   53.9578   17.2455 H   0  0  0  0  0  0  0  0  0  0  0  0
   74.8878   52.2954   16.0630 H   0  0  0  0  0  0  0  0  0  0  0  0
   76.5045   52.1454   16.7694 H   0  0  0  0  0  0  0  0  0  0  0  0
   74.4402   51.4211   18.3438 H   0  0  0  0  0  0  0  0  0  0  0  0
   75.8016   52.1123   20.2291 H   0  0  0  0  0  0  0  0  0  0  0  0
   77.0164   52.1811   19.0017 H   0  0  0  0  0  0  0  0  0  0  0  0
   77.4908   55.8844   19.3659 H   0  0  0  0  0  0  0  0  0  0  0  0
   75.2530   55.7685   20.4426 H   0  0  0  0  0  0  0  0  0  0  0  0
   76.2076   53.4872   22.2540 H   0  0  0  0  0  0  0  0  0  0  0  0
   76.8258   55.1134   22.2296 H   0  0  0  0  0  0  0  0  0  0  0  0
   74.8178   54.4238   23.9549 H   0  0  0  0  0  0  0  0  0  0  0  0
   74.7576   56.0227   23.1860 H   0  0  0  0  0  0  0  0  0  0  0  0
   72.7879   53.8241   22.8017 H   0  0  0  0  0  0  0  0  0  0  0  0
   72.2483   56.1685   23.0088 H   0  0  0  0  0  0  0  0  0  0  0  0
   73.1068   56.5141   21.4693 H   0  0  0  0  0  0  0  0  0  0  0  0
   71.6511   55.4616   21.4693 H   0  0  0  0  0  0  0  0  0  0  0  0
   74.0878   52.7957   21.1182 H   0  0  0  0  0  0  0  0  0  0  0  0
   72.3979   52.9610   19.8336 H   0  0  0  0  0  0  0  0  0  0  0  0
   72.5789   54.7743   19.6346 H   0  0  0  0  0  0  0  0  0  0  0  0
   72.0479   54.4015   17.4613 H   0  0  0  0  0  0  0  0  0  0  0  0
   73.1651   53.6882   16.2626 H   0  0  0  0  0  0  0  0  0  0  0  0
   71.3619   52.3321   15.4979 H   0  0  0  0  0  0  0  0  0  0  0  0
   69.2833   53.4087   14.8137 H   0  0  0  0  0  0  0  0  0  0  0  0
   67.9329   54.5336   17.3025 H   0  0  0  0  0  0  0  0  0  0  0  0
   68.4111   55.3787   15.7912 H   0  0  0  0  0  0  0  0  0  0  0  0
   66.9987   54.2688   15.7912 H   0  0  0  0  0  0  0  0  0  0  0  0
   67.7681   51.7776   16.9045 H   0  0  0  0  0  0  0  0  0  0  0  0
   65.8960   51.6698   16.6212 H   0  0  0  0  0  0  0  0  0  0  0  0
   65.1199   52.4521   15.2026 H   0  0  0  0  0  0  0  0  0  0  0  0
   65.4123   50.6798   15.2026 H   0  0  0  0  0  0  0  0  0  0  0  0
   68.6137   49.7988   15.6834 H   0  0  0  0  0  0  0  0  0  0  0  0
   70.5959   51.0967   14.2477 H   0  0  0  0  0  0  0  0  0  0  0  0
   71.1121   50.0674   16.2318 H   0  0  0  0  0  0  0  0  0  0  0  0
   70.4669   50.8823   18.5230 H   0  0  0  0  0  0  0  0  0  0  0  0
   76.7463   55.7249   16.1089 H   0  0  0  0  0  0  0  0  0  0  0  0
   78.0827   53.5926   15.6400 H   0  0  0  0  0  0  0  0  0  0  0  0
   76.9595   53.2806   14.2733 H   0  0  0  0  0  0  0  0  0  0  0  0
   77.9866   54.7543   14.2733 H   0  0  0  0  0  0  0  0  0  0  0  0
   74.3387   55.6371   15.1506 H   0  0  0  0  0  0  0  0  0  0  0  0
   75.6329   56.0782   13.9857 H   0  0  0  0  0  0  0  0  0  0  0  0
   74.9530   54.4155   13.9857 H   0  0  0  0  0  0  0  0  0  0  0  0
  1  2  1  0
  2  3  2  0
  2  4  1  0
  4  5  1  0
  4  9  1  0
  4 19  1  0
  5  6  1  0
  5 33  1  0
  6  7  1  0
  7  8  1  0
  7 19  1  0
  8  9  1  0
  9 10  1  0
  9 12  1  0
 10 11  2  0
 12 13  1  0
 12 17  1  0
 13 14  1  0
 14 15  1  0
 15 16  1  0
 15 17  1  0
 17 18  1  0
 18 19  1  0
 19 20  1  0
 20 21  1  0
 21 22  1  0
 22 23  1  0
 22 31  1  0
 23 24  1  0
 24 25  1  0
 24 26  1  0
 26 27  1  0
 26 29  1  0
 27 28  1  0
 29 30  1  0
 29 31  1  0
 31 32  1  0
 33 34  1  0
 33 35  1  0
  1 36  1  0
  5 37  1  0
  6 38  1  0
  6 39  1  0
  7 40  1  0
  8 41  1  0
  8 42  1  0
 10 43  1  0
 12 44  1  0
 13 45  1  0
 13 46  1  0
 14 47  1  0
 14 48  1  0
 15 49  1  0
 16 50  1  0
 16 51  1  0
 16 52  1  0
 17 53  1  0
 18 54  1  0
 18 55  1  0
 20 56  1  0
 20 57  1  0
 22 58  1  0
 24 59  1  0
 25 60  1  0
 25 61  1  0
 25 62  1  0
 26 63  1  0
 28 64  1  0
 28 65  1  0
 28 66  1  0
 29 67  1  0
 30 68  1  0
 31 69  1  0
 32 70  1  0
 33 71  1  0
 34 72  1  0
 34 73  1  0
 34 74  1  0
 35 75  1  0
 35 76  1  0
 35 77  1  0
A    1
O14
A    2
C5
A    3
O15
A    4
C1
A    5
C4
A    6
C12
A    7
C6
A    8
C10
A    9
C3
A   10
C11
A   11
O19
A   12
C9
A   13
C18
A   14
C24
A   15
C22
A   16
C25
A   17
C16
A   18
C7
A   19
C2
A   20
C8
A   21
O17
A   22
C52
A   23
O56
A   24
C56
A   25
C61
A   26
C55
A   27
O64
A   28
C65
A   29
C54
A   30
O60
A   31
C53
A   32
O57
A   33
C13
A   34
C20
A   35
C21
M  END
