1N1M_A3M_A_954
     RDKit          3D

 30 30  0  0  0  0  0  0  0  0999 V2000
   84.1890   77.2130   97.3480 C   0  0  0  0  0  0  0  0  0  0  0  0
   82.8540   76.3810   97.0320 C   0  0  0  0  0  0  0  0  0  0  0  0
   82.6620   75.5160   98.2090 N   0  0  0  0  0  0  0  0  0  0  0  0
   84.0340   75.2340   98.6920 C   0  0  0  0  0  0  0  0  0  0  0  0
   84.6320   76.6600   98.7760 C   0  0  0  0  0  0  0  0  0  0  0  0
   81.8000   74.3630   97.9530 C   0  0  0  0  0  0  0  0  0  0  0  0
   80.4200   74.3850   97.4480 C   0  0  0  0  0  0  0  0  0  0  0  0
   79.2960   74.2300   98.4320 C   0  0  0  0  0  0  0  0  0  0  0  0
   79.2210   75.2820   99.4580 C   0  0  0  0  0  0  0  0  0  0  0  0
   82.3220   73.1150   98.2010 O   0  0  0  0  0  0  0  0  0  0  0  0
   80.2150   73.3530   96.3790 N   0  0  0  0  0  0  0  0  0  0  0  0
   77.8050   74.2860   97.6340 C   0  0  0  0  0  0  0  0  0  0  0  0
   84.9637   77.0183   96.5917 H   0  0  0  0  0  0  0  0  0  0  0  0
   84.0323   78.3017   97.3362 H   0  0  0  0  0  0  0  0  0  0  0  0
   81.9965   77.0581   96.9047 H   0  0  0  0  0  0  0  0  0  0  0  0
   82.9364   75.8021   96.1003 H   0  0  0  0  0  0  0  0  0  0  0  0
   84.0204   74.7455   99.6775 H   0  0  0  0  0  0  0  0  0  0  0  0
   84.6031   74.5466   98.0488 H   0  0  0  0  0  0  0  0  0  0  0  0
   85.7262   76.6406   98.8876 H   0  0  0  0  0  0  0  0  0  0  0  0
   84.2971   77.2592   99.6355 H   0  0  0  0  0  0  0  0  0  0  0  0
   80.3508   75.4196   97.0808 H   0  0  0  0  0  0  0  0  0  0  0  0
   79.5042   73.2657   98.9185 H   0  0  0  0  0  0  0  0  0  0  0  0
   79.2537   74.8228  100.4570 H   0  0  0  0  0  0  0  0  0  0  0  0
   80.0725   75.9687   99.3420 H   0  0  0  0  0  0  0  0  0  0  0  0
   78.2807   75.8410   99.3420 H   0  0  0  0  0  0  0  0  0  0  0  0
   80.0332   72.4379   96.8155 H   0  0  0  0  0  0  0  0  0  0  0  0
   79.4106   73.6200   95.7937 H   0  0  0  0  0  0  0  0  0  0  0  0
   76.9931   74.3165   98.3756 H   0  0  0  0  0  0  0  0  0  0  0  0
   77.7600   75.1865   97.0038 H   0  0  0  0  0  0  0  0  0  0  0  0
   77.6926   73.3914   97.0038 H   0  0  0  0  0  0  0  0  0  0  0  0
  1  2  1  0
  1  5  1  0
  2  3  1  0
  3  4  1  0
  3  6  1  0
  4  5  1  0
  6  7  1  0
  6 10  2  0
  7  8  1  0
  7 11  1  0
  8  9  1  0
  8 12  1  0
  1 13  1  0
  1 14  1  0
  2 15  1  0
  2 16  1  0
  4 17  1  0
  4 18  1  0
  5 19  1  0
  5 20  1  0
  7 21  1  0
  8 22  1  0
  9 23  1  0
  9 24  1  0
  9 25  1  0
 11 26  1  0
 11 27  1  0
 12 28  1  0
 12 29  1  0
 12 30  1  0
A    1
C1
A    2
C2
A    3
N3
A    4
C4
A    5
C5
A    6
C14
A    7
C15
A    8
C16
A    9
C17
A   10
O18
A   11
N19
A   12
C26
M  END
