1N2V_BDI_A_900
     RDKit          3D

 27 28  0  0  0  0  0  0  0  0999 V2000
   15.4350   16.8530   20.4090 N   0  0  0  0  0  0  0  0  0  0  0  0
   16.5900   17.0760   19.8060 C   0  0  0  0  0  0  0  0  0  0  0  0
   16.7440   17.0260   18.2840 C   0  0  0  0  0  0  0  0  0  0  0  0
   15.6650   17.7690   17.4320 C   0  0  0  0  0  0  0  0  0  0  0  0
   16.3420   18.3730   16.1580 C   0  0  0  0  0  0  0  0  0  0  0  0
   15.3430   19.1170   15.2380 C   0  0  0  0  0  0  0  0  0  0  0  0
   17.4900   17.3220   20.6050 N   0  0  0  0  0  0  0  0  0  0  0  0
   17.0380   17.3010   21.9580 C   0  0  0  0  0  0  0  0  0  0  0  0
   17.7020   17.5270   23.2770 C   0  0  0  0  0  0  0  0  0  0  0  0
   16.8750   17.4100   24.4010 N   0  0  0  0  0  0  0  0  0  0  0  0
   15.4120   17.0790   24.3150 N   0  0  0  0  0  0  0  0  0  0  0  0
   14.7400   16.8560   23.0980 C   0  0  0  0  0  0  0  0  0  0  0  0
   13.5080   16.5760   23.0100 O   0  0  0  0  0  0  0  0  0  0  0  0
   15.6460   16.9830   21.8390 C   0  0  0  0  0  0  0  0  0  0  0  0
   18.9000   17.7960   23.3310 O   0  0  0  0  0  0  0  0  0  0  0  0
   17.7216   17.4650   18.0357 H   0  0  0  0  0  0  0  0  0  0  0  0
   16.6297   15.9637   18.0223 H   0  0  0  0  0  0  0  0  0  0  0  0
   14.8812   17.0586   17.1304 H   0  0  0  0  0  0  0  0  0  0  0  0
   15.2142   18.5757   18.0286 H   0  0  0  0  0  0  0  0  0  0  0  0
   17.1199   19.0823   16.4771 H   0  0  0  0  0  0  0  0  0  0  0  0
   16.7617   17.5364   15.5801 H   0  0  0  0  0  0  0  0  0  0  0  0
   14.6123   19.6612   15.8544 H   0  0  0  0  0  0  0  0  0  0  0  0
   15.8900   19.8295   14.6030 H   0  0  0  0  0  0  0  0  0  0  0  0
   14.8171   18.3888   14.6030 H   0  0  0  0  0  0  0  0  0  0  0  0
   18.4622   17.5211   20.3290 H   0  0  0  0  0  0  0  0  0  0  0  0
   17.2899   17.5581   25.3320 H   0  0  0  0  0  0  0  0  0  0  0  0
   14.8735   17.0118   25.1904 H   0  0  0  0  0  0  0  0  0  0  0  0
  1  2  2  0
  1 14  1  0
  2  3  1  0
  2  7  1  0
  3  4  1  0
  4  5  1  0
  5  6  1  0
  7  8  1  0
  8  9  1  0
  8 14  2  0
  9 10  1  0
  9 15  2  0
 10 11  1  0
 11 12  1  0
 12 13  2  0
 12 14  1  0
  3 16  1  0
  3 17  1  0
  4 18  1  0
  4 19  1  0
  5 20  1  0
  5 21  1  0
  6 22  1  0
  6 23  1  0
  6 24  1  0
  7 25  1  0
 10 26  1  0
 11 27  1  0
A    1
N1
A    2
C1
A    3
C6
A    4
C7
A    5
C8
A    6
C9
A    7
N2
A    8
C2
A    9
C4
A   10
N5
A   11
N4
A   12
C5
A   13
O1
A   14
C3
A   15
O3
M  END
