1N38_U3H_A_1291
     RDKit          3D

 45 46  0  0  0  0  0  0  0  0999 V2000
   -6.9420   90.5220   18.8390 N   0  0  0  0  0  0  0  0  0  0  0  0
   -7.5980   91.3030   19.7670 C   0  0  0  0  0  0  0  0  0  0  0  0
   -7.2710   88.9570   19.1300 C   0  0  0  0  0  0  0  0  0  0  0  0
   -6.7900   88.0680   18.4270 O   0  0  0  0  0  0  0  0  0  0  0  0
   -8.1220   88.6680   20.1930 N   0  0  0  0  0  0  0  0  0  0  0  0
   -8.7210   89.5850   21.0590 C   0  0  0  0  0  0  0  0  0  0  0  0
   -9.4500   89.1700   21.9640 O   0  0  0  0  0  0  0  0  0  0  0  0
   -8.4220   90.9800   20.7930 C   0  0  0  0  0  0  0  0  0  0  0  0
   -6.0020   90.8240   17.6730 C   0  0  0  0  0  0  0  0  0  0  0  0
   -6.5720   90.5630   16.2650 C   0  0  0  0  0  0  0  0  0  0  0  0
   -5.7330   89.6530   15.5720 O   0  0  0  0  0  0  0  0  0  0  0  0
   -6.7080   91.8890   15.5750 C   0  0  0  0  0  0  0  0  0  0  0  0
   -5.8060   92.8000   16.3750 C   0  0  0  0  0  0  0  0  0  0  0  0
   -5.4690   92.1850   17.6380 O   0  0  0  0  0  0  0  0  0  0  0  0
   -6.3310   94.2470   16.2750 C   0  0  0  0  0  0  0  0  0  0  0  0
   -6.5100   95.0090   17.4550 O   0  0  0  0  0  0  0  0  0  0  0  0
   -7.7400   96.1260   17.4780 P   0  0  0  0  0  0  0  0  0  0  0  0
   -7.1600   97.5380   17.1320 O   0  0  0  0  0  0  0  0  0  0  0  0
   -8.3410   96.1050   18.9110 O   0  0  0  0  0  0  0  0  0  0  0  0
   -8.7490   95.5150   16.2600 O   0  0  0  0  0  0  0  0  0  0  0  0
   -9.0710   96.3460   14.8580 P   0  0  0  0  0  0  0  0  0  0  0  0
  -10.0090   95.4150   13.9950 O   0  0  0  0  0  0  0  0  0  0  0  0
   -7.7510   96.6340   14.0570 O   0  0  0  0  0  0  0  0  0  0  0  0
   -9.9880   97.7030   15.2610 O   0  0  0  0  0  0  0  0  0  0  0  0
  -10.1800   99.0070   14.2720 P   0  0  0  0  0  0  0  0  0  0  0  0
   -9.4170   99.2120   12.9190 O   0  0  0  0  0  0  0  0  0  0  0  0
  -11.1020  100.1710   14.8710 O   0  0  0  0  0  0  0  0  0  0  0  0
   -8.8950   99.5980   14.9930 O   0  0  0  0  0  0  0  0  0  0  0  0
   -7.4204   92.3827   19.6540 H   0  0  0  0  0  0  0  0  0  0  0  0
   -8.1417   89.0155   18.4603 H   0  0  0  0  0  0  0  0  0  0  0  0
   -6.4075   87.3610   19.0049 H   0  0  0  0  0  0  0  0  0  0  0  0
   -8.3319   87.6732   20.3581 H   0  0  0  0  0  0  0  0  0  0  0  0
   -8.8613   91.7698   21.4201 H   0  0  0  0  0  0  0  0  0  0  0  0
   -5.2050   90.0997   17.8969 H   0  0  0  0  0  0  0  0  0  0  0  0
   -7.5660   90.0935   16.3046 H   0  0  0  0  0  0  0  0  0  0  0  0
   -5.2287   89.1061   16.2252 H   0  0  0  0  0  0  0  0  0  0  0  0
   -6.3728   91.8238   14.5294 H   0  0  0  0  0  0  0  0  0  0  0  0
   -7.7480   92.2451   15.5346 H   0  0  0  0  0  0  0  0  0  0  0  0
   -4.7911   92.9305   15.9713 H   0  0  0  0  0  0  0  0  0  0  0  0
   -5.6226   94.8008   15.6414 H   0  0  0  0  0  0  0  0  0  0  0  0
   -7.3543   94.1235   15.8908 H   0  0  0  0  0  0  0  0  0  0  0  0
   -7.6085   96.1306   19.5765 H   0  0  0  0  0  0  0  0  0  0  0  0
   -7.0086   96.7960   14.6916 H   0  0  0  0  0  0  0  0  0  0  0  0
  -11.0752  100.1372   15.8601 H   0  0  0  0  0  0  0  0  0  0  0  0
   -9.0130   99.5437   15.9744 H   0  0  0  0  0  0  0  0  0  0  0  0
  1  2  1  0
  1  3  1  0
  1  9  1  0
  2  8  2  0
  3  4  1  0
  3  5  1  0
  5  6  1  0
  6  7  2  0
  6  8  1  0
  9 10  1  0
  9 14  1  0
 10 11  1  0
 10 12  1  0
 12 13  1  0
 13 14  1  0
 13 15  1  0
 15 16  1  0
 16 17  1  0
 17 18  2  0
 17 19  1  0
 17 20  1  0
 20 21  1  0
 21 22  2  0
 21 23  1  0
 21 24  1  0
 24 25  1  0
 25 26  2  0
 25 27  1  0
 25 28  1  0
  2 29  1  0
  3 30  1  0
  4 31  1  0
  5 32  1  0
  8 33  1  0
  9 34  1  0
 10 35  1  0
 11 36  1  0
 12 37  1  0
 12 38  1  0
 13 39  1  0
 15 40  1  0
 15 41  1  0
 19 42  1  0
 23 43  1  0
 27 44  1  0
 28 45  1  0
A    1
N1
A    2
C6
A    3
C2
A    4
O2
A    5
N3
A    6
C4
A    7
O4
A    8
C5
A    9
C1'
A   10
C2'
A   11
O2'
A   12
C3'
A   13
C4'
A   14
O4'
A   15
C5'
A   16
O5'
A   17
PA
A   18
O1A
A   19
O2A
A   20
O3A
A   21
PB
A   22
O1B
A   23
O2B
A   24
O3B
A   25
PG
A   26
O1G
A   27
O2G
A   28
O3G
M  END
