1N5X_TEI_A_3006
     RDKit          3D

 38 39  0  0  0  0  0  0  0  0999 V2000
   95.1310   53.2300   37.2650 S   0  0  0  0  0  0  0  0  0  0  0  0
   96.5130   54.1640   37.6660 C   0  0  0  0  0  0  0  0  0  0  0  0
   97.3280   54.2960   36.6080 N   0  0  0  0  0  0  0  0  0  0  0  0
   96.8960   53.6620   35.4320 C   0  0  0  0  0  0  0  0  0  0  0  0
   95.6840   53.0200   35.6330 C   0  0  0  0  0  0  0  0  0  0  0  0
   96.7180   54.7310   39.0410 C   0  0  0  0  0  0  0  0  0  0  0  0
   97.5480   55.8750   39.1820 C   0  0  0  0  0  0  0  0  0  0  0  0
   97.7550   56.4230   40.4630 C   0  0  0  0  0  0  0  0  0  0  0  0
   97.1330   55.8360   41.6260 C   0  0  0  0  0  0  0  0  0  0  0  0
   96.2080   54.5770   41.5250 C   0  0  0  0  0  0  0  0  0  0  0  0
   95.9890   54.0250   40.3080 C   0  0  0  0  0  0  0  0  0  0  0  0
   98.6370   57.6530   40.6750 C   0  0  0  0  0  0  0  0  0  0  0  0
   99.3000   58.5780   40.8690 N   0  0  0  0  0  0  0  0  0  0  0  0
   97.4030   56.4620   42.8840 O   0  0  0  0  0  0  0  0  0  0  0  0
   96.7730   55.8680   44.0470 C   0  0  0  0  0  0  0  0  0  0  0  0
   97.0280   56.7240   45.3450 C   0  0  0  0  0  0  0  0  0  0  0  0
   96.6120   58.1770   45.1640 C   0  0  0  0  0  0  0  0  0  0  0  0
   96.2640   56.1480   46.5160 C   0  0  0  0  0  0  0  0  0  0  0  0
   97.7260   53.7410   34.1910 C   0  0  0  0  0  0  0  0  0  0  0  0
   94.8710   52.2080   34.6070 C   0  0  0  0  0  0  0  0  0  0  0  0
   95.2600   52.0480   33.4450 O   0  0  0  0  0  0  0  0  0  0  0  0
   93.8190   51.7400   35.0430 O   0  0  0  0  0  0  0  0  0  0  0  0
   98.0241   56.3283   38.3001 H   0  0  0  0  0  0  0  0  0  0  0  0
   95.7445   54.1487   42.4260 H   0  0  0  0  0  0  0  0  0  0  0  0
   95.3475   53.1401   40.1838 H   0  0  0  0  0  0  0  0  0  0  0  0
   95.6893   55.8009   43.8708 H   0  0  0  0  0  0  0  0  0  0  0  0
   97.2082   54.8697   44.2020 H   0  0  0  0  0  0  0  0  0  0  0  0
   98.1102   56.6890   45.5387 H   0  0  0  0  0  0  0  0  0  0  0  0
   96.4779   58.6456   46.1501 H   0  0  0  0  0  0  0  0  0  0  0  0
   97.3922   58.7149   44.6055 H   0  0  0  0  0  0  0  0  0  0  0  0
   95.6653   58.2205   44.6055 H   0  0  0  0  0  0  0  0  0  0  0  0
   96.7200   56.4918   47.4561 H   0  0  0  0  0  0  0  0  0  0  0  0
   95.2174   56.4838   46.4718 H   0  0  0  0  0  0  0  0  0  0  0  0
   96.2988   55.0494   46.4718 H   0  0  0  0  0  0  0  0  0  0  0  0
   98.7865   53.8419   34.4650 H   0  0  0  0  0  0  0  0  0  0  0  0
   97.5862   52.8255   33.5975 H   0  0  0  0  0  0  0  0  0  0  0  0
   97.4160   54.6137   33.5975 H   0  0  0  0  0  0  0  0  0  0  0  0
   96.1614   51.6772   33.2714 H   0  0  0  0  0  0  0  0  0  0  0  0
  1  2  1  0
  1  5  1  0
  2  3  2  0
  2  6  1  0
  3  4  1  0
  4  5  2  0
  4 19  1  0
  5 20  1  0
  6  7  2  0
  6 11  1  0
  7  8  1  0
  8  9  2  0
  8 12  1  0
  9 10  1  0
  9 14  1  0
 10 11  2  0
 12 13  3  0
 14 15  1  0
 15 16  1  0
 16 17  1  0
 16 18  1  0
 20 21  1  0
 20 22  2  0
  7 23  1  0
 10 24  1  0
 11 25  1  0
 15 26  1  0
 15 27  1  0
 16 28  1  0
 17 29  1  0
 17 30  1  0
 17 31  1  0
 18 32  1  0
 18 33  1  0
 18 34  1  0
 19 35  1  0
 19 36  1  0
 19 37  1  0
 21 38  1  0
A    1
S1
A    2
C2
A    3
N3
A    4
C4
A    5
C5
A    6
C6
A    7
C7
A    8
C8
A    9
C9
A   10
C10
A   11
C11
A   12
C12
A   13
N13
A   14
O14
A   15
C15
A   16
C16
A   17
C17
A   18
C18
A   19
C19
A   20
C20
A   21
O21
A   22
O22
M  END
