1M56_PEH_A_2009
     RDKit          3D

133132  0  0  0  0  0  0  0  0999 V2000
  -38.6610  174.1370  -25.4410 P   0  0  0  0  0  0  0  0  0  0  0  0
  -37.9010  177.2360  -28.9920 N   0  0  0  0  0  0  0  0  0  0  0  0
  -37.1930  173.6280  -25.0930 O   0  0  0  0  0  0  0  0  0  0  0  0
  -38.5500  175.6980  -25.8830 O   0  0  0  0  0  0  0  0  0  0  0  0
  -39.5740  174.0570  -24.2090 O   0  0  0  0  0  0  0  0  0  0  0  0
  -39.1960  173.1920  -26.4780 O   0  0  0  0  0  0  0  0  0  0  0  0
  -38.9670  176.0340  -27.2020 C   0  0  0  0  0  0  0  0  0  0  0  0
  -38.2480  177.3390  -27.5200 C   0  0  0  0  0  0  0  0  0  0  0  0
  -36.2920  174.5590  -24.5000 C   0  0  0  0  0  0  0  0  0  0  0  0
  -34.9140  173.9790  -24.7510 C   0  0  0  0  0  0  0  0  0  0  0  0
  -34.0310  174.8440  -23.8650 C   0  0  0  0  0  0  0  0  0  0  0  0
  -32.9470  173.9600  -23.5200 O   0  0  0  0  0  0  0  0  0  0  0  0
  -32.4590  175.6160  -21.7160 O   0  0  0  0  0  0  0  0  0  0  0  0
  -32.1840  174.5450  -22.3250 C   0  0  0  0  0  0  0  0  0  0  0  0
  -31.0120  173.5990  -21.9860 C   0  0  0  0  0  0  0  0  0  0  0  0
  -31.4020  172.4790  -21.0280 C   0  0  0  0  0  0  0  0  0  0  0  0
  -31.3500  171.1190  -21.7040 C   0  0  0  0  0  0  0  0  0  0  0  0
  -31.7290  170.0520  -20.6940 C   0  0  0  0  0  0  0  0  0  0  0  0
  -31.4840  168.6610  -21.3020 C   0  0  0  0  0  0  0  0  0  0  0  0
  -32.3680  167.6460  -20.5890 C   0  0  0  0  0  0  0  0  0  0  0  0
  -32.6360  166.3470  -21.3200 C   0  0  0  0  0  0  0  0  0  0  0  0
  -32.1080  165.1920  -20.4620 C   0  0  0  0  0  0  0  0  0  0  0  0
  -32.7080  165.1430  -19.0710 C   0  0  0  0  0  0  0  0  0  0  0  0
  -31.6530  165.1070  -17.9590 C   0  0  0  0  0  0  0  0  0  0  0  0
  -31.8830  166.2480  -16.9580 C   0  0  0  0  0  0  0  0  0  0  0  0
  -31.3210  165.9770  -15.5750 C   0  0  0  0  0  0  0  0  0  0  0  0
  -30.7730  164.5860  -15.3650 C   0  0  0  0  0  0  0  0  0  0  0  0
  -29.5250  164.5960  -14.4870 C   0  0  0  0  0  0  0  0  0  0  0  0
  -29.7940  164.0340  -13.0970 C   0  0  0  0  0  0  0  0  0  0  0  0
  -29.3150  164.9690  -11.9910 C   0  0  0  0  0  0  0  0  0  0  0  0
  -30.0960  164.6840  -10.7170 C   0  0  0  0  0  0  0  0  0  0  0  0
  -34.8350  172.7570  -24.0270 O   0  0  0  0  0  0  0  0  0  0  0  0
  -33.8020  171.5290  -25.9160 O   0  0  0  0  0  0  0  0  0  0  0  0
  -34.5580  171.5090  -24.8910 C   0  0  0  0  0  0  0  0  0  0  0  0
  -35.2390  170.2700  -24.4030 C   0  0  0  0  0  0  0  0  0  0  0  0
  -34.6250  168.9720  -24.8990 C   0  0  0  0  0  0  0  0  0  0  0  0
  -34.9050  167.7640  -24.0190 C   0  0  0  0  0  0  0  0  0  0  0  0
  -34.8420  166.3970  -24.6630 C   0  0  0  0  0  0  0  0  0  0  0  0
  -35.6780  165.3220  -23.9820 C   0  0  0  0  0  0  0  0  0  0  0  0
  -34.8910  164.2760  -23.2500 C   0  0  0  0  0  0  0  0  0  0  0  0
  -35.5400  163.6510  -22.0450 C   0  0  0  0  0  0  0  0  0  0  0  0
  -34.6050  162.6890  -21.3290 C   0  0  0  0  0  0  0  0  0  0  0  0
  -34.8170  162.5170  -19.8450 C   0  0  0  0  0  0  0  0  0  0  0  0
  -33.8180  161.5660  -19.2200 C   0  0  0  0  0  0  0  0  0  0  0  0
  -33.1710  162.1700  -17.9850 C   0  0  0  0  0  0  0  0  0  0  0  0
  -32.2120  161.2030  -17.3270 C   0  0  0  0  0  0  0  0  0  0  0  0
  -31.0060  161.9210  -16.7350 C   0  0  0  0  0  0  0  0  0  0  0  0
  -30.1360  160.9690  -15.9180 C   0  0  0  0  0  0  0  0  0  0  0  0
  -28.7650  161.4920  -15.5020 C   0  0  0  0  0  0  0  0  0  0  0  0
  -27.7540  160.3730  -15.6020 C   0  0  0  0  0  0  0  0  0  0  0  0
  -26.7310  160.3580  -14.5100 C   0  0  0  0  0  0  0  0  0  0  0  0
  -36.9184  176.9443  -29.0935 H   0  0  0  0  0  0  0  0  0  0  0  0
  -38.5137  176.5406  -29.4413 H   0  0  0  0  0  0  0  0  0  0  0  0
  -39.0242  174.1052  -23.3871 H   0  0  0  0  0  0  0  0  0  0  0  0
  -38.6737  175.2474  -27.9128 H   0  0  0  0  0  0  0  0  0  0  0  0
  -40.0598  176.1342  -27.2779 H   0  0  0  0  0  0  0  0  0  0  0  0
  -37.3365  177.4382  -26.9122 H   0  0  0  0  0  0  0  0  0  0  0  0
  -38.8670  178.2209  -27.2982 H   0  0  0  0  0  0  0  0  0  0  0  0
  -36.3886  175.5471  -24.9737 H   0  0  0  0  0  0  0  0  0  0  0  0
  -36.4919  174.7048  -23.4282 H   0  0  0  0  0  0  0  0  0  0  0  0
  -34.6813  173.9002  -25.8232 H   0  0  0  0  0  0  0  0  0  0  0  0
  -33.6635  175.7241  -24.4130 H   0  0  0  0  0  0  0  0  0  0  0  0
  -34.5593  175.2431  -22.9866 H   0  0  0  0  0  0  0  0  0  0  0  0
  -30.6451  173.1483  -22.9200 H   0  0  0  0  0  0  0  0  0  0  0  0
  -30.2392  174.2019  -21.4867 H   0  0  0  0  0  0  0  0  0  0  0  0
  -30.7067  172.4804  -20.1756 H   0  0  0  0  0  0  0  0  0  0  0  0
  -32.4348  172.6571  -20.6939 H   0  0  0  0  0  0  0  0  0  0  0  0
  -32.0576  171.0981  -22.5460 H   0  0  0  0  0  0  0  0  0  0  0  0
  -30.3344  170.9298  -22.0819 H   0  0  0  0  0  0  0  0  0  0  0  0
  -31.1156  170.1697  -19.7886 H   0  0  0  0  0  0  0  0  0  0  0  0
  -32.7924  170.1558  -20.4323 H   0  0  0  0  0  0  0  0  0  0  0  0
  -31.7320  168.6779  -22.3735 H   0  0  0  0  0  0  0  0  0  0  0  0
  -30.4266  168.3832  -21.1808 H   0  0  0  0  0  0  0  0  0  0  0  0
  -31.8853  167.3970  -19.6324 H   0  0  0  0  0  0  0  0  0  0  0  0
  -33.3498  168.1329  -20.4944 H   0  0  0  0  0  0  0  0  0  0  0  0
  -33.7177  166.2269  -21.4799 H   0  0  0  0  0  0  0  0  0  0  0  0
  -32.1325  166.3525  -22.2980 H   0  0  0  0  0  0  0  0  0  0  0  0
  -32.3387  164.2458  -20.9733 H   0  0  0  0  0  0  0  0  0  0  0  0
  -31.0263  165.3502  -20.3403 H   0  0  0  0  0  0  0  0  0  0  0  0
  -33.3351  166.0355  -18.9291 H   0  0  0  0  0  0  0  0  0  0  0  0
  -33.2907  164.2128  -18.9990 H   0  0  0  0  0  0  0  0  0  0  0  0
  -31.7174  164.1443  -17.4307 H   0  0  0  0  0  0  0  0  0  0  0  0
  -30.6574  165.2275  -18.4110 H   0  0  0  0  0  0  0  0  0  0  0  0
  -31.4058  167.1568  -17.3535 H   0  0  0  0  0  0  0  0  0  0  0  0
  -32.9716  166.3572  -16.8438 H   0  0  0  0  0  0  0  0  0  0  0  0
  -30.5076  166.6945  -15.3916 H   0  0  0  0  0  0  0  0  0  0  0  0
  -32.1647  166.0813  -14.8769 H   0  0  0  0  0  0  0  0  0  0  0  0
  -31.5441  163.9687  -14.8810 H   0  0  0  0  0  0  0  0  0  0  0  0
  -30.4971  164.1749  -16.3473 H   0  0  0  0  0  0  0  0  0  0  0  0
  -28.7469  163.9872  -14.9706 H   0  0  0  0  0  0  0  0  0  0  0  0
  -29.2020  165.6412  -14.3716 H   0  0  0  0  0  0  0  0  0  0  0  0
  -30.8767  163.8765  -12.9827 H   0  0  0  0  0  0  0  0  0  0  0  0
  -29.2381  163.0895  -13.0029 H   0  0  0  0  0  0  0  0  0  0  0  0
  -28.2428  164.8038  -11.8092 H   0  0  0  0  0  0  0  0  0  0  0  0
  -29.4769  166.0134  -12.2961 H   0  0  0  0  0  0  0  0  0  0  0  0
  -29.4683  164.9130   -9.8432 H   0  0  0  0  0  0  0  0  0  0  0  0
  -31.0001  165.3102  -10.6933 H   0  0  0  0  0  0  0  0  0  0  0  0
  -30.3843  163.6227  -10.6933 H   0  0  0  0  0  0  0  0  0  0  0  0
  -35.2018  170.2687  -23.3036 H   0  0  0  0  0  0  0  0  0  0  0  0
  -36.2641  170.3012  -24.8008 H   0  0  0  0  0  0  0  0  0  0  0  0
  -35.0238  168.7652  -25.9031 H   0  0  0  0  0  0  0  0  0  0  0  0
  -33.5349  169.1188  -24.8903 H   0  0  0  0  0  0  0  0  0  0  0  0
  -34.1702  167.7760  -23.2005 H   0  0  0  0  0  0  0  0  0  0  0  0
  -35.9552  167.8797  -23.7129 H   0  0  0  0  0  0  0  0  0  0  0  0
  -35.1916  166.4933  -25.7015 H   0  0  0  0  0  0  0  0  0  0  0  0
  -33.7955  166.0682  -24.5812 H   0  0  0  0  0  0  0  0  0  0  0  0
  -36.3450  165.8151  -23.2595 H   0  0  0  0  0  0  0  0  0  0  0  0
  -36.2159  164.7963  -24.7847 H   0  0  0  0  0  0  0  0  0  0  0  0
  -34.6685  163.4686  -23.9632 H   0  0  0  0  0  0  0  0  0  0  0  0
  -34.0096  164.8044  -22.8577 H   0  0  0  0  0  0  0  0  0  0  0  0
  -35.8328  164.4481  -21.3458 H   0  0  0  0  0  0  0  0  0  0  0  0
  -36.4160  163.0811  -22.3882 H   0  0  0  0  0  0  0  0  0  0  0  0
  -34.7195  161.7010  -21.7989 H   0  0  0  0  0  0  0  0  0  0  0  0
  -33.6029  163.1315  -21.4287 H   0  0  0  0  0  0  0  0  0  0  0  0
  -34.7199  163.4991  -19.3592 H   0  0  0  0  0  0  0  0  0  0  0  0
  -35.8200  162.0894  -19.6993 H   0  0  0  0  0  0  0  0  0  0  0  0
  -34.3372  160.6393  -18.9344 H   0  0  0  0  0  0  0  0  0  0  0  0
  -33.0284  161.3612  -19.9579 H   0  0  0  0  0  0  0  0  0  0  0  0
  -32.6194  163.0754  -18.2781 H   0  0  0  0  0  0  0  0  0  0  0  0
  -33.9660  162.4094  -17.2634 H   0  0  0  0  0  0  0  0  0  0  0  0
  -32.7396  160.6695  -16.5226 H   0  0  0  0  0  0  0  0  0  0  0  0
  -31.8513  160.5021  -18.0942 H   0  0  0  0  0  0  0  0  0  0  0  0
  -30.4038  162.3431  -17.5531 H   0  0  0  0  0  0  0  0  0  0  0  0
  -31.3700  162.7160  -16.0675 H   0  0  0  0  0  0  0  0  0  0  0  0
  -30.6887  160.7132  -15.0020 H   0  0  0  0  0  0  0  0  0  0  0  0
  -29.9342  160.1152  -16.5815 H   0  0  0  0  0  0  0  0  0  0  0  0
  -28.4684  162.3162  -16.1674 H   0  0  0  0  0  0  0  0  0  0  0  0
  -28.8086  161.8587  -14.4658 H   0  0  0  0  0  0  0  0  0  0  0  0
  -28.2971  159.4167  -15.5765 H   0  0  0  0  0  0  0  0  0  0  0  0
  -27.2046  160.5324  -16.5415 H   0  0  0  0  0  0  0  0  0  0  0  0
  -27.2371  160.3654  -13.5334 H   0  0  0  0  0  0  0  0  0  0  0  0
  -26.1151  159.4507  -14.5970 H   0  0  0  0  0  0  0  0  0  0  0  0
  -26.0888  161.2468  -14.5970 H   0  0  0  0  0  0  0  0  0  0  0  0
  1  3  1  0
  1  4  1  0
  1  5  1  0
  1  6  2  0
  2  8  1  0
  3  9  1  0
  4  7  1  0
  7  8  1  0
  9 10  1  0
 10 11  1  0
 10 32  1  0
 11 12  1  0
 12 14  1  0
 13 14  2  0
 14 15  1  0
 15 16  1  0
 16 17  1  0
 17 18  1  0
 18 19  1  0
 19 20  1  0
 20 21  1  0
 21 22  1  0
 22 23  1  0
 23 24  1  0
 24 25  1  0
 25 26  1  0
 26 27  1  0
 27 28  1  0
 28 29  1  0
 29 30  1  0
 30 31  1  0
 32 34  1  0
 33 34  2  0
 34 35  1  0
 35 36  1  0
 36 37  1  0
 37 38  1  0
 38 39  1  0
 39 40  1  0
 40 41  1  0
 41 42  1  0
 42 43  1  0
 43 44  1  0
 44 45  1  0
 45 46  1  0
 46 47  1  0
 47 48  1  0
 48 49  1  0
 49 50  1  0
 50 51  1  0
  2 52  1  0
  2 53  1  0
  5 54  1  0
  7 55  1  0
  7 56  1  0
  8 57  1  0
  8 58  1  0
  9 59  1  0
  9 60  1  0
 10 61  1  0
 11 62  1  0
 11 63  1  0
 15 64  1  0
 15 65  1  0
 16 66  1  0
 16 67  1  0
 17 68  1  0
 17 69  1  0
 18 70  1  0
 18 71  1  0
 19 72  1  0
 19 73  1  0
 20 74  1  0
 20 75  1  0
 21 76  1  0
 21 77  1  0
 22 78  1  0
 22 79  1  0
 23 80  1  0
 23 81  1  0
 24 82  1  0
 24 83  1  0
 25 84  1  0
 25 85  1  0
 26 86  1  0
 26 87  1  0
 27 88  1  0
 27 89  1  0
 28 90  1  0
 28 91  1  0
 29 92  1  0
 29 93  1  0
 30 94  1  0
 30 95  1  0
 31 96  1  0
 31 97  1  0
 31 98  1  0
 35 99  1  0
 35100  1  0
 36101  1  0
 36102  1  0
 37103  1  0
 37104  1  0
 38105  1  0
 38106  1  0
 39107  1  0
 39108  1  0
 40109  1  0
 40110  1  0
 41111  1  0
 41112  1  0
 42113  1  0
 42114  1  0
 43115  1  0
 43116  1  0
 44117  1  0
 44118  1  0
 45119  1  0
 45120  1  0
 46121  1  0
 46122  1  0
 47123  1  0
 47124  1  0
 48125  1  0
 48126  1  0
 49127  1  0
 49128  1  0
 50129  1  0
 50130  1  0
 51131  1  0
 51132  1  0
 51133  1  0
A    1
P
A    2
N
A    3
O11
A    4
O12
A    5
O13
A    6
O14
A    7
C11
A    8
C12
A    9
C1
A   10
C2
A   11
C3
A   12
O31
A   13
O32
A   14
C31
A   15
C32
A   16
C33
A   17
C34
A   18
C35
A   19
C36
A   20
C37
A   21
C38
A   22
C39
A   23
C3A
A   24
C3B
A   25
C3C
A   26
C3D
A   27
C3E
A   28
C3F
A   29
C3G
A   30
C3H
A   31
C3I
A   32
O21
A   33
O22
A   34
C21
A   35
C22
A   36
C23
A   37
C24
A   38
C25
A   39
C26
A   40
C27
A   41
C28
A   42
C29
A   43
C2A
A   44
C2B
A   45
C2C
A   46
C2D
A   47
C2E
A   48
C2F
A   49
C2G
A   50
C2H
A   51
C2I
M  END
