1N6B_DMZ_A_501
     RDKit          3D

 40 42  0  0  0  0  0  0  0  0999 V2000
  -11.3430  -14.2150  -29.5170 C   0  0  0  0  0  0  0  0  0  0  0  0
  -10.2640  -15.1370  -29.6240 C   0  0  0  0  0  0  0  0  0  0  0  0
   -8.9390  -14.6240  -29.6390 C   0  0  0  0  0  0  0  0  0  0  0  0
   -8.7010  -13.2360  -29.5470 C   0  0  0  0  0  0  0  0  0  0  0  0
   -9.7840  -12.3300  -29.4400 C   0  0  0  0  0  0  0  0  0  0  0  0
  -11.1100  -12.8270  -29.4250 C   0  0  0  0  0  0  0  0  0  0  0  0
  -10.5220  -16.6200  -29.7170 C   0  0  0  0  0  0  0  0  0  0  0  0
   -9.4850  -10.5840  -29.3170 S   0  0  0  0  0  0  0  0  0  0  0  0
  -10.3000   -9.9990  -28.1690 O   0  0  0  0  0  0  0  0  0  0  0  0
   -7.9950  -10.2810  -29.1950 O   0  0  0  0  0  0  0  0  0  0  0  0
  -10.0780   -9.8950  -30.8190 N   0  0  0  0  0  0  0  0  0  0  0  0
  -11.4800  -10.1510  -31.2330 C   0  0  0  0  0  0  0  0  0  0  0  0
   -9.1630   -9.7340  -31.8950 C   0  0  0  0  0  0  0  0  0  0  0  0
   -8.1910  -10.5710  -32.4630 C   0  0  0  0  0  0  0  0  0  0  0  0
   -7.6030   -9.8060  -33.5320 C   0  0  0  0  0  0  0  0  0  0  0  0
   -8.1770   -8.5840  -33.6100 N   0  0  0  0  0  0  0  0  0  0  0  0
   -9.1090   -8.5180  -32.6440 N   0  0  0  0  0  0  0  0  0  0  0  0
   -9.8610   -7.2880  -32.5330 C   0  0  0  0  0  0  0  0  0  0  0  0
   -9.9330   -6.6130  -31.2810 C   0  0  0  0  0  0  0  0  0  0  0  0
  -10.6650   -5.4100  -31.1820 C   0  0  0  0  0  0  0  0  0  0  0  0
  -11.3240   -4.8720  -32.3110 C   0  0  0  0  0  0  0  0  0  0  0  0
  -11.2540   -5.5410  -33.5550 C   0  0  0  0  0  0  0  0  0  0  0  0
  -10.5250   -6.7460  -33.6730 C   0  0  0  0  0  0  0  0  0  0  0  0
  -12.3765  -14.5915  -29.5059 H   0  0  0  0  0  0  0  0  0  0  0  0
   -8.0888  -15.3169  -29.7233 H   0  0  0  0  0  0  0  0  0  0  0  0
   -7.6688  -12.8559  -29.5585 H   0  0  0  0  0  0  0  0  0  0  0  0
  -11.9577  -12.1310  -29.3417 H   0  0  0  0  0  0  0  0  0  0  0  0
  -10.5957  -17.0436  -28.7045 H   0  0  0  0  0  0  0  0  0  0  0  0
  -11.4641  -16.7951  -30.2572 H   0  0  0  0  0  0  0  0  0  0  0  0
   -9.6944  -17.1030  -30.2572 H   0  0  0  0  0  0  0  0  0  0  0  0
  -12.1110  -10.2662  -30.3394 H   0  0  0  0  0  0  0  0  0  0  0  0
  -11.8454   -9.3047  -31.8332 H   0  0  0  0  0  0  0  0  0  0  0  0
  -11.5228  -11.0718  -31.8332 H   0  0  0  0  0  0  0  0  0  0  0  0
   -7.9326  -11.5953  -32.1565 H   0  0  0  0  0  0  0  0  0  0  0  0
   -6.7999  -10.1651  -34.1923 H   0  0  0  0  0  0  0  0  0  0  0  0
   -9.4224   -7.0257  -30.3984 H   0  0  0  0  0  0  0  0  0  0  0  0
  -10.7232   -4.8860  -30.2166 H   0  0  0  0  0  0  0  0  0  0  0  0
  -11.8909   -3.9336  -32.2220 H   0  0  0  0  0  0  0  0  0  0  0  0
  -11.7681   -5.1225  -34.4328 H   0  0  0  0  0  0  0  0  0  0  0  0
  -10.4698   -7.2645  -34.6415 H   0  0  0  0  0  0  0  0  0  0  0  0
  1  2  2  0
  1  6  1  0
  2  3  1  0
  2  7  1  0
  3  4  2  0
  4  5  1  0
  5  6  2  0
  5  8  1  0
  8  9  2  0
  8 10  2  0
  8 11  1  0
 11 12  1  0
 11 13  1  0
 13 14  2  0
 13 17  1  0
 14 15  1  0
 15 16  2  0
 16 17  1  0
 17 18  1  0
 18 19  2  0
 18 23  1  0
 19 20  1  0
 20 21  2  0
 21 22  1  0
 22 23  2  0
  1 24  1  0
  3 25  1  0
  4 26  1  0
  6 27  1  0
  7 28  1  0
  7 29  1  0
  7 30  1  0
 12 31  1  0
 12 32  1  0
 12 33  1  0
 14 34  1  0
 15 35  1  0
 19 36  1  0
 20 37  1  0
 21 38  1  0
 22 39  1  0
 23 40  1  0
A    1
C18
A    2
C19
A    3
C20
A    4
C21
A    5
C16
A    6
C17
A    7
C41
A    8
S2
A    9
O3
A   10
O4
A   11
N6
A   12
C31
A   13
C22
A   14
C23
A   15
C24
A   16
N7
A   17
N8
A   18
C25
A   19
C30
A   20
C29
A   21
C28
A   22
C27
A   23
C26
M  END
