1N9A_FTI_B_1
     RDKit          3D

 58 62  0  0  0  0  0  0  0  0999 V2000
   48.5240   51.5150   -2.6380 C   0  0  0  0  0  0  0  0  0  0  0  0
   48.1480   50.2160   -1.9380 C   0  0  0  0  0  0  0  0  0  0  0  0
   48.8390   49.9400   -0.5970 N   0  0  0  0  0  0  0  0  0  0  0  0
   49.6840   50.9510    0.0500 C   0  0  0  0  0  0  0  0  0  0  0  0
   50.2940   51.9450   -0.9140 C   0  0  0  0  0  0  0  0  0  0  0  0
   51.5490   52.5590   -0.4830 C   0  0  0  0  0  0  0  0  0  0  0  0
   52.7710   51.8790   -0.5450 C   0  0  0  0  0  0  0  0  0  0  0  0
   54.0280   52.5210   -0.1070 C   0  0  0  0  0  0  0  0  0  0  0  0
   53.9920   53.8130    0.3690 C   0  0  0  0  0  0  0  0  0  0  0  0
   52.7310   54.5040    0.4570 C   0  0  0  0  0  0  0  0  0  0  0  0
   51.4900   53.9250    0.0420 C   0  0  0  0  0  0  0  0  0  0  0  0
   55.2740   51.8460   -0.1900 C   0  0  0  0  0  0  0  0  0  0  0  0
   48.6000   48.8260    0.1630 C   0  0  0  0  0  0  0  0  0  0  0  0
   52.8090   50.5130   -1.0300 C   0  0  0  0  0  0  0  0  0  0  0  0
   55.2790   50.5170   -0.6580 C   0  0  0  0  0  0  0  0  0  0  0  0
   54.0530   49.8620   -1.0830 C   0  0  0  0  0  0  0  0  0  0  0  0
   51.2410   46.1560    0.5010 C   0  0  0  0  0  0  0  0  0  0  0  0
   50.7040   46.0350   -3.1260 N   0  0  0  0  0  0  0  0  0  0  0  0
   51.4210   45.8860   -2.0050 C   0  0  0  0  0  0  0  0  0  0  0  0
   50.7830   46.3160   -0.8880 N   0  0  0  0  0  0  0  0  0  0  0  0
   49.4550   46.8320   -1.3490 C   0  0  0  0  0  0  0  0  0  0  0  0
   49.4320   46.6510   -2.6940 C   0  0  0  0  0  0  0  0  0  0  0  0
   48.3120   47.4090   -0.5190 C   0  0  0  0  0  0  0  0  0  0  0  0
   51.5350   48.1280    1.9960 C   0  0  0  0  0  0  0  0  0  0  0  0
   52.0970   47.1960    1.1070 C   0  0  0  0  0  0  0  0  0  0  0  0
   53.4550   47.2100    0.8430 C   0  0  0  0  0  0  0  0  0  0  0  0
   54.3120   48.1580    1.4810 C   0  0  0  0  0  0  0  0  0  0  0  0
   53.7640   49.1200    2.3700 C   0  0  0  0  0  0  0  0  0  0  0  0
   52.3540   49.1100    2.6470 C   0  0  0  0  0  0  0  0  0  0  0  0
   54.6130   50.1100    2.9700 C   0  0  0  0  0  0  0  0  0  0  0  0
   55.2660   50.9510    3.4180 N   0  0  0  0  0  0  0  0  0  0  0  0
   49.7420   52.2080   -2.1700 C   0  0  0  0  0  0  0  0  0  0  0  0
   48.5630   48.8690    1.4030 O   0  0  0  0  0  0  0  0  0  0  0  0
   50.3290   53.1240   -3.1160 C   0  0  0  0  0  0  0  0  0  0  0  0
   50.7780   53.9700   -3.7570 N   0  0  0  0  0  0  0  0  0  0  0  0
   48.6626   51.2873   -3.7052 H   0  0  0  0  0  0  0  0  0  0  0  0
   47.6999   52.2073   -2.4110 H   0  0  0  0  0  0  0  0  0  0  0  0
   47.0630   50.2346   -1.7579 H   0  0  0  0  0  0  0  0  0  0  0  0
   48.4840   49.4133   -2.6109 H   0  0  0  0  0  0  0  0  0  0  0  0
   49.0693   51.5040    0.7755 H   0  0  0  0  0  0  0  0  0  0  0  0
   50.5175   50.4143    0.5268 H   0  0  0  0  0  0  0  0  0  0  0  0
   54.9205   54.3142    0.6801 H   0  0  0  0  0  0  0  0  0  0  0  0
   52.7217   55.5263    0.8629 H   0  0  0  0  0  0  0  0  0  0  0  0
   50.5412   54.4770    0.1135 H   0  0  0  0  0  0  0  0  0  0  0  0
   56.2089   52.3462    0.1027 H   0  0  0  0  0  0  0  0  0  0  0  0
   51.8890   50.0004   -1.3477 H   0  0  0  0  0  0  0  0  0  0  0  0
   56.2291   49.9645   -0.7026 H   0  0  0  0  0  0  0  0  0  0  0  0
   54.1004   48.8284   -1.4563 H   0  0  0  0  0  0  0  0  0  0  0  0
   50.3407   46.0767    1.1280 H   0  0  0  0  0  0  0  0  0  0  0  0
   51.8964   45.2736    0.4578 H   0  0  0  0  0  0  0  0  0  0  0  0
   52.4330   45.4551   -1.9913 H   0  0  0  0  0  0  0  0  0  0  0  0
   48.5976   46.9205   -3.3582 H   0  0  0  0  0  0  0  0  0  0  0  0
   48.0777   46.6903    0.2801 H   0  0  0  0  0  0  0  0  0  0  0  0
   47.4838   47.5769   -1.2232 H   0  0  0  0  0  0  0  0  0  0  0  0
   50.4535   48.1044    2.1953 H   0  0  0  0  0  0  0  0  0  0  0  0
   53.8792   46.4835    0.1343 H   0  0  0  0  0  0  0  0  0  0  0  0
   55.3941   48.1428    1.2841 H   0  0  0  0  0  0  0  0  0  0  0  0
   51.9124   49.8388    3.3425 H   0  0  0  0  0  0  0  0  0  0  0  0
  1  2  1  0
  1 32  1  0
  2  3  1  0
  3  4  1  0
  3 13  1  0
  4  5  1  0
  5  6  1  0
  5 32  2  0
  6  7  2  0
  6 11  1  0
  7  8  1  0
  7 14  1  0
  8  9  2  0
  8 12  1  0
  9 10  1  0
 10 11  2  0
 12 15  2  0
 13 23  1  0
 13 33  2  0
 14 16  2  0
 15 16  1  0
 17 20  1  0
 17 25  1  0
 18 19  2  0
 18 22  1  0
 19 20  1  0
 20 21  1  0
 21 22  2  0
 21 23  1  0
 24 25  2  0
 24 29  1  0
 25 26  1  0
 26 27  2  0
 27 28  1  0
 28 29  2  0
 28 30  1  0
 30 31  3  0
 32 34  1  0
 34 35  3  0
  1 36  1  0
  1 37  1  0
  2 38  1  0
  2 39  1  0
  4 40  1  0
  4 41  1  0
  9 42  1  0
 10 43  1  0
 11 44  1  0
 12 45  1  0
 14 46  1  0
 15 47  1  0
 16 48  1  0
 17 49  1  0
 17 50  1  0
 19 51  1  0
 22 52  1  0
 23 53  1  0
 23 54  1  0
 24 55  1  0
 26 56  1  0
 27 57  1  0
 29 58  1  0
A    1
C1
A    2
C2
A    3
N1
A    4
C3
A    5
C4
A    6
C5
A    7
C6
A    8
C7
A    9
C8
A   10
C9
A   11
C10
A   12
C11
A   13
C12
A   14
C13
A   15
C14
A   16
C15
A   17
C16
A   18
N2
A   19
C17
A   20
N3
A   21
C18
A   22
C19
A   23
C20
A   24
C21
A   25
C22
A   26
C23
A   27
C24
A   28
C25
A   29
C26
A   30
C27
A   31
N4
A   32
C28
A   33
O1
A   34
C29
A   35
N5
M  END
