1NAV_IH5_A_600
     RDKit          3D

 39 40  0  0  0  0  0  0  0  0999 V2000
   44.6210   13.4550   17.6070 O   0  0  0  0  0  0  0  0  0  0  0  0
   43.8740   14.4540   18.1410 C   0  0  0  0  0  0  0  0  0  0  0  0
   42.7640   14.8300   17.7390 O   0  0  0  0  0  0  0  0  0  0  0  0
   44.4900   15.0760   19.3010 C   0  0  0  0  0  0  0  0  0  0  0  0
   45.7960   15.7930   19.2060 C   0  0  0  0  0  0  0  0  0  0  0  0
   46.7550   15.4270   20.1980 C   0  0  0  0  0  0  0  0  0  0  0  0
   48.0330   16.0490   20.2240 C   0  0  0  0  0  0  0  0  0  0  0  0
   48.3870   17.0690   19.2560 C   0  0  0  0  0  0  0  0  0  0  0  0
   49.5690   17.7330   19.2050 O   0  0  0  0  0  0  0  0  0  0  0  0
   49.7420   18.9740   19.9740 C   0  0  0  0  0  0  0  0  0  0  0  0
   49.0350   19.2610   21.2370 C   0  0  0  0  0  0  0  0  0  0  0  0
   49.2750   20.4960   21.9270 C   0  0  0  0  0  0  0  0  0  0  0  0
   50.2030   21.4660   21.4150 C   0  0  0  0  0  0  0  0  0  0  0  0
   50.4060   22.6440   22.1190 O   0  0  0  0  0  0  0  0  0  0  0  0
   50.9200   21.2220   20.1640 C   0  0  0  0  0  0  0  0  0  0  0  0
   50.6760   19.9660   19.4610 C   0  0  0  0  0  0  0  0  0  0  0  0
   51.9350   22.2960   19.6090 C   0  0  0  0  0  0  0  0  0  0  0  0
   51.1840   23.1260   18.5450 C   0  0  0  0  0  0  0  0  0  0  0  0
   53.2190   21.6470   18.9470 C   0  0  0  0  0  0  0  0  0  0  0  0
   47.4300   17.4280   18.2780 C   0  0  0  0  0  0  0  0  0  0  0  0
   46.1400   16.8120   18.2200 C   0  0  0  0  0  0  0  0  0  0  0  0
   47.7790   18.6250   17.1200 Cl  0  0  0  0  0  0  0  0  0  0  0  0
   49.1380   15.5690   21.3860 Cl  0  0  0  0  0  0  0  0  0  0  0  0
   45.0956   12.8203   18.2004 H   0  0  0  0  0  0  0  0  0  0  0  0
   43.7625   15.8076   19.6825 H   0  0  0  0  0  0  0  0  0  0  0  0
   44.7450   14.2068   19.9250 H   0  0  0  0  0  0  0  0  0  0  0  0
   46.5040   14.6602   20.9457 H   0  0  0  0  0  0  0  0  0  0  0  0
   48.3248   18.5290   21.6491 H   0  0  0  0  0  0  0  0  0  0  0  0
   48.7389   20.7038   22.8648 H   0  0  0  0  0  0  0  0  0  0  0  0
   50.4045   22.6356   23.1090 H   0  0  0  0  0  0  0  0  0  0  0  0
   51.2107   19.7643   18.5211 H   0  0  0  0  0  0  0  0  0  0  0  0
   52.2894   22.9109   20.4494 H   0  0  0  0  0  0  0  0  0  0  0  0
   50.5263   23.8529   19.0441 H   0  0  0  0  0  0  0  0  0  0  0  0
   51.9114   23.6607   17.9165 H   0  0  0  0  0  0  0  0  0  0  0  0
   50.5794   22.4556   17.9165 H   0  0  0  0  0  0  0  0  0  0  0  0
   53.9032   21.3012   19.7359 H   0  0  0  0  0  0  0  0  0  0  0  0
   52.9177   20.7929   18.3227 H   0  0  0  0  0  0  0  0  0  0  0  0
   53.7280   22.3961   18.3227 H   0  0  0  0  0  0  0  0  0  0  0  0
   45.4177   17.1025   17.4430 H   0  0  0  0  0  0  0  0  0  0  0  0
  1  2  1  0
  2  3  2  0
  2  4  1  0
  4  5  1  0
  5  6  2  0
  5 21  1  0
  6  7  1  0
  7  8  2  0
  7 23  1  0
  8  9  1  0
  8 20  1  0
  9 10  1  0
 10 11  2  0
 10 16  1  0
 11 12  1  0
 12 13  2  0
 13 14  1  0
 13 15  1  0
 15 16  2  0
 15 17  1  0
 17 18  1  0
 17 19  1  0
 20 21  2  0
 20 22  1  0
  1 24  1  0
  4 25  1  0
  4 26  1  0
  6 27  1  0
 11 28  1  0
 12 29  1  0
 14 30  1  0
 16 31  1  0
 17 32  1  0
 18 33  1  0
 18 34  1  0
 18 35  1  0
 19 36  1  0
 19 37  1  0
 19 38  1  0
 21 39  1  0
A    1
O3
A    2
C15
A    3
O4
A    4
C13
A    5
C01
A    6
C11
A    7
C09
A    8
C07
A    9
O2
A   10
C2
A   11
C12
A   12
C10
A   13
C8
A   14
O1
A   15
C6
A   16
C4
A   17
C14
A   18
C16
A   19
C18
A   20
C05
A   21
C03
A   22
CL5
A   23
CL6
M  END
