1C8M_W11_1_7001
     RDKit          3D

 45 47  0  0  0  0  0  0  0  0999 V2000
   38.7690    3.9240  124.1630 O   0  0  0  0  0  0  0  0  0  0  0  0
   37.6110    4.6800  124.8170 N   0  0  0  0  0  0  0  0  0  0  0  0
   36.9870    5.3720  123.8590 C   0  0  0  0  0  0  0  0  0  0  0  0
   35.8130    6.2310  124.2620 C   0  0  0  0  0  0  0  0  0  0  0  0
   37.6330    5.1400  122.5950 C   0  0  0  0  0  0  0  0  0  0  0  0
   38.6930    4.2710  122.7990 C   0  0  0  0  0  0  0  0  0  0  0  0
   39.6880    3.5510  121.9570 C   0  0  0  0  0  0  0  0  0  0  0  0
   41.0020    3.7770  122.6780 C   0  0  0  0  0  0  0  0  0  0  0  0
   42.1000    2.9640  122.0430 C   0  0  0  0  0  0  0  0  0  0  0  0
   42.5380    2.3970  123.2160 O   0  0  0  0  0  0  0  0  0  0  0  0
   43.4860    1.3400  123.2280 C   0  0  0  0  0  0  0  0  0  0  0  0
   44.8090    1.7300  123.5470 C   0  0  0  0  0  0  0  0  0  0  0  0
   45.0440    3.1540  123.7850 C   0  0  0  0  0  0  0  0  0  0  0  0
   45.8960    0.8920  123.6030 C   0  0  0  0  0  0  0  0  0  0  0  0
   45.6220   -0.4510  123.3010 C   0  0  0  0  0  0  0  0  0  0  0  0
   44.3430   -0.9990  122.9740 C   0  0  0  0  0  0  0  0  0  0  0  0
   43.2450   -0.0900  122.9490 C   0  0  0  0  0  0  0  0  0  0  0  0
   41.8660   -0.7880  122.6890 C   0  0  0  0  0  0  0  0  0  0  0  0
   46.7680   -1.2830  123.1710 C   0  0  0  0  0  0  0  0  0  0  0  0
   48.0150   -0.8160  123.5770 N   0  0  0  0  0  0  0  0  0  0  0  0
   46.7080   -2.5730  122.5450 N   0  0  0  0  0  0  0  0  0  0  0  0
   48.1020   -2.8990  122.5790 C   0  0  0  0  0  0  0  0  0  0  0  0
   48.7640   -4.1280  121.9230 C   0  0  0  0  0  0  0  0  0  0  0  0
   49.0040   -1.9720  123.1630 O   0  0  0  0  0  0  0  0  0  0  0  0
   47.7810   -4.7550  121.1370 F   0  0  0  0  0  0  0  0  0  0  0  0
   49.1940   -4.9150  122.9270 F   0  0  0  0  0  0  0  0  0  0  0  0
   49.8310   -3.8080  121.1650 F   0  0  0  0  0  0  0  0  0  0  0  0
   35.7513    6.2762  125.3593 H   0  0  0  0  0  0  0  0  0  0  0  0
   35.9465    7.2462  123.8602 H   0  0  0  0  0  0  0  0  0  0  0  0
   34.8857    5.7966  123.8602 H   0  0  0  0  0  0  0  0  0  0  0  0
   37.3362    5.5778  121.6305 H   0  0  0  0  0  0  0  0  0  0  0  0
   39.4510    2.4783  121.9011 H   0  0  0  0  0  0  0  0  0  0  0  0
   39.7055    3.9106  120.9176 H   0  0  0  0  0  0  0  0  0  0  0  0
   41.2649    4.8438  122.6251 H   0  0  0  0  0  0  0  0  0  0  0  0
   40.8900    3.4651  123.7269 H   0  0  0  0  0  0  0  0  0  0  0  0
   41.7213    2.2217  121.3250 H   0  0  0  0  0  0  0  0  0  0  0  0
   42.8404    3.5015  121.4324 H   0  0  0  0  0  0  0  0  0  0  0  0
   45.0754    3.3445  124.8679 H   0  0  0  0  0  0  0  0  0  0  0  0
   46.0028    3.4480  123.3330 H   0  0  0  0  0  0  0  0  0  0  0  0
   44.2305    3.7404  123.3330 H   0  0  0  0  0  0  0  0  0  0  0  0
   46.9040    1.2464  123.8645 H   0  0  0  0  0  0  0  0  0  0  0  0
   44.2124   -2.0686  122.7527 H   0  0  0  0  0  0  0  0  0  0  0  0
   41.3899   -1.0290  123.6509 H   0  0  0  0  0  0  0  0  0  0  0  0
   41.2145   -0.1111  122.1168 H   0  0  0  0  0  0  0  0  0  0  0  0
   42.0257   -1.7138  122.1168 H   0  0  0  0  0  0  0  0  0  0  0  0
  1  2  1  0
  1  6  1  0
  2  3  2  0
  3  4  1  0
  3  5  1  0
  5  6  2  0
  6  7  1  0
  7  8  1  0
  8  9  1  0
  9 10  1  0
 10 11  1  0
 11 12  2  0
 11 17  1  0
 12 13  1  0
 12 14  1  0
 14 15  2  0
 15 16  1  0
 15 19  1  0
 16 17  2  0
 17 18  1  0
 19 20  2  0
 19 21  1  0
 20 24  1  0
 21 22  2  0
 22 23  1  0
 22 24  1  0
 23 25  1  0
 23 26  1  0
 23 27  1  0
  4 28  1  0
  4 29  1  0
  4 30  1  0
  5 31  1  0
  7 32  1  0
  7 33  1  0
  8 34  1  0
  8 35  1  0
  9 36  1  0
  9 37  1  0
 13 38  1  0
 13 39  1  0
 13 40  1  0
 14 41  1  0
 16 42  1  0
 18 43  1  0
 18 44  1  0
 18 45  1  0
A    1
O1
A    2
N2
A    3
C3
A    4
CM3
A    5
C4
A    6
C5
A    7
C1C
A    8
C2C
A    9
C3C
A   10
O1B
A   11
C1B
A   12
C2B
A   13
CM2
A   14
C3B
A   15
C4B
A   16
C5B
A   17
C6B
A   18
CM6
A   19
C2A
A   20
N1A
A   21
N3A
A   22
C3A
A   23
CM4
A   24
O1A
A   25
F1
A   26
F2
A   27
F3
M  END
