1CR4_TYD_A_600
     RDKit          3D

 41 42  0  0  0  0  0  0  0  0999 V2000
   -9.8780   29.5140   42.7360 P   0  0  0  0  0  0  0  0  0  0  0  0
   -8.7450   30.4520   42.9330 O   0  0  0  0  0  0  0  0  0  0  0  0
  -10.9780   29.9150   41.8200 O   0  0  0  0  0  0  0  0  0  0  0  0
   -9.3390   28.1360   42.2140 O   0  0  0  0  0  0  0  0  0  0  0  0
   -8.9150   27.7300   40.7280 P   0  0  0  0  0  0  0  0  0  0  0  0
   -8.6370   29.0000   40.0360 O   0  0  0  0  0  0  0  0  0  0  0  0
   -7.8580   26.7120   40.8070 O   0  0  0  0  0  0  0  0  0  0  0  0
  -10.2730   27.1220   40.1240 O   0  0  0  0  0  0  0  0  0  0  0  0
  -10.5570   29.1610   44.1400 O   0  0  0  0  0  0  0  0  0  0  0  0
  -11.9270   28.6260   44.0460 C   0  0  0  0  0  0  0  0  0  0  0  0
  -12.6920   28.7220   45.3910 C   0  0  0  0  0  0  0  0  0  0  0  0
  -11.9710   28.0300   46.4010 O   0  0  0  0  0  0  0  0  0  0  0  0
  -12.8960   30.1540   45.9150 C   0  0  0  0  0  0  0  0  0  0  0  0
  -14.2540   30.3620   46.3090 O   0  0  0  0  0  0  0  0  0  0  0  0
  -11.8970   30.2670   47.0700 C   0  0  0  0  0  0  0  0  0  0  0  0
  -11.8290   28.8090   47.5230 C   0  0  0  0  0  0  0  0  0  0  0  0
  -10.5130   28.4730   48.1940 N   0  0  0  0  0  0  0  0  0  0  0  0
  -10.7260   28.2060   49.5840 C   0  0  0  0  0  0  0  0  0  0  0  0
  -11.8600   28.2770   50.0980 O   0  0  0  0  0  0  0  0  0  0  0  0
   -9.6410   27.8630   50.3380 N   0  0  0  0  0  0  0  0  0  0  0  0
   -8.4360   27.7910   49.7960 C   0  0  0  0  0  0  0  0  0  0  0  0
   -7.4240   27.4570   50.6220 O   0  0  0  0  0  0  0  0  0  0  0  0
   -8.2040   28.0580   48.3850 C   0  0  0  0  0  0  0  0  0  0  0  0
   -6.8230   27.9540   47.8020 C   0  0  0  0  0  0  0  0  0  0  0  0
   -9.2860   28.3800   47.6560 C   0  0  0  0  0  0  0  0  0  0  0  0
  -11.7625   30.2010   42.3518 H   0  0  0  0  0  0  0  0  0  0  0  0
   -7.6568   26.5182   41.7568 H   0  0  0  0  0  0  0  0  0  0  0  0
  -10.8725   26.8536   40.8647 H   0  0  0  0  0  0  0  0  0  0  0  0
  -12.4780   29.1974   43.2845 H   0  0  0  0  0  0  0  0  0  0  0  0
  -11.8540   27.5620   43.7766 H   0  0  0  0  0  0  0  0  0  0  0  0
  -13.6805   28.2873   45.1817 H   0  0  0  0  0  0  0  0  0  0  0  0
  -12.7151   30.9333   45.1600 H   0  0  0  0  0  0  0  0  0  0  0  0
  -14.3132   30.3711   47.2972 H   0  0  0  0  0  0  0  0  0  0  0  0
  -10.9178   30.6314   46.7258 H   0  0  0  0  0  0  0  0  0  0  0  0
  -12.1854   30.9787   47.8576 H   0  0  0  0  0  0  0  0  0  0  0  0
  -12.6233   28.6272   48.2619 H   0  0  0  0  0  0  0  0  0  0  0  0
   -9.7616   27.6579   51.3401 H   0  0  0  0  0  0  0  0  0  0  0  0
   -6.0848   27.8984   48.6156 H   0  0  0  0  0  0  0  0  0  0  0  0
   -6.7541   27.0481   47.1818 H   0  0  0  0  0  0  0  0  0  0  0  0
   -6.6192   28.8393   47.1818 H   0  0  0  0  0  0  0  0  0  0  0  0
   -9.1623   28.5743   46.5804 H   0  0  0  0  0  0  0  0  0  0  0  0
  1  2  2  0
  1  3  1  0
  1  4  1  0
  1  9  1  0
  4  5  1  0
  5  6  2  0
  5  7  1  0
  5  8  1  0
  9 10  1  0
 10 11  1  0
 11 12  1  0
 11 13  1  0
 12 16  1  0
 13 14  1  0
 13 15  1  0
 15 16  1  0
 16 17  1  0
 17 18  1  0
 17 25  1  0
 18 19  2  0
 18 20  1  0
 20 21  1  0
 21 22  2  0
 21 23  1  0
 23 24  1  0
 23 25  2  0
  3 26  1  0
  7 27  1  0
  8 28  1  0
 10 29  1  0
 10 30  1  0
 11 31  1  0
 13 32  1  0
 14 33  1  0
 15 34  1  0
 15 35  1  0
 16 36  1  0
 20 37  1  0
 24 38  1  0
 24 39  1  0
 24 40  1  0
 25 41  1  0
A    1
PA
A    2
O1A
A    3
O2A
A    4
O3A
A    5
PB
A    6
O1B
A    7
O2B
A    8
O3B
A    9
O5'
A   10
C5'
A   11
C4'
A   12
O4'
A   13
C3'
A   14
O3'
A   15
C2'
A   16
C1'
A   17
N1
A   18
C2
A   19
O2
A   20
N3
A   21
C4
A   22
O4
A   23
C5
A   24
C5M
A   25
C6
M  END
