1NDE_MON_A_101
     RDKit          3D

 62 65  0  0  0  0  0  0  0  0999 V2000
  110.7370    5.5320 -105.3590 C   0  0  0  0  0  0  0  0  0  0  0  0
  110.9210    4.5570 -104.4530 N   0  0  0  0  0  0  0  0  0  0  0  0
  109.6060    6.2620 -105.4990 N   0  0  0  0  0  0  0  0  0  0  0  0
  111.6410    5.9560 -106.2990 N   0  0  0  0  0  0  0  0  0  0  0  0
  112.1510    3.7920 -104.3130 C   0  0  0  0  0  0  0  0  0  0  0  0
  109.9180    4.1440 -103.4700 C   0  0  0  0  0  0  0  0  0  0  0  0
  109.3710    7.2530 -106.3860 C   0  0  0  0  0  0  0  0  0  0  0  0
  111.4330    6.9410 -107.2020 C   0  0  0  0  0  0  0  0  0  0  0  0
  112.1770    2.3680 -103.6560 C   0  0  0  0  0  0  0  0  0  0  0  0
  109.8560    2.6970 -102.9320 C   0  0  0  0  0  0  0  0  0  0  0  0
  110.3030    7.5170 -107.1710 N   0  0  0  0  0  0  0  0  0  0  0  0
  108.3340    8.0500 -106.6270 N   0  0  0  0  0  0  0  0  0  0  0  0
  112.2390    7.7050 -108.4440 S   0  0  0  0  0  0  0  0  0  0  0  0
  111.1930    2.2550 -102.5700 N   0  0  0  0  0  0  0  0  0  0  0  0
  107.0840    8.1290 -106.0060 C   0  0  0  0  0  0  0  0  0  0  0  0
  113.6520    7.9070 -109.4800 C   0  0  0  0  0  0  0  0  0  0  0  0
  106.3950    9.3140 -106.7320 C   0  0  0  0  0  0  0  0  0  0  0  0
  112.5460    8.6530 -110.2420 C   0  0  0  0  0  0  0  0  0  0  0  0
  105.0900    9.5030 -106.1080 C   0  0  0  0  0  0  0  0  0  0  0  0
  112.5190    9.4020 -111.5480 C   0  0  0  0  0  0  0  0  0  0  0  0
  103.9240    9.4400 -106.8730 C   0  0  0  0  0  0  0  0  0  0  0  0
  105.0330    9.7310 -104.7160 C   0  0  0  0  0  0  0  0  0  0  0  0
  110.9910    9.8030 -111.5100 C   0  0  0  0  0  0  0  0  0  0  0  0
  102.6810    9.6030 -106.2350 C   0  0  0  0  0  0  0  0  0  0  0  0
  103.8050    9.8910 -104.0920 C   0  0  0  0  0  0  0  0  0  0  0  0
  110.5360   11.1320 -111.7190 C   0  0  0  0  0  0  0  0  0  0  0  0
  109.9960    8.7960 -111.2300 C   0  0  0  0  0  0  0  0  0  0  0  0
  102.6240    9.8210 -104.8370 C   0  0  0  0  0  0  0  0  0  0  0  0
  109.1400   11.4420 -111.6570 C   0  0  0  0  0  0  0  0  0  0  0  0
  108.6200    9.1160 -111.1700 C   0  0  0  0  0  0  0  0  0  0  0  0
  101.4320    9.9610 -104.2060 O   0  0  0  0  0  0  0  0  0  0  0  0
  108.1900   10.4320 -111.3820 C   0  0  0  0  0  0  0  0  0  0  0  0
  106.5190   10.8070 -111.3060 Cl  0  0  0  0  0  0  0  0  0  0  0  0
  112.5538    3.6691 -105.3292 H   0  0  0  0  0  0  0  0  0  0  0  0
  112.7130    4.3923 -103.5824 H   0  0  0  0  0  0  0  0  0  0  0  0
  110.0577    4.7941 -102.5937 H   0  0  0  0  0  0  0  0  0  0  0  0
  108.9825    4.2209 -104.0435 H   0  0  0  0  0  0  0  0  0  0  0  0
  111.9477    1.6158 -104.4251 H   0  0  0  0  0  0  0  0  0  0  0  0
  113.1783    2.2032 -103.2315 H   0  0  0  0  0  0  0  0  0  0  0  0
  109.2064    2.6635 -102.0450 H   0  0  0  0  0  0  0  0  0  0  0  0
  109.4497    2.0343 -103.7103 H   0  0  0  0  0  0  0  0  0  0  0  0
  108.4749    8.7188 -107.3976 H   0  0  0  0  0  0  0  0  0  0  0  0
  111.1404    1.2673 -102.2826 H   0  0  0  0  0  0  0  0  0  0  0  0
  106.5156    7.1977 -106.1460 H   0  0  0  0  0  0  0  0  0  0  0  0
  107.1539    8.2747 -104.9179 H   0  0  0  0  0  0  0  0  0  0  0  0
  114.4787    8.5137 -109.0819 H   0  0  0  0  0  0  0  0  0  0  0  0
  114.3112    7.1166 -109.8683 H   0  0  0  0  0  0  0  0  0  0  0  0
  107.0004   10.2259 -106.6230 H   0  0  0  0  0  0  0  0  0  0  0  0
  106.2871    9.1038 -107.8063 H   0  0  0  0  0  0  0  0  0  0  0  0
  111.7698    7.8851 -110.3755 H   0  0  0  0  0  0  0  0  0  0  0  0
  112.5508    9.5465 -109.6004 H   0  0  0  0  0  0  0  0  0  0  0  0
  113.1840   10.2782 -111.5442 H   0  0  0  0  0  0  0  0  0  0  0  0
  112.8613    8.8525 -112.4373 H   0  0  0  0  0  0  0  0  0  0  0  0
  103.9764    9.2656 -107.9578 H   0  0  0  0  0  0  0  0  0  0  0  0
  105.9609    9.7816 -104.1275 H   0  0  0  0  0  0  0  0  0  0  0  0
  101.7521    9.5611 -106.8228 H   0  0  0  0  0  0  0  0  0  0  0  0
  103.7600   10.0734 -103.0082 H   0  0  0  0  0  0  0  0  0  0  0  0
  111.2628   11.9302 -111.9304 H   0  0  0  0  0  0  0  0  0  0  0  0
  110.3149    7.7571 -111.0596 H   0  0  0  0  0  0  0  0  0  0  0  0
  108.8033   12.4757 -111.8249 H   0  0  0  0  0  0  0  0  0  0  0  0
  107.8836    8.3275 -110.9558 H   0  0  0  0  0  0  0  0  0  0  0  0
  101.3931    9.9656 -103.2168 H   0  0  0  0  0  0  0  0  0  0  0  0
  1  2  1  0
  1  3  2  0
  1  4  1  0
  2  5  1  0
  2  6  1  0
  3  7  1  0
  4  8  2  0
  5  9  1  0
  6 10  1  0
  7 11  2  0
  7 12  1  0
  8 11  1  0
  8 13  1  0
  9 14  1  0
 10 14  1  0
 12 15  1  0
 13 16  1  0
 15 17  1  0
 16 18  1  0
 17 19  1  0
 18 20  1  0
 19 21  2  0
 19 22  1  0
 20 23  1  0
 21 24  1  0
 22 25  2  0
 23 26  2  0
 23 27  1  0
 24 28  2  0
 25 28  1  0
 26 29  1  0
 27 30  2  0
 28 31  1  0
 29 32  2  0
 30 32  1  0
 32 33  1  0
  5 34  1  0
  5 35  1  0
  6 36  1  0
  6 37  1  0
  9 38  1  0
  9 39  1  0
 10 40  1  0
 10 41  1  0
 12 42  1  0
 14 43  1  0
 15 44  1  0
 15 45  1  0
 16 46  1  0
 16 47  1  0
 17 48  1  0
 17 49  1  0
 18 50  1  0
 18 51  1  0
 20 52  1  0
 20 53  1  0
 21 54  1  0
 22 55  1  0
 24 56  1  0
 25 57  1  0
 26 58  1  0
 27 59  1  0
 29 60  1  0
 30 61  1  0
 31 62  1  0
A    1
C1
A    2
N2
A    3
N3
A    4
N4
A    5
C5
A    6
C6
A    7
C7
A    8
C8
A    9
C9
A   10
C10
A   11
N11
A   12
N12
A   13
S13
A   14
N14
A   15
C15
A   16
C16
A   17
C17
A   18
C18
A   19
C19
A   20
C20
A   21
C21
A   22
C22
A   23
C23
A   24
C24
A   25
C25
A   26
C26
A   27
C27
A   28
C28
A   29
C29
A   30
C30
A   31
O31
A   32
C32
A   33
CL33
M  END
