1NDV_FR0_A_1001
     RDKit          3D

 40 43  0  0  0  0  0  0  0  0999 V2000
   45.8910   47.9120   17.0220 N   0  0  0  0  0  0  0  0  0  0  0  0
   45.3540   47.5620   18.2420 C   0  0  0  0  0  0  0  0  0  0  0  0
   46.2410   48.0930   19.2240 C   0  0  0  0  0  0  0  0  0  0  0  0
   47.2490   48.7360   18.5330 N   0  0  0  0  0  0  0  0  0  0  0  0
   47.0230   48.5890   17.2490 C   0  0  0  0  0  0  0  0  0  0  0  0
   44.2280   46.8170   18.6340 C   0  0  0  0  0  0  0  0  0  0  0  0
   44.0150   46.6370   20.0250 C   0  0  0  0  0  0  0  0  0  0  0  0
   44.9070   47.1630   21.0030 C   0  0  0  0  0  0  0  0  0  0  0  0
   46.0220   47.8960   20.6040 C   0  0  0  0  0  0  0  0  0  0  0  0
   48.0120   48.9800   16.2160 N   0  0  0  0  0  0  0  0  0  0  0  0
   49.2730   49.6300   16.5560 C   0  0  0  0  0  0  0  0  0  0  0  0
   48.9460   50.9970   17.0030 C   0  0  0  0  0  0  0  0  0  0  0  0
   49.6110   51.8090   18.3630 S   0  0  0  0  0  0  0  0  0  0  0  0
   48.7250   53.3350   17.9660 C   0  0  0  0  0  0  0  0  0  0  0  0
   47.8580   53.1270   16.8110 C   0  0  0  0  0  0  0  0  0  0  0  0
   47.9940   51.7910   16.2720 C   0  0  0  0  0  0  0  0  0  0  0  0
   48.6830   54.5530   18.5670 C   0  0  0  0  0  0  0  0  0  0  0  0
   49.7550   54.4920   19.6080 N   0  0  0  0  0  0  0  0  0  0  0  0
   50.1180   55.5990   20.3060 C   0  0  0  0  0  0  0  0  0  0  0  0
   48.9360   56.8070   19.8700 S   0  0  0  0  0  0  0  0  0  0  0  0
   48.1940   55.7730   18.7610 C   0  0  0  0  0  0  0  0  0  0  0  0
   50.9400   55.7150   21.3940 N   0  0  0  0  0  0  0  0  0  0  0  0
   51.1020   54.7290   22.3200 C   0  0  0  0  0  0  0  0  0  0  0  0
   51.1160   53.4800   21.9470 N   0  0  0  0  0  0  0  0  0  0  0  0
   51.2040   54.9610   23.6260 N   0  0  0  0  0  0  0  0  0  0  0  0
   48.0411   49.2432   18.9529 H   0  0  0  0  0  0  0  0  0  0  0  0
   43.5386   46.3901   17.8907 H   0  0  0  0  0  0  0  0  0  0  0  0
   43.1319   46.0727   20.3592 H   0  0  0  0  0  0  0  0  0  0  0  0
   44.7154   46.9905   22.0724 H   0  0  0  0  0  0  0  0  0  0  0  0
   46.7167   48.3123   21.3484 H   0  0  0  0  0  0  0  0  0  0  0  0
   47.8020   48.7865   15.2264 H   0  0  0  0  0  0  0  0  0  0  0  0
   49.7766   49.0786   17.3637 H   0  0  0  0  0  0  0  0  0  0  0  0
   49.9500   49.6515   15.6893 H   0  0  0  0  0  0  0  0  0  0  0  0
   47.1833   53.8924   16.4001 H   0  0  0  0  0  0  0  0  0  0  0  0
   47.4323   51.4233   15.4006 H   0  0  0  0  0  0  0  0  0  0  0  0
   47.3086   56.1082   18.2009 H   0  0  0  0  0  0  0  0  0  0  0  0
   51.1244   52.7313   22.6544 H   0  0  0  0  0  0  0  0  0  0  0  0
   51.1187   53.2418   20.9449 H   0  0  0  0  0  0  0  0  0  0  0  0
   50.8911   54.2492   24.3015 H   0  0  0  0  0  0  0  0  0  0  0  0
   51.5959   55.8524   23.9616 H   0  0  0  0  0  0  0  0  0  0  0  0
  1  2  1  0
  1  5  2  0
  2  3  2  0
  2  6  1  0
  3  4  1  0
  3  9  1  0
  4  5  1  0
  5 10  1  0
  6  7  2  0
  7  8  1  0
  8  9  2  0
 10 11  1  0
 11 12  1  0
 12 13  1  0
 12 16  2  0
 13 14  1  0
 14 15  2  0
 14 17  1  0
 15 16  1  0
 17 18  1  0
 17 21  2  0
 18 19  2  0
 19 20  1  0
 19 22  1  0
 20 21  1  0
 22 23  2  0
 23 24  1  0
 23 25  1  0
  4 26  1  0
  6 27  1  0
  7 28  1  0
  8 29  1  0
  9 30  1  0
 10 31  1  0
 11 32  1  0
 11 33  1  0
 15 34  1  0
 16 35  1  0
 21 36  1  0
 24 37  1  0
 24 38  1  0
 25 39  1  0
 25 40  1  0
A    1
N1
A    2
C2
A    3
C3
A    4
N4
A    5
C5
A    6
C6
A    7
C7
A    8
C8
A    9
C9
A   10
N10
A   11
C11
A   12
C12
A   13
S15
A   14
C16
A   15
C17
A   16
C18
A   17
C19
A   18
N20
A   19
C21
A   20
S22
A   21
C23
A   22
N26
A   23
C27
A   24
N28
A   25
N29
M  END
