1NDW_FR2_A_1001
     RDKit          3D

 36 37  0  0  0  0  0  0  0  0999 V2000
   50.4340   54.0830   20.9940 C   0  0  0  0  0  0  0  0  0  0  0  0
   50.6030   55.0790   22.0270 N   0  0  0  0  0  0  0  0  0  0  0  0
   50.6220   54.4610   23.1890 C   0  0  0  0  0  0  0  0  0  0  0  0
   50.4690   53.1940   23.0560 N   0  0  0  0  0  0  0  0  0  0  0  0
   50.3370   52.9290   21.6470 C   0  0  0  0  0  0  0  0  0  0  0  0
   50.2100   51.6160   21.0130 C   0  0  0  0  0  0  0  0  0  0  0  0
   50.0870   51.4860   19.7810 O   0  0  0  0  0  0  0  0  0  0  0  0
   50.1230   50.5410   21.7810 N   0  0  0  0  0  0  0  0  0  0  0  0
   50.5660   56.5430   21.8290 C   0  0  0  0  0  0  0  0  0  0  0  0
   51.9810   57.0740   21.4570 C   0  0  0  0  0  0  0  0  0  0  0  0
   52.7530   56.4190   22.5180 O   0  0  0  0  0  0  0  0  0  0  0  0
   49.5410   57.0630   20.8240 C   0  0  0  0  0  0  0  0  0  0  0  0
   48.1120   56.5170   21.1270 C   0  0  0  0  0  0  0  0  0  0  0  0
   47.0200   57.1540   20.2770 C   0  0  0  0  0  0  0  0  0  0  0  0
   45.7190   56.7140   20.4330 C   0  0  0  0  0  0  0  0  0  0  0  0
   44.6770   57.2580   19.6930 C   0  0  0  0  0  0  0  0  0  0  0  0
   44.9510   58.2310   18.7200 C   0  0  0  0  0  0  0  0  0  0  0  0
   46.2640   58.6890   18.5160 C   0  0  0  0  0  0  0  0  0  0  0  0
   47.2690   58.1390   19.3390 C   0  0  0  0  0  0  0  0  0  0  0  0
   50.3943   54.2441   19.9066 H   0  0  0  0  0  0  0  0  0  0  0  0
   50.7530   54.9687   24.1560 H   0  0  0  0  0  0  0  0  0  0  0  0
   50.1309   50.6386   22.8063 H   0  0  0  0  0  0  0  0  0  0  0  0
   50.0474   49.6071   21.3531 H   0  0  0  0  0  0  0  0  0  0  0  0
   50.2315   56.9362   22.8004 H   0  0  0  0  0  0  0  0  0  0  0  0
   52.2951   56.7463   20.4550 H   0  0  0  0  0  0  0  0  0  0  0  0
   52.0790   58.1684   21.4050 H   0  0  0  0  0  0  0  0  0  0  0  0
   52.4118   56.7085   23.4011 H   0  0  0  0  0  0  0  0  0  0  0  0
   49.5207   58.1618   20.8709 H   0  0  0  0  0  0  0  0  0  0  0  0
   49.8359   56.7180   19.8220 H   0  0  0  0  0  0  0  0  0  0  0  0
   48.1081   55.4327   20.9418 H   0  0  0  0  0  0  0  0  0  0  0  0
   47.8889   56.7646   22.1753 H   0  0  0  0  0  0  0  0  0  0  0  0
   45.5042   55.9158   21.1588 H   0  0  0  0  0  0  0  0  0  0  0  0
   43.6426   56.9278   19.8689 H   0  0  0  0  0  0  0  0  0  0  0  0
   44.1307   58.6391   18.1113 H   0  0  0  0  0  0  0  0  0  0  0  0
   46.4974   59.4423   17.7492 H   0  0  0  0  0  0  0  0  0  0  0  0
   48.2984   58.5109   19.2295 H   0  0  0  0  0  0  0  0  0  0  0  0
  1  2  1  0
  1  5  2  0
  2  3  1  0
  2  9  1  0
  3  4  2  0
  4  5  1  0
  5  6  1  0
  6  7  2  0
  6  8  1  0
  9 10  1  0
  9 12  1  0
 10 11  1  0
 12 13  1  0
 13 14  1  0
 14 15  2  0
 14 19  1  0
 15 16  1  0
 16 17  2  0
 17 18  1  0
 18 19  2  0
  1 20  1  0
  3 21  1  0
  8 22  1  0
  8 23  1  0
  9 24  1  0
 10 25  1  0
 10 26  1  0
 11 27  1  0
 12 28  1  0
 12 29  1  0
 13 30  1  0
 13 31  1  0
 15 32  1  0
 16 33  1  0
 17 34  1  0
 18 35  1  0
 19 36  1  0
A    1
C1
A    2
N2
A    3
C3
A    4
N4
A    5
C5
A    6
C8
A    7
O9
A    8
N10
A    9
C13
A   10
C14
A   11
O15
A   12
C18
A   13
C19
A   14
C22
A   15
C25
A   16
C26
A   17
C27
A   18
C28
A   19
C29
M  END
