1NDZ_FR5_A_1001
     RDKit          3D

 66 70  0  0  0  0  0  0  0  0999 V2000
   51.2620   54.3940   21.0460 C   0  0  0  0  0  0  0  0  0  0  0  0
   51.2380   55.3230   22.0730 N   0  0  0  0  0  0  0  0  0  0  0  0
   51.1550   54.5960   23.2290 C   0  0  0  0  0  0  0  0  0  0  0  0
   51.0260   53.3560   23.0160 N   0  0  0  0  0  0  0  0  0  0  0  0
   51.0190   53.2330   21.6000 C   0  0  0  0  0  0  0  0  0  0  0  0
   50.8310   51.9830   20.8660 C   0  0  0  0  0  0  0  0  0  0  0  0
   50.5770   51.9510   19.6320 O   0  0  0  0  0  0  0  0  0  0  0  0
   50.8470   50.9090   21.6410 N   0  0  0  0  0  0  0  0  0  0  0  0
   51.1410   56.8020   21.8880 C   0  0  0  0  0  0  0  0  0  0  0  0
   52.5180   57.6040   21.7930 C   0  0  0  0  0  0  0  0  0  0  0  0
   53.6000   57.3210   22.6900 O   0  0  0  0  0  0  0  0  0  0  0  0
   50.3710   57.1940   20.6290 C   0  0  0  0  0  0  0  0  0  0  0  0
   48.8920   56.6160   20.6120 C   0  0  0  0  0  0  0  0  0  0  0  0
   48.2320   56.7680   19.2010 N   0  0  0  0  0  0  0  0  0  0  0  0
   47.7640   57.9340   18.6950 C   0  0  0  0  0  0  0  0  0  0  0  0
   47.2130   57.6920   17.5170 C   0  0  0  0  0  0  0  0  0  0  0  0
   47.3370   56.2520   17.3280 C   0  0  0  0  0  0  0  0  0  0  0  0
   48.0670   55.7380   18.3780 C   0  0  0  0  0  0  0  0  0  0  0  0
   47.1210   55.4740   16.2610 C   0  0  0  0  0  0  0  0  0  0  0  0
   47.4630   54.2100   16.3080 C   0  0  0  0  0  0  0  0  0  0  0  0
   48.1200   53.7120   17.3910 C   0  0  0  0  0  0  0  0  0  0  0  0
   48.3740   54.4780   18.4590 C   0  0  0  0  0  0  0  0  0  0  0  0
   48.4400   52.4840   17.5570 N   0  0  0  0  0  0  0  0  0  0  0  0
   48.2950   51.5180   16.7830 C   0  0  0  0  0  0  0  0  0  0  0  0
   47.6070   51.5150   15.7840 O   0  0  0  0  0  0  0  0  0  0  0  0
   49.1440   50.2820   17.1240 C   0  0  0  0  0  0  0  0  0  0  0  0
   48.5860   48.9020   16.6980 C   0  0  0  0  0  0  0  0  0  0  0  0
   44.6010   47.6190   21.1320 C   0  0  0  0  0  0  0  0  0  0  0  0
   45.8280   48.2110   20.7930 C   0  0  0  0  0  0  0  0  0  0  0  0
   46.2660   48.3270   19.4890 C   0  0  0  0  0  0  0  0  0  0  0  0
   45.6270   47.6310   18.4380 C   0  0  0  0  0  0  0  0  0  0  0  0
   44.4090   47.0580   18.7170 C   0  0  0  0  0  0  0  0  0  0  0  0
   43.9350   46.9960   20.0780 C   0  0  0  0  0  0  0  0  0  0  0  0
   47.4050   48.8850   18.9480 N   0  0  0  0  0  0  0  0  0  0  0  0
   47.4170   48.5800   17.6420 C   0  0  0  0  0  0  0  0  0  0  0  0
   46.3460   47.8930   17.2600 N   0  0  0  0  0  0  0  0  0  0  0  0
   46.0040   47.4390   15.9250 C   0  0  0  0  0  0  0  0  0  0  0  0
   51.4478   54.5918   19.9800 H   0  0  0  0  0  0  0  0  0  0  0  0
   51.1960   55.0413   24.2340 H   0  0  0  0  0  0  0  0  0  0  0  0
   50.8454   51.0133   22.6657 H   0  0  0  0  0  0  0  0  0  0  0  0
   50.8610   49.9695   21.2190 H   0  0  0  0  0  0  0  0  0  0  0  0
   50.6238   57.0843   22.8169 H   0  0  0  0  0  0  0  0  0  0  0  0
   52.9045   57.4427   20.7758 H   0  0  0  0  0  0  0  0  0  0  0  0
   52.2246   58.6241   22.0817 H   0  0  0  0  0  0  0  0  0  0  0  0
   53.2841   57.4036   23.6246 H   0  0  0  0  0  0  0  0  0  0  0  0
   50.3208   58.2915   20.5743 H   0  0  0  0  0  0  0  0  0  0  0  0
   50.9046   56.7683   19.7664 H   0  0  0  0  0  0  0  0  0  0  0  0
   48.9221   55.5494   20.8793 H   0  0  0  0  0  0  0  0  0  0  0  0
   48.2911   57.1849   21.3368 H   0  0  0  0  0  0  0  0  0  0  0  0
   47.8309   58.9179   19.1823 H   0  0  0  0  0  0  0  0  0  0  0  0
   46.7592   58.4202   16.8287 H   0  0  0  0  0  0  0  0  0  0  0  0
   46.6608   55.8915   15.3533 H   0  0  0  0  0  0  0  0  0  0  0  0
   47.2173   53.5463   15.4659 H   0  0  0  0  0  0  0  0  0  0  0  0
   48.8251   54.0572   19.3697 H   0  0  0  0  0  0  0  0  0  0  0  0
   48.8811   52.2620   18.4609 H   0  0  0  0  0  0  0  0  0  0  0  0
   50.1225   50.4080   16.6375 H   0  0  0  0  0  0  0  0  0  0  0  0
   49.1708   50.2504   18.2232 H   0  0  0  0  0  0  0  0  0  0  0  0
   48.2313   48.9426   15.6575 H   0  0  0  0  0  0  0  0  0  0  0  0
   49.3648   48.1276   16.7588 H   0  0  0  0  0  0  0  0  0  0  0  0
   44.1952   47.6449   22.1541 H   0  0  0  0  0  0  0  0  0  0  0  0
   46.4670   48.5986   21.6001 H   0  0  0  0  0  0  0  0  0  0  0  0
   43.7955   46.6465   17.9020 H   0  0  0  0  0  0  0  0  0  0  0  0
   43.0129   46.4358   20.2921 H   0  0  0  0  0  0  0  0  0  0  0  0
   45.3434   46.5621   15.9939 H   0  0  0  0  0  0  0  0  0  0  0  0
   45.4873   48.2458   15.3845 H   0  0  0  0  0  0  0  0  0  0  0  0
   46.9220   47.1649   15.3845 H   0  0  0  0  0  0  0  0  0  0  0  0
  1  2  1  0
  1  5  2  0
  2  3  1  0
  2  9  1  0
  3  4  2  0
  4  5  1  0
  5  6  1  0
  6  7  2  0
  6  8  1  0
  9 10  1  0
  9 12  1  0
 10 11  1  0
 12 13  1  0
 13 14  1  0
 14 15  1  0
 14 18  1  0
 15 16  2  0
 16 17  1  0
 17 18  2  0
 17 19  1  0
 18 22  1  0
 19 20  2  0
 20 21  1  0
 21 22  2  0
 21 23  1  0
 23 24  1  0
 24 25  2  0
 24 26  1  0
 26 27  1  0
 27 35  1  0
 28 29  2  0
 28 33  1  0
 29 30  1  0
 30 31  2  0
 30 34  1  0
 31 32  1  0
 31 36  1  0
 32 33  2  0
 34 35  2  0
 35 36  1  0
 36 37  1  0
  1 38  1  0
  3 39  1  0
  8 40  1  0
  8 41  1  0
  9 42  1  0
 10 43  1  0
 10 44  1  0
 11 45  1  0
 12 46  1  0
 12 47  1  0
 13 48  1  0
 13 49  1  0
 15 50  1  0
 16 51  1  0
 19 52  1  0
 20 53  1  0
 22 54  1  0
 23 55  1  0
 26 56  1  0
 26 57  1  0
 27 58  1  0
 27 59  1  0
 28 60  1  0
 29 61  1  0
 32 62  1  0
 33 63  1  0
 37 64  1  0
 37 65  1  0
 37 66  1  0
A    1
C1
A    2
N2
A    3
C3
A    4
N4
A    5
C5
A    6
C8
A    7
O9
A    8
N10
A    9
C13
A   10
C14
A   11
O15
A   12
C18
A   13
C19
A   14
N22
A   15
C27
A   16
C28
A   17
C29
A   18
C30
A   19
C31
A   20
C32
A   21
C33
A   22
C34
A   23
N1
A   24
C2
A   25
O1
A   26
C4
A   27
C6
A   28
C9
A   29
C15
A   30
C10
A   31
C16
A   32
C11
A   33
C17
A   34
N11
A   35
C12
A   36
N13
A   37
C7
M  END
