1NFU_RRP_A_301
     RDKit          3D

 49 52  0  0  0  0  0  0  0  0999 V2000
    7.7990    0.4050   16.6500 N   0  0  0  0  0  0  0  0  0  0  0  0
    6.6810    1.0070   17.0690 C   0  0  0  0  0  0  0  0  0  0  0  0
    5.6500    1.1520   16.2090 N   0  0  0  0  0  0  0  0  0  0  0  0
    6.5450    1.5100   18.4550 C   0  0  0  0  0  0  0  0  0  0  0  0
    5.6790    2.6020   18.7490 C   0  0  0  0  0  0  0  0  0  0  0  0
    5.5380    3.0890   20.0770 C   0  0  0  0  0  0  0  0  0  0  0  0
    6.2730    2.4720   21.1150 C   0  0  0  0  0  0  0  0  0  0  0  0
    7.1300    1.3950   20.8350 C   0  0  0  0  0  0  0  0  0  0  0  0
    7.2720    0.9110   19.5180 C   0  0  0  0  0  0  0  0  0  0  0  0
    4.6130    4.2550   20.3660 C   0  0  0  0  0  0  0  0  0  0  0  0
    5.2400    5.3030   21.2030 N   0  0  0  0  0  0  0  0  0  0  0  0
    4.9050    5.4240   22.5450 C   0  0  0  0  0  0  0  0  0  0  0  0
    4.0950    4.6980   23.1190 O   0  0  0  0  0  0  0  0  0  0  0  0
    5.6160    6.5420   23.3200 C   0  0  0  0  0  0  0  0  0  0  0  0
    5.9860    7.7240   22.4970 N   0  0  0  0  0  0  0  0  0  0  0  0
    6.8820    7.2660   21.3990 C   0  0  0  0  0  0  0  0  0  0  0  0
    6.2230    6.1930   20.5160 C   0  0  0  0  0  0  0  0  0  0  0  0
    6.5220    9.0100   23.3700 S   0  0  0  0  0  0  0  0  0  0  0  0
    6.7240   10.0460   22.4060 O   0  0  0  0  0  0  0  0  0  0  0  0
    5.5370    9.2960   24.3990 O   0  0  0  0  0  0  0  0  0  0  0  0
    8.0180    8.5900   24.0920 C   0  0  0  0  0  0  0  0  0  0  0  0
    8.0470    7.9730   25.3790 C   0  0  0  0  0  0  0  0  0  0  0  0
    9.4290    7.7150   25.7380 C   0  0  0  0  0  0  0  0  0  0  0  0
   10.3100    8.1500   24.7190 C   0  0  0  0  0  0  0  0  0  0  0  0
    9.5610    8.8390   23.3840 S   0  0  0  0  0  0  0  0  0  0  0  0
   11.7310    7.9480   24.9430 C   0  0  0  0  0  0  0  0  0  0  0  0
   12.1760    7.3380   26.1300 C   0  0  0  0  0  0  0  0  0  0  0  0
   13.8710    7.1120   26.3290 Cl  0  0  0  0  0  0  0  0  0  0  0  0
   11.2610    6.9150   27.1380 C   0  0  0  0  0  0  0  0  0  0  0  0
    9.8670    7.1140   26.9230 C   0  0  0  0  0  0  0  0  0  0  0  0
    8.5934    0.2875   17.2950 H   0  0  0  0  0  0  0  0  0  0  0  0
    4.6943    1.2864   16.5688 H   0  0  0  0  0  0  0  0  0  0  0  0
    5.8193    1.1282   15.1933 H   0  0  0  0  0  0  0  0  0  0  0  0
    5.1103    3.0760   17.9354 H   0  0  0  0  0  0  0  0  0  0  0  0
    6.1732    2.8374   22.1477 H   0  0  0  0  0  0  0  0  0  0  0  0
    7.6965    0.9239   21.6518 H   0  0  0  0  0  0  0  0  0  0  0  0
    7.9476    0.0673   19.3135 H   0  0  0  0  0  0  0  0  0  0  0  0
    4.3098    4.7062   19.4097 H   0  0  0  0  0  0  0  0  0  0  0  0
    3.7535    3.8593   20.9269 H   0  0  0  0  0  0  0  0  0  0  0  0
    4.9478    6.8800   24.1258 H   0  0  0  0  0  0  0  0  0  0  0  0
    6.5579    6.1136   23.6934 H   0  0  0  0  0  0  0  0  0  0  0  0
    7.1415    8.1307   20.7705 H   0  0  0  0  0  0  0  0  0  0  0  0
    7.7763    6.8202   21.8588 H   0  0  0  0  0  0  0  0  0  0  0  0
    7.0210    5.5591   20.1021 H   0  0  0  0  0  0  0  0  0  0  0  0
    5.6493    6.7421   19.7548 H   0  0  0  0  0  0  0  0  0  0  0  0
    7.1682    7.7332   25.9957 H   0  0  0  0  0  0  0  0  0  0  0  0
   12.4589    8.2720   24.1846 H   0  0  0  0  0  0  0  0  0  0  0  0
   11.6242    6.4443   28.0635 H   0  0  0  0  0  0  0  0  0  0  0  0
    9.1391    6.7970   27.6843 H   0  0  0  0  0  0  0  0  0  0  0  0
  1  2  2  3
  2  3  1  0
  2  4  1  0
  4  5  2  0
  4  9  1  0
  5  6  1  0
  6  7  2  0
  6 10  1  0
  7  8  1  0
  8  9  2  0
 10 11  1  0
 11 12  1  0
 11 17  1  0
 12 13  2  0
 12 14  1  0
 14 15  1  0
 15 16  1  0
 15 18  1  0
 16 17  1  0
 18 19  2  0
 18 20  2  0
 18 21  1  0
 21 22  2  0
 21 25  1  0
 22 23  1  0
 23 24  2  0
 23 30  1  0
 24 25  1  0
 24 26  1  0
 26 27  2  0
 27 28  1  0
 27 29  1  0
 29 30  2  0
  1 31  1  0
  3 32  1  0
  3 33  1  0
  5 34  1  0
  7 35  1  0
  8 36  1  0
  9 37  1  0
 10 38  1  0
 10 39  1  0
 14 40  1  0
 14 41  1  0
 16 42  1  0
 16 43  1  0
 17 44  1  0
 17 45  1  0
 22 46  1  0
 26 47  1  0
 29 48  1  0
 30 49  1  0
A    1
N29
A    2
C28
A    3
N30
A    4
C27
A    5
C26
A    6
C24
A    7
C22
A    8
C23
A    9
C25
A   10
C21
A   11
N2
A   12
C8
A   13
O1
A   14
C4
A   15
N1
A   16
C7
A   17
C2
A   18
S4
A   19
O8
A   20
O9
A   21
C1
A   22
C3
A   23
C6
A   24
C5
A   25
S2
A   26
C10
A   27
C14
A   28
CL
A   29
C15
A   30
C11
M  END
