1NHU_153_A_5001
     RDKit          3D

 51 53  0  0  0  0  0  0  0  0999 V2000
    7.3180   33.2600   77.8600 N   0  0  0  0  0  0  0  0  0  0  0  0
    7.1460   32.8210   76.3930 C   0  0  0  0  0  0  0  0  0  0  0  0
    5.6810   32.9860   75.8330 C   0  0  0  0  0  0  0  0  0  0  0  0
    5.4030   32.5250   74.6950 O   0  0  0  0  0  0  0  0  0  0  0  0
    4.8390   33.5880   76.5270 O   0  0  0  0  0  0  0  0  0  0  0  0
    7.2500   34.6300   78.2460 C   0  0  0  0  0  0  0  0  0  0  0  0
    6.8810   34.9810   79.3550 O   0  0  0  0  0  0  0  0  0  0  0  0
    7.6660   35.7540   77.3020 C   0  0  0  0  0  0  0  0  0  0  0  0
    6.6330   36.4720   76.6380 C   0  0  0  0  0  0  0  0  0  0  0  0
    6.9640   37.5310   75.7610 C   0  0  0  0  0  0  0  0  0  0  0  0
    8.3290   37.8700   75.5480 C   0  0  0  0  0  0  0  0  0  0  0  0
    9.3600   37.1560   76.2120 C   0  0  0  0  0  0  0  0  0  0  0  0
    9.0400   36.1000   77.0890 C   0  0  0  0  0  0  0  0  0  0  0  0
    8.7340   39.1510   74.4800 Cl  0  0  0  0  0  0  0  0  0  0  0  0
   10.3320   35.2670   77.8840 Cl  0  0  0  0  0  0  0  0  0  0  0  0
    7.6790   31.3640   76.1200 C   0  0  0  0  0  0  0  0  0  0  0  0
    9.1880   31.1640   76.0270 C   0  0  0  0  0  0  0  0  0  0  0  0
    9.7150   29.8360   75.8460 C   0  0  0  0  0  0  0  0  0  0  0  0
   11.1140   29.6040   75.7620 C   0  0  0  0  0  0  0  0  0  0  0  0
   12.0130   30.7040   75.8610 C   0  0  0  0  0  0  0  0  0  0  0  0
   11.5100   32.0260   76.0400 C   0  0  0  0  0  0  0  0  0  0  0  0
   10.1100   32.2520   76.1210 C   0  0  0  0  0  0  0  0  0  0  0  0
    7.5490   32.1750   78.9240 C   0  0  0  0  0  0  0  0  0  0  0  0
    8.9060   32.2070   79.6980 C   0  0  0  0  0  0  0  0  0  0  0  0
    9.3060   33.3470   80.4750 C   0  0  0  0  0  0  0  0  0  0  0  0
   10.5410   33.3880   81.1820 C   0  0  0  0  0  0  0  0  0  0  0  0
   11.4390   32.3020   81.1550 C   0  0  0  0  0  0  0  0  0  0  0  0
   11.0680   31.1560   80.4000 C   0  0  0  0  0  0  0  0  0  0  0  0
    9.8160   31.1020   79.6760 C   0  0  0  0  0  0  0  0  0  0  0  0
   11.9980   29.9280   80.3290 C   0  0  0  0  0  0  0  0  0  0  0  0
   12.9640   30.1320   79.4200 F   0  0  0  0  0  0  0  0  0  0  0  0
   11.3230   28.8130   79.9770 F   0  0  0  0  0  0  0  0  0  0  0  0
   12.5800   29.6930   81.5150 F   0  0  0  0  0  0  0  0  0  0  0  0
    7.7778   33.5272   75.8342 H   0  0  0  0  0  0  0  0  0  0  0  0
    4.8930   33.5494   77.5148 H   0  0  0  0  0  0  0  0  0  0  0  0
    5.5794   36.2042   76.8062 H   0  0  0  0  0  0  0  0  0  0  0  0
    6.1692   38.0902   75.2457 H   0  0  0  0  0  0  0  0  0  0  0  0
   10.4123   37.4275   76.0417 H   0  0  0  0  0  0  0  0  0  0  0  0
    7.3128   30.7227   76.9353 H   0  0  0  0  0  0  0  0  0  0  0  0
    7.3046   31.1160   75.1159 H   0  0  0  0  0  0  0  0  0  0  0  0
    9.0214   28.9855   75.7714 H   0  0  0  0  0  0  0  0  0  0  0  0
   11.4996   28.5834   75.6217 H   0  0  0  0  0  0  0  0  0  0  0  0
   13.0979   30.5333   75.7992 H   0  0  0  0  0  0  0  0  0  0  0  0
   12.2078   32.8730   76.1156 H   0  0  0  0  0  0  0  0  0  0  0  0
    9.7313   33.2757   76.2576 H   0  0  0  0  0  0  0  0  0  0  0  0
    6.7428   32.2640   79.6670 H   0  0  0  0  0  0  0  0  0  0  0  0
    7.5663   31.2289   78.3631 H   0  0  0  0  0  0  0  0  0  0  0  0
    8.6355   34.2176   80.5254 H   0  0  0  0  0  0  0  0  0  0  0  0
   10.7999   34.2863   81.7617 H   0  0  0  0  0  0  0  0  0  0  0  0
   12.3941   32.3399   81.6994 H   0  0  0  0  0  0  0  0  0  0  0  0
    9.5602   30.1998   79.1011 H   0  0  0  0  0  0  0  0  0  0  0  0
  1  2  1  0
  1  6  1  0
  1 23  1  0
  2  3  1  0
  2 16  1  0
  3  4  2  0
  3  5  1  0
  6  7  2  0
  6  8  1  0
  8  9  2  0
  8 13  1  0
  9 10  1  0
 10 11  2  0
 11 12  1  0
 11 14  1  0
 12 13  2  0
 13 15  1  0
 16 17  1  0
 17 18  2  0
 17 22  1  0
 18 19  1  0
 19 20  2  0
 20 21  1  0
 21 22  2  0
 23 24  1  0
 24 25  2  0
 24 29  1  0
 25 26  1  0
 26 27  2  0
 27 28  1  0
 28 29  2  0
 28 30  1  0
 30 31  1  0
 30 32  1  0
 30 33  1  0
  2 34  1  0
  5 35  1  0
  9 36  1  0
 10 37  1  0
 12 38  1  0
 16 39  1  0
 16 40  1  0
 18 41  1  0
 19 42  1  0
 20 43  1  0
 21 44  1  0
 22 45  1  0
 23 46  1  0
 23 47  1  0
 25 48  1  0
 26 49  1  0
 27 50  1  0
 29 51  1  0
A    1
N1
A    2
C2
A    3
C3
A    4
O4
A    5
O5
A    6
C6
A    7
O7
A    8
C8
A    9
C9
A   10
C10
A   11
C11
A   12
C12
A   13
C13
A   14
CL14
A   15
CL15
A   16
C16
A   17
C17
A   18
C18
A   19
C19
A   20
C20
A   21
C21
A   22
C22
A   23
C23
A   24
C24
A   25
C25
A   26
C26
A   27
C27
A   28
C28
A   29
C29
A   30
C30
A   31
F31
A   32
F32
A   33
F33
M  END
