1NHV_154_A_5001
     RDKit          3D

 58 62  0  0  0  0  0  0  0  0999 V2000
    6.5680   34.6840   75.2740 N   0  0  0  0  0  0  0  0  0  0  0  0
    6.5680   34.1080   73.8690 C   0  0  0  0  0  0  0  0  0  0  0  0
    5.1370   34.1580   73.3280 C   0  0  0  0  0  0  0  0  0  0  0  0
    4.9100   33.7840   72.1540 O   0  0  0  0  0  0  0  0  0  0  0  0
    4.2650   34.5920   74.1100 O   0  0  0  0  0  0  0  0  0  0  0  0
    6.5730   36.0950   75.4920 C   0  0  0  0  0  0  0  0  0  0  0  0
    6.1380   36.5960   76.5120 O   0  0  0  0  0  0  0  0  0  0  0  0
    7.1520   37.0740   74.4740 C   0  0  0  0  0  0  0  0  0  0  0  0
    6.2340   37.7810   73.6470 C   0  0  0  0  0  0  0  0  0  0  0  0
    6.7020   38.7110   72.6900 C   0  0  0  0  0  0  0  0  0  0  0  0
    8.1010   38.9410   72.5530 C   0  0  0  0  0  0  0  0  0  0  0  0
    9.0240   38.2410   73.3690 C   0  0  0  0  0  0  0  0  0  0  0  0
    8.5540   37.3070   74.3280 C   0  0  0  0  0  0  0  0  0  0  0  0
    8.6820   40.0780   71.3990 Cl  0  0  0  0  0  0  0  0  0  0  0  0
    9.7000   36.4940   75.2910 Cl  0  0  0  0  0  0  0  0  0  0  0  0
    7.1980   32.6590   73.7530 C   0  0  0  0  0  0  0  0  0  0  0  0
    8.7380   32.5110   73.7890 C   0  0  0  0  0  0  0  0  0  0  0  0
    9.3270   31.2430   74.1180 C   0  0  0  0  0  0  0  0  0  0  0  0
   10.7480   31.0690   74.1650 C   0  0  0  0  0  0  0  0  0  0  0  0
   11.6160   32.1580   73.8760 C   0  0  0  0  0  0  0  0  0  0  0  0
   11.0610   33.4230   73.5470 C   0  0  0  0  0  0  0  0  0  0  0  0
    9.6380   33.5990   73.4990 C   0  0  0  0  0  0  0  0  0  0  0  0
    6.4790   33.6730   76.4170 C   0  0  0  0  0  0  0  0  0  0  0  0
    7.5400   33.7610   77.5460 C   0  0  0  0  0  0  0  0  0  0  0  0
    8.1520   34.8940   78.0430 C   0  0  0  0  0  0  0  0  0  0  0  0
    9.0830   34.6550   79.0670 C   0  0  0  0  0  0  0  0  0  0  0  0
    9.1980   33.3380   79.3800 C   0  0  0  0  0  0  0  0  0  0  0  0
    8.1450   32.3680   78.3950 S   0  0  0  0  0  0  0  0  0  0  0  0
   10.0820   32.8600   80.4440 C   0  0  0  0  0  0  0  0  0  0  0  0
    9.8830   31.7740   81.2790 C   0  0  0  0  0  0  0  0  0  0  0  0
   11.0410   31.7380   82.1690 C   0  0  0  0  0  0  0  0  0  0  0  0
   11.4480   30.8490   83.2330 C   0  0  0  0  0  0  0  0  0  0  0  0
   12.6870   31.1150   83.8900 C   0  0  0  0  0  0  0  0  0  0  0  0
   13.5260   32.2280   83.4820 C   0  0  0  0  0  0  0  0  0  0  0  0
   13.1250   33.1090   82.4300 C   0  0  0  0  0  0  0  0  0  0  0  0
   11.8750   32.8260   81.7620 C   0  0  0  0  0  0  0  0  0  0  0  0
   11.2780   33.5180   80.7310 O   0  0  0  0  0  0  0  0  0  0  0  0
    7.2329   34.7301   73.2519 H   0  0  0  0  0  0  0  0  0  0  0  0
    4.4000   34.5248   75.0885 H   0  0  0  0  0  0  0  0  0  0  0  0
    5.1537   37.6028   73.7531 H   0  0  0  0  0  0  0  0  0  0  0  0
    5.9883   39.2548   72.0537 H   0  0  0  0  0  0  0  0  0  0  0  0
   10.1035   38.4215   73.2591 H   0  0  0  0  0  0  0  0  0  0  0  0
    6.7964   32.0641   74.5866 H   0  0  0  0  0  0  0  0  0  0  0  0
    6.9225   32.3293   72.7404 H   0  0  0  0  0  0  0  0  0  0  0  0
    8.6726   30.3868   74.3387 H   0  0  0  0  0  0  0  0  0  0  0  0
   11.1704   30.0875   74.4261 H   0  0  0  0  0  0  0  0  0  0  0  0
   12.7071   32.0216   73.9070 H   0  0  0  0  0  0  0  0  0  0  0  0
   11.7253   34.2720   73.3279 H   0  0  0  0  0  0  0  0  0  0  0  0
    9.2254   34.5841   73.2356 H   0  0  0  0  0  0  0  0  0  0  0  0
    5.4910   33.7936   76.8853 H   0  0  0  0  0  0  0  0  0  0  0  0
    6.6628   32.6991   75.9399 H   0  0  0  0  0  0  0  0  0  0  0  0
    7.9284   35.9033   77.6671 H   0  0  0  0  0  0  0  0  0  0  0  0
    9.6584   35.4503   79.5633 H   0  0  0  0  0  0  0  0  0  0  0  0
    9.0289   31.0809   81.2735 H   0  0  0  0  0  0  0  0  0  0  0  0
   10.8223   29.9936   83.5276 H   0  0  0  0  0  0  0  0  0  0  0  0
   13.0112   30.4672   84.7178 H   0  0  0  0  0  0  0  0  0  0  0  0
   14.4865   32.3960   83.9912 H   0  0  0  0  0  0  0  0  0  0  0  0
   13.7447   33.9702   82.1398 H   0  0  0  0  0  0  0  0  0  0  0  0
  1  2  1  0
  1  6  1  0
  1 23  1  0
  2  3  1  0
  2 16  1  0
  3  4  2  0
  3  5  1  0
  6  7  2  0
  6  8  1  0
  8  9  2  0
  8 13  1  0
  9 10  1  0
 10 11  2  0
 11 12  1  0
 11 14  1  0
 12 13  2  0
 13 15  1  0
 16 17  1  0
 17 18  2  0
 17 22  1  0
 18 19  1  0
 19 20  2  0
 20 21  1  0
 21 22  2  0
 23 24  1  0
 24 25  2  0
 24 28  1  0
 25 26  1  0
 26 27  2  0
 27 28  1  0
 27 29  1  0
 29 30  2  0
 29 37  1  0
 30 31  1  0
 31 32  2  0
 31 36  1  0
 32 33  1  0
 33 34  2  0
 34 35  1  0
 35 36  2  0
 36 37  1  0
  2 38  1  0
  5 39  1  0
  9 40  1  0
 10 41  1  0
 12 42  1  0
 16 43  1  0
 16 44  1  0
 18 45  1  0
 19 46  1  0
 20 47  1  0
 21 48  1  0
 22 49  1  0
 23 50  1  0
 23 51  1  0
 25 52  1  0
 26 53  1  0
 30 54  1  0
 32 55  1  0
 33 56  1  0
 34 57  1  0
 35 58  1  0
A    1
N1
A    2
C2
A    3
C3
A    4
O4
A    5
O5
A    6
C6
A    7
O7
A    8
C8
A    9
C9
A   10
C10
A   11
C11
A   12
C12
A   13
C13
A   14
CL14
A   15
CL15
A   16
C16
A   17
C17
A   18
C18
A   19
C19
A   20
C20
A   21
C21
A   22
C22
A   23
C23
A   24
C24
A   25
C25
A   26
C26
A   27
C27
A   28
S28
A   29
C29
A   30
C30
A   31
C31
A   32
C32
A   33
C33
A   34
C34
A   35
C35
A   36
C36
A   37
O37
M  END
