1NHX_FTB_A_704
     RDKit          3D

 60 63  0  0  0  0  0  0  0  0999 V2000
   35.8010   51.4460   34.0580 O   0  0  0  0  0  0  0  0  0  0  0  0
   36.0990   51.3690   35.2450 C   0  0  0  0  0  0  0  0  0  0  0  0
   35.5200   52.3910   36.1800 C   0  0  0  0  0  0  0  0  0  0  0  0
   36.9390   50.3870   35.7390 N   0  0  0  0  0  0  0  0  0  0  0  0
   37.6020   49.3190   35.0080 C   0  0  0  0  0  0  0  0  0  0  0  0
   38.5010   48.4660   35.6750 C   0  0  0  0  0  0  0  0  0  0  0  0
   39.1520   47.4290   34.9770 C   0  0  0  0  0  0  0  0  0  0  0  0
   37.3760   49.1210   33.6300 C   0  0  0  0  0  0  0  0  0  0  0  0
   38.0280   48.0880   32.9320 C   0  0  0  0  0  0  0  0  0  0  0  0
   38.9090   47.2310   33.6060 C   0  0  0  0  0  0  0  0  0  0  0  0
   39.6080   46.1290   32.8350 C   0  0  0  0  0  0  0  0  0  0  0  0
   38.8310   44.8400   32.8870 C   0  0  0  0  0  0  0  0  0  0  0  0
   39.1550   43.9000   33.8030 N   0  0  0  0  0  0  0  0  0  0  0  0
   38.2640   42.9240   33.5450 C   0  0  0  0  0  0  0  0  0  0  0  0
   38.2170   41.7490   34.2440 N   0  0  0  0  0  0  0  0  0  0  0  0
   39.1590   41.4440   35.3460 C   0  0  0  0  0  0  0  0  0  0  0  0
   40.2020   40.3990   34.8780 C   0  0  0  0  0  0  0  0  0  0  0  0
   41.1370   39.9680   36.0180 C   0  0  0  0  0  0  0  0  0  0  0  0
   41.9520   38.7370   35.6300 C   0  0  0  0  0  0  0  0  0  0  0  0
   37.4460   43.2730   32.5150 C   0  0  0  0  0  0  0  0  0  0  0  0
   37.7890   44.5060   32.0810 N   0  0  0  0  0  0  0  0  0  0  0  0
   36.4470   42.4000   32.0870 C   0  0  0  0  0  0  0  0  0  0  0  0
   35.6740   42.6810   31.1660 O   0  0  0  0  0  0  0  0  0  0  0  0
   36.3800   41.1860   32.7780 N   0  0  0  0  0  0  0  0  0  0  0  0
   37.2450   40.8590   33.8370 C   0  0  0  0  0  0  0  0  0  0  0  0
   37.1310   39.7930   34.4150 O   0  0  0  0  0  0  0  0  0  0  0  0
   35.6750   40.0310   32.1730 C   0  0  0  0  0  0  0  0  0  0  0  0
   34.2810   40.0170   32.7520 C   0  0  0  0  0  0  0  0  0  0  0  0
   34.0250   40.3500   34.1000 C   0  0  0  0  0  0  0  0  0  0  0  0
   32.7130   40.3340   34.6040 C   0  0  0  0  0  0  0  0  0  0  0  0
   31.6510   39.9680   33.7640 C   0  0  0  0  0  0  0  0  0  0  0  0
   31.8990   39.6340   32.4210 C   0  0  0  0  0  0  0  0  0  0  0  0
   33.2120   39.6650   31.9230 C   0  0  0  0  0  0  0  0  0  0  0  0
   33.4370   39.3320   30.6350 F   0  0  0  0  0  0  0  0  0  0  0  0
   35.6970   52.0786   37.2198 H   0  0  0  0  0  0  0  0  0  0  0  0
   36.0009   53.3643   36.0027 H   0  0  0  0  0  0  0  0  0  0  0  0
   34.4380   52.4789   36.0027 H   0  0  0  0  0  0  0  0  0  0  0  0
   37.1174   50.4161   36.7530 H   0  0  0  0  0  0  0  0  0  0  0  0
   38.6968   48.6096   36.7479 H   0  0  0  0  0  0  0  0  0  0  0  0
   39.8548   46.7702   35.5081 H   0  0  0  0  0  0  0  0  0  0  0  0
   36.6805   49.7833   33.0937 H   0  0  0  0  0  0  0  0  0  0  0  0
   37.8461   47.9526   31.8556 H   0  0  0  0  0  0  0  0  0  0  0  0
   39.7149   46.4397   31.7852 H   0  0  0  0  0  0  0  0  0  0  0  0
   40.5924   45.9572   33.2949 H   0  0  0  0  0  0  0  0  0  0  0  0
   39.6774   42.3661   35.6477 H   0  0  0  0  0  0  0  0  0  0  0  0
   38.5968   41.0358   36.1988 H   0  0  0  0  0  0  0  0  0  0  0  0
   39.6715   39.5128   34.4996 H   0  0  0  0  0  0  0  0  0  0  0  0
   40.8164   40.8613   34.0914 H   0  0  0  0  0  0  0  0  0  0  0  0
   41.8246   40.7948   36.2497 H   0  0  0  0  0  0  0  0  0  0  0  0
   40.5227   39.7160   36.8950 H   0  0  0  0  0  0  0  0  0  0  0  0
   42.2933   38.2215   36.5398 H   0  0  0  0  0  0  0  0  0  0  0  0
   41.3261   38.0554   35.0353 H   0  0  0  0  0  0  0  0  0  0  0  0
   42.8239   39.0470   35.0353 H   0  0  0  0  0  0  0  0  0  0  0  0
   37.3637   45.0587   31.3230 H   0  0  0  0  0  0  0  0  0  0  0  0
   35.6296   40.1456   31.0799 H   0  0  0  0  0  0  0  0  0  0  0  0
   36.2015   39.0900   32.3904 H   0  0  0  0  0  0  0  0  0  0  0  0
   34.8598   40.6244   34.7617 H   0  0  0  0  0  0  0  0  0  0  0  0
   32.5201   40.6071   35.6519 H   0  0  0  0  0  0  0  0  0  0  0  0
   30.6236   39.9423   34.1562 H   0  0  0  0  0  0  0  0  0  0  0  0
   31.0662   39.3489   31.7614 H   0  0  0  0  0  0  0  0  0  0  0  0
  1  2  2  0
  2  3  1  0
  2  4  1  0
  4  5  1  0
  5  6  2  0
  5  8  1  0
  6  7  1  0
  7 10  2  0
  8  9  2  0
  9 10  1  0
 10 11  1  0
 11 12  1  0
 12 13  2  0
 12 21  1  0
 13 14  1  0
 14 15  1  0
 14 20  2  0
 15 16  1  0
 15 25  1  0
 16 17  1  0
 17 18  1  0
 18 19  1  0
 20 21  1  0
 20 22  1  0
 22 23  2  0
 22 24  1  0
 24 25  1  0
 24 27  1  0
 25 26  2  0
 27 28  1  0
 28 29  2  0
 28 33  1  0
 29 30  1  0
 30 31  2  0
 31 32  1  0
 32 33  2  0
 33 34  1  0
  3 35  1  0
  3 36  1  0
  3 37  1  0
  4 38  1  0
  6 39  1  0
  7 40  1  0
  8 41  1  0
  9 42  1  0
 11 43  1  0
 11 44  1  0
 16 45  1  0
 16 46  1  0
 17 47  1  0
 17 48  1  0
 18 49  1  0
 18 50  1  0
 19 51  1  0
 19 52  1  0
 19 53  1  0
 21 54  1  0
 27 55  1  0
 27 56  1  0
 29 57  1  0
 30 58  1  0
 31 59  1  0
 32 60  1  0
A    1
O33
A    2
C32
A    3
C34
A    4
N31
A    5
C28
A    6
C29
A    7
C30
A    8
C27
A    9
C26
A   10
C25
A   11
C24
A   12
C1
A   13
N2
A   14
C3
A   15
N6
A   16
C12
A   17
C13
A   18
C14
A   19
C15
A   20
C4
A   21
N5
A   22
C9
A   23
O10
A   24
N8
A   25
C7
A   26
O11
A   27
C16
A   28
C17
A   29
C18
A   30
C19
A   31
C20
A   32
C21
A   33
C22
A   34
F
M  END
