1NI1_2C5_B_10
     RDKit          3D

 50 53  0  0  0  0  0  0  0  0999 V2000
   50.3780   48.9040   -1.2380 O   0  0  0  0  0  0  0  0  0  0  0  0
   50.8460   47.6040   -0.8410 C   0  0  0  0  0  0  0  0  0  0  0  0
   52.1080   47.7610    0.0520 C   0  0  0  0  0  0  0  0  0  0  0  0
   52.0700   47.4920    1.4600 C   0  0  0  0  0  0  0  0  0  0  0  0
   53.2300   47.6620    2.2760 C   0  0  0  0  0  0  0  0  0  0  0  0
   54.4340   48.1010    1.6830 C   0  0  0  0  0  0  0  0  0  0  0  0
   54.4870   48.3620    0.3070 C   0  0  0  0  0  0  0  0  0  0  0  0
   53.3440   48.1980   -0.4920 C   0  0  0  0  0  0  0  0  0  0  0  0
   54.6030   52.0260    1.7970 C   0  0  0  0  0  0  0  0  0  0  0  0
   54.7530   51.7970    0.4120 C   0  0  0  0  0  0  0  0  0  0  0  0
   56.3190   51.4400   -0.2150 Cl  0  0  0  0  0  0  0  0  0  0  0  0
   55.6090   48.3000    2.4660 C   0  0  0  0  0  0  0  0  0  0  0  0
   53.6440   51.8490   -0.4710 C   0  0  0  0  0  0  0  0  0  0  0  0
   56.5540   48.5140    3.0970 N   0  0  0  0  0  0  0  0  0  0  0  0
   53.3150   52.3150    2.2960 C   0  0  0  0  0  0  0  0  0  0  0  0
   52.3520   52.1410    0.0300 C   0  0  0  0  0  0  0  0  0  0  0  0
   52.2020   52.3700    1.4150 C   0  0  0  0  0  0  0  0  0  0  0  0
   50.1050   49.9440   -0.2770 C   0  0  0  0  0  0  0  0  0  0  0  0
   51.7230   45.4050   -3.9430 N   0  0  0  0  0  0  0  0  0  0  0  0
   52.0480   46.0740   -2.6820 C   0  0  0  0  0  0  0  0  0  0  0  0
   50.9830   46.7490   -2.1600 C   0  0  0  0  0  0  0  0  0  0  0  0
   49.9210   46.4700   -3.1740 N   0  0  0  0  0  0  0  0  0  0  0  0
   50.4440   45.6930   -4.1330 C   0  0  0  0  0  0  0  0  0  0  0  0
   48.5250   46.9280   -3.1520 C   0  0  0  0  0  0  0  0  0  0  0  0
   49.1190   51.4100   -1.8960 N   0  0  0  0  0  0  0  0  0  0  0  0
   50.1570   51.2340   -1.0370 C   0  0  0  0  0  0  0  0  0  0  0  0
   51.1780   52.2130   -0.9020 C   0  0  0  0  0  0  0  0  0  0  0  0
   51.0640   53.3740   -1.7000 C   0  0  0  0  0  0  0  0  0  0  0  0
   49.9880   53.5410   -2.6060 C   0  0  0  0  0  0  0  0  0  0  0  0
   49.0090   52.5210   -2.6670 C   0  0  0  0  0  0  0  0  0  0  0  0
   49.9060   54.7340   -3.4130 C   0  0  0  0  0  0  0  0  0  0  0  0
   49.8260   55.6580   -4.0990 N   0  0  0  0  0  0  0  0  0  0  0  0
   47.6380   52.6460   -3.7290 Cl  0  0  0  0  0  0  0  0  0  0  0  0
   50.1547   47.0452   -0.1930 H   0  0  0  0  0  0  0  0  0  0  0  0
   51.1314   47.1488    1.9196 H   0  0  0  0  0  0  0  0  0  0  0  0
   53.1859   47.4531    3.3551 H   0  0  0  0  0  0  0  0  0  0  0  0
   55.4298   48.6974   -0.1498 H   0  0  0  0  0  0  0  0  0  0  0  0
   53.4082   48.4140   -1.5687 H   0  0  0  0  0  0  0  0  0  0  0  0
   55.4704   51.9802    2.4719 H   0  0  0  0  0  0  0  0  0  0  0  0
   53.7877   51.6624   -1.5455 H   0  0  0  0  0  0  0  0  0  0  0  0
   53.1723   52.4984    3.3712 H   0  0  0  0  0  0  0  0  0  0  0  0
   51.2043   52.5953    1.8196 H   0  0  0  0  0  0  0  0  0  0  0  0
   49.1086   49.8020    0.1669 H   0  0  0  0  0  0  0  0  0  0  0  0
   50.8341   49.9324    0.5466 H   0  0  0  0  0  0  0  0  0  0  0  0
   53.0400   46.0367   -2.2081 H   0  0  0  0  0  0  0  0  0  0  0  0
   49.8662   45.3292   -4.9955 H   0  0  0  0  0  0  0  0  0  0  0  0
   48.1914   47.0374   -2.1095 H   0  0  0  0  0  0  0  0  0  0  0  0
   48.4492   47.8981   -3.6650 H   0  0  0  0  0  0  0  0  0  0  0  0
   47.8893   46.1913   -3.6650 H   0  0  0  0  0  0  0  0  0  0  0  0
   51.8256   54.1632   -1.6159 H   0  0  0  0  0  0  0  0  0  0  0  0
  1  2  1  0
  1 18  1  0
  2  3  1  0
  2 21  1  0
  3  4  2  0
  3  8  1  0
  4  5  1  0
  5  6  2  0
  6  7  1  0
  6 12  1  0
  7  8  2  0
  9 10  2  0
  9 15  1  0
 10 11  1  0
 10 13  1  0
 12 14  3  0
 13 16  2  0
 15 17  2  0
 16 17  1  0
 16 27  1  0
 18 26  1  0
 19 20  1  0
 19 23  2  0
 20 21  2  0
 21 22  1  0
 22 23  1  0
 22 24  1  0
 25 26  2  0
 25 30  1  0
 26 27  1  0
 27 28  2  0
 28 29  1  0
 29 30  2  0
 29 31  1  0
 30 33  1  0
 31 32  3  0
  2 34  1  0
  4 35  1  0
  5 36  1  0
  7 37  1  0
  8 38  1  0
  9 39  1  0
 13 40  1  0
 15 41  1  0
 17 42  1  0
 18 43  1  0
 18 44  1  0
 20 45  1  0
 23 46  1  0
 24 47  1  0
 24 48  1  0
 24 49  1  0
 28 50  1  0
A    1
O2
A    2
C38
A    3
C40
A    4
C43
A    5
C44
A    6
C45
A    7
C46
A    8
C47
A    9
C52
A   10
C53
A   11
CL1
A   12
C65
A   13
C7
A   14
N1
A   15
C2
A   16
C3
A   17
C4
A   18
C1
A   19
N3
A   20
C10
A   21
C12
A   22
N4
A   23
C5
A   24
C15
A   25
N2
A   26
C11
A   27
C13
A   28
C14
A   29
C17
A   30
C6
A   31
C9
A   32
N5
A   33
CL2
M  END
