1NMQ_160_A_1278
     RDKit          3D

 59 60  0  0  0  0  0  0  0  0999 V2000
  -10.3680   33.1990  -10.1700 O   0  0  0  0  0  0  0  0  0  0  0  0
   -9.1900   33.4310  -10.3840 C   0  0  0  0  0  0  0  0  0  0  0  0
   -8.7350   34.8480  -10.4600 C   0  0  0  0  0  0  0  0  0  0  0  0
  -10.0180   35.9540  -10.3200 S   0  0  0  0  0  0  0  0  0  0  0  0
   -8.8510   37.1430  -10.4730 C   0  0  0  0  0  0  0  0  0  0  0  0
   -9.3310   38.8250  -10.4340 S   0  0  0  0  0  0  0  0  0  0  0  0
   -8.2310   39.5870   -9.8090 O   0  0  0  0  0  0  0  0  0  0  0  0
   -9.5710   39.3090  -11.8070 O   0  0  0  0  0  0  0  0  0  0  0  0
  -10.8240   39.0060   -9.4850 C   0  0  0  0  0  0  0  0  0  0  0  0
   -7.5270   36.7790  -10.6300 C   0  0  0  0  0  0  0  0  0  0  0  0
   -7.4610   35.3960  -10.6210 C   0  0  0  0  0  0  0  0  0  0  0  0
   -8.3260   32.4350  -10.5470 N   0  0  0  0  0  0  0  0  0  0  0  0
   -8.8260   31.1140  -10.8870 C   0  0  0  0  0  0  0  0  0  0  0  0
   -9.0070   30.2290   -9.6590 C   0  0  0  0  0  0  0  0  0  0  0  0
   -7.3810   29.8400   -8.9950 S   0  0  0  0  0  0  0  0  0  0  0  0
   -7.5330   28.0760   -8.0140 S   0  0  0  0  0  0  0  0  0  0  0  0
   -6.5120   28.3330   -6.5410 C   0  0  0  0  0  0  0  0  0  0  0  0
   -6.4090   29.8140   -6.2360 C   0  0  0  0  0  0  0  0  0  0  0  0
   -7.4980   30.5060   -5.7110 C   0  0  0  0  0  0  0  0  0  0  0  0
   -7.3880   31.8700   -5.4330 C   0  0  0  0  0  0  0  0  0  0  0  0
   -6.1920   32.5480   -5.6840 C   0  0  0  0  0  0  0  0  0  0  0  0
   -5.2200   30.4920   -6.4820 C   0  0  0  0  0  0  0  0  0  0  0  0
   -5.1110   31.8530   -6.2120 C   0  0  0  0  0  0  0  0  0  0  0  0
   -3.6240   32.6630   -6.5260 S   0  0  0  0  0  0  0  0  0  0  0  0
   -3.8980   33.9960   -7.1160 O   0  0  0  0  0  0  0  0  0  0  0  0
   -2.7950   31.8520   -7.4480 O   0  0  0  0  0  0  0  0  0  0  0  0
   -2.7920   32.8380   -5.0440 N   0  0  0  0  0  0  0  0  0  0  0  0
   -1.4720   32.3000   -4.9420 C   0  0  0  0  0  0  0  0  0  0  0  0
   -1.4280   31.2710   -3.8570 C   0  0  0  0  0  0  0  0  0  0  0  0
   -0.5550   31.3350   -3.0130 O   0  0  0  0  0  0  0  0  0  0  0  0
   -2.4620   30.1840   -3.8360 C   0  0  0  0  0  0  0  0  0  0  0  0
   -0.5580   33.4610   -4.5930 C   0  0  0  0  0  0  0  0  0  0  0  0
   -0.0050   34.1060   -5.8390 C   0  0  0  0  0  0  0  0  0  0  0  0
    0.2700   33.4230   -6.7970 O   0  0  0  0  0  0  0  0  0  0  0  0
    0.2120   35.4200   -5.8920 O   0  0  0  0  0  0  0  0  0  0  0  0
  -10.5824   38.9767   -8.4123 H   0  0  0  0  0  0  0  0  0  0  0  0
  -11.2985   39.9682   -9.7279 H   0  0  0  0  0  0  0  0  0  0  0  0
  -11.5146   38.1850   -9.7279 H   0  0  0  0  0  0  0  0  0  0  0  0
   -6.6758   37.4667  -10.7423 H   0  0  0  0  0  0  0  0  0  0  0  0
   -6.5352   34.8113  -10.7259 H   0  0  0  0  0  0  0  0  0  0  0  0
   -7.3152   32.5972  -10.4338 H   0  0  0  0  0  0  0  0  0  0  0  0
   -9.7978   31.2227  -11.3908 H   0  0  0  0  0  0  0  0  0  0  0  0
   -8.0849   30.6325  -11.5420 H   0  0  0  0  0  0  0  0  0  0  0  0
   -9.6000   30.7619   -8.9011 H   0  0  0  0  0  0  0  0  0  0  0  0
   -9.5341   29.3036   -9.9343 H   0  0  0  0  0  0  0  0  0  0  0  0
   -6.9699   27.8154   -5.6851 H   0  0  0  0  0  0  0  0  0  0  0  0
   -5.5049   27.9303   -6.7240 H   0  0  0  0  0  0  0  0  0  0  0  0
   -8.4434   29.9786   -5.5157 H   0  0  0  0  0  0  0  0  0  0  0  0
   -8.2475   32.4139   -5.0141 H   0  0  0  0  0  0  0  0  0  0  0  0
   -6.1072   33.6227   -5.4654 H   0  0  0  0  0  0  0  0  0  0  0  0
   -4.3575   29.9475   -6.8939 H   0  0  0  0  0  0  0  0  0  0  0  0
   -2.7263   33.8471   -4.8482 H   0  0  0  0  0  0  0  0  0  0  0  0
   -1.1615   31.8184   -5.8809 H   0  0  0  0  0  0  0  0  0  0  0  0
   -2.7047   29.9289   -2.7939 H   0  0  0  0  0  0  0  0  0  0  0  0
   -3.3704   30.5321   -4.3494 H   0  0  0  0  0  0  0  0  0  0  0  0
   -2.0689   29.2941   -4.3494 H   0  0  0  0  0  0  0  0  0  0  0  0
   -1.1284   34.2093   -4.0232 H   0  0  0  0  0  0  0  0  0  0  0  0
    0.2815   33.0787   -3.9938 H   0  0  0  0  0  0  0  0  0  0  0  0
    0.6366   32.5126   -6.6670 H   0  0  0  0  0  0  0  0  0  0  0  0
  1  2  2  0
  2  3  1  0
  2 12  1  0
  3  4  1  0
  3 11  2  0
  4  5  1  0
  5  6  1  0
  5 10  2  0
  6  7  2  0
  6  8  2  0
  6  9  1  0
 10 11  1  0
 12 13  1  0
 13 14  1  0
 14 15  1  0
 15 16  1  0
 16 17  1  0
 17 18  1  0
 18 19  2  0
 18 22  1  0
 19 20  1  0
 20 21  2  0
 21 23  1  0
 22 23  2  0
 23 24  1  0
 24 25  2  0
 24 26  2  0
 24 27  1  0
 27 28  1  0
 28 29  1  0
 28 32  1  0
 29 30  2  0
 29 31  1  0
 32 33  1  0
 33 34  1  0
 33 35  2  0
  9 36  1  0
  9 37  1  0
  9 38  1  0
 10 39  1  0
 11 40  1  0
 12 41  1  0
 13 42  1  0
 13 43  1  0
 14 44  1  0
 14 45  1  0
 17 46  1  0
 17 47  1  0
 19 48  1  0
 20 49  1  0
 21 50  1  0
 22 51  1  0
 27 52  1  0
 28 53  1  0
 31 54  1  0
 31 55  1  0
 31 56  1  0
 32 57  1  0
 32 58  1  0
 34 59  1  0
A    1
O35
A    2
C18
A    3
C19
A    4
S20
A    5
C21
A    6
S24
A    7
O33
A    8
O34
A    9
C25
A   10
C22
A   11
C23
A   12
N17
A   13
C16
A   14
C15
A   15
S14
A   16
S13
A   17
C12
A   18
C8
A   19
C9
A   20
C10
A   21
C11
A   22
C7
A   23
C6
A   24
S5
A   25
O27
A   26
O28
A   27
N4
A   28
C3
A   29
C2
A   30
O26
A   31
C1
A   32
C29
A   33
C30
A   34
O31
A   35
O32
M  END
