1NMS_161_A_1278
     RDKit          3D

 52 53  0  0  0  0  0  0  0  0999 V2000
   -7.9630   -1.3300   17.6300 C   0  0  0  0  0  0  0  0  0  0  0  0
   -7.5230   -0.0890   18.3490 C   0  0  0  0  0  0  0  0  0  0  0  0
   -7.0320    0.8420   17.7230 O   0  0  0  0  0  0  0  0  0  0  0  0
   -7.7570    0.1010   19.8330 C   0  0  0  0  0  0  0  0  0  0  0  0
   -6.5200    0.6800   20.5460 C   0  0  0  0  0  0  0  0  0  0  0  0
   -6.8490    1.2040   21.8060 C   0  0  0  0  0  0  0  0  0  0  0  0
   -8.0440    1.5160   22.0820 O   0  0  0  0  0  0  0  0  0  0  0  0
   -5.9660    1.4010   22.6820 O   0  0  0  0  0  0  0  0  0  0  0  0
   -8.0620   -1.1540   20.4870 N   0  0  0  0  0  0  0  0  0  0  0  0
   -9.3190   -1.3940   20.8920 C   0  0  0  0  0  0  0  0  0  0  0  0
  -10.2590   -0.7170   20.5150 O   0  0  0  0  0  0  0  0  0  0  0  0
   -9.6080   -2.4820   21.8850 C   0  0  0  0  0  0  0  0  0  0  0  0
   -8.6260   -3.3800   22.3430 C   0  0  0  0  0  0  0  0  0  0  0  0
   -8.9090   -4.3660   23.2850 C   0  0  0  0  0  0  0  0  0  0  0  0
  -10.9200   -2.5720   22.3640 C   0  0  0  0  0  0  0  0  0  0  0  0
  -11.2070   -3.5480   23.3240 C   0  0  0  0  0  0  0  0  0  0  0  0
  -10.2340   -4.4500   23.7650 C   0  0  0  0  0  0  0  0  0  0  0  0
  -10.6160   -5.5130   24.7800 C   0  0  0  0  0  0  0  0  0  0  0  0
  -10.8910   -4.8150   26.0060 N   0  0  0  0  0  0  0  0  0  0  0  0
  -11.7090   -5.7560   27.1780 S   0  0  0  0  0  0  0  0  0  0  0  0
  -11.8150   -4.9270   28.3620 O   0  0  0  0  0  0  0  0  0  0  0  0
  -12.9560   -6.2500   26.5920 O   0  0  0  0  0  0  0  0  0  0  0  0
  -10.6920   -7.0870   27.5800 C   0  0  0  0  0  0  0  0  0  0  0  0
   -9.4180   -6.8160   28.0650 C   0  0  0  0  0  0  0  0  0  0  0  0
  -11.1310   -8.4050   27.4480 C   0  0  0  0  0  0  0  0  0  0  0  0
  -10.3110   -9.4840   27.7850 C   0  0  0  0  0  0  0  0  0  0  0  0
   -9.0430   -9.2620   28.2740 C   0  0  0  0  0  0  0  0  0  0  0  0
   -8.2560  -10.1780   28.6460 O   0  0  0  0  0  0  0  0  0  0  0  0
   -8.6090   -7.8870   28.4010 C   0  0  0  0  0  0  0  0  0  0  0  0
   -7.2520   -7.6600   28.9100 C   0  0  0  0  0  0  0  0  0  0  0  0
   -6.8630   -6.5010   28.9970 O   0  0  0  0  0  0  0  0  0  0  0  0
   -6.5750   -8.6370   29.2350 O   0  0  0  0  0  0  0  0  0  0  0  0
   -8.2366   -2.1018   18.3645 H   0  0  0  0  0  0  0  0  0  0  0  0
   -8.8340   -1.0989   16.9992 H   0  0  0  0  0  0  0  0  0  0  0  0
   -7.1410   -1.6992   16.9992 H   0  0  0  0  0  0  0  0  0  0  0  0
   -8.6033    0.7998   19.9072 H   0  0  0  0  0  0  0  0  0  0  0  0
   -5.7754   -0.1193   20.6750 H   0  0  0  0  0  0  0  0  0  0  0  0
   -6.1168    1.4959   19.9282 H   0  0  0  0  0  0  0  0  0  0  0  0
   -8.3305    1.5908   23.0267 H   0  0  0  0  0  0  0  0  0  0  0  0
   -7.3228   -1.8548   20.6398 H   0  0  0  0  0  0  0  0  0  0  0  0
   -7.6037   -3.3007   21.9448 H   0  0  0  0  0  0  0  0  0  0  0  0
   -8.1286   -5.0542   23.6420 H   0  0  0  0  0  0  0  0  0  0  0  0
  -11.7039   -1.8939   21.9957 H   0  0  0  0  0  0  0  0  0  0  0  0
  -12.2227   -3.6073   23.7421 H   0  0  0  0  0  0  0  0  0  0  0  0
  -11.5097   -6.0587   24.4430 H   0  0  0  0  0  0  0  0  0  0  0  0
   -9.8109   -6.2511   24.9104 H   0  0  0  0  0  0  0  0  0  0  0  0
   -9.9956   -4.5037   26.4087 H   0  0  0  0  0  0  0  0  0  0  0  0
   -9.0634   -5.7809   28.1783 H   0  0  0  0  0  0  0  0  0  0  0  0
  -12.1458   -8.5984   27.0700 H   0  0  0  0  0  0  0  0  0  0  0  0
  -10.6787  -10.5131   27.6596 H   0  0  0  0  0  0  0  0  0  0  0  0
   -8.1122  -10.3454   29.6111 H   0  0  0  0  0  0  0  0  0  0  0  0
   -6.7253   -6.0906   29.8873 H   0  0  0  0  0  0  0  0  0  0  0  0
  1  2  1  0
  2  3  2  0
  2  4  1  0
  4  5  1  0
  4  9  1  0
  5  6  1  0
  6  7  1  0
  6  8  2  0
  9 10  1  0
 10 11  2  0
 10 12  1  0
 12 13  2  0
 12 15  1  0
 13 14  1  0
 14 17  2  0
 15 16  2  0
 16 17  1  0
 17 18  1  0
 18 19  1  0
 19 20  1  0
 20 21  2  0
 20 22  2  0
 20 23  1  0
 23 24  2  0
 23 25  1  0
 24 29  1  0
 25 26  2  0
 26 27  1  0
 27 28  1  0
 27 29  2  0
 29 30  1  0
 30 31  1  0
 30 32  2  0
  1 33  1  0
  1 34  1  0
  1 35  1  0
  4 36  1  0
  5 37  1  0
  5 38  1  0
  7 39  1  0
  9 40  1  0
 13 41  1  0
 14 42  1  0
 15 43  1  0
 16 44  1  0
 18 45  1  0
 18 46  1  0
 19 47  1  0
 24 48  1  0
 25 49  1  0
 26 50  1  0
 28 51  1  0
 31 52  1  0
A    1
C1
A    2
C2
A    3
O24
A    4
C3
A    5
C25
A    6
C26
A    7
O28
A    8
O27
A    9
N4
A   10
C5
A   11
O29
A   12
C6
A   13
C7
A   14
C8
A   15
C11
A   16
C10
A   17
C9
A   18
C12
A   19
N13
A   20
S14
A   21
O30
A   22
O31
A   23
C15
A   24
C16
A   25
C20
A   26
C19
A   27
C18
A   28
O23
A   29
C17
A   30
C21
A   31
O32
A   32
O22
M  END
