1NMX_FDM_A_301
     RDKit          3D

 35 36  0  0  0  0  0  0  0  0999 V2000
   13.4000   77.8860   24.2340 N   0  0  0  0  0  0  0  0  0  0  0  0
   12.6430   77.0150   23.4660 C   0  0  0  0  0  0  0  0  0  0  0  0
   13.8140   79.1660   23.8110 C   0  0  0  0  0  0  0  0  0  0  0  0
   14.5040   79.8940   24.5640 O   0  0  0  0  0  0  0  0  0  0  0  0
   13.3720   79.5760   22.6130 N   0  0  0  0  0  0  0  0  0  0  0  0
   12.6120   78.7390   21.7670 C   0  0  0  0  0  0  0  0  0  0  0  0
   12.2780   79.1810   20.5880 O   0  0  0  0  0  0  0  0  0  0  0  0
   12.2160   77.4170   22.2700 C   0  0  0  0  0  0  0  0  0  0  0  0
   11.3620   76.5830   21.2980 C   0  0  0  0  0  0  0  0  0  0  0  0
   14.6150   76.1710   25.2780 O   0  0  0  0  0  0  0  0  0  0  0  0
   14.4490   76.7720   28.4300 F   0  0  0  0  0  0  0  0  0  0  0  0
   13.8690   77.3260   25.4760 C   0  0  0  0  0  0  0  0  0  0  0  0
   12.8590   76.9730   26.5850 C   0  0  0  0  0  0  0  0  0  0  0  0
   13.6820   76.0790   27.4900 C   0  0  0  0  0  0  0  0  0  0  0  0
   14.6500   75.3820   26.4910 C   0  0  0  0  0  0  0  0  0  0  0  0
   13.2840   73.5550   26.0470 O   0  0  0  0  0  0  0  0  0  0  0  0
   14.6390   73.7910   26.4400 C   0  0  0  0  0  0  0  0  0  0  0  0
   12.6470   72.1560   26.7960 P   0  0  0  0  0  0  0  0  0  0  0  0
   12.3690   72.7200   28.2410 O   0  0  0  0  0  0  0  0  0  0  0  0
   11.4450   71.9190   26.0640 O   0  0  0  0  0  0  0  0  0  0  0  0
   13.6740   71.1310   27.0430 O   0  0  0  0  0  0  0  0  0  0  0  0
   12.3990   76.0089   23.8379 H   0  0  0  0  0  0  0  0  0  0  0  0
   13.5940   80.5319   22.3001 H   0  0  0  0  0  0  0  0  0  0  0  0
   10.6901   75.9268   21.8707 H   0  0  0  0  0  0  0  0  0  0  0  0
   10.7653   77.2557   20.6644 H   0  0  0  0  0  0  0  0  0  0  0  0
   12.0203   75.9705   20.6644 H   0  0  0  0  0  0  0  0  0  0  0  0
   14.4407   78.1912   25.8428 H   0  0  0  0  0  0  0  0  0  0  0  0
   12.5181   77.8739   27.1163 H   0  0  0  0  0  0  0  0  0  0  0  0
   11.9392   76.4990   26.2118 H   0  0  0  0  0  0  0  0  0  0  0  0
   13.0301   75.4165   28.0783 H   0  0  0  0  0  0  0  0  0  0  0  0
   15.6885   75.3922   26.8535 H   0  0  0  0  0  0  0  0  0  0  0  0
   15.3513   73.4031   25.6969 H   0  0  0  0  0  0  0  0  0  0  0  0
   14.9379   73.2991   27.3774 H   0  0  0  0  0  0  0  0  0  0  0  0
   12.6892   72.0704   28.9160 H   0  0  0  0  0  0  0  0  0  0  0  0
   13.7934   71.0118   28.0185 H   0  0  0  0  0  0  0  0  0  0  0  0
  1  2  1  0
  1  3  1  0
  1 12  1  0
  2  8  2  0
  3  4  2  0
  3  5  1  0
  5  6  1  0
  6  7  2  0
  6  8  1  0
  8  9  1  0
 10 12  1  0
 10 15  1  0
 11 14  1  0
 12 13  1  0
 13 14  1  0
 14 15  1  0
 15 17  1  0
 16 17  1  0
 16 18  1  0
 18 19  1  0
 18 20  2  0
 18 21  1  0
  2 22  1  0
  5 23  1  0
  9 24  1  0
  9 25  1  0
  9 26  1  0
 12 27  1  0
 13 28  1  0
 13 29  1  0
 14 30  1  0
 15 31  1  0
 17 32  1  0
 17 33  1  0
 19 34  1  0
 21 35  1  0
A    1
N1
A    2
C6
A    3
C2
A    4
O2
A    5
N3
A    6
C4
A    7
O4
A    8
C5
A    9
C7
A   10
O4'
A   11
F
A   12
C1'
A   13
C2'
A   14
C3'
A   15
C4'
A   16
O5'
A   17
C5'
A   18
P1
A   19
OP2
A   20
OP1
A   21
OP3
M  END
