1NPV_L27_A_479
     RDKit          3D

 81 86  0  0  0  0  0  0  0  0999 V2000
   15.9090   20.9070    4.7110 O   0  0  0  0  0  0  0  0  0  0  0  0
   14.8520   21.5950    5.0890 C   0  0  0  0  0  0  0  0  0  0  0  0
   13.7730   21.1160    5.2840 O   0  0  0  0  0  0  0  0  0  0  0  0
   15.1310   22.9010    5.2760 N   0  0  0  0  0  0  0  0  0  0  0  0
   14.2970   23.7400    6.0900 C   0  0  0  0  0  0  0  0  0  0  0  0
   13.7980   24.8410    5.1410 C   0  0  0  0  0  0  0  0  0  0  0  0
   14.7890   25.5340    4.6210 O   0  0  0  0  0  0  0  0  0  0  0  0
   12.9360   24.2940    3.9960 C   0  0  0  0  0  0  0  0  0  0  0  0
   11.4780   24.8040    3.9980 C   0  0  0  0  0  0  0  0  0  0  0  0
   10.7410   24.3750    2.6810 C   0  0  0  0  0  0  0  0  0  0  0  0
    9.3350   24.9370    2.5090 C   0  0  0  0  0  0  0  0  0  0  0  0
    9.1760   26.1690    1.7420 C   0  0  0  0  0  0  0  0  0  0  0  0
    7.9320   26.9030    1.8440 C   0  0  0  0  0  0  0  0  0  0  0  0
    6.8660   26.3470    2.6870 C   0  0  0  0  0  0  0  0  0  0  0  0
    6.9570   25.0230    3.3110 C   0  0  0  0  0  0  0  0  0  0  0  0
    8.2160   24.3000    3.2220 C   0  0  0  0  0  0  0  0  0  0  0  0
   10.7280   24.3830    5.2970 C   0  0  0  0  0  0  0  0  0  0  0  0
   10.4930   23.2800    5.6900 O   0  0  0  0  0  0  0  0  0  0  0  0
   11.5240   26.2810    4.1000 N   0  0  0  0  0  0  0  0  0  0  0  0
   10.8990   26.6280    5.2480 C   0  0  0  0  0  0  0  0  0  0  0  0
   10.4310   25.6090    6.0020 C   0  0  0  0  0  0  0  0  0  0  0  0
   15.1830   24.2280    7.2390 C   0  0  0  0  0  0  0  0  0  0  0  0
   15.6950   23.1100    8.1230 C   0  0  0  0  0  0  0  0  0  0  0  0
   14.7630   22.3010    8.9180 C   0  0  0  0  0  0  0  0  0  0  0  0
   15.2840   21.1860    9.6830 C   0  0  0  0  0  0  0  0  0  0  0  0
   16.7190   20.9320    9.6390 C   0  0  0  0  0  0  0  0  0  0  0  0
   17.6600   21.7480    8.8870 C   0  0  0  0  0  0  0  0  0  0  0  0
   17.1320   22.8610    8.1290 C   0  0  0  0  0  0  0  0  0  0  0  0
   15.9810   19.4130    4.5540 C   0  0  0  0  0  0  0  0  0  0  0  0
   17.4180   18.9090    4.3920 C   0  0  0  0  0  0  0  0  0  0  0  0
   17.8460   19.3150    3.1010 O   0  0  0  0  0  0  0  0  0  0  0  0
   16.6730   19.5170    2.3240 C   0  0  0  0  0  0  0  0  0  0  0  0
   15.5590   18.9260    3.1670 C   0  0  0  0  0  0  0  0  0  0  0  0
    8.4530   24.8610    7.4740 C   0  0  0  0  0  0  0  0  0  0  0  0
    9.7950   25.6010    7.4060 C   0  0  0  0  0  0  0  0  0  0  0  0
    9.5830   26.9620    7.9530 C   0  0  0  0  0  0  0  0  0  0  0  0
    8.3890   27.6650    7.5280 C   0  0  0  0  0  0  0  0  0  0  0  0
    7.3770   26.8810    6.7750 C   0  0  0  0  0  0  0  0  0  0  0  0
    7.4450   25.6050    6.7910 N   0  0  0  0  0  0  0  0  0  0  0  0
   10.5440   27.5400    8.8800 C   0  0  0  0  0  0  0  0  0  0  0  0
   10.2320   28.8580    9.3500 C   0  0  0  0  0  0  0  0  0  0  0  0
    9.0300   29.5690    8.9500 C   0  0  0  0  0  0  0  0  0  0  0  0
    8.0980   28.9930    8.0100 C   0  0  0  0  0  0  0  0  0  0  0  0
    6.4930   27.4570    6.1600 O   0  0  0  0  0  0  0  0  0  0  0  0
   15.9628   23.3067    4.8238 H   0  0  0  0  0  0  0  0  0  0  0  0
   13.4168   23.2646    6.5473 H   0  0  0  0  0  0  0  0  0  0  0  0
   13.1788   25.4973    5.7702 H   0  0  0  0  0  0  0  0  0  0  0  0
   15.3396   25.9190    5.3481 H   0  0  0  0  0  0  0  0  0  0  0  0
   13.4021   24.5870    3.0437 H   0  0  0  0  0  0  0  0  0  0  0  0
   12.8883   23.2034    4.1311 H   0  0  0  0  0  0  0  0  0  0  0  0
   11.3479   24.7106    1.8272 H   0  0  0  0  0  0  0  0  0  0  0  0
   10.6270   23.2824    2.7383 H   0  0  0  0  0  0  0  0  0  0  0  0
    9.9886   26.5340    1.0966 H   0  0  0  0  0  0  0  0  0  0  0  0
    7.7894   27.8511    1.3048 H   0  0  0  0  0  0  0  0  0  0  0  0
    5.9612   26.9489    2.8576 H   0  0  0  0  0  0  0  0  0  0  0  0
    6.0933   24.5868    3.8342 H   0  0  0  0  0  0  0  0  0  0  0  0
    8.3288   23.3041    3.6753 H   0  0  0  0  0  0  0  0  0  0  0  0
   11.9533   26.9256    3.4210 H   0  0  0  0  0  0  0  0  0  0  0  0
   10.7786   27.6787    5.5504 H   0  0  0  0  0  0  0  0  0  0  0  0
   16.0472   24.7577    6.8117 H   0  0  0  0  0  0  0  0  0  0  0  0
   14.5636   24.8821    7.8702 H   0  0  0  0  0  0  0  0  0  0  0  0
   13.6887   22.5369    8.9327 H   0  0  0  0  0  0  0  0  0  0  0  0
   14.6153   20.5489   10.2804 H   0  0  0  0  0  0  0  0  0  0  0  0
   17.1123   20.0754   10.2061 H   0  0  0  0  0  0  0  0  0  0  0  0
   18.7373   21.5259    8.8947 H   0  0  0  0  0  0  0  0  0  0  0  0
   17.8097   23.5152    7.5609 H   0  0  0  0  0  0  0  0  0  0  0  0
   15.3931   19.0822    5.4229 H   0  0  0  0  0  0  0  0  0  0  0  0
   18.0650   19.3521    5.1634 H   0  0  0  0  0  0  0  0  0  0  0  0
   17.4702   17.8158    4.5021 H   0  0  0  0  0  0  0  0  0  0  0  0
   16.5018   20.5893    2.1483 H   0  0  0  0  0  0  0  0  0  0  0  0
   16.7413   19.0500    1.3304 H   0  0  0  0  0  0  0  0  0  0  0  0
   15.5427   17.8277    3.1084 H   0  0  0  0  0  0  0  0  0  0  0  0
   14.5441   19.2221    2.8633 H   0  0  0  0  0  0  0  0  0  0  0  0
    8.5584   23.8732    7.0016 H   0  0  0  0  0  0  0  0  0  0  0  0
    8.1606   24.7439    8.5279 H   0  0  0  0  0  0  0  0  0  0  0  0
   10.5355   25.0613    8.0146 H   0  0  0  0  0  0  0  0  0  0  0  0
    6.7243   25.0786    6.2767 H   0  0  0  0  0  0  0  0  0  0  0  0
   11.4490   27.0020    9.1987 H   0  0  0  0  0  0  0  0  0  0  0  0
   10.9311   29.3509   10.0416 H   0  0  0  0  0  0  0  0  0  0  0  0
    8.8263   30.5646    9.3711 H   0  0  0  0  0  0  0  0  0  0  0  0
    7.2055   29.5425    7.6761 H   0  0  0  0  0  0  0  0  0  0  0  0
  1  2  1  0
  1 29  1  0
  2  3  2  0
  2  4  1  0
  4  5  1  0
  5  6  1  0
  5 22  1  0
  6  7  1  0
  6  8  1  0
  8  9  1  0
  9 10  1  0
  9 17  1  0
  9 19  1  0
 10 11  1  0
 11 12  2  0
 11 16  1  0
 12 13  1  0
 13 14  2  0
 14 15  1  0
 15 16  2  0
 17 18  2  0
 17 21  1  0
 19 20  1  0
 20 21  2  0
 21 35  1  0
 22 23  1  0
 23 24  2  0
 23 28  1  0
 24 25  1  0
 25 26  2  0
 26 27  1  0
 27 28  2  0
 29 30  1  0
 29 33  1  0
 30 31  1  0
 31 32  1  0
 32 33  1  0
 34 35  1  0
 34 39  1  0
 35 36  1  0
 36 37  2  0
 36 40  1  0
 37 38  1  0
 37 43  1  0
 38 39  1  0
 38 44  2  0
 40 41  2  0
 41 42  1  0
 42 43  2  0
  4 45  1  0
  5 46  1  0
  6 47  1  0
  7 48  1  0
  8 49  1  0
  8 50  1  0
 10 51  1  0
 10 52  1  0
 12 53  1  0
 13 54  1  0
 14 55  1  0
 15 56  1  0
 16 57  1  0
 19 58  1  0
 20 59  1  0
 22 60  1  0
 22 61  1  0
 24 62  1  0
 25 63  1  0
 26 64  1  0
 27 65  1  0
 28 66  1  0
 29 67  1  0
 30 68  1  0
 30 69  1  0
 32 70  1  0
 32 71  1  0
 33 72  1  0
 33 73  1  0
 34 74  1  0
 34 75  1  0
 35 76  1  0
 39 77  1  0
 40 78  1  0
 41 79  1  0
 42 80  1  0
 43 81  1  0
A    1
O01
A    2
C02
A    3
O03
A    4
NP4
A    5
C05
A    6
C06
A    7
O07
A    8
C08
A    9
C09
A   10
C10
A   11
C11
A   12
C12
A   13
C13
A   14
C14
A   15
C15
A   16
C16
A   17
C17
A   18
O18
A   19
N29
A   20
C30
A   21
C35
A   22
C36
A   23
C37
A   24
C38
A   25
C39
A   26
C40
A   27
C41
A   28
C42
A   29
C44
A   30
C45
A   31
O46
A   32
C47
A   33
C48
A   34
C49
A   35
C50
A   36
C51
A   37
C52
A   38
C53
A   39
N54
A   40
C55
A   41
C56
A   42
C57
A   43
C58
A   44
O59
M  END
