1NQ7_ARL_A_800
     RDKit          3D

 57 57  0  0  0  0  0  0  0  0999 V2000
   29.4730   25.8200   10.5960 C   0  0  0  0  0  0  0  0  0  0  0  0
   28.2120   25.0270   10.1460 C   0  0  0  0  0  0  0  0  0  0  0  0
   27.1010   25.8300    9.5470 C   0  0  0  0  0  0  0  0  0  0  0  0
   27.0650   27.1570    9.3530 C   0  0  0  0  0  0  0  0  0  0  0  0
   25.9720   27.9480    8.7790 C   0  0  0  0  0  0  0  0  0  0  0  0
   26.0390   29.1630    8.1030 C   0  0  0  0  0  0  0  0  0  0  0  0
   27.4130   29.8680    7.8650 C   0  0  0  0  0  0  0  0  0  0  0  0
   24.7640   29.8650    7.5910 C   0  0  0  0  0  0  0  0  0  0  0  0
   23.4430   29.2410    7.6550 C   0  0  0  0  0  0  0  0  0  0  0  0
   22.2030   29.8970    7.1850 C   0  0  0  0  0  0  0  0  0  0  0  0
   22.3610   31.2370    6.6270 C   0  0  0  0  0  0  0  0  0  0  0  0
   23.6410   31.9390    6.5230 C   0  0  0  0  0  0  0  0  0  0  0  0
   24.8180   31.2110    7.0160 C   0  0  0  0  0  0  0  0  0  0  0  0
   23.7890   33.4010    5.9150 C   0  0  0  0  0  0  0  0  0  0  0  0
   22.4540   34.1230    5.5530 C   0  0  0  0  0  0  0  0  0  0  0  0
   24.6250   33.3620    4.6300 C   0  0  0  0  0  0  0  0  0  0  0  0
   24.4790   34.3340    6.9430 C   0  0  0  0  0  0  0  0  0  0  0  0
   20.7870   29.1800    7.2770 C   0  0  0  0  0  0  0  0  0  0  0  0
   20.0370   29.0210    5.9380 C   0  0  0  0  0  0  0  0  0  0  0  0
   19.8360   29.9690    8.1910 C   0  0  0  0  0  0  0  0  0  0  0  0
   20.9070   27.7900    7.8860 C   0  0  0  0  0  0  0  0  0  0  0  0
   28.0320   23.6710   10.2480 C   0  0  0  0  0  0  0  0  0  0  0  0
   28.9430   22.6070   10.8000 C   0  0  0  0  0  0  0  0  0  0  0  0
   30.0230   22.8100   11.2630 O   0  0  0  0  0  0  0  0  0  0  0  0
   28.5350   21.4670   10.7540 O   0  0  0  0  0  0  0  0  0  0  0  0
   29.5162   25.8472   11.6948 H   0  0  0  0  0  0  0  0  0  0  0  0
   30.3752   25.3264   10.2056 H   0  0  0  0  0  0  0  0  0  0  0  0
   29.4189   26.8470   10.2056 H   0  0  0  0  0  0  0  0  0  0  0  0
   26.2108   25.2675    9.2289 H   0  0  0  0  0  0  0  0  0  0  0  0
   27.9603   27.7172    9.6606 H   0  0  0  0  0  0  0  0  0  0  0  0
   24.9639   27.5245    8.8986 H   0  0  0  0  0  0  0  0  0  0  0  0
   27.8760   30.1055    8.8341 H   0  0  0  0  0  0  0  0  0  0  0  0
   28.0752   29.1983    7.2967 H   0  0  0  0  0  0  0  0  0  0  0  0
   27.2551   30.7965    7.2967 H   0  0  0  0  0  0  0  0  0  0  0  0
   23.3671   28.2276    8.0760 H   0  0  0  0  0  0  0  0  0  0  0  0
   21.4603   31.7519    6.2614 H   0  0  0  0  0  0  0  0  0  0  0  0
   25.7980   31.7062    6.9493 H   0  0  0  0  0  0  0  0  0  0  0  0
   21.9286   34.4071    6.4767 H   0  0  0  0  0  0  0  0  0  0  0  0
   22.6734   35.0254    4.9635 H   0  0  0  0  0  0  0  0  0  0  0  0
   21.8188   33.4454    4.9635 H   0  0  0  0  0  0  0  0  0  0  0  0
   25.6930   33.3122    4.8887 H   0  0  0  0  0  0  0  0  0  0  0  0
   24.3490   32.4758    4.0398 H   0  0  0  0  0  0  0  0  0  0  0  0
   24.4327   34.2701    4.0398 H   0  0  0  0  0  0  0  0  0  0  0  0
   24.2333   34.0017    7.9624 H   0  0  0  0  0  0  0  0  0  0  0  0
   25.5688   34.2971    6.7980 H   0  0  0  0  0  0  0  0  0  0  0  0
   24.1245   35.3652    6.7980 H   0  0  0  0  0  0  0  0  0  0  0  0
   18.9783   28.7966    6.1351 H   0  0  0  0  0  0  0  0  0  0  0  0
   20.1127   29.9552    5.3621 H   0  0  0  0  0  0  0  0  0  0  0  0
   20.4853   28.1979    5.3621 H   0  0  0  0  0  0  0  0  0  0  0  0
   20.0838   29.7634    9.2428 H   0  0  0  0  0  0  0  0  0  0  0  0
   19.9453   31.0453    7.9922 H   0  0  0  0  0  0  0  0  0  0  0  0
   18.7983   29.6629    7.9922 H   0  0  0  0  0  0  0  0  0  0  0  0
   20.9002   27.8686    8.9832 H   0  0  0  0  0  0  0  0  0  0  0  0
   20.0589   27.1713    7.5574 H   0  0  0  0  0  0  0  0  0  0  0  0
   21.8486   27.3258    7.5574 H   0  0  0  0  0  0  0  0  0  0  0  0
   27.0688   23.3023    9.8656 H   0  0  0  0  0  0  0  0  0  0  0  0
   30.1442   22.8328   12.2453 H   0  0  0  0  0  0  0  0  0  0  0  0
  1  2  1  0
  2  3  1  0
  2 22  2  0
  3  4  2  0
  4  5  1  0
  5  6  2  0
  6  7  1  0
  6  8  1  0
  8  9  2  0
  8 13  1  0
  9 10  1  0
 10 11  2  0
 10 18  1  0
 11 12  1  0
 12 13  2  0
 12 14  1  0
 14 15  1  0
 14 16  1  0
 14 17  1  0
 18 19  1  0
 18 20  1  0
 18 21  1  0
 22 23  1  0
 23 24  1  0
 23 25  2  0
  1 26  1  0
  1 27  1  0
  1 28  1  0
  3 29  1  0
  4 30  1  0
  5 31  1  0
  7 32  1  0
  7 33  1  0
  7 34  1  0
  9 35  1  0
 11 36  1  0
 13 37  1  0
 15 38  1  0
 15 39  1  0
 15 40  1  0
 16 41  1  0
 16 42  1  0
 16 43  1  0
 17 44  1  0
 17 45  1  0
 17 46  1  0
 19 47  1  0
 19 48  1  0
 19 49  1  0
 20 50  1  0
 20 51  1  0
 20 52  1  0
 21 53  1  0
 21 54  1  0
 21 55  1  0
 22 56  1  0
 24 57  1  0
A    1
C16
A    2
C9
A    3
C13
A    4
C8
A    5
C44
A    6
C42
A    7
C7
A    8
C3
A    9
C4
A   10
C5
A   11
C6
A   12
C1
A   13
C2
A   14
C10
A   15
C11
A   16
C15
A   17
C19
A   18
C23
A   19
C24
A   20
C28
A   21
C32
A   22
C14
A   23
C12
A   24
O2
A   25
O3
M  END
