1NQU_RDL_A_1201
     RDKit          3D

 37 38  0  0  0  0  0  0  0  0999 V2000
  137.5610   10.6860  142.2020 O   0  0  0  0  0  0  0  0  0  0  0  0
  137.4810   11.3130  143.4720 C   0  0  0  0  0  0  0  0  0  0  0  0
  138.8870   11.4800  144.0720 C   0  0  0  0  0  0  0  0  0  0  0  0
  139.4860   10.1890  144.2790 O   0  0  0  0  0  0  0  0  0  0  0  0
  139.8010   12.2770  143.1560 C   0  0  0  0  0  0  0  0  0  0  0  0
  139.2360   13.5860  142.9710 O   0  0  0  0  0  0  0  0  0  0  0  0
  141.2430   12.3710  143.6570 C   0  0  0  0  0  0  0  0  0  0  0  0
  142.0900   13.0220  142.7230 O   0  0  0  0  0  0  0  0  0  0  0  0
  141.3310   13.1880  144.8960 C   0  0  0  0  0  0  0  0  0  0  0  0
  142.5370   13.1050  145.6960 N   0  0  0  0  0  0  0  0  0  0  0  0
  142.5390   12.2790  146.7330 C   0  0  0  0  0  0  0  0  0  0  0  0
  141.5700   11.5200  146.9530 O   0  0  0  0  0  0  0  0  0  0  0  0
  143.6880   12.2710  147.6590 C   0  0  0  0  0  0  0  0  0  0  0  0
  143.6620   11.4960  148.6560 O   0  0  0  0  0  0  0  0  0  0  0  0
  143.5630   13.9280  145.4420 C   0  0  0  0  0  0  0  0  0  0  0  0
  144.6900   13.9150  146.3520 C   0  0  0  0  0  0  0  0  0  0  0  0
  144.7220   13.0760  147.4170 N   0  0  0  0  0  0  0  0  0  0  0  0
  145.7720   14.8260  146.0770 C   0  0  0  0  0  0  0  0  0  0  0  0
  146.7800   14.8440  146.8340 O   0  0  0  0  0  0  0  0  0  0  0  0
  145.6800   15.6200  144.9970 N   0  0  0  0  0  0  0  0  0  0  0  0
  144.6140   15.5640  144.1540 C   0  0  0  0  0  0  0  0  0  0  0  0
  143.6000   14.7500  144.3760 N   0  0  0  0  0  0  0  0  0  0  0  0
  144.6010   16.3010  143.1530 O   0  0  0  0  0  0  0  0  0  0  0  0
  137.6854    9.7113  142.3225 H   0  0  0  0  0  0  0  0  0  0  0  0
  137.0141   12.3026  143.3597 H   0  0  0  0  0  0  0  0  0  0  0  0
  136.8764   10.6862  144.1440 H   0  0  0  0  0  0  0  0  0  0  0  0
  138.7709   12.0199  145.0233 H   0  0  0  0  0  0  0  0  0  0  0  0
  139.5669   10.0146  145.2502 H   0  0  0  0  0  0  0  0  0  0  0  0
  139.8627   11.7416  142.1971 H   0  0  0  0  0  0  0  0  0  0  0  0
  139.0587   13.9967  143.8542 H   0  0  0  0  0  0  0  0  0  0  0  0
  141.5581   11.3305  143.8245 H   0  0  0  0  0  0  0  0  0  0  0  0
  142.7741   13.5478  143.2085 H   0  0  0  0  0  0  0  0  0  0  0  0
  141.2096   14.2405  144.6001 H   0  0  0  0  0  0  0  0  0  0  0  0
  140.5472   12.7739  145.5474 H   0  0  0  0  0  0  0  0  0  0  0  0
  145.5439   13.0610  148.0376 H   0  0  0  0  0  0  0  0  0  0  0  0
  146.4378   16.2898  144.8020 H   0  0  0  0  0  0  0  0  0  0  0  0
  142.8117   14.7429  143.7131 H   0  0  0  0  0  0  0  0  0  0  0  0
  1  2  1  0
  2  3  1  0
  3  4  1  0
  3  5  1  0
  5  6  1  0
  5  7  1  0
  7  8  1  0
  7  9  1  0
  9 10  1  0
 10 11  1  0
 10 15  1  0
 11 12  2  0
 11 13  1  0
 13 14  2  0
 13 17  1  0
 15 16  2  0
 15 22  1  0
 16 17  1  0
 16 18  1  0
 18 19  2  0
 18 20  1  0
 20 21  1  0
 21 22  1  0
 21 23  2  0
  1 24  1  0
  2 25  1  0
  2 26  1  0
  3 27  1  0
  4 28  1  0
  5 29  1  0
  6 30  1  0
  7 31  1  0
  8 32  1  0
  9 33  1  0
  9 34  1  0
 17 35  1  0
 20 36  1  0
 22 37  1  0
A    1
O15
A    2
C15
A    3
C14
A    4
O14
A    5
C13
A    6
O13
A    7
C12
A    8
O12
A    9
C11
A   10
N9
A   11
C8
A   12
O8
A   13
C7
A   14
O7
A   15
C10
A   16
C5
A   17
N6
A   18
C4
A   19
O4
A   20
N3
A   21
C2
A   22
N1
A   23
O2
M  END
