1NSG_RAD_A_108
     RDKit          3D

147150  0  0  0  0  0  0  0  0999 V2000
   -7.0980   26.0170   40.1580 C   0  0  0  0  0  0  0  0  0  0  0  0
   -8.0960   26.6880   39.3660 O   0  0  0  0  0  0  0  0  0  0  0  0
   -5.9430   26.0100   39.7310 O   0  0  0  0  0  0  0  0  0  0  0  0
   -7.4190   25.3670   41.5030 C   0  0  0  0  0  0  0  0  0  0  0  0
   -6.8560   23.9480   41.6020 C   0  0  0  0  0  0  0  0  0  0  0  0
   -7.5930   22.9120   40.7740 C   0  0  0  0  0  0  0  0  0  0  0  0
   -9.0630   22.9230   41.1080 C   0  0  0  0  0  0  0  0  0  0  0  0
   -9.6340   24.3090   40.9130 C   0  0  0  0  0  0  0  0  0  0  0  0
   -8.8560   25.1940   41.7710 N   0  0  0  0  0  0  0  0  0  0  0  0
  -10.8080   25.9700   42.9770 C   0  0  0  0  0  0  0  0  0  0  0  0
   -8.8680   27.0240   43.0710 O   0  0  0  0  0  0  0  0  0  0  0  0
  -11.8860   26.8130   42.2940 C   0  0  0  0  0  0  0  0  0  0  0  0
  -11.1100   25.1640   43.8640 O   0  0  0  0  0  0  0  0  0  0  0  0
  -11.4720   28.3020   42.2830 C   0  0  0  0  0  0  0  0  0  0  0  0
  -11.9340   26.3340   40.9720 O   0  0  0  0  0  0  0  0  0  0  0  0
  -13.1520   26.6710   42.9550 O   0  0  0  0  0  0  0  0  0  0  0  0
  -12.4110   29.1000   41.3710 C   0  0  0  0  0  0  0  0  0  0  0  0
  -12.7740   28.3970   40.0670 C   0  0  0  0  0  0  0  0  0  0  0  0
  -12.9500   26.8790   40.1990 C   0  0  0  0  0  0  0  0  0  0  0  0
  -12.8160   26.2080   38.8350 C   0  0  0  0  0  0  0  0  0  0  0  0
  -13.9030   26.5210   37.8060 C   0  0  0  0  0  0  0  0  0  0  0  0
  -13.6070   25.7150   36.5590 C   0  0  0  0  0  0  0  0  0  0  0  0
  -15.1440   26.1400   38.2730 O   0  0  0  0  0  0  0  0  0  0  0  0
  -13.2630   26.3140   35.4310 C   0  0  0  0  0  0  0  0  0  0  0  0
  -12.9050   25.6380   34.1880 C   0  0  0  0  0  0  0  0  0  0  0  0
  -12.7960   26.3350   33.0710 C   0  0  0  0  0  0  0  0  0  0  0  0
  -12.4310   25.6940   31.8150 C   0  0  0  0  0  0  0  0  0  0  0  0
  -11.6610   26.2860   30.9330 C   0  0  0  0  0  0  0  0  0  0  0  0
  -11.2790   25.6150   29.6380 C   0  0  0  0  0  0  0  0  0  0  0  0
   -9.7700   25.6930   29.4070 C   0  0  0  0  0  0  0  0  0  0  0  0
   -8.8780   25.3330   30.5970 C   0  0  0  0  0  0  0  0  0  0  0  0
   -7.5660   26.0830   30.4900 C   0  0  0  0  0  0  0  0  0  0  0  0
   -7.4620   27.4730   31.1070 C   0  0  0  0  0  0  0  0  0  0  0  0
   -6.6250   25.6030   29.8700 O   0  0  0  0  0  0  0  0  0  0  0  0
   -7.1090   27.3800   32.6060 C   0  0  0  0  0  0  0  0  0  0  0  0
   -6.4170   28.0850   30.4260 O   0  0  0  0  0  0  0  0  0  0  0  0
   -8.2450   26.9410   33.5090 C   0  0  0  0  0  0  0  0  0  0  0  0
   -6.0370   26.4520   32.7940 O   0  0  0  0  0  0  0  0  0  0  0  0
   -8.3280   25.7640   34.1230 C   0  0  0  0  0  0  0  0  0  0  0  0
   -9.4060   25.4160   35.1210 C   0  0  0  0  0  0  0  0  0  0  0  0
   -8.8710   25.6300   36.5370 C   0  0  0  0  0  0  0  0  0  0  0  0
   -8.9910   27.0070   37.1650 C   0  0  0  0  0  0  0  0  0  0  0  0
   -8.3510   24.7060   37.1630 O   0  0  0  0  0  0  0  0  0  0  0  0
   -7.8500   27.3110   38.1400 C   0  0  0  0  0  0  0  0  0  0  0  0
   -7.7540   28.8310   38.4070 C   0  0  0  0  0  0  0  0  0  0  0  0
   -7.1860   29.5440   37.1830 C   0  0  0  0  0  0  0  0  0  0  0  0
   -5.8780   29.0160   36.5940 C   0  0  0  0  0  0  0  0  0  0  0  0
   -5.5860   29.7930   35.3080 C   0  0  0  0  0  0  0  0  0  0  0  0
   -4.1960   29.7120   34.6590 C   0  0  0  0  0  0  0  0  0  0  0  0
   -3.0530   29.7770   35.7220 C   0  0  0  0  0  0  0  0  0  0  0  0
   -4.0980   30.8380   33.8450 O   0  0  0  0  0  0  0  0  0  0  0  0
   -3.3670   28.9110   36.9460 C   0  0  0  0  0  0  0  0  0  0  0  0
   -1.8290   29.2960   35.1550 O   0  0  0  0  0  0  0  0  0  0  0  0
   -4.7180   29.1870   37.5710 C   0  0  0  0  0  0  0  0  0  0  0  0
  -11.5170   28.8810   43.6940 C   0  0  0  0  0  0  0  0  0  0  0  0
  -13.7220   24.1980   36.7870 C   0  0  0  0  0  0  0  0  0  0  0  0
  -12.0290   26.3000   28.5100 C   0  0  0  0  0  0  0  0  0  0  0  0
   -8.6260   23.8380   30.6450 C   0  0  0  0  0  0  0  0  0  0  0  0
   -9.2910   28.0250   33.6010 C   0  0  0  0  0  0  0  0  0  0  0  0
   -9.8210   23.9680   34.9180 C   0  0  0  0  0  0  0  0  0  0  0  0
   -9.1250   29.4020   38.7480 C   0  0  0  0  0  0  0  0  0  0  0  0
  -16.2630   26.9180   38.0160 C   0  0  0  0  0  0  0  0  0  0  0  0
   -6.7660   29.0390   29.4900 C   0  0  0  0  0  0  0  0  0  0  0  0
   -4.9450   30.9310   32.7390 C   0  0  0  0  0  0  0  0  0  0  0  0
  -17.3150   25.8440   38.0100 C   0  0  0  0  0  0  0  0  0  0  0  0
   -9.4710   26.0700   42.5850 C   0  0  0  0  0  0  0  0  0  0  0  0
   -6.9682   26.0686   42.2203 H   0  0  0  0  0  0  0  0  0  0  0  0
   -5.8084   23.9714   41.2674 H   0  0  0  0  0  0  0  0  0  0  0  0
   -6.9693   23.6425   42.6526 H   0  0  0  0  0  0  0  0  0  0  0  0
   -7.4620   23.1411   39.7061 H   0  0  0  0  0  0  0  0  0  0  0  0
   -7.1827   21.9166   40.9995 H   0  0  0  0  0  0  0  0  0  0  0  0
   -9.5902   22.2172   40.4494 H   0  0  0  0  0  0  0  0  0  0  0  0
   -9.1937   22.6263   42.1591 H   0  0  0  0  0  0  0  0  0  0  0  0
   -9.5380   24.6164   39.8612 H   0  0  0  0  0  0  0  0  0  0  0  0
  -10.7034   24.3414   41.1685 H   0  0  0  0  0  0  0  0  0  0  0  0
  -10.4427   28.3738   41.9018 H   0  0  0  0  0  0  0  0  0  0  0  0
  -13.0159   26.6863   43.9355 H   0  0  0  0  0  0  0  0  0  0  0  0
  -13.3406   29.2989   41.9245 H   0  0  0  0  0  0  0  0  0  0  0  0
  -11.8718   30.0174   41.0924 H   0  0  0  0  0  0  0  0  0  0  0  0
  -13.7182   28.8229   39.6968 H   0  0  0  0  0  0  0  0  0  0  0  0
  -11.9336   28.5589   39.3760 H   0  0  0  0  0  0  0  0  0  0  0  0
  -13.9405   26.7122   40.6474 H   0  0  0  0  0  0  0  0  0  0  0  0
  -11.8515   26.5162   38.4052 H   0  0  0  0  0  0  0  0  0  0  0  0
  -12.9072   25.1298   39.0330 H   0  0  0  0  0  0  0  0  0  0  0  0
  -13.9103   27.6026   37.6056 H   0  0  0  0  0  0  0  0  0  0  0  0
  -13.2452   27.4139   35.4296 H   0  0  0  0  0  0  0  0  0  0  0  0
  -12.7267   24.5526   34.1812 H   0  0  0  0  0  0  0  0  0  0  0  0
  -12.9842   27.4186   33.0898 H   0  0  0  0  0  0  0  0  0  0  0  0
  -12.8118   24.6847   31.5998 H   0  0  0  0  0  0  0  0  0  0  0  0
  -11.2845   27.2978   31.1437 H   0  0  0  0  0  0  0  0  0  0  0  0
  -11.5487   24.5493   29.6777 H   0  0  0  0  0  0  0  0  0  0  0  0
   -9.5220   25.0069   28.5837 H   0  0  0  0  0  0  0  0  0  0  0  0
   -9.5619   26.7525   29.1970 H   0  0  0  0  0  0  0  0  0  0  0  0
   -9.3893   25.6236   31.5266 H   0  0  0  0  0  0  0  0  0  0  0  0
   -8.4100   28.0252   31.0273 H   0  0  0  0  0  0  0  0  0  0  0  0
   -6.8414   28.4078   32.8923 H   0  0  0  0  0  0  0  0  0  0  0  0
   -5.8824   26.3182   33.7627 H   0  0  0  0  0  0  0  0  0  0  0  0
   -7.5693   25.0021   33.8908 H   0  0  0  0  0  0  0  0  0  0  0  0
  -10.2840   26.0623   34.9749 H   0  0  0  0  0  0  0  0  0  0  0  0
   -8.9808   27.7614   36.3645 H   0  0  0  0  0  0  0  0  0  0  0  0
   -9.9317   27.0326   37.7346 H   0  0  0  0  0  0  0  0  0  0  0  0
   -6.9160   26.9429   37.6904 H   0  0  0  0  0  0  0  0  0  0  0  0
   -7.0820   28.9918   39.2629 H   0  0  0  0  0  0  0  0  0  0  0  0
   -7.9472   29.4923   36.3906 H   0  0  0  0  0  0  0  0  0  0  0  0
   -6.9408   30.5551   37.5402 H   0  0  0  0  0  0  0  0  0  0  0  0
   -5.9840   27.9408   36.3876 H   0  0  0  0  0  0  0  0  0  0  0  0
   -6.3084   29.4439   34.5554 H   0  0  0  0  0  0  0  0  0  0  0  0
   -5.6547   30.8435   35.6269 H   0  0  0  0  0  0  0  0  0  0  0  0
   -4.0879   28.7628   34.1138 H   0  0  0  0  0  0  0  0  0  0  0  0
   -2.9616   30.8286   36.0314 H   0  0  0  0  0  0  0  0  0  0  0  0
   -3.3384   27.8553   36.6382 H   0  0  0  0  0  0  0  0  0  0  0  0
   -2.6109   29.1535   37.7073 H   0  0  0  0  0  0  0  0  0  0  0  0
   -1.2030   29.0500   35.8815 H   0  0  0  0  0  0  0  0  0  0  0  0
   -4.7255   30.2214   37.9452 H   0  0  0  0  0  0  0  0  0  0  0  0
   -4.8603   28.4545   38.3792 H   0  0  0  0  0  0  0  0  0  0  0  0
  -11.4535   28.0640   44.4278 H   0  0  0  0  0  0  0  0  0  0  0  0
  -10.6695   29.5678   43.8357 H   0  0  0  0  0  0  0  0  0  0  0  0
  -12.4604   29.4286   43.8357 H   0  0  0  0  0  0  0  0  0  0  0  0
  -13.7378   23.9897   37.8670 H   0  0  0  0  0  0  0  0  0  0  0  0
  -14.6508   23.8277   36.3285 H   0  0  0  0  0  0  0  0  0  0  0  0
  -12.8596   23.6919   36.3285 H   0  0  0  0  0  0  0  0  0  0  0  0
  -12.7792   26.9852   28.9315 H   0  0  0  0  0  0  0  0  0  0  0  0
  -11.3199   26.8688   27.8905 H   0  0  0  0  0  0  0  0  0  0  0  0
  -12.5313   25.5424   27.8905 H   0  0  0  0  0  0  0  0  0  0  0  0
   -8.5705   23.5090   31.6932 H   0  0  0  0  0  0  0  0  0  0  0  0
   -9.4480   23.3111   30.1383 H   0  0  0  0  0  0  0  0  0  0  0  0
   -7.6767   23.6097   30.1383 H   0  0  0  0  0  0  0  0  0  0  0  0
   -9.5012   28.2429   34.6585 H   0  0  0  0  0  0  0  0  0  0  0  0
   -8.9208   28.9348   33.1058 H   0  0  0  0  0  0  0  0  0  0  0  0
  -10.2134   27.6875   33.1058 H   0  0  0  0  0  0  0  0  0  0  0  0
   -9.9593   23.4855   35.8968 H   0  0  0  0  0  0  0  0  0  0  0  0
  -10.7654   23.9327   34.3551 H   0  0  0  0  0  0  0  0  0  0  0  0
   -9.0386   23.4378   34.3551 H   0  0  0  0  0  0  0  0  0  0  0  0
   -9.2407   29.4502   39.8408 H   0  0  0  0  0  0  0  0  0  0  0  0
   -9.2167   30.4131   38.3247 H   0  0  0  0  0  0  0  0  0  0  0  0
   -9.9073   28.7549   38.3247 H   0  0  0  0  0  0  0  0  0  0  0  0
  -16.4382   27.6597   38.8092 H   0  0  0  0  0  0  0  0  0  0  0  0
  -16.2101   27.5271   37.1015 H   0  0  0  0  0  0  0  0  0  0  0  0
   -7.1001   29.9522   30.0042 H   0  0  0  0  0  0  0  0  0  0  0  0
   -5.8944   29.2708   28.8602 H   0  0  0  0  0  0  0  0  0  0  0  0
   -7.5814   28.6537   28.8602 H   0  0  0  0  0  0  0  0  0  0  0  0
   -5.9841   31.0451   33.0815 H   0  0  0  0  0  0  0  0  0  0  0  0
   -4.6611   31.8034   32.1321 H   0  0  0  0  0  0  0  0  0  0  0  0
   -4.8571   30.0178   32.1321 H   0  0  0  0  0  0  0  0  0  0  0  0
  -17.5745   25.5791   39.0456 H   0  0  0  0  0  0  0  0  0  0  0  0
  -18.2117   26.2120   37.4900 H   0  0  0  0  0  0  0  0  0  0  0  0
  -16.9285   24.9551   37.4900 H   0  0  0  0  0  0  0  0  0  0  0  0
  1  2  1  0
  1  3  2  0
  1  4  1  0
  2 44  1  0
  4  5  1  0
  4  9  1  0
  5  6  1  0
  6  7  1  0
  7  8  1  0
  8  9  1  0
  9 66  1  0
 10 12  1  0
 10 13  2  0
 10 66  1  0
 11 66  2  0
 12 14  1  0
 12 15  1  0
 12 16  1  0
 14 17  1  0
 14 55  1  0
 15 19  1  0
 17 18  1  0
 18 19  1  0
 19 20  1  0
 20 21  1  0
 21 22  1  0
 21 23  1  0
 22 24  2  0
 22 56  1  0
 23 62  1  0
 24 25  1  0
 25 26  2  0
 26 27  1  0
 27 28  2  0
 28 29  1  0
 29 30  1  0
 29 57  1  0
 30 31  1  0
 31 32  1  0
 31 58  1  0
 32 33  1  0
 32 34  2  0
 33 35  1  0
 33 36  1  0
 35 37  1  0
 35 38  1  0
 36 63  1  0
 37 39  2  0
 37 59  1  0
 39 40  1  0
 40 41  1  0
 40 60  1  0
 41 42  1  0
 41 43  2  0
 42 44  1  0
 44 45  1  0
 45 46  1  0
 45 61  1  0
 46 47  1  0
 47 48  1  0
 47 54  1  0
 48 49  1  0
 49 50  1  0
 49 51  1  0
 50 52  1  0
 50 53  1  0
 51 64  1  0
 52 54  1  0
 62 65  1  0
  4 67  1  0
  5 68  1  0
  5 69  1  0
  6 70  1  0
  6 71  1  0
  7 72  1  0
  7 73  1  0
  8 74  1  0
  8 75  1  0
 14 76  1  0
 16 77  1  0
 17 78  1  0
 17 79  1  0
 18 80  1  0
 18 81  1  0
 19 82  1  0
 20 83  1  0
 20 84  1  0
 21 85  1  0
 24 86  1  0
 25 87  1  0
 26 88  1  0
 27 89  1  0
 28 90  1  0
 29 91  1  0
 30 92  1  0
 30 93  1  0
 31 94  1  0
 33 95  1  0
 35 96  1  0
 38 97  1  0
 39 98  1  0
 40 99  1  0
 42100  1  0
 42101  1  0
 44102  1  0
 45103  1  0
 46104  1  0
 46105  1  0
 47106  1  0
 48107  1  0
 48108  1  0
 49109  1  0
 50110  1  0
 52111  1  0
 52112  1  0
 53113  1  0
 54114  1  0
 54115  1  0
 55116  1  0
 55117  1  0
 55118  1  0
 56119  1  0
 56120  1  0
 56121  1  0
 57122  1  0
 57123  1  0
 57124  1  0
 58125  1  0
 58126  1  0
 58127  1  0
 59128  1  0
 59129  1  0
 59130  1  0
 60131  1  0
 60132  1  0
 60133  1  0
 61134  1  0
 61135  1  0
 61136  1  0
 62137  1  0
 62138  1  0
 63139  1  0
 63140  1  0
 63141  1  0
 64142  1  0
 64143  1  0
 64144  1  0
 65145  1  0
 65146  1  0
 65147  1  0
A    1
C1
A    2
O1
A    3
O2
A    4
C2
A    5
C3
A    6
C4
A    7
C5
A    8
C6
A    9
N7
A   10
C8
A   11
O3
A   12
C9
A   13
O4
A   14
C10
A   15
O5
A   16
O6
A   17
C11
A   18
C12
A   19
C13
A   20
C14
A   21
C15
A   22
C16
A   23
O7
A   24
C17
A   25
C18
A   26
C19
A   27
C20
A   28
C21
A   29
C22
A   30
C23
A   31
C24
A   32
C25
A   33
C26
A   34
O8
A   35
C27
A   36
O9
A   37
C28
A   38
O10
A   39
C29
A   40
C30
A   41
C31
A   42
C32
A   43
O11
A   44
C33
A   45
C34
A   46
C35
A   47
C36
A   48
C37
A   49
C38
A   50
C39
A   51
O12
A   52
C40
A   53
O13
A   54
C41
A   55
C42
A   56
C43
A   57
C44
A   58
C45
A   59
C46
A   60
C47
A   61
C48
A   62
C49
A   63
C50
A   64
C51
A   65
C52
A   66
C7
M  END
