1NT1_T76_A_247
     RDKit          3D

 68 71  0  0  0  0  0  0  0  0999 V2000
   13.3050  -11.3460   21.9390 C   0  0  0  0  0  0  0  0  0  0  0  0
   12.6100  -12.4750   22.3290 C   0  0  0  0  0  0  0  0  0  0  0  0
   11.6610  -12.4160   23.3870 C   0  0  0  0  0  0  0  0  0  0  0  0
   11.4900  -11.2300   24.1020 C   0  0  0  0  0  0  0  0  0  0  0  0
   12.2810  -10.1200   23.7820 C   0  0  0  0  0  0  0  0  0  0  0  0
   13.1730  -10.1610   22.6800 C   0  0  0  0  0  0  0  0  0  0  0  0
   14.1440  -11.3850   20.6840 C   0  0  0  0  0  0  0  0  0  0  0  0
   15.5830  -11.5230   20.9480 N   0  0  0  0  0  0  0  0  0  0  0  0
   16.1920  -12.7050   20.6640 C   0  0  0  0  0  0  0  0  0  0  0  0
   17.6880  -12.7240   20.8980 C   0  0  0  0  0  0  0  0  0  0  0  0
   15.6200  -13.7450   20.3220 O   0  0  0  0  0  0  0  0  0  0  0  0
   12.9140  -13.6870   21.7050 O   0  0  0  0  0  0  0  0  0  0  0  0
   18.4400  -12.8770   19.5630 C   0  0  0  0  0  0  0  0  0  0  0  0
   19.7640  -13.5550   19.9390 C   0  0  0  0  0  0  0  0  0  0  0  0
   19.2630  -14.5920   20.9510 C   0  0  0  0  0  0  0  0  0  0  0  0
   18.1110  -13.9590   21.5710 N   0  0  0  0  0  0  0  0  0  0  0  0
   17.4450  -14.3920   22.6690 C   0  0  0  0  0  0  0  0  0  0  0  0
   17.9410  -15.7110   23.2370 C   0  0  0  0  0  0  0  0  0  0  0  0
   16.8250  -16.6570   23.2880 N   0  0  0  0  0  0  0  0  0  0  0  0
   16.6220  -17.3810   22.1570 C   0  0  0  0  0  0  0  0  0  0  0  0
   17.4440  -17.4820   21.2250 O   0  0  0  0  0  0  0  0  0  0  0  0
   15.2330  -17.9950   22.0630 C   0  0  0  0  0  0  0  0  0  0  0  0
   14.4690  -17.3110   20.9130 C   0  0  0  0  0  0  0  0  0  0  0  0
   13.9290  -15.9920   21.3100 N   0  0  0  0  0  0  0  0  0  0  0  0
   12.7000  -16.0430   21.8690 C   0  0  0  0  0  0  0  0  0  0  0  0
   12.0520  -17.0770   22.0300 O   0  0  0  0  0  0  0  0  0  0  0  0
   12.1630  -14.7150   22.3090 C   0  0  0  0  0  0  0  0  0  0  0  0
   16.4310  -13.8520   23.1320 O   0  0  0  0  0  0  0  0  0  0  0  0
   18.5290  -15.4530   24.6390 C   0  0  0  0  0  0  0  0  0  0  0  0
   18.7960  -16.7530   25.4060 C   0  0  0  0  0  0  0  0  0  0  0  0
   19.4010  -16.4530   26.7880 C   0  0  0  0  0  0  0  0  0  0  0  0
   20.6980  -15.6420   26.6280 C   0  0  0  0  0  0  0  0  0  0  0  0
   20.4210  -14.3300   25.8830 C   0  0  0  0  0  0  0  0  0  0  0  0
   19.8080  -14.6210   24.5140 C   0  0  0  0  0  0  0  0  0  0  0  0
   12.1860   -8.7050   24.7850 Cl  0  0  0  0  0  0  0  0  0  0  0  0
   11.0631  -13.3037   23.6410 H   0  0  0  0  0  0  0  0  0  0  0  0
   10.7430  -11.1679   24.9071 H   0  0  0  0  0  0  0  0  0  0  0  0
   13.7576   -9.2699   22.4077 H   0  0  0  0  0  0  0  0  0  0  0  0
   13.8180  -12.2397   20.0731 H   0  0  0  0  0  0  0  0  0  0  0  0
   13.9994  -10.4250   20.1668 H   0  0  0  0  0  0  0  0  0  0  0  0
   16.1211  -10.7378   21.3414 H   0  0  0  0  0  0  0  0  0  0  0  0
   17.8984  -11.8011   21.4583 H   0  0  0  0  0  0  0  0  0  0  0  0
   17.8671  -13.5046   18.8645 H   0  0  0  0  0  0  0  0  0  0  0  0
   18.5946  -11.9117   19.0587 H   0  0  0  0  0  0  0  0  0  0  0  0
   20.2386  -14.0319   19.0687 H   0  0  0  0  0  0  0  0  0  0  0  0
   20.5376  -12.8735   20.3227 H   0  0  0  0  0  0  0  0  0  0  0  0
   18.9702  -15.5227   20.4431 H   0  0  0  0  0  0  0  0  0  0  0  0
   20.0343  -14.8721   21.6835 H   0  0  0  0  0  0  0  0  0  0  0  0
   18.7283  -16.1441   22.6025 H   0  0  0  0  0  0  0  0  0  0  0  0
   16.2341  -16.7661   24.1245 H   0  0  0  0  0  0  0  0  0  0  0  0
   15.3174  -19.0732   21.8619 H   0  0  0  0  0  0  0  0  0  0  0  0
   14.6935  -17.8500   23.0106 H   0  0  0  0  0  0  0  0  0  0  0  0
   15.1551  -17.1725   20.0645 H   0  0  0  0  0  0  0  0  0  0  0  0
   13.6207  -17.9557   20.6395 H   0  0  0  0  0  0  0  0  0  0  0  0
   14.4451  -15.1114   21.1722 H   0  0  0  0  0  0  0  0  0  0  0  0
   12.2393  -14.6318   23.4032 H   0  0  0  0  0  0  0  0  0  0  0  0
   11.1082  -14.6260   22.0098 H   0  0  0  0  0  0  0  0  0  0  0  0
   17.7829  -14.8926   25.2214 H   0  0  0  0  0  0  0  0  0  0  0  0
   17.8486  -17.2965   25.5366 H   0  0  0  0  0  0  0  0  0  0  0  0
   19.5092  -17.3628   24.8320 H   0  0  0  0  0  0  0  0  0  0  0  0
   18.6800  -15.8738   27.3836 H   0  0  0  0  0  0  0  0  0  0  0  0
   19.6279  -17.4013   27.2971 H   0  0  0  0  0  0  0  0  0  0  0  0
   21.1078  -15.4140   27.6230 H   0  0  0  0  0  0  0  0  0  0  0  0
   21.4202  -16.2355   26.0482 H   0  0  0  0  0  0  0  0  0  0  0  0
   19.7217  -13.7182   26.4718 H   0  0  0  0  0  0  0  0  0  0  0  0
   21.3684  -13.7884   25.7447 H   0  0  0  0  0  0  0  0  0  0  0  0
   20.5377  -15.1759   23.9060 H   0  0  0  0  0  0  0  0  0  0  0  0
   19.5519  -13.6625   24.0390 H   0  0  0  0  0  0  0  0  0  0  0  0
  1  2  1  0
  1  6  2  0
  1  7  1  0
  2  3  2  0
  2 12  1  0
  3  4  1  0
  4  5  2  0
  5  6  1  0
  5 35  1  0
  7  8  1  0
  8  9  1  0
  9 10  1  0
  9 11  2  0
 10 13  1  0
 10 16  1  0
 12 27  1  0
 13 14  1  0
 14 15  1  0
 15 16  1  0
 16 17  1  0
 17 18  1  0
 17 28  2  0
 18 19  1  0
 18 29  1  0
 19 20  1  0
 20 21  2  0
 20 22  1  0
 22 23  1  0
 23 24  1  0
 24 25  1  0
 25 26  2  0
 25 27  1  0
 29 30  1  0
 29 34  1  0
 30 31  1  0
 31 32  1  0
 32 33  1  0
 33 34  1  0
  3 36  1  0
  4 37  1  0
  6 38  1  0
  7 39  1  0
  7 40  1  0
  8 41  1  0
 10 42  1  0
 13 43  1  0
 13 44  1  0
 14 45  1  0
 14 46  1  0
 15 47  1  0
 15 48  1  0
 18 49  1  0
 19 50  1  0
 22 51  1  0
 22 52  1  0
 23 53  1  0
 23 54  1  0
 24 55  1  0
 27 56  1  0
 27 57  1  0
 29 58  1  0
 30 59  1  0
 30 60  1  0
 31 61  1  0
 31 62  1  0
 32 63  1  0
 32 64  1  0
 33 65  1  0
 33 66  1  0
 34 67  1  0
 34 68  1  0
A    1
C1
A    2
C2
A    3
C3
A    4
C4
A    5
C5
A    6
C6
A    7
C7
A    8
N8
A    9
C9
A   10
C10
A   11
O11
A   12
O12
A   13
C18
A   14
C19
A   15
C20
A   16
N21
A   17
C29
A   18
C30
A   19
N31
A   20
C32
A   21
O33
A   22
C34
A   23
C35
A   24
N38
A   25
C41
A   26
O42
A   27
C43
A   28
O44
A   29
C45
A   30
C47
A   31
C48
A   32
C49
A   33
C50
A   34
C51
A   35
CL68
M  END
