1MXO_SM2_A_964
     RDKit          3D

 36 37  0  0  0  0  0  0  0  0999 V2000
   22.0080    4.7220   10.7950 C   0  0  0  0  0  0  0  0  0  0  0  0
   20.7600    5.4040   10.9430 C   0  0  0  0  0  0  0  0  0  0  0  0
   20.5650    5.9240   12.1790 C   0  0  0  0  0  0  0  0  0  0  0  0
   21.8790    5.6140   13.2200 S   0  0  0  0  0  0  0  0  0  0  0  0
   22.7380    4.7620   11.9850 C   0  0  0  0  0  0  0  0  0  0  0  0
   24.1110    4.1630   12.2860 C   0  0  0  0  0  0  0  0  0  0  0  0
   24.9890    5.2250   12.9510 C   0  0  0  0  0  0  0  0  0  0  0  0
   25.3250    6.2360   12.3190 O   0  0  0  0  0  0  0  0  0  0  0  0
   25.3560    5.0080   14.2470 N   0  0  0  0  0  0  0  0  0  0  0  0
   26.1670    5.9170   15.0590 C   0  0  0  0  0  0  0  0  0  0  0  0
   26.7870    5.1490   16.3560 B   0  0  0  0  0  0  0  0  0  0  0  0
   25.7820    4.1740   16.9060 O   0  0  0  0  0  0  0  0  0  0  0  0
   27.1450    6.1380   17.4150 O   0  0  0  0  0  0  0  0  0  0  0  0
   25.2810    7.1340   15.4190 C   0  0  0  0  0  0  0  0  0  0  0  0
   24.2220    7.0080   16.3390 C   0  0  0  0  0  0  0  0  0  0  0  0
   25.4900    8.3820   14.7510 C   0  0  0  0  0  0  0  0  0  0  0  0
   24.6020    9.4610   15.0120 C   0  0  0  0  0  0  0  0  0  0  0  0
   23.5310    9.3130   15.9330 C   0  0  0  0  0  0  0  0  0  0  0  0
   23.3420    8.0750   16.6030 C   0  0  0  0  0  0  0  0  0  0  0  0
   22.2260    7.8620   17.5950 C   0  0  0  0  0  0  0  0  0  0  0  0
   21.1330    7.3920   17.1530 O   0  0  0  0  0  0  0  0  0  0  0  0
   22.4800    8.1360   18.7930 O   0  0  0  0  0  0  0  0  0  0  0  0
   22.3469    4.2326    9.8700 H   0  0  0  0  0  0  0  0  0  0  0  0
   20.0262    5.4978   10.1289 H   0  0  0  0  0  0  0  0  0  0  0  0
   19.6642    6.4810   12.4760 H   0  0  0  0  0  0  0  0  0  0  0  0
   23.9969    3.3035   12.9630 H   0  0  0  0  0  0  0  0  0  0  0  0
   24.5813    3.8284   11.3496 H   0  0  0  0  0  0  0  0  0  0  0  0
   25.0369    4.1345   14.6897 H   0  0  0  0  0  0  0  0  0  0  0  0
   27.0445    6.2768   14.5017 H   0  0  0  0  0  0  0  0  0  0  0  0
   25.8065    4.1977   17.8954 H   0  0  0  0  0  0  0  0  0  0  0  0
   26.9987    5.7340   18.3069 H   0  0  0  0  0  0  0  0  0  0  0  0
   24.0788    6.0522   16.8644 H   0  0  0  0  0  0  0  0  0  0  0  0
   26.3254    8.5047   14.0460 H   0  0  0  0  0  0  0  0  0  0  0  0
   24.7460   10.4212   14.4949 H   0  0  0  0  0  0  0  0  0  0  0  0
   22.8499   10.1547   16.1268 H   0  0  0  0  0  0  0  0  0  0  0  0
   22.0238    7.6438   19.5208 H   0  0  0  0  0  0  0  0  0  0  0  0
  1  2  1  0
  1  5  2  0
  2  3  2  0
  3  4  1  0
  4  5  1  0
  5  6  1  0
  6  7  1  0
  7  8  2  0
  7  9  1  0
  9 10  1  0
 10 11  1  0
 10 14  1  0
 11 12  1  0
 11 13  1  0
 14 15  2  0
 14 16  1  0
 15 19  1  0
 16 17  2  0
 17 18  1  0
 18 19  2  0
 19 20  1  0
 20 21  2  0
 20 22  1  0
  1 23  1  0
  2 24  1  0
  3 25  1  0
  6 26  1  0
  6 27  1  0
  9 28  1  0
 10 29  1  0
 12 30  1  0
 13 31  1  0
 15 32  1  0
 16 33  1  0
 17 34  1  0
 18 35  1  0
 22 36  1  0
A    1
CAF
A    2
CAC
A    3
CAB
A    4
SAD
A    5
CAE
A    6
CAG
A    7
CAH
A    8
OAI
A    9
NAJ
A   10
CAK
A   11
B
A   12
OAT
A   13
OAO
A   14
CAL
A   15
CAQ
A   16
CAM
A   17
CAN
A   18
CAS
A   19
CAR
A   20
CAU
A   21
OAW
A   22
OAV
M  END
