1NZ7_901_A_322
     RDKit          3D

 87 88  0  0  0  0  0  0  0  0999 V2000
   35.7960   30.0420   23.4430 O   0  0  0  0  0  0  0  0  0  0  0  0
   34.8560   29.2950   23.7270 C   0  0  0  0  0  0  0  0  0  0  0  0
   33.9830   29.6860   24.4570 O   0  0  0  0  0  0  0  0  0  0  0  0
   34.7810   27.8570   23.1240 C   0  0  0  0  0  0  0  0  0  0  0  0
   35.0950   26.9380   23.9000 O   0  0  0  0  0  0  0  0  0  0  0  0
   34.3740   27.6280   21.7530 N   0  0  0  0  0  0  0  0  0  0  0  0
   34.3520   26.3200   21.1990 C   0  0  0  0  0  0  0  0  0  0  0  0
   33.1090   25.9260   20.5740 C   0  0  0  0  0  0  0  0  0  0  0  0
   32.9290   24.6680   19.9780 C   0  0  0  0  0  0  0  0  0  0  0  0
   33.9690   23.7240   19.9810 C   0  0  0  0  0  0  0  0  0  0  0  0
   35.2050   24.0410   20.5750 C   0  0  0  0  0  0  0  0  0  0  0  0
   35.4480   25.3150   21.2040 C   0  0  0  0  0  0  0  0  0  0  0  0
   36.8440   25.4580   21.7700 C   0  0  0  0  0  0  0  0  0  0  0  0
   37.6800   24.5540   21.7180 O   0  0  0  0  0  0  0  0  0  0  0  0
   37.2040   26.4580   22.3010 O   0  0  0  0  0  0  0  0  0  0  0  0
   33.8780   28.7270   20.9920 C   0  0  0  0  0  0  0  0  0  0  0  0
   32.5840   29.2390   21.3870 C   0  0  0  0  0  0  0  0  0  0  0  0
   31.9140   30.3380   20.7780 C   0  0  0  0  0  0  0  0  0  0  0  0
   32.5260   31.0410   19.7040 C   0  0  0  0  0  0  0  0  0  0  0  0
   33.8780   30.4990   19.3010 C   0  0  0  0  0  0  0  0  0  0  0  0
   34.5700   29.3730   19.9080 C   0  0  0  0  0  0  0  0  0  0  0  0
   35.9420   28.8750   19.4460 C   0  0  0  0  0  0  0  0  0  0  0  0
   37.0400   29.9520   19.3760 C   0  0  0  0  0  0  0  0  0  0  0  0
   31.9740   32.2570   18.7980 C   0  0  0  0  0  0  0  0  0  0  0  0
   31.1950   31.4670   17.6480 C   0  0  0  0  0  0  0  0  0  0  0  0
   31.2010   32.2800   16.4480 N   0  0  0  0  0  0  0  0  0  0  0  0
   31.1170   33.3250   15.6150 C   0  0  0  0  0  0  0  0  0  0  0  0
   31.5570   32.9620   14.4230 O   0  0  0  0  0  0  0  0  0  0  0  0
   30.8810   34.7290   15.9670 C   0  0  0  0  0  0  0  0  0  0  0  0
   29.9780   30.5910   17.9600 C   0  0  0  0  0  0  0  0  0  0  0  0
   30.3820   29.4080   17.8860 O   0  0  0  0  0  0  0  0  0  0  0  0
   28.7940   31.0600   18.1140 N   0  0  0  0  0  0  0  0  0  0  0  0
   27.6640   30.2030   18.2510 C   0  0  0  0  0  0  0  0  0  0  0  0
   26.7540   30.7360   19.3630 C   0  0  0  0  0  0  0  0  0  0  0  0
   27.4040   30.6850   20.7750 C   0  0  0  0  0  0  0  0  0  0  0  0
   26.4990   31.2100   21.9140 C   0  0  0  0  0  0  0  0  0  0  0  0
   25.3580   30.2310   22.2820 C   0  0  0  0  0  0  0  0  0  0  0  0
   25.3270   29.0480   22.6160 O   0  0  0  0  0  0  0  0  0  0  0  0
   24.2710   31.0360   22.1280 N   0  0  0  0  0  0  0  0  0  0  0  0
   22.8930   30.5330   22.2650 C   0  0  0  0  0  0  0  0  0  0  0  0
   22.6240   29.4330   21.2090 C   0  0  0  0  0  0  0  0  0  0  0  0
   22.1050   28.3740   21.5520 O   0  0  0  0  0  0  0  0  0  0  0  0
   22.9420   29.6080   20.0560 O   0  0  0  0  0  0  0  0  0  0  0  0
   21.9070   31.7010   22.0810 C   0  0  0  0  0  0  0  0  0  0  0  0
   21.9880   32.7600   23.1930 C   0  0  0  0  0  0  0  0  0  0  0  0
   21.0650   32.2890   24.6740 S   0  0  0  0  0  0  0  0  0  0  0  0
   19.6410   31.7210   25.0580 C   0  0  0  0  0  0  0  0  0  0  0  0
   36.3276   30.4645   24.1634 H   0  0  0  0  0  0  0  0  0  0  0  0
   32.2721   26.6398   20.5653 H   0  0  0  0  0  0  0  0  0  0  0  0
   31.9672   24.4198   19.5055 H   0  0  0  0  0  0  0  0  0  0  0  0
   33.8176   22.7372   19.5192 H   0  0  0  0  0  0  0  0  0  0  0  0
   36.0111   23.2928   20.5587 H   0  0  0  0  0  0  0  0  0  0  0  0
   37.2242   26.5141   23.2892 H   0  0  0  0  0  0  0  0  0  0  0  0
   32.0768   28.7391   22.2253 H   0  0  0  0  0  0  0  0  0  0  0  0
   30.9210   30.6438   21.1391 H   0  0  0  0  0  0  0  0  0  0  0  0
   34.3880   31.0051   18.4680 H   0  0  0  0  0  0  0  0  0  0  0  0
   36.2746   28.0948   20.1465 H   0  0  0  0  0  0  0  0  0  0  0  0
   35.8045   28.5114   18.4170 H   0  0  0  0  0  0  0  0  0  0  0  0
   37.3352   30.2415   20.3953 H   0  0  0  0  0  0  0  0  0  0  0  0
   37.9136   29.5508   18.8413 H   0  0  0  0  0  0  0  0  0  0  0  0
   36.6557   30.8332   18.8413 H   0  0  0  0  0  0  0  0  0  0  0  0
   31.2957   32.9081   19.3689 H   0  0  0  0  0  0  0  0  0  0  0  0
   32.7587   32.9325   18.4265 H   0  0  0  0  0  0  0  0  0  0  0  0
   31.7712   30.5478   17.4664 H   0  0  0  0  0  0  0  0  0  0  0  0
   31.4245   31.5464   15.7604 H   0  0  0  0  0  0  0  0  0  0  0  0
   30.8633   34.8345   17.0618 H   0  0  0  0  0  0  0  0  0  0  0  0
   31.6871   35.3516   15.5516 H   0  0  0  0  0  0  0  0  0  0  0  0
   29.9156   35.0539   15.5516 H   0  0  0  0  0  0  0  0  0  0  0  0
   28.6569   32.0805   18.1392 H   0  0  0  0  0  0  0  0  0  0  0  0
   27.1072   30.1751   17.3027 H   0  0  0  0  0  0  0  0  0  0  0  0
   28.0012   29.1877   18.5067 H   0  0  0  0  0  0  0  0  0  0  0  0
   26.5005   31.7816   19.1341 H   0  0  0  0  0  0  0  0  0  0  0  0
   25.8657   30.0879   19.3924 H   0  0  0  0  0  0  0  0  0  0  0  0
   27.6642   29.6394   20.9965 H   0  0  0  0  0  0  0  0  0  0  0  0
   28.2817   31.3471   20.7408 H   0  0  0  0  0  0  0  0  0  0  0  0
   27.1200   31.3755   22.8067 H   0  0  0  0  0  0  0  0  0  0  0  0
   26.0317   32.1406   21.5596 H   0  0  0  0  0  0  0  0  0  0  0  0
   24.4171   32.0316   21.9080 H   0  0  0  0  0  0  0  0  0  0  0  0
   22.7575   30.0971   23.2658 H   0  0  0  0  0  0  0  0  0  0  0  0
   23.7887   30.0739   19.8413 H   0  0  0  0  0  0  0  0  0  0  0  0
   22.1234   32.1898   21.1196 H   0  0  0  0  0  0  0  0  0  0  0  0
   20.8936   31.2746   22.1167 H   0  0  0  0  0  0  0  0  0  0  0  0
   23.0438   32.9025   23.4669 H   0  0  0  0  0  0  0  0  0  0  0  0
   21.5401   33.6859   22.8030 H   0  0  0  0  0  0  0  0  0  0  0  0
   19.5447   31.6826   26.1531 H   0  0  0  0  0  0  0  0  0  0  0  0
   18.8609   32.3768   24.6441 H   0  0  0  0  0  0  0  0  0  0  0  0
   19.5264   30.7083   24.6441 H   0  0  0  0  0  0  0  0  0  0  0  0
  1  2  1  0
  2  3  2  0
  2  4  1  0
  4  5  2  0
  4  6  1  0
  6  7  1  0
  6 16  1  0
  7  8  2  0
  7 12  1  0
  8  9  1  0
  9 10  2  0
 10 11  1  0
 11 12  2  0
 12 13  1  0
 13 14  2  0
 13 15  1  0
 16 17  2  0
 16 21  1  0
 17 18  1  0
 18 19  2  0
 19 20  1  0
 19 24  1  0
 20 21  2  0
 21 22  1  0
 22 23  1  0
 24 25  1  0
 25 26  1  0
 25 30  1  0
 26 27  1  0
 27 28  2  0
 27 29  1  0
 30 31  2  0
 30 32  1  0
 32 33  1  0
 33 34  1  0
 34 35  1  0
 35 36  1  0
 36 37  1  0
 37 38  2  0
 37 39  1  0
 39 40  1  0
 40 41  1  0
 40 44  1  0
 41 42  2  0
 41 43  1  0
 44 45  1  0
 45 46  1  0
 46 47  1  0
  1 48  1  0
  8 49  1  0
  9 50  1  0
 10 51  1  0
 11 52  1  0
 15 53  1  0
 17 54  1  0
 18 55  1  0
 20 56  1  0
 22 57  1  0
 22 58  1  0
 23 59  1  0
 23 60  1  0
 23 61  1  0
 24 62  1  0
 24 63  1  0
 25 64  1  0
 26 65  1  0
 29 66  1  0
 29 67  1  0
 29 68  1  0
 32 69  1  0
 33 70  1  0
 33 71  1  0
 34 72  1  0
 34 73  1  0
 35 74  1  0
 35 75  1  0
 36 76  1  0
 36 77  1  0
 39 78  1  0
 40 79  1  0
 43 80  1  0
 44 81  1  0
 44 82  1  0
 45 83  1  0
 45 84  1  0
 47 85  1  0
 47 86  1  0
 47 87  1  0
A    1
O6
A    2
C24
A    3
O7
A    4
C8
A    5
O5
A    6
N4
A    7
C26
A    8
C27
A    9
C28
A   10
C29
A   11
C30
A   12
C25
A   13
C31
A   14
O9
A   15
O10
A   16
C2
A   17
C3
A   18
C4
A   19
C5
A   20
C6
A   21
C1
A   22
C32
A   23
C33
A   24
C7
A   25
C9
A   26
N1
A   27
C10
A   28
O4
A   29
C23
A   30
C11
A   31
O8
A   32
N2
A   33
C12
A   34
C13
A   35
C15
A   36
C14
A   37
C16
A   38
O1
A   39
N3
A   40
C17
A   41
C22
A   42
O2
A   43
O3
A   44
C18
A   45
C34
A   46
S1
A   47
C35
M  END
