1FNC_A2P_A_316
     RDKit          3D

 42 44  0  0  0  0  0  0  0  0999 V2000
    9.2760   -4.5530   12.2410 P   0  0  0  0  0  0  0  0  0  0  0  0
    8.2710   -3.8760   11.3910 O   0  0  0  0  0  0  0  0  0  0  0  0
   10.4430   -4.9360   11.4170 O   0  0  0  0  0  0  0  0  0  0  0  0
    8.6760   -5.7660   12.8430 O   0  0  0  0  0  0  0  0  0  0  0  0
   15.0690   -3.4910   11.2420 P   0  0  0  0  0  0  0  0  0  0  0  0
   15.0430   -4.9000   10.7800 O   0  0  0  0  0  0  0  0  0  0  0  0
   15.2710   -2.5530   10.1320 O   0  0  0  0  0  0  0  0  0  0  0  0
   16.0950   -3.3450   12.1910 O   0  0  0  0  0  0  0  0  0  0  0  0
   13.7780   -3.1070   12.1140 O   0  0  0  0  0  0  0  0  0  0  0  0
   14.1610   -2.2480   13.2760 C   0  0  0  0  0  0  0  0  0  0  0  0
   13.0390   -2.2840   14.3050 C   0  0  0  0  0  0  0  0  0  0  0  0
   12.2280   -1.0600   14.1290 O   0  0  0  0  0  0  0  0  0  0  0  0
   12.0330   -3.4300   14.2860 C   0  0  0  0  0  0  0  0  0  0  0  0
   11.4660   -3.7400   15.5230 O   0  0  0  0  0  0  0  0  0  0  0  0
   11.0240   -2.8870   13.2580 C   0  0  0  0  0  0  0  0  0  0  0  0
    9.7540   -3.5420   13.4240 O   0  0  0  0  0  0  0  0  0  0  0  0
   10.8630   -1.4920   13.7880 C   0  0  0  0  0  0  0  0  0  0  0  0
   10.3050   -0.5520   12.7770 N   0  0  0  0  0  0  0  0  0  0  0  0
   10.2290   -0.7010   11.3900 C   0  0  0  0  0  0  0  0  0  0  0  0
    9.6280    0.3340   10.8170 N   0  0  0  0  0  0  0  0  0  0  0  0
    9.2940    1.1550   11.8540 C   0  0  0  0  0  0  0  0  0  0  0  0
    8.6240    2.4370   11.8980 C   0  0  0  0  0  0  0  0  0  0  0  0
    8.1890    3.0680   10.8330 N   0  0  0  0  0  0  0  0  0  0  0  0
    8.4700    2.9590   13.1460 N   0  0  0  0  0  0  0  0  0  0  0  0
    8.9130    2.3270   14.2760 C   0  0  0  0  0  0  0  0  0  0  0  0
    9.5270    1.1690   14.3140 N   0  0  0  0  0  0  0  0  0  0  0  0
    9.6880    0.6350   13.0950 C   0  0  0  0  0  0  0  0  0  0  0  0
   11.1975   -5.1836   12.0083 H   0  0  0  0  0  0  0  0  0  0  0  0
    8.7105   -5.6962   13.8299 H   0  0  0  0  0  0  0  0  0  0  0  0
   15.4651   -1.6517   10.4927 H   0  0  0  0  0  0  0  0  0  0  0  0
   15.7119   -3.3995   13.1022 H   0  0  0  0  0  0  0  0  0  0  0  0
   15.0888   -2.6293   13.7274 H   0  0  0  0  0  0  0  0  0  0  0  0
   14.3246   -1.2141   12.9381 H   0  0  0  0  0  0  0  0  0  0  0  0
   13.5905   -2.4009   15.2496 H   0  0  0  0  0  0  0  0  0  0  0  0
   12.4768   -4.4037   14.0310 H   0  0  0  0  0  0  0  0  0  0  0  0
   12.0578   -3.4164   16.2477 H   0  0  0  0  0  0  0  0  0  0  0  0
   11.3331   -2.9991   12.2083 H   0  0  0  0  0  0  0  0  0  0  0  0
   10.1632   -1.4871   14.6367 H   0  0  0  0  0  0  0  0  0  0  0  0
   10.6196   -1.5700   10.8402 H   0  0  0  0  0  0  0  0  0  0  0  0
    7.6073    3.9118   10.9360 H   0  0  0  0  0  0  0  0  0  0  0  0
    8.4292    2.7196    9.8940 H   0  0  0  0  0  0  0  0  0  0  0  0
    8.7388    2.8347   15.2362 H   0  0  0  0  0  0  0  0  0  0  0  0
  1  2  2  0
  1  3  1  0
  1  4  1  0
  1 16  1  0
  5  6  2  0
  5  7  1  0
  5  8  1  0
  5  9  1  0
  9 10  1  0
 10 11  1  0
 11 12  1  0
 11 13  1  0
 12 17  1  0
 13 14  1  0
 13 15  1  0
 15 16  1  0
 15 17  1  0
 17 18  1  0
 18 19  1  0
 18 27  1  0
 19 20  2  0
 20 21  1  0
 21 22  1  0
 21 27  2  0
 22 23  1  0
 22 24  2  0
 24 25  1  0
 25 26  2  0
 26 27  1  0
  3 28  1  0
  4 29  1  0
  7 30  1  0
  8 31  1  0
 10 32  1  0
 10 33  1  0
 11 34  1  0
 13 35  1  0
 14 36  1  0
 15 37  1  0
 17 38  1  0
 19 39  1  0
 23 40  1  0
 23 41  1  0
 25 42  1  0
A    1
P1
A    2
O1P
A    3
O2P
A    4
O3P
A    5
P2
A    6
O4P
A    7
O5P
A    8
O6P
A    9
O5'
A   10
C5'
A   11
C4'
A   12
O4'
A   13
C3'
A   14
O3'
A   15
C2'
A   16
O2'
A   17
C1'
A   18
N9
A   19
C8
A   20
N7
A   21
C5
A   22
C6
A   23
N6
A   24
N1
A   25
C2
A   26
N3
A   27
C4
M  END
