1O1S_1NH_B_2001
     RDKit          3D

 65 66  0  0  0  0  0  0  0  0999 V2000
  193.6470  123.4910   29.0520 C   0  0  0  0  0  0  0  0  0  0  0  0
  193.1760  122.9000   30.3810 C   0  0  0  0  0  0  0  0  0  0  0  0
  191.8450  122.1070   30.3570 C   0  0  0  0  0  0  0  0  0  0  0  0
  191.0540  122.1600   31.6910 C   0  0  0  0  0  0  0  0  0  0  0  0
  189.7860  121.3160   31.5510 C   0  0  0  0  0  0  0  0  0  0  0  0
  188.7920  121.3270   32.4690 C   0  0  0  0  0  0  0  0  0  0  0  0
  188.8850  122.1830   33.7040 C   0  0  0  0  0  0  0  0  0  0  0  0
  187.5480  120.4760   32.2900 C   0  0  0  0  0  0  0  0  0  0  0  0
  186.4070  121.1140   32.8820 O   0  0  0  0  0  0  0  0  0  0  0  0
  185.1590  120.4650   32.5340 C   0  0  0  0  0  0  0  0  0  0  0  0
  184.4970  121.1980   31.3860 C   0  0  0  0  0  0  0  0  0  0  0  0
  183.3470  120.6930   30.7560 C   0  0  0  0  0  0  0  0  0  0  0  0
  182.7810  121.4170   29.6930 C   0  0  0  0  0  0  0  0  0  0  0  0
  183.3590  122.6390   29.2640 C   0  0  0  0  0  0  0  0  0  0  0  0
  184.5100  123.1410   29.9030 C   0  0  0  0  0  0  0  0  0  0  0  0
  185.0540  122.4070   30.9590 C   0  0  0  0  0  0  0  0  0  0  0  0
  185.2070  124.4140   29.5550 C   0  0  0  0  0  0  0  0  0  0  0  0
  186.1140  124.8310   30.2820 O   0  0  0  0  0  0  0  0  0  0  0  0
  184.8340  125.1750   28.3450 C   0  0  0  0  0  0  0  0  0  0  0  0
  184.0360  124.6380   27.3230 C   0  0  0  0  0  0  0  0  0  0  0  0
  183.8300  125.3600   26.1380 C   0  0  0  0  0  0  0  0  0  0  0  0
  184.4050  126.6270   25.9730 C   0  0  0  0  0  0  0  0  0  0  0  0
  185.1500  127.1970   27.0140 C   0  0  0  0  0  0  0  0  0  0  0  0
  185.3560  126.4750   28.1970 C   0  0  0  0  0  0  0  0  0  0  0  0
  193.9180  123.0780   31.5040 C   0  0  0  0  0  0  0  0  0  0  0  0
  195.2300  123.8540   31.5140 C   0  0  0  0  0  0  0  0  0  0  0  0
  195.1140  125.0980   32.2780 O   0  0  0  0  0  0  0  0  0  0  0  0
  196.3480  125.5950   33.1190 P   0  0  0  0  0  0  0  0  0  0  0  0
  196.1040  127.1000   33.3530 O   0  0  0  0  0  0  0  0  0  0  0  0
  197.6720  125.3390   32.4640 O   0  0  0  0  0  0  0  0  0  0  0  0
  196.2410  124.9470   34.5310 O   0  0  0  0  0  0  0  0  0  0  0  0
  197.0750  123.8600   35.2780 P   0  0  0  0  0  0  0  0  0  0  0  0
  196.2780  123.6140   36.5860 O   0  0  0  0  0  0  0  0  0  0  0  0
  196.9840  122.6040   34.3840 O   0  0  0  0  0  0  0  0  0  0  0  0
  198.4780  124.2910   35.5320 O   0  0  0  0  0  0  0  0  0  0  0  0
  194.3218  124.3378   29.2459 H   0  0  0  0  0  0  0  0  0  0  0  0
  194.1814  122.7205   28.4769 H   0  0  0  0  0  0  0  0  0  0  0  0
  192.7767  123.8400   28.4769 H   0  0  0  0  0  0  0  0  0  0  0  0
  191.2092  122.5225   29.5613 H   0  0  0  0  0  0  0  0  0  0  0  0
  192.1061  121.0526   30.1838 H   0  0  0  0  0  0  0  0  0  0  0  0
  191.6760  121.7592   32.5049 H   0  0  0  0  0  0  0  0  0  0  0  0
  190.7843  123.2010   31.9224 H   0  0  0  0  0  0  0  0  0  0  0  0
  189.6775  120.6722   30.6657 H   0  0  0  0  0  0  0  0  0  0  0  0
  188.8158  121.5457   34.5979 H   0  0  0  0  0  0  0  0  0  0  0  0
  189.8465  122.7173   33.7082 H   0  0  0  0  0  0  0  0  0  0  0  0
  188.0607  122.9114   33.7082 H   0  0  0  0  0  0  0  0  0  0  0  0
  187.3626  120.3291   31.2157 H   0  0  0  0  0  0  0  0  0  0  0  0
  187.7081  119.5072   32.7858 H   0  0  0  0  0  0  0  0  0  0  0  0
  185.3598  119.4256   32.2352 H   0  0  0  0  0  0  0  0  0  0  0  0
  184.4889  120.4794   33.4062 H   0  0  0  0  0  0  0  0  0  0  0  0
  182.8971  119.7462   31.0895 H   0  0  0  0  0  0  0  0  0  0  0  0
  181.8818  121.0326   29.1892 H   0  0  0  0  0  0  0  0  0  0  0  0
  182.9074  123.1964   28.4301 H   0  0  0  0  0  0  0  0  0  0  0  0
  185.9484  122.7920   31.4707 H   0  0  0  0  0  0  0  0  0  0  0  0
  183.5713  123.6493   27.4514 H   0  0  0  0  0  0  0  0  0  0  0  0
  183.2142  124.9294   25.3346 H   0  0  0  0  0  0  0  0  0  0  0  0
  184.2718  127.1735   25.0277 H   0  0  0  0  0  0  0  0  0  0  0  0
  185.5713  128.2070   26.9029 H   0  0  0  0  0  0  0  0  0  0  0  0
  185.9310  126.9278   29.0182 H   0  0  0  0  0  0  0  0  0  0  0  0
  193.5567  122.6433   32.4477 H   0  0  0  0  0  0  0  0  0  0  0  0
  196.0119  123.2276   31.9681 H   0  0  0  0  0  0  0  0  0  0  0  0
  195.4864  124.1104   30.4755 H   0  0  0  0  0  0  0  0  0  0  0  0
  198.3638  125.2052   33.1594 H   0  0  0  0  0  0  0  0  0  0  0  0
  196.9255  121.7967   34.9541 H   0  0  0  0  0  0  0  0  0  0  0  0
  198.6367  124.3397   36.5080 H   0  0  0  0  0  0  0  0  0  0  0  0
  1  2  1  0
  2  3  1  0
  2 25  2  0
  3  4  1  0
  4  5  1  0
  5  6  2  0
  6  7  1  0
  6  8  1  0
  8  9  1  0
  9 10  1  0
 10 11  1  0
 11 12  2  0
 11 16  1  0
 12 13  1  0
 13 14  2  0
 14 15  1  0
 15 16  2  0
 15 17  1  0
 17 18  2  0
 17 19  1  0
 19 20  2  0
 19 24  1  0
 20 21  1  0
 21 22  2  0
 22 23  1  0
 23 24  2  0
 25 26  1  0
 26 27  1  0
 27 28  1  0
 28 29  2  0
 28 30  1  0
 28 31  1  0
 31 32  1  0
 32 33  2  0
 32 34  1  0
 32 35  1  0
  1 36  1  0
  1 37  1  0
  1 38  1  0
  3 39  1  0
  3 40  1  0
  4 41  1  0
  4 42  1  0
  5 43  1  0
  7 44  1  0
  7 45  1  0
  7 46  1  0
  8 47  1  0
  8 48  1  0
 10 49  1  0
 10 50  1  0
 12 51  1  0
 13 52  1  0
 14 53  1  0
 16 54  1  0
 20 55  1  0
 21 56  1  0
 22 57  1  0
 23 58  1  0
 24 59  1  0
 25 60  1  0
 26 61  1  0
 26 62  1  0
 30 63  1  0
 34 64  1  0
 35 65  1  0
A    1
C4
A    2
C1
A    3
C3
A    4
C5
A    5
C7
A    6
C6
A    7
C8
A    8
C9
A    9
O8
A   10
C11
A   11
C17
A   12
C18
A   13
C12
A   14
C13
A   15
C14
A   16
C16
A   17
C15
A   18
O9
A   19
C19
A   20
C24
A   21
C23
A   22
C22
A   23
C21
A   24
C20
A   25
C2
A   26
C10
A   27
O3
A   28
P2
A   29
O7
A   30
O1
A   31
O2
A   32
P1
A   33
O4
A   34
O5
A   35
O6
M  END
