1O1T_2NH_B_3001
     RDKit          3D

110109  0  0  0  0  0  0  0  0999 V2000
  183.5790  125.1670   32.9440 C   0  0  0  0  0  0  0  0  0  0  0  0
  184.5450  125.7870   31.9420 C   0  0  0  0  0  0  0  0  0  0  0  0
  185.7310  124.8840   31.5990 C   0  0  0  0  0  0  0  0  0  0  0  0
  186.5930  124.6200   32.8360 C   0  0  0  0  0  0  0  0  0  0  0  0
  186.6040  125.5050   30.4640 C   0  0  0  0  0  0  0  0  0  0  0  0
  187.0100  126.8630   30.8120 N   0  0  0  0  0  0  0  0  0  0  0  0
  188.2820  127.2400   30.7900 C   0  0  0  0  0  0  0  0  0  0  0  0
  189.2100  126.4730   30.5280 O   0  0  0  0  0  0  0  0  0  0  0  0
  188.5410  128.6830   31.1840 C   0  0  0  0  0  0  0  0  0  0  0  0
  189.5390  128.7710   32.2600 N   0  0  0  0  0  0  0  0  0  0  0  0
  189.2140  128.5690   33.5400 C   0  0  0  0  0  0  0  0  0  0  0  0
  188.0650  128.3390   33.9220 O   0  0  0  0  0  0  0  0  0  0  0  0
  190.3480  128.6890   34.5500 C   0  0  0  0  0  0  0  0  0  0  0  0
  190.0970  127.7740   35.7650 C   0  0  0  0  0  0  0  0  0  0  0  0
  191.5630  127.2880   36.7020 S   0  0  0  0  0  0  0  0  0  0  0  0
  192.2220  125.9860   35.6180 C   0  0  0  0  0  0  0  0  0  0  0  0
  191.4040  124.7160   35.6490 C   0  0  0  0  0  0  0  0  0  0  0  0
  190.5020  124.3800   34.7050 C   0  0  0  0  0  0  0  0  0  0  0  0
  190.2340  125.2810   33.5350 C   0  0  0  0  0  0  0  0  0  0  0  0
  189.7370  123.0730   34.8150 C   0  0  0  0  0  0  0  0  0  0  0  0
  189.7190  122.3590   33.4670 C   0  0  0  0  0  0  0  0  0  0  0  0
  188.4280  121.5460   33.3900 C   0  0  0  0  0  0  0  0  0  0  0  0
  187.9420  121.1090   32.2280 C   0  0  0  0  0  0  0  0  0  0  0  0
  188.6340  121.3770   30.9170 C   0  0  0  0  0  0  0  0  0  0  0  0
  186.6430  120.3070   32.2010 C   0  0  0  0  0  0  0  0  0  0  0  0
  185.4710  121.1900   31.8490 C   0  0  0  0  0  0  0  0  0  0  0  0
  184.1910  120.3680   31.9070 C   0  0  0  0  0  0  0  0  0  0  0  0
  183.1360  120.5850   31.1050 C   0  0  0  0  0  0  0  0  0  0  0  0
  183.1270  121.6840   30.0720 C   0  0  0  0  0  0  0  0  0  0  0  0
  181.9010  119.6910   31.2400 C   0  0  0  0  0  0  0  0  0  0  0  0
  190.5430  130.0740   34.9650 N   0  0  0  0  0  0  0  0  0  0  0  0
  191.7560  130.6320   34.9810 C   0  0  0  0  0  0  0  0  0  0  0  0
  191.8280  132.0780   35.4370 C   0  0  0  0  0  0  0  0  0  0  0  0
  192.7910  130.0270   34.6510 O   0  0  0  0  0  0  0  0  0  0  0  0
  188.9310  129.5230   29.9290 C   0  0  0  0  0  0  0  0  0  0  0  0
  189.0930  130.9920   30.3060 C   0  0  0  0  0  0  0  0  0  0  0  0
  190.2000  128.9890   29.2850 C   0  0  0  0  0  0  0  0  0  0  0  0
  185.8990  125.4570   29.1010 C   0  0  0  0  0  0  0  0  0  0  0  0
  185.3040  124.4480   28.7230 O   0  0  0  0  0  0  0  0  0  0  0  0
  186.0050  126.5670   28.3730 N   0  0  0  0  0  0  0  0  0  0  0  0
  185.4260  126.7270   27.0380 C   0  0  0  0  0  0  0  0  0  0  0  0
  183.8750  126.6480   27.0650 C   0  0  0  0  0  0  0  0  0  0  0  0
  183.1130  127.9490   27.3310 C   0  0  0  0  0  0  0  0  0  0  0  0
  181.3030  127.8440   27.2260 S   0  0  0  0  0  0  0  0  0  0  0  0
  181.0060  128.4700   25.5690 C   0  0  0  0  0  0  0  0  0  0  0  0
  185.9230  128.0460   26.4130 C   0  0  0  0  0  0  0  0  0  0  0  0
  185.6420  128.2670   25.2240 O   0  0  0  0  0  0  0  0  0  0  0  0
  186.6220  128.8280   27.1010 O   0  0  0  0  0  0  0  0  0  0  0  0
  183.9205  125.3862   33.9664 H   0  0  0  0  0  0  0  0  0  0  0  0
  182.5744  125.5895   32.7945 H   0  0  0  0  0  0  0  0  0  0  0  0
  183.5447  124.0777   32.7945 H   0  0  0  0  0  0  0  0  0  0  0  0
  183.9935  126.0044   31.0154 H   0  0  0  0  0  0  0  0  0  0  0  0
  184.9542  126.6960   32.4070 H   0  0  0  0  0  0  0  0  0  0  0  0
  185.3237  123.9269   31.2410 H   0  0  0  0  0  0  0  0  0  0  0  0
  185.9981  124.8022   33.7431 H   0  0  0  0  0  0  0  0  0  0  0  0
  186.9372  123.5753   32.8269 H   0  0  0  0  0  0  0  0  0  0  0  0
  187.4632  125.2928   32.8269 H   0  0  0  0  0  0  0  0  0  0  0  0
  187.5114  124.8906   30.3686 H   0  0  0  0  0  0  0  0  0  0  0  0
  186.2893  127.5475   31.0821 H   0  0  0  0  0  0  0  0  0  0  0  0
  187.6139  129.1136   31.5903 H   0  0  0  0  0  0  0  0  0  0  0  0
  190.5155  128.9945   32.0204 H   0  0  0  0  0  0  0  0  0  0  0  0
  191.2749  128.3571   34.0593 H   0  0  0  0  0  0  0  0  0  0  0  0
  189.4185  128.3026   36.4507 H   0  0  0  0  0  0  0  0  0  0  0  0
  189.6827  126.8412   35.3549 H   0  0  0  0  0  0  0  0  0  0  0  0
  192.2392  126.3658   34.5858 H   0  0  0  0  0  0  0  0  0  0  0  0
  193.2291  125.7354   35.9826 H   0  0  0  0  0  0  0  0  0  0  0  0
  191.5532  124.0247   36.4915 H   0  0  0  0  0  0  0  0  0  0  0  0
  189.9380  126.2760   33.8987 H   0  0  0  0  0  0  0  0  0  0  0  0
  191.1446  125.3697   32.9244 H   0  0  0  0  0  0  0  0  0  0  0  0
  189.4229  124.8576   32.9244 H   0  0  0  0  0  0  0  0  0  0  0  0
  190.2242  122.4283   35.5613 H   0  0  0  0  0  0  0  0  0  0  0  0
  188.7026  123.2869   35.1221 H   0  0  0  0  0  0  0  0  0  0  0  0
  189.7464  123.0969   32.6517 H   0  0  0  0  0  0  0  0  0  0  0  0
  190.5952  121.7015   33.3673 H   0  0  0  0  0  0  0  0  0  0  0  0
  187.8848  121.3149   34.3182 H   0  0  0  0  0  0  0  0  0  0  0  0
  189.6440  121.7682   31.1088 H   0  0  0  0  0  0  0  0  0  0  0  0
  188.7060  120.4417   30.3425 H   0  0  0  0  0  0  0  0  0  0  0  0
  188.0573  122.1168   30.3425 H   0  0  0  0  0  0  0  0  0  0  0  0
  186.7293  119.5072   31.4507 H   0  0  0  0  0  0  0  0  0  0  0  0
  186.4732  119.8802   33.2005 H   0  0  0  0  0  0  0  0  0  0  0  0
  185.4076  122.0211   32.5669 H   0  0  0  0  0  0  0  0  0  0  0  0
  185.6046  121.5955   30.8352 H   0  0  0  0  0  0  0  0  0  0  0  0
  184.1270  119.5540   32.6441 H   0  0  0  0  0  0  0  0  0  0  0  0
  183.1190  122.6614   30.5766 H   0  0  0  0  0  0  0  0  0  0  0  0
  184.0258  121.6034   29.4430 H   0  0  0  0  0  0  0  0  0  0  0  0
  182.2296  121.5887   29.4430 H   0  0  0  0  0  0  0  0  0  0  0  0
  181.6792  119.5305   32.3054 H   0  0  0  0  0  0  0  0  0  0  0  0
  181.0414  120.1775   30.7558 H   0  0  0  0  0  0  0  0  0  0  0  0
  182.0947  118.7225   30.7558 H   0  0  0  0  0  0  0  0  0  0  0  0
  189.7272  130.6336   35.2519 H   0  0  0  0  0  0  0  0  0  0  0  0
  191.8299  132.1161   36.5363 H   0  0  0  0  0  0  0  0  0  0  0  0
  192.7502  132.5382   35.0526 H   0  0  0  0  0  0  0  0  0  0  0  0
  190.9561  132.6276   35.0526 H   0  0  0  0  0  0  0  0  0  0  0  0
  188.1195  129.4370   29.1914 H   0  0  0  0  0  0  0  0  0  0  0  0
  189.1038  131.0903   31.4015 H   0  0  0  0  0  0  0  0  0  0  0  0
  190.0387  131.3741   29.8942 H   0  0  0  0  0  0  0  0  0  0  0  0
  188.2533  131.5710   29.8942 H   0  0  0  0  0  0  0  0  0  0  0  0
  190.9111  128.6897   30.0690 H   0  0  0  0  0  0  0  0  0  0  0  0
  189.9553  128.1176   28.6599 H   0  0  0  0  0  0  0  0  0  0  0  0
  190.6520  129.7732   28.6599 H   0  0  0  0  0  0  0  0  0  0  0  0
  186.5256  127.3606   28.7732 H   0  0  0  0  0  0  0  0  0  0  0  0
  185.7636  125.8909   26.4079 H   0  0  0  0  0  0  0  0  0  0  0  0
  183.5460  126.2657   26.0875 H   0  0  0  0  0  0  0  0  0  0  0  0
  183.6388  126.0005   27.9223 H   0  0  0  0  0  0  0  0  0  0  0  0
  183.3726  128.2905   28.3439 H   0  0  0  0  0  0  0  0  0  0  0  0
  183.4178  128.6411   26.5321 H   0  0  0  0  0  0  0  0  0  0  0  0
  180.5352  129.4623   25.6308 H   0  0  0  0  0  0  0  0  0  0  0  0
  181.9619  128.5506   25.0307 H   0  0  0  0  0  0  0  0  0  0  0  0
  180.3390  127.7806   25.0307 H   0  0  0  0  0  0  0  0  0  0  0  0
  186.5845  128.7860   28.0894 H   0  0  0  0  0  0  0  0  0  0  0  0
  1  2  1  0
  2  3  1  0
  3  4  1  0
  3  5  1  0
  5  6  1  0
  5 38  1  0
  6  7  1  0
  7  8  2  0
  7  9  1  0
  9 10  1  0
  9 35  1  0
 10 11  1  0
 11 12  2  0
 11 13  1  0
 13 14  1  0
 13 31  1  0
 14 15  1  0
 15 16  1  0
 16 17  1  0
 17 18  2  0
 18 19  1  0
 18 20  1  0
 20 21  1  0
 21 22  1  0
 22 23  2  0
 23 24  1  0
 23 25  1  0
 25 26  1  0
 26 27  1  0
 27 28  2  0
 28 29  1  0
 28 30  1  0
 31 32  1  0
 32 33  1  0
 32 34  2  0
 35 36  1  0
 35 37  1  0
 38 39  2  0
 38 40  1  0
 40 41  1  0
 41 42  1  0
 41 46  1  0
 42 43  1  0
 43 44  1  0
 44 45  1  0
 46 47  2  0
 46 48  1  0
  1 49  1  0
  1 50  1  0
  1 51  1  0
  2 52  1  0
  2 53  1  0
  3 54  1  0
  4 55  1  0
  4 56  1  0
  4 57  1  0
  5 58  1  0
  6 59  1  0
  9 60  1  0
 10 61  1  0
 13 62  1  0
 14 63  1  0
 14 64  1  0
 16 65  1  0
 16 66  1  0
 17 67  1  0
 19 68  1  0
 19 69  1  0
 19 70  1  0
 20 71  1  0
 20 72  1  0
 21 73  1  0
 21 74  1  0
 22 75  1  0
 24 76  1  0
 24 77  1  0
 24 78  1  0
 25 79  1  0
 25 80  1  0
 26 81  1  0
 26 82  1  0
 27 83  1  0
 29 84  1  0
 29 85  1  0
 29 86  1  0
 30 87  1  0
 30 88  1  0
 30 89  1  0
 31 90  1  0
 33 91  1  0
 33 92  1  0
 33 93  1  0
 35 94  1  0
 36 95  1  0
 36 96  1  0
 36 97  1  0
 37 98  1  0
 37 99  1  0
 37100  1  0
 40101  1  0
 41102  1  0
 42103  1  0
 42104  1  0
 43105  1  0
 43106  1  0
 45107  1  0
 45108  1  0
 45109  1  0
 48110  1  0
A    1
CD1
A    2
CG4
A    3
CB4
A    4
CG3
A    5
CA4
A    6
N3
A    7
C19
A    8
O20
A    9
CA3
A   10
N2
A   11
C17
A   12
O18
A   13
CA2
A   14
CB2
A   15
SG
A   16
C
A   17
C2
A   18
C1
A   19
C4
A   20
C3
A   21
C5
A   22
C7
A   23
C6
A   24
C8
A   25
C9
A   26
C10
A   27
C11
A   28
C12
A   29
C13
A   30
C14
A   31
N
A   32
C15
A   33
CA
A   34
O16
A   35
CB3
A   36
CG1
A   37
CG2
A   38
C22
A   39
O23
A   40
N4
A   41
CA5
A   42
CB5
A   43
CG
A   44
SD
A   45
CE
A   46
C24
A   47
OT1
A   48
OT2
M  END
