1O2H_CR3_A_246
     RDKit          3D

 46 49  0  0  0  0  0  0  0  0999 V2000
   44.1400   -3.1040   25.9440 C   0  0  0  0  0  0  0  0  0  0  0  0
   44.5190   -1.7550   25.9650 C   0  0  0  0  0  0  0  0  0  0  0  0
   44.4780   -1.0230   27.1310 C   0  0  0  0  0  0  0  0  0  0  0  0
   44.0620   -1.6440   28.2700 C   0  0  0  0  0  0  0  0  0  0  0  0
   43.6940   -2.9320   28.3020 C   0  0  0  0  0  0  0  0  0  0  0  0
   43.7190   -3.7100   27.1470 C   0  0  0  0  0  0  0  0  0  0  0  0
   44.1870   -3.7960   24.7220 C   0  0  0  0  0  0  0  0  0  0  0  0
   43.7630   -5.0340   24.6370 N   0  0  0  0  0  0  0  0  0  0  0  0
   44.6520   -3.1710   23.6660 N   0  0  0  0  0  0  0  0  0  0  0  0
   43.9310   -1.1950   29.4660 N   0  0  0  0  0  0  0  0  0  0  0  0
   43.3260   -3.2990   29.5100 C   0  0  0  0  0  0  0  0  0  0  0  0
   43.4970   -2.1720   30.2060 C   0  0  0  0  0  0  0  0  0  0  0  0
   43.2730   -2.0230   31.5870 C   0  0  0  0  0  0  0  0  0  0  0  0
   42.9380   -3.1330   32.3600 C   0  0  0  0  0  0  0  0  0  0  0  0
   42.7530   -3.0090   33.7340 C   0  0  0  0  0  0  0  0  0  0  0  0
   42.9010   -1.7850   34.3510 C   0  0  0  0  0  0  0  0  0  0  0  0
   43.2380   -0.6650   33.6030 C   0  0  0  0  0  0  0  0  0  0  0  0
   43.4200    0.5850   34.1790 O   0  0  0  0  0  0  0  0  0  0  0  0
   43.4190   -0.7770   32.2330 C   0  0  0  0  0  0  0  0  0  0  0  0
   43.7230    0.3890   31.5520 O   0  0  0  0  0  0  0  0  0  0  0  0
   43.2820    2.3340   35.7960 C   0  0  0  0  0  0  0  0  0  0  0  0
   43.6090    0.8510   35.5750 C   0  0  0  0  0  0  0  0  0  0  0  0
   45.1250    0.7100   35.8680 C   0  0  0  0  0  0  0  0  0  0  0  0
   45.5920    2.0560   36.4380 C   0  0  0  0  0  0  0  0  0  0  0  0
   44.3290    2.8400   36.7720 C   0  0  0  0  0  0  0  0  0  0  0  0
   44.8547   -1.2728   25.0351 H   0  0  0  0  0  0  0  0  0  0  0  0
   44.7737    0.0364   27.1423 H   0  0  0  0  0  0  0  0  0  0  0  0
   43.4188   -4.7679   27.1718 H   0  0  0  0  0  0  0  0  0  0  0  0
   43.5778   -5.5749   25.4937 H   0  0  0  0  0  0  0  0  0  0  0  0
   43.6152   -5.4655   23.7135 H   0  0  0  0  0  0  0  0  0  0  0  0
   44.6968   -3.6563   22.7586 H   0  0  0  0  0  0  0  0  0  0  0  0
   44.9722   -2.1952   23.7446 H   0  0  0  0  0  0  0  0  0  0  0  0
   44.1330   -0.2356   29.7816 H   0  0  0  0  0  0  0  0  0  0  0  0
   42.9697   -4.2800   29.8573 H   0  0  0  0  0  0  0  0  0  0  0  0
   42.8187   -4.1157   31.8802 H   0  0  0  0  0  0  0  0  0  0  0  0
   42.4870   -3.8934   34.3315 H   0  0  0  0  0  0  0  0  0  0  0  0
   42.7519   -1.6957   35.4372 H   0  0  0  0  0  0  0  0  0  0  0  0
   43.3426    2.8865   34.8468 H   0  0  0  0  0  0  0  0  0  0  0  0
   42.2620    2.4733   36.1837 H   0  0  0  0  0  0  0  0  0  0  0  0
   42.9954    0.1821   36.1963 H   0  0  0  0  0  0  0  0  0  0  0  0
   45.2963   -0.0919   36.6012 H   0  0  0  0  0  0  0  0  0  0  0  0
   45.6818    0.4529   34.9549 H   0  0  0  0  0  0  0  0  0  0  0  0
   46.1931    1.8974   37.3455 H   0  0  0  0  0  0  0  0  0  0  0  0
   46.2208    2.5990   35.7171 H   0  0  0  0  0  0  0  0  0  0  0  0
   44.4960    3.9186   36.6349 H   0  0  0  0  0  0  0  0  0  0  0  0
   44.0203    2.6993   37.8184 H   0  0  0  0  0  0  0  0  0  0  0  0
  1  2  2  0
  1  6  1  0
  1  7  1  0
  2  3  1  0
  3  4  2  0
  4  5  1  0
  4 10  1  0
  5  6  2  0
  5 11  1  0
  7  8  1  0
  7  9  2  3
 10 12  1  0
 11 12  2  0
 12 13  1  0
 13 14  2  0
 13 19  1  0
 14 15  1  0
 15 16  2  0
 16 17  1  0
 17 18  1  0
 17 19  2  0
 18 22  1  0
 19 20  1  0
 21 22  1  0
 21 25  1  0
 22 23  1  0
 23 24  1  0
 24 25  1  0
  2 26  1  0
  3 27  1  0
  6 28  1  0
  8 29  1  0
  8 30  1  0
  9 31  1  0
  9 32  1  0
 10 33  1  0
 11 34  1  0
 14 35  1  0
 15 36  1  0
 16 37  1  0
 21 38  1  0
 21 39  1  0
 22 40  1  0
 23 41  1  0
 23 42  1  0
 24 43  1  0
 24 44  1  0
 25 45  1  0
 25 46  1  0
M  CHG  2   9   1  20  -1
A    1
C1
A    2
C2
A    3
C3
A    4
C4
A    5
C5
A    6
C6
A    7
C7
A    8
N1
A    9
N2
A   10
N3
A   11
CN4
A   12
C8
A   13
C1'
A   14
C2'
A   15
C3'
A   16
C4'
A   17
C5'
A   18
O5'
A   19
C6'
A   20
O6'
A   21
C1B
A   22
C2B
A   23
C3B
A   24
C4B
A   25
C5B
M  END
