1O2I_655_A_246
     RDKit          3D

 45 48  0  0  0  0  0  0  0  0999 V2000
   44.2910   -2.8800   26.6770 C   0  0  0  0  0  0  0  0  0  0  0  0
   44.8730   -1.5600   26.6540 C   0  0  0  0  0  0  0  0  0  0  0  0
   44.8730   -0.7700   27.7870 C   0  0  0  0  0  0  0  0  0  0  0  0
   44.3550   -1.2920   28.9330 C   0  0  0  0  0  0  0  0  0  0  0  0
   43.8270   -2.5370   29.0070 C   0  0  0  0  0  0  0  0  0  0  0  0
   43.7740   -3.3660   27.8810 C   0  0  0  0  0  0  0  0  0  0  0  0
   44.3180   -3.6710   25.4940 C   0  0  0  0  0  0  0  0  0  0  0  0
   44.1780   -4.9710   25.5880 N   0  0  0  0  0  0  0  0  0  0  0  0
   44.4910   -3.0690   24.3210 N   0  0  0  0  0  0  0  0  0  0  0  0
   44.2750   -0.7850   30.1160 N   0  0  0  0  0  0  0  0  0  0  0  0
   43.3910   -2.8100   30.2220 N   0  0  0  0  0  0  0  0  0  0  0  0
   43.6860   -1.6870   30.8690 C   0  0  0  0  0  0  0  0  0  0  0  0
   43.4100   -1.5280   32.2170 C   0  0  0  0  0  0  0  0  0  0  0  0
   43.0360   -2.6290   32.9930 C   0  0  0  0  0  0  0  0  0  0  0  0
   42.7500   -2.5050   34.3370 C   0  0  0  0  0  0  0  0  0  0  0  0
   42.8480   -1.2520   34.9300 C   0  0  0  0  0  0  0  0  0  0  0  0
   43.2120   -0.1220   34.1560 C   0  0  0  0  0  0  0  0  0  0  0  0
   43.3400    1.1490   34.6740 O   0  0  0  0  0  0  0  0  0  0  0  0
   43.4950   -0.2770   32.8010 C   0  0  0  0  0  0  0  0  0  0  0  0
   43.8480    0.7960   32.0070 O   0  0  0  0  0  0  0  0  0  0  0  0
   42.3420    2.7680   35.8540 C   0  0  0  0  0  0  0  0  0  0  0  0
   43.0050    1.4420   36.0250 C   0  0  0  0  0  0  0  0  0  0  0  0
   44.2740    1.6870   36.7960 C   0  0  0  0  0  0  0  0  0  0  0  0
   44.5750    3.1660   36.5730 C   0  0  0  0  0  0  0  0  0  0  0  0
   43.1880    3.7500   36.6150 C   0  0  0  0  0  0  0  0  0  0  0  0
   45.3213   -1.1789   25.7246 H   0  0  0  0  0  0  0  0  0  0  0  0
   45.2799    0.2517   27.7642 H   0  0  0  0  0  0  0  0  0  0  0  0
   43.3370   -4.3736   27.9419 H   0  0  0  0  0  0  0  0  0  0  0  0
   44.1298   -5.4181   26.5146 H   0  0  0  0  0  0  0  0  0  0  0  0
   44.1162   -5.5453   24.7352 H   0  0  0  0  0  0  0  0  0  0  0  0
   44.5131   -3.6257   23.4547 H   0  0  0  0  0  0  0  0  0  0  0  0
   44.6029   -2.0460   24.2787 H   0  0  0  0  0  0  0  0  0  0  0  0
   44.6072    0.1438   30.4124 H   0  0  0  0  0  0  0  0  0  0  0  0
   42.9680   -3.6197   32.5199 H   0  0  0  0  0  0  0  0  0  0  0  0
   42.4497   -3.3824   34.9287 H   0  0  0  0  0  0  0  0  0  0  0  0
   42.6422   -1.1368   36.0044 H   0  0  0  0  0  0  0  0  0  0  0  0
   42.3016    3.0416   34.7893 H   0  0  0  0  0  0  0  0  0  0  0  0
   41.3063    2.7536   36.2243 H   0  0  0  0  0  0  0  0  0  0  0  0
   42.4197    0.6622   36.5343 H   0  0  0  0  0  0  0  0  0  0  0  0
   44.1261    1.4770   37.8656 H   0  0  0  0  0  0  0  0  0  0  0  0
   45.0975    1.0373   36.4648 H   0  0  0  0  0  0  0  0  0  0  0  0
   45.2098    3.5743   37.3732 H   0  0  0  0  0  0  0  0  0  0  0  0
   45.1304    3.3817   35.6483 H   0  0  0  0  0  0  0  0  0  0  0  0
   43.1673    4.7376   36.1311 H   0  0  0  0  0  0  0  0  0  0  0  0
   42.8293    3.9014   37.6438 H   0  0  0  0  0  0  0  0  0  0  0  0
  1  2  2  0
  1  6  1  0
  1  7  1  0
  2  3  1  0
  3  4  2  0
  4  5  1  0
  4 10  1  0
  5  6  2  0
  5 11  1  0
  7  8  1  0
  7  9  2  3
 10 12  1  0
 11 12  2  0
 12 13  1  0
 13 14  2  0
 13 19  1  0
 14 15  1  0
 15 16  2  0
 16 17  1  0
 17 18  1  0
 17 19  2  0
 18 22  1  0
 19 20  1  0
 21 22  1  0
 21 25  1  0
 22 23  1  0
 23 24  1  0
 24 25  1  0
  2 26  1  0
  3 27  1  0
  6 28  1  0
  8 29  1  0
  8 30  1  0
  9 31  1  0
  9 32  1  0
 10 33  1  0
 14 34  1  0
 15 35  1  0
 16 36  1  0
 21 37  1  0
 21 38  1  0
 22 39  1  0
 23 40  1  0
 23 41  1  0
 24 42  1  0
 24 43  1  0
 25 44  1  0
 25 45  1  0
M  CHG  2   9   1  20  -1
A    1
C1
A    2
C2
A    3
C3
A    4
C4
A    5
C5
A    6
C6
A    7
C7
A    8
N1
A    9
N2
A   10
N3
A   11
N4
A   12
C8
A   13
C1'
A   14
C2'
A   15
C3'
A   16
C4'
A   17
C5'
A   18
O5'
A   19
C6'
A   20
O6'
A   21
C1B
A   22
C2B
A   23
C3B
A   24
C4B
A   25
C5B
M  END
