1O2P_972_A_246
     RDKit          3D

 44 46  0  0  0  0  0  0  0  0999 V2000
   43.9720   -2.9830   25.7790 C   0  0  0  0  0  0  0  0  0  0  0  0
   43.8090   -1.5640   25.6740 C   0  0  0  0  0  0  0  0  0  0  0  0
   43.7880   -0.6990   24.1030 Cl  0  0  0  0  0  0  0  0  0  0  0  0
   43.6090   -0.8180   26.8510 C   0  0  0  0  0  0  0  0  0  0  0  0
   43.5700   -1.4800   28.0670 C   0  0  0  0  0  0  0  0  0  0  0  0
   43.7160   -2.8090   28.1770 C   0  0  0  0  0  0  0  0  0  0  0  0
   43.9210   -3.5970   27.0460 C   0  0  0  0  0  0  0  0  0  0  0  0
   44.1940   -3.7910   24.6490 C   0  0  0  0  0  0  0  0  0  0  0  0
   43.7870   -5.0460   24.6360 N   0  0  0  0  0  0  0  0  0  0  0  0
   44.8350   -3.2670   23.6250 N   0  0  0  0  0  0  0  0  0  0  0  0
   43.4090   -1.0610   29.2760 N   0  0  0  0  0  0  0  0  0  0  0  0
   43.6480   -3.2330   29.4210 N   0  0  0  0  0  0  0  0  0  0  0  0
   43.4560   -2.0950   30.0680 C   0  0  0  0  0  0  0  0  0  0  0  0
   43.2590   -1.9810   31.4600 C   0  0  0  0  0  0  0  0  0  0  0  0
   43.1470   -3.1270   32.2600 C   0  0  0  0  0  0  0  0  0  0  0  0
   42.9480   -3.0230   33.6360 C   0  0  0  0  0  0  0  0  0  0  0  0
   42.8570   -1.7860   34.2280 C   0  0  0  0  0  0  0  0  0  0  0  0
   42.9620   -0.6110   33.4590 C   0  0  0  0  0  0  0  0  0  0  0  0
   43.1610   -0.7020   32.0710 C   0  0  0  0  0  0  0  0  0  0  0  0
   43.2610    0.4630   31.3070 O   0  0  0  0  0  0  0  0  0  0  0  0
   42.8720    0.6490   34.0470 O   0  0  0  0  0  0  0  0  0  0  0  0
   42.8820    0.8410   35.4740 C   0  0  0  0  0  0  0  0  0  0  0  0
   43.1960    2.3330   35.8900 C   0  0  0  0  0  0  0  0  0  0  0  0
   44.2420    2.3670   37.0430 C   0  0  0  0  0  0  0  0  0  0  0  0
   43.7830    3.1280   34.7500 C   0  0  0  0  0  0  0  0  0  0  0  0
   43.4856    0.2741   26.8056 H   0  0  0  0  0  0  0  0  0  0  0  0
   44.0416   -4.6862   27.1414 H   0  0  0  0  0  0  0  0  0  0  0  0
   43.6254   -5.5442   25.5229 H   0  0  0  0  0  0  0  0  0  0  0  0
   43.6308   -5.5275   23.7390 H   0  0  0  0  0  0  0  0  0  0  0  0
   45.0124   -3.8340   22.7836 H   0  0  0  0  0  0  0  0  0  0  0  0
   45.1590   -2.2901   23.6654 H   0  0  0  0  0  0  0  0  0  0  0  0
   43.2682   -0.0823   29.5646 H   0  0  0  0  0  0  0  0  0  0  0  0
   43.2171   -4.1217   31.7957 H   0  0  0  0  0  0  0  0  0  0  0  0
   42.8637   -3.9325   34.2489 H   0  0  0  0  0  0  0  0  0  0  0  0
   42.7004   -1.7130   35.3144 H   0  0  0  0  0  0  0  0  0  0  0  0
   41.8943    0.5657   35.8724 H   0  0  0  0  0  0  0  0  0  0  0  0
   43.6804    0.2073   35.8874 H   0  0  0  0  0  0  0  0  0  0  0  0
   42.2366    2.7729   36.1998 H   0  0  0  0  0  0  0  0  0  0  0  0
   43.7208    2.3501   38.0115 H   0  0  0  0  0  0  0  0  0  0  0  0
   44.9012    1.4898   36.9660 H   0  0  0  0  0  0  0  0  0  0  0  0
   44.8429    3.2852   36.9660 H   0  0  0  0  0  0  0  0  0  0  0  0
   44.3911    3.9516   35.1523 H   0  0  0  0  0  0  0  0  0  0  0  0
   44.4155    2.4725   34.1333 H   0  0  0  0  0  0  0  0  0  0  0  0
   42.9704    3.5395   34.1333 H   0  0  0  0  0  0  0  0  0  0  0  0
  1  2  2  0
  1  7  1  0
  1  8  1  0
  2  3  1  0
  2  4  1  0
  4  5  2  0
  5  6  1  0
  5 11  1  0
  6  7  2  0
  6 12  1  0
  8  9  1  0
  8 10  2  3
 11 13  1  0
 12 13  2  0
 13 14  1  0
 14 15  2  0
 14 19  1  0
 15 16  1  0
 16 17  2  0
 17 18  1  0
 18 19  2  0
 18 21  1  0
 19 20  1  0
 21 22  1  0
 22 23  1  0
 23 24  1  0
 23 25  1  0
  4 26  1  0
  7 27  1  0
  9 28  1  0
  9 29  1  0
 10 30  1  0
 10 31  1  0
 11 32  1  0
 15 33  1  0
 16 34  1  0
 17 35  1  0
 22 36  1  0
 22 37  1  0
 23 38  1  0
 24 39  1  0
 24 40  1  0
 24 41  1  0
 25 42  1  0
 25 43  1  0
 25 44  1  0
M  CHG  2  10   1  20  -1
A    1
C1
A    2
C2
A    3
CL2
A    4
C3
A    5
C4
A    6
C5
A    7
C6
A    8
C7
A    9
N1
A   10
N2
A   11
N3
A   12
N4
A   13
C8
A   14
C1'
A   15
C2'
A   16
C3'
A   17
C4'
A   18
C5'
A   19
C6'
A   20
O6'
A   21
O5'
A   22
C10
A   23
C20
A   24
C30
A   25
C40
M  END
