1O35_802_A_246
     RDKit          3D

 31 33  0  0  0  0  0  0  0  0999 V2000
   44.3020   -2.8610   26.6630 C   0  0  0  0  0  0  0  0  0  0  0  0
   44.7860   -1.5240   26.6370 C   0  0  0  0  0  0  0  0  0  0  0  0
   44.7880   -0.7410   27.7960 C   0  0  0  0  0  0  0  0  0  0  0  0
   44.3120   -1.2930   28.9670 C   0  0  0  0  0  0  0  0  0  0  0  0
   43.7690   -2.5260   29.0090 C   0  0  0  0  0  0  0  0  0  0  0  0
   43.7580   -3.3510   27.8630 C   0  0  0  0  0  0  0  0  0  0  0  0
   44.3110   -3.6160   25.4790 C   0  0  0  0  0  0  0  0  0  0  0  0
   44.1310   -4.9040   25.5110 N   0  0  0  0  0  0  0  0  0  0  0  0
   44.5530   -3.0780   24.3050 N   0  0  0  0  0  0  0  0  0  0  0  0
   44.1810   -0.7830   30.1530 N   0  0  0  0  0  0  0  0  0  0  0  0
   43.3780   -2.8400   30.2310 N   0  0  0  0  0  0  0  0  0  0  0  0
   43.6250   -1.7090   30.8870 C   0  0  0  0  0  0  0  0  0  0  0  0
   43.3440   -1.5260   32.2390 C   0  0  0  0  0  0  0  0  0  0  0  0
   42.9840   -2.5940   33.0670 C   0  0  0  0  0  0  0  0  0  0  0  0
   42.6920   -2.3630   34.4070 C   0  0  0  0  0  0  0  0  0  0  0  0
   42.3250   -3.3910   35.2510 F   0  0  0  0  0  0  0  0  0  0  0  0
   42.7420   -1.0770   34.9140 C   0  0  0  0  0  0  0  0  0  0  0  0
   43.0700   -0.0010   34.0860 C   0  0  0  0  0  0  0  0  0  0  0  0
   43.3780   -0.2310   32.7640 C   0  0  0  0  0  0  0  0  0  0  0  0
   43.7070    0.8320   31.9570 O   0  0  0  0  0  0  0  0  0  0  0  0
   45.1632   -1.1007   25.6944 H   0  0  0  0  0  0  0  0  0  0  0  0
   45.1614    0.2935   27.7741 H   0  0  0  0  0  0  0  0  0  0  0  0
   43.3296   -4.3631   27.9087 H   0  0  0  0  0  0  0  0  0  0  0  0
   44.0628   -5.3922   26.4154 H   0  0  0  0  0  0  0  0  0  0  0  0
   44.0567   -5.4356   24.6319 H   0  0  0  0  0  0  0  0  0  0  0  0
   44.5507   -3.6655   23.4590 H   0  0  0  0  0  0  0  0  0  0  0  0
   44.7450   -2.0688   24.2307 H   0  0  0  0  0  0  0  0  0  0  0  0
   44.4594    0.1617   30.4546 H   0  0  0  0  0  0  0  0  0  0  0  0
   42.9319   -3.6144   32.6594 H   0  0  0  0  0  0  0  0  0  0  0  0
   42.5218   -0.9004   35.9772 H   0  0  0  0  0  0  0  0  0  0  0  0
   43.0821    1.0231   34.4874 H   0  0  0  0  0  0  0  0  0  0  0  0
  1  2  2  0
  1  6  1  0
  1  7  1  0
  2  3  1  0
  3  4  2  0
  4  5  1  0
  4 10  1  0
  5  6  2  0
  5 11  1  0
  7  8  1  0
  7  9  2  3
 10 12  1  0
 11 12  2  0
 12 13  1  0
 13 14  2  0
 13 19  1  0
 14 15  1  0
 15 16  1  0
 15 17  2  0
 17 18  1  0
 18 19  2  0
 19 20  1  0
  2 21  1  0
  3 22  1  0
  6 23  1  0
  8 24  1  0
  8 25  1  0
  9 26  1  0
  9 27  1  0
 10 28  1  0
 14 29  1  0
 17 30  1  0
 18 31  1  0
M  CHG  2   9   1  20  -1
A    1
C1
A    2
C2
A    3
C3
A    4
C4
A    5
C5
A    6
C6
A    7
C7
A    8
N1
A    9
N2
A   10
N3
A   11
N4
A   12
C8
A   13
C1'
A   14
C2'
A   15
C3'
A   16
F3'
A   17
C4'
A   18
C5'
A   19
C6'
A   20
O6'
M  END
