1O36_607_A_246
     RDKit          3D

 53 56  0  0  0  0  0  0  0  0999 V2000
   44.3040   -3.0640   26.2710 C   0  0  0  0  0  0  0  0  0  0  0  0
   44.6840   -1.6960   26.2610 C   0  0  0  0  0  0  0  0  0  0  0  0
   44.6520   -0.8960   27.4160 C   0  0  0  0  0  0  0  0  0  0  0  0
   44.2350   -1.5020   28.5660 C   0  0  0  0  0  0  0  0  0  0  0  0
   43.8740   -2.7760   28.6260 C   0  0  0  0  0  0  0  0  0  0  0  0
   43.8850   -3.6050   27.5140 C   0  0  0  0  0  0  0  0  0  0  0  0
   44.3500   -3.8360   25.0790 C   0  0  0  0  0  0  0  0  0  0  0  0
   44.1780   -5.1400   25.0960 N   0  0  0  0  0  0  0  0  0  0  0  0
   44.5680   -3.2230   23.9400 N   0  0  0  0  0  0  0  0  0  0  0  0
   44.1090   -1.0350   29.7590 N   0  0  0  0  0  0  0  0  0  0  0  0
   43.5120   -3.1480   29.8460 N   0  0  0  0  0  0  0  0  0  0  0  0
   43.6840   -2.0190   30.4880 C   0  0  0  0  0  0  0  0  0  0  0  0
   43.4220   -1.9020   31.8690 C   0  0  0  0  0  0  0  0  0  0  0  0
   43.1040   -3.0060   32.6710 C   0  0  0  0  0  0  0  0  0  0  0  0
   42.8430   -2.8800   34.0280 C   0  0  0  0  0  0  0  0  0  0  0  0
   42.4670   -4.1250   34.8700 C   0  0  0  0  0  0  0  0  0  0  0  0
   40.9580   -4.2980   34.6420 C   0  0  0  0  0  0  0  0  0  0  0  0
   40.5990   -5.1040   33.8060 O   0  0  0  0  0  0  0  0  0  0  0  0
   40.2030   -3.6120   35.3000 O   0  0  0  0  0  0  0  0  0  0  0  0
   42.7830   -3.9810   36.4330 C   0  0  0  0  0  0  0  0  0  0  0  0
   43.4210   -5.2510   37.1090 C   0  0  0  0  0  0  0  0  0  0  0  0
   43.2000   -6.3530   36.6280 O   0  0  0  0  0  0  0  0  0  0  0  0
   44.1200   -5.0800   38.1090 O   0  0  0  0  0  0  0  0  0  0  0  0
   42.9110   -1.6360   34.5890 C   0  0  0  0  0  0  0  0  0  0  0  0
   43.2220   -0.4960   33.8670 C   0  0  0  0  0  0  0  0  0  0  0  0
   43.4750   -0.6550   32.5080 C   0  0  0  0  0  0  0  0  0  0  0  0
   43.7800    0.4470   31.7460 O   0  0  0  0  0  0  0  0  0  0  0  0
   43.2790    0.7330   34.5440 C   0  0  0  0  0  0  0  0  0  0  0  0
   44.4740    1.4400   34.7030 C   0  0  0  0  0  0  0  0  0  0  0  0
   44.5570    2.6350   35.4040 C   0  0  0  0  0  0  0  0  0  0  0  0
   43.4290    3.1780   35.9740 C   0  0  0  0  0  0  0  0  0  0  0  0
   42.2160    2.5230   35.8410 C   0  0  0  0  0  0  0  0  0  0  0  0
   42.1430    1.3170   35.1350 C   0  0  0  0  0  0  0  0  0  0  0  0
   45.6280    1.0830   34.2030 N   0  0  0  0  0  0  0  0  0  0  0  0
   45.0158   -1.2455   25.3139 H   0  0  0  0  0  0  0  0  0  0  0  0
   44.9476    0.1633   27.3945 H   0  0  0  0  0  0  0  0  0  0  0  0
   43.5760   -4.6577   27.5939 H   0  0  0  0  0  0  0  0  0  0  0  0
   44.1122   -5.6391   25.9946 H   0  0  0  0  0  0  0  0  0  0  0  0
   44.1092   -5.6620   24.2107 H   0  0  0  0  0  0  0  0  0  0  0  0
   44.6054   -3.7628   23.0636 H   0  0  0  0  0  0  0  0  0  0  0  0
   44.7018   -2.2019   23.9221 H   0  0  0  0  0  0  0  0  0  0  0  0
   44.3061   -0.0735   30.0713 H   0  0  0  0  0  0  0  0  0  0  0  0
   43.0599   -4.0040   32.2104 H   0  0  0  0  0  0  0  0  0  0  0  0
   43.0683   -4.9906   34.5549 H   0  0  0  0  0  0  0  0  0  0  0  0
   43.4803   -3.1402   36.5629 H   0  0  0  0  0  0  0  0  0  0  0  0
   41.8122   -3.8282   36.9272 H   0  0  0  0  0  0  0  0  0  0  0  0
   42.7091   -1.5352   35.6656 H   0  0  0  0  0  0  0  0  0  0  0  0
   45.5250    3.1479   35.5038 H   0  0  0  0  0  0  0  0  0  0  0  0
   43.4899    4.1247   36.5309 H   0  0  0  0  0  0  0  0  0  0  0  0
   41.3084    2.9515   36.2911 H   0  0  0  0  0  0  0  0  0  0  0  0
   41.1708    0.8114   35.0393 H   0  0  0  0  0  0  0  0  0  0  0  0
   46.4085    0.8415   34.8302 H   0  0  0  0  0  0  0  0  0  0  0  0
   45.7567    1.0432   33.1818 H   0  0  0  0  0  0  0  0  0  0  0  0
  1  2  2  0
  1  6  1  0
  1  7  1  0
  2  3  1  0
  3  4  2  0
  4  5  1  0
  4 10  1  0
  5  6  2  0
  5 11  1  0
  7  8  1  0
  7  9  2  3
 10 12  1  0
 11 12  2  0
 12 13  1  0
 13 14  2  0
 13 26  1  0
 14 15  1  0
 15 16  1  0
 15 24  2  0
 16 17  1  0
 16 20  1  0
 17 18  2  0
 17 19  1  0
 20 21  1  0
 21 22  2  0
 21 23  1  0
 24 25  1  0
 25 26  2  0
 25 28  1  0
 26 27  1  0
 28 29  2  0
 28 33  1  0
 29 30  1  0
 29 34  1  0
 30 31  2  0
 31 32  1  0
 32 33  2  0
  2 35  1  0
  3 36  1  0
  6 37  1  0
  8 38  1  0
  8 39  1  0
  9 40  1  0
  9 41  1  0
 10 42  1  0
 14 43  1  0
 16 44  1  0
 20 45  1  0
 20 46  1  0
 24 47  1  0
 30 48  1  0
 31 49  1  0
 32 50  1  0
 33 51  1  0
 34 52  1  0
 34 53  1  0
M  CHG  4   9   1  19  -1  23  -1  27  -1
A    1
C1
A    2
C2
A    3
C3
A    4
C4
A    5
C5
A    6
C6
A    7
C7
A    8
N1
A    9
N2
A   10
N3
A   11
N4
A   12
C8
A   13
C1'
A   14
C2'
A   15
C3'
A   16
CVX
A   17
CWX
A   18
OXX
A   19
OYX
A   20
C6X
A   21
C7X
A   22
O8X
A   23
O9X
A   24
C4'
A   25
C5'
A   26
C6'
A   27
O6'
A   28
C1B
A   29
C2B
A   30
C3B
A   31
C4B
A   32
C5B
A   33
C6B
A   34
N2B
M  END
