1O37_653_A_246
     RDKit          3D

 50 53  0  0  0  0  0  0  0  0999 V2000
   44.4980   -2.9990   26.1780 C   0  0  0  0  0  0  0  0  0  0  0  0
   44.8270   -1.6290   26.2690 C   0  0  0  0  0  0  0  0  0  0  0  0
   44.7470   -0.8890   27.4430 C   0  0  0  0  0  0  0  0  0  0  0  0
   44.3220   -1.5550   28.5580 C   0  0  0  0  0  0  0  0  0  0  0  0
   44.0010   -2.8480   28.5460 C   0  0  0  0  0  0  0  0  0  0  0  0
   44.0660   -3.6350   27.3920 C   0  0  0  0  0  0  0  0  0  0  0  0
   44.5970   -3.6560   24.9010 C   0  0  0  0  0  0  0  0  0  0  0  0
   44.3260   -4.9420   24.7860 N   0  0  0  0  0  0  0  0  0  0  0  0
   44.9420   -2.9510   23.8290 N   0  0  0  0  0  0  0  0  0  0  0  0
   44.1480   -1.1200   29.7620 N   0  0  0  0  0  0  0  0  0  0  0  0
   43.6220   -3.2620   29.7350 N   0  0  0  0  0  0  0  0  0  0  0  0
   43.7430   -2.1340   30.4310 C   0  0  0  0  0  0  0  0  0  0  0  0
   43.4620   -2.0560   31.8270 C   0  0  0  0  0  0  0  0  0  0  0  0
   43.0700   -3.2040   32.5180 C   0  0  0  0  0  0  0  0  0  0  0  0
   42.7820   -3.1860   33.8820 C   0  0  0  0  0  0  0  0  0  0  0  0
   42.3010   -4.1650   34.7970 C   0  0  0  0  0  0  0  0  0  0  0  0
   40.8180   -4.4770   34.5760 C   0  0  0  0  0  0  0  0  0  0  0  0
   40.5260   -5.8350   35.1270 N   0  0  0  0  0  0  0  0  0  0  0  0
   42.8870   -2.0100   34.6010 C   0  0  0  0  0  0  0  0  0  0  0  0
   43.2720   -0.8370   33.9940 C   0  0  0  0  0  0  0  0  0  0  0  0
   43.5500   -0.8710   32.6030 C   0  0  0  0  0  0  0  0  0  0  0  0
   43.8870    0.3130   32.0000 O   0  0  0  0  0  0  0  0  0  0  0  0
   43.4070    0.3040   34.7740 C   0  0  0  0  0  0  0  0  0  0  0  0
   44.6160    1.0330   34.8030 C   0  0  0  0  0  0  0  0  0  0  0  0
   44.7790    2.1860   35.5950 C   0  0  0  0  0  0  0  0  0  0  0  0
   43.7310    2.6460   36.3850 C   0  0  0  0  0  0  0  0  0  0  0  0
   42.5200    1.9470   36.3770 C   0  0  0  0  0  0  0  0  0  0  0  0
   42.3600    0.7880   35.5810 C   0  0  0  0  0  0  0  0  0  0  0  0
   45.1668   -1.1168   25.3567 H   0  0  0  0  0  0  0  0  0  0  0  0
   45.0122    0.1781   27.4730 H   0  0  0  0  0  0  0  0  0  0  0  0
   43.7965   -4.7013   27.4127 H   0  0  0  0  0  0  0  0  0  0  0  0
   44.2042   -5.5201   25.6297 H   0  0  0  0  0  0  0  0  0  0  0  0
   44.2362   -5.3679   23.8525 H   0  0  0  0  0  0  0  0  0  0  0  0
   45.0155   -3.4123   22.9110 H   0  0  0  0  0  0  0  0  0  0  0  0
   45.1360   -1.9432   23.9159 H   0  0  0  0  0  0  0  0  0  0  0  0
   44.3020   -0.1627   30.1094 H   0  0  0  0  0  0  0  0  0  0  0  0
   42.9857   -4.1532   31.9686 H   0  0  0  0  0  0  0  0  0  0  0  0
   42.8819   -5.0898   34.6656 H   0  0  0  0  0  0  0  0  0  0  0  0
   42.4160   -3.7643   35.8150 H   0  0  0  0  0  0  0  0  0  0  0  0
   40.2011   -3.7274   35.0932 H   0  0  0  0  0  0  0  0  0  0  0  0
   40.5861   -4.4512   33.5010 H   0  0  0  0  0  0  0  0  0  0  0  0
   40.5342   -5.7969   36.1563 H   0  0  0  0  0  0  0  0  0  0  0  0
   39.5991   -6.1453   34.8023 H   0  0  0  0  0  0  0  0  0  0  0  0
   41.2435   -6.4988   34.8023 H   0  0  0  0  0  0  0  0  0  0  0  0
   42.6588   -2.0122   35.6771 H   0  0  0  0  0  0  0  0  0  0  0  0
   45.4591    0.6886   34.1860 H   0  0  0  0  0  0  0  0  0  0  0  0
   45.7382    2.7244   35.5887 H   0  0  0  0  0  0  0  0  0  0  0  0
   43.8528    3.5455   37.0063 H   0  0  0  0  0  0  0  0  0  0  0  0
   41.6828    2.3018   36.9960 H   0  0  0  0  0  0  0  0  0  0  0  0
   41.3981    0.2545   35.5931 H   0  0  0  0  0  0  0  0  0  0  0  0
  1  2  2  0
  1  6  1  0
  1  7  1  0
  2  3  1  0
  3  4  2  0
  4  5  1  0
  4 10  1  0
  5  6  2  0
  5 11  1  0
  7  8  1  0
  7  9  2  3
 10 12  1  0
 11 12  2  0
 12 13  1  0
 13 14  2  0
 13 21  1  0
 14 15  1  0
 15 16  1  0
 15 19  2  0
 16 17  1  0
 17 18  1  0
 19 20  1  0
 20 21  2  0
 20 23  1  0
 21 22  1  0
 23 24  2  0
 23 28  1  0
 24 25  1  0
 25 26  2  0
 26 27  1  0
 27 28  2  0
  2 29  1  0
  3 30  1  0
  6 31  1  0
  8 32  1  0
  8 33  1  0
  9 34  1  0
  9 35  1  0
 10 36  1  0
 14 37  1  0
 16 38  1  0
 16 39  1  0
 17 40  1  0
 17 41  1  0
 18 42  1  0
 18 43  1  0
 18 44  1  0
 19 45  1  0
 24 46  1  0
 25 47  1  0
 26 48  1  0
 27 49  1  0
 28 50  1  0
M  CHG  3   9   1  18   1  22  -1
A    1
C1
A    2
C2
A    3
C3
A    4
C4
A    5
C5
A    6
C6
A    7
C7
A    8
N1
A    9
N2
A   10
N3
A   11
N4
A   12
C8
A   13
C1'
A   14
C2'
A   15
C3'
A   16
CV'
A   17
CW'
A   18
NX'
A   19
C4'
A   20
C5'
A   21
C6'
A   22
O6'
A   23
C1B
A   24
C2B
A   25
C3B
A   26
C4B
A   27
C5B
A   28
C6B
M  END
