1O3H_907_A_246
     RDKit          3D

 35 37  0  0  0  0  0  0  0  0999 V2000
   43.9920   -3.0850   26.0230 C   0  0  0  0  0  0  0  0  0  0  0  0
   44.3040   -1.7060   26.1130 C   0  0  0  0  0  0  0  0  0  0  0  0
   44.1810   -1.0010   27.3120 C   0  0  0  0  0  0  0  0  0  0  0  0
   43.7530   -1.6780   28.4200 C   0  0  0  0  0  0  0  0  0  0  0  0
   43.4410   -2.9980   28.3750 C   0  0  0  0  0  0  0  0  0  0  0  0
   43.5400   -3.7500   27.1920 C   0  0  0  0  0  0  0  0  0  0  0  0
   44.1550   -3.7530   24.7840 C   0  0  0  0  0  0  0  0  0  0  0  0
   43.8530   -5.0280   24.6700 N   0  0  0  0  0  0  0  0  0  0  0  0
   44.6180   -3.0670   23.7560 N   0  0  0  0  0  0  0  0  0  0  0  0
   43.5800   -1.2370   29.6300 N   0  0  0  0  0  0  0  0  0  0  0  0
   43.0550   -3.3590   29.6590 C   0  0  0  0  0  0  0  0  0  0  0  0
   43.1700   -2.1950   30.4230 C   0  0  0  0  0  0  0  0  0  0  0  0
   42.9440   -2.0180   31.8010 C   0  0  0  0  0  0  0  0  0  0  0  0
   42.5940   -3.1000   32.6100 C   0  0  0  0  0  0  0  0  0  0  0  0
   42.3750   -2.9290   33.9790 C   0  0  0  0  0  0  0  0  0  0  0  0
   41.9910   -4.1270   34.8490 C   0  0  0  0  0  0  0  0  0  0  0  0
   42.5070   -1.6770   34.5530 C   0  0  0  0  0  0  0  0  0  0  0  0
   42.8540   -0.6020   33.7630 C   0  0  0  0  0  0  0  0  0  0  0  0
   43.0760   -0.7450   32.3950 C   0  0  0  0  0  0  0  0  0  0  0  0
   43.3980    0.3720   31.6390 O   0  0  0  0  0  0  0  0  0  0  0  0
   43.0890    1.1080   34.6370 Br  0  0  0  0  0  0  0  0  0  0  0  0
   44.6525   -1.1764   25.2141 H   0  0  0  0  0  0  0  0  0  0  0  0
   44.4221    0.0710   27.3637 H   0  0  0  0  0  0  0  0  0  0  0  0
   43.2761   -4.8177   27.1729 H   0  0  0  0  0  0  0  0  0  0  0  0
   43.7169   -5.6025   25.5140 H   0  0  0  0  0  0  0  0  0  0  0  0
   43.7526   -5.4520   23.7367 H   0  0  0  0  0  0  0  0  0  0  0  0
   44.7458   -3.5288   22.8442 H   0  0  0  0  0  0  0  0  0  0  0  0
   44.8515   -2.0698   23.8655 H   0  0  0  0  0  0  0  0  0  0  0  0
   43.7435   -0.2640   29.9258 H   0  0  0  0  0  0  0  0  0  0  0  0
   42.7278   -4.3516   30.0021 H   0  0  0  0  0  0  0  0  0  0  0  0
   42.4893   -4.1001   32.1640 H   0  0  0  0  0  0  0  0  0  0  0  0
   42.0790   -3.8524   35.9105 H   0  0  0  0  0  0  0  0  0  0  0  0
   40.9536   -4.4209   34.6311 H   0  0  0  0  0  0  0  0  0  0  0  0
   42.6642   -4.9692   34.6311 H   0  0  0  0  0  0  0  0  0  0  0  0
   42.3364   -1.5406   35.6311 H   0  0  0  0  0  0  0  0  0  0  0  0
  1  2  2  0
  1  6  1  0
  1  7  1  0
  2  3  1  0
  3  4  2  0
  4  5  1  0
  4 10  1  0
  5  6  2  0
  5 11  1  0
  7  8  1  0
  7  9  2  3
 10 12  1  0
 11 12  2  0
 12 13  1  0
 13 14  2  0
 13 19  1  0
 14 15  1  0
 15 16  1  0
 15 17  2  0
 17 18  1  0
 18 19  2  0
 18 21  1  0
 19 20  1  0
  2 22  1  0
  3 23  1  0
  6 24  1  0
  8 25  1  0
  8 26  1  0
  9 27  1  0
  9 28  1  0
 10 29  1  0
 11 30  1  0
 14 31  1  0
 16 32  1  0
 16 33  1  0
 16 34  1  0
 17 35  1  0
M  CHG  2   9   1  20  -1
A    1
C1
A    2
C2
A    3
C3
A    4
C4
A    5
C5
A    6
C6
A    7
C7
A    8
N1
A    9
N2
A   10
N3
A   11
CN4
A   12
C8
A   13
C1'
A   14
C2'
A   15
C3'
A   16
CV'
A   17
C4'
A   18
C5'
A   19
C6'
A   20
O6'
A   21
BR5'
M  END
