1O3M_785_A_246
     RDKit          3D

 35 37  0  0  0  0  0  0  0  0999 V2000
   44.1190   -3.1540   26.2230 C   0  0  0  0  0  0  0  0  0  0  0  0
   44.5980   -1.8190   26.2730 C   0  0  0  0  0  0  0  0  0  0  0  0
   44.5240   -1.0750   27.4210 C   0  0  0  0  0  0  0  0  0  0  0  0
   43.9780   -1.6690   28.5080 C   0  0  0  0  0  0  0  0  0  0  0  0
   43.5050   -2.9330   28.5210 C   0  0  0  0  0  0  0  0  0  0  0  0
   43.5560   -3.7300   27.3720 C   0  0  0  0  0  0  0  0  0  0  0  0
   44.2330   -3.8660   25.0390 C   0  0  0  0  0  0  0  0  0  0  0  0
   43.9570   -5.1530   25.0260 N   0  0  0  0  0  0  0  0  0  0  0  0
   44.6280   -3.2110   23.9660 N   0  0  0  0  0  0  0  0  0  0  0  0
   43.8060   -1.2190   29.6910 N   0  0  0  0  0  0  0  0  0  0  0  0
   43.0350   -3.2800   29.7040 N   0  0  0  0  0  0  0  0  0  0  0  0
   43.2540   -2.1590   30.3870 C   0  0  0  0  0  0  0  0  0  0  0  0
   42.9620   -1.9640   31.7370 C   0  0  0  0  0  0  0  0  0  0  0  0
   42.4640   -3.0490   32.4770 C   0  0  0  0  0  0  0  0  0  0  0  0
   42.1500   -2.8950   33.8250 C   0  0  0  0  0  0  0  0  0  0  0  0
   41.6640   -3.8370   34.4390 O   0  0  0  0  0  0  0  0  0  0  0  0
   42.4580   -4.6920   35.2470 C   0  0  0  0  0  0  0  0  0  0  0  0
   41.5560   -5.6170   35.8250 F   0  0  0  0  0  0  0  0  0  0  0  0
   43.3980   -5.3420   34.4020 F   0  0  0  0  0  0  0  0  0  0  0  0
   43.0420   -3.9520   36.2930 F   0  0  0  0  0  0  0  0  0  0  0  0
   42.3470   -1.6520   34.4370 C   0  0  0  0  0  0  0  0  0  0  0  0
   42.8430   -0.5570   33.7140 C   0  0  0  0  0  0  0  0  0  0  0  0
   43.1550   -0.6880   32.3590 C   0  0  0  0  0  0  0  0  0  0  0  0
   43.6150    0.4480   31.6780 O   0  0  0  0  0  0  0  0  0  0  0  0
   45.0385   -1.3716   25.3698 H   0  0  0  0  0  0  0  0  0  0  0  0
   44.8925   -0.0392   27.4579 H   0  0  0  0  0  0  0  0  0  0  0  0
   43.1723   -4.7609   27.3696 H   0  0  0  0  0  0  0  0  0  0  0  0
   43.8472   -5.6651   25.9129 H   0  0  0  0  0  0  0  0  0  0  0  0
   43.8509   -5.6479   24.1290 H   0  0  0  0  0  0  0  0  0  0  0  0
   44.7249   -3.7052   23.0675 H   0  0  0  0  0  0  0  0  0  0  0  0
   44.8399   -2.2048   24.0258 H   0  0  0  0  0  0  0  0  0  0  0  0
   44.0603   -0.2798   30.0287 H   0  0  0  0  0  0  0  0  0  0  0  0
   42.3214   -4.0248   31.9896 H   0  0  0  0  0  0  0  0  0  0  0  0
   42.1086   -1.5315   35.5041 H   0  0  0  0  0  0  0  0  0  0  0  0
   42.9870    0.4105   34.2172 H   0  0  0  0  0  0  0  0  0  0  0  0
  1  2  2  0
  1  6  1  0
  1  7  1  0
  2  3  1  0
  3  4  2  0
  4  5  1  0
  4 10  1  0
  5  6  2  0
  5 11  1  0
  7  8  1  0
  7  9  2  3
 10 12  1  0
 11 12  2  0
 12 13  1  0
 13 14  2  0
 13 23  1  0
 14 15  1  0
 15 16  1  0
 15 21  2  0
 16 17  1  0
 17 18  1  0
 17 19  1  0
 17 20  1  0
 21 22  1  0
 22 23  2  0
 23 24  1  0
  2 25  1  0
  3 26  1  0
  6 27  1  0
  8 28  1  0
  8 29  1  0
  9 30  1  0
  9 31  1  0
 10 32  1  0
 14 33  1  0
 21 34  1  0
 22 35  1  0
M  CHG  2   9   1  24  -1
A    1
C1
A    2
C2
A    3
C3
A    4
C4
A    5
C5
A    6
C6
A    7
C7
A    8
N1
A    9
N2
A   10
N3
A   11
N4
A   12
C8
A   13
C1'
A   14
C2'
A   15
C3'
A   16
O3'
A   17
C3X
A   18
FV'
A   19
FW'
A   20
FX'
A   21
C4'
A   22
C5'
A   23
C6'
A   24
O6'
M  END
