1O42_843_A_300
     RDKit          3D

 75 78  0  0  0  0  0  0  0  0999 V2000
   19.3210   26.3050   19.2960 C   0  0  0  0  0  0  0  0  0  0  0  0
   18.5070   27.0090   18.3770 C   0  0  0  0  0  0  0  0  0  0  0  0
   17.1720   26.5550   18.1450 C   0  0  0  0  0  0  0  0  0  0  0  0
   16.6390   25.5050   18.8960 C   0  0  0  0  0  0  0  0  0  0  0  0
   17.4510   24.8170   19.8120 C   0  0  0  0  0  0  0  0  0  0  0  0
   18.7840   25.2010   20.0000 C   0  0  0  0  0  0  0  0  0  0  0  0
   15.9750   28.5680   17.5660 P   0  0  0  0  0  0  0  0  0  0  0  0
   14.7640   28.7130   16.6630 O   0  0  0  0  0  0  0  0  0  0  0  0
   16.9940   29.7000   17.3240 O   0  0  0  0  0  0  0  0  0  0  0  0
   15.4970   28.6280   18.9770 O   0  0  0  0  0  0  0  0  0  0  0  0
   19.6780   24.4750   20.9690 C   0  0  0  0  0  0  0  0  0  0  0  0
   19.5220   25.0730   22.3610 C   0  0  0  0  0  0  0  0  0  0  0  0
   20.3970   24.3230   23.3480 C   0  0  0  0  0  0  0  0  0  0  0  0
   19.7370   23.3120   23.9060 N   0  0  0  0  0  0  0  0  0  0  0  0
   19.9760   26.4480   22.3830 N   0  0  0  0  0  0  0  0  0  0  0  0
   19.3490   27.3880   23.1080 C   0  0  0  0  0  0  0  0  0  0  0  0
   19.8030   28.8290   22.7290 C   0  0  0  0  0  0  0  0  0  0  0  0
   18.4970   27.1280   23.9470 O   0  0  0  0  0  0  0  0  0  0  0  0
   21.5620   24.6870   23.5650 O   0  0  0  0  0  0  0  0  0  0  0  0
   20.3800   22.3640   24.8000 C   0  0  0  0  0  0  0  0  0  0  0  0
   19.2710   21.4210   25.3450 C   0  0  0  0  0  0  0  0  0  0  0  0
   19.6400   20.6300   26.6180 C   0  0  0  0  0  0  0  0  0  0  0  0
   20.8490   19.7020   26.4480 C   0  0  0  0  0  0  0  0  0  0  0  0
   22.1140   20.4740   26.1560 C   0  0  0  0  0  0  0  0  0  0  0  0
   22.2600   20.6810   24.6850 N   0  0  0  0  0  0  0  0  0  0  0  0
   21.3950   21.5740   23.9400 C   0  0  0  0  0  0  0  0  0  0  0  0
   23.2240   19.8030   23.9370 C   0  0  0  0  0  0  0  0  0  0  0  0
   22.5680   18.4910   23.6560 C   0  0  0  0  0  0  0  0  0  0  0  0
   21.3640   21.6850   22.6810 O   0  0  0  0  0  0  0  0  0  0  0  0
   16.4470   27.2240   17.1230 O   0  0  0  0  0  0  0  0  0  0  0  0
   21.3280   18.4410   22.9420 C   0  0  0  0  0  0  0  0  0  0  0  0
   20.7210   17.1680   22.6640 C   0  0  0  0  0  0  0  0  0  0  0  0
   21.3630   15.9890   23.0990 C   0  0  0  0  0  0  0  0  0  0  0  0
   22.5330   16.0660   23.8850 C   0  0  0  0  0  0  0  0  0  0  0  0
   23.1300   17.3100   24.1510 C   0  0  0  0  0  0  0  0  0  0  0  0
   20.7590   14.6960   22.7790 C   0  0  0  0  0  0  0  0  0  0  0  0
   21.5370   13.5390   22.6490 C   0  0  0  0  0  0  0  0  0  0  0  0
   20.8230   12.3350   22.3900 C   0  0  0  0  0  0  0  0  0  0  0  0
   19.4170   12.2680   22.2620 C   0  0  0  0  0  0  0  0  0  0  0  0
   18.6550   13.4170   22.4460 C   0  0  0  0  0  0  0  0  0  0  0  0
   19.3330   14.6270   22.6910 C   0  0  0  0  0  0  0  0  0  0  0  0
   20.3637   26.6137   19.4619 H   0  0  0  0  0  0  0  0  0  0  0  0
   18.8960   27.8923   17.8493 H   0  0  0  0  0  0  0  0  0  0  0  0
   15.5847   25.2174   18.7701 H   0  0  0  0  0  0  0  0  0  0  0  0
   17.0381   23.9731   20.3840 H   0  0  0  0  0  0  0  0  0  0  0  0
   13.9492   28.8106   17.2168 H   0  0  0  0  0  0  0  0  0  0  0  0
   16.2676   28.5313   19.5909 H   0  0  0  0  0  0  0  0  0  0  0  0
   19.4004   23.4109   20.9953 H   0  0  0  0  0  0  0  0  0  0  0  0
   20.7242   24.5768   20.6447 H   0  0  0  0  0  0  0  0  0  0  0  0
   18.4569   25.0059   22.6274 H   0  0  0  0  0  0  0  0  0  0  0  0
   18.7350   23.1970   23.6971 H   0  0  0  0  0  0  0  0  0  0  0  0
   20.8022   26.7119   21.8274 H   0  0  0  0  0  0  0  0  0  0  0  0
   19.9857   29.4089   23.6457 H   0  0  0  0  0  0  0  0  0  0  0  0
   20.7286   28.7780   22.1368 H   0  0  0  0  0  0  0  0  0  0  0  0
   19.0153   29.3178   22.1368 H   0  0  0  0  0  0  0  0  0  0  0  0
   20.8953   22.8431   25.6456 H   0  0  0  0  0  0  0  0  0  0  0  0
   18.3857   22.0336   25.5710 H   0  0  0  0  0  0  0  0  0  0  0  0
   19.1004   20.6692   24.5603 H   0  0  0  0  0  0  0  0  0  0  0  0
   19.8663   21.3495   27.4187 H   0  0  0  0  0  0  0  0  0  0  0  0
   18.7780   19.9890   26.8551 H   0  0  0  0  0  0  0  0  0  0  0  0
   20.9892   19.1269   27.3751 H   0  0  0  0  0  0  0  0  0  0  0  0
   20.6509   19.0363   25.5950 H   0  0  0  0  0  0  0  0  0  0  0  0
   22.0679   21.4516   26.6583 H   0  0  0  0  0  0  0  0  0  0  0  0
   22.9781   19.9033   26.5270 H   0  0  0  0  0  0  0  0  0  0  0  0
   23.5039   20.2861   22.9892 H   0  0  0  0  0  0  0  0  0  0  0  0
   24.1290   19.6444   24.5419 H   0  0  0  0  0  0  0  0  0  0  0  0
   20.8432   19.3703   22.6085 H   0  0  0  0  0  0  0  0  0  0  0  0
   19.7673   17.1135   22.1186 H   0  0  0  0  0  0  0  0  0  0  0  0
   22.9800   15.1469   24.2916 H   0  0  0  0  0  0  0  0  0  0  0  0
   24.0485   17.3553   24.7546 H   0  0  0  0  0  0  0  0  0  0  0  0
   22.6329   13.5592   22.7414 H   0  0  0  0  0  0  0  0  0  0  0  0
   21.3984   11.4036   22.2834 H   0  0  0  0  0  0  0  0  0  0  0  0
   18.9284   11.3131   22.0184 H   0  0  0  0  0  0  0  0  0  0  0  0
   17.5565   13.3818   22.4015 H   0  0  0  0  0  0  0  0  0  0  0  0
   18.7468   15.5490   22.8188 H   0  0  0  0  0  0  0  0  0  0  0  0
  1  2  2  0
  1  6  1  0
  2  3  1  0
  3  4  2  0
  3 30  1  0
  4  5  1  0
  5  6  2  0
  6 11  1  0
  7  8  1  0
  7  9  2  0
  7 10  1  0
  7 30  1  0
 11 12  1  0
 12 13  1  0
 12 15  1  0
 13 14  1  0
 13 19  2  0
 14 20  1  0
 15 16  1  0
 16 17  1  0
 16 18  2  0
 20 21  1  0
 20 26  1  0
 21 22  1  0
 22 23  1  0
 23 24  1  0
 24 25  1  0
 25 26  1  0
 25 27  1  0
 26 29  2  0
 27 28  1  0
 28 31  2  0
 28 35  1  0
 31 32  1  0
 32 33  2  0
 33 34  1  0
 33 36  1  0
 34 35  2  0
 36 37  2  0
 36 41  1  0
 37 38  1  0
 38 39  2  0
 39 40  1  0
 40 41  2  0
  1 42  1  0
  2 43  1  0
  4 44  1  0
  5 45  1  0
  8 46  1  0
 10 47  1  0
 11 48  1  0
 11 49  1  0
 12 50  1  0
 14 51  1  0
 15 52  1  0
 17 53  1  0
 17 54  1  0
 17 55  1  0
 20 56  1  0
 21 57  1  0
 21 58  1  0
 22 59  1  0
 22 60  1  0
 23 61  1  0
 23 62  1  0
 24 63  1  0
 24 64  1  0
 27 65  1  0
 27 66  1  0
 31 67  1  0
 32 68  1  0
 34 69  1  0
 35 70  1  0
 37 71  1  0
 38 72  1  0
 39 73  1  0
 40 74  1  0
 41 75  1  0
A    1
C1
A    2
C2
A    3
C3
A    4
C4
A    5
C5
A    6
C6
A    7
P7
A    8
O8
A    9
O9
A   10
O10
A   11
C11
A   12
C12
A   13
C13
A   14
N14
A   15
N15
A   16
C16
A   17
C17
A   18
O18
A   19
O19
A   20
C20
A   21
C21
A   22
C22
A   23
C23
A   24
C24
A   25
N25
A   26
C26
A   27
C27
A   28
C28
A   29
O29
A   30
O30
A   31
C54
A   32
C55
A   33
C56
A   34
C57
A   35
C58
A   36
C63
A   37
C64
A   38
C65
A   39
C66
A   40
C67
A   41
C68
M  END
