1O47_822_A_300
     RDKit          3D

 77 80  0  0  0  0  0  0  0  0999 V2000
   19.4240   24.9570   20.1250 C   0  0  0  0  0  0  0  0  0  0  0  0
   19.9800   25.8960   19.2510 C   0  0  0  0  0  0  0  0  0  0  0  0
   19.1920   26.3790   18.1810 C   0  0  0  0  0  0  0  0  0  0  0  0
   17.8020   26.0000   18.0910 C   0  0  0  0  0  0  0  0  0  0  0  0
   17.2850   25.0700   18.9970 C   0  0  0  0  0  0  0  0  0  0  0  0
   18.0830   24.5020   19.9870 C   0  0  0  0  0  0  0  0  0  0  0  0
   16.9190   26.6460   17.0140 C   0  0  0  0  0  0  0  0  0  0  0  0
   15.8890   25.8170   16.7100 F   0  0  0  0  0  0  0  0  0  0  0  0
   17.6140   26.8760   15.8720 F   0  0  0  0  0  0  0  0  0  0  0  0
   16.3220   28.3460   17.4480 P   0  0  0  0  0  0  0  0  0  0  0  0
   15.1940   28.7000   16.4530 O   0  0  0  0  0  0  0  0  0  0  0  0
   17.3820   29.3300   17.2510 O   0  0  0  0  0  0  0  0  0  0  0  0
   15.6890   28.4760   18.8650 O   0  0  0  0  0  0  0  0  0  0  0  0
   20.3070   24.3950   21.1770 C   0  0  0  0  0  0  0  0  0  0  0  0
   19.9480   25.0170   22.5210 C   0  0  0  0  0  0  0  0  0  0  0  0
   20.6960   24.2990   23.6180 C   0  0  0  0  0  0  0  0  0  0  0  0
   19.9660   23.2750   24.1800 N   0  0  0  0  0  0  0  0  0  0  0  0
   21.8530   24.6550   23.9280 O   0  0  0  0  0  0  0  0  0  0  0  0
   20.2830   26.4220   22.5370 N   0  0  0  0  0  0  0  0  0  0  0  0
   19.5610   27.3450   23.1640 C   0  0  0  0  0  0  0  0  0  0  0  0
   18.6200   27.0650   23.8980 O   0  0  0  0  0  0  0  0  0  0  0  0
   19.9670   28.8210   22.8380 C   0  0  0  0  0  0  0  0  0  0  0  0
   20.5770   22.3410   25.0850 C   0  0  0  0  0  0  0  0  0  0  0  0
   21.6280   21.5460   24.2610 C   0  0  0  0  0  0  0  0  0  0  0  0
   22.4330   20.6070   24.9690 N   0  0  0  0  0  0  0  0  0  0  0  0
   21.7590   21.6650   23.0380 O   0  0  0  0  0  0  0  0  0  0  0  0
   22.2570   20.2680   26.3960 C   0  0  0  0  0  0  0  0  0  0  0  0
   20.9350   19.5430   26.6110 C   0  0  0  0  0  0  0  0  0  0  0  0
   23.3850   19.7250   24.2360 C   0  0  0  0  0  0  0  0  0  0  0  0
   22.7690   18.3660   23.9430 C   0  0  0  0  0  0  0  0  0  0  0  0
   19.7630   20.5430   26.8230 C   0  0  0  0  0  0  0  0  0  0  0  0
   19.4480   21.4420   25.5810 C   0  0  0  0  0  0  0  0  0  0  0  0
   21.6950   18.2980   23.0160 C   0  0  0  0  0  0  0  0  0  0  0  0
   21.0810   17.0480   22.7270 C   0  0  0  0  0  0  0  0  0  0  0  0
   21.6030   15.9300   23.3900 C   0  0  0  0  0  0  0  0  0  0  0  0
   22.6530   16.0030   24.3330 C   0  0  0  0  0  0  0  0  0  0  0  0
   23.2220   17.2200   24.6140 C   0  0  0  0  0  0  0  0  0  0  0  0
   20.9300   14.6240   23.0890 C   0  0  0  0  0  0  0  0  0  0  0  0
   21.6630   13.4050   23.0050 C   0  0  0  0  0  0  0  0  0  0  0  0
   20.9670   12.1930   22.7170 C   0  0  0  0  0  0  0  0  0  0  0  0
   19.5830   12.1750   22.5330 C   0  0  0  0  0  0  0  0  0  0  0  0
   18.8250   13.3490   22.6960 C   0  0  0  0  0  0  0  0  0  0  0  0
   19.5010   14.5720   22.9550 C   0  0  0  0  0  0  0  0  0  0  0  0
   21.0110   26.2523   19.3931 H   0  0  0  0  0  0  0  0  0  0  0  0
   19.6355   27.0397   17.4216 H   0  0  0  0  0  0  0  0  0  0  0  0
   16.2261   24.7807   18.9267 H   0  0  0  0  0  0  0  0  0  0  0  0
   17.6850   23.7182   20.6482 H   0  0  0  0  0  0  0  0  0  0  0  0
   17.7140   29.6382   18.1313 H   0  0  0  0  0  0  0  0  0  0  0  0
   16.3868   28.3327   19.5525 H   0  0  0  0  0  0  0  0  0  0  0  0
   20.1697   23.3048   21.2282 H   0  0  0  0  0  0  0  0  0  0  0  0
   21.3565   24.6193   20.9357 H   0  0  0  0  0  0  0  0  0  0  0  0
   18.8646   24.9171   22.6832 H   0  0  0  0  0  0  0  0  0  0  0  0
   18.9672   23.1773   23.9481 H   0  0  0  0  0  0  0  0  0  0  0  0
   21.1291   26.7256   22.0342 H   0  0  0  0  0  0  0  0  0  0  0  0
   20.1194   29.3751   23.7760 H   0  0  0  0  0  0  0  0  0  0  0  0
   20.8995   28.8244   22.2545 H   0  0  0  0  0  0  0  0  0  0  0  0
   19.1675   29.3008   22.2545 H   0  0  0  0  0  0  0  0  0  0  0  0
   21.0808   22.8054   25.9455 H   0  0  0  0  0  0  0  0  0  0  0  0
   23.0835   19.6177   26.7185 H   0  0  0  0  0  0  0  0  0  0  0  0
   22.2543   21.1968   26.9854 H   0  0  0  0  0  0  0  0  0  0  0  0
   20.7201   18.9227   25.7283 H   0  0  0  0  0  0  0  0  0  0  0  0
   21.0256   18.9218   27.5143 H   0  0  0  0  0  0  0  0  0  0  0  0
   23.6592   20.2061   23.2855 H   0  0  0  0  0  0  0  0  0  0  0  0
   24.2730   19.5737   24.8674 H   0  0  0  0  0  0  0  0  0  0  0  0
   18.8589   19.9665   27.0687 H   0  0  0  0  0  0  0  0  0  0  0  0
   20.0716   21.2217   27.6318 H   0  0  0  0  0  0  0  0  0  0  0  0
   18.5976   22.0883   25.8438 H   0  0  0  0  0  0  0  0  0  0  0  0
   19.2523   20.7402   24.7568 H   0  0  0  0  0  0  0  0  0  0  0  0
   21.3377   19.2131   22.5210 H   0  0  0  0  0  0  0  0  0  0  0  0
   20.2416   16.9638   22.0210 H   0  0  0  0  0  0  0  0  0  0  0  0
   23.0109   15.0931   24.8370 H   0  0  0  0  0  0  0  0  0  0  0  0
   24.0271   17.2964   25.3596 H   0  0  0  0  0  0  0  0  0  0  0  0
   22.7520   13.3983   23.1602 H   0  0  0  0  0  0  0  0  0  0  0  0
   21.5328   11.2530   22.6383 H   0  0  0  0  0  0  0  0  0  0  0  0
   19.0813   11.2354   22.2584 H   0  0  0  0  0  0  0  0  0  0  0  0
   17.7277   13.3208   22.6242 H   0  0  0  0  0  0  0  0  0  0  0  0
   18.9171   15.4989   23.0550 H   0  0  0  0  0  0  0  0  0  0  0  0
  1  2  2  0
  1  6  1  0
  1 14  1  0
  2  3  1  0
  3  4  2  0
  4  5  1  0
  4  7  1  0
  5  6  2  0
  7  8  1  0
  7  9  1  0
  7 10  1  0
 10 11  2  0
 10 12  1  0
 10 13  1  0
 14 15  1  0
 15 16  1  0
 15 19  1  0
 16 17  1  0
 16 18  2  0
 17 23  1  0
 19 20  1  0
 20 21  2  0
 20 22  1  0
 23 24  1  0
 23 32  1  0
 24 25  1  0
 24 26  2  0
 25 27  1  0
 25 29  1  0
 27 28  1  0
 28 31  1  0
 29 30  1  0
 30 33  2  0
 30 37  1  0
 31 32  1  0
 33 34  1  0
 34 35  2  0
 35 36  1  0
 35 38  1  0
 36 37  2  0
 38 39  2  0
 38 43  1  0
 39 40  1  0
 40 41  2  0
 41 42  1  0
 42 43  2  0
  2 44  1  0
  3 45  1  0
  5 46  1  0
  6 47  1  0
 12 48  1  0
 13 49  1  0
 14 50  1  0
 14 51  1  0
 15 52  1  0
 17 53  1  0
 19 54  1  0
 22 55  1  0
 22 56  1  0
 22 57  1  0
 23 58  1  0
 27 59  1  0
 27 60  1  0
 28 61  1  0
 28 62  1  0
 29 63  1  0
 29 64  1  0
 31 65  1  0
 31 66  1  0
 32 67  1  0
 32 68  1  0
 33 69  1  0
 34 70  1  0
 36 71  1  0
 37 72  1  0
 39 73  1  0
 40 74  1  0
 41 75  1  0
 42 76  1  0
 43 77  1  0
A    1
C1
A    2
C2
A    3
C3
A    4
C4
A    5
C5
A    6
C6
A    7
C11
A    8
F12
A    9
F13
A   10
P14
A   11
O15
A   12
O16
A   13
O17
A   14
C18
A   15
C19
A   16
C22
A   17
N23
A   18
O24
A   19
N25
A   20
C26
A   21
O27
A   22
C28
A   23
C32
A   24
C33
A   25
N34
A   26
O37
A   27
C38
A   28
C39
A   29
C42
A   30
C43
A   31
C46
A   32
C49
A   33
C58
A   34
C59
A   35
C60
A   36
C61
A   37
C62
A   38
C67
A   39
C68
A   40
C69
A   41
C70
A   42
C71
A   43
C72
M  END
