1O48_853_A_300
     RDKit          3D

 78 81  0  0  0  0  0  0  0  0999 V2000
   19.0180   25.2650   19.5650 C   0  0  0  0  0  0  0  0  0  0  0  0
   17.6520   24.9090   19.3890 C   0  0  0  0  0  0  0  0  0  0  0  0
   16.8230   25.6810   18.5460 C   0  0  0  0  0  0  0  0  0  0  0  0
   17.4120   26.7520   17.7840 C   0  0  0  0  0  0  0  0  0  0  0  0
   18.8340   27.0580   17.8510 C   0  0  0  0  0  0  0  0  0  0  0  0
   19.6220   26.3270   18.8080 C   0  0  0  0  0  0  0  0  0  0  0  0
   19.8470   24.4880   20.6190 C   0  0  0  0  0  0  0  0  0  0  0  0
   19.6000   25.0830   22.0150 C   0  0  0  0  0  0  0  0  0  0  0  0
   20.3030   24.2510   23.0760 C   0  0  0  0  0  0  0  0  0  0  0  0
   19.6080   23.2240   23.5300 N   0  0  0  0  0  0  0  0  0  0  0  0
   21.4340   24.5430   23.4610 O   0  0  0  0  0  0  0  0  0  0  0  0
   20.0370   26.4980   22.0200 N   0  0  0  0  0  0  0  0  0  0  0  0
   19.3900   27.3850   22.8110 C   0  0  0  0  0  0  0  0  0  0  0  0
   18.4100   27.0780   23.4990 O   0  0  0  0  0  0  0  0  0  0  0  0
   19.9870   28.8260   22.7870 C   0  0  0  0  0  0  0  0  0  0  0  0
   20.2910   22.2440   24.3590 C   0  0  0  0  0  0  0  0  0  0  0  0
   21.3620   21.4210   23.5300 C   0  0  0  0  0  0  0  0  0  0  0  0
   22.1650   20.5580   24.2570 N   0  0  0  0  0  0  0  0  0  0  0  0
   21.4630   21.5680   22.3020 O   0  0  0  0  0  0  0  0  0  0  0  0
   22.0180   20.2790   25.6930 C   0  0  0  0  0  0  0  0  0  0  0  0
   20.7200   19.5960   26.0560 C   0  0  0  0  0  0  0  0  0  0  0  0
   23.1790   19.6830   23.5820 C   0  0  0  0  0  0  0  0  0  0  0  0
   22.5560   18.3030   23.3220 C   0  0  0  0  0  0  0  0  0  0  0  0
   19.5640   20.5780   26.2040 C   0  0  0  0  0  0  0  0  0  0  0  0
   19.1950   21.3400   24.9190 C   0  0  0  0  0  0  0  0  0  0  0  0
   21.4050   18.2670   22.4350 C   0  0  0  0  0  0  0  0  0  0  0  0
   20.7220   17.0590   22.2680 C   0  0  0  0  0  0  0  0  0  0  0  0
   21.2760   15.8760   22.8910 C   0  0  0  0  0  0  0  0  0  0  0  0
   22.4610   15.8860   23.7320 C   0  0  0  0  0  0  0  0  0  0  0  0
   23.0610   17.1320   23.9890 C   0  0  0  0  0  0  0  0  0  0  0  0
   20.5670   14.5840   22.5790 C   0  0  0  0  0  0  0  0  0  0  0  0
   19.1380   14.5620   22.3830 C   0  0  0  0  0  0  0  0  0  0  0  0
   18.5180   13.3350   22.1240 C   0  0  0  0  0  0  0  0  0  0  0  0
   19.2670   12.1240   22.1060 C   0  0  0  0  0  0  0  0  0  0  0  0
   20.6550   12.1450   22.2830 C   0  0  0  0  0  0  0  0  0  0  0  0
   21.3340   13.3780   22.4640 C   0  0  0  0  0  0  0  0  0  0  0  0
   19.5240   27.9820   16.8640 C   0  0  0  0  0  0  0  0  0  0  0  0
   20.0090   29.1550   17.2750 O   0  0  0  0  0  0  0  0  0  0  0  0
   19.6160   27.6680   15.7090 O   0  0  0  0  0  0  0  0  0  0  0  0
   16.4750   27.4870   16.8220 C   0  0  0  0  0  0  0  0  0  0  0  0
   15.3310   28.2450   17.4900 C   0  0  0  0  0  0  0  0  0  0  0  0
   14.5580   28.8060   16.5620 O   0  0  0  0  0  0  0  0  0  0  0  0
   15.1400   28.3530   18.6620 O   0  0  0  0  0  0  0  0  0  0  0  0
   17.2412   24.0316   19.9100 H   0  0  0  0  0  0  0  0  0  0  0  0
   15.7463   25.4682   18.4725 H   0  0  0  0  0  0  0  0  0  0  0  0
   20.6818   26.5799   18.9594 H   0  0  0  0  0  0  0  0  0  0  0  0
   19.5453   23.4302   20.6139 H   0  0  0  0  0  0  0  0  0  0  0  0
   20.9161   24.5688   20.3729 H   0  0  0  0  0  0  0  0  0  0  0  0
   18.5272   25.0581   22.2567 H   0  0  0  0  0  0  0  0  0  0  0  0
   18.6087   23.1200   23.3029 H   0  0  0  0  0  0  0  0  0  0  0  0
   20.8234   26.8031   21.4289 H   0  0  0  0  0  0  0  0  0  0  0  0
   20.1334   29.1794   23.8183 H   0  0  0  0  0  0  0  0  0  0  0  0
   20.9540   28.8136   22.2629 H   0  0  0  0  0  0  0  0  0  0  0  0
   19.2945   29.5011   22.2629 H   0  0  0  0  0  0  0  0  0  0  0  0
   20.8593   22.7297   25.1660 H   0  0  0  0  0  0  0  0  0  0  0  0
   22.8496   19.6307   26.0064 H   0  0  0  0  0  0  0  0  0  0  0  0
   22.0215   21.2508   26.2083 H   0  0  0  0  0  0  0  0  0  0  0  0
   20.4693   18.8727   25.2660 H   0  0  0  0  0  0  0  0  0  0  0  0
   20.8638   19.1009   27.0277 H   0  0  0  0  0  0  0  0  0  0  0  0
   23.4804   20.1373   22.6266 H   0  0  0  0  0  0  0  0  0  0  0  0
   24.0642   19.5754   24.2261 H   0  0  0  0  0  0  0  0  0  0  0  0
   18.6781   20.0161   26.5348 H   0  0  0  0  0  0  0  0  0  0  0  0
   19.8933   21.3364   26.9295 H   0  0  0  0  0  0  0  0  0  0  0  0
   18.3162   21.9653   25.1351 H   0  0  0  0  0  0  0  0  0  0  0  0
   19.0121   20.5728   24.1522 H   0  0  0  0  0  0  0  0  0  0  0  0
   21.0776   19.1736   21.9050 H   0  0  0  0  0  0  0  0  0  0  0  0
   19.7927   17.0090   21.6815 H   0  0  0  0  0  0  0  0  0  0  0  0
   22.8725   14.9559   24.1511 H   0  0  0  0  0  0  0  0  0  0  0  0
   23.9048   17.2103   24.6903 H   0  0  0  0  0  0  0  0  0  0  0  0
   18.5489   15.4895   22.4360 H   0  0  0  0  0  0  0  0  0  0  0  0
   17.4354   13.3052   21.9313 H   0  0  0  0  0  0  0  0  0  0  0  0
   18.7507   11.1650   21.9518 H   0  0  0  0  0  0  0  0  0  0  0  0
   21.2219   11.2023   22.2818 H   0  0  0  0  0  0  0  0  0  0  0  0
   22.4324   13.4080   22.5153 H   0  0  0  0  0  0  0  0  0  0  0  0
   20.0880   29.3461   18.2432 H   0  0  0  0  0  0  0  0  0  0  0  0
   17.0736   28.2093   16.2476 H   0  0  0  0  0  0  0  0  0  0  0  0
   16.0071   26.7126   16.1964 H   0  0  0  0  0  0  0  0  0  0  0  0
   13.7871   29.3654   16.8320 H   0  0  0  0  0  0  0  0  0  0  0  0
  1  2  2  0
  1  6  1  0
  1  7  1  0
  2  3  1  0
  3  4  2  0
  4  5  1  0
  4 40  1  0
  5  6  2  0
  5 37  1  0
  7  8  1  0
  8  9  1  0
  8 12  1  0
  9 10  1  0
  9 11  2  0
 10 16  1  0
 12 13  1  0
 13 14  2  0
 13 15  1  0
 16 17  1  0
 16 25  1  0
 17 18  1  0
 17 19  2  0
 18 20  1  0
 18 22  1  0
 20 21  1  0
 21 24  1  0
 22 23  1  0
 23 26  2  0
 23 30  1  0
 24 25  1  0
 26 27  1  0
 27 28  2  0
 28 29  1  0
 28 31  1  0
 29 30  2  0
 31 32  2  0
 31 36  1  0
 32 33  1  0
 33 34  2  0
 34 35  1  0
 35 36  2  0
 37 38  1  0
 37 39  2  0
 40 41  1  0
 41 42  1  0
 41 43  2  0
  2 44  1  0
  3 45  1  0
  6 46  1  0
  7 47  1  0
  7 48  1  0
  8 49  1  0
 10 50  1  0
 12 51  1  0
 15 52  1  0
 15 53  1  0
 15 54  1  0
 16 55  1  0
 20 56  1  0
 20 57  1  0
 21 58  1  0
 21 59  1  0
 22 60  1  0
 22 61  1  0
 24 62  1  0
 24 63  1  0
 25 64  1  0
 25 65  1  0
 26 66  1  0
 27 67  1  0
 29 68  1  0
 30 69  1  0
 32 70  1  0
 33 71  1  0
 34 72  1  0
 35 73  1  0
 36 74  1  0
 38 75  1  0
 40 76  1  0
 40 77  1  0
 42 78  1  0
A    1
C1
A    2
C2
A    3
C3
A    4
C4
A    5
C5
A    6
C6
A    7
C10
A    8
C11
A    9
C14
A   10
N15
A   11
O16
A   12
N17
A   13
C18
A   14
O19
A   15
C20
A   16
C24
A   17
C25
A   18
N26
A   19
O27
A   20
C28
A   21
C29
A   22
C32
A   23
C33
A   24
C36
A   25
C39
A   26
C46
A   27
C47
A   28
C48
A   29
C49
A   30
C50
A   31
C55
A   32
C56
A   33
C57
A   34
C58
A   35
C59
A   36
C60
A   37
C68
A   38
O69
A   39
O70
A   40
C71
A   41
C72
A   42
O75
A   43
O76
M  END
