1O49_493_A_300
     RDKit          3D

 81 84  0  0  0  0  0  0  0  0999 V2000
   17.9950   24.7810   19.7560 C   0  0  0  0  0  0  0  0  0  0  0  0
   16.9630   25.3480   19.0580 C   0  0  0  0  0  0  0  0  0  0  0  0
   17.2960   26.4740   18.3550 C   0  0  0  0  0  0  0  0  0  0  0  0
   18.6110   27.0000   18.2810 C   0  0  0  0  0  0  0  0  0  0  0  0
   19.6710   26.4390   19.0430 C   0  0  0  0  0  0  0  0  0  0  0  0
   19.2790   25.3190   19.7630 C   0  0  0  0  0  0  0  0  0  0  0  0
   16.0200   28.0840   17.0160 C   0  0  0  0  0  0  0  0  0  0  0  0
   15.1300   29.0820   17.6980 C   0  0  0  0  0  0  0  0  0  0  0  0
   20.1580   24.5360   20.6750 C   0  0  0  0  0  0  0  0  0  0  0  0
   19.7200   25.0560   21.9730 C   0  0  0  0  0  0  0  0  0  0  0  0
   20.3640   24.2650   23.0800 C   0  0  0  0  0  0  0  0  0  0  0  0
   19.6560   23.2710   23.6450 N   0  0  0  0  0  0  0  0  0  0  0  0
   20.2420   26.4830   22.0420 N   0  0  0  0  0  0  0  0  0  0  0  0
   19.5540   27.4340   22.6320 C   0  0  0  0  0  0  0  0  0  0  0  0
   19.9200   28.7660   21.8800 C   0  0  0  0  0  0  0  0  0  0  0  0
   18.6860   27.1840   23.4560 O   0  0  0  0  0  0  0  0  0  0  0  0
   21.4780   24.5410   23.4150 O   0  0  0  0  0  0  0  0  0  0  0  0
   20.3090   22.2960   24.4390 C   0  0  0  0  0  0  0  0  0  0  0  0
   19.1850   21.4990   24.9430 C   0  0  0  0  0  0  0  0  0  0  0  0
   19.4960   20.7240   26.2170 C   0  0  0  0  0  0  0  0  0  0  0  0
   20.7210   19.7890   26.1940 C   0  0  0  0  0  0  0  0  0  0  0  0
   22.1180   20.3880   25.8710 C   0  0  0  0  0  0  0  0  0  0  0  0
   22.3370   20.6630   24.4090 N   0  0  0  0  0  0  0  0  0  0  0  0
   21.3700   21.4480   23.6410 C   0  0  0  0  0  0  0  0  0  0  0  0
   23.3700   19.7860   23.6880 C   0  0  0  0  0  0  0  0  0  0  0  0
   22.7690   18.4000   23.3840 C   0  0  0  0  0  0  0  0  0  0  0  0
   21.4100   21.4690   22.3490 O   0  0  0  0  0  0  0  0  0  0  0  0
   16.1340   26.9460   17.8710 O   0  0  0  0  0  0  0  0  0  0  0  0
   23.2550   17.2490   23.9650 C   0  0  0  0  0  0  0  0  0  0  0  0
   22.6330   16.0070   23.7130 C   0  0  0  0  0  0  0  0  0  0  0  0
   21.4920   15.8870   22.8340 C   0  0  0  0  0  0  0  0  0  0  0  0
   20.9040   17.0700   22.3200 C   0  0  0  0  0  0  0  0  0  0  0  0
   21.5490   18.3500   22.5790 C   0  0  0  0  0  0  0  0  0  0  0  0
   20.8760   14.5980   22.4400 C   0  0  0  0  0  0  0  0  0  0  0  0
   19.4760   14.4650   22.2470 C   0  0  0  0  0  0  0  0  0  0  0  0
   18.7350   13.3050   22.1580 C   0  0  0  0  0  0  0  0  0  0  0  0
   19.4900   12.1570   22.2020 C   0  0  0  0  0  0  0  0  0  0  0  0
   20.8410   12.1450   22.2260 C   0  0  0  0  0  0  0  0  0  0  0  0
   21.5750   13.3940   22.3830 C   0  0  0  0  0  0  0  0  0  0  0  0
   18.9540   28.4970   17.2660 P   0  0  0  0  0  0  0  0  0  0  0  0
   20.4880   28.8870   17.2560 O   0  0  0  0  0  0  0  0  0  0  0  0
   18.0130   29.6500   18.1210 O   0  0  0  0  0  0  0  0  0  0  0  0
   18.1370   28.2590   15.6050 O   0  0  0  0  0  0  0  0  0  0  0  0
   14.3170   29.4790   16.7160 O   0  0  0  0  0  0  0  0  0  0  0  0
   15.1300   29.4220   18.8570 O   0  0  0  0  0  0  0  0  0  0  0  0
   17.8024   23.8649   20.3337 H   0  0  0  0  0  0  0  0  0  0  0  0
   15.9451   24.9310   19.0618 H   0  0  0  0  0  0  0  0  0  0  0  0
   20.6919   26.8481   19.0604 H   0  0  0  0  0  0  0  0  0  0  0  0
   15.5795   27.7861   16.0531 H   0  0  0  0  0  0  0  0  0  0  0  0
   17.0109   28.5210   16.8232 H   0  0  0  0  0  0  0  0  0  0  0  0
   19.9752   23.4549   20.5872 H   0  0  0  0  0  0  0  0  0  0  0  0
   21.2351   24.6403   20.4774 H   0  0  0  0  0  0  0  0  0  0  0  0
   18.6268   24.9969   22.0803 H   0  0  0  0  0  0  0  0  0  0  0  0
   18.6376   23.2184   23.5003 H   0  0  0  0  0  0  0  0  0  0  0  0
   21.1531   26.7082   21.6177 H   0  0  0  0  0  0  0  0  0  0  0  0
   20.1367   29.5547   22.6156 H   0  0  0  0  0  0  0  0  0  0  0  0
   20.8057   28.5995   21.2493 H   0  0  0  0  0  0  0  0  0  0  0  0
   19.0736   29.0754   21.2493 H   0  0  0  0  0  0  0  0  0  0  0  0
   20.9226   22.7321   25.2411 H   0  0  0  0  0  0  0  0  0  0  0  0
   18.3441   22.1780   25.1479 H   0  0  0  0  0  0  0  0  0  0  0  0
   18.9500   20.7550   24.1677 H   0  0  0  0  0  0  0  0  0  0  0  0
   19.6560   21.4586   27.0200 H   0  0  0  0  0  0  0  0  0  0  0  0
   18.6335   20.0562   26.3591 H   0  0  0  0  0  0  0  0  0  0  0  0
   20.7912   19.3247   27.1887 H   0  0  0  0  0  0  0  0  0  0  0  0
   20.5216   19.1126   25.3498 H   0  0  0  0  0  0  0  0  0  0  0  0
   22.2255   21.3341   26.4218 H   0  0  0  0  0  0  0  0  0  0  0  0
   22.8652   19.6387   26.1715 H   0  0  0  0  0  0  0  0  0  0  0  0
   23.6631   20.2701   22.7448 H   0  0  0  0  0  0  0  0  0  0  0  0
   24.2509   19.6621   24.3350 H   0  0  0  0  0  0  0  0  0  0  0  0
   24.1314   17.2981   24.6280 H   0  0  0  0  0  0  0  0  0  0  0  0
   23.0286   15.1036   24.2002 H   0  0  0  0  0  0  0  0  0  0  0  0
   19.9742   17.0220   21.7341 H   0  0  0  0  0  0  0  0  0  0  0  0
   21.1197   19.2766   22.1702 H   0  0  0  0  0  0  0  0  0  0  0  0
   18.9113   15.4047   22.1572 H   0  0  0  0  0  0  0  0  0  0  0  0
   17.6393   13.2990   22.0606 H   0  0  0  0  0  0  0  0  0  0  0  0
   18.9634   11.1914   22.2186 H   0  0  0  0  0  0  0  0  0  0  0  0
   21.3856   11.1944   22.1272 H   0  0  0  0  0  0  0  0  0  0  0  0
   22.6726   13.3864   22.4560 H   0  0  0  0  0  0  0  0  0  0  0  0
   20.8135   28.9698   18.1873 H   0  0  0  0  0  0  0  0  0  0  0  0
   17.1950   27.9846   15.7369 H   0  0  0  0  0  0  0  0  0  0  0  0
   13.4490   29.9029   16.9329 H   0  0  0  0  0  0  0  0  0  0  0  0
  1  2  2  0
  1  6  1  0
  2  3  1  0
  3  4  2  0
  3 28  1  0
  4  5  1  0
  4 40  1  0
  5  6  2  0
  6  9  1  0
  7  8  1  0
  7 28  1  0
  8 44  1  0
  8 45  2  0
  9 10  1  0
 10 11  1  0
 10 13  1  0
 11 12  1  0
 11 17  2  0
 12 18  1  0
 13 14  1  0
 14 15  1  0
 14 16  2  0
 18 19  1  0
 18 24  1  0
 19 20  1  0
 20 21  1  0
 21 22  1  0
 22 23  1  0
 23 24  1  0
 23 25  1  0
 24 27  2  0
 25 26  1  0
 26 29  2  0
 26 33  1  0
 29 30  1  0
 30 31  2  0
 31 32  1  0
 31 34  1  0
 32 33  2  0
 34 35  2  0
 34 39  1  0
 35 36  1  0
 36 37  2  0
 37 38  1  0
 38 39  2  0
 40 41  1  0
 40 42  2  0
 40 43  1  0
  1 46  1  0
  2 47  1  0
  5 48  1  0
  7 49  1  0
  7 50  1  0
  9 51  1  0
  9 52  1  0
 10 53  1  0
 12 54  1  0
 13 55  1  0
 15 56  1  0
 15 57  1  0
 15 58  1  0
 18 59  1  0
 19 60  1  0
 19 61  1  0
 20 62  1  0
 20 63  1  0
 21 64  1  0
 21 65  1  0
 22 66  1  0
 22 67  1  0
 25 68  1  0
 25 69  1  0
 29 70  1  0
 30 71  1  0
 32 72  1  0
 33 73  1  0
 35 74  1  0
 36 75  1  0
 37 76  1  0
 38 77  1  0
 39 78  1  0
 41 79  1  0
 43 80  1  0
 44 81  1  0
A    1
C1
A    2
C2
A    3
C3
A    4
C4
A    5
C5
A    6
C6
A    7
C7
A    8
C8
A    9
C9
A   10
C10
A   11
C11
A   12
N12
A   13
N13
A   14
C14
A   15
C15
A   16
O16
A   17
O17
A   18
C18
A   19
C19
A   20
C20
A   21
C21
A   22
C22
A   23
N23
A   24
C24
A   25
C25
A   26
C26
A   27
O27
A   28
O28
A   29
C49
A   30
C50
A   31
C51
A   32
C52
A   33
C53
A   34
C58
A   35
C59
A   36
C60
A   37
C61
A   38
C62
A   39
C63
A   40
P71
A   41
O72
A   42
O73
A   43
O74
A   44
O79
A   45
O80
M  END
