1O4B_876_A_300
     RDKit          3D

 79 82  0  0  0  0  0  0  0  0999 V2000
   18.3470   25.1510   18.2600 C   0  0  0  0  0  0  0  0  0  0  0  0
   17.9190   25.7600   17.1210 C   0  0  0  0  0  0  0  0  0  0  0  0
   17.1620   26.8700   17.2590 C   0  0  0  0  0  0  0  0  0  0  0  0
   16.7820   27.3970   18.4740 C   0  0  0  0  0  0  0  0  0  0  0  0
   17.2130   26.8140   19.7180 C   0  0  0  0  0  0  0  0  0  0  0  0
   18.0690   25.6410   19.5110 C   0  0  0  0  0  0  0  0  0  0  0  0
   19.0000   24.7710   20.3300 C   0  0  0  0  0  0  0  0  0  0  0  0
   19.0090   25.3390   21.7540 C   0  0  0  0  0  0  0  0  0  0  0  0
   19.8580   24.4270   22.6270 C   0  0  0  0  0  0  0  0  0  0  0  0
   19.2440   23.4080   23.2650 N   0  0  0  0  0  0  0  0  0  0  0  0
   19.4620   26.7300   21.7960 N   0  0  0  0  0  0  0  0  0  0  0  0
   18.7950   27.7140   22.4040 C   0  0  0  0  0  0  0  0  0  0  0  0
   19.5500   28.9770   22.2110 C   0  0  0  0  0  0  0  0  0  0  0  0
   17.7270   27.6140   23.0200 O   0  0  0  0  0  0  0  0  0  0  0  0
   21.0830   24.7080   22.7490 O   0  0  0  0  0  0  0  0  0  0  0  0
   20.0170   22.4290   24.0370 C   0  0  0  0  0  0  0  0  0  0  0  0
   18.9530   21.4860   24.6210 C   0  0  0  0  0  0  0  0  0  0  0  0
   19.4680   20.3020   25.5440 C   0  0  0  0  0  0  0  0  0  0  0  0
   20.8290   20.5600   26.1470 C   0  0  0  0  0  0  0  0  0  0  0  0
   21.9480   20.2400   25.1590 C   0  0  0  0  0  0  0  0  0  0  0  0
   21.9310   20.7900   23.7660 N   0  0  0  0  0  0  0  0  0  0  0  0
   21.0520   21.7040   23.1560 C   0  0  0  0  0  0  0  0  0  0  0  0
   22.9650   20.0820   22.9730 C   0  0  0  0  0  0  0  0  0  0  0  0
   22.5360   18.6740   22.7880 C   0  0  0  0  0  0  0  0  0  0  0  0
   21.0910   21.9630   21.9470 O   0  0  0  0  0  0  0  0  0  0  0  0
   16.6200   27.5360   15.7270 P   0  0  0  0  0  0  0  0  0  0  0  0
   21.4810   18.4820   21.8760 C   0  0  0  0  0  0  0  0  0  0  0  0
   20.8700   17.2110   21.7940 C   0  0  0  0  0  0  0  0  0  0  0  0
   21.3390   16.1370   22.5960 C   0  0  0  0  0  0  0  0  0  0  0  0
   22.4630   16.3150   23.4560 C   0  0  0  0  0  0  0  0  0  0  0  0
   23.0630   17.5980   23.5580 C   0  0  0  0  0  0  0  0  0  0  0  0
   20.6500   14.8290   22.4470 C   0  0  0  0  0  0  0  0  0  0  0  0
   21.4160   13.6370   22.4180 C   0  0  0  0  0  0  0  0  0  0  0  0
   20.8030   12.4050   22.0650 C   0  0  0  0  0  0  0  0  0  0  0  0
   19.4320   12.3720   21.7540 C   0  0  0  0  0  0  0  0  0  0  0  0
   18.6340   13.5270   21.8690 C   0  0  0  0  0  0  0  0  0  0  0  0
   19.2430   14.7500   22.2130 C   0  0  0  0  0  0  0  0  0  0  0  0
   15.8670   28.8570   18.2340 P   0  0  0  0  0  0  0  0  0  0  0  0
   14.8490   28.8820   17.1700 O   0  0  0  0  0  0  0  0  0  0  0  0
   16.7000   30.0440   18.2930 O   0  0  0  0  0  0  0  0  0  0  0  0
   15.0720   28.6650   19.3920 O   0  0  0  0  0  0  0  0  0  0  0  0
   15.2160   27.2480   15.4970 O   0  0  0  0  0  0  0  0  0  0  0  0
   17.4120   27.1530   14.4100 O   0  0  0  0  0  0  0  0  0  0  0  0
   17.1270   28.9920   15.6280 O   0  0  0  0  0  0  0  0  0  0  0  0
   18.9399   24.2284   18.1743 H   0  0  0  0  0  0  0  0  0  0  0  0
   18.1790   25.3644   16.1281 H   0  0  0  0  0  0  0  0  0  0  0  0
   16.9330   27.2029   20.7081 H   0  0  0  0  0  0  0  0  0  0  0  0
   18.6358   23.7331   20.3398 H   0  0  0  0  0  0  0  0  0  0  0  0
   20.0133   24.7696   19.9019 H   0  0  0  0  0  0  0  0  0  0  0  0
   17.9805   25.3622   22.1435 H   0  0  0  0  0  0  0  0  0  0  0  0
   18.2196   23.3167   23.2090 H   0  0  0  0  0  0  0  0  0  0  0  0
   20.3492   26.9641   21.3281 H   0  0  0  0  0  0  0  0  0  0  0  0
   19.8057   29.4048   23.1916 H   0  0  0  0  0  0  0  0  0  0  0  0
   20.4728   28.7703   21.6492 H   0  0  0  0  0  0  0  0  0  0  0  0
   18.9310   29.6920   21.6492 H   0  0  0  0  0  0  0  0  0  0  0  0
   20.6224   22.8900   24.8314 H   0  0  0  0  0  0  0  0  0  0  0  0
   18.2611   22.0966   25.2197 H   0  0  0  0  0  0  0  0  0  0  0  0
   18.4997   20.9919   23.7490 H   0  0  0  0  0  0  0  0  0  0  0  0
   18.7461   20.1577   26.3614 H   0  0  0  0  0  0  0  0  0  0  0  0
   19.5587   19.4097   24.9072 H   0  0  0  0  0  0  0  0  0  0  0  0
   20.8978   21.6196   26.4341 H   0  0  0  0  0  0  0  0  0  0  0  0
   20.9468   19.9081   27.0252 H   0  0  0  0  0  0  0  0  0  0  0  0
   22.8825   20.5902   25.6216 H   0  0  0  0  0  0  0  0  0  0  0  0
   21.8210   19.1600   24.9930 H   0  0  0  0  0  0  0  0  0  0  0  0
   23.0771   20.5674   21.9923 H   0  0  0  0  0  0  0  0  0  0  0  0
   23.9307   20.1152   23.4987 H   0  0  0  0  0  0  0  0  0  0  0  0
   21.1377   19.3090   21.2370 H   0  0  0  0  0  0  0  0  0  0  0  0
   20.0268   17.0524   21.1056 H   0  0  0  0  0  0  0  0  0  0  0  0
   22.8607   15.4677   24.0339 H   0  0  0  0  0  0  0  0  0  0  0  0
   23.9240   17.7588   24.2234 H   0  0  0  0  0  0  0  0  0  0  0  0
   22.4866   13.6658   22.6691 H   0  0  0  0  0  0  0  0  0  0  0  0
   21.3984   11.4806   22.0351 H   0  0  0  0  0  0  0  0  0  0  0  0
   18.9758   11.4299   21.4158 H   0  0  0  0  0  0  0  0  0  0  0  0
   17.5495   13.4748   21.6925 H   0  0  0  0  0  0  0  0  0  0  0  0
   18.6265   15.6566   22.3026 H   0  0  0  0  0  0  0  0  0  0  0  0
   13.9468   28.9042   17.5770 H   0  0  0  0  0  0  0  0  0  0  0  0
   15.6280   28.7993   20.2000 H   0  0  0  0  0  0  0  0  0  0  0  0
   18.2758   26.7353   14.6541 H   0  0  0  0  0  0  0  0  0  0  0  0
   17.2550   29.3595   16.5383 H   0  0  0  0  0  0  0  0  0  0  0  0
  1  2  2  0
  1  6  1  0
  2  3  1  0
  3  4  2  0
  3 26  1  0
  4  5  1  0
  4 38  1  0
  5  6  2  0
  6  7  1  0
  7  8  1  0
  8  9  1  0
  8 11  1  0
  9 10  1  0
  9 15  2  0
 10 16  1  0
 11 12  1  0
 12 13  1  0
 12 14  2  0
 16 17  1  0
 16 22  1  0
 17 18  1  0
 18 19  1  0
 19 20  1  0
 20 21  1  0
 21 22  1  0
 21 23  1  0
 22 25  2  0
 23 24  1  0
 24 27  2  0
 24 31  1  0
 26 42  2  0
 26 43  1  0
 26 44  1  0
 27 28  1  0
 28 29  2  0
 29 30  1  0
 29 32  1  0
 30 31  2  0
 32 33  2  0
 32 37  1  0
 33 34  1  0
 34 35  2  0
 35 36  1  0
 36 37  2  0
 38 39  1  0
 38 40  2  0
 38 41  1  0
  1 45  1  0
  2 46  1  0
  5 47  1  0
  7 48  1  0
  7 49  1  0
  8 50  1  0
 10 51  1  0
 11 52  1  0
 13 53  1  0
 13 54  1  0
 13 55  1  0
 16 56  1  0
 17 57  1  0
 17 58  1  0
 18 59  1  0
 18 60  1  0
 19 61  1  0
 19 62  1  0
 20 63  1  0
 20 64  1  0
 23 65  1  0
 23 66  1  0
 27 67  1  0
 28 68  1  0
 30 69  1  0
 31 70  1  0
 33 71  1  0
 34 72  1  0
 35 73  1  0
 36 74  1  0
 37 75  1  0
 39 76  1  0
 41 77  1  0
 43 78  1  0
 44 79  1  0
A    1
C1
A    2
C2
A    3
C3
A    4
C4
A    5
C5
A    6
C6
A    7
C7
A    8
C8
A    9
C9
A   10
N10
A   11
N11
A   12
C12
A   13
C13
A   14
O14
A   15
O15
A   16
C16
A   17
C17
A   18
C18
A   19
C19
A   20
C20
A   21
N21
A   22
C22
A   23
C23
A   24
C24
A   25
O25
A   26
P26
A   27
C27
A   28
C28
A   29
C29
A   30
C30
A   31
C31
A   32
C32
A   33
C59
A   34
C60
A   35
C61
A   36
C62
A   37
C63
A   38
P69
A   39
O70
A   40
O71
A   41
O72
A   42
O73
A   43
O74
A   44
O75
M  END
