1O4J_IS2_A_300
     RDKit          3D

 27 27  0  0  0  0  0  0  0  0999 V2000
   21.7570   32.4490   16.3470 C   0  0  0  0  0  0  0  0  0  0  0  0
   20.6130   32.8340   17.1460 C   0  0  0  0  0  0  0  0  0  0  0  0
   19.4720   31.9850   17.2430 C   0  0  0  0  0  0  0  0  0  0  0  0
   19.5130   30.6620   16.6520 C   0  0  0  0  0  0  0  0  0  0  0  0
   20.7170   30.2180   16.0540 C   0  0  0  0  0  0  0  0  0  0  0  0
   21.8440   31.0750   15.9460 C   0  0  0  0  0  0  0  0  0  0  0  0
   18.3580   29.8120   16.6040 N   0  0  0  0  0  0  0  0  0  0  0  0
   17.1160   30.2680   17.0430 C   0  0  0  0  0  0  0  0  0  0  0  0
   17.0760   31.1770   17.8170 O   0  0  0  0  0  0  0  0  0  0  0  0
   15.9250   28.9850   17.2550 P   0  0  0  0  0  0  0  0  0  0  0  0
   14.3950   29.5520   16.7260 O   0  0  0  0  0  0  0  0  0  0  0  0
   15.9300   28.5900   18.6860 O   0  0  0  0  0  0  0  0  0  0  0  0
   16.3060   27.9070   16.4040 O   0  0  0  0  0  0  0  0  0  0  0  0
   23.0150   33.2810   16.4030 C   0  0  0  0  0  0  0  0  0  0  0  0
   22.6800   34.8080   16.2980 C   0  0  0  0  0  0  0  0  0  0  0  0
   20.6242   33.7930   17.6847 H   0  0  0  0  0  0  0  0  0  0  0  0
   18.5666   32.3315   17.7628 H   0  0  0  0  0  0  0  0  0  0  0  0
   20.7806   29.1906   15.6661 H   0  0  0  0  0  0  0  0  0  0  0  0
   22.7923   30.6814   15.5512 H   0  0  0  0  0  0  0  0  0  0  0  0
   18.4478   28.8525   16.2405 H   0  0  0  0  0  0  0  0  0  0  0  0
   13.8307   29.7611   17.5121 H   0  0  0  0  0  0  0  0  0  0  0  0
   15.9197   29.4019   19.2525 H   0  0  0  0  0  0  0  0  0  0  0  0
   23.5310   33.0901   17.3555 H   0  0  0  0  0  0  0  0  0  0  0  0
   23.6584   33.0031   15.5552 H   0  0  0  0  0  0  0  0  0  0  0  0
   22.5867   35.2332   17.3082 H   0  0  0  0  0  0  0  0  0  0  0  0
   23.4863   35.3239   15.7560 H   0  0  0  0  0  0  0  0  0  0  0  0
   21.7318   34.9389   15.7560 H   0  0  0  0  0  0  0  0  0  0  0  0
  1  2  2  0
  1  6  1  0
  1 14  1  0
  2  3  1  0
  3  4  2  0
  4  5  1  0
  4  7  1  0
  5  6  2  0
  7  8  1  0
  8  9  2  0
  8 10  1  0
 10 11  1  0
 10 12  1  0
 10 13  2  0
 14 15  1  0
  2 16  1  0
  3 17  1  0
  5 18  1  0
  6 19  1  0
  7 20  1  0
 11 21  1  0
 12 22  1  0
 14 23  1  0
 14 24  1  0
 15 25  1  0
 15 26  1  0
 15 27  1  0
A    1
C1
A    2
C2
A    3
C3
A    4
C4
A    5
C5
A    6
C6
A    7
N11
A    8
C12
A    9
O13
A   10
P14
A   11
O15
A   12
O16
A   13
O17
A   14
C18
A   15
C19
M  END
