1O4O_HPS_A_300
     RDKit          3D

 18 18  0  0  0  0  0  0  0  0999 V2000
   18.2230   15.5580   31.4990 C   0  0  0  0  0  0  0  0  0  0  0  0
   18.6700   15.5900   30.1050 C   0  0  0  0  0  0  0  0  0  0  0  0
   18.5480   16.6960   29.3360 C   0  0  0  0  0  0  0  0  0  0  0  0
   18.0280   17.8130   29.9800 C   0  0  0  0  0  0  0  0  0  0  0  0
   17.6850   17.8110   31.3730 C   0  0  0  0  0  0  0  0  0  0  0  0
   17.6760   16.6320   32.1560 C   0  0  0  0  0  0  0  0  0  0  0  0
   17.3970   19.0830   31.9390 O   0  0  0  0  0  0  0  0  0  0  0  0
   18.5160   20.2470   32.5240 P   0  0  0  0  0  0  0  0  0  0  0  0
   17.8170   21.4550   33.1870 O   0  0  0  0  0  0  0  0  0  0  0  0
   19.3900   20.6690   31.2590 O   0  0  0  0  0  0  0  0  0  0  0  0
   19.4160   19.4700   33.5310 O   0  0  0  0  0  0  0  0  0  0  0  0
   18.3323   14.6147   32.0542 H   0  0  0  0  0  0  0  0  0  0  0  0
   19.1194   14.6855   29.6692 H   0  0  0  0  0  0  0  0  0  0  0  0
   18.8397   16.7106   28.2755 H   0  0  0  0  0  0  0  0  0  0  0  0
   17.8736   18.7341   29.3989 H   0  0  0  0  0  0  0  0  0  0  0  0
   17.2747   16.5818   33.1789 H   0  0  0  0  0  0  0  0  0  0  0  0
   17.8683   21.3663   34.1717 H   0  0  0  0  0  0  0  0  0  0  0  0
   20.2378   21.0783   31.5653 H   0  0  0  0  0  0  0  0  0  0  0  0
  1  2  2  0
  1  6  1  0
  2  3  1  0
  3  4  2  0
  4  5  1  0
  5  6  2  0
  5  7  1  0
  7  8  1  0
  8  9  1  0
  8 10  1  0
  8 11  2  0
  1 12  1  0
  2 13  1  0
  3 14  1  0
  4 15  1  0
  6 16  1  0
  9 17  1  0
 10 18  1  0
A    1
C1
A    2
C2
A    3
C3
A    4
C4
A    5
C5
A    6
C6
A    7
O12
A    8
P13
A    9
O14
A   10
O15
A   11
O16
M  END
