1O4R_787_A_300
     RDKit          3D

 25 25  0  0  0  0  0  0  0  0999 V2000
   17.7510   24.3380   19.0420 C   0  0  0  0  0  0  0  0  0  0  0  0
   16.8780   24.5730   17.9680 C   0  0  0  0  0  0  0  0  0  0  0  0
   16.7790   25.8440   17.3440 C   0  0  0  0  0  0  0  0  0  0  0  0
   17.5680   26.9100   17.9400 C   0  0  0  0  0  0  0  0  0  0  0  0
   18.5390   26.6550   18.9480 C   0  0  0  0  0  0  0  0  0  0  0  0
   18.5760   25.3540   19.5640 C   0  0  0  0  0  0  0  0  0  0  0  0
   17.3880   28.1970   17.4250 C   0  0  0  0  0  0  0  0  0  0  0  0
   15.7620   28.8800   17.5740 P   0  0  0  0  0  0  0  0  0  0  0  0
   18.1680   28.5460   15.7620 P   0  0  0  0  0  0  0  0  0  0  0  0
   17.5620   29.8300   15.2340 O   0  0  0  0  0  0  0  0  0  0  0  0
   17.7690   27.4930   14.8120 O   0  0  0  0  0  0  0  0  0  0  0  0
   19.6030   28.5850   15.9500 O   0  0  0  0  0  0  0  0  0  0  0  0
   16.0020   30.5080   17.3520 O   0  0  0  0  0  0  0  0  0  0  0  0
   15.2820   28.6420   18.9650 O   0  0  0  0  0  0  0  0  0  0  0  0
   14.8300   28.4360   16.5890 O   0  0  0  0  0  0  0  0  0  0  0  0
   17.7921   23.3334   19.4882 H   0  0  0  0  0  0  0  0  0  0  0  0
   16.2519   23.7473   17.5990 H   0  0  0  0  0  0  0  0  0  0  0  0
   16.1434   26.0125   16.4622 H   0  0  0  0  0  0  0  0  0  0  0  0
   19.2493   27.4382   19.2516 H   0  0  0  0  0  0  0  0  0  0  0  0
   19.2340   25.1576   20.4234 H   0  0  0  0  0  0  0  0  0  0  0  0
   17.9986   28.7673   18.1406 H   0  0  0  0  0  0  0  0  0  0  0  0
   17.2911   30.4039   15.9938 H   0  0  0  0  0  0  0  0  0  0  0  0
   17.4664   26.6943   15.3126 H   0  0  0  0  0  0  0  0  0  0  0  0
   16.0679   30.9550   18.2329 H   0  0  0  0  0  0  0  0  0  0  0  0
   14.0328   28.0562   17.0365 H   0  0  0  0  0  0  0  0  0  0  0  0
  1  2  2  0
  1  6  1  0
  2  3  1  0
  3  4  2  0
  4  5  1  0
  4  7  1  0
  5  6  2  0
  7  8  1  0
  7  9  1  0
  8 13  1  0
  8 14  2  0
  8 15  1  0
  9 10  1  0
  9 11  1  0
  9 12  2  0
  1 16  1  0
  2 17  1  0
  3 18  1  0
  5 19  1  0
  6 20  1  0
  7 21  1  0
 10 22  1  0
 11 23  1  0
 13 24  1  0
 15 25  1  0
A    1
C1
A    2
C2
A    3
C3
A    4
C4
A    5
C5
A    6
C6
A    7
C7
A    8
P8
A    9
P9
A   10
O11
A   11
O12
A   12
O13
A   13
O14
A   14
O15
A   15
O16
M  END
