1O2G_696_H_410
     RDKit          3D

 42 45  0  0  0  0  0  0  0  0999 V2000
   11.5100  -11.6470   22.5770 C   0  0  0  0  0  0  0  0  0  0  0  0
   11.9960  -10.3580   22.1890 C   0  0  0  0  0  0  0  0  0  0  0  0
   12.8590  -10.2060   21.1080 C   0  0  0  0  0  0  0  0  0  0  0  0
   13.2380  -11.3410   20.4050 C   0  0  0  0  0  0  0  0  0  0  0  0
   12.7680  -12.5750   20.7860 C   0  0  0  0  0  0  0  0  0  0  0  0
   11.9060  -12.7540   21.8260 C   0  0  0  0  0  0  0  0  0  0  0  0
   10.6970  -11.7620   23.7050 C   0  0  0  0  0  0  0  0  0  0  0  0
    9.9910  -12.8580   23.9020 N   0  0  0  0  0  0  0  0  0  0  0  0
   10.5960  -10.7460   24.5320 N   0  0  0  0  0  0  0  0  0  0  0  0
   13.9860  -11.4730   19.3660 N   0  0  0  0  0  0  0  0  0  0  0  0
   13.1510  -13.6000   19.8200 C   0  0  0  0  0  0  0  0  0  0  0  0
   13.9760  -12.7630   19.0070 C   0  0  0  0  0  0  0  0  0  0  0  0
   14.8490  -13.3090   18.0820 C   0  0  0  0  0  0  0  0  0  0  0  0
   14.8170  -14.7040   17.8360 C   0  0  0  0  0  0  0  0  0  0  0  0
   15.6500  -15.2640   16.8830 C   0  0  0  0  0  0  0  0  0  0  0  0
   16.5440  -14.4630   16.1910 C   0  0  0  0  0  0  0  0  0  0  0  0
   16.6460  -13.0830   16.4510 C   0  0  0  0  0  0  0  0  0  0  0  0
   15.7820  -12.5170   17.4160 C   0  0  0  0  0  0  0  0  0  0  0  0
   15.7850  -11.1630   17.6660 O   0  0  0  0  0  0  0  0  0  0  0  0
   17.6360  -12.3600   15.7350 C   0  0  0  0  0  0  0  0  0  0  0  0
   17.3410  -11.2050   15.0030 C   0  0  0  0  0  0  0  0  0  0  0  0
   18.3400  -10.5460   14.2720 C   0  0  0  0  0  0  0  0  0  0  0  0
   19.6550  -11.0370   14.2590 C   0  0  0  0  0  0  0  0  0  0  0  0
   19.9650  -12.1780   14.9970 C   0  0  0  0  0  0  0  0  0  0  0  0
   18.9680  -12.8340   15.7260 C   0  0  0  0  0  0  0  0  0  0  0  0
   11.6811   -9.4699   22.7565 H   0  0  0  0  0  0  0  0  0  0  0  0
   13.2311   -9.2122   20.8183 H   0  0  0  0  0  0  0  0  0  0  0  0
   11.5276  -13.7576   22.0701 H   0  0  0  0  0  0  0  0  0  0  0  0
    9.7874  -13.1740   24.8609 H   0  0  0  0  0  0  0  0  0  0  0  0
    9.6431  -13.3981   23.0970 H   0  0  0  0  0  0  0  0  0  0  0  0
    9.9987  -10.8198   25.3679 H   0  0  0  0  0  0  0  0  0  0  0  0
   11.1141   -9.8758   24.3444 H   0  0  0  0  0  0  0  0  0  0  0  0
   14.5025  -10.7178   18.8929 H   0  0  0  0  0  0  0  0  0  0  0  0
   12.8904  -14.6659   19.7431 H   0  0  0  0  0  0  0  0  0  0  0  0
   14.1272  -15.3447   18.4049 H   0  0  0  0  0  0  0  0  0  0  0  0
   15.6023  -16.3432   16.6753 H   0  0  0  0  0  0  0  0  0  0  0  0
   17.1878  -14.9149   15.4220 H   0  0  0  0  0  0  0  0  0  0  0  0
   16.3146  -10.8095   15.0008 H   0  0  0  0  0  0  0  0  0  0  0  0
   18.0912   -9.6372   13.7044 H   0  0  0  0  0  0  0  0  0  0  0  0
   20.4329  -10.5264   13.6723 H   0  0  0  0  0  0  0  0  0  0  0  0
   20.9954  -12.5631   15.0061 H   0  0  0  0  0  0  0  0  0  0  0  0
   19.2247  -13.7348   16.3027 H   0  0  0  0  0  0  0  0  0  0  0  0
  1  2  2  0
  1  6  1  0
  1  7  1  0
  2  3  1  0
  3  4  2  0
  4  5  1  0
  4 10  1  0
  5  6  2  0
  5 11  1  0
  7  8  1  0
  7  9  2  3
 10 12  1  0
 11 12  2  0
 12 13  1  0
 13 14  2  0
 13 18  1  0
 14 15  1  0
 15 16  2  0
 16 17  1  0
 17 18  2  0
 17 20  1  0
 18 19  1  0
 20 21  2  0
 20 25  1  0
 21 22  1  0
 22 23  2  0
 23 24  1  0
 24 25  2  0
  2 26  1  0
  3 27  1  0
  6 28  1  0
  8 29  1  0
  8 30  1  0
  9 31  1  0
  9 32  1  0
 10 33  1  0
 11 34  1  0
 14 35  1  0
 15 36  1  0
 16 37  1  0
 21 38  1  0
 22 39  1  0
 23 40  1  0
 24 41  1  0
 25 42  1  0
M  CHG  2   9   1  19  -1
A    1
C1
A    2
C2
A    3
C3
A    4
C4
A    5
C5
A    6
C6
A    7
C7
A    8
N1
A    9
N2
A   10
N3
A   11
CN4
A   12
C8
A   13
C1'
A   14
C2'
A   15
C3'
A   16
C4'
A   17
C5'
A   18
C6'
A   19
O6'
A   20
C1B
A   21
C2B
A   22
C3B
A   23
C4B
A   24
C5B
A   25
C6B
M  END
