1O5M_336_B_3001
     RDKit          3D

 67 71  0  0  0  0  0  0  0  0999 V2000
  187.0850  131.7040   33.5950 C   0  0  0  0  0  0  0  0  0  0  0  0
  186.5480  129.3030   32.9650 C   0  0  0  0  0  0  0  0  0  0  0  0
  185.5670  129.2750   34.1290 C   0  0  0  0  0  0  0  0  0  0  0  0
  185.9990  130.1840   35.2580 C   0  0  0  0  0  0  0  0  0  0  0  0
  186.2300  131.5440   34.7780 N   0  0  0  0  0  0  0  0  0  0  0  0
  186.7040  130.7330   32.4780 C   0  0  0  0  0  0  0  0  0  0  0  0
  182.9210  123.6340   33.6710 Cl  0  0  0  0  0  0  0  0  0  0  0  0
  189.3290  126.9440   30.2190 C   0  0  0  0  0  0  0  0  0  0  0  0
  183.8560  124.9740   33.1350 C   0  0  0  0  0  0  0  0  0  0  0  0
  185.2100  125.0900   33.4790 C   0  0  0  0  0  0  0  0  0  0  0  0
  187.3990  126.3340   33.4020 C   0  0  0  0  0  0  0  0  0  0  0  0
  188.2570  125.9940   32.2370 C   0  0  0  0  0  0  0  0  0  0  0  0
  183.9730  127.0570   31.9000 C   0  0  0  0  0  0  0  0  0  0  0  0
  189.4490  127.8370   29.1540 C   0  0  0  0  0  0  0  0  0  0  0  0
  188.4800  128.8380   29.0030 C   0  0  0  0  0  0  0  0  0  0  0  0
  187.4640  128.9310   29.8640 N   0  0  0  0  0  0  0  0  0  0  0  0
  186.1110  128.3570   31.7660 C   0  0  0  0  0  0  0  0  0  0  0  0
  183.2440  125.9510   32.3480 C   0  0  0  0  0  0  0  0  0  0  0  0
  190.9020  127.6770   27.9550 Br  0  0  0  0  0  0  0  0  0  0  0  0
  183.0970  128.3630   30.8380 Br  0  0  0  0  0  0  0  0  0  0  0  0
  187.3140  128.0810   30.9040 C   0  0  0  0  0  0  0  0  0  0  0  0
  185.3350  127.1790   32.2400 C   0  0  0  0  0  0  0  0  0  0  0  0
  188.2680  127.0420   31.1220 C   0  0  0  0  0  0  0  0  0  0  0  0
  185.9430  126.1930   33.0310 C   0  0  0  0  0  0  0  0  0  0  0  0
  185.6190  136.4690   35.1620 C   0  0  0  0  0  0  0  0  0  0  0  0
  185.5270  137.5850   36.2030 C   0  0  0  0  0  0  0  0  0  0  0  0
  185.7850  135.0940   35.8090 C   0  0  0  0  0  0  0  0  0  0  0  0
  186.8820  135.0780   36.8700 C   0  0  0  0  0  0  0  0  0  0  0  0
  186.6240  137.4630   37.1640 N   0  0  0  0  0  0  0  0  0  0  0  0
  187.5070  138.4670   37.3900 C   0  0  0  0  0  0  0  0  0  0  0  0
  188.4200  138.1080   38.3050 N   0  0  0  0  0  0  0  0  0  0  0  0
  187.5000  139.5720   36.8480 O   0  0  0  0  0  0  0  0  0  0  0  0
  186.7260  136.1870   37.8620 C   0  0  0  0  0  0  0  0  0  0  0  0
  185.9960  133.9640   34.8060 C   0  0  0  0  0  0  0  0  0  0  0  0
  184.9540  132.5040   36.3980 O   0  0  0  0  0  0  0  0  0  0  0  0
  185.6730  132.5960   35.4100 C   0  0  0  0  0  0  0  0  0  0  0  0
  186.9842  132.7334   33.2205 H   0  0  0  0  0  0  0  0  0  0  0  0
  188.1217  131.4890   33.8933 H   0  0  0  0  0  0  0  0  0  0  0  0
  187.5106  128.9168   33.3315 H   0  0  0  0  0  0  0  0  0  0  0  0
  184.5799  129.6007   33.7691 H   0  0  0  0  0  0  0  0  0  0  0  0
  185.5304  128.2463   34.5169 H   0  0  0  0  0  0  0  0  0  0  0  0
  185.2115  130.2027   36.0257 H   0  0  0  0  0  0  0  0  0  0  0  0
  186.9390  129.7971   35.6783 H   0  0  0  0  0  0  0  0  0  0  0  0
  185.7500  131.0602   32.0389 H   0  0  0  0  0  0  0  0  0  0  0  0
  187.5195  130.7430   31.7398 H   0  0  0  0  0  0  0  0  0  0  0  0
  190.0806  126.1515   30.3494 H   0  0  0  0  0  0  0  0  0  0  0  0
  185.6924  124.3185   34.0971 H   0  0  0  0  0  0  0  0  0  0  0  0
  187.6299  125.6537   34.2350 H   0  0  0  0  0  0  0  0  0  0  0  0
  187.5953  127.3736   33.7031 H   0  0  0  0  0  0  0  0  0  0  0  0
  189.2885  125.8663   32.5971 H   0  0  0  0  0  0  0  0  0  0  0  0
  187.8348  125.0782   31.7977 H   0  0  0  0  0  0  0  0  0  0  0  0
  188.5570  129.5518   28.1696 H   0  0  0  0  0  0  0  0  0  0  0  0
  185.3844  128.8558   31.1078 H   0  0  0  0  0  0  0  0  0  0  0  0
  182.1822  125.8503   32.0787 H   0  0  0  0  0  0  0  0  0  0  0  0
  184.6989  136.4690   34.5592 H   0  0  0  0  0  0  0  0  0  0  0  0
  186.5042  136.6594   34.5373 H   0  0  0  0  0  0  0  0  0  0  0  0
  185.5912  138.5603   35.6984 H   0  0  0  0  0  0  0  0  0  0  0  0
  184.5683  137.5040   36.7363 H   0  0  0  0  0  0  0  0  0  0  0  0
  184.8219  134.9032   36.3051 H   0  0  0  0  0  0  0  0  0  0  0  0
  186.8440  134.1171   37.4042 H   0  0  0  0  0  0  0  0  0  0  0  0
  187.8468  135.2150   36.3598 H   0  0  0  0  0  0  0  0  0  0  0  0
  188.2043  138.1928   39.3086 H   0  0  0  0  0  0  0  0  0  0  0  0
  189.3367  137.7475   38.0039 H   0  0  0  0  0  0  0  0  0  0  0  0
  185.8144  136.0211   38.4549 H   0  0  0  0  0  0  0  0  0  0  0  0
  187.6021  136.2056   38.5268 H   0  0  0  0  0  0  0  0  0  0  0  0
  185.3419  134.1326   33.9378 H   0  0  0  0  0  0  0  0  0  0  0  0
  187.0557  133.9642   34.5108 H   0  0  0  0  0  0  0  0  0  0  0  0
  1  5  1  0
  1  6  1  0
  2  3  1  0
  2  6  1  0
  2 17  1  0
  3  4  1  0
  4  5  1  0
  5 36  1  0
  7  9  1  0
  8 14  2  0
  8 23  1  0
  9 10  1  0
  9 18  2  0
 10 24  2  0
 11 12  1  0
 11 24  1  0
 12 23  1  0
 13 18  1  0
 13 20  1  0
 13 22  2  0
 14 15  1  0
 14 19  1  0
 15 16  2  0
 16 21  1  0
 17 21  1  0
 17 22  1  0
 21 23  2  0
 22 24  1  0
 25 26  1  0
 25 27  1  0
 26 29  1  0
 27 28  1  0
 27 34  1  0
 28 33  1  0
 29 30  1  0
 29 33  1  0
 30 31  1  0
 30 32  2  0
 34 36  1  0
 35 36  2  0
  1 37  1  0
  1 38  1  0
  2 39  1  0
  3 40  1  0
  3 41  1  0
  4 42  1  0
  4 43  1  0
  6 44  1  0
  6 45  1  0
  8 46  1  0
 10 47  1  0
 11 48  1  0
 11 49  1  0
 12 50  1  0
 12 51  1  0
 15 52  1  0
 17 53  1  0
 18 54  1  0
 25 55  1  0
 25 56  1  0
 26 57  1  0
 26 58  1  0
 27 59  1  0
 28 60  1  0
 28 61  1  0
 31 62  1  0
 31 63  1  0
 33 64  1  0
 33 65  1  0
 34 66  1  0
 34 67  1  0
A    1
C1
A    2
C4
A    3
C6
A    4
C9
A    5
N12
A    6
C13
A    7
CL16
A    8
C17
A    9
C19
A   10
C20
A   11
C22
A   12
C25
A   13
C28
A   14
C29
A   15
C30
A   16
N32
A   17
C33
A   18
C35
A   19
BR37
A   20
BR38
A   21
C39
A   22
C40
A   23
C41
A   24
C42
A   25
C43
A   26
C46
A   27
C49
A   28
C51
A   29
N54
A   30
C55
A   31
N56
A   32
O57
A   33
C58
A   34
C61
A   35
O64
A   36
C65
M  END
