1EQJ_2PG_A_801
     RDKit          3D

 18 17  0  0  0  0  0  0  0  0999 V2000
   14.7270   77.5390    9.3820 C   0  0  0  0  0  0  0  0  0  0  0  0
   15.5660   78.1080    8.2220 C   0  0  0  0  0  0  0  0  0  0  0  0
   15.9620   79.5330    8.5870 C   0  0  0  0  0  0  0  0  0  0  0  0
   16.5470   76.0810    6.8100 P   0  0  0  0  0  0  0  0  0  0  0  0
   15.4720   77.1250   10.3610 O   0  0  0  0  0  0  0  0  0  0  0  0
   13.4420   77.5100    9.2900 O   0  0  0  0  0  0  0  0  0  0  0  0
   14.9170   80.4530    8.8310 O   0  0  0  0  0  0  0  0  0  0  0  0
   16.6800   77.2260    7.9180 O   0  0  0  0  0  0  0  0  0  0  0  0
   15.5070   75.1290    7.3140 O   0  0  0  0  0  0  0  0  0  0  0  0
   16.1000   76.7410    5.5410 O   0  0  0  0  0  0  0  0  0  0  0  0
   17.8230   75.3910    6.6370 O   0  0  0  0  0  0  0  0  0  0  0  0
   14.9901   78.1569    7.2861 H   0  0  0  0  0  0  0  0  0  0  0  0
   16.5771   79.4823    9.4975 H   0  0  0  0  0  0  0  0  0  0  0  0
   16.4775   79.9204    7.6958 H   0  0  0  0  0  0  0  0  0  0  0  0
   12.8872   77.4975   10.1098 H   0  0  0  0  0  0  0  0  0  0  0  0
   14.7940   80.5613    9.8073 H   0  0  0  0  0  0  0  0  0  0  0  0
   15.5583   77.5408    5.7580 H   0  0  0  0  0  0  0  0  0  0  0  0
   18.2085   75.1826    7.5247 H   0  0  0  0  0  0  0  0  0  0  0  0
  1  2  1  0
  1  5  2  0
  1  6  1  0
  2  3  1  0
  2  8  1  0
  3  7  1  0
  4  8  1  0
  4  9  2  0
  4 10  1  0
  4 11  1  0
  2 12  1  0
  3 13  1  0
  3 14  1  0
  6 15  1  0
  7 16  1  0
 10 17  1  0
 11 18  1  0
A    1
C1
A    2
C2
A    3
C3
A    4
P
A    5
O1
A    6
O2
A    7
O3
A    8
O1P
A    9
O2P
A   10
O3P
A   11
O4P
M  END
