1O6H_W37_A_800
     RDKit          3D

 58 60  0  0  0  0  0  0  0  0999 V2000
   63.4410   69.1800   58.4770 C   0  0  0  0  0  0  0  0  0  0  0  0
   62.3480   69.9280   58.7130 C   0  0  0  0  0  0  0  0  0  0  0  0
   61.8000   70.1160   60.1100 C   0  0  0  0  0  0  0  0  0  0  0  0
   62.3770   71.2880   60.8040 N   0  0  0  0  0  0  0  0  0  0  0  0
   63.4980   70.8530   61.6670 C   0  0  0  0  0  0  0  0  0  0  0  0
   63.0880   69.9340   62.8220 C   0  0  0  0  0  0  0  0  0  0  0  0
   64.1370   70.0940   63.9100 C   0  0  0  0  0  0  0  0  0  0  0  0
   63.4330   70.4590   65.2150 C   0  0  0  0  0  0  0  0  0  0  0  0
   63.6670   69.3460   66.2610 C   0  0  0  0  0  0  0  0  0  0  0  0
   64.9210   69.6710   67.0850 C   0  0  0  0  0  0  0  0  0  0  0  0
   64.6670   70.7820   67.9520 O   0  0  0  0  0  0  0  0  0  0  0  0
   68.8360   69.6140   72.3640 C   0  0  0  0  0  0  0  0  0  0  0  0
   65.6580   71.0550   68.8950 C   0  0  0  0  0  0  0  0  0  0  0  0
   67.8300   69.2930   71.4180 C   0  0  0  0  0  0  0  0  0  0  0  0
   66.0810   72.3970   69.0690 C   0  0  0  0  0  0  0  0  0  0  0  0
   67.0840   72.7270   70.0140 C   0  0  0  0  0  0  0  0  0  0  0  0
   69.2380   70.9190   72.5150 N   0  0  0  0  0  0  0  0  0  0  0  0
   68.6990   71.9680   71.7750 C   0  0  0  0  0  0  0  0  0  0  0  0
   67.6810   71.7130   70.8060 C   0  0  0  0  0  0  0  0  0  0  0  0
   67.2490   70.3360   70.6330 C   0  0  0  0  0  0  0  0  0  0  0  0
   66.2460   70.0260   69.6840 C   0  0  0  0  0  0  0  0  0  0  0  0
   69.2670   73.2900   72.0940 C   0  0  0  0  0  0  0  0  0  0  0  0
   70.6190   73.5370   71.7800 C   0  0  0  0  0  0  0  0  0  0  0  0
   71.1990   74.7780   72.0990 C   0  0  0  0  0  0  0  0  0  0  0  0
   70.4390   75.7860   72.7340 C   0  0  0  0  0  0  0  0  0  0  0  0
   69.0740   75.5540   73.0480 C   0  0  0  0  0  0  0  0  0  0  0  0
   68.4840   74.3020   72.7280 C   0  0  0  0  0  0  0  0  0  0  0  0
   71.2410   77.3940   73.1700 Br  0  0  0  0  0  0  0  0  0  0  0  0
   61.3480   71.9690   61.6110 C   0  0  0  0  0  0  0  0  0  0  0  0
   63.8155   69.0622   57.4494 H   0  0  0  0  0  0  0  0  0  0  0  0
   63.9602   68.6862   59.3116 H   0  0  0  0  0  0  0  0  0  0  0  0
   61.8397   70.4155   57.8680 H   0  0  0  0  0  0  0  0  0  0  0  0
   60.7101   70.2491   60.0441 H   0  0  0  0  0  0  0  0  0  0  0  0
   62.0699   69.2227   60.6924 H   0  0  0  0  0  0  0  0  0  0  0  0
   64.2254   70.3153   61.0411 H   0  0  0  0  0  0  0  0  0  0  0  0
   63.9146   71.7633   62.1229 H   0  0  0  0  0  0  0  0  0  0  0  0
   62.0990   70.2263   63.2047 H   0  0  0  0  0  0  0  0  0  0  0  0
   63.0247   68.8878   62.4881 H   0  0  0  0  0  0  0  0  0  0  0  0
   64.6865   69.1496   64.0369 H   0  0  0  0  0  0  0  0  0  0  0  0
   64.8487   70.8855   63.6326 H   0  0  0  0  0  0  0  0  0  0  0  0
   63.8368   71.4090   65.5951 H   0  0  0  0  0  0  0  0  0  0  0  0
   62.3538   70.5644   65.0300 H   0  0  0  0  0  0  0  0  0  0  0  0
   62.7957   69.2824   66.9295 H   0  0  0  0  0  0  0  0  0  0  0  0
   63.8065   68.3838   65.7465 H   0  0  0  0  0  0  0  0  0  0  0  0
   65.1966   68.7940   67.6890 H   0  0  0  0  0  0  0  0  0  0  0  0
   65.7435   69.9289   66.4016 H   0  0  0  0  0  0  0  0  0  0  0  0
   69.2929   68.8213   72.9747 H   0  0  0  0  0  0  0  0  0  0  0  0
   67.5001   68.2515   71.2896 H   0  0  0  0  0  0  0  0  0  0  0  0
   65.6244   73.1928   68.4622 H   0  0  0  0  0  0  0  0  0  0  0  0
   67.4008   73.7735   70.1338 H   0  0  0  0  0  0  0  0  0  0  0  0
   65.9187   68.9838   69.5552 H   0  0  0  0  0  0  0  0  0  0  0  0
   71.2200   72.7595   71.2857 H   0  0  0  0  0  0  0  0  0  0  0  0
   72.2543   74.9657   71.8518 H   0  0  0  0  0  0  0  0  0  0  0  0
   68.4771   76.3387   73.5359 H   0  0  0  0  0  0  0  0  0  0  0  0
   67.4273   74.1127   72.9678 H   0  0  0  0  0  0  0  0  0  0  0  0
   61.5655   71.8251   62.6796 H   0  0  0  0  0  0  0  0  0  0  0  0
   61.3511   73.0440   61.3777 H   0  0  0  0  0  0  0  0  0  0  0  0
   60.3597   71.5460   61.3777 H   0  0  0  0  0  0  0  0  0  0  0  0
  1  2  2  3
  2  3  1  0
  3  4  1  0
  4  5  1  0
  4 29  1  0
  5  6  1  0
  6  7  1  0
  7  8  1  0
  8  9  1  0
  9 10  1  0
 10 11  1  0
 11 13  1  0
 12 14  2  0
 12 17  1  0
 13 15  1  0
 13 21  2  0
 14 20  1  0
 15 16  2  0
 16 19  1  0
 17 18  2  0
 18 19  1  0
 18 22  1  0
 19 20  2  0
 20 21  1  0
 22 23  2  0
 22 27  1  0
 23 24  1  0
 24 25  2  0
 25 26  1  0
 25 28  1  0
 26 27  2  0
  1 30  1  0
  1 31  1  0
  2 32  1  0
  3 33  1  0
  3 34  1  0
  5 35  1  0
  5 36  1  0
  6 37  1  0
  6 38  1  0
  7 39  1  0
  7 40  1  0
  8 41  1  0
  8 42  1  0
  9 43  1  0
  9 44  1  0
 10 45  1  0
 10 46  1  0
 12 47  1  0
 14 48  1  0
 15 49  1  0
 16 50  1  0
 21 51  1  0
 23 52  1  0
 24 53  1  0
 26 54  1  0
 27 55  1  0
 29 56  1  0
 29 57  1  0
 29 58  1  0
A    1
C3A
A    2
C2A
A    3
C1A
A    4
N1
A    5
C1B
A    6
C2B
A    7
C3B
A    8
C4B
A    9
C5B
A   10
C6B
A   11
O
A   12
C3C
A   13
C6C
A   14
C4C
A   15
C7C
A   16
C8C
A   17
N2C
A   18
C1C
A   19
C8P
A   20
C4P
A   21
C5C
A   22
C1D
A   23
C2D
A   24
C3D
A   25
C4D
A   26
C5D
A   27
C6D
A   28
BR29
A   29
C1E
M  END
