1O7A_GDL_A_600
     RDKit          3D

 28 28  0  0  0  0  0  0  0  0999 V2000
   71.8230   81.4290   26.7940 C   0  0  0  0  0  0  0  0  0  0  0  0
   71.2070   80.3690   27.8930 C   0  0  0  0  0  0  0  0  0  0  0  0
   71.2870   78.8030   27.3820 C   0  0  0  0  0  0  0  0  0  0  0  0
   71.3320   78.7330   25.8180 C   0  0  0  0  0  0  0  0  0  0  0  0
   72.4610   79.6150   25.3320 C   0  0  0  0  0  0  0  0  0  0  0  0
   72.5920   79.5240   23.7830 C   0  0  0  0  0  0  0  0  0  0  0  0
   73.2780   80.5070   29.3480 C   0  0  0  0  0  0  0  0  0  0  0  0
   73.8100   80.7490   30.7800 C   0  0  0  0  0  0  0  0  0  0  0  0
   71.9130   80.4840   29.2020 N   0  0  0  0  0  0  0  0  0  0  0  0
   71.7520   82.6240   27.1520 O   0  0  0  0  0  0  0  0  0  0  0  0
   70.1480   78.1210   27.8860 O   0  0  0  0  0  0  0  0  0  0  0  0
   71.5620   77.4000   25.4340 O   0  0  0  0  0  0  0  0  0  0  0  0
   72.3230   81.0380   25.6810 O   0  0  0  0  0  0  0  0  0  0  0  0
   73.8080   80.1880   23.4040 O   0  0  0  0  0  0  0  0  0  0  0  0
   74.0580   80.5410   28.3880 O   0  0  0  0  0  0  0  0  0  0  0  0
   70.1473   80.6394   28.0111 H   0  0  0  0  0  0  0  0  0  0  0  0
   72.2063   78.3281   27.7554 H   0  0  0  0  0  0  0  0  0  0  0  0
   70.3827   79.0781   25.3824 H   0  0  0  0  0  0  0  0  0  0  0  0
   73.3536   79.2306   25.8473 H   0  0  0  0  0  0  0  0  0  0  0  0
   72.6293   78.4695   23.4722 H   0  0  0  0  0  0  0  0  0  0  0  0
   71.7276   79.9994   23.2963 H   0  0  0  0  0  0  0  0  0  0  0  0
   73.0621   80.4088   31.5114 H   0  0  0  0  0  0  0  0  0  0  0  0
   74.7450   80.1876   30.9235 H   0  0  0  0  0  0  0  0  0  0  0  0
   74.0012   81.8227   30.9235 H   0  0  0  0  0  0  0  0  0  0  0  0
   71.3377   80.5506   30.0537 H   0  0  0  0  0  0  0  0  0  0  0  0
   70.1675   78.1327   28.8757 H   0  0  0  0  0  0  0  0  0  0  0  0
   71.6593   76.8360   26.2418 H   0  0  0  0  0  0  0  0  0  0  0  0
   74.3035   80.4586   24.2172 H   0  0  0  0  0  0  0  0  0  0  0  0
  1  2  1  0
  1 10  2  0
  1 13  1  0
  2  3  1  0
  2  9  1  0
  3  4  1  0
  3 11  1  0
  4  5  1  0
  4 12  1  0
  5  6  1  0
  5 13  1  0
  6 14  1  0
  7  8  1  0
  7  9  1  0
  7 15  2  0
  2 16  1  0
  3 17  1  0
  4 18  1  0
  5 19  1  0
  6 20  1  0
  6 21  1  0
  8 22  1  0
  8 23  1  0
  8 24  1  0
  9 25  1  0
 11 26  1  0
 12 27  1  0
 14 28  1  0
A    1
C1
A    2
C2
A    3
C3
A    4
C4
A    5
C5
A    6
C6
A    7
C7
A    8
C8
A    9
N1
A   10
O1
A   11
O3
A   12
O4
A   13
O5
A   14
O6
A   15
O7
M  END
