1O7P_NDH_A_1450
     RDKit          3D

 22 23  0  0  0  0  0  0  0  0999 V2000
   11.7010   53.0100   78.8580 O   0  0  0  0  0  0  0  0  0  0  0  0
   12.9460   52.6390   79.5420 C   0  0  0  0  0  0  0  0  0  0  0  0
   12.9700   53.5890   80.7850 C   0  0  0  0  0  0  0  0  0  0  0  0
   11.7480   54.3710   80.6920 O   0  0  0  0  0  0  0  0  0  0  0  0
   13.1040   52.8270   82.1050 C   0  0  0  0  0  0  0  0  0  0  0  0
   13.4380   51.5030   82.1410 C   0  0  0  0  0  0  0  0  0  0  0  0
   13.9080   50.7460   80.8790 C   0  0  0  0  0  0  0  0  0  0  0  0
   13.6960   51.2980   79.5880 C   0  0  0  0  0  0  0  0  0  0  0  0
   14.0960   50.6380   78.4410 C   0  0  0  0  0  0  0  0  0  0  0  0
   14.5780   49.5210   80.9780 C   0  0  0  0  0  0  0  0  0  0  0  0
   15.0030   48.8750   79.8210 C   0  0  0  0  0  0  0  0  0  0  0  0
   14.7590   49.4220   78.5600 C   0  0  0  0  0  0  0  0  0  0  0  0
   11.0044   53.2176   79.5302 H   0  0  0  0  0  0  0  0  0  0  0  0
   13.7083   52.6667   78.7494 H   0  0  0  0  0  0  0  0  0  0  0  0
   13.8549   54.2424   80.7800 H   0  0  0  0  0  0  0  0  0  0  0  0
   11.4203   54.5807   81.6024 H   0  0  0  0  0  0  0  0  0  0  0  0
   12.9265   53.3599   83.0508 H   0  0  0  0  0  0  0  0  0  0  0  0
   13.3704   50.9605   83.0955 H   0  0  0  0  0  0  0  0  0  0  0  0
   13.8927   51.0685   77.4494 H   0  0  0  0  0  0  0  0  0  0  0  0
   14.7674   49.0718   81.9641 H   0  0  0  0  0  0  0  0  0  0  0  0
   15.5397   47.9182   79.9013 H   0  0  0  0  0  0  0  0  0  0  0  0
   15.0925   48.8889   77.6574 H   0  0  0  0  0  0  0  0  0  0  0  0
  1  2  1  0
  2  3  1  0
  2  8  1  0
  3  4  1  0
  3  5  1  0
  5  6  2  0
  6  7  1  0
  7  8  2  0
  7 10  1  0
  8  9  1  0
  9 12  2  0
 10 11  2  0
 11 12  1  0
  1 13  1  0
  2 14  1  0
  3 15  1  0
  4 16  1  0
  5 17  1  0
  6 18  1  0
  9 19  1  0
 10 20  1  0
 11 21  1  0
 12 22  1  0
A    1
OH2
A    2
C1
A    3
C2
A    4
OH1
A    5
C3
A    6
C4
A    7
C4A
A    8
C8A
A    9
C8
A   10
C5
A   11
C6
A   12
C7
M  END
