1OB2_KIR_A_1394
     RDKit          3D

117119  0  0  0  0  0  0  0  0999 V2000
  131.7470   18.6450  108.7860 C   0  0  0  0  0  0  0  0  0  0  0  0
  132.6140   18.9410  107.6640 C   0  0  0  0  0  0  0  0  0  0  0  0
  132.8740   20.3320  107.3540 C   0  0  0  0  0  0  0  0  0  0  0  0
  132.2840   21.3760  108.1430 C   0  0  0  0  0  0  0  0  0  0  0  0
  131.4360   21.0010  109.2390 C   0  0  0  0  0  0  0  0  0  0  0  0
  133.2280   17.8400  106.8430 C   0  0  0  0  0  0  0  0  0  0  0  0
  132.8860   17.6170  105.3670 C   0  0  0  0  0  0  0  0  0  0  0  0
  123.7390   19.6150  100.2420 C   0  0  0  0  0  0  0  0  0  0  0  0
  122.3780   19.9280  100.8470 C   0  0  0  0  0  0  0  0  0  0  0  0
  120.6700   18.9720  103.9620 C   0  0  0  0  0  0  0  0  0  0  0  0
  119.3830   19.1200  104.7570 C   0  0  0  0  0  0  0  0  0  0  0  0
  133.6800   20.6410  106.3030 O   0  0  0  0  0  0  0  0  0  0  0  0
  134.0360   17.1010  107.4140 O   0  0  0  0  0  0  0  0  0  0  0  0
  131.9670   18.4590  104.7400 C   0  0  0  0  0  0  0  0  0  0  0  0
  131.4940   18.4260  103.3500 C   0  0  0  0  0  0  0  0  0  0  0  0
  130.4080   19.1580  103.0780 C   0  0  0  0  0  0  0  0  0  0  0  0
  129.8440   19.2080  101.7450 C   0  0  0  0  0  0  0  0  0  0  0  0
  128.7500   19.9560  101.5380 C   0  0  0  0  0  0  0  0  0  0  0  0
  128.1060   20.0540  100.1630 C   0  0  0  0  0  0  0  0  0  0  0  0
  128.2490   21.4270   99.4820 C   0  0  0  0  0  0  0  0  0  0  0  0
  126.9460   21.4380   98.7030 C   0  0  0  0  0  0  0  0  0  0  0  0
  126.0620   20.3460   99.4050 C   0  0  0  0  0  0  0  0  0  0  0  0
  124.6790   20.8810  100.0260 C   0  0  0  0  0  0  0  0  0  0  0  0
  122.0960   19.3720  102.0620 C   0  0  0  0  0  0  0  0  0  0  0  0
  120.8440   19.5650  102.7770 C   0  0  0  0  0  0  0  0  0  0  0  0
  128.2110   22.4870  100.4570 O   0  0  0  0  0  0  0  0  0  0  0  0
  131.1980   19.6770  109.5200 N   0  0  0  0  0  0  0  0  0  0  0  0
  131.4940   17.4360  109.0930 O   0  0  0  0  0  0  0  0  0  0  0  0
  133.5700   16.4670  104.6330 C   0  0  0  0  0  0  0  0  0  0  0  0
  126.3300   22.7370   98.7540 O   0  0  0  0  0  0  0  0  0  0  0  0
  126.6930   19.8510  100.3070 O   0  0  0  0  0  0  0  0  0  0  0  0
  124.9450   21.6170  101.4080 C   0  0  0  0  0  0  0  0  0  0  0  0
  123.5050   18.9800   98.9660 O   0  0  0  0  0  0  0  0  0  0  0  0
  123.5740   17.5450   99.0770 C   0  0  0  0  0  0  0  0  0  0  0  0
  121.3930   20.8260  100.1020 C   0  0  0  0  0  0  0  0  0  0  0  0
  118.6020   20.2720  104.3340 N   0  0  0  0  0  0  0  0  0  0  0  0
  117.2770   20.1660  103.8480 C   0  0  0  0  0  0  0  0  0  0  0  0
  116.7120   19.0650  103.7530 O   0  0  0  0  0  0  0  0  0  0  0  0
  116.0060   21.3770  101.9340 C   0  0  0  0  0  0  0  0  0  0  0  0
  117.0230   20.9120  100.9570 C   0  0  0  0  0  0  0  0  0  0  0  0
  116.5730   21.4450  103.4280 C   0  0  0  0  0  0  0  0  0  0  0  0
  115.3750   21.7910  104.4690 C   0  0  0  0  0  0  0  0  0  0  0  0
  114.4280   20.6740  104.4660 O   0  0  0  0  0  0  0  0  0  0  0  0
  114.6120   23.0700  104.0870 C   0  0  0  0  0  0  0  0  0  0  0  0
  115.3360   23.9800  104.0260 O   0  0  0  0  0  0  0  0  0  0  0  0
  113.5500   23.2860  105.1830 C   0  0  0  0  0  0  0  0  0  0  0  0
  112.7760   24.4370  104.9450 O   0  0  0  0  0  0  0  0  0  0  0  0
  114.2180   23.3870  106.5960 C   0  0  0  0  0  0  0  0  0  0  0  0
  115.1250   24.6370  106.7260 C   0  0  0  0  0  0  0  0  0  0  0  0
  113.1920   23.5720  107.6880 C   0  0  0  0  0  0  0  0  0  0  0  0
  115.0240   22.0800  106.7590 C   0  0  0  0  0  0  0  0  0  0  0  0
  115.8360   21.8420  105.8340 O   0  0  0  0  0  0  0  0  0  0  0  0
  115.8030   22.0040  108.0570 C   0  0  0  0  0  0  0  0  0  0  0  0
  117.1660   21.9540  108.1440 C   0  0  0  0  0  0  0  0  0  0  0  0
  117.8250   21.8990  109.3940 C   0  0  0  0  0  0  0  0  0  0  0  0
  119.1860   21.8370  109.5300 C   0  0  0  0  0  0  0  0  0  0  0  0
  120.1700   21.8120  108.3650 C   0  0  0  0  0  0  0  0  0  0  0  0
  132.4764   22.4346  107.9141 H   0  0  0  0  0  0  0  0  0  0  0  0
  130.9720   21.7813  109.8602 H   0  0  0  0  0  0  0  0  0  0  0  0
  124.2734   18.9706  100.9555 H   0  0  0  0  0  0  0  0  0  0  0  0
  121.4836   18.3576  104.3749 H   0  0  0  0  0  0  0  0  0  0  0  0
  118.7767   18.2123  104.6208 H   0  0  0  0  0  0  0  0  0  0  0  0
  119.6547   19.2670  105.8127 H   0  0  0  0  0  0  0  0  0  0  0  0
  134.5920   20.9906  106.4646 H   0  0  0  0  0  0  0  0  0  0  0  0
  131.5401   19.2529  105.3704 H   0  0  0  0  0  0  0  0  0  0  0  0
  132.0039   17.8330  102.5765 H   0  0  0  0  0  0  0  0  0  0  0  0
  129.9326   19.7350  103.8849 H   0  0  0  0  0  0  0  0  0  0  0  0
  130.3032   18.6443  100.9195 H   0  0  0  0  0  0  0  0  0  0  0  0
  128.3093   20.5101  102.3799 H   0  0  0  0  0  0  0  0  0  0  0  0
  128.6200   19.3015   99.5470 H   0  0  0  0  0  0  0  0  0  0  0  0
  129.1762   21.5683   98.9072 H   0  0  0  0  0  0  0  0  0  0  0  0
  127.0886   21.2227   97.6337 H   0  0  0  0  0  0  0  0  0  0  0  0
  125.8013   19.6311   98.6107 H   0  0  0  0  0  0  0  0  0  0  0  0
  124.2022   21.6062   99.3501 H   0  0  0  0  0  0  0  0  0  0  0  0
  122.8640   18.7383  102.5295 H   0  0  0  0  0  0  0  0  0  0  0  0
  120.0491   20.1922  102.3471 H   0  0  0  0  0  0  0  0  0  0  0  0
  128.2249   22.0985  101.3675 H   0  0  0  0  0  0  0  0  0  0  0  0
  130.5831   19.4446  110.3130 H   0  0  0  0  0  0  0  0  0  0  0  0
  133.9893   15.7620  105.3659 H   0  0  0  0  0  0  0  0  0  0  0  0
  132.8349   15.9459  104.0020 H   0  0  0  0  0  0  0  0  0  0  0  0
  134.3788   16.8642  104.0020 H   0  0  0  0  0  0  0  0  0  0  0  0
  126.2029   23.0051   99.6985 H   0  0  0  0  0  0  0  0  0  0  0  0
  124.6997   20.9382  102.2381 H   0  0  0  0  0  0  0  0  0  0  0  0
  126.0045   21.9060  101.4715 H   0  0  0  0  0  0  0  0  0  0  0  0
  124.3151   22.5166  101.4715 H   0  0  0  0  0  0  0  0  0  0  0  0
  123.5877   17.2596  100.1393 H   0  0  0  0  0  0  0  0  0  0  0  0
  122.6964   17.0968   98.5882 H   0  0  0  0  0  0  0  0  0  0  0  0
  124.4906   17.1831   98.5882 H   0  0  0  0  0  0  0  0  0  0  0  0
  120.7826   21.3825  100.8284 H   0  0  0  0  0  0  0  0  0  0  0  0
  121.9485   21.5349   99.4705 H   0  0  0  0  0  0  0  0  0  0  0  0
  120.7383   20.2075   99.4705 H   0  0  0  0  0  0  0  0  0  0  0  0
  119.0323   21.2061  104.3907 H   0  0  0  0  0  0  0  0  0  0  0  0
  115.6682   22.3816  101.6395 H   0  0  0  0  0  0  0  0  0  0  0  0
  115.1792   20.6515  101.9245 H   0  0  0  0  0  0  0  0  0  0  0  0
  117.8947   20.5134  101.4968 H   0  0  0  0  0  0  0  0  0  0  0  0
  116.5904   20.1222  100.3253 H   0  0  0  0  0  0  0  0  0  0  0  0
  117.3373   21.7559  100.3253 H   0  0  0  0  0  0  0  0  0  0  0  0
  117.3247   22.2479  103.4480 H   0  0  0  0  0  0  0  0  0  0  0  0
  114.2134   20.4208  105.3987 H   0  0  0  0  0  0  0  0  0  0  0  0
  114.1436   22.9720  103.0965 H   0  0  0  0  0  0  0  0  0  0  0  0
  115.5716   24.2761  104.9408 H   0  0  0  0  0  0  0  0  0  0  0  0
  112.8835   22.4113  105.1571 H   0  0  0  0  0  0  0  0  0  0  0  0
  112.5064   24.8379  105.8091 H   0  0  0  0  0  0  0  0  0  0  0  0
  115.2885   24.8623  107.7902 H   0  0  0  0  0  0  0  0  0  0  0  0
  116.0921   24.4405  106.2400 H   0  0  0  0  0  0  0  0  0  0  0  0
  114.6382   25.4954  106.2400 H   0  0  0  0  0  0  0  0  0  0  0  0
  113.6810   23.4838  108.6694 H   0  0  0  0  0  0  0  0  0  0  0  0
  112.7331   24.5674  107.5951 H   0  0  0  0  0  0  0  0  0  0  0  0
  112.4143   22.7996  107.5951 H   0  0  0  0  0  0  0  0  0  0  0  0
  114.2258   21.3233  106.7428 H   0  0  0  0  0  0  0  0  0  0  0  0
  115.2304   21.9879  108.9961 H   0  0  0  0  0  0  0  0  0  0  0  0
  117.7640   21.9566  107.2207 H   0  0  0  0  0  0  0  0  0  0  0  0
  117.2109   21.9064  110.3066 H   0  0  0  0  0  0  0  0  0  0  0  0
  119.5980   21.8029  110.5494 H   0  0  0  0  0  0  0  0  0  0  0  0
  121.1985   21.7859  108.7542 H   0  0  0  0  0  0  0  0  0  0  0  0
  119.9878   20.9182  107.7503 H   0  0  0  0  0  0  0  0  0  0  0  0
  120.0334   22.7139  107.7503 H   0  0  0  0  0  0  0  0  0  0  0  0
  1  2  1  0
  1 27  1  0
  1 28  2  0
  2  3  2  0
  2  6  1  0
  3  4  1  0
  3 12  1  0
  4  5  2  0
  5 27  1  0
  6  7  1  0
  6 13  2  0
  7 14  2  0
  7 29  1  0
  8  9  1  0
  8 23  1  0
  8 33  1  0
  9 24  2  0
  9 35  1  0
 10 11  1  0
 10 25  2  0
 11 36  1  0
 14 15  1  0
 15 16  2  0
 16 17  1  0
 17 18  2  0
 18 19  1  0
 19 20  1  0
 19 31  1  0
 20 21  1  0
 20 26  1  0
 21 22  1  0
 21 30  1  0
 22 23  1  0
 22 31  1  0
 23 32  1  0
 24 25  1  0
 33 34  1  0
 36 37  1  0
 37 38  2  0
 37 41  1  0
 39 40  1  0
 39 41  1  0
 41 42  1  0
 42 43  1  0
 42 44  1  0
 42 52  1  0
 44 45  1  0
 44 46  1  0
 46 47  1  0
 46 48  1  0
 48 49  1  0
 48 50  1  0
 48 51  1  0
 51 52  1  0
 51 53  1  0
 53 54  2  0
 54 55  1  0
 55 56  2  0
 56 57  1  0
  4 58  1  0
  5 59  1  0
  8 60  1  0
 10 61  1  0
 11 62  1  0
 11 63  1  0
 12 64  1  0
 14 65  1  0
 15 66  1  0
 16 67  1  0
 17 68  1  0
 18 69  1  0
 19 70  1  0
 20 71  1  0
 21 72  1  0
 22 73  1  0
 23 74  1  0
 24 75  1  0
 25 76  1  0
 26 77  1  0
 27 78  1  0
 29 79  1  0
 29 80  1  0
 29 81  1  0
 30 82  1  0
 32 83  1  0
 32 84  1  0
 32 85  1  0
 34 86  1  0
 34 87  1  0
 34 88  1  0
 35 89  1  0
 35 90  1  0
 35 91  1  0
 36 92  1  0
 39 93  1  0
 39 94  1  0
 40 95  1  0
 40 96  1  0
 40 97  1  0
 41 98  1  0
 43 99  1  0
 44100  1  0
 45101  1  0
 46102  1  0
 47103  1  0
 49104  1  0
 49105  1  0
 49106  1  0
 50107  1  0
 50108  1  0
 50109  1  0
 51110  1  0
 53111  1  0
 54112  1  0
 55113  1  0
 56114  1  0
 57115  1  0
 57116  1  0
 57117  1  0
A    1
C2
A    2
C3
A    3
C4
A    4
C5
A    5
C6
A    6
C7
A    7
C8
A    8
C20
A    9
C21
A   10
C24
A   11
C25
A   12
O4
A   13
O7
A   14
C9
A   15
C10
A   16
C11
A   17
C12
A   18
C13
A   19
C14
A   20
C15
A   21
C16
A   22
C17
A   23
C19
A   24
C22
A   25
C23
A   26
O15
A   27
N1
A   28
O2
A   29
C41
A   30
O16
A   31
O18
A   32
C42
A   33
O20
A   34
C43
A   35
C44
A   36
N26
A   37
C27
A   38
O27
A   39
C45
A   40
C46
A   41
C28
A   42
C29
A   43
O29
A   44
C30
A   45
O30
A   46
C31
A   47
O31
A   48
C32
A   49
C47
A   50
C48
A   51
C33
A   52
O34
A   53
C35
A   54
C36
A   55
C37
A   56
C38
A   57
C39
M  END
