1OD7_SUW_A_201
     RDKit          3D

 59 61  0  0  0  0  0  0  0  0999 V2000
   61.3490   25.3810   16.2320 C   0  0  0  0  0  0  0  0  0  0  0  0
   60.5660   24.7320   15.4870 O   0  0  0  0  0  0  0  0  0  0  0  0
   61.4790   25.1780   17.4750 O   0  0  0  0  0  0  0  0  0  0  0  0
   62.1920   26.4720   15.5950 C   0  0  0  0  0  0  0  0  0  0  0  0
   63.1790   25.7380   14.9270 O   0  0  0  0  0  0  0  0  0  0  0  0
   61.5040   27.3660   14.5600 C   0  0  0  0  0  0  0  0  0  0  0  0
   60.7140   28.4800   15.2770 C   0  0  0  0  0  0  0  0  0  0  0  0
   60.2630   29.4470   14.3440 O   0  0  0  0  0  0  0  0  0  0  0  0
   61.5340   29.2200   16.3510 C   0  0  0  0  0  0  0  0  0  0  0  0
   60.6210   30.1650   16.9740 N   0  0  0  0  0  0  0  0  0  0  0  0
   60.9430   31.4610   17.0570 C   0  0  0  0  0  0  0  0  0  0  0  0
   61.9400   31.9670   16.5020 O   0  0  0  0  0  0  0  0  0  0  0  0
   60.0440   32.3500   17.8800 C   0  0  0  0  0  0  0  0  0  0  0  0
   62.1050   28.1700   17.3280 C   0  0  0  0  0  0  0  0  0  0  0  0
   62.9130   27.1900   16.6000 O   0  0  0  0  0  0  0  0  0  0  0  0
   62.9410   28.7060   18.4550 C   0  0  0  0  0  0  0  0  0  0  0  0
   63.9770   29.4790   17.8920 O   0  0  0  0  0  0  0  0  0  0  0  0
   63.6230   27.5890   19.2540 C   0  0  0  0  0  0  0  0  0  0  0  0
   62.7340   26.5230   19.6150 O   0  0  0  0  0  0  0  0  0  0  0  0
   64.3060   28.2370   20.4970 C   0  0  0  0  0  0  0  0  0  0  0  0
   65.1580   27.2870   21.2120 N   0  0  0  0  0  0  0  0  0  0  0  0
   66.4410   27.0510   20.8630 C   0  0  0  0  0  0  0  0  0  0  0  0
   67.0480   27.9310   20.2580 O   0  0  0  0  0  0  0  0  0  0  0  0
   66.4200   24.7370   21.9330 C   0  0  0  0  0  0  0  0  0  0  0  0
   67.1360   25.7450   21.2080 C   0  0  0  0  0  0  0  0  0  0  0  0
   68.4870   25.4860   20.8310 C   0  0  0  0  0  0  0  0  0  0  0  0
   69.1180   24.2550   21.1630 C   0  0  0  0  0  0  0  0  0  0  0  0
   68.4120   23.2510   21.8810 C   0  0  0  0  0  0  0  0  0  0  0  0
   69.0370   22.0150   22.2160 C   0  0  0  0  0  0  0  0  0  0  0  0
   68.3110   21.0280   22.9360 C   0  0  0  0  0  0  0  0  0  0  0  0
   66.9560   21.2690   23.3270 C   0  0  0  0  0  0  0  0  0  0  0  0
   66.3220   22.4990   22.9970 C   0  0  0  0  0  0  0  0  0  0  0  0
   67.0340   23.4990   22.2760 C   0  0  0  0  0  0  0  0  0  0  0  0
   61.0759   25.8074   18.1242 H   0  0  0  0  0  0  0  0  0  0  0  0
   63.7691   25.2991   15.5897 H   0  0  0  0  0  0  0  0  0  0  0  0
   62.2635   27.8194   13.9062 H   0  0  0  0  0  0  0  0  0  0  0  0
   60.8120   26.7592   13.9576 H   0  0  0  0  0  0  0  0  0  0  0  0
   59.8732   27.9702   15.7702 H   0  0  0  0  0  0  0  0  0  0  0  0
   59.8983   30.2290   14.8294 H   0  0  0  0  0  0  0  0  0  0  0  0
   62.3956   29.7768   15.9539 H   0  0  0  0  0  0  0  0  0  0  0  0
   59.7220   29.8350   17.3532 H   0  0  0  0  0  0  0  0  0  0  0  0
   60.2278   32.1683   18.9492 H   0  0  0  0  0  0  0  0  0  0  0  0
   60.2559   33.4036   17.6454 H   0  0  0  0  0  0  0  0  0  0  0  0
   58.9928   32.1264   17.6454 H   0  0  0  0  0  0  0  0  0  0  0  0
   61.2105   27.7248   17.7881 H   0  0  0  0  0  0  0  0  0  0  0  0
   62.2790   29.2767   19.1229 H   0  0  0  0  0  0  0  0  0  0  0  0
   64.5182   29.8828   18.6160 H   0  0  0  0  0  0  0  0  0  0  0  0
   64.3787   27.1056   18.6174 H   0  0  0  0  0  0  0  0  0  0  0  0
   62.6799   26.4582   20.6014 H   0  0  0  0  0  0  0  0  0  0  0  0
   64.9223   29.0843   20.1620 H   0  0  0  0  0  0  0  0  0  0  0  0
   63.5144   28.5680   21.1854 H   0  0  0  0  0  0  0  0  0  0  0  0
   64.7630   26.7769   22.0149 H   0  0  0  0  0  0  0  0  0  0  0  0
   65.3773   24.9232   22.2298 H   0  0  0  0  0  0  0  0  0  0  0  0
   69.0498   26.2501   20.2748 H   0  0  0  0  0  0  0  0  0  0  0  0
   70.1611   24.0783   20.8617 H   0  0  0  0  0  0  0  0  0  0  0  0
   70.0788   21.8253   21.9181 H   0  0  0  0  0  0  0  0  0  0  0  0
   68.7934   20.0737   23.1941 H   0  0  0  0  0  0  0  0  0  0  0  0
   66.4021   20.4999   23.8852 H   0  0  0  0  0  0  0  0  0  0  0  0
   65.2796   22.6778   23.2995 H   0  0  0  0  0  0  0  0  0  0  0  0
  1  2  2  0
  1  3  1  0
  1  4  1  0
  4  5  1  0
  4  6  1  0
  4 15  1  0
  6  7  1  0
  7  8  1  0
  7  9  1  0
  9 10  1  0
  9 14  1  0
 10 11  1  0
 11 12  2  0
 11 13  1  0
 14 15  1  0
 14 16  1  0
 16 17  1  0
 16 18  1  0
 18 19  1  0
 18 20  1  0
 20 21  1  0
 21 22  1  0
 22 23  2  0
 22 25  1  0
 24 25  2  0
 24 33  1  0
 25 26  1  0
 26 27  2  0
 27 28  1  0
 28 29  1  0
 28 33  2  0
 29 30  2  0
 30 31  1  0
 31 32  2  0
 32 33  1  0
  3 34  1  0
  5 35  1  0
  6 36  1  0
  6 37  1  0
  7 38  1  0
  8 39  1  0
  9 40  1  0
 10 41  1  0
 13 42  1  0
 13 43  1  0
 13 44  1  0
 14 45  1  0
 16 46  1  0
 17 47  1  0
 18 48  1  0
 19 49  1  0
 20 50  1  0
 20 51  1  0
 21 52  1  0
 24 53  1  0
 26 54  1  0
 27 55  1  0
 29 56  1  0
 30 57  1  0
 31 58  1  0
 32 59  1  0
A    1
CX1
A    2
O1A
A    3
O1B
A    4
CX2
A    5
OX2
A    6
CX3
A    7
CX4
A    8
OX4
A    9
CX5
A   10
NX5
A   11
C10
A   12
O10
A   13
C11
A   14
CX6
A   15
OX6
A   16
CX7
A   17
OX7
A   18
CX8
A   19
OX8
A   20
CX9
A   21
NX6
A   22
C12
A   23
O12
A   24
C25
A   25
C26
A   26
C27
A   27
C28
A   28
C2B
A   29
C21
A   30
C22
A   31
C23
A   32
C24
A   33
C2A
M  END
