1OBN_ASV_A_1332
     RDKit          3D

 44 43  0  0  0  0  0  0  0  0999 V2000
   17.2490   36.2970    5.6910 C   0  0  0  0  0  0  0  0  0  0  0  0
   15.8470   36.4460    6.2060 C   0  0  0  0  0  0  0  0  0  0  0  0
   15.1480   37.5940    5.5220 C   0  0  0  0  0  0  0  0  0  0  0  0
   13.6990   37.8040    6.0290 C   0  0  0  0  0  0  0  0  0  0  0  0
   13.2400   39.0900    5.3110 C   0  0  0  0  0  0  0  0  0  0  0  0
   11.8240   39.5220    5.6380 C   0  0  0  0  0  0  0  0  0  0  0  0
   10.9000   39.3270    4.7200 N   0  0  0  0  0  0  0  0  0  0  0  0
    9.4840   39.4760    4.9190 C   0  0  0  0  0  0  0  0  0  0  0  0
    8.7630   38.1740    4.7200 C   0  0  0  0  0  0  0  0  0  0  0  0
   15.8200   36.5710    7.6730 N   0  0  0  0  0  0  0  0  0  0  0  0
   11.5400   40.0370    6.7200 O   0  0  0  0  0  0  0  0  0  0  0  0
    9.0950   40.5230    3.8740 C   0  0  0  0  0  0  0  0  0  0  0  0
    9.4150   40.0050    2.1620 S   0  0  0  0  0  0  0  0  0  0  0  0
    9.2980   37.1030    4.8380 O   0  0  0  0  0  0  0  0  0  0  0  0
   18.1580   36.4560    6.5190 O   0  0  0  0  0  0  0  0  0  0  0  0
   17.4050   36.0020    4.5170 O   0  0  0  0  0  0  0  0  0  0  0  0
    7.4500   38.2460    4.5090 N   0  0  0  0  0  0  0  0  0  0  0  0
    6.5860   37.0890    4.3400 C   0  0  0  0  0  0  0  0  0  0  0  0
    5.4050   37.2380    5.2440 C   0  0  0  0  0  0  0  0  0  0  0  0
    6.1390   36.9240    2.8770 C   0  0  0  0  0  0  0  0  0  0  0  0
    7.3810   36.8580    1.9820 C   0  0  0  0  0  0  0  0  0  0  0  0
    4.4380   36.4940    5.0780 O   0  0  0  0  0  0  0  0  0  0  0  0
    5.3690   38.0720    6.1730 O   0  0  0  0  0  0  0  0  0  0  0  0
   15.2916   35.5287    5.9609 H   0  0  0  0  0  0  0  0  0  0  0  0
   15.7215   38.5144    5.7063 H   0  0  0  0  0  0  0  0  0  0  0  0
   15.0918   37.3553    4.4497 H   0  0  0  0  0  0  0  0  0  0  0  0
   13.0601   36.9521    5.7533 H   0  0  0  0  0  0  0  0  0  0  0  0
   13.6393   37.8843    7.1244 H   0  0  0  0  0  0  0  0  0  0  0  0
   13.9221   39.9046    5.5960 H   0  0  0  0  0  0  0  0  0  0  0  0
   13.2588   38.8701    4.2334 H   0  0  0  0  0  0  0  0  0  0  0  0
   11.2181   39.0444    3.7820 H   0  0  0  0  0  0  0  0  0  0  0  0
    9.2158   39.7825    5.9408 H   0  0  0  0  0  0  0  0  0  0  0  0
   16.0180   35.6545    8.0994 H   0  0  0  0  0  0  0  0  0  0  0  0
   16.5336   37.2505    7.9729 H   0  0  0  0  0  0  0  0  0  0  0  0
    8.0203   40.7335    3.9775 H   0  0  0  0  0  0  0  0  0  0  0  0
    9.7179   41.4099    4.0620 H   0  0  0  0  0  0  0  0  0  0  0  0
   10.1350   38.8395    2.1646 H   0  0  0  0  0  0  0  0  0  0  0  0
   17.8538   35.1533    4.2753 H   0  0  0  0  0  0  0  0  0  0  0  0
    7.0194   39.1805    4.4626 H   0  0  0  0  0  0  0  0  0  0  0  0
    7.1466   36.1804    4.6049 H   0  0  0  0  0  0  0  0  0  0  0  0
    5.0970   36.8633    2.5299 H   0  0  0  0  0  0  0  0  0  0  0  0
    7.2693   36.7404    0.8940 H   0  0  0  0  0  0  0  0  0  0  0  0
    8.3843   36.9282    2.4275 H   0  0  0  0  0  0  0  0  0  0  0  0
    5.3822   37.7654    7.1142 H   0  0  0  0  0  0  0  0  0  0  0  0
  1  2  1  0
  1 15  2  0
  1 16  1  0
  2  3  1  0
  2 10  1  0
  3  4  1  0
  4  5  1  0
  5  6  1  0
  6  7  1  0
  6 11  2  0
  7  8  1  0
  8  9  1  0
  8 12  1  0
  9 14  2  0
  9 17  1  0
 12 13  1  0
 17 18  1  0
 18 19  1  0
 18 20  1  0
 19 22  2  0
 19 23  1  0
 20 21  2  3
  2 24  1  0
  3 25  1  0
  3 26  1  0
  4 27  1  0
  4 28  1  0
  5 29  1  0
  5 30  1  0
  7 31  1  0
  8 32  1  0
 10 33  1  0
 10 34  1  0
 12 35  1  0
 12 36  1  0
 13 37  1  0
 16 38  1  0
 17 39  1  0
 18 40  1  0
 20 41  1  0
 21 42  1  0
 21 43  1  0
 23 44  1  0
A    1
C1
A    2
C2
A    3
C3
A    4
C4
A    5
C7
A    6
C10
A    7
N11
A    8
C12
A    9
C13
A   10
N14
A   11
O15
A   12
C16
A   13
S17
A   14
O18
A   15
O19
A   16
O20
A   17
N29
A   18
C30
A   19
C31
A   20
C32
A   21
C33
A   22
O42
A   23
O43
M  END
