1ODN_APV_A_1324
     RDKit          3D

 43 44  0  0  0  0  0  0  0  0999 V2000
   17.3730   36.3290    5.5220 C   0  0  0  0  0  0  0  0  0  0  0  0
   15.8930   36.4540    5.8920 C   0  0  0  0  0  0  0  0  0  0  0  0
   15.2580   37.6720    5.2270 C   0  0  0  0  0  0  0  0  0  0  0  0
   13.7620   37.7750    5.6020 C   0  0  0  0  0  0  0  0  0  0  0  0
   13.0530   38.9900    4.9880 C   0  0  0  0  0  0  0  0  0  0  0  0
   11.6720   39.1410    5.5760 C   0  0  0  0  0  0  0  0  0  0  0  0
   10.6610   39.2780    4.6870 N   0  0  0  0  0  0  0  0  0  0  0  0
    9.3400   39.7050    5.0820 C   0  0  0  0  0  0  0  0  0  0  0  0
    8.4940   38.7820    5.9940 C   0  0  0  0  0  0  0  0  0  0  0  0
   15.7280   36.3600    7.3400 N   0  0  0  0  0  0  0  0  0  0  0  0
   11.4980   39.1350    6.7960 O   0  0  0  0  0  0  0  0  0  0  0  0
    8.1890   39.4820    4.0640 C   0  0  0  0  0  0  0  0  0  0  0  0
    8.3640   38.3950    2.6470 S   0  0  0  0  0  0  0  0  0  0  0  0
    8.5820   38.3430    7.1170 O   0  0  0  0  0  0  0  0  0  0  0  0
   18.2980   36.4910    6.2570 O   0  0  0  0  0  0  0  0  0  0  0  0
   17.5230   36.0150    4.2420 O   0  0  0  0  0  0  0  0  0  0  0  0
    7.4830   38.6270    5.0390 N   0  0  0  0  0  0  0  0  0  0  0  0
    6.7250   37.4670    4.5440 C   0  0  0  0  0  0  0  0  0  0  0  0
    5.4110   37.3450    5.1660 C   0  0  0  0  0  0  0  0  0  0  0  0
    6.7150   37.5920    2.9720 C   0  0  0  0  0  0  0  0  0  0  0  0
    5.5370   38.4250    2.4330 C   0  0  0  0  0  0  0  0  0  0  0  0
    4.5060   36.6120    4.8070 O   0  0  0  0  0  0  0  0  0  0  0  0
    5.8340   39.6510    1.7940 O   0  0  0  0  0  0  0  0  0  0  0  0
    5.3500   38.0870    6.3200 O   0  0  0  0  0  0  0  0  0  0  0  0
   15.3236   35.6060    5.4836 H   0  0  0  0  0  0  0  0  0  0  0  0
   15.7789   38.5807    5.5632 H   0  0  0  0  0  0  0  0  0  0  0  0
   15.3448   37.5671    4.1355 H   0  0  0  0  0  0  0  0  0  0  0  0
   13.2534   36.8639    5.2539 H   0  0  0  0  0  0  0  0  0  0  0  0
   13.7124   37.8927    6.6946 H   0  0  0  0  0  0  0  0  0  0  0  0
   13.6386   39.8970    5.1988 H   0  0  0  0  0  0  0  0  0  0  0  0
   12.9657   38.8427    3.9014 H   0  0  0  0  0  0  0  0  0  0  0  0
   10.8403   39.0704    3.6942 H   0  0  0  0  0  0  0  0  0  0  0  0
    9.6955   40.6938    5.4072 H   0  0  0  0  0  0  0  0  0  0  0  0
   16.5258   36.8145    7.8067 H   0  0  0  0  0  0  0  0  0  0  0  0
   14.8546   36.8303    7.6173 H   0  0  0  0  0  0  0  0  0  0  0  0
    7.8641   40.4199    3.5899 H   0  0  0  0  0  0  0  0  0  0  0  0
   17.9356   35.1513    3.9893 H   0  0  0  0  0  0  0  0  0  0  0  0
    7.2002   36.5164    4.8278 H   0  0  0  0  0  0  0  0  0  0  0  0
    6.5780   36.6273    2.4615 H   0  0  0  0  0  0  0  0  0  0  0  0
    4.9976   37.7989    1.7070 H   0  0  0  0  0  0  0  0  0  0  0  0
    4.9670   38.7109    3.3293 H   0  0  0  0  0  0  0  0  0  0  0  0
    6.0026   40.3470    2.4775 H   0  0  0  0  0  0  0  0  0  0  0  0
    5.3870   37.6364    7.2007 H   0  0  0  0  0  0  0  0  0  0  0  0
  1  2  1  0
  1 15  2  0
  1 16  1  0
  2  3  1  0
  2 10  1  0
  3  4  1  0
  4  5  1  0
  5  6  1  0
  6  7  1  0
  6 11  2  0
  7  8  1  0
  8  9  1  0
  8 12  1  0
  9 14  2  0
  9 17  1  0
 12 13  1  0
 12 17  1  0
 13 20  1  0
 17 18  1  0
 18 19  1  0
 18 20  1  0
 19 22  2  0
 19 24  1  0
 20 21  1  0
 21 23  1  0
  2 25  1  0
  3 26  1  0
  3 27  1  0
  4 28  1  0
  4 29  1  0
  5 30  1  0
  5 31  1  0
  7 32  1  0
  8 33  1  0
 10 34  1  0
 10 35  1  0
 12 36  1  0
 16 37  1  0
 18 38  1  0
 20 39  1  0
 21 40  1  0
 21 41  1  0
 23 42  1  0
 24 43  1  0
A    1
C1
A    2
C2
A    3
C3
A    4
C4
A    5
C7
A    6
C10
A    7
N11
A    8
C12
A    9
C13
A   10
N14
A   11
O15
A   12
C16
A   13
S17
A   14
O18
A   15
O19
A   16
O20
A   17
N29
A   18
C30
A   19
C31
A   20
C32
A   21
C33
A   22
O42
A   23
O32
A   24
O43
M  END
