1ODY_LP1_A_201
     RDKit          3D

116119  0  0  0  0  0  0  0  0999 V2000
  -12.2680   12.0100   36.8600 C   0  0  0  0  0  0  0  0  0  0  0  0
  -11.8930   12.1010   35.3620 C   0  0  0  0  0  0  0  0  0  0  0  0
  -14.0120   11.2390   32.4260 C   0  0  0  0  0  0  0  0  0  0  0  0
  -15.2040   11.0480   33.1320 C   0  0  0  0  0  0  0  0  0  0  0  0
  -15.7010    9.7630   33.3620 C   0  0  0  0  0  0  0  0  0  0  0  0
  -15.0420    8.6280   32.8680 C   0  0  0  0  0  0  0  0  0  0  0  0
  -13.3550   10.1170   31.9280 C   0  0  0  0  0  0  0  0  0  0  0  0
  -13.8450    8.8080   32.1530 C   0  0  0  0  0  0  0  0  0  0  0  0
  -12.1960   10.2580   31.1770 C   0  0  0  0  0  0  0  0  0  0  0  0
  -13.1800    7.6870   31.6490 C   0  0  0  0  0  0  0  0  0  0  0  0
  -11.5530    9.1200   30.6970 C   0  0  0  0  0  0  0  0  0  0  0  0
  -12.0120    7.8480   30.9320 C   0  0  0  0  0  0  0  0  0  0  0  0
  -10.1890   15.5120   31.7260 C   0  0  0  0  0  0  0  0  0  0  0  0
  -10.0690   15.4200   30.2400 C   0  0  0  0  0  0  0  0  0  0  0  0
   -8.3520   17.0970   32.1000 C   0  0  0  0  0  0  0  0  0  0  0  0
  -10.7240   16.2430   29.4300 N   0  0  0  0  0  0  0  0  0  0  0  0
  -10.5930   15.9960   27.9990 C   0  0  0  0  0  0  0  0  0  0  0  0
  -13.8330   13.9280   28.6550 C   0  0  0  0  0  0  0  0  0  0  0  0
  -12.0430   12.6320   27.6600 C   0  0  0  0  0  0  0  0  0  0  0  0
  -10.2510   17.2570   27.1470 C   0  0  0  0  0  0  0  0  0  0  0  0
   -8.7700   17.3840   26.7540 C   0  0  0  0  0  0  0  0  0  0  0  0
   -8.2670   16.5330   25.5880 C   0  0  0  0  0  0  0  0  0  0  0  0
  -10.8840   11.5100   34.9730 O   0  0  0  0  0  0  0  0  0  0  0  0
  -12.7330   12.8620   34.6340 N   0  0  0  0  0  0  0  0  0  0  0  0
  -12.4490   13.0650   33.2380 C   0  0  0  0  0  0  0  0  0  0  0  0
  -13.5400   12.6390   32.2510 C   0  0  0  0  0  0  0  0  0  0  0  0
  -11.9660   14.4570   32.9100 C   0  0  0  0  0  0  0  0  0  0  0  0
  -12.3550   15.5880   33.1120 O   0  0  0  0  0  0  0  0  0  0  0  0
  -10.8220   14.3290   32.2390 N   0  0  0  0  0  0  0  0  0  0  0  0
   -9.3540   14.5530   29.8000 O   0  0  0  0  0  0  0  0  0  0  0  0
   -8.8630   15.7340   32.4870 C   0  0  0  0  0  0  0  0  0  0  0  0
   -9.1530   15.6940   33.9620 C   0  0  0  0  0  0  0  0  0  0  0  0
  -11.9030   15.2320   27.6080 C   0  0  0  0  0  0  0  0  0  0  0  0
  -12.3630   13.9440   28.3320 C   0  0  0  0  0  0  0  0  0  0  0  0
  -10.6590   18.4650   27.7340 O   0  0  0  0  0  0  0  0  0  0  0  0
   -7.9150   15.3530   25.6560 O   0  0  0  0  0  0  0  0  0  0  0  0
   -8.1860   17.0860   24.3750 N   0  0  0  0  0  0  0  0  0  0  0  0
   -7.6920   16.4950   23.1670 C   0  0  0  0  0  0  0  0  0  0  0  0
   -8.7970   15.8350   22.2930 C   0  0  0  0  0  0  0  0  0  0  0  0
   -9.8170   15.0860   23.1170 C   0  0  0  0  0  0  0  0  0  0  0  0
   -6.8950   17.4910   22.3410 C   0  0  0  0  0  0  0  0  0  0  0  0
   -7.3000   18.6310   22.0000 O   0  0  0  0  0  0  0  0  0  0  0  0
   -5.7040   17.0100   21.9170 N   0  0  0  0  0  0  0  0  0  0  0  0
   -4.8100   17.8080   21.1030 C   0  0  0  0  0  0  0  0  0  0  0  0
   -3.8720   18.7200   21.9460 C   0  0  0  0  0  0  0  0  0  0  0  0
   -3.2710   17.8900   23.0970 C   0  0  0  0  0  0  0  0  0  0  0  0
   -2.1820   17.0640   22.8050 C   0  0  0  0  0  0  0  0  0  0  0  0
   -1.6580   16.2200   23.7910 C   0  0  0  0  0  0  0  0  0  0  0  0
   -2.1820   16.2120   25.0730 C   0  0  0  0  0  0  0  0  0  0  0  0
   -3.8380   17.8700   24.3910 C   0  0  0  0  0  0  0  0  0  0  0  0
   -3.2620   17.0340   25.4140 C   0  0  0  0  0  0  0  0  0  0  0  0
   -4.9160   18.6860   24.7440 C   0  0  0  0  0  0  0  0  0  0  0  0
   -3.8040   17.0550   26.7070 C   0  0  0  0  0  0  0  0  0  0  0  0
   -5.4270   18.6830   26.0500 C   0  0  0  0  0  0  0  0  0  0  0  0
   -4.8990   17.8690   27.0190 C   0  0  0  0  0  0  0  0  0  0  0  0
   -4.2980   16.9850   19.9730 C   0  0  0  0  0  0  0  0  0  0  0  0
   -4.0630   15.7620   20.0710 O   0  0  0  0  0  0  0  0  0  0  0  0
   -4.1180   17.5210   18.7800 N   0  0  0  0  0  0  0  0  0  0  0  0
  -11.3809   12.2253   37.4738 H   0  0  0  0  0  0  0  0  0  0  0  0
  -13.0567   12.7428   37.0857 H   0  0  0  0  0  0  0  0  0  0  0  0
  -12.6331   10.9972   37.0857 H   0  0  0  0  0  0  0  0  0  0  0  0
  -15.7569   11.9203   33.5108 H   0  0  0  0  0  0  0  0  0  0  0  0
  -16.6274    9.6389   33.9420 H   0  0  0  0  0  0  0  0  0  0  0  0
  -15.4518    7.6211   33.0359 H   0  0  0  0  0  0  0  0  0  0  0  0
  -11.7900   11.2578   30.9634 H   0  0  0  0  0  0  0  0  0  0  0  0
  -13.5862    6.6797   31.8232 H   0  0  0  0  0  0  0  0  0  0  0  0
  -10.6360    9.2461   30.1028 H   0  0  0  0  0  0  0  0  0  0  0  0
  -11.4597    6.9741   30.5562 H   0  0  0  0  0  0  0  0  0  0  0  0
  -10.7944   16.4133   31.9024 H   0  0  0  0  0  0  0  0  0  0  0  0
   -8.1341   17.6783   33.0081 H   0  0  0  0  0  0  0  0  0  0  0  0
   -7.4334   16.9888   31.5047 H   0  0  0  0  0  0  0  0  0  0  0  0
   -9.1154   17.6193   31.5047 H   0  0  0  0  0  0  0  0  0  0  0  0
  -11.2965   17.0178   29.7945 H   0  0  0  0  0  0  0  0  0  0  0  0
   -9.7092   15.3835   27.7671 H   0  0  0  0  0  0  0  0  0  0  0  0
  -13.9686   13.9265   29.7466 H   0  0  0  0  0  0  0  0  0  0  0  0
  -14.3122   14.8210   28.2272 H   0  0  0  0  0  0  0  0  0  0  0  0
  -14.2926   13.0248   28.2272 H   0  0  0  0  0  0  0  0  0  0  0  0
  -11.8557   11.8642   28.4251 H   0  0  0  0  0  0  0  0  0  0  0  0
  -12.8925   12.3247   27.0324 H   0  0  0  0  0  0  0  0  0  0  0  0
  -11.1474   12.7503   27.0324 H   0  0  0  0  0  0  0  0  0  0  0  0
  -10.8362   17.0830   26.2320 H   0  0  0  0  0  0  0  0  0  0  0  0
   -8.5887   18.4373   26.4937 H   0  0  0  0  0  0  0  0  0  0  0  0
   -8.2180   17.0097   27.6288 H   0  0  0  0  0  0  0  0  0  0  0  0
  -13.5628   13.2905   35.0684 H   0  0  0  0  0  0  0  0  0  0  0  0
  -11.6201   12.3580   33.0856 H   0  0  0  0  0  0  0  0  0  0  0  0
  -13.1414   12.7431   31.2311 H   0  0  0  0  0  0  0  0  0  0  0  0
  -14.4068   13.2893   32.4400 H   0  0  0  0  0  0  0  0  0  0  0  0
  -10.4003   13.4010   32.0912 H   0  0  0  0  0  0  0  0  0  0  0  0
   -8.1163   14.9635   32.2444 H   0  0  0  0  0  0  0  0  0  0  0  0
   -8.2160   15.8232   34.5235 H   0  0  0  0  0  0  0  0  0  0  0  0
   -9.8503   16.5045   34.2207 H   0  0  0  0  0  0  0  0  0  0  0  0
   -9.6048   14.7250   34.2207 H   0  0  0  0  0  0  0  0  0  0  0  0
  -12.7237   15.9556   27.7212 H   0  0  0  0  0  0  0  0  0  0  0  0
  -11.6507   14.8500   26.6078 H   0  0  0  0  0  0  0  0  0  0  0  0
  -11.7526   14.0068   29.2449 H   0  0  0  0  0  0  0  0  0  0  0  0
  -10.6300   18.3792   28.7198 H   0  0  0  0  0  0  0  0  0  0  0  0
   -8.5199   18.0574   24.2985 H   0  0  0  0  0  0  0  0  0  0  0  0
   -7.0245   15.6852   23.4968 H   0  0  0  0  0  0  0  0  0  0  0  0
   -9.3130   16.6220   21.7235 H   0  0  0  0  0  0  0  0  0  0  0  0
   -8.3070   15.1088   21.6277 H   0  0  0  0  0  0  0  0  0  0  0  0
   -9.6085   15.2391   24.1862 H   0  0  0  0  0  0  0  0  0  0  0  0
  -10.8243   15.4606   22.8825 H   0  0  0  0  0  0  0  0  0  0  0  0
   -9.7611   14.0127   22.8825 H   0  0  0  0  0  0  0  0  0  0  0  0
   -5.4261   16.0535   22.1792 H   0  0  0  0  0  0  0  0  0  0  0  0
   -5.3250   18.6172   20.5645 H   0  0  0  0  0  0  0  0  0  0  0  0
   -3.0634   19.1074   21.3088 H   0  0  0  0  0  0  0  0  0  0  0  0
   -4.4440   19.5657   22.3555 H   0  0  0  0  0  0  0  0  0  0  0  0
   -1.7363   17.0772   21.7994 H   0  0  0  0  0  0  0  0  0  0  0  0
   -0.8182   15.5537   23.5442 H   0  0  0  0  0  0  0  0  0  0  0  0
   -1.7430   15.5501   25.8340 H   0  0  0  0  0  0  0  0  0  0  0  0
   -5.3707   19.3407   23.9860 H   0  0  0  0  0  0  0  0  0  0  0  0
   -3.3612   16.4211   27.4893 H   0  0  0  0  0  0  0  0  0  0  0  0
   -6.2675   19.3464   26.3019 H   0  0  0  0  0  0  0  0  0  0  0  0
   -5.3313   17.8559   28.0304 H   0  0  0  0  0  0  0  0  0  0  0  0
   -3.7912   18.4942   18.6966 H   0  0  0  0  0  0  0  0  0  0  0  0
   -4.3044   16.9660   17.9326 H   0  0  0  0  0  0  0  0  0  0  0  0
  1  2  1  0
  2 23  2  0
  2 24  1  0
  3  4  2  0
  3  7  1  0
  3 26  1  0
  4  5  1  0
  5  6  2  0
  6  8  1  0
  7  8  2  0
  7  9  1  0
  8 10  1  0
  9 11  2  0
 10 12  2  0
 11 12  1  0
 13 14  1  0
 13 29  1  0
 13 31  1  0
 14 16  1  0
 14 30  2  0
 15 31  1  0
 16 17  1  0
 17 20  1  0
 17 33  1  0
 18 34  1  0
 19 34  1  0
 20 21  1  0
 20 35  1  0
 21 22  1  0
 22 36  2  0
 22 37  1  0
 24 25  1  0
 25 26  1  0
 25 27  1  0
 27 28  2  0
 27 29  1  0
 31 32  1  0
 33 34  1  0
 37 38  1  0
 38 39  1  0
 38 41  1  0
 39 40  1  0
 41 42  2  0
 41 43  1  0
 43 44  1  0
 44 45  1  0
 44 56  1  0
 45 46  1  0
 46 47  2  0
 46 50  1  0
 47 48  1  0
 48 49  2  0
 49 51  1  0
 50 51  2  0
 50 52  1  0
 51 53  1  0
 52 54  2  0
 53 55  2  0
 54 55  1  0
 56 57  2  0
 56 58  1  0
  1 59  1  0
  1 60  1  0
  1 61  1  0
  4 62  1  0
  5 63  1  0
  6 64  1  0
  9 65  1  0
 10 66  1  0
 11 67  1  0
 12 68  1  0
 13 69  1  0
 15 70  1  0
 15 71  1  0
 15 72  1  0
 16 73  1  0
 17 74  1  0
 18 75  1  0
 18 76  1  0
 18 77  1  0
 19 78  1  0
 19 79  1  0
 19 80  1  0
 20 81  1  0
 21 82  1  0
 21 83  1  0
 24 84  1  0
 25 85  1  0
 26 86  1  0
 26 87  1  0
 29 88  1  0
 31 89  1  0
 32 90  1  0
 32 91  1  0
 32 92  1  0
 33 93  1  0
 33 94  1  0
 34 95  1  0
 35 96  1  0
 37 97  1  0
 38 98  1  0
 39 99  1  0
 39100  1  0
 40101  1  0
 40102  1  0
 40103  1  0
 43104  1  0
 44105  1  0
 45106  1  0
 45107  1  0
 47108  1  0
 48109  1  0
 49110  1  0
 52111  1  0
 53112  1  0
 54113  1  0
 55114  1  0
 58115  1  0
 58116  1  0
A    1
C1
A    2
C2
A    3
C7
A    4
C8
A    5
C9
A    6
C10
A    7
C11
A    8
C12
A    9
C13
A   10
C14
A   11
C15
A   12
C16
A   13
C20
A   14
C21
A   15
C24
A   16
N26
A   17
C27
A   18
C30
A   19
C31
A   20
C32
A   21
C33
A   22
C35
A   23
O3
A   24
N4
A   25
C5
A   26
C6
A   27
C17
A   28
O18
A   29
N19
A   30
O22
A   31
C23
A   32
C25
A   33
C28
A   34
C29
A   35
O34
A   36
O36
A   37
N37
A   38
C38
A   39
C39
A   40
C40
A   41
C41
A   42
O42
A   43
N43
A   44
C44
A   45
C45
A   46
C46
A   47
C47
A   48
C48
A   49
C49
A   50
C50
A   51
C51
A   52
C52
A   53
C53
A   54
C54
A   55
C55
A   56
C56
A   57
O57
A   58
N58
M  END
