1OHJ_COP_A_188
     RDKit          3D

 69 72  0  0  0  0  0  0  0  0999 V2000
   11.4360   28.0650   13.0090 C   0  0  0  0  0  0  0  0  0  0  0  0
   13.2690   26.9070   13.7590 C   0  0  0  0  0  0  0  0  0  0  0  0
   14.1210   28.0040   13.5500 C   0  0  0  0  0  0  0  0  0  0  0  0
   16.1130   29.0390   13.5620 C   0  0  0  0  0  0  0  0  0  0  0  0
   15.5470   30.2090   13.0630 C   0  0  0  0  0  0  0  0  0  0  0  0
   13.5230   29.1730   13.0140 C   0  0  0  0  0  0  0  0  0  0  0  0
   17.5870   29.0080   13.8640 C   0  0  0  0  0  0  0  0  0  0  0  0
   17.7300   31.1990   14.8660 C   0  0  0  0  0  0  0  0  0  0  0  0
   18.1350   32.5330   14.8520 C   0  0  0  0  0  0  0  0  0  0  0  0
   17.6980   33.4290   15.8320 C   0  0  0  0  0  0  0  0  0  0  0  0
   16.8310   32.9630   16.8430 C   0  0  0  0  0  0  0  0  0  0  0  0
   16.4420   31.6310   16.8550 C   0  0  0  0  0  0  0  0  0  0  0  0
   16.9000   30.7440   15.9030 C   0  0  0  0  0  0  0  0  0  0  0  0
   16.3330   33.9250   17.8480 C   0  0  0  0  0  0  0  0  0  0  0  0
   14.9100   34.3520   19.8900 C   0  0  0  0  0  0  0  0  0  0  0  0
   13.9790   33.7000   20.9230 C   0  0  0  0  0  0  0  0  0  0  0  0
   13.9540   35.4110   19.4000 C   0  0  0  0  0  0  0  0  0  0  0  0
   14.2310   36.0060   18.0870 C   0  0  0  0  0  0  0  0  0  0  0  0
   13.1260   36.9480   17.9450 C   0  0  0  0  0  0  0  0  0  0  0  0
   12.1810   29.1640   12.7430 N   0  0  0  0  0  0  0  0  0  0  0  0
   10.1550   28.0830   12.7970 N   0  0  0  0  0  0  0  0  0  0  0  0
   11.9620   26.9590   13.4680 N   0  0  0  0  0  0  0  0  0  0  0  0
   13.7190   25.7350   14.2450 N   0  0  0  0  0  0  0  0  0  0  0  0
   15.4440   27.9640   13.7880 N   0  0  0  0  0  0  0  0  0  0  0  0
   14.2300   30.2440   12.7910 N   0  0  0  0  0  0  0  0  0  0  0  0
   18.1980   30.3360   13.8820 N   0  0  0  0  0  0  0  0  0  0  0  0
   15.3750   33.6600   18.7100 N   0  0  0  0  0  0  0  0  0  0  0  0
   16.8750   35.0170   17.7660 O   0  0  0  0  0  0  0  0  0  0  0  0
   13.9310   34.3440   22.0090 O   0  0  0  0  0  0  0  0  0  0  0  0
   13.4430   32.7170   20.4510 O   0  0  0  0  0  0  0  0  0  0  0  0
   13.1550   38.2370   17.1440 N   0  0  0  0  0  0  0  0  0  0  0  0
   13.4920   39.3150   16.3150 C   0  0  0  0  0  0  0  0  0  0  0  0
   13.6940   39.2190   15.0980 O   0  0  0  0  0  0  0  0  0  0  0  0
   13.5640   40.7350   16.8510 C   0  0  0  0  0  0  0  0  0  0  0  0
   14.4260   41.6990   16.2820 C   0  0  0  0  0  0  0  0  0  0  0  0
   14.4480   43.0010   16.8090 C   0  0  0  0  0  0  0  0  0  0  0  0
   13.6020   43.3260   17.8870 C   0  0  0  0  0  0  0  0  0  0  0  0
   12.7730   42.3960   18.4270 C   0  0  0  0  0  0  0  0  0  0  0  0
   12.7380   41.0860   17.9210 C   0  0  0  0  0  0  0  0  0  0  0  0
   15.3580   41.3910   15.1320 C   0  0  0  0  0  0  0  0  0  0  0  0
   15.7200   40.1170   14.9090 O   0  0  0  0  0  0  0  0  0  0  0  0
   15.8160   42.2430   14.3850 O   0  0  0  0  0  0  0  0  0  0  0  0
   16.1719   31.0980   12.8924 H   0  0  0  0  0  0  0  0  0  0  0  0
   17.7324   28.5426   14.8500 H   0  0  0  0  0  0  0  0  0  0  0  0
   18.0737   28.4345   13.0614 H   0  0  0  0  0  0  0  0  0  0  0  0
   18.8089   32.8859   14.0575 H   0  0  0  0  0  0  0  0  0  0  0  0
   18.0244   34.4793   15.8153 H   0  0  0  0  0  0  0  0  0  0  0  0
   15.7558   31.2760   17.6380 H   0  0  0  0  0  0  0  0  0  0  0  0
   16.6156   29.6827   15.9562 H   0  0  0  0  0  0  0  0  0  0  0  0
   15.8714   34.5629   20.3811 H   0  0  0  0  0  0  0  0  0  0  0  0
   12.9528   34.9578   19.3539 H   0  0  0  0  0  0  0  0  0  0  0  0
   14.0567   36.2401   20.1155 H   0  0  0  0  0  0  0  0  0  0  0  0
   15.2016   36.5235   18.0789 H   0  0  0  0  0  0  0  0  0  0  0  0
   14.2968   35.2715   17.2708 H   0  0  0  0  0  0  0  0  0  0  0  0
   12.2987   36.3613   17.5190 H   0  0  0  0  0  0  0  0  0  0  0  0
   13.0955   37.3593   18.9647 H   0  0  0  0  0  0  0  0  0  0  0  0
    9.5013   28.0922   13.5930 H   0  0  0  0  0  0  0  0  0  0  0  0
    9.7926   28.0881   11.8329 H   0  0  0  0  0  0  0  0  0  0  0  0
   13.7757   25.5873   15.2628 H   0  0  0  0  0  0  0  0  0  0  0  0
   14.0066   24.9860   13.5991 H   0  0  0  0  0  0  0  0  0  0  0  0
   18.9273   30.6139   13.2098 H   0  0  0  0  0  0  0  0  0  0  0  0
   14.8576   32.7935   18.5043 H   0  0  0  0  0  0  0  0  0  0  0  0
   13.0652   32.0241   21.0487 H   0  0  0  0  0  0  0  0  0  0  0  0
   12.2199   38.5739   17.4143 H   0  0  0  0  0  0  0  0  0  0  0  0
   15.1204   43.7603   16.3832 H   0  0  0  0  0  0  0  0  0  0  0  0
   13.6129   44.3467   18.2969 H   0  0  0  0  0  0  0  0  0  0  0  0
   12.1218   42.6713   19.2697 H   0  0  0  0  0  0  0  0  0  0  0  0
   12.0629   40.3399   18.3656 H   0  0  0  0  0  0  0  0  0  0  0  0
   16.2496   43.0496   14.7610 H   0  0  0  0  0  0  0  0  0  0  0  0
  1 20  2  0
  1 21  1  0
  1 22  1  0
  2  3  1  0
  2 22  2  0
  2 23  1  0
  3  6  2  0
  3 24  1  0
  4  5  1  0
  4  7  1  0
  4 24  2  0
  5 25  2  0
  6 20  1  0
  6 25  1  0
  7 26  1  0
  8  9  2  0
  8 13  1  0
  8 26  1  0
  9 10  1  0
 10 11  2  0
 11 12  1  0
 11 14  1  0
 12 13  2  0
 14 27  1  0
 14 28  2  0
 15 16  1  0
 15 17  1  0
 15 27  1  0
 16 29  2  0
 16 30  1  0
 17 18  1  0
 18 19  1  0
 19 31  1  0
 31 32  1  0
 32 33  2  0
 32 34  1  0
 34 35  2  0
 34 39  1  0
 35 36  1  0
 35 40  1  0
 36 37  2  0
 37 38  1  0
 38 39  2  0
 40 41  2  0
 40 42  1  0
  5 43  1  0
  7 44  1  0
  7 45  1  0
  9 46  1  0
 10 47  1  0
 12 48  1  0
 13 49  1  0
 15 50  1  0
 17 51  1  0
 17 52  1  0
 18 53  1  0
 18 54  1  0
 19 55  1  0
 19 56  1  0
 21 57  1  0
 21 58  1  0
 23 59  1  0
 23 60  1  0
 26 61  1  0
 27 62  1  0
 30 63  1  0
 31 64  1  0
 36 65  1  0
 37 66  1  0
 38 67  1  0
 39 68  1  0
 42 69  1  0
A    1
C3
A    2
C1
A    3
C10
A    4
C8
A    5
C7
A    6
C5
A    7
C11
A    8
C13
A    9
C18
A   10
C17
A   11
C16
A   12
C15
A   13
C14
A   14
C19
A   15
C21
A   16
C24
A   17
C27
A   18
C28
A   19
C29
A   20
N4
A   21
N3
A   22
N2
A   23
N1
A   24
N9
A   25
N6
A   26
N12
A   27
N20
A   28
O19
A   29
O24
A   30
O25
A   31
N30
A   32
C31
A   33
O32
A   34
C33
A   35
C38
A   36
C37
A   37
C36
A   38
C35
A   39
C34
A   40
C39
A   41
O40
A   42
O41
M  END
