1OHS_5SD_A_1126
     RDKit          3D

 49 52  0  0  0  0  0  0  0  0999 V2000
    3.8610  -14.1870   -1.6280 C   0  0  0  0  0  0  0  0  0  0  0  0
    3.1540  -15.5600   -1.2620 C   0  0  0  0  0  0  0  0  0  0  0  0
    3.1530  -16.5580   -2.3780 C   0  0  0  0  0  0  0  0  0  0  0  0
    2.1710  -17.2700   -2.5860 O   0  0  0  0  0  0  0  0  0  0  0  0
    4.2780  -16.6430   -3.2320 C   0  0  0  0  0  0  0  0  0  0  0  0
    4.9810  -15.2740   -3.6200 C   0  0  0  0  0  0  0  0  0  0  0  0
    6.2890  -15.5360   -4.3560 C   0  0  0  0  0  0  0  0  0  0  0  0
    6.9560  -14.1830   -4.7260 C   0  0  0  0  0  0  0  0  0  0  0  0
    7.2350  -13.2670   -3.4930 C   0  0  0  0  0  0  0  0  0  0  0  0
    5.8790  -13.0160   -2.7280 C   0  0  0  0  0  0  0  0  0  0  0  0
    5.2200  -14.4120   -2.3050 C   0  0  0  0  0  0  0  0  0  0  0  0
    6.1310  -12.0770   -1.5130 C   0  0  0  0  0  0  0  0  0  0  0  0
    6.8060  -10.7150   -1.9660 C   0  0  0  0  0  0  0  0  0  0  0  0
    8.1570  -11.0230   -2.6490 C   0  0  0  0  0  0  0  0  0  0  0  0
    7.8750  -11.9090   -3.8910 C   0  0  0  0  0  0  0  0  0  0  0  0
    9.1940  -11.9070   -4.6310 C   0  0  0  0  0  0  0  0  0  0  0  0
    9.5330  -10.3280   -4.5940 C   0  0  0  0  0  0  0  0  0  0  0  0
    8.8190   -9.8170   -3.3480 C   0  0  0  0  0  0  0  0  0  0  0  0
    8.8320   -8.6790   -2.9830 O   0  0  0  0  0  0  0  0  0  0  0  0
    9.1790  -11.5340   -1.6420 C   0  0  0  0  0  0  0  0  0  0  0  0
    6.1690  -15.1380   -1.2630 C   0  0  0  0  0  0  0  0  0  0  0  0
    3.2108  -13.6224   -2.3124 H   0  0  0  0  0  0  0  0  0  0  0  0
    4.0303  -13.6288   -0.6954 H   0  0  0  0  0  0  0  0  0  0  0  0
    3.6795  -16.0019   -0.4026 H   0  0  0  0  0  0  0  0  0  0  0  0
    2.1019  -15.3282   -1.0399 H   0  0  0  0  0  0  0  0  0  0  0  0
    5.0285  -17.2739   -2.7334 H   0  0  0  0  0  0  0  0  0  0  0  0
    3.8932  -17.0498   -4.1788 H   0  0  0  0  0  0  0  0  0  0  0  0
    4.3281  -14.7057   -4.2987 H   0  0  0  0  0  0  0  0  0  0  0  0
    6.9651  -16.1128   -3.7078 H   0  0  0  0  0  0  0  0  0  0  0  0
    6.0848  -16.1068   -5.2739 H   0  0  0  0  0  0  0  0  0  0  0  0
    7.9124  -14.3922   -5.2275 H   0  0  0  0  0  0  0  0  0  0  0  0
    6.2523  -13.6432   -5.3767 H   0  0  0  0  0  0  0  0  0  0  0  0
    7.9587  -13.7831   -2.8450 H   0  0  0  0  0  0  0  0  0  0  0  0
    5.1590  -12.5111   -3.3888 H   0  0  0  0  0  0  0  0  0  0  0  0
    5.1698  -11.8557   -1.0260 H   0  0  0  0  0  0  0  0  0  0  0  0
    6.8126  -12.5869   -0.8163 H   0  0  0  0  0  0  0  0  0  0  0  0
    6.1452  -10.1943   -2.6747 H   0  0  0  0  0  0  0  0  0  0  0  0
    6.9724  -10.0738   -1.0878 H   0  0  0  0  0  0  0  0  0  0  0  0
    7.0978  -11.5433   -4.5782 H   0  0  0  0  0  0  0  0  0  0  0  0
    9.9572  -12.5009   -4.1068 H   0  0  0  0  0  0  0  0  0  0  0  0
    9.1619  -12.3508   -5.6370 H   0  0  0  0  0  0  0  0  0  0  0  0
   10.6179  -10.1644   -4.5158 H   0  0  0  0  0  0  0  0  0  0  0  0
    9.2081   -9.8075   -5.5070 H   0  0  0  0  0  0  0  0  0  0  0  0
    8.8117  -11.3504   -0.6215 H   0  0  0  0  0  0  0  0  0  0  0  0
    9.3300  -12.6137   -1.7886 H   0  0  0  0  0  0  0  0  0  0  0  0
   10.1334  -11.0070   -1.7886 H   0  0  0  0  0  0  0  0  0  0  0  0
    5.8471  -14.8917   -0.2404 H   0  0  0  0  0  0  0  0  0  0  0  0
    6.1135  -16.2263   -1.4128 H   0  0  0  0  0  0  0  0  0  0  0  0
    7.2049  -14.7996   -1.4128 H   0  0  0  0  0  0  0  0  0  0  0  0
  1  2  1  0
  1 11  1  0
  2  3  1  0
  3  4  2  0
  3  5  1  0
  5  6  1  0
  6  7  1  0
  6 11  1  0
  7  8  1  0
  8  9  1  0
  9 10  1  0
  9 15  1  0
 10 11  1  0
 10 12  1  0
 11 21  1  0
 12 13  1  0
 13 14  1  0
 14 15  1  0
 14 18  1  0
 14 20  1  0
 15 16  1  0
 16 17  1  0
 17 18  1  0
 18 19  2  0
  1 22  1  0
  1 23  1  0
  2 24  1  0
  2 25  1  0
  5 26  1  0
  5 27  1  0
  6 28  1  0
  7 29  1  0
  7 30  1  0
  8 31  1  0
  8 32  1  0
  9 33  1  0
 10 34  1  0
 12 35  1  0
 12 36  1  0
 13 37  1  0
 13 38  1  0
 15 39  1  0
 16 40  1  0
 16 41  1  0
 17 42  1  0
 17 43  1  0
 20 44  1  0
 20 45  1  0
 20 46  1  0
 21 47  1  0
 21 48  1  0
 21 49  1  0
A    1
C1
A    2
C2
A    3
C3
A    4
O3
A    5
C4
A    6
C5
A    7
C6
A    8
C7
A    9
C8
A   10
C9
A   11
C10
A   12
C11
A   13
C12
A   14
C13
A   15
C14
A   16
C15
A   17
C16
A   18
C17
A   19
O17
A   20
C18
A   21
C19
M  END
