1OIP_VIV_A_1278
     RDKit          3D

 81 82  0  0  0  0  0  0  0  0999 V2000
  -12.0390    1.5270   18.5860 O   0  0  0  0  0  0  0  0  0  0  0  0
  -11.1210   -1.9750   14.4630 O   0  0  0  0  0  0  0  0  0  0  0  0
  -11.1940   10.5260   18.2630 C   0  0  0  0  0  0  0  0  0  0  0  0
  -11.7050    0.2010   15.1790 C   0  0  0  0  0  0  0  0  0  0  0  0
  -11.9470    1.1070   16.2150 C   0  0  0  0  0  0  0  0  0  0  0  0
  -11.8160    0.6660   17.5280 C   0  0  0  0  0  0  0  0  0  0  0  0
  -11.4640   -0.6480   17.8130 C   0  0  0  0  0  0  0  0  0  0  0  0
  -11.2210   -1.5540   16.7890 C   0  0  0  0  0  0  0  0  0  0  0  0
  -11.3470   -1.1250   15.4680 C   0  0  0  0  0  0  0  0  0  0  0  0
  -11.8440    0.6640   13.7370 C   0  0  0  0  0  0  0  0  0  0  0  0
  -12.0670    2.9580   18.3410 C   0  0  0  0  0  0  0  0  0  0  0  0
  -12.3530    2.5540   15.8870 C   0  0  0  0  0  0  0  0  0  0  0  0
  -12.9480    3.2740   17.1430 C   0  0  0  0  0  0  0  0  0  0  0  0
  -11.3340   -1.0760   19.2630 C   0  0  0  0  0  0  0  0  0  0  0  0
  -10.8300   -2.9900   17.1540 C   0  0  0  0  0  0  0  0  0  0  0  0
  -10.6620    3.4180   17.9960 C   0  0  0  0  0  0  0  0  0  0  0  0
  -12.5340    3.6100   19.6710 C   0  0  0  0  0  0  0  0  0  0  0  0
  -12.6170    5.1380   19.5970 C   0  0  0  0  0  0  0  0  0  0  0  0
  -13.1620    5.6770   20.9330 C   0  0  0  0  0  0  0  0  0  0  0  0
  -13.2330    7.2170   20.9410 C   0  0  0  0  0  0  0  0  0  0  0  0
  -13.5400    7.6440   22.3900 C   0  0  0  0  0  0  0  0  0  0  0  0
  -14.3140    7.6970   19.9710 C   0  0  0  0  0  0  0  0  0  0  0  0
  -14.5210    9.2290   19.8820 C   0  0  0  0  0  0  0  0  0  0  0  0
  -13.2050    9.9890   19.6940 C   0  0  0  0  0  0  0  0  0  0  0  0
  -12.4670    9.6710   18.3720 C   0  0  0  0  0  0  0  0  0  0  0  0
  -13.3300    9.8500   17.1150 C   0  0  0  0  0  0  0  0  0  0  0  0
  -12.5620    9.4380   15.8310 C   0  0  0  0  0  0  0  0  0  0  0  0
  -11.9170    8.0300   15.9020 C   0  0  0  0  0  0  0  0  0  0  0  0
  -11.5060    7.5000   14.5110 C   0  0  0  0  0  0  0  0  0  0  0  0
  -10.3530    8.3240   13.9400 C   0  0  0  0  0  0  0  0  0  0  0  0
  -11.1140    6.0110   14.5320 C   0  0  0  0  0  0  0  0  0  0  0  0
  -10.8715   -2.9136   14.6551 H   0  0  0  0  0  0  0  0  0  0  0  0
  -10.8293   10.7709   19.2715 H   0  0  0  0  0  0  0  0  0  0  0  0
  -10.4201    9.9638   17.7198 H   0  0  0  0  0  0  0  0  0  0  0  0
  -11.4217   11.4550   17.7198 H   0  0  0  0  0  0  0  0  0  0  0  0
  -12.1602    1.7174   13.7190 H   0  0  0  0  0  0  0  0  0  0  0  0
  -10.8759    0.5630   13.2245 H   0  0  0  0  0  0  0  0  0  0  0  0
  -12.5964    0.0465   13.2245 H   0  0  0  0  0  0  0  0  0  0  0  0
  -11.4659    3.1064   15.5435 H   0  0  0  0  0  0  0  0  0  0  0  0
  -13.1232    2.5300   15.1020 H   0  0  0  0  0  0  0  0  0  0  0  0
  -13.9704    2.9129   17.3284 H   0  0  0  0  0  0  0  0  0  0  0  0
  -12.9810    4.3606   16.9749 H   0  0  0  0  0  0  0  0  0  0  0  0
  -11.5906   -0.2312   19.9191 H   0  0  0  0  0  0  0  0  0  0  0  0
  -12.0180   -1.9146   19.4605 H   0  0  0  0  0  0  0  0  0  0  0  0
  -10.2992   -1.3925   19.4605 H   0  0  0  0  0  0  0  0  0  0  0  0
  -10.8013   -3.0953   18.2486 H   0  0  0  0  0  0  0  0  0  0  0  0
  -11.5706   -3.6887   16.7377 H   0  0  0  0  0  0  0  0  0  0  0  0
   -9.8374   -3.2168   16.7377 H   0  0  0  0  0  0  0  0  0  0  0  0
  -10.0987    3.6024   18.9226 H   0  0  0  0  0  0  0  0  0  0  0  0
  -10.1552    2.6389   17.4077 H   0  0  0  0  0  0  0  0  0  0  0  0
  -10.7141    4.3460   17.4077 H   0  0  0  0  0  0  0  0  0  0  0  0
  -13.5304    3.2174   19.9219 H   0  0  0  0  0  0  0  0  0  0  0  0
  -11.7864    3.3598   20.4381 H   0  0  0  0  0  0  0  0  0  0  0  0
  -11.6150    5.5531   19.4133 H   0  0  0  0  0  0  0  0  0  0  0  0
  -13.2870    5.4340   18.7763 H   0  0  0  0  0  0  0  0  0  0  0  0
  -14.1722    5.2729   21.0948 H   0  0  0  0  0  0  0  0  0  0  0  0
  -12.4778    5.3614   21.7344 H   0  0  0  0  0  0  0  0  0  0  0  0
  -12.2854    7.6668   20.6096 H   0  0  0  0  0  0  0  0  0  0  0  0
  -13.0439    6.9540   23.0885 H   0  0  0  0  0  0  0  0  0  0  0  0
  -13.1683    8.6656   22.5578 H   0  0  0  0  0  0  0  0  0  0  0  0
  -14.6268    7.6170   22.5578 H   0  0  0  0  0  0  0  0  0  0  0  0
  -14.0484    7.3353   18.9667 H   0  0  0  0  0  0  0  0  0  0  0  0
  -15.2601    7.2942   20.3617 H   0  0  0  0  0  0  0  0  0  0  0  0
  -15.1792    9.4469   19.0280 H   0  0  0  0  0  0  0  0  0  0  0  0
  -14.9662    9.5616   20.8313 H   0  0  0  0  0  0  0  0  0  0  0  0
  -13.4240   11.0668   19.7152 H   0  0  0  0  0  0  0  0  0  0  0  0
  -12.5392    9.6708   20.5098 H   0  0  0  0  0  0  0  0  0  0  0  0
  -12.2101    8.6023   18.4148 H   0  0  0  0  0  0  0  0  0  0  0  0
  -14.2304    9.2251   17.2083 H   0  0  0  0  0  0  0  0  0  0  0  0
  -13.5969   10.9137   17.0297 H   0  0  0  0  0  0  0  0  0  0  0  0
  -13.2675    9.4523   14.9872 H   0  0  0  0  0  0  0  0  0  0  0  0
  -11.7389   10.1576   15.7098 H   0  0  0  0  0  0  0  0  0  0  0  0
  -11.0214    8.0834   16.5385 H   0  0  0  0  0  0  0  0  0  0  0  0
  -12.6655    7.3387   16.3166 H   0  0  0  0  0  0  0  0  0  0  0  0
  -12.3917    7.6007   13.8665 H   0  0  0  0  0  0  0  0  0  0  0  0
   -9.7610    8.7471   14.7649 H   0  0  0  0  0  0  0  0  0  0  0  0
   -9.7117    7.6783   13.3220 H   0  0  0  0  0  0  0  0  0  0  0  0
  -10.7562    9.1398   13.3220 H   0  0  0  0  0  0  0  0  0  0  0  0
  -11.0243    5.6701   15.5740 H   0  0  0  0  0  0  0  0  0  0  0  0
  -11.8874    5.4209   14.0185 H   0  0  0  0  0  0  0  0  0  0  0  0
  -10.1503    5.8783   14.0185 H   0  0  0  0  0  0  0  0  0  0  0  0
  1  6  1  0
  1 11  1  0
  2  9  1  0
  3 25  1  0
  4  5  2  0
  4  9  1  0
  4 10  1  0
  5  6  1  0
  5 12  1  0
  6  7  2  0
  7  8  1  0
  7 14  1  0
  8  9  2  0
  8 15  1  0
 11 13  1  0
 11 16  1  0
 11 17  1  0
 12 13  1  0
 17 18  1  0
 18 19  1  0
 19 20  1  0
 20 21  1  0
 20 22  1  0
 22 23  1  0
 23 24  1  0
 24 25  1  0
 25 26  1  0
 26 27  1  0
 27 28  1  0
 28 29  1  0
 29 30  1  0
 29 31  1  0
  2 32  1  0
  3 33  1  0
  3 34  1  0
  3 35  1  0
 10 36  1  0
 10 37  1  0
 10 38  1  0
 12 39  1  0
 12 40  1  0
 13 41  1  0
 13 42  1  0
 14 43  1  0
 14 44  1  0
 14 45  1  0
 15 46  1  0
 15 47  1  0
 15 48  1  0
 16 49  1  0
 16 50  1  0
 16 51  1  0
 17 52  1  0
 17 53  1  0
 18 54  1  0
 18 55  1  0
 19 56  1  0
 19 57  1  0
 20 58  1  0
 21 59  1  0
 21 60  1  0
 21 61  1  0
 22 62  1  0
 22 63  1  0
 23 64  1  0
 23 65  1  0
 24 66  1  0
 24 67  1  0
 25 68  1  0
 26 69  1  0
 26 70  1  0
 27 71  1  0
 27 72  1  0
 28 73  1  0
 28 74  1  0
 29 75  1  0
 30 76  1  0
 30 77  1  0
 30 78  1  0
 31 79  1  0
 31 80  1  0
 31 81  1  0
A    1
O1
A    2
O2
A    3
C1
A    4
C2
A    5
C3
A    6
C4
A    7
C5
A    8
C6
A    9
C7
A   10
C8
A   11
C9
A   12
C10
A   13
C11
A   14
C12
A   15
C13
A   16
C14
A   17
C15
A   18
C16
A   19
C17
A   20
C18
A   21
C19
A   22
C20
A   23
C21
A   24
C22
A   25
C23
A   26
C24
A   27
C25
A   28
C26
A   29
C27
A   30
C28
A   31
C29
M  END
