1OIR_HDY_A_1298
     RDKit          3D

 57 60  0  0  0  0  0  0  0  0999 V2000
   -2.3020   29.8690    9.6880 C   0  0  0  0  0  0  0  0  0  0  0  0
   -1.7660   28.4940    9.4240 C   0  0  0  0  0  0  0  0  0  0  0  0
   -2.2330   27.3860   10.0040 N   0  0  0  0  0  0  0  0  0  0  0  0
   -1.5020   26.3230    9.5490 C   0  0  0  0  0  0  0  0  0  0  0  0
   -1.6700   24.9940    9.8810 C   0  0  0  0  0  0  0  0  0  0  0  0
   -0.8280   24.0660    9.2700 C   0  0  0  0  0  0  0  0  0  0  0  0
    0.1480   24.4680    8.3420 C   0  0  0  0  0  0  0  0  0  0  0  0
   -0.5270   26.6900    8.6190 N   0  0  0  0  0  0  0  0  0  0  0  0
    0.2900   25.8200    8.0020 C   0  0  0  0  0  0  0  0  0  0  0  0
   -0.6580   28.1220    8.4880 C   0  0  0  0  0  0  0  0  0  0  0  0
    0.1940   28.9810    7.6540 C   0  0  0  0  0  0  0  0  0  0  0  0
   -0.1210   30.3060    7.3710 C   0  0  0  0  0  0  0  0  0  0  0  0
    0.7860   31.0350    6.6090 C   0  0  0  0  0  0  0  0  0  0  0  0
    1.9080   30.4360    6.1810 N   0  0  0  0  0  0  0  0  0  0  0  0
    1.3540   28.4310    7.2300 N   0  0  0  0  0  0  0  0  0  0  0  0
    2.2080   29.1390    6.4790 C   0  0  0  0  0  0  0  0  0  0  0  0
    3.3630   28.5960    6.0170 N   0  0  0  0  0  0  0  0  0  0  0  0
    3.8220   27.3140    6.0820 C   0  0  0  0  0  0  0  0  0  0  0  0
    4.4700   26.8310    4.9480 C   0  0  0  0  0  0  0  0  0  0  0  0
    5.0030   25.5390    4.9040 C   0  0  0  0  0  0  0  0  0  0  0  0
    3.7210   26.4700    7.2010 C   0  0  0  0  0  0  0  0  0  0  0  0
    4.2600   25.1700    7.1520 C   0  0  0  0  0  0  0  0  0  0  0  0
    4.8910   24.6820    5.9990 C   0  0  0  0  0  0  0  0  0  0  0  0
    5.4450   23.3970    5.9840 O   0  0  0  0  0  0  0  0  0  0  0  0
    5.0750   22.2240    5.2280 C   0  0  0  0  0  0  0  0  0  0  0  0
    6.3010   21.3080    5.0100 C   0  0  0  0  0  0  0  0  0  0  0  0
    7.4670   21.9350    5.5460 O   0  0  0  0  0  0  0  0  0  0  0  0
    6.1760   19.9110    5.6520 C   0  0  0  0  0  0  0  0  0  0  0  0
    5.2590   18.9700    4.9860 N   0  0  0  0  0  0  0  0  0  0  0  0
    6.0290   17.9250    4.3220 C   0  0  0  0  0  0  0  0  0  0  0  0
    4.4410   18.2640    5.9680 C   0  0  0  0  0  0  0  0  0  0  0  0
   -2.3668   30.0351   10.7735 H   0  0  0  0  0  0  0  0  0  0  0  0
   -1.6294   30.6166    9.2421 H   0  0  0  0  0  0  0  0  0  0  0  0
   -3.3031   29.9642    9.2421 H   0  0  0  0  0  0  0  0  0  0  0  0
   -2.4396   24.6787   10.6009 H   0  0  0  0  0  0  0  0  0  0  0  0
   -0.9294   22.9993    9.5188 H   0  0  0  0  0  0  0  0  0  0  0  0
    0.8047   23.7164    7.8796 H   0  0  0  0  0  0  0  0  0  0  0  0
    1.0352   26.1533    7.2647 H   0  0  0  0  0  0  0  0  0  0  0  0
   -1.0535   30.7608    7.7365 H   0  0  0  0  0  0  0  0  0  0  0  0
    0.5864   32.0878    6.3607 H   0  0  0  0  0  0  0  0  0  0  0  0
    3.9929   29.2579    5.5416 H   0  0  0  0  0  0  0  0  0  0  0  0
    4.5648   27.4813    4.0659 H   0  0  0  0  0  0  0  0  0  0  0  0
    5.5170   25.1941    3.9947 H   0  0  0  0  0  0  0  0  0  0  0  0
    3.2213   26.8246    8.1145 H   0  0  0  0  0  0  0  0  0  0  0  0
    4.1843   24.5228    8.0382 H   0  0  0  0  0  0  0  0  0  0  0  0
    4.3018   21.6681    5.7786 H   0  0  0  0  0  0  0  0  0  0  0  0
    4.6903   22.5409    4.2474 H   0  0  0  0  0  0  0  0  0  0  0  0
    6.3684   21.1611    3.9219 H   0  0  0  0  0  0  0  0  0  0  0  0
    7.4279   21.9140    6.5350 H   0  0  0  0  0  0  0  0  0  0  0  0
    7.1769   19.4548    5.6611 H   0  0  0  0  0  0  0  0  0  0  0  0
    5.7481   20.0827    6.6507 H   0  0  0  0  0  0  0  0  0  0  0  0
    6.5028   17.2820    5.0783 H   0  0  0  0  0  0  0  0  0  0  0  0
    5.3595   17.3195    3.6934 H   0  0  0  0  0  0  0  0  0  0  0  0
    6.8056   18.3851    3.6934 H   0  0  0  0  0  0  0  0  0  0  0  0
    4.7636   18.5424    6.9821 H   0  0  0  0  0  0  0  0  0  0  0  0
    3.3847   18.5388    5.8309 H   0  0  0  0  0  0  0  0  0  0  0  0
    4.5584   17.1789    5.8309 H   0  0  0  0  0  0  0  0  0  0  0  0
  1  2  1  0
  2  3  1  0
  2 10  2  0
  3  4  2  0
  4  5  1  0
  4  8  1  0
  5  6  2  0
  6  7  1  0
  7  9  2  0
  8  9  1  0
  8 10  1  0
 10 11  1  0
 11 12  2  0
 11 15  1  0
 12 13  1  0
 13 14  2  0
 14 16  1  0
 15 16  2  0
 16 17  1  0
 17 18  1  0
 18 19  2  0
 18 21  1  0
 19 20  1  0
 20 23  2  0
 21 22  2  0
 22 23  1  0
 23 24  1  0
 24 25  1  0
 25 26  1  0
 26 27  1  0
 26 28  1  0
 28 29  1  0
 29 30  1  0
 29 31  1  0
  1 32  1  0
  1 33  1  0
  1 34  1  0
  5 35  1  0
  6 36  1  0
  7 37  1  0
  9 38  1  0
 12 39  1  0
 13 40  1  0
 17 41  1  0
 19 42  1  0
 20 43  1  0
 21 44  1  0
 22 45  1  0
 25 46  1  0
 25 47  1  0
 26 48  1  0
 27 49  1  0
 28 50  1  0
 28 51  1  0
 30 52  1  0
 30 53  1  0
 30 54  1  0
 31 55  1  0
 31 56  1  0
 31 57  1  0
A    1
C10
A    2
C9
A    3
N8
A    4
C5
A    5
C4
A    6
C3
A    7
C2
A    8
N6
A    9
C1
A   10
C7
A   11
C11
A   12
C12
A   13
C13
A   14
N14
A   15
N16
A   16
C15
A   17
N17
A   18
C18
A   19
C19
A   20
C20
A   21
C23
A   22
C22
A   23
C21
A   24
O24
A   25
C25
A   26
C26
A   27
O31
A   28
C27
A   29
N28
A   30
C30
A   31
C29
M  END
