1OIT_HDT_A_1299
     RDKit          3D

 40 43  0  0  0  0  0  0  0  0999 V2000
    8.7010  -11.7790   10.8180 C   0  0  0  0  0  0  0  0  0  0  0  0
   14.2760   -8.0000   10.5420 N   0  0  0  0  0  0  0  0  0  0  0  0
   13.6440   -8.7730    9.6490 C   0  0  0  0  0  0  0  0  0  0  0  0
   15.0850   -7.0060   10.2360 C   0  0  0  0  0  0  0  0  0  0  0  0
   15.3610   -6.6730    8.9220 C   0  0  0  0  0  0  0  0  0  0  0  0
   14.7240   -7.4570    7.9590 C   0  0  0  0  0  0  0  0  0  0  0  0
   13.8620   -8.5060    8.3010 C   0  0  0  0  0  0  0  0  0  0  0  0
   13.8370   -9.4040   13.9460 C   0  0  0  0  0  0  0  0  0  0  0  0
   13.4260   -9.0330   12.6760 C   0  0  0  0  0  0  0  0  0  0  0  0
   14.2300   -8.0450   11.8910 C   0  0  0  0  0  0  0  0  0  0  0  0
   15.0280   -7.0750   12.3850 C   0  0  0  0  0  0  0  0  0  0  0  0
   13.0600  -10.3220   14.6380 C   0  0  0  0  0  0  0  0  0  0  0  0
    9.7240  -10.8810   11.1420 C   0  0  0  0  0  0  0  0  0  0  0  0
   11.5570  -10.4680   12.8310 C   0  0  0  0  0  0  0  0  0  0  0  0
   12.3030   -9.5790   12.1380 N   0  0  0  0  0  0  0  0  0  0  0  0
    9.8970   -9.7540   10.3420 C   0  0  0  0  0  0  0  0  0  0  0  0
    9.1070   -9.5620    9.2060 C   0  0  0  0  0  0  0  0  0  0  0  0
    8.1190  -10.4800    8.8680 C   0  0  0  0  0  0  0  0  0  0  0  0
    6.0810   -9.4490    7.9890 O   0  0  0  0  0  0  0  0  0  0  0  0
    7.1980  -10.2430    7.5750 S   0  0  0  0  0  0  0  0  0  0  0  0
    6.7240  -11.4980    7.0520 O   0  0  0  0  0  0  0  0  0  0  0  0
    8.0040   -9.4540    6.4390 N   0  0  0  0  0  0  0  0  0  0  0  0
    7.9130  -11.5920    9.6840 C   0  0  0  0  0  0  0  0  0  0  0  0
   10.4440  -11.0810   12.3350 N   0  0  0  0  0  0  0  0  0  0  0  0
   11.9590  -10.8300   14.0680 N   0  0  0  0  0  0  0  0  0  0  0  0
   15.5600   -6.4310   11.4210 N   0  0  0  0  0  0  0  0  0  0  0  0
    8.5159  -12.6463   11.4688 H   0  0  0  0  0  0  0  0  0  0  0  0
   12.9780   -9.5878    9.9692 H   0  0  0  0  0  0  0  0  0  0  0  0
   16.0363   -5.8469    8.6545 H   0  0  0  0  0  0  0  0  0  0  0  0
   14.9053   -7.2436    6.8952 H   0  0  0  0  0  0  0  0  0  0  0  0
   13.3684   -9.1053    7.5218 H   0  0  0  0  0  0  0  0  0  0  0  0
   14.7507   -8.9840   14.3918 H   0  0  0  0  0  0  0  0  0  0  0  0
   15.1938   -6.8714   13.4532 H   0  0  0  0  0  0  0  0  0  0  0  0
   13.3476  -10.6323   15.6534 H   0  0  0  0  0  0  0  0  0  0  0  0
   10.6619   -9.0091   10.6069 H   0  0  0  0  0  0  0  0  0  0  0  0
    9.2680   -8.6767    8.5733 H   0  0  0  0  0  0  0  0  0  0  0  0
    8.6693   -8.8027    6.8796 H   0  0  0  0  0  0  0  0  0  0  0  0
    8.5189  -10.1268    5.8533 H   0  0  0  0  0  0  0  0  0  0  0  0
    7.1288  -12.3212    9.4326 H   0  0  0  0  0  0  0  0  0  0  0  0
   10.0627  -11.8216   12.9408 H   0  0  0  0  0  0  0  0  0  0  0  0
  1 13  2  0
  1 23  1  0
  2  3  1  0
  2  4  1  0
  2 10  1  0
  3  7  2  0
  4  5  1  0
  4 26  2  0
  5  6  2  0
  6  7  1  0
  8  9  2  0
  8 12  1  0
  9 10  1  0
  9 15  1  0
 10 11  2  0
 11 26  1  0
 12 25  2  0
 13 16  1  0
 13 24  1  0
 14 15  2  0
 14 24  1  0
 14 25  1  0
 16 17  2  0
 17 18  1  0
 18 20  1  0
 18 23  2  0
 19 20  2  0
 20 21  2  0
 20 22  1  0
  1 27  1  0
  3 28  1  0
  5 29  1  0
  6 30  1  0
  7 31  1  0
  8 32  1  0
 11 33  1  0
 12 34  1  0
 16 35  1  0
 17 36  1  0
 22 37  1  0
 22 38  1  0
 23 39  1  0
 24 40  1  0
A    1
C22
A    2
N1
A    3
C2
A    4
C6
A    5
C5
A    6
C4
A    7
C3
A    8
C11
A    9
C10
A   10
C9
A   11
C8
A   12
C12
A   13
C17
A   14
C14
A   15
N15
A   16
C18
A   17
C19
A   18
C20
A   19
O26
A   20
S23
A   21
O25
A   22
N24
A   23
C21
A   24
N16
A   25
N13
A   26
N7
M  END
