1OIU_N76_A_1298
     RDKit          3D

 50 53  0  0  0  0  0  0  0  0999 V2000
    7.9160   43.6120   49.8510 C   0  0  0  0  0  0  0  0  0  0  0  0
   10.5520   46.4410   52.0420 C   0  0  0  0  0  0  0  0  0  0  0  0
    4.8670   45.3510   51.9070 C   0  0  0  0  0  0  0  0  0  0  0  0
    4.0240   45.8620   53.0570 C   0  0  0  0  0  0  0  0  0  0  0  0
    2.5620   45.5450   52.7500 C   0  0  0  0  0  0  0  0  0  0  0  0
    1.6820   46.0090   53.9120 C   0  0  0  0  0  0  0  0  0  0  0  0
    2.1170   45.3790   55.2320 C   0  0  0  0  0  0  0  0  0  0  0  0
    3.6010   45.6060   55.5280 C   0  0  0  0  0  0  0  0  0  0  0  0
    4.4730   45.1740   54.3530 C   0  0  0  0  0  0  0  0  0  0  0  0
    3.9800   40.7090   48.5370 C   0  0  0  0  0  0  0  0  0  0  0  0
    4.8080   40.9170   47.4370 C   0  0  0  0  0  0  0  0  0  0  0  0
    7.6260   42.6110   48.9930 N   0  0  0  0  0  0  0  0  0  0  0  0
    6.0320   41.5580   47.6210 C   0  0  0  0  0  0  0  0  0  0  0  0
    6.4230   41.9980   48.8840 C   0  0  0  0  0  0  0  0  0  0  0  0
    4.0430   38.8600   46.0080 N   0  0  0  0  0  0  0  0  0  0  0  0
    6.9350   44.2280   50.5510 N   0  0  0  0  0  0  0  0  0  0  0  0
    7.1960   45.2310   51.4250 C   0  0  0  0  0  0  0  0  0  0  0  0
    6.1920   45.8270   52.1090 O   0  0  0  0  0  0  0  0  0  0  0  0
    8.5840   45.6720   51.6220 C   0  0  0  0  0  0  0  0  0  0  0  0
    9.2230   46.6190   52.3980 N   0  0  0  0  0  0  0  0  0  0  0  0
   10.8110   45.4370   51.1020 N   0  0  0  0  0  0  0  0  0  0  0  0
    9.5550   44.9660   50.8410 C   0  0  0  0  0  0  0  0  0  0  0  0
    9.2100   43.9690   49.9980 N   0  0  0  0  0  0  0  0  0  0  0  0
    5.5980   41.7740   49.9860 C   0  0  0  0  0  0  0  0  0  0  0  0
    4.3750   41.1310   49.8100 C   0  0  0  0  0  0  0  0  0  0  0  0
    4.3510   40.4270   45.9660 S   0  0  0  0  0  0  0  0  0  0  0  0
    5.3810   40.6740   45.0070 O   0  0  0  0  0  0  0  0  0  0  0  0
    3.1650   41.1500   45.6150 O   0  0  0  0  0  0  0  0  0  0  0  0
   11.3566   47.0542   52.4740 H   0  0  0  0  0  0  0  0  0  0  0  0
    4.8600   44.2511   51.8949 H   0  0  0  0  0  0  0  0  0  0  0  0
    4.4686   45.7054   50.9449 H   0  0  0  0  0  0  0  0  0  0  0  0
    4.1423   46.9483   53.1835 H   0  0  0  0  0  0  0  0  0  0  0  0
    2.2594   46.0671   51.8303 H   0  0  0  0  0  0  0  0  0  0  0  0
    2.4442   44.4600   52.6129 H   0  0  0  0  0  0  0  0  0  0  0  0
    1.7524   47.1033   53.9984 H   0  0  0  0  0  0  0  0  0  0  0  0
    0.6474   45.6971   53.7062 H   0  0  0  0  0  0  0  0  0  0  0  0
    1.5233   45.8202   56.0462 H   0  0  0  0  0  0  0  0  0  0  0  0
    1.9535   44.2940   55.1547 H   0  0  0  0  0  0  0  0  0  0  0  0
    3.7678   46.6755   55.7238 H   0  0  0  0  0  0  0  0  0  0  0  0
    3.8764   45.0021   56.4052 H   0  0  0  0  0  0  0  0  0  0  0  0
    4.3949   44.0839   54.2280 H   0  0  0  0  0  0  0  0  0  0  0  0
    5.5136   45.4627   54.5623 H   0  0  0  0  0  0  0  0  0  0  0  0
    3.0091   40.2095   48.4036 H   0  0  0  0  0  0  0  0  0  0  0  0
    8.3804   42.2872   48.3710 H   0  0  0  0  0  0  0  0  0  0  0  0
    6.6968   41.7183   46.7594 H   0  0  0  0  0  0  0  0  0  0  0  0
    3.9817   38.5483   46.9878 H   0  0  0  0  0  0  0  0  0  0  0  0
    3.1491   38.6729   45.5316 H   0  0  0  0  0  0  0  0  0  0  0  0
   11.7132   45.1325   50.7093 H   0  0  0  0  0  0  0  0  0  0  0  0
    5.9112   42.1030   50.9878 H   0  0  0  0  0  0  0  0  0  0  0  0
    3.7183   40.9548   50.6747 H   0  0  0  0  0  0  0  0  0  0  0  0
  1 12  1  0
  1 16  2  0
  1 23  1  0
  2 20  2  0
  2 21  1  0
  3  4  1  0
  3 18  1  0
  4  5  1  0
  4  9  1  0
  5  6  1  0
  6  7  1  0
  7  8  1  0
  8  9  1  0
 10 11  2  0
 10 25  1  0
 11 13  1  0
 11 26  1  0
 12 14  1  0
 13 14  2  0
 14 24  1  0
 15 26  1  0
 16 17  1  0
 17 18  1  0
 17 19  2  0
 19 20  1  0
 19 22  1  0
 21 22  1  0
 22 23  2  0
 24 25  2  0
 26 27  2  0
 26 28  2  0
  2 29  1  0
  3 30  1  0
  3 31  1  0
  4 32  1  0
  5 33  1  0
  5 34  1  0
  6 35  1  0
  6 36  1  0
  7 37  1  0
  7 38  1  0
  8 39  1  0
  8 40  1  0
  9 41  1  0
  9 42  1  0
 10 43  1  0
 12 44  1  0
 13 45  1  0
 15 46  1  0
 15 47  1  0
 21 48  1  0
 24 49  1  0
 25 50  1  0
A    1
C2
A    2
C8
A    3
C10
A    4
C11
A    5
C12
A    6
C13
A    7
C14
A    8
C15
A    9
C16
A   10
C19
A   11
C20
A   12
N2
A   13
C21
A   14
C22
A   15
N26
A   16
N1
A   17
C6
A   18
O6
A   19
C5
A   20
N7
A   21
N9
A   22
C4
A   23
N3
A   24
C17
A   25
C18
A   26
S23
A   27
O24
A   28
O25
M  END
