1ONZ_968_A_322
     RDKit          3D

 39 41  0  0  0  0  0  0  0  0999 V2000
   35.8660   29.8950   23.2960 O   0  0  0  0  0  0  0  0  0  0  0  0
   34.9710   29.0780   23.5070 C   0  0  0  0  0  0  0  0  0  0  0  0
   33.9160   29.3710   24.3340 O   0  0  0  0  0  0  0  0  0  0  0  0
   34.8950   27.6600   22.8730 C   0  0  0  0  0  0  0  0  0  0  0  0
   34.4070   26.8030   23.6910 O   0  0  0  0  0  0  0  0  0  0  0  0
   34.2080   27.4370   21.5970 N   0  0  0  0  0  0  0  0  0  0  0  0
   34.1390   26.0780   20.9950 C   0  0  0  0  0  0  0  0  0  0  0  0
   32.8490   25.6860   20.3650 C   0  0  0  0  0  0  0  0  0  0  0  0
   32.6140   24.4070   19.7350 C   0  0  0  0  0  0  0  0  0  0  0  0
   33.6610   23.4220   19.6890 C   0  0  0  0  0  0  0  0  0  0  0  0
   34.9300   23.7190   20.2690 C   0  0  0  0  0  0  0  0  0  0  0  0
   35.2230   25.0330   20.9350 C   0  0  0  0  0  0  0  0  0  0  0  0
   36.6220   25.1500   21.4820 C   0  0  0  0  0  0  0  0  0  0  0  0
   37.0940   24.0660   22.1940 O   0  0  0  0  0  0  0  0  0  0  0  0
   37.2970   26.1320   21.3320 O   0  0  0  0  0  0  0  0  0  0  0  0
   33.6070   28.5670   20.9160 C   0  0  0  0  0  0  0  0  0  0  0  0
   32.3100   29.0750   21.3400 C   0  0  0  0  0  0  0  0  0  0  0  0
   31.6590   30.2050   20.6940 C   0  0  0  0  0  0  0  0  0  0  0  0
   32.2910   30.8740   19.5820 C   0  0  0  0  0  0  0  0  0  0  0  0
   33.5960   30.3930   19.1210 C   0  0  0  0  0  0  0  0  0  0  0  0
   34.2400   31.0480   18.0000 C   0  0  0  0  0  0  0  0  0  0  0  0
   35.5500   30.5870   17.5150 C   0  0  0  0  0  0  0  0  0  0  0  0
   36.2020   29.4790   18.1570 C   0  0  0  0  0  0  0  0  0  0  0  0
   37.4520   29.0260   17.7120 O   0  0  0  0  0  0  0  0  0  0  0  0
   35.5620   28.8250   19.2680 C   0  0  0  0  0  0  0  0  0  0  0  0
   34.2580   29.2510   19.7800 C   0  0  0  0  0  0  0  0  0  0  0  0
   36.3348   30.3229   24.0557 H   0  0  0  0  0  0  0  0  0  0  0  0
   32.0245   26.4140   20.3798 H   0  0  0  0  0  0  0  0  0  0  0  0
   31.6326   24.1863   19.2898 H   0  0  0  0  0  0  0  0  0  0  0  0
   33.4846   22.4474   19.2104 H   0  0  0  0  0  0  0  0  0  0  0  0
   35.7230   22.9578   20.2270 H   0  0  0  0  0  0  0  0  0  0  0  0
   37.6359   26.6250   22.1208 H   0  0  0  0  0  0  0  0  0  0  0  0
   31.8014   28.5846   22.1831 H   0  0  0  0  0  0  0  0  0  0  0  0
   30.6795   30.5513   21.0553 H   0  0  0  0  0  0  0  0  0  0  0  0
   31.8025   31.7282   19.0903 H   0  0  0  0  0  0  0  0  0  0  0  0
   33.7447   31.8977   17.5073 H   0  0  0  0  0  0  0  0  0  0  0  0
   36.0297   31.0896   16.6622 H   0  0  0  0  0  0  0  0  0  0  0  0
   38.1492   28.7733   18.3679 H   0  0  0  0  0  0  0  0  0  0  0  0
   36.0699   27.9760   19.7489 H   0  0  0  0  0  0  0  0  0  0  0  0
  1  2  1  0
  2  3  2  0
  2  4  1  0
  4  5  2  0
  4  6  1  0
  6  7  1  0
  6 16  1  0
  7  8  2  0
  7 12  1  0
  8  9  1  0
  9 10  2  0
 10 11  1  0
 11 12  2  0
 12 13  1  0
 13 14  2  0
 13 15  1  0
 16 17  2  0
 16 26  1  0
 17 18  1  0
 18 19  2  0
 19 20  1  0
 20 21  1  0
 20 26  2  0
 21 22  2  0
 22 23  1  0
 23 24  1  0
 23 25  2  0
 25 26  1  0
  1 27  1  0
  8 28  1  0
  9 29  1  0
 10 30  1  0
 11 31  1  0
 15 32  1  0
 17 33  1  0
 18 34  1  0
 19 35  1  0
 21 36  1  0
 22 37  1  0
 24 38  1  0
 25 39  1  0
A    1
O21
A    2
C20
A    3
O22
A    4
C18
A    5
O23
A    6
N17
A    7
C19
A    8
C24
A    9
C25
A   10
C26
A   11
C27
A   12
C28
A   13
C33
A   14
O34
A   15
O35
A   16
C13
A   17
C12
A   18
C11
A   19
C10
A   20
C3
A   21
C2
A   22
C1
A   23
C6
A   24
O36
A   25
C5
A   26
C4
M  END
