1OON_BEL_A_362
     RDKit          3D

 41 41  0  0  0  0  0  0  0  0999 V2000
  -11.0080  -14.2090   52.7960 O   0  0  0  0  0  0  0  0  0  0  0  0
  -10.6520  -15.0890   52.0250 N   0  0  0  0  0  0  0  0  0  0  0  0
  -10.9160  -16.2750   52.1740 O   0  0  0  0  0  0  0  0  0  0  0  0
   -9.8280  -14.7060   50.8470 C   0  0  0  0  0  0  0  0  0  0  0  0
   -8.5180  -15.2400   50.8650 C   0  0  0  0  0  0  0  0  0  0  0  0
   -7.6170  -15.0730   49.8020 C   0  0  0  0  0  0  0  0  0  0  0  0
   -8.0830  -14.3290   48.6180 C   0  0  0  0  0  0  0  0  0  0  0  0
   -9.3870  -13.8090   48.6030 C   0  0  0  0  0  0  0  0  0  0  0  0
  -10.3080  -13.9500   49.6780 C   0  0  0  0  0  0  0  0  0  0  0  0
  -11.6170  -13.4050   49.5970 N   0  0  0  0  0  0  0  0  0  0  0  0
  -12.6180  -14.1160   48.7640 C   0  0  0  0  0  0  0  0  0  0  0  0
  -12.9640  -13.6630   47.4400 C   0  0  0  0  0  0  0  0  0  0  0  0
  -12.1020  -14.6330   46.1660 Br  0  0  0  0  0  0  0  0  0  0  0  0
  -11.8510  -11.9880   49.9510 C   0  0  0  0  0  0  0  0  0  0  0  0
  -12.8380  -11.6720   51.0730 C   0  0  0  0  0  0  0  0  0  0  0  0
  -14.3250  -10.9180   50.3690 Br  0  0  0  0  0  0  0  0  0  0  0  0
   -7.2740  -14.0270   47.3740 C   0  0  0  0  0  0  0  0  0  0  0  0
   -6.8410  -14.9130   46.6620 O   0  0  0  0  0  0  0  0  0  0  0  0
   -7.0960  -12.7060   47.1110 N   0  0  0  0  0  0  0  0  0  0  0  0
   -7.6310  -12.0760   45.8930 C   0  0  0  0  0  0  0  0  0  0  0  0
   -6.9310  -10.8290   45.3560 C   0  0  0  0  0  0  0  0  0  0  0  0
   -6.9880  -10.8470   43.9260 O   0  0  0  0  0  0  0  0  0  0  0  0
   -5.5070  -10.6080   45.9160 C   0  0  0  0  0  0  0  0  0  0  0  0
   -4.6080  -11.6430   45.5370 O   0  0  0  0  0  0  0  0  0  0  0  0
   -6.3170  -15.7800   49.9640 N   0  0  0  0  0  0  0  0  0  0  0  0
   -6.1620  -16.4770   50.9570 O   0  0  0  0  0  0  0  0  0  0  0  0
   -5.4820  -15.6650   49.1050 O   0  0  0  0  0  0  0  0  0  0  0  0
   -8.1924  -15.8093   51.7481 H   0  0  0  0  0  0  0  0  0  0  0  0
   -9.7157  -13.2606   47.7079 H   0  0  0  0  0  0  0  0  0  0  0  0
  -12.2502  -15.1466   48.6515 H   0  0  0  0  0  0  0  0  0  0  0  0
  -13.5505  -13.9421   49.3210 H   0  0  0  0  0  0  0  0  0  0  0  0
  -14.0496  -13.7679   47.2973 H   0  0  0  0  0  0  0  0  0  0  0  0
  -12.6594  -12.6106   47.3416 H   0  0  0  0  0  0  0  0  0  0  0  0
  -10.8800  -11.5612   50.2425 H   0  0  0  0  0  0  0  0  0  0  0  0
  -12.3177  -11.5587   49.0521 H   0  0  0  0  0  0  0  0  0  0  0  0
  -13.1096  -12.6010   51.5956 H   0  0  0  0  0  0  0  0  0  0  0  0
  -12.3739  -10.9743   51.7856 H   0  0  0  0  0  0  0  0  0  0  0  0
   -6.5714  -12.1286   47.7835 H   0  0  0  0  0  0  0  0  0  0  0  0
   -7.6042  -12.8334   45.0958 H   0  0  0  0  0  0  0  0  0  0  0  0
   -8.6300  -11.7215   46.1868 H   0  0  0  0  0  0  0  0  0  0  0  0
   -5.2211   -9.7468   46.5378 H   0  0  0  0  0  0  0  0  0  0  0  0
  1  2  1  0
  2  3  2  0
  2  4  1  0
  4  5  2  0
  4  9  1  0
  5  6  1  0
  6  7  2  0
  6 25  1  0
  7  8  1  0
  7 17  1  0
  8  9  2  0
  9 10  1  0
 10 11  1  0
 10 14  1  0
 11 12  1  0
 12 13  1  0
 14 15  1  0
 15 16  1  0
 17 18  2  0
 17 19  1  0
 19 20  1  0
 20 21  1  0
 21 22  2  0
 21 23  1  0
 23 24  2  0
 25 26  2  0
 25 27  1  0
  5 28  1  0
  8 29  1  0
 11 30  1  0
 11 31  1  0
 12 32  1  0
 12 33  1  0
 14 34  1  0
 14 35  1  0
 15 36  1  0
 15 37  1  0
 19 38  1  0
 20 39  1  0
 20 40  1  0
 23 41  1  0
M  CHG  4   1  -1   2   1  25   1  27  -1
A    1
O1
A    2
N1
A    3
O2
A    4
C1
A    5
C2
A    6
C3
A    7
C4
A    8
C5
A    9
C6
A   10
N2
A   11
C7
A   12
C8
A   13
BR1
A   14
C9
A   15
C10
A   16
BR2
A   17
C11
A   18
O3
A   19
N3
A   20
C12
A   21
C13
A   22
O4
A   23
C14
A   24
O5
A   25
N4
A   26
O6
A   27
O7
M  END
