1ORK_ATC_A_222
     RDKit          3D

 67 70  0  0  0  0  0  0  0  0999 V2000
   20.1080   34.6170   34.3910 C   0  0  0  0  0  0  0  0  0  0  0  0
   19.5650   35.0790   33.3520 O   0  0  0  0  0  0  0  0  0  0  0  0
   19.5800   33.5690   35.1430 C   0  0  0  0  0  0  0  0  0  0  0  0
   18.3890   32.9210   34.7890 C   0  0  0  0  0  0  0  0  0  0  0  0
   17.9770   31.9310   35.4430 O   0  0  0  0  0  0  0  0  0  0  0  0
   17.6220   33.2860   33.7120 N   0  0  0  0  0  0  0  0  0  0  0  0
   20.3030   33.2330   36.2800 C   0  0  0  0  0  0  0  0  0  0  0  0
   20.1970   31.9680   36.8680 O   0  0  0  0  0  0  0  0  0  0  0  0
   21.1460   34.2540   37.0370 C   0  0  0  0  0  0  0  0  0  0  0  0
   22.2030   33.4360   37.8140 N   0  0  0  0  0  0  0  0  0  0  0  0
   23.0250   34.3640   38.7750 C   0  0  0  0  0  0  0  0  0  0  0  0
   23.1010   32.5310   36.9330 C   0  0  0  0  0  0  0  0  0  0  0  0
   21.7550   35.3480   36.1090 C   0  0  0  0  0  0  0  0  0  0  0  0
   21.0970   36.6880   36.3310 C   0  0  0  0  0  0  0  0  0  0  0  0
   21.7490   37.8560   35.6340 C   0  0  0  0  0  0  0  0  0  0  0  0
   20.9410   39.1710   35.6270 C   0  0  0  0  0  0  0  0  0  0  0  0
   21.6780   40.2670   34.8170 C   0  0  0  0  0  0  0  0  0  0  0  0
   21.5120   41.5900   35.2210 C   0  0  0  0  0  0  0  0  0  0  0  0
   22.1040   42.6150   34.4800 C   0  0  0  0  0  0  0  0  0  0  0  0
   22.8610   42.3360   33.3310 C   0  0  0  0  0  0  0  0  0  0  0  0
   23.0370   40.9940   32.9340 C   0  0  0  0  0  0  0  0  0  0  0  0
   23.8360   40.7110   31.7950 O   0  0  0  0  0  0  0  0  0  0  0  0
   22.4490   39.9410   33.6780 C   0  0  0  0  0  0  0  0  0  0  0  0
   22.5210   38.5980   33.2820 C   0  0  0  0  0  0  0  0  0  0  0  0
   23.0760   38.3460   32.2170 O   0  0  0  0  0  0  0  0  0  0  0  0
   22.1020   37.5260   34.1290 C   0  0  0  0  0  0  0  0  0  0  0  0
   22.0630   36.1760   33.7350 C   0  0  0  0  0  0  0  0  0  0  0  0
   22.5610   35.7380   32.4420 O   0  0  0  0  0  0  0  0  0  0  0  0
   21.5830   35.0130   34.6220 C   0  0  0  0  0  0  0  0  0  0  0  0
   22.4380   33.9040   34.3300 O   0  0  0  0  0  0  0  0  0  0  0  0
   23.3350   43.3880   32.5860 N   0  0  0  0  0  0  0  0  0  0  0  0
   24.5980   43.8150   32.6060 C   0  0  0  0  0  0  0  0  0  0  0  0
   25.3500   43.5610   33.5560 O   0  0  0  0  0  0  0  0  0  0  0  0
   25.2290   44.6000   31.4630 C   0  0  0  0  0  0  0  0  0  0  0  0
   26.6690   43.9970   31.1130 N   0  0  0  0  0  0  0  0  0  0  0  0
   27.8470   44.3910   32.1230 C   0  0  0  0  0  0  0  0  0  0  0  0
   26.5830   42.4470   30.7370 C   0  0  0  0  0  0  0  0  0  0  0  0
   16.7016   33.7240   33.8600 H   0  0  0  0  0  0  0  0  0  0  0  0
   17.9665   33.1221   32.7552 H   0  0  0  0  0  0  0  0  0  0  0  0
   20.1896   31.8795   37.8540 H   0  0  0  0  0  0  0  0  0  0  0  0
   20.5293   34.8410   37.7335 H   0  0  0  0  0  0  0  0  0  0  0  0
   22.7958   34.1053   39.8193 H   0  0  0  0  0  0  0  0  0  0  0  0
   24.1001   34.2232   38.5898 H   0  0  0  0  0  0  0  0  0  0  0  0
   22.7555   35.4143   38.5898 H   0  0  0  0  0  0  0  0  0  0  0  0
   23.7287   31.8984   37.5778 H   0  0  0  0  0  0  0  0  0  0  0  0
   22.4683   31.8935   36.2980 H   0  0  0  0  0  0  0  0  0  0  0  0
   23.7434   33.1587   36.2980 H   0  0  0  0  0  0  0  0  0  0  0  0
   22.8236   35.3850   36.3672 H   0  0  0  0  0  0  0  0  0  0  0  0
   20.0583   36.6183   35.9756 H   0  0  0  0  0  0  0  0  0  0  0  0
   21.1849   36.8923   37.4083 H   0  0  0  0  0  0  0  0  0  0  0  0
   22.6508   38.0174   36.2429 H   0  0  0  0  0  0  0  0  0  0  0  0
   19.9568   38.9868   35.1716 H   0  0  0  0  0  0  0  0  0  0  0  0
   20.8248   39.5182   36.6643 H   0  0  0  0  0  0  0  0  0  0  0  0
   20.9190   41.8254   36.1171 H   0  0  0  0  0  0  0  0  0  0  0  0
   21.9750   43.6589   34.8021 H   0  0  0  0  0  0  0  0  0  0  0  0
   24.7629   40.3827   31.9098 H   0  0  0  0  0  0  0  0  0  0  0  0
   23.3035   35.0850   32.3929 H   0  0  0  0  0  0  0  0  0  0  0  0
   22.7516   33.4973   35.1764 H   0  0  0  0  0  0  0  0  0  0  0  0
   22.6708   43.8796   31.9711 H   0  0  0  0  0  0  0  0  0  0  0  0
   24.5818   44.5352   30.5759 H   0  0  0  0  0  0  0  0  0  0  0  0
   25.3423   45.6511   31.7668 H   0  0  0  0  0  0  0  0  0  0  0  0
   27.4963   44.2737   33.1590 H   0  0  0  0  0  0  0  0  0  0  0  0
   28.7119   43.7332   31.9520 H   0  0  0  0  0  0  0  0  0  0  0  0
   28.1422   45.4368   31.9520 H   0  0  0  0  0  0  0  0  0  0  0  0
   26.5497   41.8474   31.6586 H   0  0  0  0  0  0  0  0  0  0  0  0
   25.6733   42.2628   30.1467 H   0  0  0  0  0  0  0  0  0  0  0  0
   27.4668   42.1633   30.1467 H   0  0  0  0  0  0  0  0  0  0  0  0
  1  2  2  0
  1  3  1  0
  1 29  1  0
  3  4  1  0
  3  7  2  0
  4  5  2  0
  4  6  1  0
  7  8  1  0
  7  9  1  0
  9 10  1  0
  9 13  1  0
 10 11  1  0
 10 12  1  0
 13 14  1  0
 13 29  1  0
 14 15  1  0
 15 16  1  0
 15 26  1  0
 16 17  1  0
 17 18  2  0
 17 23  1  0
 18 19  1  0
 19 20  2  0
 20 21  1  0
 20 31  1  0
 21 22  1  0
 21 23  2  0
 23 24  1  0
 24 25  2  0
 24 26  1  0
 26 27  2  0
 27 28  1  0
 27 29  1  0
 29 30  1  0
 31 32  1  0
 32 33  2  0
 32 34  1  0
 34 35  1  0
 35 36  1  0
 35 37  1  0
  6 38  1  0
  6 39  1  0
  8 40  1  0
  9 41  1  0
 11 42  1  0
 11 43  1  0
 11 44  1  0
 12 45  1  0
 12 46  1  0
 12 47  1  0
 13 48  1  0
 14 49  1  0
 14 50  1  0
 15 51  1  0
 16 52  1  0
 16 53  1  0
 18 54  1  0
 19 55  1  0
 22 56  1  0
 28 57  1  0
 30 58  1  0
 31 59  1  0
 34 60  1  0
 34 61  1  0
 36 62  1  0
 36 63  1  0
 36 64  1  0
 37 65  1  0
 37 66  1  0
 37 67  1  0
A    1
C1
A    2
O1
A    3
C2
A    4
C21
A    5
O21
A    6
N21
A    7
C3
A    8
O3
A    9
C4
A   10
N4
A   11
C42
A   12
C43
A   13
C41
A   14
C5
A   15
C51
A   16
C6
A   17
C61
A   18
C7
A   19
C8
A   20
C9
A   21
C10
A   22
O10
A   23
C1A
A   24
C11
A   25
O11
A   26
C1B
A   27
C12
A   28
O12
A   29
C1C
A   30
O1C
A   31
N9
A   32
C91
A   33
O91
A   34
C92
A   35
N92
A   36
C93
A   37
C94
M  END
