1OS5_NH1_A_901
     RDKit          3D

 72 75  0  0  0  0  0  0  0  0999 V2000
   41.6920   11.1980   61.0210 O   0  0  0  0  0  0  0  0  0  0  0  0
   41.6830   11.9680   59.8800 C   0  0  0  0  0  0  0  0  0  0  0  0
   42.8900   12.3250   59.2750 C   0  0  0  0  0  0  0  0  0  0  0  0
   42.8870   13.1430   58.1400 C   0  0  0  0  0  0  0  0  0  0  0  0
   41.6770   13.6050   57.6140 C   0  0  0  0  0  0  0  0  0  0  0  0
   40.4700   13.2400   58.2270 C   0  0  0  0  0  0  0  0  0  0  0  0
   40.4700   12.4230   59.3600 C   0  0  0  0  0  0  0  0  0  0  0  0
   41.6750   14.4660   56.4120 C   0  0  0  0  0  0  0  0  0  0  0  0
   41.3870   13.6910   55.1110 C   0  0  0  0  0  0  0  0  0  0  0  0
   41.0910   14.6110   53.8910 C   0  0  0  0  0  0  0  0  0  0  0  0
   40.8140   13.7050   52.7650 O   0  0  0  0  0  0  0  0  0  0  0  0
   41.8360   12.9630   52.2500 C   0  0  0  0  0  0  0  0  0  0  0  0
   41.6650   11.9290   51.5950 O   0  0  0  0  0  0  0  0  0  0  0  0
   43.2360   13.4350   52.5240 C   0  0  0  0  0  0  0  0  0  0  0  0
   44.6280   12.4690   52.0190 S   0  0  0  0  0  0  0  0  0  0  0  0
   45.1900   13.2120   50.5170 C   0  0  0  0  0  0  0  0  0  0  0  0
   44.1960   13.7390   49.6930 C   0  0  0  0  0  0  0  0  0  0  0  0
   44.5250   14.3180   48.4780 C   0  0  0  0  0  0  0  0  0  0  0  0
   45.8650   14.4040   48.0830 C   0  0  0  0  0  0  0  0  0  0  0  0
   46.1870   14.9380   46.9070 N   0  0  0  0  0  0  0  0  0  0  0  0
   46.8660   13.8810   48.9010 C   0  0  0  0  0  0  0  0  0  0  0  0
   46.5590   13.2990   50.1370 C   0  0  0  0  0  0  0  0  0  0  0  0
   47.6760   12.8140   51.0010 C   0  0  0  0  0  0  0  0  0  0  0  0
   47.6920   13.5930   52.3300 C   0  0  0  0  0  0  0  0  0  0  0  0
   49.0390   13.0360   50.3130 C   0  0  0  0  0  0  0  0  0  0  0  0
   47.5430   11.3170   51.3090 C   0  0  0  0  0  0  0  0  0  0  0  0
   43.4680   14.9260   47.6680 C   0  0  0  0  0  0  0  0  0  0  0  0
   43.4340   14.6100   53.1600 C   0  0  0  0  0  0  0  0  0  0  0  0
   44.6790   15.0720   53.3100 O   0  0  0  0  0  0  0  0  0  0  0  0
   42.2820   15.5390   53.4900 C   0  0  0  0  0  0  0  0  0  0  0  0
   39.8380   15.5100   54.1210 C   0  0  0  0  0  0  0  0  0  0  0  0
   38.5880   14.7940   54.6730 C   0  0  0  0  0  0  0  0  0  0  0  0
   37.3830   15.6100   54.1610 C   0  0  0  0  0  0  0  0  0  0  0  0
   37.8970   16.5730   53.0530 C   0  0  0  0  0  0  0  0  0  0  0  0
   39.3830   16.2610   52.8480 C   0  0  0  0  0  0  0  0  0  0  0  0
   41.6869   11.6317   61.9109 H   0  0  0  0  0  0  0  0  0  0  0  0
   43.8422   11.9634   59.6905 H   0  0  0  0  0  0  0  0  0  0  0  0
   43.8371   13.4227   57.6613 H   0  0  0  0  0  0  0  0  0  0  0  0
   39.5165   13.5995   57.8128 H   0  0  0  0  0  0  0  0  0  0  0  0
   39.5210   12.1402   59.8390 H   0  0  0  0  0  0  0  0  0  0  0  0
   40.9025   15.2390   56.5369 H   0  0  0  0  0  0  0  0  0  0  0  0
   42.6816   14.8995   56.3185 H   0  0  0  0  0  0  0  0  0  0  0  0
   42.2640   13.0707   54.8742 H   0  0  0  0  0  0  0  0  0  0  0  0
   40.4839   13.0882   55.2874 H   0  0  0  0  0  0  0  0  0  0  0  0
   43.1435   13.6947   50.0098 H   0  0  0  0  0  0  0  0  0  0  0  0
   46.7185   15.8195   46.8699 H   0  0  0  0  0  0  0  0  0  0  0  0
   45.9046   14.4697   46.0341 H   0  0  0  0  0  0  0  0  0  0  0  0
   47.9140   13.9264   48.5698 H   0  0  0  0  0  0  0  0  0  0  0  0
   47.6774   12.8839   53.1708 H   0  0  0  0  0  0  0  0  0  0  0  0
   48.6029   14.2072   52.3841 H   0  0  0  0  0  0  0  0  0  0  0  0
   46.8070   14.2441   52.3841 H   0  0  0  0  0  0  0  0  0  0  0  0
   49.8194   13.1631   51.0778 H   0  0  0  0  0  0  0  0  0  0  0  0
   49.2791   12.1651   49.6854 H   0  0  0  0  0  0  0  0  0  0  0  0
   48.9903   13.9381   49.6854 H   0  0  0  0  0  0  0  0  0  0  0  0
   47.5296   11.1666   52.3986 H   0  0  0  0  0  0  0  0  0  0  0  0
   46.6074   10.9350   50.8746 H   0  0  0  0  0  0  0  0  0  0  0  0
   48.3966   10.7760   50.8746 H   0  0  0  0  0  0  0  0  0  0  0  0
   42.7058   15.3644   48.3290 H   0  0  0  0  0  0  0  0  0  0  0  0
   43.8998   15.7138   47.0332 H   0  0  0  0  0  0  0  0  0  0  0  0
   43.0041   14.1567   47.0332 H   0  0  0  0  0  0  0  0  0  0  0  0
   45.0499   15.2096   54.2175 H   0  0  0  0  0  0  0  0  0  0  0  0
   42.0160   16.1466   52.6125 H   0  0  0  0  0  0  0  0  0  0  0  0
   42.5427   16.2370   54.2992 H   0  0  0  0  0  0  0  0  0  0  0  0
   40.2141   16.2039   54.8872 H   0  0  0  0  0  0  0  0  0  0  0  0
   38.5398   13.7612   54.2975 H   0  0  0  0  0  0  0  0  0  0  0  0
   38.6036   14.7363   55.7714 H   0  0  0  0  0  0  0  0  0  0  0  0
   36.6223   14.9330   53.7450 H   0  0  0  0  0  0  0  0  0  0  0  0
   36.9273   16.1799   54.9842 H   0  0  0  0  0  0  0  0  0  0  0  0
   37.3424   16.4046   52.1181 H   0  0  0  0  0  0  0  0  0  0  0  0
   37.7514   17.6235   53.3451 H   0  0  0  0  0  0  0  0  0  0  0  0
   39.9563   17.1920   52.7275 H   0  0  0  0  0  0  0  0  0  0  0  0
   39.5479   15.6582   51.9428 H   0  0  0  0  0  0  0  0  0  0  0  0
  1  2  1  0
  2  3  2  0
  2  7  1  0
  3  4  1  0
  4  5  2  0
  5  6  1  0
  5  8  1  0
  6  7  2  0
  8  9  1  0
  9 10  1  0
 10 11  1  0
 10 30  1  0
 10 31  1  0
 11 12  1  0
 12 13  2  0
 12 14  1  0
 14 15  1  0
 14 28  2  0
 15 16  1  0
 16 17  2  0
 16 22  1  0
 17 18  1  0
 18 19  2  0
 18 27  1  0
 19 20  1  0
 19 21  1  0
 21 22  2  0
 22 23  1  0
 23 24  1  0
 23 25  1  0
 23 26  1  0
 28 29  1  0
 28 30  1  0
 31 32  1  0
 31 35  1  0
 32 33  1  0
 33 34  1  0
 34 35  1  0
  1 36  1  0
  3 37  1  0
  4 38  1  0
  6 39  1  0
  7 40  1  0
  8 41  1  0
  8 42  1  0
  9 43  1  0
  9 44  1  0
 17 45  1  0
 20 46  1  0
 20 47  1  0
 21 48  1  0
 24 49  1  0
 24 50  1  0
 24 51  1  0
 25 52  1  0
 25 53  1  0
 25 54  1  0
 26 55  1  0
 26 56  1  0
 26 57  1  0
 27 58  1  0
 27 59  1  0
 27 60  1  0
 29 61  1  0
 30 62  1  0
 30 63  1  0
 31 64  1  0
 32 65  1  0
 32 66  1  0
 33 67  1  0
 33 68  1  0
 34 69  1  0
 34 70  1  0
 35 71  1  0
 35 72  1  0
A    1
O4
A    2
C23
A    3
C20
A    4
C17
A    5
C29
A    6
C14
A    7
C25
A    8
C8
A    9
C7
A   10
C3
A   11
O2
A   12
C1
A   13
O1
A   14
C6
A   15
S1
A   16
C21
A   17
C24
A   18
C12
A   19
C2
A   20
N1
A   21
C15
A   22
C18
A   23
C26
A   24
C10
A   25
C27
A   26
C9
A   27
C11
A   28
C5
A   29
O3
A   30
C4
A   31
C22
A   32
C13
A   33
C28
A   34
C16
A   35
C19
M  END
