1GKA_D12_A_1183
     RDKit          3D

 38 37  0  0  0  0  0  0  0  0999 V2000
   34.3750   76.4690   21.6550 C   0  0  0  0  0  0  0  0  0  0  0  0
   34.8620   75.4590   20.6120 C   0  0  0  0  0  0  0  0  0  0  0  0
   36.3320   75.7070   20.3820 C   0  0  0  0  0  0  0  0  0  0  0  0
   36.7810   75.5670   18.9300 C   0  0  0  0  0  0  0  0  0  0  0  0
   38.3080   75.9230   18.8210 C   0  0  0  0  0  0  0  0  0  0  0  0
   38.8810   75.8500   17.3840 C   0  0  0  0  0  0  0  0  0  0  0  0
   38.6240   77.1010   16.5220 C   0  0  0  0  0  0  0  0  0  0  0  0
   37.1420   77.3220   16.3670 C   0  0  0  0  0  0  0  0  0  0  0  0
   36.7800   78.3640   15.3700 C   0  0  0  0  0  0  0  0  0  0  0  0
   35.2600   78.4780   15.4080 C   0  0  0  0  0  0  0  0  0  0  0  0
   34.7820   79.5530   14.4570 C   0  0  0  0  0  0  0  0  0  0  0  0
   33.2590   79.7160   14.4850 C   0  0  0  0  0  0  0  0  0  0  0  0
   34.5652   76.0746   22.6641 H   0  0  0  0  0  0  0  0  0  0  0  0
   34.9140   77.4190   21.5251 H   0  0  0  0  0  0  0  0  0  0  0  0
   33.2960   76.6389   21.5251 H   0  0  0  0  0  0  0  0  0  0  0  0
   34.7087   74.4348   20.9827 H   0  0  0  0  0  0  0  0  0  0  0  0
   34.3010   75.5753   19.6730 H   0  0  0  0  0  0  0  0  0  0  0  0
   36.5637   76.7293   20.7156 H   0  0  0  0  0  0  0  0  0  0  0  0
   36.8709   74.9347   20.9505 H   0  0  0  0  0  0  0  0  0  0  0  0
   36.6202   74.5320   18.5940 H   0  0  0  0  0  0  0  0  0  0  0  0
   36.1973   76.2512   18.2966 H   0  0  0  0  0  0  0  0  0  0  0  0
   38.4501   76.9471   19.1964 H   0  0  0  0  0  0  0  0  0  0  0  0
   38.8489   75.1702   19.4132 H   0  0  0  0  0  0  0  0  0  0  0  0
   39.9686   75.7017   17.4563 H   0  0  0  0  0  0  0  0  0  0  0  0
   38.3619   75.0182   16.8854 H   0  0  0  0  0  0  0  0  0  0  0  0
   39.0745   77.9783   17.0092 H   0  0  0  0  0  0  0  0  0  0  0  0
   39.0739   76.9549   15.5289 H   0  0  0  0  0  0  0  0  0  0  0  0
   36.6828   76.3724   16.0551 H   0  0  0  0  0  0  0  0  0  0  0  0
   36.7726   77.6758   17.3408 H   0  0  0  0  0  0  0  0  0  0  0  0
   37.2415   79.3257   15.6386 H   0  0  0  0  0  0  0  0  0  0  0  0
   37.1374   78.0983   14.3642 H   0  0  0  0  0  0  0  0  0  0  0  0
   34.8179   77.5141   15.1155 H   0  0  0  0  0  0  0  0  0  0  0  0
   34.9501   78.7450   16.4291 H   0  0  0  0  0  0  0  0  0  0  0  0
   35.2457   80.5091   14.7414 H   0  0  0  0  0  0  0  0  0  0  0  0
   35.0707   79.2549   13.4383 H   0  0  0  0  0  0  0  0  0  0  0  0
   32.9133   79.7530   15.5286 H   0  0  0  0  0  0  0  0  0  0  0  0
   32.9806   80.6491   13.9732 H   0  0  0  0  0  0  0  0  0  0  0  0
   32.7895   78.8630   13.9732 H   0  0  0  0  0  0  0  0  0  0  0  0
  1  2  1  0
  2  3  1  0
  3  4  1  0
  4  5  1  0
  5  6  1  0
  6  7  1  0
  7  8  1  0
  8  9  1  0
  9 10  1  0
 10 11  1  0
 11 12  1  0
  1 13  1  0
  1 14  1  0
  1 15  1  0
  2 16  1  0
  2 17  1  0
  3 18  1  0
  3 19  1  0
  4 20  1  0
  4 21  1  0
  5 22  1  0
  5 23  1  0
  6 24  1  0
  6 25  1  0
  7 26  1  0
  7 27  1  0
  8 28  1  0
  8 29  1  0
  9 30  1  0
  9 31  1  0
 10 32  1  0
 10 33  1  0
 11 34  1  0
 11 35  1  0
 12 36  1  0
 12 37  1  0
 12 38  1  0
A    1
C1
A    2
C2
A    3
C3
A    4
C4
A    5
C5
A    6
C6
A    7
C7
A    8
C8
A    9
C9
A   10
C10
A   11
C11
A   12
C12
M  END
