1OTY_6MP_A_247
     RDKit          3D

 16 17  0  0  0  0  0  0  0  0999 V2000
   87.8250   66.3110   18.6130 N   0  0  0  0  0  0  0  0  0  0  0  0
   87.2130   65.0790   18.1740 C   0  0  0  0  0  0  0  0  0  0  0  0
   87.4100   63.7520   18.6590 N   0  0  0  0  0  0  0  0  0  0  0  0
   86.6610   62.7810   18.0120 C   0  0  0  0  0  0  0  0  0  0  0  0
   85.7770   63.0130   16.9730 N   0  0  0  0  0  0  0  0  0  0  0  0
   85.5890   64.3320   16.5000 C   0  0  0  0  0  0  0  0  0  0  0  0
   84.5930   64.5430   15.3400 C   0  0  0  0  0  0  0  0  0  0  0  0
   86.3270   65.4450   17.1060 C   0  0  0  0  0  0  0  0  0  0  0  0
   86.3670   66.8100   16.8790 N   0  0  0  0  0  0  0  0  0  0  0  0
   87.2450   67.2410   17.7780 C   0  0  0  0  0  0  0  0  0  0  0  0
   86.7791   61.7417   18.3523 H   0  0  0  0  0  0  0  0  0  0  0  0
   83.5939   64.7547   15.7485 H   0  0  0  0  0  0  0  0  0  0  0  0
   84.9238   65.3910   14.7224 H   0  0  0  0  0  0  0  0  0  0  0  0
   84.5515   63.6337   14.7224 H   0  0  0  0  0  0  0  0  0  0  0  0
   85.8431   67.3584   16.1821 H   0  0  0  0  0  0  0  0  0  0  0  0
   87.5012   68.3081   17.8535 H   0  0  0  0  0  0  0  0  0  0  0  0
  1  2  1  0
  1 10  2  0
  2  3  2  0
  2  8  1  0
  3  4  1  0
  4  5  2  0
  5  6  1  0
  6  7  1  0
  6  8  2  0
  8  9  1  0
  9 10  1  0
  4 11  1  0
  7 12  1  0
  7 13  1  0
  7 14  1  0
  9 15  1  0
 10 16  1  0
A    1
N9
A    2
C4
A    3
N3
A    4
C2
A    5
N1
A    6
C6
A    7
C7
A    8
C5
A    9
N7
A   10
C8
M  END
