1OUY_094_A_501
     RDKit          3D

 52 56  0  0  0  0  0  0  0  0999 V2000
   37.0730   33.2760   32.3530 F   0  0  0  0  0  0  0  0  0  0  0  0
   38.2180   32.6250   32.1570 C   0  0  0  0  0  0  0  0  0  0  0  0
   38.5430   31.5490   33.0140 C   0  0  0  0  0  0  0  0  0  0  0  0
   39.7580   30.8530   32.8080 C   0  0  0  0  0  0  0  0  0  0  0  0
   40.6380   31.2380   31.7670 C   0  0  0  0  0  0  0  0  0  0  0  0
   42.1610   30.3360   31.5450 S   0  0  0  0  0  0  0  0  0  0  0  0
   43.4540   31.5380   31.7920 C   0  0  0  0  0  0  0  0  0  0  0  0
   44.8030   31.3040   31.4080 C   0  0  0  0  0  0  0  0  0  0  0  0
   45.7430   32.3490   31.6290 C   0  0  0  0  0  0  0  0  0  0  0  0
   45.3470   33.5860   32.2450 C   0  0  0  0  0  0  0  0  0  0  0  0
   46.2210   34.6870   32.4770 N   0  0  0  0  0  0  0  0  0  0  0  0
   45.7840   35.8880   33.0660 C   0  0  0  0  0  0  0  0  0  0  0  0
   46.5150   36.8420   33.2720 O   0  0  0  0  0  0  0  0  0  0  0  0
   44.4820   35.9910   33.4170 N   0  0  0  0  0  0  0  0  0  0  0  0
   43.4750   34.9510   33.2350 C   0  0  0  0  0  0  0  0  0  0  0  0
   43.9760   33.6940   32.5880 C   0  0  0  0  0  0  0  0  0  0  0  0
   43.0750   32.7050   32.3870 N   0  0  0  0  0  0  0  0  0  0  0  0
   47.5780   34.6360   32.1330 C   0  0  0  0  0  0  0  0  0  0  0  0
   48.5990   34.1770   33.0440 C   0  0  0  0  0  0  0  0  0  0  0  0
   48.2200   33.6570   34.6480 Cl  0  0  0  0  0  0  0  0  0  0  0  0
   49.9610   34.1470   32.6570 C   0  0  0  0  0  0  0  0  0  0  0  0
   50.3520   34.5530   31.3650 C   0  0  0  0  0  0  0  0  0  0  0  0
   49.3710   35.0070   30.4350 C   0  0  0  0  0  0  0  0  0  0  0  0
   48.0030   35.0420   30.8110 C   0  0  0  0  0  0  0  0  0  0  0  0
   46.8530   35.6080   29.6160 Cl  0  0  0  0  0  0  0  0  0  0  0  0
   45.2450   30.0490   30.7750 C   0  0  0  0  0  0  0  0  0  0  0  0
   45.2790   28.7450   31.5960 C   0  0  0  0  0  0  0  0  0  0  0  0
   45.7370   27.5000   30.7870 C   0  0  0  0  0  0  0  0  0  0  0  0
   46.6500   27.8440   29.6650 N   0  0  0  0  0  0  0  0  0  0  0  0
   46.0820   28.8240   28.7090 C   0  0  0  0  0  0  0  0  0  0  0  0
   45.6110   30.0690   29.4600 C   0  0  0  0  0  0  0  0  0  0  0  0
   40.2730   32.3300   30.9200 C   0  0  0  0  0  0  0  0  0  0  0  0
   41.0890   32.7100   29.9250 F   0  0  0  0  0  0  0  0  0  0  0  0
   39.0670   33.0370   31.1080 C   0  0  0  0  0  0  0  0  0  0  0  0
   37.8627   31.2573   33.8277 H   0  0  0  0  0  0  0  0  0  0  0  0
   40.0207   30.0074   33.4607 H   0  0  0  0  0  0  0  0  0  0  0  0
   46.7902   32.2080   31.3234 H   0  0  0  0  0  0  0  0  0  0  0  0
   44.1765   36.8753   33.8477 H   0  0  0  0  0  0  0  0  0  0  0  0
   43.0716   34.6889   34.2242 H   0  0  0  0  0  0  0  0  0  0  0  0
   42.7192   35.3689   32.5537 H   0  0  0  0  0  0  0  0  0  0  0  0
   50.7223   33.8030   33.3726 H   0  0  0  0  0  0  0  0  0  0  0  0
   51.4124   34.5197   31.0746 H   0  0  0  0  0  0  0  0  0  0  0  0
   49.6741   35.3295   29.4280 H   0  0  0  0  0  0  0  0  0  0  0  0
   45.0035   28.6998   32.6600 H   0  0  0  0  0  0  0  0  0  0  0  0
   46.2604   26.8122   31.4674 H   0  0  0  0  0  0  0  0  0  0  0  0
   44.8378   27.0393   30.3520 H   0  0  0  0  0  0  0  0  0  0  0  0
   47.5149   28.2399   30.0601 H   0  0  0  0  0  0  0  0  0  0  0  0
   46.8525   29.1088   27.9774 H   0  0  0  0  0  0  0  0  0  0  0  0
   45.2262   28.3689   28.1889 H   0  0  0  0  0  0  0  0  0  0  0  0
   44.7367   30.4437   28.9076 H   0  0  0  0  0  0  0  0  0  0  0  0
   46.5339   30.6664   29.4971 H   0  0  0  0  0  0  0  0  0  0  0  0
   38.7971   33.8822   30.4578 H   0  0  0  0  0  0  0  0  0  0  0  0
  1  2  1  0
  2  3  2  0
  2 34  1  0
  3  4  1  0
  4  5  2  0
  5  6  1  0
  5 32  1  0
  6  7  1  0
  7  8  1  0
  7 17  2  0
  8  9  2  0
  8 26  1  0
  9 10  1  0
 10 11  1  0
 10 16  2  0
 11 12  1  0
 11 18  1  0
 12 13  2  0
 12 14  1  0
 14 15  1  0
 15 16  1  0
 16 17  1  0
 18 19  2  0
 18 24  1  0
 19 20  1  0
 19 21  1  0
 21 22  2  0
 22 23  1  0
 23 24  2  0
 24 25  1  0
 26 27  2  0
 26 31  1  0
 27 28  1  0
 28 29  1  0
 29 30  1  0
 30 31  1  0
 32 33  1  0
 32 34  2  0
  3 35  1  0
  4 36  1  0
  9 37  1  0
 14 38  1  0
 15 39  1  0
 15 40  1  0
 21 41  1  0
 22 42  1  0
 23 43  1  0
 27 44  1  0
 28 45  1  0
 28 46  1  0
 29 47  1  0
 30 48  1  0
 30 49  1  0
 31 50  1  0
 31 51  1  0
 34 52  1  0
A    1
F1
A    2
C1
A    3
C2
A    4
C3
A    5
C4
A    6
S1
A    7
C5
A    8
C6
A    9
C7
A   10
C8
A   11
N1
A   12
C9
A   13
O1
A   14
N2
A   15
C10
A   16
C11
A   17
N3
A   18
C12
A   19
C13
A   20
CL1
A   21
C14
A   22
C15
A   23
C16
A   24
C17
A   25
CL2
A   26
C18
A   27
C19
A   28
C20
A   29
N4
A   30
C21
A   31
C22
A   32
C23
A   33
F2
A   34
C24
M  END
