1OWH_239_A_1001
     RDKit          3D

 42 44  0  0  0  0  0  0  0  0999 V2000
   17.0260   19.5340   33.8170 N   0  0  0  0  0  0  0  0  0  0  0  0
   18.3420   19.7790   34.0210 C   0  0  0  0  0  0  0  0  0  0  0  0
   18.8990   20.9440   34.4160 N   0  0  0  0  0  0  0  0  0  0  0  0
   19.2400   18.6840   33.6740 C   0  0  0  0  0  0  0  0  0  0  0  0
   20.5630   18.5360   34.1950 C   0  0  0  0  0  0  0  0  0  0  0  0
   21.4750   17.5390   33.8390 C   0  0  0  0  0  0  0  0  0  0  0  0
   22.6920   17.4620   34.5200 C   0  0  0  0  0  0  0  0  0  0  0  0
   23.5100   16.3800   34.1390 C   0  0  0  0  0  0  0  0  0  0  0  0
   23.3010   15.4310   33.1170 C   0  0  0  0  0  0  0  0  0  0  0  0
   22.0280   15.5900   32.5470 C   0  0  0  0  0  0  0  0  0  0  0  0
   21.0740   16.5880   32.8630 C   0  0  0  0  0  0  0  0  0  0  0  0
   19.8070   16.5780   32.2680 C   0  0  0  0  0  0  0  0  0  0  0  0
   18.9440   17.6150   32.6920 C   0  0  0  0  0  0  0  0  0  0  0  0
   24.3060   14.4770   32.6780 C   0  0  0  0  0  0  0  0  0  0  0  0
   25.1000   14.1030   33.5500 O   0  0  0  0  0  0  0  0  0  0  0  0
   24.4480   14.1640   31.3640 N   0  0  0  0  0  0  0  0  0  0  0  0
   25.3860   13.3270   30.7300 C   0  0  0  0  0  0  0  0  0  0  0  0
   25.9770   12.2390   31.4150 C   0  0  0  0  0  0  0  0  0  0  0  0
   26.9420   11.4730   30.7230 C   0  0  0  0  0  0  0  0  0  0  0  0
   27.1990   11.7810   29.3630 C   0  0  0  0  0  0  0  0  0  0  0  0
   26.5550   12.8220   28.6630 C   0  0  0  0  0  0  0  0  0  0  0  0
   25.7090   13.6600   29.4110 C   0  0  0  0  0  0  0  0  0  0  0  0
   28.2610   10.9740   28.6540 C   0  0  0  0  0  0  0  0  0  0  0  0
   29.6080   11.4260   28.9550 N   0  0  0  0  0  0  0  0  0  0  0  0
   16.7171   18.5993   33.5140 H   0  0  0  0  0  0  0  0  0  0  0  0
   18.9989   21.1529   35.4196 H   0  0  0  0  0  0  0  0  0  0  0  0
   19.2240   21.6237   33.7137 H   0  0  0  0  0  0  0  0  0  0  0  0
   20.8924   19.2725   34.9427 H   0  0  0  0  0  0  0  0  0  0  0  0
   22.9880   18.1878   35.2918 H   0  0  0  0  0  0  0  0  0  0  0  0
   24.4378   16.2590   34.7173 H   0  0  0  0  0  0  0  0  0  0  0  0
   21.7411   14.8627   31.7732 H   0  0  0  0  0  0  0  0  0  0  0  0
   19.5059   15.8220   31.5279 H   0  0  0  0  0  0  0  0  0  0  0  0
   17.9403   17.6295   32.2422 H   0  0  0  0  0  0  0  0  0  0  0  0
   23.7640   14.6073   30.7342 H   0  0  0  0  0  0  0  0  0  0  0  0
   25.6950   11.9978   32.4505 H   0  0  0  0  0  0  0  0  0  0  0  0
   27.4809   10.6573   31.2273 H   0  0  0  0  0  0  0  0  0  0  0  0
   26.7071   12.9713   27.5838 H   0  0  0  0  0  0  0  0  0  0  0  0
   25.3018   14.5764   28.9589 H   0  0  0  0  0  0  0  0  0  0  0  0
   28.1666    9.9221   28.9617 H   0  0  0  0  0  0  0  0  0  0  0  0
   28.1043   11.0993   27.5725 H   0  0  0  0  0  0  0  0  0  0  0  0
   29.7356   11.4688   29.9762 H   0  0  0  0  0  0  0  0  0  0  0  0
   30.2894   10.7676   28.5512 H   0  0  0  0  0  0  0  0  0  0  0  0
  1  2  2  3
  2  3  1  0
  2  4  1  0
  4  5  2  0
  4 13  1  0
  5  6  1  0
  6  7  2  0
  6 11  1  0
  7  8  1  0
  8  9  2  0
  9 10  1  0
  9 14  1  0
 10 11  2  0
 11 12  1  0
 12 13  2  0
 14 15  2  0
 14 16  1  0
 16 17  1  0
 17 18  2  0
 17 22  1  0
 18 19  1  0
 19 20  2  0
 20 21  1  0
 20 23  1  0
 21 22  2  0
 23 24  1  0
  1 25  1  0
  3 26  1  0
  3 27  1  0
  5 28  1  0
  7 29  1  0
  8 30  1  0
 10 31  1  0
 12 32  1  0
 13 33  1  0
 16 34  1  0
 18 35  1  0
 19 36  1  0
 21 37  1  0
 22 38  1  0
 23 39  1  0
 23 40  1  0
 24 41  1  0
 24 42  1  0
A    1
N18
A    2
C17
A    3
N19
A    4
C12
A    5
C13
A    6
C3
A    7
C4
A    8
C5
A    9
C6
A   10
C1
A   11
C2
A   12
C10
A   13
C11
A   14
C23
A   15
O35
A   16
N24
A   17
C25
A   18
C30
A   19
C29
A   20
C28
A   21
C27
A   22
C26
A   23
C37
A   24
N38
M  END
