1OWI_426_A_245
     RDKit          3D

 51 54  0  0  0  0  0  0  0  0999 V2000
   17.1460   19.5630   34.0330 N   0  0  0  0  0  0  0  0  0  0  0  0
   18.4370   19.6740   34.0900 C   0  0  0  0  0  0  0  0  0  0  0  0
   18.9670   20.8550   34.4390 N   0  0  0  0  0  0  0  0  0  0  0  0
   19.2930   18.5410   33.7320 C   0  0  0  0  0  0  0  0  0  0  0  0
   20.6190   18.5020   34.2910 C   0  0  0  0  0  0  0  0  0  0  0  0
   21.5790   17.5160   33.9250 C   0  0  0  0  0  0  0  0  0  0  0  0
   22.8780   17.5500   34.5090 C   0  0  0  0  0  0  0  0  0  0  0  0
   23.8840   16.6040   34.1530 C   0  0  0  0  0  0  0  0  0  0  0  0
   23.6000   15.5920   33.1820 C   0  0  0  0  0  0  0  0  0  0  0  0
   22.2620   15.5510   32.5840 C   0  0  0  0  0  0  0  0  0  0  0  0
   21.2320   16.4980   32.9410 C   0  0  0  0  0  0  0  0  0  0  0  0
   19.8860   16.5220   32.3900 C   0  0  0  0  0  0  0  0  0  0  0  0
   18.9060   17.5200   32.7710 C   0  0  0  0  0  0  0  0  0  0  0  0
   24.7200   14.6820   32.8550 C   0  0  0  0  0  0  0  0  0  0  0  0
   25.6970   14.5930   33.5810 O   0  0  0  0  0  0  0  0  0  0  0  0
   24.6130   13.9590   31.6980 N   0  0  0  0  0  0  0  0  0  0  0  0
   25.5790   13.1240   31.1960 C   0  0  0  0  0  0  0  0  0  0  0  0
   25.9280   11.9100   31.8250 C   0  0  0  0  0  0  0  0  0  0  0  0
   26.9330   11.0850   31.2780 C   0  0  0  0  0  0  0  0  0  0  0  0
   27.5790   11.4640   30.0960 C   0  0  0  0  0  0  0  0  0  0  0  0
   27.2350   12.6810   29.4580 C   0  0  0  0  0  0  0  0  0  0  0  0
   27.8420   13.2250   28.3150 O   0  0  0  0  0  0  0  0  0  0  0  0
   28.5880   12.3390   27.4780 C   0  0  0  0  0  0  0  0  0  0  0  0
   27.8360   12.1370   26.1280 C   0  0  0  0  0  0  0  0  0  0  0  0
   28.6730   12.8340   25.0470 C   0  0  0  0  0  0  0  0  0  0  0  0
   29.9700   13.3800   25.7140 C   0  0  0  0  0  0  0  0  0  0  0  0
   29.9990   12.9220   27.1930 C   0  0  0  0  0  0  0  0  0  0  0  0
   26.2310   13.4860   30.0120 C   0  0  0  0  0  0  0  0  0  0  0  0
   16.7176   18.6649   33.7671 H   0  0  0  0  0  0  0  0  0  0  0  0
   19.0755   21.0968   35.4343 H   0  0  0  0  0  0  0  0  0  0  0  0
   19.2657   21.5205   33.7118 H   0  0  0  0  0  0  0  0  0  0  0  0
   20.9022   19.2650   35.0310 H   0  0  0  0  0  0  0  0  0  0  0  0
   23.1109   18.3256   35.2534 H   0  0  0  0  0  0  0  0  0  0  0  0
   24.8768   16.6522   34.6241 H   0  0  0  0  0  0  0  0  0  0  0  0
   22.0354   14.7737   31.8393 H   0  0  0  0  0  0  0  0  0  0  0  0
   19.6009   15.7536   31.6563 H   0  0  0  0  0  0  0  0  0  0  0  0
   17.8928   17.5055   32.3431 H   0  0  0  0  0  0  0  0  0  0  0  0
   23.7382   14.0488   31.1617 H   0  0  0  0  0  0  0  0  0  0  0  0
   25.4130   11.6050   32.7479 H   0  0  0  0  0  0  0  0  0  0  0  0
   27.2083   10.1456   31.7796 H   0  0  0  0  0  0  0  0  0  0  0  0
   28.3548   10.8162   29.6618 H   0  0  0  0  0  0  0  0  0  0  0  0
   28.6950   11.3741   27.9952 H   0  0  0  0  0  0  0  0  0  0  0  0
   27.7435   11.0643   25.9026 H   0  0  0  0  0  0  0  0  0  0  0  0
   26.8208   12.5579   26.1743 H   0  0  0  0  0  0  0  0  0  0  0  0
   28.9348   12.1147   24.2570 H   0  0  0  0  0  0  0  0  0  0  0  0
   28.1013   13.6584   24.5959 H   0  0  0  0  0  0  0  0  0  0  0  0
   30.8513   12.9855   25.1871 H   0  0  0  0  0  0  0  0  0  0  0  0
   29.9841   14.4787   25.6618 H   0  0  0  0  0  0  0  0  0  0  0  0
   30.2024   13.7763   27.8555 H   0  0  0  0  0  0  0  0  0  0  0  0
   30.7901   12.1793   27.3734 H   0  0  0  0  0  0  0  0  0  0  0  0
   25.9496   14.4213   29.5061 H   0  0  0  0  0  0  0  0  0  0  0  0
  1  2  2  3
  2  3  1  0
  2  4  1  0
  4  5  2  0
  4 13  1  0
  5  6  1  0
  6  7  2  0
  6 11  1  0
  7  8  1  0
  8  9  2  0
  9 10  1  0
  9 14  1  0
 10 11  2  0
 11 12  1  0
 12 13  2  0
 14 15  2  0
 14 16  1  0
 16 17  1  0
 17 18  2  0
 17 28  1  0
 18 19  1  0
 19 20  2  0
 20 21  1  0
 21 22  1  0
 21 28  2  0
 22 23  1  0
 23 24  1  0
 23 27  1  0
 24 25  1  0
 25 26  1  0
 26 27  1  0
  1 29  1  0
  3 30  1  0
  3 31  1  0
  5 32  1  0
  7 33  1  0
  8 34  1  0
 10 35  1  0
 12 36  1  0
 13 37  1  0
 16 38  1  0
 18 39  1  0
 19 40  1  0
 20 41  1  0
 23 42  1  0
 24 43  1  0
 24 44  1  0
 25 45  1  0
 25 46  1  0
 26 47  1  0
 26 48  1  0
 27 49  1  0
 27 50  1  0
 28 51  1  0
A    1
N18
A    2
C17
A    3
N19
A    4
C4
A    5
C5
A    6
C6
A    7
C10
A    8
C11
A    9
C12
A   10
C13
A   11
C1
A   12
C2
A   13
C3
A   14
C20
A   15
O23
A   16
N21
A   17
C22
A   18
C28
A   19
C27
A   20
C26
A   21
C25
A   22
O33
A   23
C34
A   24
C38
A   25
C37
A   26
C36
A   27
C35
A   28
C24
M  END
