1OWK_303_A_245
     RDKit          3D

 55 58  0  0  0  0  0  0  0  0999 V2000
   16.8270   19.5210   33.8950 N   0  0  0  0  0  0  0  0  0  0  0  0
   18.1490   19.6460   34.0260 C   0  0  0  0  0  0  0  0  0  0  0  0
   18.6210   20.6980   34.6860 N   0  0  0  0  0  0  0  0  0  0  0  0
   19.0720   18.6300   33.4680 C   0  0  0  0  0  0  0  0  0  0  0  0
   20.3550   18.4680   34.0840 C   0  0  0  0  0  0  0  0  0  0  0  0
   21.3000   17.4730   33.6990 C   0  0  0  0  0  0  0  0  0  0  0  0
   22.5670   17.3690   34.3590 C   0  0  0  0  0  0  0  0  0  0  0  0
   23.5250   16.3790   33.9880 C   0  0  0  0  0  0  0  0  0  0  0  0
   23.2420   15.4560   32.9260 C   0  0  0  0  0  0  0  0  0  0  0  0
   21.9590   15.5450   32.2480 C   0  0  0  0  0  0  0  0  0  0  0  0
   20.9680   16.5530   32.6240 C   0  0  0  0  0  0  0  0  0  0  0  0
   19.6650   16.7340   31.9940 C   0  0  0  0  0  0  0  0  0  0  0  0
   18.7250   17.7480   32.3870 C   0  0  0  0  0  0  0  0  0  0  0  0
   24.3510   14.5100   32.6360 C   0  0  0  0  0  0  0  0  0  0  0  0
   25.1630   14.2110   33.5140 O   0  0  0  0  0  0  0  0  0  0  0  0
   24.4400   14.0100   31.3670 N   0  0  0  0  0  0  0  0  0  0  0  0
   25.5050   13.3080   30.8260 C   0  0  0  0  0  0  0  0  0  0  0  0
   26.3210   12.4060   31.5490 C   0  0  0  0  0  0  0  0  0  0  0  0
   27.3380   11.6730   30.9030 C   0  0  0  0  0  0  0  0  0  0  0  0
   27.4820   11.7860   29.4900 C   0  0  0  0  0  0  0  0  0  0  0  0
   26.6960   12.7020   28.7690 C   0  0  0  0  0  0  0  0  0  0  0  0
   25.7510   13.4800   29.4470 C   0  0  0  0  0  0  0  0  0  0  0  0
   28.4830   10.9230   28.7370 C   0  0  0  0  0  0  0  0  0  0  0  0
   28.9420    9.7200   29.5700 C   0  0  0  0  0  0  0  0  0  0  0  0
   29.4040   10.2470   30.8550 N   0  0  0  0  0  0  0  0  0  0  0  0
   28.3050   10.7780   31.6790 C   0  0  0  0  0  0  0  0  0  0  0  0
   28.9100   11.4320   32.9320 C   0  0  0  0  0  0  0  0  0  0  0  0
   29.9000   12.5830   32.6320 C   0  0  0  0  0  0  0  0  0  0  0  0
   29.4260   10.4000   33.9300 C   0  0  0  0  0  0  0  0  0  0  0  0
   16.4336   18.7152   33.3882 H   0  0  0  0  0  0  0  0  0  0  0  0
   18.6226   20.7015   35.7160 H   0  0  0  0  0  0  0  0  0  0  0  0
   18.9854   21.5101   34.1677 H   0  0  0  0  0  0  0  0  0  0  0  0
   20.6268   19.1514   34.9020 H   0  0  0  0  0  0  0  0  0  0  0  0
   22.8073   18.0698   35.1721 H   0  0  0  0  0  0  0  0  0  0  0  0
   24.4866   16.3228   34.5192 H   0  0  0  0  0  0  0  0  0  0  0  0
   21.7288   14.8399   31.4357 H   0  0  0  0  0  0  0  0  0  0  0  0
   19.3863   16.0572   31.1729 H   0  0  0  0  0  0  0  0  0  0  0  0
   17.7588   17.8472   31.8706 H   0  0  0  0  0  0  0  0  0  0  0  0
   23.6319   14.1718   30.7491 H   0  0  0  0  0  0  0  0  0  0  0  0
   26.1600   12.2748   32.6292 H   0  0  0  0  0  0  0  0  0  0  0  0
   26.8228   12.8062   27.6813 H   0  0  0  0  0  0  0  0  0  0  0  0
   25.1865   14.2437   28.8920 H   0  0  0  0  0  0  0  0  0  0  0  0
   28.0122   10.5567   27.8128 H   0  0  0  0  0  0  0  0  0  0  0  0
   29.3659   11.5404   28.5148 H   0  0  0  0  0  0  0  0  0  0  0  0
   28.1037    9.0248   29.7251 H   0  0  0  0  0  0  0  0  0  0  0  0
   29.7444    9.1685   29.0581 H   0  0  0  0  0  0  0  0  0  0  0  0
   29.8687    9.4886   31.3744 H   0  0  0  0  0  0  0  0  0  0  0  0
   27.6578    9.9487   32.0005 H   0  0  0  0  0  0  0  0  0  0  0  0
   28.0770   11.9424   33.4375 H   0  0  0  0  0  0  0  0  0  0  0  0
   30.2657   13.0081   33.5783 H   0  0  0  0  0  0  0  0  0  0  0  0
   30.7499   12.1938   32.0522 H   0  0  0  0  0  0  0  0  0  0  0  0
   29.3881   13.3652   32.0522 H   0  0  0  0  0  0  0  0  0  0  0  0
   29.2466   10.7588   34.9542 H   0  0  0  0  0  0  0  0  0  0  0  0
   28.8984    9.4469   33.7777 H   0  0  0  0  0  0  0  0  0  0  0  0
   30.5051   10.2502   33.7777 H   0  0  0  0  0  0  0  0  0  0  0  0
  1  2  2  3
  2  3  1  0
  2  4  1  0
  4  5  2  0
  4 13  1  0
  5  6  1  0
  6  7  2  0
  6 11  1  0
  7  8  1  0
  8  9  2  0
  9 10  1  0
  9 14  1  0
 10 11  2  0
 11 12  1  0
 12 13  2  0
 14 15  2  0
 14 16  1  0
 16 17  1  0
 17 18  2  0
 17 22  1  0
 18 19  1  0
 19 20  2  0
 19 26  1  0
 20 21  1  0
 20 23  1  0
 21 22  2  0
 23 24  1  0
 24 25  1  0
 25 26  1  0
 26 27  1  0
 27 28  1  0
 27 29  1  0
  1 30  1  0
  3 31  1  0
  3 32  1  0
  5 33  1  0
  7 34  1  0
  8 35  1  0
 10 36  1  0
 12 37  1  0
 13 38  1  0
 16 39  1  0
 18 40  1  0
 21 41  1  0
 22 42  1  0
 23 43  1  0
 23 44  1  0
 24 45  1  0
 24 46  1  0
 25 47  1  0
 26 48  1  0
 27 49  1  0
 28 50  1  0
 28 51  1  0
 28 52  1  0
 29 53  1  0
 29 54  1  0
 29 55  1  0
A    1
N18
A    2
C17
A    3
N19
A    4
C4
A    5
C5
A    6
C6
A    7
C10
A    8
C11
A    9
C12
A   10
C13
A   11
C1
A   12
C2
A   13
C3
A   14
C20
A   15
O21
A   16
N22
A   17
C23
A   18
C28
A   19
C27
A   20
C26
A   21
C25
A   22
C24
A   23
C32
A   24
C33
A   25
N34
A   26
C35
A   27
C40
A   28
C42
A   29
C46
M  END
