1OXL_IDA_A_501
     RDKit          3D

 38 39  0  0  0  0  0  0  0  0999 V2000
   21.2480   21.3740   48.5040 N   0  0  0  0  0  0  0  0  0  0  0  0
   20.1160   20.7250   47.8360 C   0  0  0  0  0  0  0  0  0  0  0  0
   19.0350   20.6540   48.7460 O   0  0  0  0  0  0  0  0  0  0  0  0
   19.8230   21.5680   46.5990 C   0  0  0  0  0  0  0  0  0  0  0  0
   18.4640   21.8960   45.9420 C   0  0  0  0  0  0  0  0  0  0  0  0
   18.4960   22.5190   44.7200 N   0  0  0  0  0  0  0  0  0  0  0  0
   17.2510   22.7480   44.3060 C   0  0  0  0  0  0  0  0  0  0  0  0
   16.3500   22.2490   45.3050 C   0  0  0  0  0  0  0  0  0  0  0  0
   17.0940   21.7170   46.3280 C   0  0  0  0  0  0  0  0  0  0  0  0
   14.8880   22.3000   45.2740 C   0  0  0  0  0  0  0  0  0  0  0  0
   14.3190   22.7750   44.0860 C   0  0  0  0  0  0  0  0  0  0  0  0
   12.9390   22.2700   43.5140 C   0  0  0  0  0  0  0  0  0  0  0  0
   12.7060   20.8500   42.9040 C   0  0  0  0  0  0  0  0  0  0  0  0
   12.6900   19.9410   41.6880 C   0  0  0  0  0  0  0  0  0  0  0  0
   15.2210   23.3750   43.0940 C   0  0  0  0  0  0  0  0  0  0  0  0
   16.6470   23.3730   43.1310 C   0  0  0  0  0  0  0  0  0  0  0  0
   17.3290   23.1900   41.8260 C   0  0  0  0  0  0  0  0  0  0  0  0
   18.7510   23.5210   41.4150 C   0  0  0  0  0  0  0  0  0  0  0  0
   18.7910   24.9280   41.3990 O   0  0  0  0  0  0  0  0  0  0  0  0
   19.7330   22.9370   42.2470 O   0  0  0  0  0  0  0  0  0  0  0  0
   21.2931   21.3998   49.5327 H   0  0  0  0  0  0  0  0  0  0  0  0
   21.9983   21.8042   47.9447 H   0  0  0  0  0  0  0  0  0  0  0  0
   20.2588   22.5513   46.8296 H   0  0  0  0  0  0  0  0  0  0  0  0
   20.1943   20.8629   45.8408 H   0  0  0  0  0  0  0  0  0  0  0  0
   19.3505   22.7706   44.2029 H   0  0  0  0  0  0  0  0  0  0  0  0
   16.7185   21.2509   47.2509 H   0  0  0  0  0  0  0  0  0  0  0  0
   14.2741   21.9848   46.1306 H   0  0  0  0  0  0  0  0  0  0  0  0
   12.2235   22.3572   44.3449 H   0  0  0  0  0  0  0  0  0  0  0  0
   12.8457   22.8982   42.6158 H   0  0  0  0  0  0  0  0  0  0  0  0
   13.4049   20.2790   43.5329 H   0  0  0  0  0  0  0  0  0  0  0  0
   11.6649   21.1315   42.6873 H   0  0  0  0  0  0  0  0  0  0  0  0
   12.6715   18.8910   42.0153 H   0  0  0  0  0  0  0  0  0  0  0  0
   11.7954   20.1525   41.0838 H   0  0  0  0  0  0  0  0  0  0  0  0
   13.5915   20.1209   41.0838 H   0  0  0  0  0  0  0  0  0  0  0  0
   14.7493   23.8764   42.2361 H   0  0  0  0  0  0  0  0  0  0  0  0
   17.2342   22.1132   41.6221 H   0  0  0  0  0  0  0  0  0  0  0  0
   16.8276   24.0057   41.2844 H   0  0  0  0  0  0  0  0  0  0  0  0
   19.6431   22.9904   43.2315 H   0  0  0  0  0  0  0  0  0  0  0  0
  1  2  1  0
  2  3  2  0
  2  4  1  0
  4  5  1  0
  5  6  1  0
  5  9  2  0
  6  7  1  0
  7  8  2  0
  7 16  1  0
  8  9  1  0
  8 10  1  0
 10 11  2  0
 11 12  1  0
 11 15  1  0
 12 13  1  0
 13 14  1  0
 15 16  2  0
 16 17  1  0
 17 18  1  0
 18 19  2  0
 18 20  1  0
  1 21  1  0
  1 22  1  0
  4 23  1  0
  4 24  1  0
  6 25  1  0
  9 26  1  0
 10 27  1  0
 12 28  1  0
 12 29  1  0
 13 30  1  0
 13 31  1  0
 14 32  1  0
 14 33  1  0
 14 34  1  0
 15 35  1  0
 17 36  1  0
 17 37  1  0
 20 38  1  0
A    1
N2
A    2
C10
A    3
O1
A    4
C9
A    5
C1
A    6
N1
A    7
C4
A    8
C3
A    9
C2
A   10
C5
A   11
C6
A   12
C12
A   13
C13
A   14
C14
A   15
C7
A   16
C8
A   17
C11
A   18
C15
A   19
O3
A   20
O2
M  END
