1P0I_BUA_A_606
     RDKit          3D

 14 13  0  0  0  0  0  0  0  0999 V2000
  140.5420  114.5710   41.4320 C   0  0  0  0  0  0  0  0  0  0  0  0
  140.3690  116.1130   41.6150 C   0  0  0  0  0  0  0  0  0  0  0  0
  138.9490  116.5340   42.0810 C   0  0  0  0  0  0  0  0  0  0  0  0
  138.1470  117.3950   41.0510 C   0  0  0  0  0  0  0  0  0  0  0  0
  136.8440  116.8940   40.7220 O   0  0  0  0  0  0  0  0  0  0  0  0
  138.7920  117.9490   39.8600 O   0  0  0  0  0  0  0  0  0  0  0  0
  140.5961  114.0884   42.4190 H   0  0  0  0  0  0  0  0  0  0  0  0
  139.6833  114.1693   40.8741 H   0  0  0  0  0  0  0  0  0  0  0  0
  141.4684  114.3696   40.8741 H   0  0  0  0  0  0  0  0  0  0  0  0
  141.0962  116.4568   42.3653 H   0  0  0  0  0  0  0  0  0  0  0  0
  140.5317  116.5726   40.6289 H   0  0  0  0  0  0  0  0  0  0  0  0
  138.3716  115.6204   42.2858 H   0  0  0  0  0  0  0  0  0  0  0  0
  139.0906  117.1675   42.9691 H   0  0  0  0  0  0  0  0  0  0  0  0
  139.5395  118.5911   39.9553 H   0  0  0  0  0  0  0  0  0  0  0  0
  1  2  1  0
  2  3  1  0
  3  4  1  0
  4  5  2  0
  4  6  1  0
  1  7  1  0
  1  8  1  0
  1  9  1  0
  2 10  1  0
  2 11  1  0
  3 12  1  0
  3 13  1  0
  6 14  1  0
A    1
C1
A    2
C2
A    3
C3
A    4
C4
A    5
O1
A    6
O2
M  END
