1P1R_NMH_A_378
     RDKit          3D

 27 26  0  0  0  0  0  0  0  0999 V2000
   17.2020    6.3550   14.5400 C   0  0  0  0  0  0  0  0  0  0  0  0
   18.4530    5.6140   14.0940 C   0  0  0  0  0  0  0  0  0  0  0  0
   18.2060    4.7310   12.8630 C   0  0  0  0  0  0  0  0  0  0  0  0
   19.3370    3.7410   12.6030 C   0  0  0  0  0  0  0  0  0  0  0  0
   18.7590    2.5130   11.9160 C   0  0  0  0  0  0  0  0  0  0  0  0
   19.7450    1.4170   11.5200 C   0  0  0  0  0  0  0  0  0  0  0  0
   20.3700    0.7890   12.7450 C   0  0  0  0  0  0  0  0  0  0  0  0
   19.0360    0.3750   10.7910 N   0  0  0  0  0  0  0  0  0  0  0  0
   19.4880   -0.2950    9.7370 C   0  0  0  0  0  0  0  0  0  0  0  0
   20.5510   -0.0540    9.1900 O   0  0  0  0  0  0  0  0  0  0  0  0
   17.1621    6.3787   15.6390 H   0  0  0  0  0  0  0  0  0  0  0  0
   17.2273    7.3839   14.1518 H   0  0  0  0  0  0  0  0  0  0  0  0
   16.3118    5.8384   14.1518 H   0  0  0  0  0  0  0  0  0  0  0  0
   19.2312    6.3516   13.8485 H   0  0  0  0  0  0  0  0  0  0  0  0
   18.7643    4.9570   14.9195 H   0  0  0  0  0  0  0  0  0  0  0  0
   17.2747    4.1665   13.0177 H   0  0  0  0  0  0  0  0  0  0  0  0
   18.1429    5.3955   11.9887 H   0  0  0  0  0  0  0  0  0  0  0  0
   20.0947    4.2058   11.9551 H   0  0  0  0  0  0  0  0  0  0  0  0
   19.8095    3.4523   13.5535 H   0  0  0  0  0  0  0  0  0  0  0  0
   18.0215    2.0661   12.5989 H   0  0  0  0  0  0  0  0  0  0  0  0
   18.3441    2.8831   10.9669 H   0  0  0  0  0  0  0  0  0  0  0  0
   20.5317    1.8687   10.8978 H   0  0  0  0  0  0  0  0  0  0  0  0
   19.9288    1.2323   13.6499 H   0  0  0  0  0  0  0  0  0  0  0  0
   20.1814   -0.2947   12.7382 H   0  0  0  0  0  0  0  0  0  0  0  0
   21.4546    0.9724   12.7382 H   0  0  0  0  0  0  0  0  0  0  0  0
   18.0920    0.1340   11.1252 H   0  0  0  0  0  0  0  0  0  0  0  0
   18.8699   -1.1117    9.3357 H   0  0  0  0  0  0  0  0  0  0  0  0
  1  2  1  0
  2  3  1  0
  3  4  1  0
  4  5  1  0
  5  6  1  0
  6  7  1  0
  6  8  1  0
  8  9  1  0
  9 10  2  0
  1 11  1  0
  1 12  1  0
  1 13  1  0
  2 14  1  0
  2 15  1  0
  3 16  1  0
  3 17  1  0
  4 18  1  0
  4 19  1  0
  5 20  1  0
  5 21  1  0
  6 22  1  0
  7 23  1  0
  7 24  1  0
  7 25  1  0
  8 26  1  0
  9 27  1  0
A    1
C7
A    2
C6
A    3
C5
A    4
C4
A    5
C3
A    6
C2
A    7
C1
A    8
N
A    9
C
A   10
O
M  END
