1AV6_MGT_B_408
     RDKit          3D

 52 54  0  0  0  0  0  0  0  0999 V2000
   13.9840   53.7820   75.2860 P   0  0  0  0  0  0  0  0  0  0  0  0
   15.2050   53.7040   76.1350 O   0  0  0  0  0  0  0  0  0  0  0  0
   13.9670   53.0940   73.9930 O   0  0  0  0  0  0  0  0  0  0  0  0
   13.3790   55.2770   75.0420 O   0  0  0  0  0  0  0  0  0  0  0  0
   13.9460   56.8390   74.9520 P   0  0  0  0  0  0  0  0  0  0  0  0
   12.7570   57.7060   75.1890 O   0  0  0  0  0  0  0  0  0  0  0  0
   15.1280   56.9830   75.8420 O   0  0  0  0  0  0  0  0  0  0  0  0
   14.4720   57.1800   73.5050 O   0  0  0  0  0  0  0  0  0  0  0  0
   13.6750   57.0140   72.0730 P   0  0  0  0  0  0  0  0  0  0  0  0
   14.2620   55.8840   71.3190 O   0  0  0  0  0  0  0  0  0  0  0  0
   12.2290   57.1600   72.1310 O   0  0  0  0  0  0  0  0  0  0  0  0
   14.3080   58.3660   71.4550 O   0  0  0  0  0  0  0  0  0  0  0  0
   13.8640   59.7140   71.6860 C   0  0  0  0  0  0  0  0  0  0  0  0
   14.0400   60.5670   70.4220 C   0  0  0  0  0  0  0  0  0  0  0  0
   15.4120   60.4310   69.8980 O   0  0  0  0  0  0  0  0  0  0  0  0
   13.0230   60.1310   69.3090 C   0  0  0  0  0  0  0  0  0  0  0  0
   11.7750   60.8510   69.1980 O   0  0  0  0  0  0  0  0  0  0  0  0
   13.7570   60.6210   68.1250 C   0  0  0  0  0  0  0  0  0  0  0  0
   13.5500   62.0680   68.0570 O   0  0  0  0  0  0  0  0  0  0  0  0
   15.2290   60.2460   68.5090 C   0  0  0  0  0  0  0  0  0  0  0  0
   15.6530   58.8210   68.2450 N   0  0  0  0  0  0  0  0  0  0  0  0
   15.0650   57.5980   68.5650 C   0  0  0  0  0  0  0  0  0  0  0  0
   15.7610   56.5680   68.1910 N   0  0  0  0  0  0  0  0  0  0  0  0
   15.4810   55.1720   68.3270 C   0  0  0  0  0  0  0  0  0  0  0  0
   16.8950   57.1110   67.5750 C   0  0  0  0  0  0  0  0  0  0  0  0
   18.0460   56.4960   66.9730 C   0  0  0  0  0  0  0  0  0  0  0  0
   18.4090   55.3350   66.8280 O   0  0  0  0  0  0  0  0  0  0  0  0
   18.9290   57.4170   66.5170 N   0  0  0  0  0  0  0  0  0  0  0  0
   18.7620   58.7580   66.6060 C   0  0  0  0  0  0  0  0  0  0  0  0
   19.7390   59.4870   66.1650 N   0  0  0  0  0  0  0  0  0  0  0  0
   17.7170   59.3580   67.1450 N   0  0  0  0  0  0  0  0  0  0  0  0
   16.8250   58.4780   67.6120 C   0  0  0  0  0  0  0  0  0  0  0  0
   13.2713   53.1392   76.0392 H   0  0  0  0  0  0  0  0  0  0  0  0
   13.9428   52.1153   74.1402 H   0  0  0  0  0  0  0  0  0  0  0  0
   14.8357   56.9474   76.7872 H   0  0  0  0  0  0  0  0  0  0  0  0
   11.9380   57.1894   73.0768 H   0  0  0  0  0  0  0  0  0  0  0  0
   12.8007   59.7008   71.9676 H   0  0  0  0  0  0  0  0  0  0  0  0
   14.4675   60.1515   72.4949 H   0  0  0  0  0  0  0  0  0  0  0  0
   13.8502   61.6156   70.6950 H   0  0  0  0  0  0  0  0  0  0  0  0
   12.7551   59.0764   69.4703 H   0  0  0  0  0  0  0  0  0  0  0  0
   11.4279   61.0512   70.1033 H   0  0  0  0  0  0  0  0  0  0  0  0
   13.4627   60.2126   67.1469 H   0  0  0  0  0  0  0  0  0  0  0  0
   13.4972   62.4373   68.9740 H   0  0  0  0  0  0  0  0  0  0  0  0
   15.8340   60.9016   67.8654 H   0  0  0  0  0  0  0  0  0  0  0  0
   14.9348   57.5508   69.6562 H   0  0  0  0  0  0  0  0  0  0  0  0
   14.1082   57.5514   68.0243 H   0  0  0  0  0  0  0  0  0  0  0  0
   15.4286   54.9108   69.3943 H   0  0  0  0  0  0  0  0  0  0  0  0
   14.5189   54.9424   67.8457 H   0  0  0  0  0  0  0  0  0  0  0  0
   16.2801   54.5892   67.8457 H   0  0  0  0  0  0  0  0  0  0  0  0
   19.7904   57.0719   66.0699 H   0  0  0  0  0  0  0  0  0  0  0  0
   20.3704   59.9581   66.8286 H   0  0  0  0  0  0  0  0  0  0  0  0
   19.8839   59.5951   65.1510 H   0  0  0  0  0  0  0  0  0  0  0  0
  1  2  2  0
  1  3  1  0
  1  4  1  0
  4  5  1  0
  5  6  2  0
  5  7  1  0
  5  8  1  0
  8  9  1  0
  9 10  2  0
  9 11  1  0
  9 12  1  0
 12 13  1  0
 13 14  1  0
 14 15  1  0
 14 16  1  0
 15 20  1  0
 16 17  1  0
 16 18  1  0
 18 19  1  0
 18 20  1  0
 20 21  1  0
 21 22  1  0
 21 32  1  0
 22 23  1  0
 23 24  1  0
 23 25  1  0
 25 26  1  0
 25 32  2  0
 26 27  2  0
 26 28  1  0
 28 29  1  0
 29 30  1  0
 29 31  2  0
 31 32  1  0
  1 33  1  0
  3 34  1  0
  7 35  1  0
 11 36  1  0
 13 37  1  0
 13 38  1  0
 14 39  1  0
 16 40  1  0
 17 41  1  0
 18 42  1  0
 19 43  1  0
 20 44  1  0
 22 45  1  0
 22 46  1  0
 24 47  1  0
 24 48  1  0
 24 49  1  0
 28 50  1  0
 30 51  1  0
 30 52  1  0
A    1
PG
A    2
O1G
A    3
O2G
A    4
O3B
A    5
PB
A    6
O1B
A    7
O2B
A    8
O3A
A    9
PA
A   10
O1A
A   11
O2A
A   12
O5'
A   13
C5'
A   14
C4'
A   15
O4'
A   16
C3'
A   17
O3'
A   18
C2'
A   19
O2'
A   20
C1'
A   21
N9
A   22
C8
A   23
N7
A   24
CM7
A   25
C5
A   26
C6
A   27
O6
A   28
N1
A   29
C2
A   30
N2
A   31
N3
A   32
C4
M  END
