1P44_GEQ_A_350
     RDKit          3D

 53 58  0  0  0  0  0  0  0  0999 V2000
   17.6540   11.9710    9.9950 C   0  0  0  0  0  0  0  0  0  0  0  0
   16.5270   12.5240   10.6790 C   0  0  0  0  0  0  0  0  0  0  0  0
   16.6890   13.1250   11.9680 C   0  0  0  0  0  0  0  0  0  0  0  0
   17.9520   13.1930   12.5940 C   0  0  0  0  0  0  0  0  0  0  0  0
   19.0470   12.6380   11.8970 C   0  0  0  0  0  0  0  0  0  0  0  0
   18.9100   12.0400   10.6310 C   0  0  0  0  0  0  0  0  0  0  0  0
   20.1770   11.6090   10.2580 C   0  0  0  0  0  0  0  0  0  0  0  0
   21.0320   11.9630   11.3130 C   0  0  0  0  0  0  0  0  0  0  0  0
   20.3280   12.5810   12.2870 N   0  0  0  0  0  0  0  0  0  0  0  0
   15.1660   12.4420    9.9910 C   0  0  0  0  0  0  0  0  0  0  0  0
   14.7520   11.2970    9.8270 O   0  0  0  0  0  0  0  0  0  0  0  0
   14.4320   13.5550    9.5720 N   0  0  0  0  0  0  0  0  0  0  0  0
   13.0610   13.3470    9.0980 C   0  0  0  0  0  0  0  0  0  0  0  0
   12.7130   14.4340    8.0580 C   0  0  0  0  0  0  0  0  0  0  0  0
   12.7580   15.8270    8.6660 N   0  0  0  0  0  0  0  0  0  0  0  0
   13.7880   16.0020    9.7680 C   0  0  0  0  0  0  0  0  0  0  0  0
   14.9380   14.9320    9.7390 C   0  0  0  0  0  0  0  0  0  0  0  0
   12.8990   16.9440    7.6320 C   0  0  0  0  0  0  0  0  0  0  0  0
   11.7250   16.9240    6.6450 C   0  0  0  0  0  0  0  0  0  0  0  0
   10.3370   16.9530    6.9600 C   0  0  0  0  0  0  0  0  0  0  0  0
    9.3880   16.9240    5.8930 C   0  0  0  0  0  0  0  0  0  0  0  0
    9.8260   16.8670    4.5360 C   0  0  0  0  0  0  0  0  0  0  0  0
   11.2140   16.8400    4.2150 C   0  0  0  0  0  0  0  0  0  0  0  0
   12.1550   16.8690    5.2880 C   0  0  0  0  0  0  0  0  0  0  0  0
   14.0510   16.8980    6.5810 C   0  0  0  0  0  0  0  0  0  0  0  0
   15.4700   16.8990    6.8060 C   0  0  0  0  0  0  0  0  0  0  0  0
   16.3540   16.8530    5.6850 C   0  0  0  0  0  0  0  0  0  0  0  0
   15.8430   16.8050    4.3550 C   0  0  0  0  0  0  0  0  0  0  0  0
   14.4340   16.8040    4.1240 C   0  0  0  0  0  0  0  0  0  0  0  0
   13.5520   16.8530    5.2520 C   0  0  0  0  0  0  0  0  0  0  0  0
   17.5445   11.5065    9.0039 H   0  0  0  0  0  0  0  0  0  0  0  0
   15.8104   13.5427   12.4815 H   0  0  0  0  0  0  0  0  0  0  0  0
   18.0778   13.6585   13.5827 H   0  0  0  0  0  0  0  0  0  0  0  0
   20.4536   11.0950    9.3257 H   0  0  0  0  0  0  0  0  0  0  0  0
   22.1139   11.7667   11.3427 H   0  0  0  0  0  0  0  0  0  0  0  0
   20.7086   12.9441   13.1726 H   0  0  0  0  0  0  0  0  0  0  0  0
   12.9792   12.3534    8.6331 H   0  0  0  0  0  0  0  0  0  0  0  0
   12.3632   13.4100    9.9460 H   0  0  0  0  0  0  0  0  0  0  0  0
   13.4371   14.3819    7.2316 H   0  0  0  0  0  0  0  0  0  0  0  0
   11.6903   14.2495    7.6973 H   0  0  0  0  0  0  0  0  0  0  0  0
   14.2401   16.9995    9.6645 H   0  0  0  0  0  0  0  0  0  0  0  0
   13.2582   15.8760   10.7237 H   0  0  0  0  0  0  0  0  0  0  0  0
   15.4959   14.9894   10.6853 H   0  0  0  0  0  0  0  0  0  0  0  0
   15.5792   15.1572    8.8740 H   0  0  0  0  0  0  0  0  0  0  0  0
   13.0286   17.7851    8.3290 H   0  0  0  0  0  0  0  0  0  0  0  0
   10.0013   16.9970    8.0066 H   0  0  0  0  0  0  0  0  0  0  0  0
    8.3117   16.9458    6.1189 H   0  0  0  0  0  0  0  0  0  0  0  0
    9.0816   16.8436    3.7264 H   0  0  0  0  0  0  0  0  0  0  0  0
   11.5512   16.7980    3.1688 H   0  0  0  0  0  0  0  0  0  0  0  0
   15.8710   16.9348    7.8297 H   0  0  0  0  0  0  0  0  0  0  0  0
   17.4416   16.8546    5.8498 H   0  0  0  0  0  0  0  0  0  0  0  0
   16.5375   16.7686    3.5027 H   0  0  0  0  0  0  0  0  0  0  0  0
   14.0336   16.7664    3.1002 H   0  0  0  0  0  0  0  0  0  0  0  0
  1  2  2  0
  1  6  1  0
  2  3  1  0
  2 10  1  0
  3  4  2  0
  4  5  1  0
  5  6  2  0
  5  9  1  0
  6  7  1  0
  7  8  2  0
  8  9  1  0
 10 11  2  0
 10 12  1  0
 12 13  1  0
 12 17  1  0
 13 14  1  0
 14 15  1  0
 15 16  1  0
 15 18  1  0
 16 17  1  0
 18 19  1  0
 18 25  1  0
 19 20  2  0
 19 24  1  0
 20 21  1  0
 21 22  2  0
 22 23  1  0
 23 24  2  0
 24 30  1  0
 25 26  1  0
 25 30  2  0
 26 27  2  0
 27 28  1  0
 28 29  2  0
 29 30  1  0
  1 31  1  0
  3 32  1  0
  4 33  1  0
  7 34  1  0
  8 35  1  0
  9 36  1  0
 13 37  1  0
 13 38  1  0
 14 39  1  0
 14 40  1  0
 16 41  1  0
 16 42  1  0
 17 43  1  0
 17 44  1  0
 18 45  1  0
 20 46  1  0
 21 47  1  0
 22 48  1  0
 23 49  1  0
 26 50  1  0
 27 51  1  0
 28 52  1  0
 29 53  1  0
A    1
C1A
A    2
C2A
A    3
C3A
A    4
C4A
A    5
C5A
A    6
C6A
A    7
C7A
A    8
C8A
A    9
N9A
A   10
C1B
A   11
O2B
A   12
N1C
A   13
C2C
A   14
C3C
A   15
N4C
A   16
C5C
A   17
C6C
A   18
C1D
A   19
C1E
A   20
C2E
A   21
C3E
A   22
C4E
A   23
C5E
A   24
C6E
A   25
C1F
A   26
C2F
A   27
C3F
A   28
C4F
A   29
C5F
A   30
C6F
M  END
