1P4F_DRG_A_295
     RDKit          3D

 26 28  0  0  0  0  0  0  0  0999 V2000
   25.5120   30.2070   12.3140 C   0  0  0  0  0  0  0  0  0  0  0  0
   24.4630   29.3320   12.0310 C   0  0  0  0  0  0  0  0  0  0  0  0
   23.4360   29.0990   13.1130 C   0  0  0  0  0  0  0  0  0  0  0  0
   22.2940   28.1420   12.7760 C   0  0  0  0  0  0  0  0  0  0  0  0
   22.2860   27.5120   11.4060 C   0  0  0  0  0  0  0  0  0  0  0  0
   21.2420   26.6420   11.1050 C   0  0  0  0  0  0  0  0  0  0  0  0
   21.1820   26.0280    9.8560 C   0  0  0  0  0  0  0  0  0  0  0  0
   22.1730   26.2920    8.9040 C   0  0  0  0  0  0  0  0  0  0  0  0
   23.2160   27.1600    9.2120 C   0  0  0  0  0  0  0  0  0  0  0  0
   23.2780   27.7760   10.4620 C   0  0  0  0  0  0  0  0  0  0  0  0
   24.3950   28.7130   10.7850 C   0  0  0  0  0  0  0  0  0  0  0  0
   25.3610   28.9590    9.8710 N   0  0  0  0  0  0  0  0  0  0  0  0
   26.4110   29.8410   10.1500 N   0  0  0  0  0  0  0  0  0  0  0  0
   26.4850   30.4530   11.3440 C   0  0  0  0  0  0  0  0  0  0  0  0
   27.5100   31.3020   11.6000 N   0  0  0  0  0  0  0  0  0  0  0  0
   25.5720   30.7000   13.2955 H   0  0  0  0  0  0  0  0  0  0  0  0
   23.9616   28.6956   13.9910 H   0  0  0  0  0  0  0  0  0  0  0  0
   22.9578   30.0763   13.2749 H   0  0  0  0  0  0  0  0  0  0  0  0
   22.3220   27.3254   13.5125 H   0  0  0  0  0  0  0  0  0  0  0  0
   21.3909   28.7697   12.7976 H   0  0  0  0  0  0  0  0  0  0  0  0
   20.4630   26.4390   11.8546 H   0  0  0  0  0  0  0  0  0  0  0  0
   20.3586   25.3382    9.6190 H   0  0  0  0  0  0  0  0  0  0  0  0
   22.1276   25.8143    7.9142 H   0  0  0  0  0  0  0  0  0  0  0  0
   23.9972   27.3619    8.4644 H   0  0  0  0  0  0  0  0  0  0  0  0
   27.7697   31.5171   12.5732 H   0  0  0  0  0  0  0  0  0  0  0  0
   28.0292   31.7321   10.8213 H   0  0  0  0  0  0  0  0  0  0  0  0
  1  2  2  0
  1 14  1  0
  2  3  1  0
  2 11  1  0
  3  4  1  0
  4  5  1  0
  5  6  1  0
  5 10  2  0
  6  7  2  0
  7  8  1  0
  8  9  2  0
  9 10  1  0
 10 11  1  0
 11 12  2  0
 12 13  1  0
 13 14  2  0
 14 15  1  0
  1 16  1  0
  3 17  1  0
  3 18  1  0
  4 19  1  0
  4 20  1  0
  6 21  1  0
  7 22  1  0
  8 23  1  0
  9 24  1  0
 15 25  1  0
 15 26  1  0
A    1
C4
A    2
C14
A    3
C5
A    4
C6
A    5
C11
A    6
C7
A    7
C8
A    8
C9
A    9
C10
A   10
C12
A   11
C13
A   12
N1
A   13
N2
A   14
C3
A   15
N3
M  END
