1P6I_DP3_A_793
     RDKit          3D

 38 37  0  0  0  0  0  0  0  0999 V2000
    4.5850    2.2200   27.5200 N   0  0  0  0  0  0  0  0  0  0  0  0
    5.2710    2.2600   26.1780 C   0  0  0  0  0  0  0  0  0  0  0  0
    5.6200    0.8510   25.6120 C   0  0  0  0  0  0  0  0  0  0  0  0
    7.0270    0.4130   25.8750 N   0  0  0  0  0  0  0  0  0  0  0  0
    7.5780   -0.5830   24.9240 C   0  0  0  0  0  0  0  0  0  0  0  0
    9.1320   -0.7460   24.9840 C   0  0  0  0  0  0  0  0  0  0  0  0
    9.4420   -2.0590   25.6250 N   0  0  0  0  0  0  0  0  0  0  0  0
    9.8290   -0.7890   23.5790 C   0  0  0  0  0  0  0  0  0  0  0  0
   10.1630    0.5970   22.9980 C   0  0  0  0  0  0  0  0  0  0  0  0
   11.2080    1.3820   23.8130 C   0  0  0  0  0  0  0  0  0  0  0  0
   12.4740    0.5800   23.9700 N   0  0  0  0  0  0  0  0  0  0  0  0
   13.5450    0.6160   23.1990 C   0  0  0  0  0  0  0  0  0  0  0  0
   14.5720   -0.2070   23.5510 N   0  0  0  0  0  0  0  0  0  0  0  0
   13.5630    1.4520   22.1200 N   0  0  0  0  0  0  0  0  0  0  0  0
   14.5730    1.4130   21.1740 N   0  0  0  0  0  0  0  0  0  0  0  0
   14.4990    2.2180   20.1850 O   0  0  0  0  0  0  0  0  0  0  0  0
   15.5630    0.6200   21.2470 O   0  0  0  0  0  0  0  0  0  0  0  0
    5.2917    2.2612   28.2682 H   0  0  0  0  0  0  0  0  0  0  0  0
    3.9484    3.0253   27.6043 H   0  0  0  0  0  0  0  0  0  0  0  0
    4.6063    2.7668   25.4629 H   0  0  0  0  0  0  0  0  0  0  0  0
    6.2218    2.7951   26.3183 H   0  0  0  0  0  0  0  0  0  0  0  0
    4.9396    0.1177   26.0696 H   0  0  0  0  0  0  0  0  0  0  0  0
    5.5085    0.9138   24.5195 H   0  0  0  0  0  0  0  0  0  0  0  0
    7.6296    1.2478   25.8437 H   0  0  0  0  0  0  0  0  0  0  0  0
    7.1213   -1.5589   25.1456 H   0  0  0  0  0  0  0  0  0  0  0  0
    7.3406   -0.2164   23.9144 H   0  0  0  0  0  0  0  0  0  0  0  0
    9.5054    0.1298   25.5350 H   0  0  0  0  0  0  0  0  0  0  0  0
    9.4175   -1.9552   26.6495 H   0  0  0  0  0  0  0  0  0  0  0  0
    8.7427   -2.7569   25.3338 H   0  0  0  0  0  0  0  0  0  0  0  0
   10.7658   -1.3574   23.6758 H   0  0  0  0  0  0  0  0  0  0  0  0
    9.1153   -1.2587   22.8862 H   0  0  0  0  0  0  0  0  0  0  0  0
   10.5513    0.4602   21.9780 H   0  0  0  0  0  0  0  0  0  0  0  0
    9.2335    1.1847   23.0217 H   0  0  0  0  0  0  0  0  0  0  0  0
   11.4391    2.3231   23.2925 H   0  0  0  0  0  0  0  0  0  0  0  0
   10.7948    1.5891   24.8112 H   0  0  0  0  0  0  0  0  0  0  0  0
   12.5075   -0.0694   24.7688 H   0  0  0  0  0  0  0  0  0  0  0  0
   15.4346   -0.2238   22.9883 H   0  0  0  0  0  0  0  0  0  0  0  0
   12.7999    2.1343   22.0059 H   0  0  0  0  0  0  0  0  0  0  0  0
  1  2  1  0
  2  3  1  0
  3  4  1  0
  4  5  1  0
  5  6  1  0
  6  7  1  0
  6  8  1  0
  8  9  1  0
  9 10  1  0
 10 11  1  0
 11 12  1  0
 12 13  2  3
 12 14  1  0
 14 15  1  0
 15 16  2  0
 15 17  1  0
  1 18  1  0
  1 19  1  0
  2 20  1  0
  2 21  1  0
  3 22  1  0
  3 23  1  0
  4 24  1  0
  5 25  1  0
  5 26  1  0
  6 27  1  0
  7 28  1  0
  7 29  1  0
  8 30  1  0
  8 31  1  0
  9 32  1  0
  9 33  1  0
 10 34  1  0
 10 35  1  0
 11 36  1  0
 13 37  1  0
 14 38  1  0
M  CHG  2  15   1  17  -1
A    1
N2'
A    2
C2'
A    3
C1'
A    4
N1'
A    5
C
A    6
CA
A    7
N
A    8
CB
A    9
CG
A   10
CD
A   11
NE
A   12
CZ
A   13
NH2
A   14
NH1
A   15
NO
A   16
O2
A   17
O3
M  END
