1P8D_CO1_A_108
     RDKit          3D

 73 77  0  0  0  0  0  0  0  0999 V2000
   60.1020    7.8200   94.8010 O   0  0  0  0  0  0  0  0  0  0  0  0
   60.4030    6.4010   94.7780 C   0  0  0  0  0  0  0  0  0  0  0  0
   61.8440    6.1980   94.1590 C   0  0  0  0  0  0  0  0  0  0  0  0
   62.1140    4.7990   93.4690 C   0  0  0  0  0  0  0  0  0  0  0  0
   63.3820    4.2670   93.5160 C   0  0  0  0  0  0  0  0  0  0  0  0
   63.7710    2.8940   92.9400 C   0  0  0  0  0  0  0  0  0  0  0  0
   62.6980    2.0850   92.0830 C   0  0  0  0  0  0  0  0  0  0  0  0
   61.2390    2.3860   92.6450 C   0  0  0  0  0  0  0  0  0  0  0  0
   60.1500    1.5490   91.8530 C   0  0  0  0  0  0  0  0  0  0  0  0
   60.5170    0.0380   91.7900 C   0  0  0  0  0  0  0  0  0  0  0  0
   61.9480   -0.2620   91.1500 C   0  0  0  0  0  0  0  0  0  0  0  0
   61.9050    0.2150   89.6400 C   0  0  0  0  0  0  0  0  0  0  0  0
   62.5370   -1.7270   91.3400 C   0  0  0  0  0  0  0  0  0  0  0  0
   64.0440   -1.4710   91.0800 C   0  0  0  0  0  0  0  0  0  0  0  0
   64.3480   -0.0400   91.6110 C   0  0  0  0  0  0  0  0  0  0  0  0
   62.9570    0.5180   92.0690 C   0  0  0  0  0  0  0  0  0  0  0  0
   61.9100   -2.9430   90.4660 C   0  0  0  0  0  0  0  0  0  0  0  0
   60.3510   -3.0230   90.4180 C   0  0  0  0  0  0  0  0  0  0  0  0
   62.4220   -4.3720   90.8090 C   0  0  0  0  0  0  0  0  0  0  0  0
   62.0080   -4.9850   92.1670 C   0  0  0  0  0  0  0  0  0  0  0  0
   62.5880   -6.4070   92.2890 C   0  0  0  0  0  0  0  0  0  0  0  0
   62.7680   -7.0940   93.4940 O   0  0  0  0  0  0  0  0  0  0  0  0
   63.9830   -6.5910   92.8220 C   0  0  0  0  0  0  0  0  0  0  0  0
   64.7430   -5.3400   93.3700 C   0  0  0  0  0  0  0  0  0  0  0  0
   64.8090   -7.7010   92.1870 C   0  0  0  0  0  0  0  0  0  0  0  0
   60.9080    3.9810   92.7510 C   0  0  0  0  0  0  0  0  0  0  0  0
   60.6210    4.5570   91.3090 C   0  0  0  0  0  0  0  0  0  0  0  0
   59.6600    4.1710   93.6770 C   0  0  0  0  0  0  0  0  0  0  0  0
   59.2660    5.6260   94.0160 C   0  0  0  0  0  0  0  0  0  0  0  0
   60.0366    8.1283   95.7395 H   0  0  0  0  0  0  0  0  0  0  0  0
   60.4256    5.9793   95.7937 H   0  0  0  0  0  0  0  0  0  0  0  0
   61.9983    6.9814   93.4024 H   0  0  0  0  0  0  0  0  0  0  0  0
   62.5407    6.2481   95.0088 H   0  0  0  0  0  0  0  0  0  0  0  0
   64.1709    4.8633   93.9978 H   0  0  0  0  0  0  0  0  0  0  0  0
   64.6473    3.0517   92.2940 H   0  0  0  0  0  0  0  0  0  0  0  0
   63.9246    2.2674   93.8309 H   0  0  0  0  0  0  0  0  0  0  0  0
   62.7925    2.4273   91.0419 H   0  0  0  0  0  0  0  0  0  0  0  0
   61.2036    2.0412   93.6890 H   0  0  0  0  0  0  0  0  0  0  0  0
   59.1792    1.6590   92.3585 H   0  0  0  0  0  0  0  0  0  0  0  0
   60.1050    1.9335   90.8234 H   0  0  0  0  0  0  0  0  0  0  0  0
   60.5066   -0.3625   92.8145 H   0  0  0  0  0  0  0  0  0  0  0  0
   59.7723   -0.4410   91.1373 H   0  0  0  0  0  0  0  0  0  0  0  0
   61.8063    1.3100   89.6040 H   0  0  0  0  0  0  0  0  0  0  0  0
   62.8339   -0.0862   89.1337 H   0  0  0  0  0  0  0  0  0  0  0  0
   61.0449   -0.2475   89.1337 H   0  0  0  0  0  0  0  0  0  0  0  0
   62.2788   -2.1314   92.3298 H   0  0  0  0  0  0  0  0  0  0  0  0
   64.6535   -2.2128   91.6169 H   0  0  0  0  0  0  0  0  0  0  0  0
   64.2829   -1.5569   90.0097 H   0  0  0  0  0  0  0  0  0  0  0  0
   65.0477   -0.0813   92.4588 H   0  0  0  0  0  0  0  0  0  0  0  0
   64.8206    0.5956   90.8477 H   0  0  0  0  0  0  0  0  0  0  0  0
   62.8540    0.3505   93.1513 H   0  0  0  0  0  0  0  0  0  0  0  0
   62.2936   -2.6442   89.4793 H   0  0  0  0  0  0  0  0  0  0  0  0
   59.9532   -3.0434   91.4433 H   0  0  0  0  0  0  0  0  0  0  0  0
   59.9549   -2.1440   89.8884 H   0  0  0  0  0  0  0  0  0  0  0  0
   60.0469   -3.9379   89.8884 H   0  0  0  0  0  0  0  0  0  0  0  0
   62.0585   -5.0477   90.0207 H   0  0  0  0  0  0  0  0  0  0  0  0
   63.5144   -4.2631   90.8783 H   0  0  0  0  0  0  0  0  0  0  0  0
   62.3960   -4.3598   92.9846 H   0  0  0  0  0  0  0  0  0  0  0  0
   60.9107   -5.0310   92.2283 H   0  0  0  0  0  0  0  0  0  0  0  0
   62.0385   -6.6574   91.3696 H   0  0  0  0  0  0  0  0  0  0  0  0
   64.7325   -5.3573   94.4698 H   0  0  0  0  0  0  0  0  0  0  0  0
   65.7833   -5.3575   93.0129 H   0  0  0  0  0  0  0  0  0  0  0  0
   64.2481   -4.4248   93.0129 H   0  0  0  0  0  0  0  0  0  0  0  0
   65.2662   -8.3154   92.9766 H   0  0  0  0  0  0  0  0  0  0  0  0
   64.1583   -8.3310   91.5628 H   0  0  0  0  0  0  0  0  0  0  0  0
   65.5994   -7.2586   91.5628 H   0  0  0  0  0  0  0  0  0  0  0  0
   60.1320    5.5384   91.3968 H   0  0  0  0  0  0  0  0  0  0  0  0
   61.5694    4.6675   90.7628 H   0  0  0  0  0  0  0  0  0  0  0  0
   59.9617    3.8664   90.7628 H   0  0  0  0  0  0  0  0  0  0  0  0
   58.7999    3.6996   93.1790 H   0  0  0  0  0  0  0  0  0  0  0  0
   59.9394    3.7145   94.6380 H   0  0  0  0  0  0  0  0  0  0  0  0
   58.3667    5.6086   94.6492 H   0  0  0  0  0  0  0  0  0  0  0  0
   59.0849    6.1510   93.0665 H   0  0  0  0  0  0  0  0  0  0  0  0
  1  2  1  0
  2  3  1  0
  2 29  1  0
  3  4  1  0
  4  5  2  0
  4 26  1  0
  5  6  1  0
  6  7  1  0
  7  8  1  0
  7 16  1  0
  8  9  1  0
  8 26  1  0
  9 10  1  0
 10 11  1  0
 11 12  1  0
 11 13  1  0
 11 16  1  0
 13 14  1  0
 13 17  1  0
 14 15  1  0
 15 16  1  0
 17 18  1  0
 17 19  1  0
 19 20  1  0
 20 21  1  0
 21 22  1  0
 21 23  1  0
 22 23  1  0
 23 24  1  0
 23 25  1  0
 26 27  1  0
 26 28  1  0
 28 29  1  0
  1 30  1  0
  2 31  1  0
  3 32  1  0
  3 33  1  0
  5 34  1  0
  6 35  1  0
  6 36  1  0
  7 37  1  0
  8 38  1  0
  9 39  1  0
  9 40  1  0
 10 41  1  0
 10 42  1  0
 12 43  1  0
 12 44  1  0
 12 45  1  0
 13 46  1  0
 14 47  1  0
 14 48  1  0
 15 49  1  0
 15 50  1  0
 16 51  1  0
 17 52  1  0
 18 53  1  0
 18 54  1  0
 18 55  1  0
 19 56  1  0
 19 57  1  0
 20 58  1  0
 20 59  1  0
 21 60  1  0
 24 61  1  0
 24 62  1  0
 24 63  1  0
 25 64  1  0
 25 65  1  0
 25 66  1  0
 27 67  1  0
 27 68  1  0
 27 69  1  0
 28 70  1  0
 28 71  1  0
 29 72  1  0
 29 73  1  0
A    1
O24
A    2
C22
A    3
C18
A    4
C14
A    5
C9
A    6
C4
A    7
C1
A    8
C3
A    9
C8
A   10
C11
A   11
C5
A   12
C12
A   13
C10
A   14
C13
A   15
C6
A   16
C2
A   17
C17
A   18
C21
A   19
C20
A   20
C23
A   21
C25
A   22
O27
A   23
C26
A   24
C28
A   25
C29
A   26
C7
A   27
C16
A   28
C15
A   29
C19
M  END
