1M2Z_DEX_A_301
     RDKit          3D

 57 60  0  0  0  0  0  0  0  0999 V2000
   30.8150    6.8380    9.6380 C   0  0  0  0  0  0  0  0  0  0  0  0
   31.0790    7.5730    8.5640 C   0  0  0  0  0  0  0  0  0  0  0  0
   32.3500    8.3670    8.5490 C   0  0  0  0  0  0  0  0  0  0  0  0
   33.1920    8.3840    9.7900 C   0  0  0  0  0  0  0  0  0  0  0  0
   32.8600    7.6260   10.8320 C   0  0  0  0  0  0  0  0  0  0  0  0
   33.7450    7.7080   12.0400 C   0  0  0  0  0  0  0  0  0  0  0  0
   32.8990    8.0240   13.2700 C   0  0  0  0  0  0  0  0  0  0  0  0
   31.6540    7.1500   13.3840 C   0  0  0  0  0  0  0  0  0  0  0  0
   30.8260    7.0610   12.1020 C   0  0  0  0  0  0  0  0  0  0  0  0
   31.6650    6.7140   10.8710 C   0  0  0  0  0  0  0  0  0  0  0  0
   29.4930    6.3260   12.2370 C   0  0  0  0  0  0  0  0  0  0  0  0
   28.7280    6.5700   13.5340 C   0  0  0  0  0  0  0  0  0  0  0  0
   29.6260    6.4770   14.7670 C   0  0  0  0  0  0  0  0  0  0  0  0
   30.7830    7.4620   14.5980 C   0  0  0  0  0  0  0  0  0  0  0  0
   31.3930    7.6320   15.9860 C   0  0  0  0  0  0  0  0  0  0  0  0
   30.2030    7.4630   16.9260 C   0  0  0  0  0  0  0  0  0  0  0  0
   29.0230    7.0530   16.0480 C   0  0  0  0  0  0  0  0  0  0  0  0
   30.0650    5.0310   14.9890 C   0  0  0  0  0  0  0  0  0  0  0  0
   32.1830    5.2780   10.8610 C   0  0  0  0  0  0  0  0  0  0  0  0
   28.0530    6.1170   16.7520 C   0  0  0  0  0  0  0  0  0  0  0  0
   26.5460    6.3020   16.6910 C   0  0  0  0  0  0  0  0  0  0  0  0
   30.0040    8.7080   17.7840 C   0  0  0  0  0  0  0  0  0  0  0  0
   30.4060    8.3410   11.8910 F   0  0  0  0  0  0  0  0  0  0  0  0
   32.6900    8.9850    7.5430 O   0  0  0  0  0  0  0  0  0  0  0  0
   29.7060    4.9240   12.1580 O   0  0  0  0  0  0  0  0  0  0  0  0
   28.3010    8.2390   15.7480 O   0  0  0  0  0  0  0  0  0  0  0  0
   28.4710    5.1550   17.3930 O   0  0  0  0  0  0  0  0  0  0  0  0
   25.9300    5.1110   16.2250 O   0  0  0  0  0  0  0  0  0  0  0  0
   29.8786    6.2611    9.6236 H   0  0  0  0  0  0  0  0  0  0  0  0
   30.3854    7.5983    7.7106 H   0  0  0  0  0  0  0  0  0  0  0  0
   34.0853    9.0240    9.8389 H   0  0  0  0  0  0  0  0  0  0  0  0
   34.2576    6.7456   12.1850 H   0  0  0  0  0  0  0  0  0  0  0  0
   34.4914    8.5028   11.8944 H   0  0  0  0  0  0  0  0  0  0  0  0
   33.5165    7.8716   14.1675 H   0  0  0  0  0  0  0  0  0  0  0  0
   32.5592    9.0658   13.1741 H   0  0  0  0  0  0  0  0  0  0  0  0
   32.0681    6.1443   13.5490 H   0  0  0  0  0  0  0  0  0  0  0  0
   28.8858    6.7297   11.4134 H   0  0  0  0  0  0  0  0  0  0  0  0
   28.2817    7.5747   13.4971 H   0  0  0  0  0  0  0  0  0  0  0  0
   27.9578    5.7895   13.6207 H   0  0  0  0  0  0  0  0  0  0  0  0
   30.4891    8.4759   14.2886 H   0  0  0  0  0  0  0  0  0  0  0  0
   32.1558    6.8627   16.1763 H   0  0  0  0  0  0  0  0  0  0  0  0
   31.9029    8.5984   16.1126 H   0  0  0  0  0  0  0  0  0  0  0  0
   30.3508    6.6744   17.6785 H   0  0  0  0  0  0  0  0  0  0  0  0
   30.1266    4.8281   16.0684 H   0  0  0  0  0  0  0  0  0  0  0  0
   29.3329    4.3508   14.5293 H   0  0  0  0  0  0  0  0  0  0  0  0
   31.0517    4.8727   14.5293 H   0  0  0  0  0  0  0  0  0  0  0  0
   32.3097    4.9267   11.8957 H   0  0  0  0  0  0  0  0  0  0  0  0
   31.4614    4.6315   10.3401 H   0  0  0  0  0  0  0  0  0  0  0  0
   33.1511    5.2410   10.3401 H   0  0  0  0  0  0  0  0  0  0  0  0
   26.1670    6.5392   17.6960 H   0  0  0  0  0  0  0  0  0  0  0  0
   26.3105    7.1250   16.0001 H   0  0  0  0  0  0  0  0  0  0  0  0
   30.0482    8.4312   18.8477 H   0  0  0  0  0  0  0  0  0  0  0  0
   30.7970    9.4372   17.5616 H   0  0  0  0  0  0  0  0  0  0  0  0
   29.0232    9.1537   17.5616 H   0  0  0  0  0  0  0  0  0  0  0  0
   29.7633    4.5469   13.0716 H   0  0  0  0  0  0  0  0  0  0  0  0
   28.0308    8.6829   16.5906 H   0  0  0  0  0  0  0  0  0  0  0  0
   25.6460    4.5620   16.9983 H   0  0  0  0  0  0  0  0  0  0  0  0
  1  2  2  0
  1 10  1  0
  2  3  1  0
  3  4  1  0
  3 24  2  0
  4  5  2  0
  5  6  1  0
  5 10  1  0
  6  7  1  0
  7  8  1  0
  8  9  1  0
  8 14  1  0
  9 10  1  0
  9 11  1  0
  9 23  1  0
 10 19  1  0
 11 12  1  0
 11 25  1  0
 12 13  1  0
 13 14  1  0
 13 17  1  0
 13 18  1  0
 14 15  1  0
 15 16  1  0
 16 17  1  0
 16 22  1  0
 17 20  1  0
 17 26  1  0
 20 21  1  0
 20 27  2  0
 21 28  1  0
  1 29  1  0
  2 30  1  0
  4 31  1  0
  6 32  1  0
  6 33  1  0
  7 34  1  0
  7 35  1  0
  8 36  1  0
 11 37  1  0
 12 38  1  0
 12 39  1  0
 14 40  1  0
 15 41  1  0
 15 42  1  0
 16 43  1  0
 18 44  1  0
 18 45  1  0
 18 46  1  0
 19 47  1  0
 19 48  1  0
 19 49  1  0
 21 50  1  0
 21 51  1  0
 22 52  1  0
 22 53  1  0
 22 54  1  0
 25 55  1  0
 26 56  1  0
 28 57  1  0
A    1
C1
A    2
C2
A    3
C3
A    4
C4
A    5
C5
A    6
C6
A    7
C7
A    8
C8
A    9
C9
A   10
C10
A   11
C11
A   12
C12
A   13
C13
A   14
C14
A   15
C15
A   16
C16
A   17
C17
A   18
C18
A   19
C19
A   20
C20
A   21
C21
A   22
C22
A   23
F1
A   24
O1
A   25
O2
A   26
O3
A   27
O4
A   28
O5
M  END
