1PAX_DHQ_A_200
     RDKit          3D

 23 24  0  0  0  0  0  0  0  0999 V2000
   43.0130   23.7140   20.8480 C   0  0  0  0  0  0  0  0  0  0  0  0
   44.2270   23.6770   21.0700 O   0  0  0  0  0  0  0  0  0  0  0  0
   42.4910   24.2970   19.7320 N   0  0  0  0  0  0  0  0  0  0  0  0
   41.0510   24.3170   19.5210 C   0  0  0  0  0  0  0  0  0  0  0  0
   40.3950   22.9950   20.0040 C   0  0  0  0  0  0  0  0  0  0  0  0
   40.7870   22.7390   21.4680 C   0  0  0  0  0  0  0  0  0  0  0  0
   39.9100   22.1450   22.4020 C   0  0  0  0  0  0  0  0  0  0  0  0
   40.3550   21.9470   23.7140 C   0  0  0  0  0  0  0  0  0  0  0  0
   41.6460   22.3340   24.1080 C   0  0  0  0  0  0  0  0  0  0  0  0
   42.5210   22.9030   23.1890 C   0  0  0  0  0  0  0  0  0  0  0  0
   42.0940   23.1090   21.8680 C   0  0  0  0  0  0  0  0  0  0  0  0
   38.4800   21.7130   22.0140 C   0  0  0  0  0  0  0  0  0  0  0  0
   43.1177   24.7249   19.0356 H   0  0  0  0  0  0  0  0  0  0  0  0
   40.6177   25.1584   20.0816 H   0  0  0  0  0  0  0  0  0  0  0  0
   40.8580   24.4287   18.4438 H   0  0  0  0  0  0  0  0  0  0  0  0
   39.3009   23.0776   19.9256 H   0  0  0  0  0  0  0  0  0  0  0  0
   40.7433   22.1604   19.3778 H   0  0  0  0  0  0  0  0  0  0  0  0
   39.6823   21.4805   24.4487 H   0  0  0  0  0  0  0  0  0  0  0  0
   41.9671   22.1862   25.1497 H   0  0  0  0  0  0  0  0  0  0  0  0
   43.5383   23.1889   23.4946 H   0  0  0  0  0  0  0  0  0  0  0  0
   37.8907   21.5350   22.9256 H   0  0  0  0  0  0  0  0  0  0  0  0
   38.0053   22.5078   21.4199 H   0  0  0  0  0  0  0  0  0  0  0  0
   38.5248   20.7883   21.4199 H   0  0  0  0  0  0  0  0  0  0  0  0
  1  2  2  0
  1  3  1  0
  1 11  1  0
  3  4  1  0
  4  5  1  0
  5  6  1  0
  6  7  1  0
  6 11  2  0
  7  8  2  0
  7 12  1  0
  8  9  1  0
  9 10  2  0
 10 11  1  0
  3 13  1  0
  4 14  1  0
  4 15  1  0
  5 16  1  0
  5 17  1  0
  8 18  1  0
  9 19  1  0
 10 20  1  0
 12 21  1  0
 12 22  1  0
 12 23  1  0
A    1
C1
A    2
O
A    3
N2
A    4
C3
A    5
C4
A    6
C4A
A    7
C5
A    8
C6
A    9
C7
A   10
C8
A   11
C8A
A   12
C9
M  END
