1PK0_EMA_A_1999
     RDKit          3D

 40 41  0  0  0  0  0  0  0  0999 V2000
   31.8310   72.3580   44.6520 P   0  0  0  0  0  0  0  0  0  0  0  0
   30.6500   71.5090   44.8280 O   0  0  0  0  0  0  0  0  0  0  0  0
   32.5140   72.7120   45.9040 O   0  0  0  0  0  0  0  0  0  0  0  0
   31.5690   73.4940   43.6980 O   0  0  0  0  0  0  0  0  0  0  0  0
   33.0080   70.5340   42.5560 P   0  0  0  0  0  0  0  0  0  0  0  0
   31.6760   69.8730   42.3120 O   0  0  0  0  0  0  0  0  0  0  0  0
   33.5120   71.4410   41.5240 O   0  0  0  0  0  0  0  0  0  0  0  0
   32.9580   71.3470   44.0090 O   0  0  0  0  0  0  0  0  0  0  0  0
   34.1100   68.0690   43.6200 P   0  0  0  0  0  0  0  0  0  0  0  0
   34.0740   68.4610   45.0350 O   0  0  0  0  0  0  0  0  0  0  0  0
   33.0750   67.1140   43.1360 O   0  0  0  0  0  0  0  0  0  0  0  0
   34.0580   69.4140   42.8250 O   0  0  0  0  0  0  0  0  0  0  0  0
   35.6010   67.5400   43.3490 C   0  0  0  0  0  0  0  0  0  0  0  0
   36.1030   66.9960   42.1030 O   0  0  0  0  0  0  0  0  0  0  0  0
   35.1390   65.9460   41.7350 C   0  0  0  0  0  0  0  0  0  0  0  0
   35.5920   64.7750   40.8530 C   0  0  0  0  0  0  0  0  0  0  0  0
   36.9850   64.6300   40.3220 N   0  0  0  0  0  0  0  0  0  0  0  0
   37.6780   65.3810   39.3950 C   0  0  0  0  0  0  0  0  0  0  0  0
   38.8760   64.9470   39.1140 N   0  0  0  0  0  0  0  0  0  0  0  0
   38.9530   63.8190   39.8850 C   0  0  0  0  0  0  0  0  0  0  0  0
   40.0270   62.8550   40.0700 C   0  0  0  0  0  0  0  0  0  0  0  0
   41.1110   62.9700   39.3620 N   0  0  0  0  0  0  0  0  0  0  0  0
   39.8090   61.8460   40.9160 N   0  0  0  0  0  0  0  0  0  0  0  0
   38.6660   61.7440   41.6040 C   0  0  0  0  0  0  0  0  0  0  0  0
   37.6050   62.5970   41.5370 N   0  0  0  0  0  0  0  0  0  0  0  0
   37.8370   63.6110   40.6420 C   0  0  0  0  0  0  0  0  0  0  0  0
   30.4750   71.3832   45.7943 H   0  0  0  0  0  0  0  0  0  0  0  0
   31.3788   74.3188   44.2114 H   0  0  0  0  0  0  0  0  0  0  0  0
   33.9454   72.2209   41.9531 H   0  0  0  0  0  0  0  0  0  0  0  0
   32.6227   66.6966   43.9114 H   0  0  0  0  0  0  0  0  0  0  0  0
   36.2547   68.3959   43.5729 H   0  0  0  0  0  0  0  0  0  0  0  0
   35.5863   66.6243   43.9584 H   0  0  0  0  0  0  0  0  0  0  0  0
   34.7654   65.5123   42.6743 H   0  0  0  0  0  0  0  0  0  0  0  0
   34.4107   66.4761   41.1037 H   0  0  0  0  0  0  0  0  0  0  0  0
   35.3975   63.8646   41.4390 H   0  0  0  0  0  0  0  0  0  0  0  0
   35.0297   64.9730   39.9285 H   0  0  0  0  0  0  0  0  0  0  0  0
   37.2515   66.2804   38.9268 H   0  0  0  0  0  0  0  0  0  0  0  0
   42.0236   63.0668   39.8296 H   0  0  0  0  0  0  0  0  0  0  0  0
   41.0573   62.9643   38.3334 H   0  0  0  0  0  0  0  0  0  0  0  0
   38.5736   60.8891   42.2900 H   0  0  0  0  0  0  0  0  0  0  0  0
  1  2  1  0
  1  3  2  0
  1  4  1  0
  1  8  1  0
  5  6  2  0
  5  7  1  0
  5  8  1  0
  5 12  1  0
  9 10  2  0
  9 11  1  0
  9 12  1  0
  9 13  1  0
 13 14  1  0
 14 15  1  0
 15 16  1  0
 16 17  1  0
 17 18  1  0
 17 26  1  0
 18 19  2  0
 19 20  1  0
 20 21  1  0
 20 26  2  0
 21 22  1  0
 21 23  2  0
 23 24  1  0
 24 25  2  0
 25 26  1  0
  2 27  1  0
  4 28  1  0
  7 29  1  0
 11 30  1  0
 13 31  1  0
 13 32  1  0
 15 33  1  0
 15 34  1  0
 16 35  1  0
 16 36  1  0
 18 37  1  0
 22 38  1  0
 22 39  1  0
 24 40  1  0
A    1
PG
A    2
O1G
A    3
O2G
A    4
O3G
A    5
PB
A    6
O1B
A    7
O2B
A    8
O3B
A    9
PA
A   10
O1A
A   11
O2A
A   12
O3A
A   13
C5'
A   14
O5'
A   15
C4'
A   16
C1'
A   17
N9
A   18
C8
A   19
N7
A   20
C5
A   21
C6
A   22
N6
A   23
N1
A   24
C2
A   25
N3
A   26
C4
M  END
