1PL1_ABY_A_654
     RDKit          3D

 51 51  0  0  0  0  0  0  0  0999 V2000
   88.2970   25.2480   16.7880 C   0  0  0  0  0  0  0  0  0  0  0  0
   88.2620   26.3690   15.9270 O   0  0  0  0  0  0  0  0  0  0  0  0
   87.1420   27.1610   15.8020 C   0  0  0  0  0  0  0  0  0  0  0  0
   85.8830   26.7140   16.2340 C   0  0  0  0  0  0  0  0  0  0  0  0
   84.7720   27.5460   16.0820 C   0  0  0  0  0  0  0  0  0  0  0  0
   84.9150   28.8020   15.4990 C   0  0  0  0  0  0  0  0  0  0  0  0
   86.1690   29.2680   15.0870 C   0  0  0  0  0  0  0  0  0  0  0  0
   87.2860   28.4310   15.2220 C   0  0  0  0  0  0  0  0  0  0  0  0
   83.6970   29.6820   15.3620 C   0  0  0  0  0  0  0  0  0  0  0  0
   82.9490   29.6800   13.7570 S   0  0  0  0  0  0  0  0  0  0  0  0
   82.1570   31.2690   13.8790 C   0  0  0  0  0  0  0  0  0  0  0  0
   80.8950   31.2840   14.7420 C   0  0  0  0  0  0  0  0  0  0  0  0
   79.8660   30.5710   14.0130 N   0  0  0  0  0  0  0  0  0  0  0  0
   79.1180   29.6150   14.5090 C   0  0  0  0  0  0  0  0  0  0  0  0
   79.2530   29.2260   15.6540 O   0  0  0  0  0  0  0  0  0  0  0  0
   78.0720   29.0610   13.5500 C   0  0  0  0  0  0  0  0  0  0  0  0
   77.4230   27.7670   13.9990 C   0  0  0  0  0  0  0  0  0  0  0  0
   76.0100   27.5960   13.4070 C   0  0  0  0  0  0  0  0  0  0  0  0
   75.5100   26.1720   13.4330 N   0  0  0  0  0  0  0  0  0  0  0  0
   80.4150   32.6980   14.9770 C   0  0  0  0  0  0  0  0  0  0  0  0
   80.1020   33.4090   14.0130 O   0  0  0  0  0  0  0  0  0  0  0  0
   80.3940   33.0980   16.2440 N   0  0  0  0  0  0  0  0  0  0  0  0
   79.9060   34.4080   16.6410 C   0  0  0  0  0  0  0  0  0  0  0  0
   78.6740   34.3250   17.5040 C   0  0  0  0  0  0  0  0  0  0  0  0
   78.1160   33.2330   17.6380 O   0  0  0  0  0  0  0  0  0  0  0  0
   78.2590   35.3800   18.0290 O   0  0  0  0  0  0  0  0  0  0  0  0
   88.2864   25.5885   17.8339 H   0  0  0  0  0  0  0  0  0  0  0  0
   87.4182   24.6137   16.6000 H   0  0  0  0  0  0  0  0  0  0  0  0
   89.2136   24.6697   16.6000 H   0  0  0  0  0  0  0  0  0  0  0  0
   85.7730   25.7180   16.6878 H   0  0  0  0  0  0  0  0  0  0  0  0
   83.7823   27.2085   16.4234 H   0  0  0  0  0  0  0  0  0  0  0  0
   86.2768   30.2773   14.6630 H   0  0  0  0  0  0  0  0  0  0  0  0
   88.2732   28.7691   14.8740 H   0  0  0  0  0  0  0  0  0  0  0  0
   82.9456   29.3403   16.0891 H   0  0  0  0  0  0  0  0  0  0  0  0
   84.0402   30.7118   15.5399 H   0  0  0  0  0  0  0  0  0  0  0  0
   82.8771   31.9795   14.3110 H   0  0  0  0  0  0  0  0  0  0  0  0
   81.8427   31.5408   12.8605 H   0  0  0  0  0  0  0  0  0  0  0  0
   81.1112   30.8211   15.7162 H   0  0  0  0  0  0  0  0  0  0  0  0
   79.7100   30.8352   13.0298 H   0  0  0  0  0  0  0  0  0  0  0  0
   77.2820   29.8171   13.4307 H   0  0  0  0  0  0  0  0  0  0  0  0
   78.5998   28.8345   12.6118 H   0  0  0  0  0  0  0  0  0  0  0  0
   78.0494   26.9235   13.6733 H   0  0  0  0  0  0  0  0  0  0  0  0
   77.3321   27.7940   15.0949 H   0  0  0  0  0  0  0  0  0  0  0  0
   75.3130   28.2195   13.9861 H   0  0  0  0  0  0  0  0  0  0  0  0
   76.0650   27.8984   12.3508 H   0  0  0  0  0  0  0  0  0  0  0  0
   75.4018   25.8639   14.4099 H   0  0  0  0  0  0  0  0  0  0  0  0
   74.6000   26.1188   12.9534 H   0  0  0  0  0  0  0  0  0  0  0  0
   80.7366   32.4552   16.9723 H   0  0  0  0  0  0  0  0  0  0  0  0
   80.6976   34.9240   17.2041 H   0  0  0  0  0  0  0  0  0  0  0  0
   79.6382   34.9573   15.7264 H   0  0  0  0  0  0  0  0  0  0  0  0
   78.2265   35.4627   19.0150 H   0  0  0  0  0  0  0  0  0  0  0  0
  1  2  1  0
  2  3  1  0
  3  4  2  0
  3  8  1  0
  4  5  1  0
  5  6  2  0
  6  7  1  0
  6  9  1  0
  7  8  2  0
  9 10  1  0
 10 11  1  0
 11 12  1  0
 12 13  1  0
 12 20  1  0
 13 14  1  0
 14 15  2  0
 14 16  1  0
 16 17  1  0
 17 18  1  0
 18 19  1  0
 20 21  2  0
 20 22  1  0
 22 23  1  0
 23 24  1  0
 24 25  2  0
 24 26  1  0
  1 27  1  0
  1 28  1  0
  1 29  1  0
  4 30  1  0
  5 31  1  0
  7 32  1  0
  8 33  1  0
  9 34  1  0
  9 35  1  0
 11 36  1  0
 11 37  1  0
 12 38  1  0
 13 39  1  0
 16 40  1  0
 16 41  1  0
 17 42  1  0
 17 43  1  0
 18 44  1  0
 18 45  1  0
 19 46  1  0
 19 47  1  0
 22 48  1  0
 23 49  1  0
 23 50  1  0
 26 51  1  0
A    1
C7'
A    2
O4'
A    3
C4'
A    4
C5'
A    5
C6'
A    6
C1'
A    7
C2'
A    8
C3'
A    9
C'
A   10
SG2
A   11
CB2
A   12
CA2
A   13
N2
A   14
CD1
A   15
OE1
A   16
CG1
A   17
CB1
A   18
CA1
A   19
N1
A   20
C2
A   21
O2
A   22
N3
A   23
CA3
A   24
C3
A   25
O31
A   26
O32
M  END
