1PPK_IVV_E_700
     RDKit          3D

 81 80  0  0  0  0  0  0  0  0999 V2000
   15.8930    4.2760   17.6750 C   0  0  0  0  0  0  0  0  0  0  0  0
   14.6850    3.7270   18.3960 C   0  0  0  0  0  0  0  0  0  0  0  0
   13.4810    3.5480   17.4890 C   0  0  0  0  0  0  0  0  0  0  0  0
   14.2890    4.9130   19.2440 C   0  0  0  0  0  0  0  0  0  0  0  0
   17.0470    4.5420   18.6790 C   0  0  0  0  0  0  0  0  0  0  0  0
   17.1330    3.7770   19.6530 O   0  0  0  0  0  0  0  0  0  0  0  0
   17.8940    5.5230   18.4500 N   0  0  0  0  0  0  0  0  0  0  0  0
   19.0350    5.6660   19.4260 C   0  0  0  0  0  0  0  0  0  0  0  0
   18.9010    6.9930   20.1440 C   0  0  0  0  0  0  0  0  0  0  0  0
   18.1120    7.8900   19.6950 O   0  0  0  0  0  0  0  0  0  0  0  0
   20.3170    5.6050   18.5680 C   0  0  0  0  0  0  0  0  0  0  0  0
   20.3710    4.2270   17.8660 C   0  0  0  0  0  0  0  0  0  0  0  0
   20.2470    6.6320   17.4280 C   0  0  0  0  0  0  0  0  0  0  0  0
   19.7610    7.1140   21.1610 N   0  0  0  0  0  0  0  0  0  0  0  0
   19.8050    8.3850   21.8980 C   0  0  0  0  0  0  0  0  0  0  0  0
   21.3340    8.7140   22.0180 C   0  0  0  0  0  0  0  0  0  0  0  0
   21.9430    8.2540   22.9760 O   0  0  0  0  0  0  0  0  0  0  0  0
   19.1490    8.3320   23.2880 C   0  0  0  0  0  0  0  0  0  0  0  0
   19.1270    9.7510   23.8990 C   0  0  0  0  0  0  0  0  0  0  0  0
   17.7290    7.8730   23.2040 C   0  0  0  0  0  0  0  0  0  0  0  0
   21.8380    9.4640   21.0120 N   0  0  0  0  0  0  0  0  0  0  0  0
   24.0020   10.8590   24.3690 O   0  0  0  0  0  0  0  0  0  0  0  0
   23.2870   11.6820   21.2020 P   0  0  0  0  0  0  0  0  0  0  0  0
   23.6070   11.9730   23.9730 C   0  0  0  0  0  0  0  0  0  0  0  0
   25.4700   12.9130   25.2580 C   0  0  0  0  0  0  0  0  0  0  0  0
   24.3280   13.1020   24.4460 O   0  0  0  0  0  0  0  0  0  0  0  0
   26.5940   13.7920   24.7560 C   0  0  0  0  0  0  0  0  0  0  0  0
   23.2210    9.8740   20.9950 C   0  0  0  0  0  0  0  0  0  0  0  0
   23.8860    9.3780   19.6540 C   0  0  0  0  0  0  0  0  0  0  0  0
   23.7080    7.8240   19.4250 C   0  0  0  0  0  0  0  0  0  0  0  0
   22.6230   12.0970   22.8160 C   0  0  0  0  0  0  0  0  0  0  0  0
   22.4380   12.2440   20.1120 O   0  0  0  0  0  0  0  0  0  0  0  0
   24.7330   12.0620   21.0820 O   0  0  0  0  0  0  0  0  0  0  0  0
   24.3160    7.5100   18.0670 C   0  0  0  0  0  0  0  0  0  0  0  0
   24.2960    6.9500   20.5220 C   0  0  0  0  0  0  0  0  0  0  0  0
   15.6209    5.2185   17.1774 H   0  0  0  0  0  0  0  0  0  0  0  0
   16.2299    3.5395   16.9306 H   0  0  0  0  0  0  0  0  0  0  0  0
   14.9231    2.7658   18.8750 H   0  0  0  0  0  0  0  0  0  0  0  0
   12.5773    3.4136   18.1015 H   0  0  0  0  0  0  0  0  0  0  0  0
   13.3646    4.4387   16.8541 H   0  0  0  0  0  0  0  0  0  0  0  0
   13.6287    2.6619   16.8541 H   0  0  0  0  0  0  0  0  0  0  0  0
   14.3773    4.6487   20.3081 H   0  0  0  0  0  0  0  0  0  0  0  0
   14.9526    5.7614   19.0207 H   0  0  0  0  0  0  0  0  0  0  0  0
   13.2488    5.1925   19.0207 H   0  0  0  0  0  0  0  0  0  0  0  0
   17.7836    6.1590   17.6473 H   0  0  0  0  0  0  0  0  0  0  0  0
   19.0504    4.8815   20.1969 H   0  0  0  0  0  0  0  0  0  0  0  0
   21.1796    5.7920   19.2245 H   0  0  0  0  0  0  0  0  0  0  0  0
   20.4022    3.4304   18.6239 H   0  0  0  0  0  0  0  0  0  0  0  0
   19.4771    4.1004   17.2375 H   0  0  0  0  0  0  0  0  0  0  0  0
   21.2720    4.1707   17.2375 H   0  0  0  0  0  0  0  0  0  0  0  0
   20.1779    7.6451   17.8509 H   0  0  0  0  0  0  0  0  0  0  0  0
   21.1525    6.5543   16.8083 H   0  0  0  0  0  0  0  0  0  0  0  0
   19.3604    6.4321   16.8083 H   0  0  0  0  0  0  0  0  0  0  0  0
   20.3795    6.3330   21.4223 H   0  0  0  0  0  0  0  0  0  0  0  0
   19.2271    9.1537   21.3640 H   0  0  0  0  0  0  0  0  0  0  0  0
   19.7333    7.6303   23.9014 H   0  0  0  0  0  0  0  0  0  0  0  0
   19.1281    9.6777   24.9966 H   0  0  0  0  0  0  0  0  0  0  0  0
   20.0166   10.3067   23.5677 H   0  0  0  0  0  0  0  0  0  0  0  0
   18.2206   10.2788   23.5677 H   0  0  0  0  0  0  0  0  0  0  0  0
   17.3252    7.7425   24.2188 H   0  0  0  0  0  0  0  0  0  0  0  0
   17.1321    8.6240   22.6657 H   0  0  0  0  0  0  0  0  0  0  0  0
   17.6846    6.9148   22.6657 H   0  0  0  0  0  0  0  0  0  0  0  0
   21.2196    9.7494   20.2393 H   0  0  0  0  0  0  0  0  0  0  0  0
   25.2300   13.1818   26.2973 H   0  0  0  0  0  0  0  0  0  0  0  0
   25.7808   11.8587   25.2155 H   0  0  0  0  0  0  0  0  0  0  0  0
   27.1376   14.2171   25.6126 H   0  0  0  0  0  0  0  0  0  0  0  0
   27.2842   13.1916   24.1452 H   0  0  0  0  0  0  0  0  0  0  0  0
   26.1776   14.6066   24.1452 H   0  0  0  0  0  0  0  0  0  0  0  0
   23.7917    9.4249   21.8212 H   0  0  0  0  0  0  0  0  0  0  0  0
   23.4228    9.9134   18.8121 H   0  0  0  0  0  0  0  0  0  0  0  0
   24.9646    9.5832   19.7215 H   0  0  0  0  0  0  0  0  0  0  0  0
   22.6352    7.5831   19.4571 H   0  0  0  0  0  0  0  0  0  0  0  0
   22.2682   13.1376   22.7809 H   0  0  0  0  0  0  0  0  0  0  0  0
   21.8242   11.3673   23.0147 H   0  0  0  0  0  0  0  0  0  0  0  0
   25.1234   12.1646   21.9860 H   0  0  0  0  0  0  0  0  0  0  0  0
   25.2855    7.0093   18.2062 H   0  0  0  0  0  0  0  0  0  0  0  0
   23.6390    6.8488   17.5062 H   0  0  0  0  0  0  0  0  0  0  0  0
   24.4633    8.4448   17.5062 H   0  0  0  0  0  0  0  0  0  0  0  0
   24.0202    7.3600   21.5048 H   0  0  0  0  0  0  0  0  0  0  0  0
   23.9013    5.9276   20.4273 H   0  0  0  0  0  0  0  0  0  0  0  0
   25.3917    6.9303   20.4273 H   0  0  0  0  0  0  0  0  0  0  0  0
 32 23  2  0
 28 23  1  0
 33 23  1  0
 23 31  1  0
  1  5  1  0
  7  5  1  0
  5  6  2  0
  7  8  1  0
  8  9  1  0
 10  9  2  0
  9 14  1  0
 21 16  1  0
 15 16  1  0
 16 17  2  0
 14 15  1  0
 28 21  1  0
 24 22  2  0
 31 24  1  0
 24 26  1  0
 26 25  1  0
 27 25  1  0
  2  3  1  0
 12 11  1  0
 18 19  1  0
 34 30  1  0
  4  2  1  0
 13 11  1  0
 20 18  1  0
 30 35  1  0
  1  2  1  0
 11  8  1  0
 15 18  1  0
 29 28  1  0
 30 29  1  0
  1 36  1  0
  1 37  1  0
  2 38  1  0
  3 39  1  0
  3 40  1  0
  3 41  1  0
  4 42  1  0
  4 43  1  0
  4 44  1  0
  7 45  1  0
  8 46  1  0
 11 47  1  0
 12 48  1  0
 12 49  1  0
 12 50  1  0
 13 51  1  0
 13 52  1  0
 13 53  1  0
 14 54  1  0
 15 55  1  0
 18 56  1  0
 19 57  1  0
 19 58  1  0
 19 59  1  0
 20 60  1  0
 20 61  1  0
 20 62  1  0
 21 63  1  0
 25 64  1  0
 25 65  1  0
 27 66  1  0
 27 67  1  0
 27 68  1  0
 28 69  1  0
 29 70  1  0
 29 71  1  0
 30 72  1  0
 31 73  1  0
 31 74  1  0
 33 75  1  0
 34 76  1  0
 34 77  1  0
 34 78  1  0
 35 79  1  0
 35 80  1  0
 35 81  1  0
A    1
CA1
A    2
CB1
A    3
CG11
A    4
CG21
A    5
C1
A    6
O1
A    7
N1
A    8
CA2
A    9
C2
A   10
O2
A   11
CB2
A   12
CG12
A   13
CG22
A   14
N3
A   15
CA3
A   16
C3
A   17
O3
A   18
CB3
A   19
CG13
A   20
CG23
A   21
N4
A   22
O4
A   23
P
A   24
C5
A   25
C6
A   26
O6
A   27
C7
A   28
CA4
A   29
CB4
A   30
CG4
A   31
CP
A   32
O1P
A   33
O2P
A   34
CD1
A   35
CD2
M  END
