1PPL_1Z7_E_324
     RDKit          3D

 92 92  0  0  0  0  0  0  0  0999 V2000
   15.9420    4.1260   17.4870 C   0  0  0  0  0  0  0  0  0  0  0  0
   14.6430    3.6540   18.1870 C   0  0  0  0  0  0  0  0  0  0  0  0
   14.3150    4.8410   19.0870 C   0  0  0  0  0  0  0  0  0  0  0  0
   13.4600    3.5320   17.2680 C   0  0  0  0  0  0  0  0  0  0  0  0
   17.0680    4.4480   18.4850 C   0  0  0  0  0  0  0  0  0  0  0  0
   17.1950    3.6450   19.4790 O   0  0  0  0  0  0  0  0  0  0  0  0
   17.8820    5.4490   18.3940 N   0  0  0  0  0  0  0  0  0  0  0  0
   19.0160    5.6420   19.2870 C   0  0  0  0  0  0  0  0  0  0  0  0
   18.9210    6.9900   19.9870 C   0  0  0  0  0  0  0  0  0  0  0  0
   18.1180    7.8830   19.5600 O   0  0  0  0  0  0  0  0  0  0  0  0
   20.2910    5.6330   18.3540 C   0  0  0  0  0  0  0  0  0  0  0  0
   20.4610    4.2100   17.8010 C   0  0  0  0  0  0  0  0  0  0  0  0
   20.2290    6.5910   17.1820 C   0  0  0  0  0  0  0  0  0  0  0  0
   19.6870    7.0590   21.0610 N   0  0  0  0  0  0  0  0  0  0  0  0
   19.6540    8.3980   21.7970 C   0  0  0  0  0  0  0  0  0  0  0  0
   21.1900    8.6890   21.9870 C   0  0  0  0  0  0  0  0  0  0  0  0
   21.7700    8.0720   22.8770 O   0  0  0  0  0  0  0  0  0  0  0  0
   18.9620    8.2550   23.1180 C   0  0  0  0  0  0  0  0  0  0  0  0
   18.8480    9.6640   23.8070 C   0  0  0  0  0  0  0  0  0  0  0  0
   17.5350    7.7840   22.8850 C   0  0  0  0  0  0  0  0  0  0  0  0
   23.1040    9.9030   21.1450 C   0  0  0  0  0  0  0  0  0  0  0  0
   23.8890    9.3340   19.9240 C   0  0  0  0  0  0  0  0  0  0  0  0
   23.7360    7.8390   19.5170 C   0  0  0  0  0  0  0  0  0  0  0  0
   24.1350    7.6160   18.0600 C   0  0  0  0  0  0  0  0  0  0  0  0
   24.1760    6.8870   20.5840 C   0  0  0  0  0  0  0  0  0  0  0  0
   21.7090    9.5240   21.1100 N   0  0  0  0  0  0  0  0  0  0  0  0
   23.3210   11.6840   21.2810 P   0  0  0  0  0  0  0  0  0  0  0  0
   24.7520   12.0150   21.1000 O   0  0  0  0  0  0  0  0  0  0  0  0
   22.4510   12.2770   20.2720 O   0  0  0  0  0  0  0  0  0  0  0  0
   23.5860   13.0410   23.4660 C   0  0  0  0  0  0  0  0  0  0  0  0
   22.5800   14.0210   24.1290 C   0  0  0  0  0  0  0  0  0  0  0  0
   21.6400   13.4480   25.1720 C   0  0  0  0  0  0  0  0  0  0  0  0
   21.9520   13.5400   26.5200 C   0  0  0  0  0  0  0  0  0  0  0  0
   20.4620   12.7950   24.7960 C   0  0  0  0  0  0  0  0  0  0  0  0
   21.0920   12.9630   27.4590 C   0  0  0  0  0  0  0  0  0  0  0  0
   19.6880   12.1630   25.7410 C   0  0  0  0  0  0  0  0  0  0  0  0
   19.9430   12.2840   27.0690 C   0  0  0  0  0  0  0  0  0  0  0  0
   24.3990   12.3760   24.6000 C   0  0  0  0  0  0  0  0  0  0  0  0
   25.9890   12.6670   26.3900 C   0  0  0  0  0  0  0  0  0  0  0  0
   22.9280   11.9630   22.7000 O   0  0  0  0  0  0  0  0  0  0  0  0
   25.1990   13.2320   25.3720 O   0  0  0  0  0  0  0  0  0  0  0  0
   24.3280   11.1650   24.8400 O   0  0  0  0  0  0  0  0  0  0  0  0
   16.2873    3.3299   16.8110 H   0  0  0  0  0  0  0  0  0  0  0  0
   15.7082    5.0505   16.9386 H   0  0  0  0  0  0  0  0  0  0  0  0
   14.8038    2.6701   18.6518 H   0  0  0  0  0  0  0  0  0  0  0  0
   14.3991    4.5365   20.1407 H   0  0  0  0  0  0  0  0  0  0  0  0
   15.0204    5.6605   18.8847 H   0  0  0  0  0  0  0  0  0  0  0  0
   13.2890    5.1820   18.8847 H   0  0  0  0  0  0  0  0  0  0  0  0
   12.5406    3.4372   17.8644 H   0  0  0  0  0  0  0  0  0  0  0  0
   13.3947    4.4282   16.6335 H   0  0  0  0  0  0  0  0  0  0  0  0
   13.5789    2.6414   16.6335 H   0  0  0  0  0  0  0  0  0  0  0  0
   17.7199    6.1450   17.6522 H   0  0  0  0  0  0  0  0  0  0  0  0
   19.0516    4.8627   20.0625 H   0  0  0  0  0  0  0  0  0  0  0  0
   21.1358    5.9634   18.9763 H   0  0  0  0  0  0  0  0  0  0  0  0
   20.5459    3.4996   18.6366 H   0  0  0  0  0  0  0  0  0  0  0  0
   19.5876    3.9491   17.1852 H   0  0  0  0  0  0  0  0  0  0  0  0
   21.3712    4.1622   17.1852 H   0  0  0  0  0  0  0  0  0  0  0  0
   20.1622    7.6235   17.5555 H   0  0  0  0  0  0  0  0  0  0  0  0
   21.1362    6.4806   16.5698 H   0  0  0  0  0  0  0  0  0  0  0  0
   19.3436    6.3645   16.5698 H   0  0  0  0  0  0  0  0  0  0  0  0
   20.2646    6.2678   21.3793 H   0  0  0  0  0  0  0  0  0  0  0  0
   19.1114    9.1959   21.2688 H   0  0  0  0  0  0  0  0  0  0  0  0
   19.5320    7.5472   23.7377 H   0  0  0  0  0  0  0  0  0  0  0  0
   18.8581    9.5396   24.8999 H   0  0  0  0  0  0  0  0  0  0  0  0
   19.6983   10.2914   23.5015 H   0  0  0  0  0  0  0  0  0  0  0  0
   17.9079   10.1466   23.5015 H   0  0  0  0  0  0  0  0  0  0  0  0
   17.0400    7.6206   23.8537 H   0  0  0  0  0  0  0  0  0  0  0  0
   16.9849    8.5482   22.3164 H   0  0  0  0  0  0  0  0  0  0  0  0
   17.5479    6.8424   22.3164 H   0  0  0  0  0  0  0  0  0  0  0  0
   23.5274    9.4521   22.0546 H   0  0  0  0  0  0  0  0  0  0  0  0
   23.5898    9.9313   19.0501 H   0  0  0  0  0  0  0  0  0  0  0  0
   24.9373    9.3967   20.2512 H   0  0  0  0  0  0  0  0  0  0  0  0
   22.6751    7.5503   19.4838 H   0  0  0  0  0  0  0  0  0  0  0  0
   25.0946    7.0797   18.0206 H   0  0  0  0  0  0  0  0  0  0  0  0
   23.3607    7.0198   17.5549 H   0  0  0  0  0  0  0  0  0  0  0  0
   24.2371    8.5878   17.5549 H   0  0  0  0  0  0  0  0  0  0  0  0
   23.9735    7.3251   21.5725 H   0  0  0  0  0  0  0  0  0  0  0  0
   23.6237    5.9412   20.4820 H   0  0  0  0  0  0  0  0  0  0  0  0
   25.2543    6.6948   20.4820 H   0  0  0  0  0  0  0  0  0  0  0  0
   21.1026    9.9189   20.3771 H   0  0  0  0  0  0  0  0  0  0  0  0
   21.7205   12.7749   20.7176 H   0  0  0  0  0  0  0  0  0  0  0  0
   24.2057   13.6190   22.7646 H   0  0  0  0  0  0  0  0  0  0  0  0
   23.1640   14.8183   24.6120 H   0  0  0  0  0  0  0  0  0  0  0  0
   21.9258   14.3535   23.3096 H   0  0  0  0  0  0  0  0  0  0  0  0
   22.8646   14.0604   26.8463 H   0  0  0  0  0  0  0  0  0  0  0  0
   20.1532   12.7868   23.7403 H   0  0  0  0  0  0  0  0  0  0  0  0
   21.3294   13.0480   28.5297 H   0  0  0  0  0  0  0  0  0  0  0  0
   18.8405   11.5435   25.4124 H   0  0  0  0  0  0  0  0  0  0  0  0
   19.2588   11.8562   27.8166 H   0  0  0  0  0  0  0  0  0  0  0  0
   25.5845   12.9563   27.3712 H   0  0  0  0  0  0  0  0  0  0  0  0
   25.9776   11.5710   26.2973 H   0  0  0  0  0  0  0  0  0  0  0  0
   27.0225   13.0320   26.2973 H   0  0  0  0  0  0  0  0  0  0  0  0
  1  2  1  0
  1  5  1  0
  2  3  1  0
  2  4  1  0
  5  6  2  0
  7  8  1  0
  8  9  1  0
  8 11  1  0
  9 10  2  0
 11 12  1  0
 11 13  1  0
 14 15  1  0
 15 16  1  0
 15 18  1  0
 16 17  2  0
 18 19  1  0
 18 20  1  0
 21 22  1  0
 21 26  1  0
 21 27  1  0
 22 23  1  0
 23 24  1  0
 23 25  1  0
 27 28  2  0
 27 29  1  0
 30 31  1  0
 30 38  1  0
 30 40  1  0
 31 32  1  0
 32 33  2  0
 32 34  1  0
 33 35  1  0
 34 36  2  0
 35 37  2  0
 36 37  1  0
 38 41  1  0
 38 42  2  0
 39 41  1  0
  5  7  1  0
  9 14  1  0
 16 26  1  0
 27 40  1  0
  1 43  1  0
  1 44  1  0
  2 45  1  0
  3 46  1  0
  3 47  1  0
  3 48  1  0
  4 49  1  0
  4 50  1  0
  4 51  1  0
  7 52  1  0
  8 53  1  0
 11 54  1  0
 12 55  1  0
 12 56  1  0
 12 57  1  0
 13 58  1  0
 13 59  1  0
 13 60  1  0
 14 61  1  0
 15 62  1  0
 18 63  1  0
 19 64  1  0
 19 65  1  0
 19 66  1  0
 20 67  1  0
 20 68  1  0
 20 69  1  0
 21 70  1  0
 22 71  1  0
 22 72  1  0
 23 73  1  0
 24 74  1  0
 24 75  1  0
 24 76  1  0
 25 77  1  0
 25 78  1  0
 25 79  1  0
 26 80  1  0
 29 81  1  0
 30 82  1  0
 31 83  1  0
 31 84  1  0
 33 85  1  0
 34 86  1  0
 35 87  1  0
 36 88  1  0
 37 89  1  0
 39 90  1  0
 39 91  1  0
 39 92  1  0
A    1
CA
A    2
CB
A    3
CG1
A    4
CG2
A    5
C
A    6
O
A    7
N
A    8
CA1
A    9
C1
A   10
O1
A   11
CB1
A   12
CG11
A   13
CG21
A   14
N1
A   15
CA2
A   16
C2
A   17
O2
A   18
CB2
A   19
CG12
A   20
CG22
A   21
CA3
A   22
CB3
A   23
CG
A   24
CD1
A   25
CD2
A   26
N2
A   27
P
A   28
O11
A   29
O21
A   30
CA4
A   31
CB4
A   32
CG3
A   33
CD11
A   34
CD21
A   35
CE1
A   36
CE2
A   37
CZ
A   38
C3
A   39
CS
A   40
OP
A   41
OS
A   42
O3
M  END
