1PQ9_44B_A_1501
     RDKit          3D

 30 30  0  0  0  0  0  0  0  0999 V2000
  -11.8140   40.2110   39.3730 F   0  0  0  0  0  0  0  0  0  0  0  0
  -11.5250   40.3390   40.6730 C   0  0  0  0  0  0  0  0  0  0  0  0
  -10.1860   40.2750   40.7570 F   0  0  0  0  0  0  0  0  0  0  0  0
  -11.9090   41.5460   41.0040 F   0  0  0  0  0  0  0  0  0  0  0  0
  -12.2250   39.3280   41.6150 C   0  0  0  0  0  0  0  0  0  0  0  0
  -12.1700   39.8140   42.9840 O   0  0  0  0  0  0  0  0  0  0  0  0
  -13.7560   39.2320   41.2120 C   0  0  0  0  0  0  0  0  0  0  0  0
  -13.9680   38.8230   39.9580 F   0  0  0  0  0  0  0  0  0  0  0  0
  -14.3570   38.2990   41.9700 F   0  0  0  0  0  0  0  0  0  0  0  0
  -14.4730   40.3670   41.3280 F   0  0  0  0  0  0  0  0  0  0  0  0
  -11.6260   37.9070   41.4230 C   0  0  0  0  0  0  0  0  0  0  0  0
  -11.3870   37.2810   40.1480 C   0  0  0  0  0  0  0  0  0  0  0  0
  -10.8740   35.9620   40.0690 C   0  0  0  0  0  0  0  0  0  0  0  0
  -11.3460   37.1510   42.5920 C   0  0  0  0  0  0  0  0  0  0  0  0
  -10.8280   35.8410   42.5030 C   0  0  0  0  0  0  0  0  0  0  0  0
  -10.5780   35.2400   41.2530 C   0  0  0  0  0  0  0  0  0  0  0  0
  -10.0640   33.8450   41.2250 N   0  0  0  0  0  0  0  0  0  0  0  0
   -9.0610   33.5400   40.1600 C   0  0  0  0  0  0  0  0  0  0  0  0
   -7.7230   33.6720   40.8220 C   0  0  0  0  0  0  0  0  0  0  0  0
   -6.8010   33.0650   40.0630 F   0  0  0  0  0  0  0  0  0  0  0  0
   -7.6450   33.0950   42.0240 F   0  0  0  0  0  0  0  0  0  0  0  0
   -7.4870   34.9680   41.0400 F   0  0  0  0  0  0  0  0  0  0  0  0
  -12.2564   39.0509   43.6088 H   0  0  0  0  0  0  0  0  0  0  0  0
  -11.6056   37.8342   39.2227 H   0  0  0  0  0  0  0  0  0  0  0  0
  -10.7050   35.4972   39.0865 H   0  0  0  0  0  0  0  0  0  0  0  0
  -11.5356   37.5928   43.5814 H   0  0  0  0  0  0  0  0  0  0  0  0
  -10.6159   35.2797   43.4249 H   0  0  0  0  0  0  0  0  0  0  0  0
  -10.3799   33.1325   41.8984 H   0  0  0  0  0  0  0  0  0  0  0  0
   -9.2027   32.5176   39.7796 H   0  0  0  0  0  0  0  0  0  0  0  0
   -9.1598   34.2181   39.2995 H   0  0  0  0  0  0  0  0  0  0  0  0
  1  2  1  0
  2  3  1  0
  2  4  1  0
  2  5  1  0
  5  6  1  0
  5  7  1  0
  5 11  1  0
  7  8  1  0
  7  9  1  0
  7 10  1  0
 11 12  2  0
 11 14  1  0
 12 13  1  0
 13 16  2  0
 14 15  2  0
 15 16  1  0
 16 17  1  0
 17 18  1  0
 18 19  1  0
 19 20  1  0
 19 21  1  0
 19 22  1  0
  6 23  1  0
 12 24  1  0
 13 25  1  0
 14 26  1  0
 15 27  1  0
 17 28  1  0
 18 29  1  0
 18 30  1  0
A    1
F35
A    2
C34
A    3
F37
A    4
F36
A    5
C33
A    6
O42
A    7
C38
A    8
F39
A    9
F40
A   10
F41
A   11
C26
A   12
C27
A   13
C28
A   14
C25
A   15
C24
A   16
C23
A   17
N15
A   18
C16
A   19
C19
A   20
F22
A   21
F21
A   22
F20
M  END
