1PR4_MTP_A_1245
     RDKit          3D

 34 36  0  0  0  0  0  0  0  0999 V2000
   93.4420   65.5490   17.3940 O   0  0  0  0  0  0  0  0  0  0  0  0
   92.9680   64.5060   18.2240 C   0  0  0  0  0  0  0  0  0  0  0  0
   93.4380   64.6800   19.6680 C   0  0  0  0  0  0  0  0  0  0  0  0
   92.9840   65.8980   20.2890 O   0  0  0  0  0  0  0  0  0  0  0  0
   91.6500   65.7350   20.8610 C   0  0  0  0  0  0  0  0  0  0  0  0
   90.7570   66.5850   20.0040 N   0  0  0  0  0  0  0  0  0  0  0  0
   90.6300   67.9260   19.6810 C   0  0  0  0  0  0  0  0  0  0  0  0
   89.6120   68.1320   18.8100 N   0  0  0  0  0  0  0  0  0  0  0  0
   89.0780   66.9230   18.5660 C   0  0  0  0  0  0  0  0  0  0  0  0
   87.9930   66.6590   17.7020 C   0  0  0  0  0  0  0  0  0  0  0  0
   87.1050   67.9170   16.7380 S   0  0  0  0  0  0  0  0  0  0  0  0
   85.8910   66.7860   15.9020 C   0  0  0  0  0  0  0  0  0  0  0  0
   87.6450   65.3370   17.6320 N   0  0  0  0  0  0  0  0  0  0  0  0
   88.3180   64.4010   18.3490 C   0  0  0  0  0  0  0  0  0  0  0  0
   89.3700   64.5950   19.1920 N   0  0  0  0  0  0  0  0  0  0  0  0
   89.7180   65.9300   19.2600 C   0  0  0  0  0  0  0  0  0  0  0  0
   91.6230   64.1960   21.1040 C   0  0  0  0  0  0  0  0  0  0  0  0
   91.4340   64.0590   22.5000 O   0  0  0  0  0  0  0  0  0  0  0  0
   92.9700   63.6060   20.6100 C   0  0  0  0  0  0  0  0  0  0  0  0
   93.9610   63.5020   21.6290 O   0  0  0  0  0  0  0  0  0  0  0  0
   93.7791   66.2908   17.9563 H   0  0  0  0  0  0  0  0  0  0  0  0
   91.8682   64.5054   18.2039 H   0  0  0  0  0  0  0  0  0  0  0  0
   93.3678   63.5544   17.8438 H   0  0  0  0  0  0  0  0  0  0  0  0
   94.5299   64.6599   19.5359 H   0  0  0  0  0  0  0  0  0  0  0  0
   91.2878   66.1076   21.8305 H   0  0  0  0  0  0  0  0  0  0  0  0
   91.2740   68.7231   20.0809 H   0  0  0  0  0  0  0  0  0  0  0  0
   85.3100   66.2447   16.6632 H   0  0  0  0  0  0  0  0  0  0  0  0
   85.2099   67.3790   15.2739 H   0  0  0  0  0  0  0  0  0  0  0  0
   86.4344   66.0647   15.2739 H   0  0  0  0  0  0  0  0  0  0  0  0
   87.9727   63.3628   18.2357 H   0  0  0  0  0  0  0  0  0  0  0  0
   90.8300   63.6577   20.5642 H   0  0  0  0  0  0  0  0  0  0  0  0
   92.1353   64.5674   22.9794 H   0  0  0  0  0  0  0  0  0  0  0  0
   92.8327   62.5920   20.2063 H   0  0  0  0  0  0  0  0  0  0  0  0
   93.5268   63.5476   22.5175 H   0  0  0  0  0  0  0  0  0  0  0  0
  1  2  1  0
  2  3  1  0
  3  4  1  0
  3 19  1  0
  4  5  1  0
  5  6  1  0
  5 17  1  0
  6  7  1  0
  6 16  1  0
  7  8  2  0
  8  9  1  0
  9 10  1  0
  9 16  2  0
 10 11  1  0
 10 13  2  0
 11 12  1  0
 13 14  1  0
 14 15  2  0
 15 16  1  0
 17 18  1  0
 17 19  1  0
 19 20  1  0
  1 21  1  0
  2 22  1  0
  2 23  1  0
  3 24  1  0
  5 25  1  0
  7 26  1  0
 12 27  1  0
 12 28  1  0
 12 29  1  0
 14 30  1  0
 17 31  1  0
 18 32  1  0
 19 33  1  0
 20 34  1  0
A    1
O5'
A    2
C5'
A    3
C4'
A    4
O4'
A    5
C1'
A    6
N9
A    7
C8
A    8
N7
A    9
C5
A   10
C6
A   11
S6
A   12
CS
A   13
N1
A   14
C2
A   15
N3
A   16
C4
A   17
C2'
A   18
O2'
A   19
C3'
A   20
O3'
M  END
