1PRO_A88_A_301
     RDKit          3D

 80 84  0  0  0  0  0  0  0  0999 V2000
   -8.6090   17.4790   26.9670 N   0  0  0  0  0  0  0  0  0  0  0  0
   -8.6350   16.0340   26.7950 N   0  0  0  0  0  0  0  0  0  0  0  0
   -8.8340   15.1390   27.7930 C   0  0  0  0  0  0  0  0  0  0  0  0
   -8.1960   14.0580   27.7490 O   0  0  0  0  0  0  0  0  0  0  0  0
   -9.7380   15.5000   28.7370 N   0  0  0  0  0  0  0  0  0  0  0  0
  -10.7830   16.4110   28.6900 C   0  0  0  0  0  0  0  0  0  0  0  0
  -10.5070   17.9430   28.3120 C   0  0  0  0  0  0  0  0  0  0  0  0
  -11.7120   18.5780   28.6250 O   0  0  0  0  0  0  0  0  0  0  0  0
   -9.9550   18.2170   26.9280 C   0  0  0  0  0  0  0  0  0  0  0  0
   -7.5970   18.0110   27.9810 C   0  0  0  0  0  0  0  0  0  0  0  0
   -6.2610   18.0140   27.2600 C   0  0  0  0  0  0  0  0  0  0  0  0
   -5.9990   18.9990   26.2900 C   0  0  0  0  0  0  0  0  0  0  0  0
   -4.7980   18.9680   25.5870 C   0  0  0  0  0  0  0  0  0  0  0  0
   -3.8660   17.9650   25.8660 C   0  0  0  0  0  0  0  0  0  0  0  0
   -4.1400   16.9950   26.8340 C   0  0  0  0  0  0  0  0  0  0  0  0
   -5.3300   17.0100   27.5410 C   0  0  0  0  0  0  0  0  0  0  0  0
  -11.8350   15.7240   27.7790 C   0  0  0  0  0  0  0  0  0  0  0  0
  -12.5130   14.5110   28.4400 C   0  0  0  0  0  0  0  0  0  0  0  0
  -13.5150   14.6890   29.4100 C   0  0  0  0  0  0  0  0  0  0  0  0
  -14.1260   13.5700   29.9890 C   0  0  0  0  0  0  0  0  0  0  0  0
  -13.7420   12.2830   29.6090 C   0  0  0  0  0  0  0  0  0  0  0  0
  -12.7480   12.1180   28.6470 C   0  0  0  0  0  0  0  0  0  0  0  0
  -12.1290   13.2200   28.0570 C   0  0  0  0  0  0  0  0  0  0  0  0
   -9.5080   14.6890   30.0310 C   0  0  0  0  0  0  0  0  0  0  0  0
   -9.7610   15.3130   31.3930 C   0  0  0  0  0  0  0  0  0  0  0  0
  -10.8880   14.9570   32.1220 C   0  0  0  0  0  0  0  0  0  0  0  0
  -11.1060   15.5500   33.3650 C   0  0  0  0  0  0  0  0  0  0  0  0
  -10.1860   16.4640   33.8690 C   0  0  0  0  0  0  0  0  0  0  0  0
   -9.0600   16.8300   33.1410 C   0  0  0  0  0  0  0  0  0  0  0  0
   -8.8540   16.2530   31.8950 C   0  0  0  0  0  0  0  0  0  0  0  0
  -10.3860   17.0270   35.0700 O   0  0  0  0  0  0  0  0  0  0  0  0
  -12.3300   15.2890   33.9950 O   0  0  0  0  0  0  0  0  0  0  0  0
  -13.2190   14.1460   33.8460 C   0  0  0  0  0  0  0  0  0  0  0  0
   -7.9030   15.5780   25.5260 C   0  0  0  0  0  0  0  0  0  0  0  0
   -8.3250   16.1260   24.1900 C   0  0  0  0  0  0  0  0  0  0  0  0
   -9.6010   15.8450   23.6790 C   0  0  0  0  0  0  0  0  0  0  0  0
   -9.9640   16.3570   22.4350 C   0  0  0  0  0  0  0  0  0  0  0  0
   -9.0500   17.1410   21.7250 C   0  0  0  0  0  0  0  0  0  0  0  0
   -7.7900   17.4080   22.2460 C   0  0  0  0  0  0  0  0  0  0  0  0
   -7.4230   16.8970   23.4700 C   0  0  0  0  0  0  0  0  0  0  0  0
   -9.6420   17.4790   20.5660 O   0  0  0  0  0  0  0  0  0  0  0  0
   -6.9770   18.2840   21.5320 O   0  0  0  0  0  0  0  0  0  0  0  0
   -6.2750   19.3230   22.2660 C   0  0  0  0  0  0  0  0  0  0  0  0
  -11.1077   16.5985   29.7241 H   0  0  0  0  0  0  0  0  0  0  0  0
   -9.6603   18.3488   28.8851 H   0  0  0  0  0  0  0  0  0  0  0  0
  -11.8116   18.6305   29.6086 H   0  0  0  0  0  0  0  0  0  0  0  0
   -9.8146   19.2950   26.7603 H   0  0  0  0  0  0  0  0  0  0  0  0
  -10.6173   17.8873   26.1140 H   0  0  0  0  0  0  0  0  0  0  0  0
   -7.8667   19.0304   28.2943 H   0  0  0  0  0  0  0  0  0  0  0  0
   -7.5678   17.3926   28.8903 H   0  0  0  0  0  0  0  0  0  0  0  0
   -6.7383   19.7882   26.0886 H   0  0  0  0  0  0  0  0  0  0  0  0
   -4.5846   19.7260   24.8190 H   0  0  0  0  0  0  0  0  0  0  0  0
   -2.9111   17.9388   25.3206 H   0  0  0  0  0  0  0  0  0  0  0  0
   -3.3990   16.2078   27.0371 H   0  0  0  0  0  0  0  0  0  0  0  0
   -5.5384   16.2486   28.3071 H   0  0  0  0  0  0  0  0  0  0  0  0
  -12.6104   16.4612   27.5237 H   0  0  0  0  0  0  0  0  0  0  0  0
  -11.3042   15.3556   26.8888 H   0  0  0  0  0  0  0  0  0  0  0  0
  -13.8175   15.7024   29.7126 H   0  0  0  0  0  0  0  0  0  0  0  0
  -14.9119   13.7058   30.7465 H   0  0  0  0  0  0  0  0  0  0  0  0
  -14.2211   11.4047   30.0662 H   0  0  0  0  0  0  0  0  0  0  0  0
  -12.4467   11.1032   28.3481 H   0  0  0  0  0  0  0  0  0  0  0  0
  -11.3462   13.0762   27.2977 H   0  0  0  0  0  0  0  0  0  0  0  0
  -10.1567   13.8030   29.9660 H   0  0  0  0  0  0  0  0  0  0  0  0
   -8.4192   14.5321   30.0317 H   0  0  0  0  0  0  0  0  0  0  0  0
  -11.5988   14.2176   31.7245 H   0  0  0  0  0  0  0  0  0  0  0  0
   -8.3456   17.5628   33.5443 H   0  0  0  0  0  0  0  0  0  0  0  0
   -7.9735   16.5362   31.2996 H   0  0  0  0  0  0  0  0  0  0  0  0
  -10.2028   16.5114   35.8951 H   0  0  0  0  0  0  0  0  0  0  0  0
  -13.5081   13.7743   34.8401 H   0  0  0  0  0  0  0  0  0  0  0  0
  -14.1193   14.4514   33.2926 H   0  0  0  0  0  0  0  0  0  0  0  0
  -12.7014   13.3486   33.2926 H   0  0  0  0  0  0  0  0  0  0  0  0
   -6.8422   15.8377   25.6577 H   0  0  0  0  0  0  0  0  0  0  0  0
   -8.1494   14.5082   25.4559 H   0  0  0  0  0  0  0  0  0  0  0  0
  -10.3068   15.2275   24.2539 H   0  0  0  0  0  0  0  0  0  0  0  0
  -10.9591   16.1465   22.0161 H   0  0  0  0  0  0  0  0  0  0  0  0
   -6.4205   17.0985   23.8754 H   0  0  0  0  0  0  0  0  0  0  0  0
  -10.5017   17.9698   20.5740 H   0  0  0  0  0  0  0  0  0  0  0  0
   -6.3912   19.1511   23.3463 H   0  0  0  0  0  0  0  0  0  0  0  0
   -5.2070   19.2994   22.0037 H   0  0  0  0  0  0  0  0  0  0  0  0
   -6.6954   20.3051   22.0037 H   0  0  0  0  0  0  0  0  0  0  0  0
  1  2  1  0
  1  9  1  0
  1 10  1  0
  2  3  1  0
  2 34  1  0
  3  4  2  0
  3  5  1  0
  5  6  1  0
  5 24  1  0
  6  7  1  0
  6 17  1  0
  7  8  1  0
  7  9  1  0
 10 11  1  0
 11 12  2  0
 11 16  1  0
 12 13  1  0
 13 14  2  0
 14 15  1  0
 15 16  2  0
 17 18  1  0
 18 19  2  0
 18 23  1  0
 19 20  1  0
 20 21  2  0
 21 22  1  0
 22 23  2  0
 24 25  1  0
 25 26  2  0
 25 30  1  0
 26 27  1  0
 27 28  2  0
 27 32  1  0
 28 29  1  0
 28 31  1  0
 29 30  2  0
 32 33  1  0
 34 35  1  0
 35 36  2  0
 35 40  1  0
 36 37  1  0
 37 38  2  0
 38 39  1  0
 38 41  1  0
 39 40  2  0
 39 42  1  0
 42 43  1  0
  6 44  1  0
  7 45  1  0
  8 46  1  0
  9 47  1  0
  9 48  1  0
 10 49  1  0
 10 50  1  0
 12 51  1  0
 13 52  1  0
 14 53  1  0
 15 54  1  0
 16 55  1  0
 17 56  1  0
 17 57  1  0
 19 58  1  0
 20 59  1  0
 21 60  1  0
 22 61  1  0
 23 62  1  0
 24 63  1  0
 24 64  1  0
 26 65  1  0
 29 66  1  0
 30 67  1  0
 31 68  1  0
 33 69  1  0
 33 70  1  0
 33 71  1  0
 34 72  1  0
 34 73  1  0
 36 74  1  0
 37 75  1  0
 40 76  1  0
 41 77  1  0
 43 78  1  0
 43 79  1  0
 43 80  1  0
A    1
N1
A    2
N2
A    3
C3
A    4
O3
A    5
N4
A    6
C5
A    7
C6
A    8
O6
A    9
C7
A   10
C8
A   11
C9
A   12
C10
A   13
C11
A   14
C12
A   15
C13
A   16
C14
A   17
C15
A   18
C16
A   19
C17
A   20
C18
A   21
C19
A   22
C20
A   23
C21
A   24
C22
A   25
C23
A   26
C24
A   27
C25
A   28
C26
A   29
C27
A   30
C28
A   31
O29
A   32
O30
A   33
C31
A   34
C32
A   35
C33
A   36
C34
A   37
C35
A   38
C36
A   39
C37
A   40
C38
A   41
O39
A   42
O40
A   43
C41
M  END
