1PTR_PRB_A_3
     RDKit          3D

 59 62  0  0  0  0  0  0  0  0999 V2000
   10.0060   23.8590   22.5830 C   0  0  0  0  0  0  0  0  0  0  0  0
    9.0890   22.8890   22.9440 C   0  0  0  0  0  0  0  0  0  0  0  0
    8.7730   23.0570   24.2760 C   0  0  0  0  0  0  0  0  0  0  0  0
    7.9060   22.3930   24.8690 O   0  0  0  0  0  0  0  0  0  0  0  0
    9.4560   24.2740   24.8720 C   0  0  0  0  0  0  0  0  0  0  0  0
    8.4140   25.2380   25.0310 O   0  0  0  0  0  0  0  0  0  0  0  0
   10.1340   23.9340   26.2220 C   0  0  0  0  0  0  0  0  0  0  0  0
   11.3760   24.6880   26.5980 C   0  0  0  0  0  0  0  0  0  0  0  0
   11.6950   25.9360   26.0670 C   0  0  0  0  0  0  0  0  0  0  0  0
   10.8240   26.6910   25.0820 C   0  0  0  0  0  0  0  0  0  0  0  0
   10.8210   26.1830   23.5970 C   0  0  0  0  0  0  0  0  0  0  0  0
   12.1280   26.2530   23.0400 O   0  0  0  0  0  0  0  0  0  0  0  0
   10.5440   24.5830   23.7960 C   0  0  0  0  0  0  0  0  0  0  0  0
    9.7950   27.0920   22.7960 C   0  0  0  0  0  0  0  0  0  0  0  0
   10.3300   28.5360   22.7260 C   0  0  0  0  0  0  0  0  0  0  0  0
    9.2890   29.4730   22.4620 O   0  0  0  0  0  0  0  0  0  0  0  0
   11.0240   29.0550   24.0040 C   0  0  0  0  0  0  0  0  0  0  0  0
   11.1950   28.2040   25.3040 C   0  0  0  0  0  0  0  0  0  0  0  0
   10.4310   29.4620   25.3950 C   0  0  0  0  0  0  0  0  0  0  0  0
    8.9680   29.1790   25.8140 C   0  0  0  0  0  0  0  0  0  0  0  0
   11.0080   30.6700   26.1540 C   0  0  0  0  0  0  0  0  0  0  0  0
    9.4600   26.6990   21.3640 C   0  0  0  0  0  0  0  0  0  0  0  0
    8.5200   21.8420   22.0240 C   0  0  0  0  0  0  0  0  0  0  0  0
   12.2720   24.1470   27.6250 C   0  0  0  0  0  0  0  0  0  0  0  0
   12.5430   22.7510   27.5090 O   0  0  0  0  0  0  0  0  0  0  0  0
   12.0400   30.0190   23.7050 O   0  0  0  0  0  0  0  0  0  0  0  0
   13.1100   29.7820   22.7690 C   0  0  0  0  0  0  0  0  0  0  0  0
   13.3870   28.6210   22.4240 O   0  0  0  0  0  0  0  0  0  0  0  0
   13.8990   30.9400   22.1710 C   0  0  0  0  0  0  0  0  0  0  0  0
   10.3053   24.0758   21.5469 H   0  0  0  0  0  0  0  0  0  0  0  0
    8.2495   25.3902   25.9953 H   0  0  0  0  0  0  0  0  0  0  0  0
    9.3917   24.1111   27.0142 H   0  0  0  0  0  0  0  0  0  0  0  0
   10.4701   22.8931   26.1054 H   0  0  0  0  0  0  0  0  0  0  0  0
   12.6393   26.4035   26.3826 H   0  0  0  0  0  0  0  0  0  0  0  0
    9.7591   26.5067   25.2868 H   0  0  0  0  0  0  0  0  0  0  0  0
   12.7962   26.2888   23.7696 H   0  0  0  0  0  0  0  0  0  0  0  0
   11.5537   24.2389   24.0644 H   0  0  0  0  0  0  0  0  0  0  0  0
    8.8675   26.9648   23.3736 H   0  0  0  0  0  0  0  0  0  0  0  0
   11.0703   28.4690   21.9152 H   0  0  0  0  0  0  0  0  0  0  0  0
    8.9195   29.8056   23.3181 H   0  0  0  0  0  0  0  0  0  0  0  0
   11.9097   27.8430   26.0583 H   0  0  0  0  0  0  0  0  0  0  0  0
    8.8971   29.1653   26.9116 H   0  0  0  0  0  0  0  0  0  0  0  0
    8.3131   29.9671   25.4141 H   0  0  0  0  0  0  0  0  0  0  0  0
    8.6542   28.2035   25.4141 H   0  0  0  0  0  0  0  0  0  0  0  0
   10.9250   30.4963   27.2370 H   0  0  0  0  0  0  0  0  0  0  0  0
   12.0661   30.8015   25.8838 H   0  0  0  0  0  0  0  0  0  0  0  0
   10.4453   31.5757   25.8838 H   0  0  0  0  0  0  0  0  0  0  0  0
    8.7464   25.8619   21.3709 H   0  0  0  0  0  0  0  0  0  0  0  0
    9.0122   27.5582   20.8432 H   0  0  0  0  0  0  0  0  0  0  0  0
   10.3793   26.3929   20.8432 H   0  0  0  0  0  0  0  0  0  0  0  0
    8.0788   21.0301   22.6208 H   0  0  0  0  0  0  0  0  0  0  0  0
    7.7436   22.2943   21.3895 H   0  0  0  0  0  0  0  0  0  0  0  0
    9.3219   21.4366   21.3895 H   0  0  0  0  0  0  0  0  0  0  0  0
   13.2282   24.6872   27.5636 H   0  0  0  0  0  0  0  0  0  0  0  0
   11.7569   24.2830   28.5874 H   0  0  0  0  0  0  0  0  0  0  0  0
   12.6201   22.3536   28.4125 H   0  0  0  0  0  0  0  0  0  0  0  0
   14.3181   31.5551   22.9809 H   0  0  0  0  0  0  0  0  0  0  0  0
   14.7165   30.5448   21.5501 H   0  0  0  0  0  0  0  0  0  0  0  0
   13.2321   31.5562   21.5501 H   0  0  0  0  0  0  0  0  0  0  0  0
  1  2  2  0
  1 13  1  0
  2  3  1  0
  2 23  1  0
  3  4  2  0
  3  5  1  0
  5  6  1  0
  5  7  1  0
  5 13  1  0
  7  8  1  0
  8  9  2  0
  8 24  1  0
  9 10  1  0
 10 11  1  0
 10 18  1  0
 11 12  1  0
 11 13  1  0
 11 14  1  0
 14 15  1  0
 14 22  1  0
 15 16  1  0
 15 17  1  0
 17 18  1  0
 17 19  1  0
 17 26  1  0
 18 19  1  0
 19 20  1  0
 19 21  1  0
 24 25  1  0
 26 27  1  0
 27 28  2  0
 27 29  1  0
  1 30  1  0
  6 31  1  0
  7 32  1  0
  7 33  1  0
  9 34  1  0
 10 35  1  0
 12 36  1  0
 13 37  1  0
 14 38  1  0
 15 39  1  0
 16 40  1  0
 18 41  1  0
 20 42  1  0
 20 43  1  0
 20 44  1  0
 21 45  1  0
 21 46  1  0
 21 47  1  0
 22 48  1  0
 22 49  1  0
 22 50  1  0
 23 51  1  0
 23 52  1  0
 23 53  1  0
 24 54  1  0
 24 55  1  0
 25 56  1  0
 29 57  1  0
 29 58  1  0
 29 59  1  0
A    1
C1
A    2
C2
A    3
C3
A    4
O3
A    5
C4
A    6
O4
A    7
C5
A    8
C6
A    9
C7
A   10
C8
A   11
C9
A   12
O9
A   13
C10
A   14
C11
A   15
C12
A   16
O12
A   17
C13
A   18
C14
A   19
C15
A   20
C16
A   21
C17
A   22
C18
A   23
C19
A   24
C20
A   25
O20
A   26
OA1
A   27
CA1
A   28
OA2
A   29
CA2
M  END
