1MWF_MZP_?_971
     RDKit          3D

 19 18  0  0  0  0  0  0  0  0999 V2000
  -21.5720   34.9220   48.5230 P   0  0  0  0  0  0  0  0  0  0  0  0
  -20.2120   35.1940   47.9980 O   0  0  0  0  0  0  0  0  0  0  0  0
  -21.6910   35.2580   49.9670 O   0  0  0  0  0  0  0  0  0  0  0  0
  -21.9350   33.5210   48.2340 O   0  0  0  0  0  0  0  0  0  0  0  0
  -26.3340   36.0070   44.3190 N   0  0  0  0  0  0  0  0  0  0  0  0
  -27.2220   35.0220   44.4970 C   0  0  0  0  0  0  0  0  0  0  0  0
  -27.4230   34.3380   43.4360 N   0  0  0  0  0  0  0  0  0  0  0  0
  -26.6270   34.8940   42.4990 C   0  0  0  0  0  0  0  0  0  0  0  0
  -26.4900   34.4480   41.0880 C   0  0  0  0  0  0  0  0  0  0  0  0
  -27.1210   33.4890   40.6670 O   0  0  0  0  0  0  0  0  0  0  0  0
  -25.9510   35.9380   43.0260 C   0  0  0  0  0  0  0  0  0  0  0  0
  -25.6380   35.0920   40.1970 N   0  0  0  0  0  0  0  0  0  0  0  0
  -25.0620   36.7270   42.3630 O   0  0  0  0  0  0  0  0  0  0  0  0
  -22.3692   35.6503   47.9552 H   0  0  0  0  0  0  0  0  0  0  0  0
  -26.0083   36.6818   45.0258 H   0  0  0  0  0  0  0  0  0  0  0  0
  -27.7254   34.8221   45.4544 H   0  0  0  0  0  0  0  0  0  0  0  0
  -28.0569   33.5344   43.3209 H   0  0  0  0  0  0  0  0  0  0  0  0
  -24.8667   35.6750   40.5520 H   0  0  0  0  0  0  0  0  0  0  0  0
  -25.7784   34.9859   39.1821 H   0  0  0  0  0  0  0  0  0  0  0  0
  1  2  2  0
  1  3  1  0
  1  4  1  0
  5  6  1  0
  5 11  1  0
  6  7  2  0
  7  8  1  0
  8  9  1  0
  8 11  2  0
  9 10  2  0
  9 12  1  0
 11 13  1  0
  1 14  1  0
  5 15  1  0
  6 16  1  0
  7 17  1  0
 12 18  1  0
 12 19  1  0
M  CHG  4   3  -1   4  -1   7   1  13  -1
A    1
P
A    2
O1P
A    3
O2P
A    4
O3P
A    5
N1
A    6
C2
A    7
N3
A    8
C4
A    9
C6
A   10
O6
A   11
C5
A   12
N6
A   13
O5
M  END
