1PWY_AC2_E_290
     RDKit          3D

 27 28  0  0  0  0  0  0  0  0999 V2000
  -19.3880   88.0670    3.3680 C   0  0  0  0  0  0  0  0  0  0  0  0
  -19.8230   88.8400    2.2120 O   0  0  0  0  0  0  0  0  0  0  0  0
  -17.8650   88.0310    3.4480 C   0  0  0  0  0  0  0  0  0  0  0  0
  -17.3560   86.6730    3.1910 O   0  0  0  0  0  0  0  0  0  0  0  0
  -17.8960   86.1300    1.9670 C   0  0  0  0  0  0  0  0  0  0  0  0
  -17.6500   87.0430    0.8570 N   0  0  0  0  0  0  0  0  0  0  0  0
  -18.5630   87.7630    0.1170 C   0  0  0  0  0  0  0  0  0  0  0  0
  -18.0080   88.5060   -0.8110 N   0  0  0  0  0  0  0  0  0  0  0  0
  -16.6450   88.2510   -0.6650 C   0  0  0  0  0  0  0  0  0  0  0  0
  -15.5280   88.7670   -1.3780 C   0  0  0  0  0  0  0  0  0  0  0  0
  -15.5220   89.5730   -2.3110 O   0  0  0  0  0  0  0  0  0  0  0  0
  -14.3240   88.2410   -0.9030 N   0  0  0  0  0  0  0  0  0  0  0  0
  -14.2140   87.3420    0.1270 C   0  0  0  0  0  0  0  0  0  0  0  0
  -12.9920   86.9540    0.4440 N   0  0  0  0  0  0  0  0  0  0  0  0
  -15.2400   86.8600    0.7990 N   0  0  0  0  0  0  0  0  0  0  0  0
  -16.4140   87.3540    0.3550 C   0  0  0  0  0  0  0  0  0  0  0  0
  -19.7872   88.5292    4.2829 H   0  0  0  0  0  0  0  0  0  0  0  0
  -19.7621   87.0375    3.2672 H   0  0  0  0  0  0  0  0  0  0  0  0
  -20.2847   89.6604    2.5184 H   0  0  0  0  0  0  0  0  0  0  0  0
  -17.4488   88.7194    2.6977 H   0  0  0  0  0  0  0  0  0  0  0  0
  -17.5595   88.3346    4.4602 H   0  0  0  0  0  0  0  0  0  0  0  0
  -17.4151   85.1636    1.7554 H   0  0  0  0  0  0  0  0  0  0  0  0
  -18.9811   85.9931    2.0842 H   0  0  0  0  0  0  0  0  0  0  0  0
  -19.6488   87.7191    0.2875 H   0  0  0  0  0  0  0  0  0  0  0  0
  -13.4547   88.5513   -1.3601 H   0  0  0  0  0  0  0  0  0  0  0  0
  -12.7196   86.8675    1.4335 H   0  0  0  0  0  0  0  0  0  0  0  0
  -12.3114   86.7379   -0.2983 H   0  0  0  0  0  0  0  0  0  0  0  0
  1  2  1  0
  1  3  1  0
  3  4  1  0
  4  5  1  0
  5  6  1  0
  6  7  1  0
  6 16  1  0
  7  8  2  0
  8  9  1  0
  9 10  1  0
  9 16  2  0
 10 11  2  0
 10 12  1  0
 12 13  1  0
 13 14  1  0
 13 15  2  0
 15 16  1  0
  1 17  1  0
  1 18  1  0
  2 19  1  0
  3 20  1  0
  3 21  1  0
  5 22  1  0
  5 23  1  0
  7 24  1  0
 12 25  1  0
 14 26  1  0
 14 27  1  0
A    1
C3'
A    2
O3'
A    3
C2'
A    4
O1'
A    5
C1'
A    6
N9
A    7
C8
A    8
N7
A    9
C5
A   10
C6
A   11
O6
A   12
N1
A   13
C2
A   14
N2
A   15
N3
A   16
C4
M  END
