1EFZ_PRF_A_400
     RDKit          3D

 22 23  0  0  0  0  0  0  0  0999 V2000
   17.0380   17.3220   23.8250 N   0  0  0  0  0  0  0  0  0  0  0  0
   15.7050   16.9730   23.6510 C   0  0  0  0  0  0  0  0  0  0  0  0
   15.2220   16.7830   22.4590 N   0  0  0  0  0  0  0  0  0  0  0  0
   16.0680   16.9400   21.2730 C   0  0  0  0  0  0  0  0  0  0  0  0
   17.3520   17.2830   21.4000 C   0  0  0  0  0  0  0  0  0  0  0  0
   17.8970   17.4890   22.7650 C   0  0  0  0  0  0  0  0  0  0  0  0
   19.0640   17.7960   22.8870 O   0  0  0  0  0  0  0  0  0  0  0  0
   17.8290   17.3330   20.0090 C   0  0  0  0  0  0  0  0  0  0  0  0
   19.2020   17.6620   19.5130 C   0  0  0  0  0  0  0  0  0  0  0  0
   19.4970   17.7200   18.0570 N   0  0  0  0  0  0  0  0  0  0  0  0
   16.7880   17.0240   19.2530 C   0  0  0  0  0  0  0  0  0  0  0  0
   15.7700   16.7980   20.0150 N   0  0  0  0  0  0  0  0  0  0  0  0
   14.9720   16.8460   24.7060 N   0  0  0  0  0  0  0  0  0  0  0  0
   17.3951   17.4604   24.7811 H   0  0  0  0  0  0  0  0  0  0  0  0
   19.4537   18.6513   19.9227 H   0  0  0  0  0  0  0  0  0  0  0  0
   19.7930   16.7957   19.8451 H   0  0  0  0  0  0  0  0  0  0  0  0
   20.4983   17.9169   17.9171 H   0  0  0  0  0  0  0  0  0  0  0  0
   19.2608   16.8165   17.6226 H   0  0  0  0  0  0  0  0  0  0  0  0
   16.7894   16.9686   18.1544 H   0  0  0  0  0  0  0  0  0  0  0  0
   14.8358   16.5370   19.6686 H   0  0  0  0  0  0  0  0  0  0  0  0
   15.3979   16.9198   25.6409 H   0  0  0  0  0  0  0  0  0  0  0  0
   13.9613   16.6709   24.6128 H   0  0  0  0  0  0  0  0  0  0  0  0
  1  2  1  0
  1  6  1  0
  2  3  2  0
  2 13  1  0
  3  4  1  0
  4  5  2  0
  4 12  1  0
  5  6  1  0
  5  8  1  0
  6  7  2  0
  8  9  1  0
  8 11  2  0
  9 10  1  0
 11 12  1  0
  1 14  1  0
  9 15  1  0
  9 16  1  0
 10 17  1  0
 10 18  1  0
 11 19  1  0
 12 20  1  0
 13 21  1  0
 13 22  1  0
A    1
N1
A    2
C2
A    3
N3
A    4
C4
A    5
C5
A    6
C6
A    7
O6
A    8
C7
A    9
C10
A   10
N11
A   11
C8
A   12
N9
A   13
N2
M  END
