1A49_OXL_A_533
     RDKit          3D

  6  5  0  0  0  0  0  0  0  0999 V2000
   10.1680   68.4520   11.8590 C   0  0  0  0  0  0  0  0  0  0  0  0
   11.5460   69.0650   11.6220 C   0  0  0  0  0  0  0  0  0  0  0  0
    9.6400   68.0500   10.8310 O   0  0  0  0  0  0  0  0  0  0  0  0
   12.1750   69.5410   12.6010 O   0  0  0  0  0  0  0  0  0  0  0  0
    9.6720   68.4150   13.0120 O   0  0  0  0  0  0  0  0  0  0  0  0
   11.9050   69.0470   10.4360 O   0  0  0  0  0  0  0  0  0  0  0  0
  1  2  1  0
  1  3  2  0
  1  5  1  0
  2  4  2  0
  2  6  1  0
M  CHG  2   5  -1   6  -1
A    1
C1
A    2
C2
A    3
O1
A    4
O2
A    5
O3
A    6
O4
M  END
