1PZI_1DM_D_104
     RDKit          3D

 38 39  0  0  0  0  0  0  0  0999 V2000
   53.1120   23.4760   33.0890 C   0  0  0  0  0  0  0  0  0  0  0  0
   53.6590   24.0000   34.0510 O   0  0  0  0  0  0  0  0  0  0  0  0
   52.7570   21.9970   33.1180 C   0  0  0  0  0  0  0  0  0  0  0  0
   53.0540   21.1930   34.2190 C   0  0  0  0  0  0  0  0  0  0  0  0
   52.1330   21.4610   32.0080 C   0  0  0  0  0  0  0  0  0  0  0  0
   51.7910   20.1200   31.9920 C   0  0  0  0  0  0  0  0  0  0  0  0
   51.1680   19.6300   30.9150 N   0  0  0  0  0  0  0  0  0  0  0  0
   51.0000   20.3680   29.9400 O   0  0  0  0  0  0  0  0  0  0  0  0
   50.7550   18.4660   30.9130 O   0  0  0  0  0  0  0  0  0  0  0  0
   52.0840   19.3170   33.0890 C   0  0  0  0  0  0  0  0  0  0  0  0
   52.7110   19.8410   34.2130 C   0  0  0  0  0  0  0  0  0  0  0  0
   52.9960   19.0290   35.2800 O   0  0  0  0  0  0  0  0  0  0  0  0
   51.9690   18.9770   36.2850 C   0  0  0  0  0  0  0  0  0  0  0  0
   50.7470   18.3950   35.7900 O   0  0  0  0  0  0  0  0  0  0  0  0
   50.9300   17.0310   35.3950 C   0  0  0  0  0  0  0  0  0  0  0  0
   49.6080   16.5440   34.8000 C   0  0  0  0  0  0  0  0  0  0  0  0
   49.2670   17.3850   33.6810 O   0  0  0  0  0  0  0  0  0  0  0  0
   51.4010   16.1700   36.5670 C   0  0  0  0  0  0  0  0  0  0  0  0
   50.3980   16.1370   37.6040 O   0  0  0  0  0  0  0  0  0  0  0  0
   52.6980   16.7200   37.1430 C   0  0  0  0  0  0  0  0  0  0  0  0
   53.0470   15.9880   38.3240 O   0  0  0  0  0  0  0  0  0  0  0  0
   52.5070   18.1990   37.4940 C   0  0  0  0  0  0  0  0  0  0  0  0
   53.7630   18.7340   37.8440 O   0  0  0  0  0  0  0  0  0  0  0  0
   52.8760   24.0779   32.1990 H   0  0  0  0  0  0  0  0  0  0  0  0
   53.5601   21.6266   35.0942 H   0  0  0  0  0  0  0  0  0  0  0  0
   51.9087   22.0980   31.1397 H   0  0  0  0  0  0  0  0  0  0  0  0
   51.8153   18.2506   33.0666 H   0  0  0  0  0  0  0  0  0  0  0  0
   51.7143   20.0044   36.5844 H   0  0  0  0  0  0  0  0  0  0  0  0
   51.7232   16.9487   34.6373 H   0  0  0  0  0  0  0  0  0  0  0  0
   49.7158   15.5030   34.4613 H   0  0  0  0  0  0  0  0  0  0  0  0
   48.8146   16.5923   35.5604 H   0  0  0  0  0  0  0  0  0  0  0  0
   48.9165   18.2494   34.0126 H   0  0  0  0  0  0  0  0  0  0  0  0
   51.5718   15.1497   36.1932 H   0  0  0  0  0  0  0  0  0  0  0  0
   50.8390   16.1515   38.4902 H   0  0  0  0  0  0  0  0  0  0  0  0
   53.5038   16.6177   36.4012 H   0  0  0  0  0  0  0  0  0  0  0  0
   52.7962   16.5139   39.1244 H   0  0  0  0  0  0  0  0  0  0  0  0
   51.7891   18.2842   38.3230 H   0  0  0  0  0  0  0  0  0  0  0  0
   53.8438   18.7684   38.8301 H   0  0  0  0  0  0  0  0  0  0  0  0
  1  2  2  0
  1  3  1  0
  3  4  2  0
  3  5  1  0
  4 11  1  0
  5  6  2  0
  6  7  1  0
  6 10  1  0
  7  8  1  0
  7  9  2  0
 10 11  2  0
 11 12  1  0
 12 13  1  0
 13 14  1  0
 13 22  1  0
 14 15  1  0
 15 16  1  0
 15 18  1  0
 16 17  1  0
 18 19  1  0
 18 20  1  0
 20 21  1  0
 20 22  1  0
 22 23  1  0
  1 24  1  0
  4 25  1  0
  5 26  1  0
 10 27  1  0
 13 28  1  0
 15 29  1  0
 16 30  1  0
 16 31  1  0
 17 32  1  0
 18 33  1  0
 19 34  1  0
 20 35  1  0
 21 36  1  0
 22 37  1  0
 23 38  1  0
M  CHG  2   7   1   8  -1
A    1
C13
A    2
O17
A    3
C11
A    4
C12
A    5
C10
A    6
C9
A    7
N14
A    8
O15
A    9
O16
A   10
C8
A   11
C7
A   12
O1
A   13
C1
A   14
O5
A   15
C5
A   16
C6
A   17
O6
A   18
C4
A   19
O4
A   20
C3
A   21
O3
A   22
C2
A   23
O2
M  END
