1PZJ_15B_D_104
     RDKit          3D

 74 76  0  0  0  0  0  0  0  0999 V2000
  -10.9760   19.6570    1.9860 C   0  0  0  0  0  0  0  0  0  0  0  0
  -10.4630   19.4050    0.7320 O   0  0  0  0  0  0  0  0  0  0  0  0
  -10.9520   20.2910   -0.2710 C   0  0  0  0  0  0  0  0  0  0  0  0
  -10.6500   19.9520   -1.5700 C   0  0  0  0  0  0  0  0  0  0  0  0
  -11.1150   20.7800   -2.5730 C   0  0  0  0  0  0  0  0  0  0  0  0
  -10.8150   20.4610   -3.8340 N   0  0  0  0  0  0  0  0  0  0  0  0
  -11.2060   21.1640   -4.7400 O   0  0  0  0  0  0  0  0  0  0  0  0
  -10.1370   19.4710   -4.0820 O   0  0  0  0  0  0  0  0  0  0  0  0
  -11.8880   21.9110   -2.2760 C   0  0  0  0  0  0  0  0  0  0  0  0
  -12.2010   22.2330   -0.9470 C   0  0  0  0  0  0  0  0  0  0  0  0
  -11.7250   21.4040    0.0650 C   0  0  0  0  0  0  0  0  0  0  0  0
  -12.9540   23.3550   -0.5700 C   0  0  0  0  0  0  0  0  0  0  0  0
  -12.9790   24.3220   -1.3500 N   0  0  0  0  0  0  0  0  0  0  0  0
  -13.7200   25.5440   -1.1160 C   0  0  0  0  0  0  0  0  0  0  0  0
  -14.8290   25.4360   -2.1560 C   0  0  0  0  0  0  0  0  0  0  0  0
  -16.2040   25.1670   -1.5850 C   0  0  0  0  0  0  0  0  0  0  0  0
  -17.1010   25.8600   -2.1590 N   0  0  0  0  0  0  0  0  0  0  0  0
  -16.6480   27.2360   -2.3500 C   0  0  0  0  0  0  0  0  0  0  0  0
  -17.7300   28.0990   -2.9730 C   0  0  0  0  0  0  0  0  0  0  0  0
  -18.8690   28.1620   -2.0810 N   0  0  0  0  0  0  0  0  0  0  0  0
  -19.6530   29.0580   -2.3660 C   0  0  0  0  0  0  0  0  0  0  0  0
  -19.4070   30.1630   -1.7890 C   0  0  0  0  0  0  0  0  0  0  0  0
  -18.7040   31.2090   -2.6420 C   0  0  0  0  0  0  0  0  0  0  0  0
  -19.1070   32.5640   -2.2970 N   0  0  0  0  0  0  0  0  0  0  0  0
  -19.4290   26.8090   -2.0160 C   0  0  0  0  0  0  0  0  0  0  0  0
  -18.3840   25.8290   -1.4570 C   0  0  0  0  0  0  0  0  0  0  0  0
  -13.5190   23.4470    0.5270 O   0  0  0  0  0  0  0  0  0  0  0  0
  -10.6960   18.4020    2.7780 C   0  0  0  0  0  0  0  0  0  0  0  0
  -11.4640   17.3440    2.2180 O   0  0  0  0  0  0  0  0  0  0  0  0
  -11.0570   18.6920    4.2280 C   0  0  0  0  0  0  0  0  0  0  0  0
  -10.7090   17.5600    5.0010 O   0  0  0  0  0  0  0  0  0  0  0  0
  -10.3460   19.9500    4.7380 C   0  0  0  0  0  0  0  0  0  0  0  0
   -8.9530   19.6760    4.8630 O   0  0  0  0  0  0  0  0  0  0  0  0
  -10.6330   21.1250    3.8190 C   0  0  0  0  0  0  0  0  0  0  0  0
   -9.8630   22.3850    4.1990 C   0  0  0  0  0  0  0  0  0  0  0  0
  -10.2800   23.4870    3.3870 O   0  0  0  0  0  0  0  0  0  0  0  0
  -10.2610   20.7680    2.4880 O   0  0  0  0  0  0  0  0  0  0  0  0
  -12.0512   19.8873    2.0167 H   0  0  0  0  0  0  0  0  0  0  0  0
  -10.0592   19.0534   -1.8014 H   0  0  0  0  0  0  0  0  0  0  0  0
  -12.2525   22.5518   -3.0924 H   0  0  0  0  0  0  0  0  0  0  0  0
  -11.9554   21.6235    1.1180 H   0  0  0  0  0  0  0  0  0  0  0  0
  -12.4358   24.2495   -2.2221 H   0  0  0  0  0  0  0  0  0  0  0  0
  -14.1290   25.5759   -0.0954 H   0  0  0  0  0  0  0  0  0  0  0  0
  -13.1137   26.4577   -1.2026 H   0  0  0  0  0  0  0  0  0  0  0  0
  -14.8687   26.3827   -2.7147 H   0  0  0  0  0  0  0  0  0  0  0  0
  -14.5797   24.5715   -2.7889 H   0  0  0  0  0  0  0  0  0  0  0  0
  -16.4407   24.1008   -1.7160 H   0  0  0  0  0  0  0  0  0  0  0  0
  -16.1901   25.4433   -0.5203 H   0  0  0  0  0  0  0  0  0  0  0  0
  -16.3717   27.6597   -1.3732 H   0  0  0  0  0  0  0  0  0  0  0  0
  -15.7841   27.2225   -3.0308 H   0  0  0  0  0  0  0  0  0  0  0  0
  -17.3389   29.1133   -3.1409 H   0  0  0  0  0  0  0  0  0  0  0  0
  -18.0399   27.6624   -3.9339 H   0  0  0  0  0  0  0  0  0  0  0  0
  -19.6135   29.2193   -3.4534 H   0  0  0  0  0  0  0  0  0  0  0  0
  -20.6460   28.7334   -2.0217 H   0  0  0  0  0  0  0  0  0  0  0  0
  -20.3635   30.5888   -1.4517 H   0  0  0  0  0  0  0  0  0  0  0  0
  -18.7117   29.9262   -0.9702 H   0  0  0  0  0  0  0  0  0  0  0  0
  -17.6181   31.1144   -2.4943 H   0  0  0  0  0  0  0  0  0  0  0  0
  -18.9835   31.0313   -3.6910 H   0  0  0  0  0  0  0  0  0  0  0  0
  -19.1364   32.6630   -1.2722 H   0  0  0  0  0  0  0  0  0  0  0  0
  -18.4288   33.2338   -2.6873 H   0  0  0  0  0  0  0  0  0  0  0  0
  -20.3119   26.8122   -1.3599 H   0  0  0  0  0  0  0  0  0  0  0  0
  -19.7154   26.4896   -3.0289 H   0  0  0  0  0  0  0  0  0  0  0  0
  -18.7926   24.8102   -1.5287 H   0  0  0  0  0  0  0  0  0  0  0  0
  -18.1854   26.1348   -0.4192 H   0  0  0  0  0  0  0  0  0  0  0  0
   -9.6397   18.0973    2.7402 H   0  0  0  0  0  0  0  0  0  0  0  0
  -11.8581   16.8011    2.9461 H   0  0  0  0  0  0  0  0  0  0  0  0
  -12.1366   18.8858    4.3114 H   0  0  0  0  0  0  0  0  0  0  0  0
  -10.7777   17.7835    5.9630 H   0  0  0  0  0  0  0  0  0  0  0  0
  -10.7253   20.2302    5.7318 H   0  0  0  0  0  0  0  0  0  0  0  0
   -8.7108   19.6284    5.8217 H   0  0  0  0  0  0  0  0  0  0  0  0
  -11.7068   21.3469    3.9071 H   0  0  0  0  0  0  0  0  0  0  0  0
  -10.0532   22.6212    5.2564 H   0  0  0  0  0  0  0  0  0  0  0  0
   -8.7890   22.2094    4.0388 H   0  0  0  0  0  0  0  0  0  0  0  0
  -10.5636   24.2365    3.9683 H   0  0  0  0  0  0  0  0  0  0  0  0
  1  2  1  0
  1 28  1  0
  1 37  1  0
  2  3  1  0
  3  4  2  0
  3 11  1  0
  4  5  1  0
  5  6  1  0
  5  9  2  0
  6  7  1  0
  6  8  2  0
  9 10  1  0
 10 11  2  0
 10 12  1  0
 12 13  1  0
 12 27  2  0
 13 14  1  0
 14 15  1  0
 15 16  1  0
 16 17  1  0
 17 18  1  0
 17 26  1  0
 18 19  1  0
 19 20  1  0
 20 21  1  0
 20 25  1  0
 21 22  1  0
 22 23  1  0
 23 24  1  0
 25 26  1  0
 28 29  1  0
 28 30  1  0
 30 31  1  0
 30 32  1  0
 32 33  1  0
 32 34  1  0
 34 35  1  0
 34 37  1  0
 35 36  1  0
  1 38  1  0
  4 39  1  0
  9 40  1  0
 11 41  1  0
 13 42  1  0
 14 43  1  0
 14 44  1  0
 15 45  1  0
 15 46  1  0
 16 47  1  0
 16 48  1  0
 18 49  1  0
 18 50  1  0
 19 51  1  0
 19 52  1  0
 21 53  1  0
 21 54  1  0
 22 55  1  0
 22 56  1  0
 23 57  1  0
 23 58  1  0
 24 59  1  0
 24 60  1  0
 25 61  1  0
 25 62  1  0
 26 63  1  0
 26 64  1  0
 28 65  1  0
 29 66  1  0
 30 67  1  0
 31 68  1  0
 32 69  1  0
 33 70  1  0
 34 71  1  0
 35 72  1  0
 35 73  1  0
 36 74  1  0
M  CHG  2   6   1   7  -1
A    1
C1
A    2
O1
A    3
C7
A    4
C8
A    5
C9
A    6
N14
A    7
O15
A    8
O16
A    9
C10
A   10
C11
A   11
C12
A   12
C13
A   13
N18
A   14
C19
A   15
C20
A   16
C21
A   17
N22
A   18
C23
A   19
C24
A   20
N25
A   21
C28
A   22
C35
A   23
C36
A   24
N37
A   25
C26
A   26
C27
A   27
O17
A   28
C2
A   29
O2
A   30
C3
A   31
O3
A   32
C4
A   33
O4
A   34
C5
A   35
C6
A   36
O6
A   37
O5
M  END
