1PZJ_J15_E_105
     RDKit          3D

 74 76  0  0  0  0  0  0  0  0999 V2000
  -18.6770   48.3390   -1.5180 C   0  0  0  0  0  0  0  0  0  0  0  0
  -19.0170   49.6640   -1.2550 O   0  0  0  0  0  0  0  0  0  0  0  0
  -18.0210   50.6070   -1.4600 C   0  0  0  0  0  0  0  0  0  0  0  0
  -17.1260   50.8960   -0.4420 C   0  0  0  0  0  0  0  0  0  0  0  0
  -16.1300   51.8460   -0.5880 C   0  0  0  0  0  0  0  0  0  0  0  0
  -15.2480   52.0400    0.4820 N   0  0  0  0  0  0  0  0  0  0  0  0
  -15.3170   51.3610    1.5470 O   0  0  0  0  0  0  0  0  0  0  0  0
  -14.3810   52.8870    0.2940 O   0  0  0  0  0  0  0  0  0  0  0  0
  -16.0010   52.5260   -1.7940 C   0  0  0  0  0  0  0  0  0  0  0  0
  -16.9060   52.2570   -2.8350 C   0  0  0  0  0  0  0  0  0  0  0  0
  -17.9080   51.2960   -2.6560 C   0  0  0  0  0  0  0  0  0  0  0  0
  -16.8950   52.8900   -4.1040 C   0  0  0  0  0  0  0  0  0  0  0  0
  -16.0560   53.8460   -4.5270 N   0  0  0  0  0  0  0  0  0  0  0  0
  -15.0170   54.5060   -3.7470 C   0  0  0  0  0  0  0  0  0  0  0  0
  -14.5800   55.8030   -4.4350 C   0  0  0  0  0  0  0  0  0  0  0  0
  -15.3200   57.0060   -3.8770 C   0  0  0  0  0  0  0  0  0  0  0  0
  -15.5300   56.9960   -2.6260 N   0  0  0  0  0  0  0  0  0  0  0  0
  -16.4570   58.0350   -2.2080 C   0  0  0  0  0  0  0  0  0  0  0  0
  -16.8580   57.7820   -0.7560 C   0  0  0  0  0  0  0  0  0  0  0  0
  -15.7300   57.6960    0.1770 N   0  0  0  0  0  0  0  0  0  0  0  0
  -15.4450   58.7610    0.8160 C   0  0  0  0  0  0  0  0  0  0  0  0
  -14.8600   58.4700    1.9950 C   0  0  0  0  0  0  0  0  0  0  0  0
  -13.8020   59.4870    2.3850 C   0  0  0  0  0  0  0  0  0  0  0  0
  -12.7550   59.5990    1.3800 N   0  0  0  0  0  0  0  0  0  0  0  0
  -14.5500   56.9760   -0.3380 C   0  0  0  0  0  0  0  0  0  0  0  0
  -14.3200   57.1380   -1.8380 C   0  0  0  0  0  0  0  0  0  0  0  0
  -17.7740   52.5290   -4.8650 O   0  0  0  0  0  0  0  0  0  0  0  0
  -19.8700   47.4180   -1.5560 C   0  0  0  0  0  0  0  0  0  0  0  0
  -20.9800   47.9830   -2.2300 O   0  0  0  0  0  0  0  0  0  0  0  0
  -20.2270   47.1540   -0.0900 C   0  0  0  0  0  0  0  0  0  0  0  0
  -21.2390   46.1590    0.0430 O   0  0  0  0  0  0  0  0  0  0  0  0
  -18.9960   46.7360    0.7120 C   0  0  0  0  0  0  0  0  0  0  0  0
  -18.6000   45.4110    0.3170 O   0  0  0  0  0  0  0  0  0  0  0  0
  -17.8600   47.7280    0.4890 C   0  0  0  0  0  0  0  0  0  0  0  0
  -16.6080   47.2620    1.1990 C   0  0  0  0  0  0  0  0  0  0  0  0
  -15.6100   48.2500    1.0890 O   0  0  0  0  0  0  0  0  0  0  0  0
  -17.5290   47.8220   -0.8900 O   0  0  0  0  0  0  0  0  0  0  0  0
  -18.3049   48.3850   -2.5521 H   0  0  0  0  0  0  0  0  0  0  0  0
  -17.2098   50.3537    0.5114 H   0  0  0  0  0  0  0  0  0  0  0  0
  -15.1993   53.2665   -1.9318 H   0  0  0  0  0  0  0  0  0  0  0  0
  -18.6130   51.0859   -3.4738 H   0  0  0  0  0  0  0  0  0  0  0  0
  -16.1563   54.1459   -5.5073 H   0  0  0  0  0  0  0  0  0  0  0  0
  -15.4081   54.7401   -2.7459 H   0  0  0  0  0  0  0  0  0  0  0  0
  -14.1497   53.8344   -3.6648 H   0  0  0  0  0  0  0  0  0  0  0  0
  -13.5002   55.9439   -4.2793 H   0  0  0  0  0  0  0  0  0  0  0  0
  -14.8138   55.7208   -5.5067 H   0  0  0  0  0  0  0  0  0  0  0  0
  -14.7297   57.9038   -4.1125 H   0  0  0  0  0  0  0  0  0  0  0  0
  -16.3148   56.9873   -4.3460 H   0  0  0  0  0  0  0  0  0  0  0  0
  -15.9719   59.0187   -2.2915 H   0  0  0  0  0  0  0  0  0  0  0  0
  -17.3498   58.0197   -2.8503 H   0  0  0  0  0  0  0  0  0  0  0  0
  -17.5115   58.6050   -0.4310 H   0  0  0  0  0  0  0  0  0  0  0  0
  -17.3591   56.8030   -0.7344 H   0  0  0  0  0  0  0  0  0  0  0  0
  -14.7562   59.3703    0.2124 H   0  0  0  0  0  0  0  0  0  0  0  0
  -16.3753   59.3146    1.0112 H   0  0  0  0  0  0  0  0  0  0  0  0
  -15.6335   58.4479    2.7768 H   0  0  0  0  0  0  0  0  0  0  0  0
  -14.3634   57.4941    1.8902 H   0  0  0  0  0  0  0  0  0  0  0  0
  -14.2820   60.4690    2.5084 H   0  0  0  0  0  0  0  0  0  0  0  0
  -13.3370   59.1500    3.3232 H   0  0  0  0  0  0  0  0  0  0  0  0
  -11.8414   59.6967    1.8454 H   0  0  0  0  0  0  0  0  0  0  0  0
  -12.7519   58.7535    0.7917 H   0  0  0  0  0  0  0  0  0  0  0  0
  -13.6605   57.3511    0.1893 H   0  0  0  0  0  0  0  0  0  0  0  0
  -14.7325   55.9057   -0.1613 H   0  0  0  0  0  0  0  0  0  0  0  0
  -13.5996   56.3736   -2.1647 H   0  0  0  0  0  0  0  0  0  0  0  0
  -13.9453   58.1594   -2.0002 H   0  0  0  0  0  0  0  0  0  0  0  0
  -19.6230   46.5007   -2.1106 H   0  0  0  0  0  0  0  0  0  0  0  0
  -21.6345   48.3162   -1.5662 H   0  0  0  0  0  0  0  0  0  0  0  0
  -20.6168   48.1011    0.3113 H   0  0  0  0  0  0  0  0  0  0  0  0
  -21.4112   45.9897    1.0031 H   0  0  0  0  0  0  0  0  0  0  0  0
  -19.2393   46.7325    1.7847 H   0  0  0  0  0  0  0  0  0  0  0  0
  -18.4357   44.8614    1.1239 H   0  0  0  0  0  0  0  0  0  0  0  0
  -18.2031   48.6992    0.8749 H   0  0  0  0  0  0  0  0  0  0  0  0
  -16.8332   47.0851    2.2611 H   0  0  0  0  0  0  0  0  0  0  0  0
  -16.2518   46.3285    0.7390 H   0  0  0  0  0  0  0  0  0  0  0  0
  -15.3244   48.5327    1.9938 H   0  0  0  0  0  0  0  0  0  0  0  0
  1  2  1  0
  1 28  1  0
  1 37  1  0
  2  3  1  0
  3  4  2  0
  3 11  1  0
  4  5  1  0
  5  6  1  0
  5  9  2  0
  6  7  1  0
  6  8  2  0
  9 10  1  0
 10 11  2  0
 10 12  1  0
 12 13  1  0
 12 27  2  0
 13 14  1  0
 14 15  1  0
 15 16  1  0
 16 17  1  0
 17 18  1  0
 17 26  1  0
 18 19  1  0
 19 20  1  0
 20 21  1  0
 20 25  1  0
 21 22  1  0
 22 23  1  0
 23 24  1  0
 25 26  1  0
 28 29  1  0
 28 30  1  0
 30 31  1  0
 30 32  1  0
 32 33  1  0
 32 34  1  0
 34 35  1  0
 34 37  1  0
 35 36  1  0
  1 38  1  0
  4 39  1  0
  9 40  1  0
 11 41  1  0
 13 42  1  0
 14 43  1  0
 14 44  1  0
 15 45  1  0
 15 46  1  0
 16 47  1  0
 16 48  1  0
 18 49  1  0
 18 50  1  0
 19 51  1  0
 19 52  1  0
 21 53  1  0
 21 54  1  0
 22 55  1  0
 22 56  1  0
 23 57  1  0
 23 58  1  0
 24 59  1  0
 24 60  1  0
 25 61  1  0
 25 62  1  0
 26 63  1  0
 26 64  1  0
 28 65  1  0
 29 66  1  0
 30 67  1  0
 31 68  1  0
 32 69  1  0
 33 70  1  0
 34 71  1  0
 35 72  1  0
 35 73  1  0
 36 74  1  0
M  CHG  2   6   1   7  -1
A    1
C1
A    2
O1
A    3
C7
A    4
C8
A    5
C9
A    6
N14
A    7
O15
A    8
O16
A    9
C10
A   10
C11
A   11
C12
A   12
C13
A   13
N18
A   14
C19
A   15
C20
A   16
C21
A   17
N22
A   18
C23
A   19
C24
A   20
N25
A   21
C28
A   22
C35
A   23
C36
A   24
N37
A   25
C26
A   26
C27
A   27
O17
A   28
C2
A   29
O2
A   30
C3
A   31
O3
A   32
C4
A   33
O4
A   34
C5
A   35
C6
A   36
O6
A   37
O5
M  END
