1PZO_CBT_A_300
     RDKit          3D

 35 37  0  0  0  0  0  0  0  0999 V2000
    9.1350    8.4530   25.2140 Cl  0  0  0  0  0  0  0  0  0  0  0  0
    8.8000    9.4700   26.2660 C   0  0  0  0  0  0  0  0  0  0  0  0
    9.6450    9.6520   27.3900 C   0  0  0  0  0  0  0  0  0  0  0  0
    9.3940   10.7350   28.2740 C   0  0  0  0  0  0  0  0  0  0  0  0
    7.6900   10.3120   26.0430 C   0  0  0  0  0  0  0  0  0  0  0  0
    7.4660   11.3690   26.9360 C   0  0  0  0  0  0  0  0  0  0  0  0
    8.2870   11.5950   28.0490 C   0  0  0  0  0  0  0  0  0  0  0  0
    7.8910   12.6850   29.0640 C   0  0  0  0  0  0  0  0  0  0  0  0
    9.0410   13.1520   29.8690 N   0  0  0  0  0  0  0  0  0  0  0  0
    9.3430   12.5810   31.0400 C   0  0  0  0  0  0  0  0  0  0  0  0
   10.2850   13.0250   31.8840 N   0  0  0  0  0  0  0  0  0  0  0  0
   10.1760   12.2960   33.0710 N   0  0  0  0  0  0  0  0  0  0  0  0
    9.1100   11.3920   32.9230 N   0  0  0  0  0  0  0  0  0  0  0  0
    8.6300   11.6160   31.6310 N   0  0  0  0  0  0  0  0  0  0  0  0
    9.8450   14.2850   29.3500 C   0  0  0  0  0  0  0  0  0  0  0  0
    9.0720   15.6100   29.3930 C   0  0  0  0  0  0  0  0  0  0  0  0
    8.0720   15.8560   30.3550 C   0  0  0  0  0  0  0  0  0  0  0  0
    7.4740   17.1340   30.4050 C   0  0  0  0  0  0  0  0  0  0  0  0
    7.8170   18.1780   29.5270 C   0  0  0  0  0  0  0  0  0  0  0  0
    7.1960   19.5650   29.6790 Cl  0  0  0  0  0  0  0  0  0  0  0  0
    8.7760   17.9170   28.5480 C   0  0  0  0  0  0  0  0  0  0  0  0
    9.3960   16.6410   28.4970 C   0  0  0  0  0  0  0  0  0  0  0  0
   10.4832    8.9641   27.5748 H   0  0  0  0  0  0  0  0  0  0  0  0
   10.0580   10.9076   29.1338 H   0  0  0  0  0  0  0  0  0  0  0  0
    7.0170   10.1431   25.1894 H   0  0  0  0  0  0  0  0  0  0  0  0
    6.6164   12.0444   26.7570 H   0  0  0  0  0  0  0  0  0  0  0  0
    7.4722   13.5421   28.5163 H   0  0  0  0  0  0  0  0  0  0  0  0
    7.1543   12.2481   29.7543 H   0  0  0  0  0  0  0  0  0  0  0  0
   10.7706   12.4021   33.9053 H   0  0  0  0  0  0  0  0  0  0  0  0
   10.7536   14.3846   29.9620 H   0  0  0  0  0  0  0  0  0  0  0  0
   10.0921   14.0714   28.2996 H   0  0  0  0  0  0  0  0  0  0  0  0
    7.7626   15.0658   31.0550 H   0  0  0  0  0  0  0  0  0  0  0  0
    6.7032   17.3222   31.1668 H   0  0  0  0  0  0  0  0  0  0  0  0
    9.0500   18.6950   27.8202 H   0  0  0  0  0  0  0  0  0  0  0  0
   10.1586   16.4531   27.7268 H   0  0  0  0  0  0  0  0  0  0  0  0
  1  2  1  0
  2  3  2  0
  2  5  1  0
  3  4  1  0
  4  7  2  0
  5  6  2  0
  6  7  1  0
  7  8  1  0
  8  9  1  0
  9 10  1  0
  9 15  1  0
 10 11  2  0
 10 14  1  0
 11 12  1  0
 12 13  1  0
 13 14  2  0
 15 16  1  0
 16 17  2  0
 16 22  1  0
 17 18  1  0
 18 19  2  0
 19 20  1  0
 19 21  1  0
 21 22  2  0
  3 23  1  0
  4 24  1  0
  5 25  1  0
  6 26  1  0
  8 27  1  0
  8 28  1  0
 12 29  1  0
 15 30  1  0
 15 31  1  0
 17 32  1  0
 18 33  1  0
 21 34  1  0
 22 35  1  0
A    1
CL3
A    2
C29
A    3
C28
A    4
C26
A    5
C27
A    6
C25
A    7
C22
A    8
C17
A    9
N13
A   10
C16
A   11
N18
A   12
N20
A   13
N21
A   14
N19
A   15
C1
A   16
C2
A   17
C3
A   18
C5
A   19
C7
A   20
CL8
A   21
C6
A   22
C4
M  END
