1Q0R_AKT_A_600
     RDKit          3D

 70 74  0  0  0  0  0  0  0  0999 V2000
    8.8320   17.9720   11.2140 O   0  0  0  0  0  0  0  0  0  0  0  0
    9.7530   17.4840   10.5130 C   0  0  0  0  0  0  0  0  0  0  0  0
   10.6960   18.3550    9.9390 C   0  0  0  0  0  0  0  0  0  0  0  0
   10.6040   19.7380   10.1620 C   0  0  0  0  0  0  0  0  0  0  0  0
   11.5400   20.6070    9.6040 C   0  0  0  0  0  0  0  0  0  0  0  0
   12.5720   20.1230    8.8150 C   0  0  0  0  0  0  0  0  0  0  0  0
   11.7490   17.8840    9.1450 C   0  0  0  0  0  0  0  0  0  0  0  0
   12.6720   18.7560    8.5840 C   0  0  0  0  0  0  0  0  0  0  0  0
   13.6610   18.2810    7.8300 O   0  0  0  0  0  0  0  0  0  0  0  0
   11.8770   16.4300    8.8700 C   0  0  0  0  0  0  0  0  0  0  0  0
   12.7580   16.0000    8.0900 O   0  0  0  0  0  0  0  0  0  0  0  0
    9.8070   16.0920   10.3170 C   0  0  0  0  0  0  0  0  0  0  0  0
   10.8890   15.5140    9.4840 C   0  0  0  0  0  0  0  0  0  0  0  0
   10.9600   14.1450    9.2760 C   0  0  0  0  0  0  0  0  0  0  0  0
   11.9520   13.7060    8.5070 O   0  0  0  0  0  0  0  0  0  0  0  0
    8.8860   15.1920   10.8720 C   0  0  0  0  0  0  0  0  0  0  0  0
    8.9830   13.8080   10.6300 C   0  0  0  0  0  0  0  0  0  0  0  0
    8.0350   12.8460   11.3340 C   0  0  0  0  0  0  0  0  0  0  0  0
   10.0090   13.2930    9.8420 C   0  0  0  0  0  0  0  0  0  0  0  0
   10.1270   11.8230    9.7160 C   0  0  0  0  0  0  0  0  0  0  0  0
    9.4170   11.0510   10.8370 C   0  0  0  0  0  0  0  0  0  0  0  0
    9.0110   11.9170   12.0500 C   0  0  0  0  0  0  0  0  0  0  0  0
   10.1590   12.5340   12.6470 O   0  0  0  0  0  0  0  0  0  0  0  0
    8.3240   10.9530   13.0250 C   0  0  0  0  0  0  0  0  0  0  0  0
    9.2570    9.9010   13.6090 C   0  0  0  0  0  0  0  0  0  0  0  0
   11.4780   11.5970   10.1350 O   0  0  0  0  0  0  0  0  0  0  0  0
   12.0780   10.3030    9.9600 C   0  0  0  0  0  0  0  0  0  0  0  0
   13.2610   10.4380    9.0150 C   0  0  0  0  0  0  0  0  0  0  0  0
   14.2760   11.3790    9.6520 C   0  0  0  0  0  0  0  0  0  0  0  0
   15.2940   11.6350    8.6210 N   0  0  0  0  0  0  0  0  0  0  0  0
   16.0590   10.7270    8.1720 C   0  0  0  0  0  0  0  0  0  0  0  0
   15.3470   12.7990    8.1110 C   0  0  0  0  0  0  0  0  0  0  0  0
   14.7870   10.7320   10.9440 C   0  0  0  0  0  0  0  0  0  0  0  0
   15.3970    9.4650   10.7040 O   0  0  0  0  0  0  0  0  0  0  0  0
   13.5790   10.5600   11.8720 C   0  0  0  0  0  0  0  0  0  0  0  0
   12.5390    9.8010   11.2310 O   0  0  0  0  0  0  0  0  0  0  0  0
   13.9530    9.8840   13.1950 C   0  0  0  0  0  0  0  0  0  0  0  0
    9.7878   20.1385   10.7812 H   0  0  0  0  0  0  0  0  0  0  0  0
   11.4590   21.6879    9.7916 H   0  0  0  0  0  0  0  0  0  0  0  0
   13.3055   20.8149    8.3755 H   0  0  0  0  0  0  0  0  0  0  0  0
   14.4665   17.8941    8.2562 H   0  0  0  0  0  0  0  0  0  0  0  0
   12.7747   13.3419    8.9202 H   0  0  0  0  0  0  0  0  0  0  0  0
    8.0734   15.5737   11.5076 H   0  0  0  0  0  0  0  0  0  0  0  0
    7.3863   13.3737   12.0487 H   0  0  0  0  0  0  0  0  0  0  0  0
    7.3411   12.3274   10.6562 H   0  0  0  0  0  0  0  0  0  0  0  0
    9.7667   11.5242    8.7205 H   0  0  0  0  0  0  0  0  0  0  0  0
    8.5068   10.5965   10.4187 H   0  0  0  0  0  0  0  0  0  0  0  0
   10.1359   10.3063   11.2094 H   0  0  0  0  0  0  0  0  0  0  0  0
   10.0809   12.4920   13.6330 H   0  0  0  0  0  0  0  0  0  0  0  0
    7.9017   11.5404   13.8536 H   0  0  0  0  0  0  0  0  0  0  0  0
    7.5527   10.4155   12.4539 H   0  0  0  0  0  0  0  0  0  0  0  0
    9.2177    9.9453   14.7074 H   0  0  0  0  0  0  0  0  0  0  0  0
    8.9417    8.9029   13.2708 H   0  0  0  0  0  0  0  0  0  0  0  0
   10.2856   10.0948   13.2708 H   0  0  0  0  0  0  0  0  0  0  0  0
   11.3368    9.6045    9.5445 H   0  0  0  0  0  0  0  0  0  0  0  0
   13.7200    9.4520    8.8501 H   0  0  0  0  0  0  0  0  0  0  0  0
   12.9286   10.8383    8.0458 H   0  0  0  0  0  0  0  0  0  0  0  0
   13.8717   12.3537    9.9625 H   0  0  0  0  0  0  0  0  0  0  0  0
   16.5163   10.1842    9.0123 H   0  0  0  0  0  0  0  0  0  0  0  0
   15.4749   10.0263    7.5573 H   0  0  0  0  0  0  0  0  0  0  0  0
   16.8487   11.1837    7.5573 H   0  0  0  0  0  0  0  0  0  0  0  0
   15.3812   13.5500    8.9141 H   0  0  0  0  0  0  0  0  0  0  0  0
   16.2500   12.8860    7.4889 H   0  0  0  0  0  0  0  0  0  0  0  0
   14.4556   12.9677    7.4889 H   0  0  0  0  0  0  0  0  0  0  0  0
   15.5578   11.3744   11.3949 H   0  0  0  0  0  0  0  0  0  0  0  0
   15.6062    9.0304   11.5686 H   0  0  0  0  0  0  0  0  0  0  0  0
   13.2134   11.5735   12.0938 H   0  0  0  0  0  0  0  0  0  0  0  0
   13.6090   10.5059   14.0346 H   0  0  0  0  0  0  0  0  0  0  0  0
   13.4734    8.8956   13.2502 H   0  0  0  0  0  0  0  0  0  0  0  0
   15.0452    9.7652   13.2502 H   0  0  0  0  0  0  0  0  0  0  0  0
  1  2  2  0
  2  3  1  0
  2 12  1  0
  3  4  1  0
  3  7  2  0
  4  5  2  0
  5  6  1  0
  6  8  2  0
  7  8  1  0
  7 10  1  0
  8  9  1  0
 10 11  2  0
 10 13  1  0
 12 13  2  0
 12 16  1  0
 13 14  1  0
 14 15  1  0
 14 19  2  0
 16 17  2  0
 17 18  1  0
 17 19  1  0
 18 22  1  0
 19 20  1  0
 20 21  1  0
 20 26  1  0
 21 22  1  0
 22 23  1  0
 22 24  1  0
 24 25  1  0
 26 27  1  0
 27 28  1  0
 27 36  1  0
 28 29  1  0
 29 30  1  0
 29 33  1  0
 30 31  1  0
 30 32  1  0
 33 34  1  0
 33 35  1  0
 35 36  1  0
 35 37  1  0
  4 38  1  0
  5 39  1  0
  6 40  1  0
  9 41  1  0
 15 42  1  0
 16 43  1  0
 18 44  1  0
 18 45  1  0
 20 46  1  0
 21 47  1  0
 21 48  1  0
 23 49  1  0
 24 50  1  0
 24 51  1  0
 25 52  1  0
 25 53  1  0
 25 54  1  0
 27 55  1  0
 28 56  1  0
 28 57  1  0
 29 58  1  0
 31 59  1  0
 31 60  1  0
 31 61  1  0
 32 62  1  0
 32 63  1  0
 32 64  1  0
 33 65  1  0
 34 66  1  0
 35 67  1  0
 37 68  1  0
 37 69  1  0
 37 70  1  0
A    1
O12
A    2
C12
A    3
C15
A    4
C1
A    5
C2
A    6
C3
A    7
C16
A    8
C4
A    9
O4
A   10
C5
A   11
O5
A   12
C18
A   13
C17
A   14
C6
A   15
O6
A   16
C11
A   17
C19
A   18
C10
A   19
C20
A   20
C7
A   21
C8
A   22
C9
A   23
O9
A   24
C13
A   25
C14
A   26
O7
A   27
C1'
A   28
C2'
A   29
C3'
A   30
N3'
A   31
C8'
A   32
C7'
A   33
C4'
A   34
O4'
A   35
C5'
A   36
O5'
A   37
C6'
M  END
