1H3E_TYE_A_1434
     RDKit          3D

 25 25  0  0  0  0  0  0  0  0999 V2000
  134.9960   47.0510   53.4600 C   0  0  0  0  0  0  0  0  0  0  0  0
  137.1520   46.6650   54.5580 N   0  0  0  0  0  0  0  0  0  0  0  0
  135.4430   47.4140   52.3490 O   0  0  0  0  0  0  0  0  0  0  0  0
  135.8440   47.3710   54.6840 C   0  0  0  0  0  0  0  0  0  0  0  0
  136.0570   48.8810   54.7610 C   0  0  0  0  0  0  0  0  0  0  0  0
  137.0900   49.3130   55.7720 C   0  0  0  0  0  0  0  0  0  0  0  0
  139.9630   50.4780   58.5710 O   0  0  0  0  0  0  0  0  0  0  0  0
  139.0110   50.1060   57.6450 C   0  0  0  0  0  0  0  0  0  0  0  0
  136.8900   49.1040   57.1310 C   0  0  0  0  0  0  0  0  0  0  0  0
  138.2720   49.9300   55.3680 C   0  0  0  0  0  0  0  0  0  0  0  0
  137.8450   49.4990   58.0700 C   0  0  0  0  0  0  0  0  0  0  0  0
  139.2300   50.3250   56.2950 C   0  0  0  0  0  0  0  0  0  0  0  0
  134.0177   47.5346   53.5983 H   0  0  0  0  0  0  0  0  0  0  0  0
  134.9672   45.9524   53.4115 H   0  0  0  0  0  0  0  0  0  0  0  0
  137.5252   46.4635   55.4966 H   0  0  0  0  0  0  0  0  0  0  0  0
  137.0175   45.7819   54.0452 H   0  0  0  0  0  0  0  0  0  0  0  0
  136.2042   48.0321   52.4855 H   0  0  0  0  0  0  0  0  0  0  0  0
  135.3401   47.0359   55.6026 H   0  0  0  0  0  0  0  0  0  0  0  0
  136.3767   49.2345   53.7696 H   0  0  0  0  0  0  0  0  0  0  0  0
  135.1001   49.3174   55.0833 H   0  0  0  0  0  0  0  0  0  0  0  0
  139.7685   50.4020   59.5387 H   0  0  0  0  0  0  0  0  0  0  0  0
  135.9637   48.6192   57.4729 H   0  0  0  0  0  0  0  0  0  0  0  0
  138.4504   50.1077   54.2972 H   0  0  0  0  0  0  0  0  0  0  0  0
  137.6699   49.3278   59.1424 H   0  0  0  0  0  0  0  0  0  0  0  0
  140.1581   50.8095   55.9576 H   0  0  0  0  0  0  0  0  0  0  0  0
  3  1  1  0
  4  1  1  0
  2  4  1  0
  4  5  1  0
  5  6  1  0
  9  6  2  0
  6 10  1  0
  8  7  1  0
 11  8  2  0
  8 12  1  0
  9 11  1  0
 10 12  2  0
  1 13  1  0
  1 14  1  0
  2 15  1  0
  2 16  1  0
  3 17  1  0
  4 18  1  0
  5 19  1  0
  5 20  1  0
  7 21  1  0
  9 22  1  0
 10 23  1  0
 11 24  1  0
 12 25  1  0
A    1
C
A    2
N
A    3
O
A    4
CA
A    5
CB
A    6
CG
A    7
OH
A    8
CZ
A    9
CD1
A   10
CD2
A   11
CE1
A   12
CE2
M  END
