1Q3W_ATU_A_502
     RDKit          3D

 33 36  0  0  0  0  0  0  0  0999 V2000
   40.6340    5.2080   37.1280 N   0  0  0  0  0  0  0  0  0  0  0  0
   40.4870    6.5560   37.0210 C   0  0  0  0  0  0  0  0  0  0  0  0
   40.2770    7.2180   35.6730 C   0  0  0  0  0  0  0  0  0  0  0  0
   40.5150    7.2740   38.0100 O   0  0  0  0  0  0  0  0  0  0  0  0
   39.8940    4.0990   35.0500 C   0  0  0  0  0  0  0  0  0  0  0  0
   40.5610    4.1410   36.3340 C   0  0  0  0  0  0  0  0  0  0  0  0
   41.3660    3.0270   36.7450 C   0  0  0  0  0  0  0  0  0  0  0  0
   41.5210    1.8700   35.9070 C   0  0  0  0  0  0  0  0  0  0  0  0
   40.8590    1.8250   34.6300 C   0  0  0  0  0  0  0  0  0  0  0  0
   40.0500    2.9400   34.2090 C   0  0  0  0  0  0  0  0  0  0  0  0
   37.9300    5.1000   33.7980 N   0  0  0  0  0  0  0  0  0  0  0  0
   39.2640    6.5810   34.7350 C   0  0  0  0  0  0  0  0  0  0  0  0
   39.0820    5.1480   34.5770 C   0  0  0  0  0  0  0  0  0  0  0  0
   38.1980    7.3610   34.1230 C   0  0  0  0  0  0  0  0  0  0  0  0
   37.2980    6.3180   33.4860 C   0  0  0  0  0  0  0  0  0  0  0  0
   36.1190    6.7440   32.7810 C   0  0  0  0  0  0  0  0  0  0  0  0
   35.8150    8.1340   32.6910 C   0  0  0  0  0  0  0  0  0  0  0  0
   36.6850    9.1350   33.3040 C   0  0  0  0  0  0  0  0  0  0  0  0
   37.8620    8.7280   34.0090 C   0  0  0  0  0  0  0  0  0  0  0  0
   36.3660   10.5820   33.2070 N   0  0  0  0  0  0  0  0  0  0  0  0
   35.3930   10.9730   32.6310 O   0  0  0  0  0  0  0  0  0  0  0  0
   37.0720   11.4110   33.7010 O   0  0  0  0  0  0  0  0  0  0  0  0
   40.8671    4.9361   38.0937 H   0  0  0  0  0  0  0  0  0  0  0  0
   39.9506    8.2517   35.8595 H   0  0  0  0  0  0  0  0  0  0  0  0
   41.2428    7.1193   35.1557 H   0  0  0  0  0  0  0  0  0  0  0  0
   41.8742    3.0591   37.7200 H   0  0  0  0  0  0  0  0  0  0  0  0
   42.1414    1.0246   36.2393 H   0  0  0  0  0  0  0  0  0  0  0  0
   40.9701    0.9449   33.9796 H   0  0  0  0  0  0  0  0  0  0  0  0
   39.5447    2.9059   33.2325 H   0  0  0  0  0  0  0  0  0  0  0  0
   37.5525    4.2029   33.4610 H   0  0  0  0  0  0  0  0  0  0  0  0
   35.4555    6.0014   32.3138 H   0  0  0  0  0  0  0  0  0  0  0  0
   34.9122    8.4576   32.1522 H   0  0  0  0  0  0  0  0  0  0  0  0
   38.5120    9.4881   34.4670 H   0  0  0  0  0  0  0  0  0  0  0  0
  1  2  1  0
  1  6  1  0
  2  3  1  0
  2  4  2  0
  3 12  1  0
  5  6  2  0
  5 10  1  0
  5 13  1  0
  6  7  1  0
  7  8  2  0
  8  9  1  0
  9 10  2  0
 11 13  1  0
 11 15  1  0
 12 13  2  0
 12 14  1  0
 14 15  2  0
 14 19  1  0
 15 16  1  0
 16 17  2  0
 17 18  1  0
 18 19  2  0
 18 20  1  0
 20 21  2  0
 20 22  1  0
  1 23  1  0
  3 24  1  0
  3 25  1  0
  7 26  1  0
  8 27  1  0
  9 28  1  0
 10 29  1  0
 11 30  1  0
 16 31  1  0
 17 32  1  0
 19 33  1  0
M  CHG  2  20   1  22  -1
A    1
N1
A    2
C2
A    3
C3
A    4
O4
A    5
C5
A    6
C6
A    7
C7
A    8
C8
A    9
C9
A   10
C10
A   11
N11
A   12
C12
A   13
C13
A   14
C14
A   15
C15
A   16
C16
A   17
C17
A   18
C18
A   19
C19
A   20
N20
A   21
O21
A   22
O22
M  END
