1Q4W_DQU_A_900
     RDKit          3D

 21 22  0  0  0  0  0  0  0  0999 V2000
   18.6410   17.3940   19.0900 C   0  0  0  0  0  0  0  0  0  0  0  0
   19.6860   17.6400   18.0540 N   0  0  0  0  0  0  0  0  0  0  0  0
   17.3550   16.9100   18.7030 C   0  0  0  0  0  0  0  0  0  0  0  0
   16.3530   16.6710   19.6710 C   0  0  0  0  0  0  0  0  0  0  0  0
   16.6130   16.9090   21.0600 C   0  0  0  0  0  0  0  0  0  0  0  0
   15.6060   16.6680   21.9970 N   0  0  0  0  0  0  0  0  0  0  0  0
   15.8180   16.8800   23.2760 C   0  0  0  0  0  0  0  0  0  0  0  0
   14.8440   16.6520   24.2460 N   0  0  0  0  0  0  0  0  0  0  0  0
   17.0830   17.3690   23.7750 N   0  0  0  0  0  0  0  0  0  0  0  0
   18.1780   17.6440   22.8740 C   0  0  0  0  0  0  0  0  0  0  0  0
   19.2450   18.0620   23.3400 O   0  0  0  0  0  0  0  0  0  0  0  0
   17.9170   17.4020   21.4480 C   0  0  0  0  0  0  0  0  0  0  0  0
   18.9190   17.6360   20.4540 C   0  0  0  0  0  0  0  0  0  0  0  0
   20.6497   17.8669   18.3383 H   0  0  0  0  0  0  0  0  0  0  0  0
   19.4438   17.5830   17.0545 H   0  0  0  0  0  0  0  0  0  0  0  0
   17.1416   16.7211   17.6406 H   0  0  0  0  0  0  0  0  0  0  0  0
   15.3667   16.2997   19.3558 H   0  0  0  0  0  0  0  0  0  0  0  0
   15.0886   16.7093   25.2449 H   0  0  0  0  0  0  0  0  0  0  0  0
   13.8794   16.4262   23.9641 H   0  0  0  0  0  0  0  0  0  0  0  0
   19.3712   18.1115   24.3207 H   0  0  0  0  0  0  0  0  0  0  0  0
   19.9107   18.0061   20.7531 H   0  0  0  0  0  0  0  0  0  0  0  0
  1  2  1  0
  1  3  2  0
  1 13  1  0
  3  4  1  0
  4  5  2  0
  5  6  1  0
  5 12  1  0
  6  7  2  0
  7  8  1  0
  7  9  1  0
  9 10  2  0
 10 11  1  0
 10 12  1  0
 12 13  2  0
  2 14  1  0
  2 15  1  0
  3 16  1  0
  4 17  1  0
  8 18  1  0
  8 19  1  0
 11 20  1  0
 13 21  1  0
A    1
C6
A    2
N4
A    3
C1
A    4
C2
A    5
C3
A    6
N3
A    7
C8
A    8
N2
A    9
N1
A   10
C7
A   11
O1
A   12
C4
A   13
C5
M  END
