1Q5D_EPB_A_450
     RDKit          3D

 76 78  0  0  0  0  0  0  0  0999 V2000
    5.6940   36.7040   14.4020 O   0  0  0  0  0  0  0  0  0  0  0  0
    9.5650   39.1750   15.8580 C   0  0  0  0  0  0  0  0  0  0  0  0
    8.6170   38.5170   18.2830 O   0  0  0  0  0  0  0  0  0  0  0  0
    8.6570   39.1930   17.0330 C   0  0  0  0  0  0  0  0  0  0  0  0
    7.4930   38.1520   17.4730 C   0  0  0  0  0  0  0  0  0  0  0  0
    5.3080   37.8120   14.4630 C   0  0  0  0  0  0  0  0  0  0  0  0
    4.9930   38.5030   15.6230 O   0  0  0  0  0  0  0  0  0  0  0  0
    5.0660   37.8590   17.0260 C   0  0  0  0  0  0  0  0  0  0  0  0
    6.1860   38.6140   17.8460 C   0  0  0  0  0  0  0  0  0  0  0  0
    3.6080   38.1250   17.5810 C   0  0  0  0  0  0  0  0  0  0  0  0
    2.5790   37.2570   16.8730 C   0  0  0  0  0  0  0  0  0  0  0  0
    3.3380   39.0130   18.5810 C   0  0  0  0  0  0  0  0  0  0  0  0
    2.0900   39.4430   19.2130 C   0  0  0  0  0  0  0  0  0  0  0  0
    0.9430   39.5270   18.4430 N   0  0  0  0  0  0  0  0  0  0  0  0
   -0.1120   39.9620   19.1790 C   0  0  0  0  0  0  0  0  0  0  0  0
   -1.4350   40.0930   18.5310 C   0  0  0  0  0  0  0  0  0  0  0  0
    1.9220   39.8390   20.4860 C   0  0  0  0  0  0  0  0  0  0  0  0
    0.2960   40.2960   20.7660 S   0  0  0  0  0  0  0  0  0  0  0  0
    5.1050   38.6460   13.1720 C   0  0  0  0  0  0  0  0  0  0  0  0
    3.7640   39.5070   13.1110 C   0  0  0  0  0  0  0  0  0  0  0  0
    2.7530   38.5530   13.3900 O   0  0  0  0  0  0  0  0  0  0  0  0
    3.5290   40.3910   11.7640 C   0  0  0  0  0  0  0  0  0  0  0  0
    3.4150   39.4100   10.5450 C   0  0  0  0  0  0  0  0  0  0  0  0
    2.1790   41.1000   11.8390 C   0  0  0  0  0  0  0  0  0  0  0  0
    4.7720   41.4070   11.4750 C   0  0  0  0  0  0  0  0  0  0  0  0
    5.4510   41.3180   10.4030 O   0  0  0  0  0  0  0  0  0  0  0  0
    5.2510   42.5520   12.4510 C   0  0  0  0  0  0  0  0  0  0  0  0
    5.3570   43.8100   11.5550 C   0  0  0  0  0  0  0  0  0  0  0  0
    6.3050   41.9700   13.3450 C   0  0  0  0  0  0  0  0  0  0  0  0
    7.5420   41.7630   12.5940 O   0  0  0  0  0  0  0  0  0  0  0  0
    6.5080   42.9630   14.4720 C   0  0  0  0  0  0  0  0  0  0  0  0
    5.2810   43.0640   15.2480 C   0  0  0  0  0  0  0  0  0  0  0  0
    7.4690   42.5420   15.5290 C   0  0  0  0  0  0  0  0  0  0  0  0
    8.0530   41.0760   15.3970 C   0  0  0  0  0  0  0  0  0  0  0  0
    7.6140   40.4900   16.8430 C   0  0  0  0  0  0  0  0  0  0  0  0
   10.6096   39.1543   16.2021 H   0  0  0  0  0  0  0  0  0  0  0  0
    9.3612   38.2807   15.2508 H   0  0  0  0  0  0  0  0  0  0  0  0
    9.3968   40.0767   15.2508 H   0  0  0  0  0  0  0  0  0  0  0  0
    7.0483   37.2361   17.0565 H   0  0  0  0  0  0  0  0  0  0  0  0
    5.3270   36.7911   17.0644 H   0  0  0  0  0  0  0  0  0  0  0  0
    6.0319   38.4304   18.9196 H   0  0  0  0  0  0  0  0  0  0  0  0
    6.1175   39.6897   17.6265 H   0  0  0  0  0  0  0  0  0  0  0  0
    1.9620   36.7365   17.6202 H   0  0  0  0  0  0  0  0  0  0  0  0
    1.9363   37.8899   16.2434 H   0  0  0  0  0  0  0  0  0  0  0  0
    3.0945   36.5169   16.2434 H   0  0  0  0  0  0  0  0  0  0  0  0
    4.2336   39.5013   18.9928 H   0  0  0  0  0  0  0  0  0  0  0  0
   -2.2152   40.1703   19.3026 H   0  0  0  0  0  0  0  0  0  0  0  0
   -1.4484   40.9969   17.9042 H   0  0  0  0  0  0  0  0  0  0  0  0
   -1.6254   39.2093   17.9042 H   0  0  0  0  0  0  0  0  0  0  0  0
    2.7191   39.8658   21.2436 H   0  0  0  0  0  0  0  0  0  0  0  0
    5.9555   39.3373   13.0786 H   0  0  0  0  0  0  0  0  0  0  0  0
    5.0319   37.9170   12.3515 H   0  0  0  0  0  0  0  0  0  0  0  0
    3.7844   40.3309   13.8395 H   0  0  0  0  0  0  0  0  0  0  0  0
    2.6513   38.4570   14.3701 H   0  0  0  0  0  0  0  0  0  0  0  0
    3.2953   38.3803   10.9130 H   0  0  0  0  0  0  0  0  0  0  0  0
    2.5427   39.6846    9.9337 H   0  0  0  0  0  0  0  0  0  0  0  0
    4.3270   39.4773    9.9337 H   0  0  0  0  0  0  0  0  0  0  0  0
    1.8999   41.2466   12.8929 H   0  0  0  0  0  0  0  0  0  0  0  0
    2.2498   42.0773   11.3391 H   0  0  0  0  0  0  0  0  0  0  0  0
    1.4146   40.4870   11.3391 H   0  0  0  0  0  0  0  0  0  0  0  0
    4.6223   42.9560   13.2582 H   0  0  0  0  0  0  0  0  0  0  0  0
    5.4325   44.7061   12.1885 H   0  0  0  0  0  0  0  0  0  0  0  0
    6.2519   43.7335   10.9199 H   0  0  0  0  0  0  0  0  0  0  0  0
    4.4619   43.8843   10.9199 H   0  0  0  0  0  0  0  0  0  0  0  0
    6.0036   40.9899   13.7432 H   0  0  0  0  0  0  0  0  0  0  0  0
    8.2942   41.6371   13.2253 H   0  0  0  0  0  0  0  0  0  0  0  0
    6.8538   43.8682   13.9514 H   0  0  0  0  0  0  0  0  0  0  0  0
    5.5230   43.0441   16.3209 H   0  0  0  0  0  0  0  0  0  0  0  0
    4.7700   44.0072   15.0048 H   0  0  0  0  0  0  0  0  0  0  0  0
    4.6226   42.2170   15.0048 H   0  0  0  0  0  0  0  0  0  0  0  0
    8.3159   43.2438   15.5118 H   0  0  0  0  0  0  0  0  0  0  0  0
    6.8961   42.5479   16.4680 H   0  0  0  0  0  0  0  0  0  0  0  0
    7.5875   40.5206   14.5694 H   0  0  0  0  0  0  0  0  0  0  0  0
    9.1279   41.0160   15.1713 H   0  0  0  0  0  0  0  0  0  0  0  0
    6.5647   40.1601   16.8374 H   0  0  0  0  0  0  0  0  0  0  0  0
    7.6767   41.2288   17.6556 H   0  0  0  0  0  0  0  0  0  0  0  0
  1  6  2  0
  2  4  1  0
  3  4  1  0
  3  5  1  0
  4  5  1  0
  4 35  1  0
  5  9  1  0
  6  7  1  0
  6 19  1  0
  7  8  1  0
  8  9  1  0
  8 10  1  0
 10 11  1  0
 10 12  2  0
 12 13  1  0
 13 14  1  0
 13 17  2  0
 14 15  2  0
 15 16  1  0
 15 18  1  0
 17 18  1  0
 19 20  1  0
 20 21  1  0
 20 22  1  0
 22 23  1  0
 22 24  1  0
 22 25  1  0
 25 26  2  0
 25 27  1  0
 27 28  1  0
 27 29  1  0
 29 30  1  0
 29 31  1  0
 31 32  1  0
 31 33  1  0
 33 34  1  0
 34 35  1  0
  2 36  1  0
  2 37  1  0
  2 38  1  0
  5 39  1  0
  8 40  1  0
  9 41  1  0
  9 42  1  0
 11 43  1  0
 11 44  1  0
 11 45  1  0
 12 46  1  0
 16 47  1  0
 16 48  1  0
 16 49  1  0
 17 50  1  0
 19 51  1  0
 19 52  1  0
 20 53  1  0
 21 54  1  0
 23 55  1  0
 23 56  1  0
 23 57  1  0
 24 58  1  0
 24 59  1  0
 24 60  1  0
 27 61  1  0
 28 62  1  0
 28 63  1  0
 28 64  1  0
 29 65  1  0
 30 66  1  0
 31 67  1  0
 32 68  1  0
 32 69  1  0
 32 70  1  0
 33 71  1  0
 33 72  1  0
 34 73  1  0
 34 74  1  0
 35 75  1  0
 35 76  1  0
A    1
O16
A    2
C51
A    3
O41
A    4
C5
A    5
C4
A    6
C16
A    7
O1
A    8
C2
A    9
C3
A   10
C20
A   11
C21
A   12
C22
A   13
C23
A   14
N26
A   15
C25
A   16
C27
A   17
C24
A   18
S1
A   19
C15
A   20
C14
A   21
O14
A   22
C13
A   23
C29
A   24
C30
A   25
C12
A   26
O12
A   27
C11
A   28
C28
A   29
C10
A   30
O10
A   31
C9
A   32
C91
A   33
C8
A   34
C7
A   35
C6
M  END
