1Q66_KMB_A_900
     RDKit          3D

 38 40  0  0  0  0  0  0  0  0999 V2000
   19.2550   17.8470   17.4810 C   0  0  0  0  0  0  0  0  0  0  0  0
   19.0780   19.4040   17.2740 N   0  0  0  0  0  0  0  0  0  0  0  0
   18.3020   17.5100   18.6160 C   0  0  0  0  0  0  0  0  0  0  0  0
   16.9980   17.0170   18.3200 C   0  0  0  0  0  0  0  0  0  0  0  0
   16.0950   16.7000   19.3720 C   0  0  0  0  0  0  0  0  0  0  0  0
   16.4940   16.8800   20.7290 C   0  0  0  0  0  0  0  0  0  0  0  0
   15.6510   16.5910   21.7690 N   0  0  0  0  0  0  0  0  0  0  0  0
   15.9740   16.7410   23.0140 C   0  0  0  0  0  0  0  0  0  0  0  0
   15.1410   16.4560   23.9720 N   0  0  0  0  0  0  0  0  0  0  0  0
   17.1700   17.1930   23.3860 N   0  0  0  0  0  0  0  0  0  0  0  0
   18.1220   17.5250   22.5120 C   0  0  0  0  0  0  0  0  0  0  0  0
   19.2130   17.9370   22.8710 O   0  0  0  0  0  0  0  0  0  0  0  0
   17.8090   17.3760   21.0200 C   0  0  0  0  0  0  0  0  0  0  0  0
   18.7170   17.6910   19.9680 C   0  0  0  0  0  0  0  0  0  0  0  0
   14.7080   16.1680   19.0400 C   0  0  0  0  0  0  0  0  0  0  0  0
   13.5890   17.5870   18.7890 S   0  0  0  0  0  0  0  0  0  0  0  0
   12.0330   16.7370   18.5970 C   0  0  0  0  0  0  0  0  0  0  0  0
   11.9860   15.4150   18.0460 C   0  0  0  0  0  0  0  0  0  0  0  0
   10.7420   14.7420   17.8980 C   0  0  0  0  0  0  0  0  0  0  0  0
    9.5400   15.3860   18.2950 C   0  0  0  0  0  0  0  0  0  0  0  0
    9.5790   16.7020   18.8410 C   0  0  0  0  0  0  0  0  0  0  0  0
   10.8240   17.3750   18.9920 C   0  0  0  0  0  0  0  0  0  0  0  0
   18.9825   17.2987   16.5672 H   0  0  0  0  0  0  0  0  0  0  0  0
   20.2946   17.5680   17.7074 H   0  0  0  0  0  0  0  0  0  0  0  0
   19.0252   19.8686   18.1918 H   0  0  0  0  0  0  0  0  0  0  0  0
   19.8823   19.7740   16.7477 H   0  0  0  0  0  0  0  0  0  0  0  0
   16.6886   16.8811   17.2732 H   0  0  0  0  0  0  0  0  0  0  0  0
   15.4327   16.5558   24.9548 H   0  0  0  0  0  0  0  0  0  0  0  0
   14.1899   16.1306   23.7476 H   0  0  0  0  0  0  0  0  0  0  0  0
   17.3688   17.2906   24.3919 H   0  0  0  0  0  0  0  0  0  0  0  0
   19.7246   18.0688   20.1959 H   0  0  0  0  0  0  0  0  0  0  0  0
   14.7523   15.5634   18.1221 H   0  0  0  0  0  0  0  0  0  0  0  0
   14.3390   15.5377   19.8626 H   0  0  0  0  0  0  0  0  0  0  0  0
   12.9171   14.9181   17.7359 H   0  0  0  0  0  0  0  0  0  0  0  0
   10.7108   13.7260   17.4774 H   0  0  0  0  0  0  0  0  0  0  0  0
    8.5765   14.8678   18.1808 H   0  0  0  0  0  0  0  0  0  0  0  0
    8.6458   17.1981   19.1460 H   0  0  0  0  0  0  0  0  0  0  0  0
   10.8516   18.3901   19.4148 H   0  0  0  0  0  0  0  0  0  0  0  0
  1  2  1  0
  1  3  1  0
  3  4  2  0
  3 14  1  0
  4  5  1  0
  5  6  2  0
  5 15  1  0
  6  7  1  0
  6 13  1  0
  7  8  2  0
  8  9  1  0
  8 10  1  0
 10 11  1  0
 11 12  2  0
 11 13  1  0
 13 14  2  0
 15 16  1  0
 16 17  1  0
 17 18  2  0
 17 22  1  0
 18 19  1  0
 19 20  2  0
 20 21  1  0
 21 22  2  0
  1 23  1  0
  1 24  1  0
  2 25  1  0
  2 26  1  0
  4 27  1  0
  9 28  1  0
  9 29  1  0
 10 30  1  0
 14 31  1  0
 15 32  1  0
 15 33  1  0
 18 34  1  0
 19 35  1  0
 20 36  1  0
 21 37  1  0
 22 38  1  0
A    1
C4
A    2
N4
A    3
C6
A    4
C1
A    5
C2
A    6
C3
A    7
N3
A    8
C8
A    9
N2
A   10
N1
A   11
C7
A   12
O1
A   13
C41
A   14
C5
A   15
C9
A   16
S1
A   17
C10
A   18
C11
A   19
C12
A   20
C13
A   21
C14
A   22
C15
M  END
