1Q6J_335_A_301
     RDKit          3D

 69 73  0  0  0  0  0  0  0  0999 V2000
    0.4820   71.4830   69.2300 C   0  0  0  0  0  0  0  0  0  0  0  0
    1.3310   72.4560   68.3620 C   0  0  0  0  0  0  0  0  0  0  0  0
    0.6810   73.2000   67.3600 C   0  0  0  0  0  0  0  0  0  0  0  0
    2.7520   72.6320   68.5170 C   0  0  0  0  0  0  0  0  0  0  0  0
    1.3640   74.0790   66.5340 C   0  0  0  0  0  0  0  0  0  0  0  0
    3.4480   73.5260   67.6790 C   0  0  0  0  0  0  0  0  0  0  0  0
    2.7590   74.2570   66.6840 C   0  0  0  0  0  0  0  0  0  0  0  0
    3.4560   75.2230   65.7700 C   0  0  0  0  0  0  0  0  0  0  0  0
    4.5250   75.6610   66.4490 F   0  0  0  0  0  0  0  0  0  0  0  0
    2.6210   76.2410   65.5850 F   0  0  0  0  0  0  0  0  0  0  0  0
    3.9410   74.6300   64.2370 P   0  0  0  0  0  0  0  0  0  0  0  0
    2.7150   74.1080   63.4420 O   0  0  0  0  0  0  0  0  0  0  0  0
    4.8420   73.5320   64.4310 O   0  0  0  0  0  0  0  0  0  0  0  0
    4.5860   75.7480   63.4380 O   0  0  0  0  0  0  0  0  0  0  0  0
   -0.0220   72.0300   70.6650 C   0  0  0  0  0  0  0  0  0  0  0  0
   -0.8750   73.3690   70.5080 C   0  0  0  0  0  0  0  0  0  0  0  0
   -2.0620   73.3090   69.5600 C   0  0  0  0  0  0  0  0  0  0  0  0
   -2.2070   74.3620   68.5890 C   0  0  0  0  0  0  0  0  0  0  0  0
   -3.0570   72.2710   69.5830 C   0  0  0  0  0  0  0  0  0  0  0  0
   -3.2710   74.3890   67.6930 C   0  0  0  0  0  0  0  0  0  0  0  0
   -4.1520   72.2930   68.6580 C   0  0  0  0  0  0  0  0  0  0  0  0
   -4.2600   73.3680   67.7000 C   0  0  0  0  0  0  0  0  0  0  0  0
   -5.4340   73.4420   66.7040 C   0  0  0  0  0  0  0  0  0  0  0  0
   -6.1310   72.3100   66.7870 F   0  0  0  0  0  0  0  0  0  0  0  0
   -4.9840   73.5090   65.4310 F   0  0  0  0  0  0  0  0  0  0  0  0
   -6.4920   74.7070   67.0300 P   0  0  0  0  0  0  0  0  0  0  0  0
   -5.8660   76.0850   66.6980 O   0  0  0  0  0  0  0  0  0  0  0  0
   -6.8410   74.6890   68.4930 O   0  0  0  0  0  0  0  0  0  0  0  0
   -7.7320   74.5580   66.1800 O   0  0  0  0  0  0  0  0  0  0  0  0
    1.2510   72.3320   71.6180 C   0  0  0  0  0  0  0  0  0  0  0  0
    2.1790   71.2970   71.9600 C   0  0  0  0  0  0  0  0  0  0  0  0
    1.4730   73.6660   72.1620 C   0  0  0  0  0  0  0  0  0  0  0  0
    3.4780   72.9190   73.3360 C   0  0  0  0  0  0  0  0  0  0  0  0
    3.2830   71.5720   72.8050 C   0  0  0  0  0  0  0  0  0  0  0  0
    2.5660   73.9590   73.0050 C   0  0  0  0  0  0  0  0  0  0  0  0
   -0.8100   70.8030   71.1680 N   0  0  0  0  0  0  0  0  0  0  0  0
   -1.2360   69.6580   70.5090 N   0  0  0  0  0  0  0  0  0  0  0  0
   -1.8440   68.9850   71.4840 N   0  0  0  0  0  0  0  0  0  0  0  0
   -1.8960   69.5190   72.7480 C   0  0  0  0  0  0  0  0  0  0  0  0
   -1.1940   70.8120   72.6240 C   0  0  0  0  0  0  0  0  0  0  0  0
   -2.4300   69.1020   73.9920 C   0  0  0  0  0  0  0  0  0  0  0  0
   -1.0610   71.6540   73.8130 C   0  0  0  0  0  0  0  0  0  0  0  0
   -2.2860   69.9510   75.1510 C   0  0  0  0  0  0  0  0  0  0  0  0
   -1.5980   71.2350   75.0590 C   0  0  0  0  0  0  0  0  0  0  0  0
   -0.4100   71.2103   68.6468 H   0  0  0  0  0  0  0  0  0  0  0  0
    1.1565   70.6462   69.4640 H   0  0  0  0  0  0  0  0  0  0  0  0
   -0.4044   73.0802   67.2279 H   0  0  0  0  0  0  0  0  0  0  0  0
    3.2945   72.0681   69.2901 H   0  0  0  0  0  0  0  0  0  0  0  0
    0.8196   74.6396   65.7598 H   0  0  0  0  0  0  0  0  0  0  0  0
    4.5336   73.6559   67.7997 H   0  0  0  0  0  0  0  0  0  0  0  0
    2.0143   73.8096   64.0745 H   0  0  0  0  0  0  0  0  0  0  0  0
    4.9693   73.3769   65.4005 H   0  0  0  0  0  0  0  0  0  0  0  0
   -1.2556   73.6416   71.5034 H   0  0  0  0  0  0  0  0  0  0  0  0
   -0.1858   74.1035   70.0659 H   0  0  0  0  0  0  0  0  0  0  0  0
   -1.4571   75.1660   68.5546 H   0  0  0  0  0  0  0  0  0  0  0  0
   -2.9773   71.4543   70.3156 H   0  0  0  0  0  0  0  0  0  0  0  0
   -3.3481   75.2129   66.9682 H   0  0  0  0  0  0  0  0  0  0  0  0
   -4.9074   71.4936   68.6780 H   0  0  0  0  0  0  0  0  0  0  0  0
   -5.6500   76.5606   67.5390 H   0  0  0  0  0  0  0  0  0  0  0  0
   -6.0109   74.7318   69.0308 H   0  0  0  0  0  0  0  0  0  0  0  0
    2.0341   70.2810   71.5641 H   0  0  0  0  0  0  0  0  0  0  0  0
    0.7663   74.4695   71.9074 H   0  0  0  0  0  0  0  0  0  0  0  0
    4.3336   73.1297   73.9944 H   0  0  0  0  0  0  0  0  0  0  0  0
    3.9928   70.7716   73.0610 H   0  0  0  0  0  0  0  0  0  0  0  0
    2.7104   74.9755   73.3998 H   0  0  0  0  0  0  0  0  0  0  0  0
   -2.9514   68.1369   74.0746 H   0  0  0  0  0  0  0  0  0  0  0  0
   -0.5404   72.6203   73.7411 H   0  0  0  0  0  0  0  0  0  0  0  0
   -2.7005   69.6257   76.1166 H   0  0  0  0  0  0  0  0  0  0  0  0
   -1.4962   71.8737   75.9488 H   0  0  0  0  0  0  0  0  0  0  0  0
  1  2  1  0
  1 15  1  0
  2  3  2  0
  2  4  1  0
  3  5  1  0
  4  6  2  0
  5  7  2  0
  6  7  1  0
  7  8  1  0
  8  9  1  0
  8 10  1  0
  8 11  1  0
 11 12  1  0
 11 13  1  0
 11 14  2  0
 15 16  1  0
 15 30  1  0
 15 36  1  0
 16 17  1  0
 17 18  2  0
 17 19  1  0
 18 20  1  0
 19 21  2  0
 20 22  2  0
 21 22  1  0
 22 23  1  0
 23 24  1  0
 23 25  1  0
 23 26  1  0
 26 27  1  0
 26 28  1  0
 26 29  2  0
 30 31  2  0
 30 32  1  0
 31 34  1  0
 32 35  2  0
 33 34  2  0
 33 35  1  0
 36 37  1  0
 36 40  1  0
 37 38  2  0
 38 39  1  0
 39 40  2  0
 39 41  1  0
 40 42  1  0
 41 43  2  0
 42 44  2  0
 43 44  1  0
  1 45  1  0
  1 46  1  0
  3 47  1  0
  4 48  1  0
  5 49  1  0
  6 50  1  0
 12 51  1  0
 13 52  1  0
 16 53  1  0
 16 54  1  0
 18 55  1  0
 19 56  1  0
 20 57  1  0
 21 58  1  0
 27 59  1  0
 28 60  1  0
 31 61  1  0
 32 62  1  0
 33 63  1  0
 34 64  1  0
 35 65  1  0
 41 66  1  0
 42 67  1  0
 43 68  1  0
 44 69  1  0
A    1
C32
A    2
C33
A    3
C4A
A    4
C4B
A    5
C5A
A    6
C5B
A    7
C36
A    8
C37
A    9
F38
A   10
F39
A   11
P40
A   12
O41
A   13
O42
A   14
O43
A   15
C1
A   16
C12
A   17
C13
A   18
C1A
A   19
C1B
A   20
C2A
A   21
C2B
A   22
C16
A   23
C17
A   24
F18
A   25
F19
A   26
P20
A   27
O21
A   28
O22
A   29
O23
A   30
C51
A   31
C6A
A   32
C6B
A   33
C55
A   34
C53
A   35
C54
A   36
N61
A   37
N62
A   38
N63
A   39
C7A
A   40
C7B
A   41
C8A
A   42
C8B
A   43
C9A
A   44
C9B
M  END
