1Q6Q_LXP_A_7301
     RDKit          3D

 27 26  0  0  0  0  0  0  0  0999 V2000
   64.1990   23.4200   24.8720 O   0  0  0  0  0  0  0  0  0  0  0  0
   65.4450   23.1360   24.0670 P   0  0  0  0  0  0  0  0  0  0  0  0
   65.5410   24.1250   22.9420 O   0  0  0  0  0  0  0  0  0  0  0  0
   66.6690   22.8550   24.9020 O   0  0  0  0  0  0  0  0  0  0  0  0
   65.1450   21.7300   23.2700 O   0  0  0  0  0  0  0  0  0  0  0  0
   64.9640   20.5000   23.9450 C   0  0  0  0  0  0  0  0  0  0  0  0
   63.5000   20.2190   24.0980 C   0  0  0  0  0  0  0  0  0  0  0  0
   63.4650   18.9530   24.7500 O   0  0  0  0  0  0  0  0  0  0  0  0
   62.7780   20.1790   22.7580 C   0  0  0  0  0  0  0  0  0  0  0  0
   63.3720   19.2230   21.8880 O   0  0  0  0  0  0  0  0  0  0  0  0
   61.2780   19.7930   22.9720 C   0  0  0  0  0  0  0  0  0  0  0  0
   61.1050   18.3430   22.9140 O   0  0  0  0  0  0  0  0  0  0  0  0
   60.3780   20.5720   22.0150 C   0  0  0  0  0  0  0  0  0  0  0  0
   59.0210   20.0450   22.0070 O   0  0  0  0  0  0  0  0  0  0  0  0
   64.4118   23.3715   25.8376 H   0  0  0  0  0  0  0  0  0  0  0  0
   66.4331   22.9091   25.8620 H   0  0  0  0  0  0  0  0  0  0  0  0
   65.4328   19.6918   23.3645 H   0  0  0  0  0  0  0  0  0  0  0  0
   65.4299   20.5582   24.9398 H   0  0  0  0  0  0  0  0  0  0  0  0
   62.9824   21.0064   24.6656 H   0  0  0  0  0  0  0  0  0  0  0  0
   63.4687   19.0868   25.7309 H   0  0  0  0  0  0  0  0  0  0  0  0
   62.8537   21.1782   22.3043 H   0  0  0  0  0  0  0  0  0  0  0  0
   63.8111   18.5164   22.4247 H   0  0  0  0  0  0  0  0  0  0  0  0
   60.9612   20.0891   23.9829 H   0  0  0  0  0  0  0  0  0  0  0  0
   61.0615   17.9788   23.8336 H   0  0  0  0  0  0  0  0  0  0  0  0
   60.3499   21.6257   22.3295 H   0  0  0  0  0  0  0  0  0  0  0  0
   60.7904   20.4759   20.9998 H   0  0  0  0  0  0  0  0  0  0  0  0
   58.7086   19.9237   22.9386 H   0  0  0  0  0  0  0  0  0  0  0  0
  1  2  1  0
  2  3  2  0
  2  4  1  0
  2  5  1  0
  5  6  1  0
  6  7  1  0
  7  8  1  0
  7  9  1  0
  9 10  1  0
  9 11  1  0
 11 12  1  0
 11 13  1  0
 13 14  1  0
  1 15  1  0
  4 16  1  0
  6 17  1  0
  6 18  1  0
  7 19  1  0
  8 20  1  0
  9 21  1  0
 10 22  1  0
 11 23  1  0
 12 24  1  0
 13 25  1  0
 13 26  1  0
 14 27  1  0
A    1
O8
A    2
P
A    3
O6
A    4
O7
A    5
O5
A    6
C5
A    7
C4
A    8
O4
A    9
C3
A   10
O3
A   11
C2
A   12
O2
A   13
C1
A   14
O1
M  END
