1Q6S_214_A_801
     RDKit          3D

 84 90  0  0  0  0  0  0  0  0999 V2000
   37.4960   50.1540   55.1850 C   0  0  0  0  0  0  0  0  0  0  0  0
   38.8430   49.9120   54.8350 C   0  0  0  0  0  0  0  0  0  0  0  0
   39.1990   48.7860   54.0700 C   0  0  0  0  0  0  0  0  0  0  0  0
   38.1990   47.8570   53.6340 C   0  0  0  0  0  0  0  0  0  0  0  0
   36.8250   48.1320   54.0150 C   0  0  0  0  0  0  0  0  0  0  0  0
   36.4770   49.2680   54.7850 C   0  0  0  0  0  0  0  0  0  0  0  0
   36.9200   47.2810   49.6020 C   0  0  0  0  0  0  0  0  0  0  0  0
   37.7920   47.9030   50.5060 C   0  0  0  0  0  0  0  0  0  0  0  0
   37.6500   49.3180   50.7100 C   0  0  0  0  0  0  0  0  0  0  0  0
   36.6570   50.0710   50.0420 C   0  0  0  0  0  0  0  0  0  0  0  0
   35.7900   49.3990   49.1420 C   0  0  0  0  0  0  0  0  0  0  0  0
   35.9390   47.9980   48.9350 C   0  0  0  0  0  0  0  0  0  0  0  0
   38.3160   43.2940   52.1410 C   0  0  0  0  0  0  0  0  0  0  0  0
   37.3620   44.3190   51.9020 C   0  0  0  0  0  0  0  0  0  0  0  0
   36.4180   44.1010   50.8580 C   0  0  0  0  0  0  0  0  0  0  0  0
   36.4310   42.9150   50.1000 C   0  0  0  0  0  0  0  0  0  0  0  0
   37.3790   41.8930   50.3430 C   0  0  0  0  0  0  0  0  0  0  0  0
   38.3210   42.1000   51.3730 C   0  0  0  0  0  0  0  0  0  0  0  0
   38.5530   46.6010   52.7380 C   0  0  0  0  0  0  0  0  0  0  0  0
   39.7430   45.8830   53.3160 N   0  0  0  0  0  0  0  0  0  0  0  0
   37.3170   45.6190   52.7100 C   0  0  0  0  0  0  0  0  0  0  0  0
   38.8610   47.1530   51.2860 C   0  0  0  0  0  0  0  0  0  0  0  0
   41.1210   44.5440   57.0550 C   0  0  0  0  0  0  0  0  0  0  0  0
   41.8050   44.4020   55.8190 C   0  0  0  0  0  0  0  0  0  0  0  0
   41.2280   44.8830   54.6630 C   0  0  0  0  0  0  0  0  0  0  0  0
   39.9470   45.5560   54.6830 C   0  0  0  0  0  0  0  0  0  0  0  0
   39.2630   45.6850   55.9180 C   0  0  0  0  0  0  0  0  0  0  0  0
   39.8530   45.1910   57.1070 C   0  0  0  0  0  0  0  0  0  0  0  0
   41.5840   44.9300   53.3390 N   0  0  0  0  0  0  0  0  0  0  0  0
   40.7490   45.5070   52.4800 N   0  0  0  0  0  0  0  0  0  0  0  0
   34.6930   50.0860   48.4190 C   0  0  0  0  0  0  0  0  0  0  0  0
   34.2760   51.1810   49.0980 F   0  0  0  0  0  0  0  0  0  0  0  0
   33.6550   49.2170   48.3140 F   0  0  0  0  0  0  0  0  0  0  0  0
   35.2360   50.6020   46.7170 P   0  0  0  0  0  0  0  0  0  0  0  0
   35.7220   49.3790   45.9240 O   0  0  0  0  0  0  0  0  0  0  0  0
   36.3200   51.5660   46.8170 O   0  0  0  0  0  0  0  0  0  0  0  0
   33.9980   51.2100   46.0620 O   0  0  0  0  0  0  0  0  0  0  0  0
   38.7510   40.0340   49.2760 C   0  0  0  0  0  0  0  0  0  0  0  0
   40.0030   36.9200   47.4640 C   0  0  0  0  0  0  0  0  0  0  0  0
   38.7790   35.0630   46.3870 C   0  0  0  0  0  0  0  0  0  0  0  0
   40.0190   38.1380   48.1740 C   0  0  0  0  0  0  0  0  0  0  0  0
   38.7880   38.7910   48.5710 C   0  0  0  0  0  0  0  0  0  0  0  0
   37.5320   38.1310   48.2440 C   0  0  0  0  0  0  0  0  0  0  0  0
   37.5880   36.9430   47.5480 N   0  0  0  0  0  0  0  0  0  0  0  0
   38.7500   36.3490   47.1630 C   0  0  0  0  0  0  0  0  0  0  0  0
   37.4910   40.6050   49.6290 C   0  0  0  0  0  0  0  0  0  0  0  0
   36.2580   39.9340   49.3030 C   0  0  0  0  0  0  0  0  0  0  0  0
   36.2820   38.6940   48.6060 C   0  0  0  0  0  0  0  0  0  0  0  0
   34.7410   37.8130   48.2180 P   0  0  0  0  0  0  0  0  0  0  0  0
   34.4720   36.9860   49.4580 O   0  0  0  0  0  0  0  0  0  0  0  0
   34.8820   36.9220   47.0610 O   0  0  0  0  0  0  0  0  0  0  0  0
   33.5580   38.7690   48.0350 O   0  0  0  0  0  0  0  0  0  0  0  0
   37.2400   51.0451   55.7770 H   0  0  0  0  0  0  0  0  0  0  0  0
   39.6239   50.6130   55.1648 H   0  0  0  0  0  0  0  0  0  0  0  0
   40.2531   48.6176   53.8046 H   0  0  0  0  0  0  0  0  0  0  0  0
   36.0327   47.4386   53.6966 H   0  0  0  0  0  0  0  0  0  0  0  0
   35.4300   49.4551   55.0656 H   0  0  0  0  0  0  0  0  0  0  0  0
   37.0162   46.2008   49.4179 H   0  0  0  0  0  0  0  0  0  0  0  0
   38.3324   49.8295   51.4048 H   0  0  0  0  0  0  0  0  0  0  0  0
   36.5589   51.1527   50.2160 H   0  0  0  0  0  0  0  0  0  0  0  0
   35.2668   47.4780   48.2366 H   0  0  0  0  0  0  0  0  0  0  0  0
   39.0646   43.4279   52.9357 H   0  0  0  0  0  0  0  0  0  0  0  0
   35.6654   44.8731   50.6402 H   0  0  0  0  0  0  0  0  0  0  0  0
   35.6875   42.7796   49.3007 H   0  0  0  0  0  0  0  0  0  0  0  0
   39.0712   41.3238   51.5843 H   0  0  0  0  0  0  0  0  0  0  0  0
   36.4656   46.1984   52.3234 H   0  0  0  0  0  0  0  0  0  0  0  0
   37.2709   45.2578   53.7480 H   0  0  0  0  0  0  0  0  0  0  0  0
   39.1494   46.2862   50.6732 H   0  0  0  0  0  0  0  0  0  0  0  0
   39.6229   47.9249   51.4696 H   0  0  0  0  0  0  0  0  0  0  0  0
   41.5730   44.1520   57.9781 H   0  0  0  0  0  0  0  0  0  0  0  0
   42.7889   43.9114   55.7840 H   0  0  0  0  0  0  0  0  0  0  0  0
   38.2754   46.1681   55.9528 H   0  0  0  0  0  0  0  0  0  0  0  0
   39.3328   45.3068   58.0693 H   0  0  0  0  0  0  0  0  0  0  0  0
   36.0043   48.6687   46.5531 H   0  0  0  0  0  0  0  0  0  0  0  0
   36.5180   51.7421   47.7709 H   0  0  0  0  0  0  0  0  0  0  0  0
   39.6864   40.5467   49.5445 H   0  0  0  0  0  0  0  0  0  0  0  0
   40.9386   36.4310   47.1548 H   0  0  0  0  0  0  0  0  0  0  0  0
   38.7982   34.2135   47.0856 H   0  0  0  0  0  0  0  0  0  0  0  0
   37.8821   34.9967   45.7536 H   0  0  0  0  0  0  0  0  0  0  0  0
   39.6780   35.0372   45.7536 H   0  0  0  0  0  0  0  0  0  0  0  0
   40.9832   38.6008   48.4311 H   0  0  0  0  0  0  0  0  0  0  0  0
   35.2962   40.3816   49.5937 H   0  0  0  0  0  0  0  0  0  0  0  0
   34.6498   37.5325   50.2641 H   0  0  0  0  0  0  0  0  0  0  0  0
   35.0288   35.9945   47.3747 H   0  0  0  0  0  0  0  0  0  0  0  0
  1  2  2  0
  1  6  1  0
  2  3  1  0
  3  4  2  0
  4  5  1  0
  4 19  1  0
  5  6  2  0
  7  8  2  0
  7 12  1  0
  8  9  1  0
  8 22  1  0
  9 10  2  0
 10 11  1  0
 11 12  2  0
 11 31  1  0
 13 14  2  0
 13 18  1  0
 14 15  1  0
 14 21  1  0
 15 16  2  0
 16 17  1  0
 17 18  2  0
 17 46  1  0
 19 20  1  0
 19 21  1  0
 19 22  1  0
 20 26  1  0
 20 30  1  0
 23 24  2  0
 23 28  1  0
 24 25  1  0
 25 26  2  0
 25 29  1  0
 26 27  1  0
 27 28  2  0
 29 30  2  0
 31 32  1  0
 31 33  1  0
 31 34  1  0
 34 35  1  0
 34 36  1  0
 34 37  2  0
 38 42  2  0
 38 46  1  0
 39 41  2  0
 39 45  1  0
 40 45  1  0
 41 42  1  0
 42 43  1  0
 43 44  1  0
 43 48  2  0
 44 45  2  0
 46 47  2  0
 47 48  1  0
 48 49  1  0
 49 50  1  0
 49 51  1  0
 49 52  2  0
  1 53  1  0
  2 54  1  0
  3 55  1  0
  5 56  1  0
  6 57  1  0
  7 58  1  0
  9 59  1  0
 10 60  1  0
 12 61  1  0
 13 62  1  0
 15 63  1  0
 16 64  1  0
 18 65  1  0
 21 66  1  0
 21 67  1  0
 22 68  1  0
 22 69  1  0
 23 70  1  0
 24 71  1  0
 27 72  1  0
 28 73  1  0
 35 74  1  0
 36 75  1  0
 38 76  1  0
 39 77  1  0
 40 78  1  0
 40 79  1  0
 40 80  1  0
 41 81  1  0
 47 82  1  0
 50 83  1  0
 51 84  1  0
A    1
C1
A    2
C2
A    3
C3
A    4
C4
A    5
C5
A    6
C6
A    7
C10
A    8
C11
A    9
C12
A   10
C13
A   11
C14
A   12
C15
A   13
C20
A   14
C21
A   15
C22
A   16
C23
A   17
C24
A   18
C25
A   19
C30
A   20
N31
A   21
C32
A   22
C35
A   23
C40
A   24
C41
A   25
C42
A   26
C43
A   27
C44
A   28
C45
A   29
N46
A   30
N47
A   31
C52
A   32
F53
A   33
F54
A   34
P55
A   35
O56
A   36
O57
A   37
O58
A   38
C61
A   39
C62
A   40
C71
A   41
C63
A   42
C64
A   43
C65
A   44
N66
A   45
C67
A   46
C68
A   47
C69
A   48
C70
A   49
P79
A   50
O80
A   51
O81
A   52
O82
M  END
