1Q91_DPB_A_1
     RDKit          3D

 47 50  0  0  0  0  0  0  0  0999 V2000
   15.7740   41.6990   23.9790 C   0  0  0  0  0  0  0  0  0  0  0  0
   14.4380   41.9450   23.7540 C   0  0  0  0  0  0  0  0  0  0  0  0
   13.7480   41.0560   22.7860 C   0  0  0  0  0  0  0  0  0  0  0  0
   14.4380   39.9480   22.0790 C   0  0  0  0  0  0  0  0  0  0  0  0
   15.8150   39.7640   22.3690 C   0  0  0  0  0  0  0  0  0  0  0  0
   16.5820   40.5820   23.3040 C   0  0  0  0  0  0  0  0  0  0  0  0
    9.4350   38.6720   27.0970 C   0  0  0  0  0  0  0  0  0  0  0  0
   10.0390   39.8490   26.6120 N   0  0  0  0  0  0  0  0  0  0  0  0
   11.2860   40.4190   27.1200 C   0  0  0  0  0  0  0  0  0  0  0  0
   11.8550   39.6750   28.1690 C   0  0  0  0  0  0  0  0  0  0  0  0
   11.1870   38.4470   28.6500 C   0  0  0  0  0  0  0  0  0  0  0  0
   10.0600   38.0070   28.1230 N   0  0  0  0  0  0  0  0  0  0  0  0
    8.3870   38.1750   26.6860 O   0  0  0  0  0  0  0  0  0  0  0  0
   11.7220   37.7990   29.5990 O   0  0  0  0  0  0  0  0  0  0  0  0
   13.2490   40.2440   28.8010 C   0  0  0  0  0  0  0  0  0  0  0  0
    9.3270   40.5270   25.5250 C   0  0  0  0  0  0  0  0  0  0  0  0
    9.4360   39.7110   24.3840 O   0  0  0  0  0  0  0  0  0  0  0  0
    9.4870   40.6530   23.3520 C   0  0  0  0  0  0  0  0  0  0  0  0
   10.0400   41.8640   23.7150 C   0  0  0  0  0  0  0  0  0  0  0  0
    9.7220   41.8760   25.1090 C   0  0  0  0  0  0  0  0  0  0  0  0
   10.2390   40.1820   22.1920 C   0  0  0  0  0  0  0  0  0  0  0  0
   11.7040   40.1400   22.1030 O   0  0  0  0  0  0  0  0  0  0  0  0
   12.2490   41.3800   22.5670 C   0  0  0  0  0  0  0  0  0  0  0  0
   11.4590   41.8790   23.6720 O   0  0  0  0  0  0  0  0  0  0  0  0
   12.1190   42.6730   21.1550 P   0  0  0  0  0  0  0  0  0  0  0  0
   12.7140   41.7740   19.9890 O   0  0  0  0  0  0  0  0  0  0  0  0
   13.0710   43.7590   21.4450 O   0  0  0  0  0  0  0  0  0  0  0  0
   10.6860   43.0560   20.8290 O   0  0  0  0  0  0  0  0  0  0  0  0
   16.2998   42.3494   24.6935 H   0  0  0  0  0  0  0  0  0  0  0  0
   13.9076   42.7609   24.2668 H   0  0  0  0  0  0  0  0  0  0  0  0
   13.9077   39.3009   21.3649 H   0  0  0  0  0  0  0  0  0  0  0  0
   16.3415   38.9476   21.8530 H   0  0  0  0  0  0  0  0  0  0  0  0
   17.6495   40.4121   23.5077 H   0  0  0  0  0  0  0  0  0  0  0  0
   11.7353   41.3401   26.7205 H   0  0  0  0  0  0  0  0  0  0  0  0
    9.6382   37.1423   28.4908 H   0  0  0  0  0  0  0  0  0  0  0  0
   13.1904   40.2201   29.8992 H   0  0  0  0  0  0  0  0  0  0  0  0
   14.0873   39.6161   28.4648 H   0  0  0  0  0  0  0  0  0  0  0  0
   13.4084   41.2792   28.4648 H   0  0  0  0  0  0  0  0  0  0  0  0
    8.3234   40.6744   25.9506 H   0  0  0  0  0  0  0  0  0  0  0  0
    8.4254   40.7962   23.1022 H   0  0  0  0  0  0  0  0  0  0  0  0
    9.6828   42.6789   23.0682 H   0  0  0  0  0  0  0  0  0  0  0  0
    8.8923   42.5749   25.2911 H   0  0  0  0  0  0  0  0  0  0  0  0
   10.6015   42.1979   25.6859 H   0  0  0  0  0  0  0  0  0  0  0  0
    9.9044   39.1475   22.0249 H   0  0  0  0  0  0  0  0  0  0  0  0
   10.0176   40.9830   21.4713 H   0  0  0  0  0  0  0  0  0  0  0  0
   13.2159   41.0157   20.3804 H   0  0  0  0  0  0  0  0  0  0  0  0
   10.1811   43.1910   21.6698 H   0  0  0  0  0  0  0  0  0  0  0  0
  1  2  2  0
  1  6  1  0
  2  3  1  0
  3  4  2  0
  3 23  1  0
  4  5  1  0
  5  6  2  0
  7  8  1  0
  7 12  1  0
  7 13  2  0
  8  9  1  0
  8 16  1  0
  9 10  2  0
 10 11  1  0
 10 15  1  0
 11 12  1  0
 11 14  2  0
 16 17  1  0
 16 20  1  0
 17 18  1  0
 18 19  1  0
 18 21  1  0
 19 20  1  0
 19 24  1  0
 21 22  1  0
 22 23  1  0
 23 24  1  0
 23 25  1  0
 25 26  1  0
 25 27  2  0
 25 28  1  0
  1 29  1  0
  2 30  1  0
  4 31  1  0
  5 32  1  0
  6 33  1  0
  9 34  1  0
 12 35  1  0
 15 36  1  0
 15 37  1  0
 15 38  1  0
 16 39  1  0
 18 40  1  0
 19 41  1  0
 20 42  1  0
 20 43  1  0
 21 44  1  0
 21 45  1  0
 26 46  1  0
 28 47  1  0
A    1
C11
A    2
C12
A    3
C7
A    4
C8
A    5
C9
A    6
C10
A    7
C2
A    8
N1
A    9
C6
A   10
C5
A   11
C4
A   12
N3
A   13
O2
A   14
O4
A   15
C5M
A   16
C1'
A   17
O4'
A   18
C4'
A   19
C3'
A   20
C2'
A   21
C5'
A   22
O5'
A   23
C6'
A   24
O3'
A   25
P
A   26
OP2
A   27
OP1
A   28
OP3
M  END
