1JP2_ROL_?_800
     RDKit          3D

 41 43  0  0  0  0  0  0  0  0999 V2000
   33.4970   75.9280   22.9070 C   0  0  0  0  0  0  0  0  0  0  0  0
   33.9310   74.8170   23.6100 C   0  0  0  0  0  0  0  0  0  0  0  0
   34.3820   73.6760   22.9280 C   0  0  0  0  0  0  0  0  0  0  0  0
   34.3800   73.6680   21.5280 C   0  0  0  0  0  0  0  0  0  0  0  0
   33.9560   74.7650   20.8370 C   0  0  0  0  0  0  0  0  0  0  0  0
   33.5030   75.9110   21.5450 C   0  0  0  0  0  0  0  0  0  0  0  0
   32.9320   77.1290   23.6740 C   0  0  0  0  0  0  0  0  0  0  0  0
   33.6250   78.4580   23.3990 C   0  0  0  0  0  0  0  0  0  0  0  0
   32.5560   79.4830   23.6720 C   0  0  0  0  0  0  0  0  0  0  0  0
   32.7290   80.6850   23.7990 O   0  0  0  0  0  0  0  0  0  0  0  0
   31.3690   78.8650   23.7050 N   0  0  0  0  0  0  0  0  0  0  0  0
   31.4680   77.4450   23.4040 C   0  0  0  0  0  0  0  0  0  0  0  0
   34.8100   72.5240   23.5090 O   0  0  0  0  0  0  0  0  0  0  0  0
   33.9140   71.7920   24.3850 C   0  0  0  0  0  0  0  0  0  0  0  0
   33.5970   70.4550   23.6920 C   0  0  0  0  0  0  0  0  0  0  0  0
   34.3280   69.4560   24.4210 C   0  0  0  0  0  0  0  0  0  0  0  0
   35.0660   70.0240   25.4880 C   0  0  0  0  0  0  0  0  0  0  0  0
   34.6250   71.4420   25.6520 C   0  0  0  0  0  0  0  0  0  0  0  0
   34.8050   72.5090   20.9390 O   0  0  0  0  0  0  0  0  0  0  0  0
   36.1600   72.4920   20.4280 C   0  0  0  0  0  0  0  0  0  0  0  0
   33.9223   74.8285   24.7099 H   0  0  0  0  0  0  0  0  0  0  0  0
   33.9647   74.7626   19.7370 H   0  0  0  0  0  0  0  0  0  0  0  0
   33.1539   76.7928   20.9877 H   0  0  0  0  0  0  0  0  0  0  0  0
   33.0980   76.7741   24.7019 H   0  0  0  0  0  0  0  0  0  0  0  0
   34.4839   78.5987   24.0716 H   0  0  0  0  0  0  0  0  0  0  0  0
   34.0278   78.5247   22.3776 H   0  0  0  0  0  0  0  0  0  0  0  0
   30.4822   79.3427   23.9201 H   0  0  0  0  0  0  0  0  0  0  0  0
   31.2096   77.2463   22.3534 H   0  0  0  0  0  0  0  0  0  0  0  0
   30.7785   76.8301   24.0011 H   0  0  0  0  0  0  0  0  0  0  0  0
   33.0186   72.3961   24.5930 H   0  0  0  0  0  0  0  0  0  0  0  0
   32.5176   70.2476   23.7344 H   0  0  0  0  0  0  0  0  0  0  0  0
   33.8812   70.4712   22.6295 H   0  0  0  0  0  0  0  0  0  0  0  0
   33.6183   68.7214   24.8293 H   0  0  0  0  0  0  0  0  0  0  0  0
   35.0367   68.9760   23.7301 H   0  0  0  0  0  0  0  0  0  0  0  0
   34.8733   69.4637   26.4148 H   0  0  0  0  0  0  0  0  0  0  0  0
   36.1437   69.9819   25.2718 H   0  0  0  0  0  0  0  0  0  0  0  0
   35.4944   72.0998   25.7985 H   0  0  0  0  0  0  0  0  0  0  0  0
   33.9751   71.5666   26.5307 H   0  0  0  0  0  0  0  0  0  0  0  0
   36.8690   72.4831   21.2690 H   0  0  0  0  0  0  0  0  0  0  0  0
   36.3088   71.5919   19.8134 H   0  0  0  0  0  0  0  0  0  0  0  0
   36.3314   73.3881   19.8134 H   0  0  0  0  0  0  0  0  0  0  0  0
  1  2  2  0
  1  6  1  0
  1  7  1  0
  2  3  1  0
  3  4  2  0
  3 13  1  0
  4  5  1  0
  4 19  1  0
  5  6  2  0
  7  8  1  0
  7 12  1  0
  8  9  1  0
  9 10  2  0
  9 11  1  0
 11 12  1  0
 13 14  1  0
 14 15  1  0
 14 18  1  0
 15 16  1  0
 16 17  1  0
 17 18  1  0
 19 20  1  0
  2 21  1  0
  5 22  1  0
  6 23  1  0
  7 24  1  0
  8 25  1  0
  8 26  1  0
 11 27  1  0
 12 28  1  0
 12 29  1  0
 14 30  1  0
 15 31  1  0
 15 32  1  0
 16 33  1  0
 16 34  1  0
 17 35  1  0
 17 36  1  0
 18 37  1  0
 18 38  1  0
 20 39  1  0
 20 40  1  0
 20 41  1  0
A    1
C5
A    2
C6
A    3
C7
A    4
C8
A    5
C9
A    6
C10
A    7
C3
A    8
C2
A    9
C1
A   10
O1
A   11
N1
A   12
C4
A   13
O3
A   14
C11
A   15
C15
A   16
C14
A   17
C13
A   18
C12
A   19
O2
A   20
C16
M  END
