1QBO_711_A_300
     RDKit          3D

 65 69  0  0  0  0  0  0  0  0999 V2000
   19.9720    2.2570   54.3110 N   0  0  0  0  0  0  0  0  0  0  0  0
   20.0620    1.5510   55.3560 C   0  0  0  0  0  0  0  0  0  0  0  0
   18.9850    0.7930   55.7530 N   0  0  0  0  0  0  0  0  0  0  0  0
   21.1670    1.5710   56.1090 C   0  0  0  0  0  0  0  0  0  0  0  0
   22.2750    2.3240   55.6880 C   0  0  0  0  0  0  0  0  0  0  0  0
   23.4470    2.3680   56.4640 C   0  0  0  0  0  0  0  0  0  0  0  0
   24.4830    3.1160   56.0120 C   0  0  0  0  0  0  0  0  0  0  0  0
   25.6730    3.1150   56.7850 C   0  0  0  0  0  0  0  0  0  0  0  0
   25.7470    2.3730   57.9730 C   0  0  0  0  0  0  0  0  0  0  0  0
   24.6480    1.6250   58.4160 C   0  0  0  0  0  0  0  0  0  0  0  0
   23.5150    1.6290   57.6640 C   0  0  0  0  0  0  0  0  0  0  0  0
   22.4050    0.8770   58.0950 C   0  0  0  0  0  0  0  0  0  0  0  0
   21.2260    0.8620   57.3340 C   0  0  0  0  0  0  0  0  0  0  0  0
   26.7860    3.8890   56.3190 C   0  0  0  0  0  0  0  0  0  0  0  0
   28.0440    3.2560   56.7410 N   0  0  0  0  0  0  0  0  0  0  0  0
   28.9560    3.6620   57.8740 C   0  0  0  0  0  0  0  0  0  0  0  0
   28.7270    4.7860   58.7280 C   0  0  0  0  0  0  0  0  0  0  0  0
   30.0210    2.8670   57.9880 N   0  0  0  0  0  0  0  0  0  0  0  0
   29.9120    1.9710   57.0550 C   0  0  0  0  0  0  0  0  0  0  0  0
   30.7690    0.9040   56.7730 C   0  0  0  0  0  0  0  0  0  0  0  0
   30.5030    0.0380   55.7080 C   0  0  0  0  0  0  0  0  0  0  0  0
   29.3430    0.2150   54.9280 C   0  0  0  0  0  0  0  0  0  0  0  0
   28.4660    1.2800   55.2080 C   0  0  0  0  0  0  0  0  0  0  0  0
   28.7530    2.1720   56.2730 C   0  0  0  0  0  0  0  0  0  0  0  0
   29.2120   -0.7000   53.9230 O   0  0  0  0  0  0  0  0  0  0  0  0
   30.3250   -1.5990   53.9140 C   0  0  0  0  0  0  0  0  0  0  0  0
   31.4760   -1.0950   53.0590 C   0  0  0  0  0  0  0  0  0  0  0  0
   31.4740   -1.5830   51.6030 C   0  0  0  0  0  0  0  0  0  0  0  0
   31.2110   -3.0350   51.5630 N   0  0  0  0  0  0  0  0  0  0  0  0
   29.9460   -3.4930   52.1910 C   0  0  0  0  0  0  0  0  0  0  0  0
   29.8670   -3.0210   53.6270 C   0  0  0  0  0  0  0  0  0  0  0  0
   32.0730   -3.8860   50.9870 C   0  0  0  0  0  0  0  0  0  0  0  0
   31.8250   -5.3090   50.9520 N   0  0  0  0  0  0  0  0  0  0  0  0
   33.2880   -3.3880   50.4050 C   0  0  0  0  0  0  0  0  0  0  0  0
   20.7725    2.8283   54.0049 H   0  0  0  0  0  0  0  0  0  0  0  0
   18.7923    0.6574   56.7557 H   0  0  0  0  0  0  0  0  0  0  0  0
   18.3712    0.3610   55.0476 H   0  0  0  0  0  0  0  0  0  0  0  0
   22.2258    2.8845   54.7428 H   0  0  0  0  0  0  0  0  0  0  0  0
   24.4045    3.7003   55.0833 H   0  0  0  0  0  0  0  0  0  0  0  0
   26.6759    2.3783   58.5621 H   0  0  0  0  0  0  0  0  0  0  0  0
   24.7006    1.0477   59.3508 H   0  0  0  0  0  0  0  0  0  0  0  0
   22.4623    0.3003   59.0299 H   0  0  0  0  0  0  0  0  0  0  0  0
   20.3489    0.3005   57.6882 H   0  0  0  0  0  0  0  0  0  0  0  0
   26.7566    3.9466   55.2209 H   0  0  0  0  0  0  0  0  0  0  0  0
   26.7281    4.9016   56.7449 H   0  0  0  0  0  0  0  0  0  0  0  0
   28.7919    4.4673   59.7788 H   0  0  0  0  0  0  0  0  0  0  0  0
   29.4865    5.5569   58.5310 H   0  0  0  0  0  0  0  0  0  0  0  0
   27.7264    5.1983   58.5310 H   0  0  0  0  0  0  0  0  0  0  0  0
   30.7799    2.9480   58.6797 H   0  0  0  0  0  0  0  0  0  0  0  0
   31.6619    0.7437   57.3951 H   0  0  0  0  0  0  0  0  0  0  0  0
   31.1997   -0.7819   55.4790 H   0  0  0  0  0  0  0  0  0  0  0  0
   27.5591    1.4203   54.6015 H   0  0  0  0  0  0  0  0  0  0  0  0
   30.7608   -1.6332   54.9234 H   0  0  0  0  0  0  0  0  0  0  0  0
   31.4362    0.0042   53.0491 H   0  0  0  0  0  0  0  0  0  0  0  0
   32.3926   -1.4985   53.5140 H   0  0  0  0  0  0  0  0  0  0  0  0
   30.6897   -1.0542   51.0416 H   0  0  0  0  0  0  0  0  0  0  0  0
   32.4554   -1.3789   51.1500 H   0  0  0  0  0  0  0  0  0  0  0  0
   29.0937   -3.0847   51.6281 H   0  0  0  0  0  0  0  0  0  0  0  0
   29.9183   -4.5925   52.1754 H   0  0  0  0  0  0  0  0  0  0  0  0
   30.4871   -3.6978   54.2331 H   0  0  0  0  0  0  0  0  0  0  0  0
   28.7945   -3.0299   53.8715 H   0  0  0  0  0  0  0  0  0  0  0  0
   32.5046   -5.9393   50.5028 H   0  0  0  0  0  0  0  0  0  0  0  0
   33.9870   -3.1015   51.2046 H   0  0  0  0  0  0  0  0  0  0  0  0
   33.7444   -4.1716   49.7824 H   0  0  0  0  0  0  0  0  0  0  0  0
   33.0631   -2.5095   49.7824 H   0  0  0  0  0  0  0  0  0  0  0  0
  1  2  2  3
  2  3  1  0
  2  4  1  0
  4  5  2  0
  4 13  1  0
  5  6  1  0
  6  7  2  0
  6 11  1  0
  7  8  1  0
  8  9  2  0
  8 14  1  0
  9 10  1  0
 10 11  2  0
 11 12  1  0
 12 13  2  0
 14 15  1  0
 15 16  2  0
 15 24  1  0
 16 17  1  0
 16 18  1  0
 18 19  1  0
 19 20  1  0
 19 24  2  0
 20 21  2  0
 21 22  1  0
 22 23  2  0
 22 25  1  0
 23 24  1  0
 25 26  1  0
 26 27  1  0
 26 31  1  0
 27 28  1  0
 28 29  1  0
 29 30  1  0
 29 32  1  0
 30 31  1  0
 32 33  2  3
 32 34  1  0
  1 35  1  0
  3 36  1  0
  3 37  1  0
  5 38  1  0
  7 39  1  0
  9 40  1  0
 10 41  1  0
 12 42  1  0
 13 43  1  0
 14 44  1  0
 14 45  1  0
 17 46  1  0
 17 47  1  0
 17 48  1  0
 18 49  1  0
 20 50  1  0
 21 51  1  0
 23 52  1  0
 26 53  1  0
 27 54  1  0
 27 55  1  0
 28 56  1  0
 28 57  1  0
 30 58  1  0
 30 59  1  0
 31 60  1  0
 31 61  1  0
 33 62  1  0
 34 63  1  0
 34 64  1  0
 34 65  1  0
M  CHG  1  15   1
A    1
N1
A    2
C1
A    3
N2
A    4
C2
A    5
C3
A    6
C4
A    7
C5
A    8
C6
A    9
C7
A   10
C8
A   11
C9
A   12
C10
A   13
C11
A   14
C12
A   15
N21
A   16
C21
A   17
C22
A   18
N22
A   19
C23
A   20
C24
A   21
C25
A   22
C26
A   23
C27
A   24
C28
A   25
O
A   26
C31
A   27
C32
A   28
C33
A   29
N31
A   30
C34
A   31
C35
A   32
C36
A   33
N32
A   34
C37
M  END
