1QCF_PP1_A_532
     RDKit          3D

 40 42  0  0  0  0  0  0  0  0999 V2000
   26.4280   31.4610   39.6680 N   0  0  0  0  0  0  0  0  0  0  0  0
   26.4660   28.9640   36.8630 C   0  0  0  0  0  0  0  0  0  0  0  0
   26.8600   30.0840   37.5840 N   0  0  0  0  0  0  0  0  0  0  0  0
   26.2270   30.4170   38.7760 C   0  0  0  0  0  0  0  0  0  0  0  0
   25.1860   29.6320   39.2570 C   0  0  0  0  0  0  0  0  0  0  0  0
   24.7890   28.5060   38.5210 C   0  0  0  0  0  0  0  0  0  0  0  0
   25.4280   28.1830   37.3360 N   0  0  0  0  0  0  0  0  0  0  0  0
   25.5200   31.3110   40.6990 N   0  0  0  0  0  0  0  0  0  0  0  0
   24.7540   30.1870   40.4540 C   0  0  0  0  0  0  0  0  0  0  0  0
   23.7760   27.7240   38.9450 N   0  0  0  0  0  0  0  0  0  0  0  0
   23.7500   29.8980   41.4850 C   0  0  0  0  0  0  0  0  0  0  0  0
   23.7840   28.6450   42.1270 C   0  0  0  0  0  0  0  0  0  0  0  0
   22.8520   28.3310   43.1240 C   0  0  0  0  0  0  0  0  0  0  0  0
   21.8750   29.2650   43.4940 C   0  0  0  0  0  0  0  0  0  0  0  0
   21.8270   30.5270   42.8570 C   0  0  0  0  0  0  0  0  0  0  0  0
   22.7690   30.8460   41.8470 C   0  0  0  0  0  0  0  0  0  0  0  0
   20.8820   28.9100   44.5720 C   0  0  0  0  0  0  0  0  0  0  0  0
   27.3650   32.5990   39.4610 C   0  0  0  0  0  0  0  0  0  0  0  0
   27.1890   33.7010   40.5090 C   0  0  0  0  0  0  0  0  0  0  0  0
   27.1830   33.2930   38.1110 C   0  0  0  0  0  0  0  0  0  0  0  0
   28.8370   32.1700   39.5350 C   0  0  0  0  0  0  0  0  0  0  0  0
   26.9753   28.7009   35.9242 H   0  0  0  0  0  0  0  0  0  0  0  0
   23.6111   27.5967   39.9537 H   0  0  0  0  0  0  0  0  0  0  0  0
   23.1670   27.2538   38.2602 H   0  0  0  0  0  0  0  0  0  0  0  0
   24.5487   27.9070   41.8431 H   0  0  0  0  0  0  0  0  0  0  0  0
   22.8869   27.3487   43.6179 H   0  0  0  0  0  0  0  0  0  0  0  0
   21.0593   31.2602   43.1452 H   0  0  0  0  0  0  0  0  0  0  0  0
   22.7357   31.8260   41.3486 H   0  0  0  0  0  0  0  0  0  0  0  0
   21.3386   29.0733   45.5593 H   0  0  0  0  0  0  0  0  0  0  0  0
   19.9892   29.5446   44.4715 H   0  0  0  0  0  0  0  0  0  0  0  0
   20.5939   27.8532   44.4715 H   0  0  0  0  0  0  0  0  0  0  0  0
   27.2588   33.2639   41.5160 H   0  0  0  0  0  0  0  0  0  0  0  0
   27.9778   34.4571   40.3820 H   0  0  0  0  0  0  0  0  0  0  0  0
   26.2040   34.1738   40.3820 H   0  0  0  0  0  0  0  0  0  0  0  0
   26.9070   34.3453   38.2739 H   0  0  0  0  0  0  0  0  0  0  0  0
   28.1243   33.2444   37.5439 H   0  0  0  0  0  0  0  0  0  0  0  0
   26.3867   32.7887   37.5439 H   0  0  0  0  0  0  0  0  0  0  0  0
   29.1406   32.0815   40.5886 H   0  0  0  0  0  0  0  0  0  0  0  0
   28.9613   31.1983   39.0347 H   0  0  0  0  0  0  0  0  0  0  0  0
   29.4639   32.9228   39.0347 H   0  0  0  0  0  0  0  0  0  0  0  0
  1  4  1  0
  1  8  1  0
  1 18  1  0
  2  3  1  0
  2  7  2  0
  3  4  2  0
  4  5  1  0
  5  6  2  0
  5  9  1  0
  6  7  1  0
  6 10  1  0
  8  9  2  0
  9 11  1  0
 11 12  2  0
 11 16  1  0
 12 13  1  0
 13 14  2  0
 14 15  1  0
 14 17  1  0
 15 16  2  0
 18 19  1  0
 18 20  1  0
 18 21  1  0
  2 22  1  0
 10 23  1  0
 10 24  1  0
 12 25  1  0
 13 26  1  0
 15 27  1  0
 16 28  1  0
 17 29  1  0
 17 30  1  0
 17 31  1  0
 19 32  1  0
 19 33  1  0
 19 34  1  0
 20 35  1  0
 20 36  1  0
 20 37  1  0
 21 38  1  0
 21 39  1  0
 21 40  1  0
A    1
N1
A    2
C2
A    3
N3
A    4
C4
A    5
C5
A    6
C6
A    7
N7
A    8
N8
A    9
C9
A   10
N10
A   11
C11
A   12
C12
A   13
C13
A   14
C14
A   15
C15
A   16
C16
A   17
C24
A   18
C28
A   19
C29
A   20
C33
A   21
C37
M  END
