1QF0_TI2_A_317
     RDKit          3D

 63 65  0  0  0  0  0  0  0  0999 V2000
   34.2260   43.1720   -6.9870 S   0  0  0  0  0  0  0  0  0  0  0  0
   34.6030   41.5420   -6.2280 C   0  0  0  0  0  0  0  0  0  0  0  0
   35.0560   40.5030   -7.2400 C   0  0  0  0  0  0  0  0  0  0  0  0
   33.9310   39.7730   -7.8610 C   0  0  0  0  0  0  0  0  0  0  0  0
   33.4910   40.1050   -9.1270 C   0  0  0  0  0  0  0  0  0  0  0  0
   33.2620   38.7820   -7.1420 C   0  0  0  0  0  0  0  0  0  0  0  0
   32.3900   39.4670   -9.6770 C   0  0  0  0  0  0  0  0  0  0  0  0
   32.1680   38.1390   -7.6770 C   0  0  0  0  0  0  0  0  0  0  0  0
   31.7230   38.4810   -8.9510 C   0  0  0  0  0  0  0  0  0  0  0  0
   35.7580   41.9180   -5.3220 C   0  0  0  0  0  0  0  0  0  0  0  0
   36.8010   42.3790   -5.7990 O   0  0  0  0  0  0  0  0  0  0  0  0
   35.5420   41.8020   -4.0220 N   0  0  0  0  0  0  0  0  0  0  0  0
   36.5570   42.1750   -3.0600 C   0  0  0  0  0  0  0  0  0  0  0  0
   35.9360   42.2750   -1.6710 C   0  0  0  0  0  0  0  0  0  0  0  0
   36.8080   42.9630   -0.6820 C   0  0  0  0  0  0  0  0  0  0  0  0
   37.1480   44.3040   -0.8620 C   0  0  0  0  0  0  0  0  0  0  0  0
   37.3170   42.2770    0.4140 C   0  0  0  0  0  0  0  0  0  0  0  0
   37.9910   44.9590    0.0440 C   0  0  0  0  0  0  0  0  0  0  0  0
   38.1610   42.9220    1.3260 C   0  0  0  0  0  0  0  0  0  0  0  0
   38.4980   44.2650    1.1400 C   0  0  0  0  0  0  0  0  0  0  0  0
   37.7240   41.2050   -3.0120 C   0  0  0  0  0  0  0  0  0  0  0  0
   38.8880   41.6100   -2.9040 O   0  0  0  0  0  0  0  0  0  0  0  0
   37.3860   39.9280   -3.1110 N   0  0  0  0  0  0  0  0  0  0  0  0
   38.3190   38.8210   -3.0360 C   0  0  0  0  0  0  0  0  0  0  0  0
   37.6990   37.8180   -2.0690 C   0  0  0  0  0  0  0  0  0  0  0  0
   38.5660   36.7060   -1.5080 C   0  0  0  0  0  0  0  0  0  0  0  0
   39.9190   36.9140   -1.2320 C   0  0  0  0  0  0  0  0  0  0  0  0
   40.6780   35.8700   -0.6830 C   0  0  0  0  0  0  0  0  0  0  0  0
   37.9620   35.4710   -1.2490 C   0  0  0  0  0  0  0  0  0  0  0  0
   38.7180   34.4310   -0.6980 C   0  0  0  0  0  0  0  0  0  0  0  0
   40.0750   34.6300   -0.4140 C   0  0  0  0  0  0  0  0  0  0  0  0
   40.8060   33.6190    0.1270 O   0  0  0  0  0  0  0  0  0  0  0  0
   38.4740   38.2180   -4.4360 C   0  0  0  0  0  0  0  0  0  0  0  0
   37.4580   38.0600   -5.1470 O   0  0  0  0  0  0  0  0  0  0  0  0
   39.6150   37.9430   -4.8370 O   0  0  0  0  0  0  0  0  0  0  0  0
   34.0120   44.0971   -5.9994 H   0  0  0  0  0  0  0  0  0  0  0  0
   33.7322   41.0821   -5.7379 H   0  0  0  0  0  0  0  0  0  0  0  0
   35.6248   41.0107   -8.0329 H   0  0  0  0  0  0  0  0  0  0  0  0
   35.6699   39.7656   -6.7022 H   0  0  0  0  0  0  0  0  0  0  0  0
   34.0174   40.8806   -9.7027 H   0  0  0  0  0  0  0  0  0  0  0  0
   33.6128   38.5109   -6.1353 H   0  0  0  0  0  0  0  0  0  0  0  0
   32.0430   39.7383  -10.6850 H   0  0  0  0  0  0  0  0  0  0  0  0
   31.6485   37.3593   -7.1007 H   0  0  0  0  0  0  0  0  0  0  0  0
   30.8475   37.9747   -9.3837 H   0  0  0  0  0  0  0  0  0  0  0  0
   34.6369   41.4404   -3.6891 H   0  0  0  0  0  0  0  0  0  0  0  0
   36.9548   43.1476   -3.3852 H   0  0  0  0  0  0  0  0  0  0  0  0
   34.9915   42.8331   -1.7508 H   0  0  0  0  0  0  0  0  0  0  0  0
   35.7827   41.2476   -1.3092 H   0  0  0  0  0  0  0  0  0  0  0  0
   36.7486   44.8539   -1.7269 H   0  0  0  0  0  0  0  0  0  0  0  0
   37.0549   41.2196    0.5662 H   0  0  0  0  0  0  0  0  0  0  0  0
   38.2516   46.0167   -0.1091 H   0  0  0  0  0  0  0  0  0  0  0  0
   38.5594   42.3705    2.1904 H   0  0  0  0  0  0  0  0  0  0  0  0
   39.1611   44.7723    1.8562 H   0  0  0  0  0  0  0  0  0  0  0  0
   36.3900   39.7059   -3.2512 H   0  0  0  0  0  0  0  0  0  0  0  0
   39.3174   39.1236   -2.6874 H   0  0  0  0  0  0  0  0  0  0  0  0
   37.3150   38.3910   -1.2122 H   0  0  0  0  0  0  0  0  0  0  0  0
   36.9527   37.2887   -2.6797 H   0  0  0  0  0  0  0  0  0  0  0  0
   40.3853   37.8876   -1.4432 H   0  0  0  0  0  0  0  0  0  0  0  0
   41.7450   36.0221   -0.4632 H   0  0  0  0  0  0  0  0  0  0  0  0
   36.8969   35.3184   -1.4777 H   0  0  0  0  0  0  0  0  0  0  0  0
   38.2478   33.4590   -0.4882 H   0  0  0  0  0  0  0  0  0  0  0  0
   40.8722   33.5274    1.1105 H   0  0  0  0  0  0  0  0  0  0  0  0
   40.3399   37.7683   -4.1857 H   0  0  0  0  0  0  0  0  0  0  0  0
  1  2  1  0
  2  3  1  0
  2 10  1  0
  3  4  1  0
  4  5  2  0
  4  6  1  0
  5  7  1  0
  6  8  2  0
  7  9  2  0
  8  9  1  0
 10 11  2  0
 10 12  1  0
 12 13  1  0
 13 14  1  0
 13 21  1  0
 14 15  1  0
 15 16  2  0
 15 17  1  0
 16 18  1  0
 17 19  2  0
 18 20  2  0
 19 20  1  0
 21 22  2  0
 21 23  1  0
 23 24  1  0
 24 25  1  0
 24 33  1  0
 25 26  1  0
 26 27  2  0
 26 29  1  0
 27 28  1  0
 28 31  2  0
 29 30  2  0
 30 31  1  0
 31 32  1  0
 33 34  2  0
 33 35  1  0
  1 36  1  0
  2 37  1  0
  3 38  1  0
  3 39  1  0
  5 40  1  0
  6 41  1  0
  7 42  1  0
  8 43  1  0
  9 44  1  0
 12 45  1  0
 13 46  1  0
 14 47  1  0
 14 48  1  0
 16 49  1  0
 17 50  1  0
 18 51  1  0
 19 52  1  0
 20 53  1  0
 23 54  1  0
 24 55  1  0
 25 56  1  0
 25 57  1  0
 27 58  1  0
 28 59  1  0
 29 60  1  0
 30 61  1  0
 32 62  1  0
 35 63  1  0
A    1
SG
A    2
CA1
A    3
CB1
A    4
CG1
A    5
CD1
A    6
CD2
A    7
CE1
A    8
CE2
A    9
CZ1
A   10
C1
A   11
O1
A   12
N2
A   13
CA2
A   14
CB2
A   15
CG2
A   16
CD3
A   17
CD4
A   18
CE3
A   19
CE4
A   20
CZ2
A   21
C2
A   22
O2
A   23
N3
A   24
CA3
A   25
CB3
A   26
CG3
A   27
CD5
A   28
CE5
A   29
CD6
A   30
CE6
A   31
CZ3
A   32
OH
A   33
C3
A   34
O3
A   35
OXT
M  END
