1QF5_RPL_A_435
     RDKit          3D

 52 53  0  0  0  0  0  0  0  0999 V2000
   25.2110   11.8440   23.9120 O   0  0  0  0  0  0  0  0  0  0  0  0
   27.2260   12.7610   23.0160 O   0  0  0  0  0  0  0  0  0  0  0  0
   25.0750   13.5570   22.2830 O   0  0  0  0  0  0  0  0  0  0  0  0
   25.8210   13.0640   23.4200 P   0  0  0  0  0  0  0  0  0  0  0  0
   25.8650   14.1420   24.6270 O   0  0  0  0  0  0  0  0  0  0  0  0
   26.3270   13.8490   25.9290 C   0  0  0  0  0  0  0  0  0  0  0  0
   27.1680   14.9930   26.4930 C   0  0  0  0  0  0  0  0  0  0  0  0
   28.4210   15.0700   25.8250 O   0  0  0  0  0  0  0  0  0  0  0  0
   26.5510   16.3600   26.2920 C   0  0  0  0  0  0  0  0  0  0  0  0
   27.1360   17.3120   27.1880 O   0  0  0  0  0  0  0  0  0  0  0  0
   27.0050   16.6590   24.8400 C   0  0  0  0  0  0  0  0  0  0  0  0
   27.0320   18.0710   24.6620 O   0  0  0  0  0  0  0  0  0  0  0  0
   28.4450   16.0750   24.7460 C   0  0  0  0  0  0  0  0  0  0  0  0
   28.5530   15.4530   23.5410 N   0  0  0  0  0  0  0  0  0  0  0  0
   29.6160   15.9590   22.8240 C   0  0  0  0  0  0  0  0  0  0  0  0
   29.9260   15.5830   21.7460 O   0  0  0  0  0  0  0  0  0  0  0  0
   30.2370   16.9470   23.5760 N   0  0  0  0  0  0  0  0  0  0  0  0
   29.5210   17.0280   24.7520 C   0  0  0  0  0  0  0  0  0  0  0  0
   29.8460   17.8340   25.6210 O   0  0  0  0  0  0  0  0  0  0  0  0
   31.4080   17.7670   23.2140 C   0  0  0  0  0  0  0  0  0  0  0  0
   31.1690   18.4570   21.8620 C   0  0  0  0  0  0  0  0  0  0  0  0
   30.0270   19.5020   21.9470 C   0  0  0  0  0  0  0  0  0  0  0  0
   29.5780   19.9160   20.5100 C   0  0  0  0  0  0  0  0  0  0  0  0
   28.2700   20.7080   20.5480 C   0  0  0  0  0  0  0  0  0  0  0  0
   27.9690   21.5230   19.5170 O   0  0  0  0  0  0  0  0  0  0  0  0
   27.4300   20.6180   21.5970 O   0  0  0  0  0  0  0  0  0  0  0  0
   30.5980   20.7990   19.8170 N   0  0  0  0  0  0  0  0  0  0  0  0
   31.1570   21.7600   20.7650 O   0  0  0  0  0  0  0  0  0  0  0  0
   31.6790   19.9990   19.2370 C   0  0  0  0  0  0  0  0  0  0  0  0
   32.3850   20.7200   18.2300 O   0  0  0  0  0  0  0  0  0  0  0  0
   27.7834   12.6408   23.8253 H   0  0  0  0  0  0  0  0  0  0  0  0
   24.2927   14.0740   22.6006 H   0  0  0  0  0  0  0  0  0  0  0  0
   25.4613   13.6832   26.5870 H   0  0  0  0  0  0  0  0  0  0  0  0
   26.9570   12.9487   25.8782 H   0  0  0  0  0  0  0  0  0  0  0  0
   27.2531   14.7627   27.5652 H   0  0  0  0  0  0  0  0  0  0  0  0
   25.4658   16.4049   26.4663 H   0  0  0  0  0  0  0  0  0  0  0  0
   26.9651   17.0339   28.1226 H   0  0  0  0  0  0  0  0  0  0  0  0
   26.3422   16.2274   24.0755 H   0  0  0  0  0  0  0  0  0  0  0  0
   27.0405   18.5150   25.5468 H   0  0  0  0  0  0  0  0  0  0  0  0
   27.9261   14.7060   23.2096 H   0  0  0  0  0  0  0  0  0  0  0  0
   31.5715   18.5306   23.9887 H   0  0  0  0  0  0  0  0  0  0  0  0
   32.2930   17.1183   23.1367 H   0  0  0  0  0  0  0  0  0  0  0  0
   32.0944   18.9644   21.5519 H   0  0  0  0  0  0  0  0  0  0  0  0
   30.8776   17.6885   21.1309 H   0  0  0  0  0  0  0  0  0  0  0  0
   29.1724   19.0655   22.4847 H   0  0  0  0  0  0  0  0  0  0  0  0
   30.3889   20.3913   22.4838 H   0  0  0  0  0  0  0  0  0  0  0  0
   29.4593   18.9720   19.9579 H   0  0  0  0  0  0  0  0  0  0  0  0
   27.6313   22.4372   19.6910 H   0  0  0  0  0  0  0  0  0  0  0  0
   30.9787   21.4536   21.6893 H   0  0  0  0  0  0  0  0  0  0  0  0
   32.3827   19.7186   20.0346 H   0  0  0  0  0  0  0  0  0  0  0  0
   31.2346   19.1064   18.7725 H   0  0  0  0  0  0  0  0  0  0  0  0
   33.0097   21.3580   18.6576 H   0  0  0  0  0  0  0  0  0  0  0  0
  1  4  2  0
  2  4  1  0
  3  4  1  0
  4  5  1  0
  5  6  1  0
  6  7  1  0
  7  8  1  0
  7  9  1  0
  8 13  1  0
  9 10  1  0
  9 11  1  0
 11 12  1  0
 11 13  1  0
 13 14  1  0
 13 18  1  0
 14 15  1  0
 15 16  2  0
 15 17  1  0
 17 18  1  0
 17 20  1  0
 18 19  2  0
 20 21  1  0
 21 22  1  0
 22 23  1  0
 23 24  1  0
 23 27  1  0
 24 25  1  0
 24 26  2  0
 27 28  1  0
 27 29  1  0
 29 30  1  0
  2 31  1  0
  3 32  1  0
  6 33  1  0
  6 34  1  0
  7 35  1  0
  9 36  1  0
 10 37  1  0
 11 38  1  0
 12 39  1  0
 14 40  1  0
 20 41  1  0
 20 42  1  0
 21 43  1  0
 21 44  1  0
 22 45  1  0
 22 46  1  0
 23 47  1  0
 25 48  1  0
 28 49  1  0
 29 50  1  0
 29 51  1  0
 30 52  1  0
A    1
O1P
A    2
O2P
A    3
O3P
A    4
P
A    5
O5'
A    6
C5'
A    7
C4'
A    8
O4'
A    9
C3'
A   10
O3'
A   11
C2'
A   12
O2'
A   13
C1'
A   14
N1
A   15
C2
A   16
O2
A   17
N3
A   18
C4
A   19
O4
A   20
C5A
A   21
C6A
A   22
C7A
A   23
C8A
A   24
C9A
A   25
OJA
A   26
OKA
A   27
NAA
A   28
OAA
A   29
CBA
A   30
OBA
M  END
