1QGL_EJT_A_238
     RDKit          3D

 87 89  0  0  0  0  0  0  0  0999 V2000
   13.6750   55.7280   63.2740 C   0  0  0  0  0  0  0  0  0  0  0  0
   13.3700   57.0750   63.2500 O   0  0  0  0  0  0  0  0  0  0  0  0
   14.5720   55.4070   62.1090 C   0  0  0  0  0  0  0  0  0  0  0  0
   14.8880   54.0370   62.1630 O   0  0  0  0  0  0  0  0  0  0  0  0
   13.8350   55.7080   60.8070 C   0  0  0  0  0  0  0  0  0  0  0  0
   14.6500   55.3610   59.7010 O   0  0  0  0  0  0  0  0  0  0  0  0
   12.5310   54.9130   60.7570 C   0  0  0  0  0  0  0  0  0  0  0  0
   11.8020   55.2340   59.5840 O   0  0  0  0  0  0  0  0  0  0  0  0
   11.6960   55.2480   61.9870 C   0  0  0  0  0  0  0  0  0  0  0  0
   12.4550   54.9640   63.1820 O   0  0  0  0  0  0  0  0  0  0  0  0
   10.4500   54.4050   62.0470 C   0  0  0  0  0  0  0  0  0  0  0  0
   10.7760   53.0250   62.1070 O   0  0  0  0  0  0  0  0  0  0  0  0
   15.7870   55.4910   76.3370 C   0  0  0  0  0  0  0  0  0  0  0  0
   16.0810   56.8180   76.0560 O   0  0  0  0  0  0  0  0  0  0  0  0
   15.9210   55.2310   77.8230 C   0  0  0  0  0  0  0  0  0  0  0  0
   15.6760   53.8560   78.0590 O   0  0  0  0  0  0  0  0  0  0  0  0
   17.3470   55.5700   78.2640 C   0  0  0  0  0  0  0  0  0  0  0  0
   17.5050   55.2870   79.6420 O   0  0  0  0  0  0  0  0  0  0  0  0
   18.3520   54.7510   77.4630 C   0  0  0  0  0  0  0  0  0  0  0  0
   19.6620   55.1770   77.7970 O   0  0  0  0  0  0  0  0  0  0  0  0
   18.1060   54.9580   75.9640 C   0  0  0  0  0  0  0  0  0  0  0  0
   16.7270   54.6630   75.6330 O   0  0  0  0  0  0  0  0  0  0  0  0
   18.9690   54.0550   75.1080 C   0  0  0  0  0  0  0  0  0  0  0  0
   18.4630   52.7330   75.1190 O   0  0  0  0  0  0  0  0  0  0  0  0
    9.9740   57.8710   72.1670 C   0  0  0  0  0  0  0  0  0  0  0  0
    9.5260   56.5660   71.7710 N   0  0  0  0  0  0  0  0  0  0  0  0
    9.1590   55.4600   71.4090 N   0  0  0  0  0  0  0  0  0  0  0  0
    8.8300   54.4310   71.0690 N   0  0  0  0  0  0  0  0  0  0  0  0
   11.0140   58.3060   71.1910 C   0  0  0  0  0  0  0  0  0  0  0  0
   10.6520   58.5470   69.8850 C   0  0  0  0  0  0  0  0  0  0  0  0
   11.5940   58.8150   68.9240 C   0  0  0  0  0  0  0  0  0  0  0  0
   12.3780   58.3540   71.5160 C   0  0  0  0  0  0  0  0  0  0  0  0
   13.3140   58.6350   70.5300 C   0  0  0  0  0  0  0  0  0  0  0  0
   12.9410   58.8650   69.2150 C   0  0  0  0  0  0  0  0  0  0  0  0
   10.9730   58.9680   67.5680 C   0  0  0  0  0  0  0  0  0  0  0  0
    9.7540   58.8490   67.4290 O   0  0  0  0  0  0  0  0  0  0  0  0
   11.7720   59.2190   66.5470 N   0  0  0  0  0  0  0  0  0  0  0  0
   11.2580   59.3770   65.2030 C   0  0  0  0  0  0  0  0  0  0  0  0
   12.2330   58.9310   64.1690 C   0  0  0  0  0  0  0  0  0  0  0  0
   12.5180   57.4670   64.2980 C   0  0  0  0  0  0  0  0  0  0  0  0
   14.7270   58.7870   71.0360 C   0  0  0  0  0  0  0  0  0  0  0  0
   15.6420   59.0230   70.2490 O   0  0  0  0  0  0  0  0  0  0  0  0
   14.9470   58.6570   72.3350 N   0  0  0  0  0  0  0  0  0  0  0  0
   16.2660   58.8390   72.9370 C   0  0  0  0  0  0  0  0  0  0  0  0
   16.2870   58.5660   74.4270 C   0  0  0  0  0  0  0  0  0  0  0  0
   15.9050   57.1370   74.6940 C   0  0  0  0  0  0  0  0  0  0  0  0
   14.1909   55.4734   64.2116 H   0  0  0  0  0  0  0  0  0  0  0  0
   15.4897   56.0119   62.1527 H   0  0  0  0  0  0  0  0  0  0  0  0
   14.9541   53.7506   63.1084 H   0  0  0  0  0  0  0  0  0  0  0  0
   13.6063   56.7830   60.7624 H   0  0  0  0  0  0  0  0  0  0  0  0
   15.5101   54.9948   60.0269 H   0  0  0  0  0  0  0  0  0  0  0  0
   12.7632   53.8379   60.7430 H   0  0  0  0  0  0  0  0  0  0  0  0
   10.9256   55.6199   59.8354 H   0  0  0  0  0  0  0  0  0  0  0  0
   11.4277   56.3128   61.9212 H   0  0  0  0  0  0  0  0  0  0  0  0
    9.8728   54.6782   62.9427 H   0  0  0  0  0  0  0  0  0  0  0  0
    9.8575   54.5875   61.1384 H   0  0  0  0  0  0  0  0  0  0  0  0
   10.8427   52.7425   63.0535 H   0  0  0  0  0  0  0  0  0  0  0  0
   14.7564   55.2662   76.0252 H   0  0  0  0  0  0  0  0  0  0  0  0
   15.2049   55.8481   78.3855 H   0  0  0  0  0  0  0  0  0  0  0  0
   15.6462   53.6888   79.0343 H   0  0  0  0  0  0  0  0  0  0  0  0
   17.5263   56.6405   78.0857 H   0  0  0  0  0  0  0  0  0  0  0  0
   17.0989   56.0143   80.1769 H   0  0  0  0  0  0  0  0  0  0  0  0
   18.2376   53.6831   77.7006 H   0  0  0  0  0  0  0  0  0  0  0  0
   19.7578   55.2082   78.7819 H   0  0  0  0  0  0  0  0  0  0  0  0
   18.3552   56.0093   75.7572 H   0  0  0  0  0  0  0  0  0  0  0  0
   18.9747   54.4323   74.0747 H   0  0  0  0  0  0  0  0  0  0  0  0
   19.9913   54.0490   75.5140 H   0  0  0  0  0  0  0  0  0  0  0  0
   18.3476   52.4316   76.0549 H   0  0  0  0  0  0  0  0  0  0  0  0
    9.1303   58.5767   72.1556 H   0  0  0  0  0  0  0  0  0  0  0  0
   10.3874   57.8448   73.1860 H   0  0  0  0  0  0  0  0  0  0  0  0
    9.5880   58.5243   69.6067 H   0  0  0  0  0  0  0  0  0  0  0  0
   12.7051   58.1694   72.5499 H   0  0  0  0  0  0  0  0  0  0  0  0
   13.6880   59.0784   68.4363 H   0  0  0  0  0  0  0  0  0  0  0  0
   12.7853   59.3044   66.7109 H   0  0  0  0  0  0  0  0  0  0  0  0
   10.3390   58.7807   65.1033 H   0  0  0  0  0  0  0  0  0  0  0  0
   11.0619   60.4472   65.0413 H   0  0  0  0  0  0  0  0  0  0  0  0
   11.8154   59.1298   63.1710 H   0  0  0  0  0  0  0  0  0  0  0  0
   13.1726   59.4852   64.3104 H   0  0  0  0  0  0  0  0  0  0  0  0
   11.5766   56.9010   64.2400 H   0  0  0  0  0  0  0  0  0  0  0  0
   13.0001   57.2649   65.2658 H   0  0  0  0  0  0  0  0  0  0  0  0
   14.1544   58.4173   72.9476 H   0  0  0  0  0  0  0  0  0  0  0  0
   16.9716   58.1525   72.4462 H   0  0  0  0  0  0  0  0  0  0  0  0
   16.5467   59.8930   72.7947 H   0  0  0  0  0  0  0  0  0  0  0  0
   17.2987   58.7514   74.8169 H   0  0  0  0  0  0  0  0  0  0  0  0
   15.5668   59.2312   74.9258 H   0  0  0  0  0  0  0  0  0  0  0  0
   16.5368   56.4747   74.0839 H   0  0  0  0  0  0  0  0  0  0  0  0
   14.8449   57.0009   74.4341 H   0  0  0  0  0  0  0  0  0  0  0  0
  1  2  1  0
  1  3  1  0
  1 10  1  0
  2 40  1  0
  3  4  1  0
  3  5  1  0
  5  6  1  0
  5  7  1  0
  7  8  1  0
  7  9  1  0
  9 10  1  0
  9 11  1  0
 11 12  1  0
 13 14  1  0
 13 15  1  0
 13 22  1  0
 14 46  1  0
 15 16  1  0
 15 17  1  0
 17 18  1  0
 17 19  1  0
 19 20  1  0
 19 21  1  0
 21 22  1  0
 21 23  1  0
 23 24  1  0
 25 26  1  0
 25 29  1  0
 26 27  2  3
 27 28  2  0
 29 30  2  0
 29 32  1  0
 30 31  1  0
 31 34  2  0
 31 35  1  0
 32 33  2  0
 33 34  1  0
 33 41  1  0
 35 36  2  0
 35 37  1  0
 37 38  1  0
 38 39  1  0
 39 40  1  0
 41 42  2  0
 41 43  1  0
 43 44  1  0
 44 45  1  0
 45 46  1  0
  1 47  1  0
  3 48  1  0
  4 49  1  0
  5 50  1  0
  6 51  1  0
  7 52  1  0
  8 53  1  0
  9 54  1  0
 11 55  1  0
 11 56  1  0
 12 57  1  0
 13 58  1  0
 15 59  1  0
 16 60  1  0
 17 61  1  0
 18 62  1  0
 19 63  1  0
 20 64  1  0
 21 65  1  0
 23 66  1  0
 23 67  1  0
 24 68  1  0
 25 69  1  0
 25 70  1  0
 30 71  1  0
 32 72  1  0
 34 73  1  0
 37 74  1  0
 38 75  1  0
 38 76  1  0
 39 77  1  0
 39 78  1  0
 40 79  1  0
 40 80  1  0
 43 81  1  0
 44 82  1  0
 44 83  1  0
 45 84  1  0
 45 85  1  0
 46 86  1  0
 46 87  1  0
M  CHG  2  27   1  28  -1
A    1
C1
A    2
O1
A    3
C2
A    4
O2
A    5
C3
A    6
O3
A    7
C4
A    8
O4
A    9
C5
A   10
O5
A   11
C6
A   12
O6
A   13
CX1
A   14
OX1
A   15
CX2
A   16
OX2
A   17
CX3
A   18
OX3
A   19
CX4
A   20
OX4
A   21
CX5
A   22
OX5
A   23
CX6
A   24
OX6
A   25
CB
A   26
NZ
A   27
NZ2
A   28
NZ3
A   29
CF
A   30
CD1
A   31
CE1
A   32
CD2
A   33
CE2
A   34
CZ
A   35
C
A   36
O
A   37
N
A   38
CG
A   39
CD
A   40
CE
A   41
CX
A   42
OX
A   43
NX
A   44
CXG
A   45
CXD
A   46
CXE
M  END
