1QHI_BPG_A_1
     RDKit          3D

 39 41  0  0  0  0  0  0  0  0999 V2000
   49.5330   82.7660   53.5360 C   0  0  0  0  0  0  0  0  0  0  0  0
   50.6880   81.9810   53.4150 O   0  0  0  0  0  0  0  0  0  0  0  0
   50.1280   84.0790   53.9940 C   0  0  0  0  0  0  0  0  0  0  0  0
   49.0090   84.9770   54.5090 C   0  0  0  0  0  0  0  0  0  0  0  0
   48.3330   84.4090   55.7800 C   0  0  0  0  0  0  0  0  0  0  0  0
   47.2000   85.2040   56.2780 N   0  0  0  0  0  0  0  0  0  0  0  0
   45.9030   85.3630   55.7030 C   0  0  0  0  0  0  0  0  0  0  0  0
   45.4620   84.7860   54.5950 N   0  0  0  0  0  0  0  0  0  0  0  0
   44.1690   85.0400   54.3410 C   0  0  0  0  0  0  0  0  0  0  0  0
   43.6170   84.4720   53.2280 N   0  0  0  0  0  0  0  0  0  0  0  0
   43.3700   85.8900   55.0690 N   0  0  0  0  0  0  0  0  0  0  0  0
   43.8080   86.5240   56.2240 C   0  0  0  0  0  0  0  0  0  0  0  0
   43.0500   87.2500   56.8440 O   0  0  0  0  0  0  0  0  0  0  0  0
   45.1920   86.2010   56.5210 C   0  0  0  0  0  0  0  0  0  0  0  0
   46.0010   86.6040   57.5840 N   0  0  0  0  0  0  0  0  0  0  0  0
   47.1320   85.9790   57.3810 C   0  0  0  0  0  0  0  0  0  0  0  0
   45.3890   81.8380   50.4880 C   0  0  0  0  0  0  0  0  0  0  0  0
   45.8990   81.9210   51.8030 C   0  0  0  0  0  0  0  0  0  0  0  0
   45.3240   82.7950   52.7080 C   0  0  0  0  0  0  0  0  0  0  0  0
   44.2360   83.5720   52.3320 C   0  0  0  0  0  0  0  0  0  0  0  0
   43.7180   83.4810   51.0180 C   0  0  0  0  0  0  0  0  0  0  0  0
   44.2830   82.6070   50.1080 C   0  0  0  0  0  0  0  0  0  0  0  0
   49.0128   82.8717   52.5725 H   0  0  0  0  0  0  0  0  0  0  0  0
   48.7701   82.3519   54.2117 H   0  0  0  0  0  0  0  0  0  0  0  0
   51.0265   81.7509   54.3164 H   0  0  0  0  0  0  0  0  0  0  0  0
   50.8533   83.8942   54.8001 H   0  0  0  0  0  0  0  0  0  0  0  0
   50.6407   84.5686   53.1529 H   0  0  0  0  0  0  0  0  0  0  0  0
   49.4299   85.9656   54.7447 H   0  0  0  0  0  0  0  0  0  0  0  0
   48.2427   85.0417   53.7225 H   0  0  0  0  0  0  0  0  0  0  0  0
   47.9678   83.3969   55.5513 H   0  0  0  0  0  0  0  0  0  0  0  0
   49.0962   84.4234   56.5721 H   0  0  0  0  0  0  0  0  0  0  0  0
   42.6415   84.7282   53.0189 H   0  0  0  0  0  0  0  0  0  0  0  0
   42.4080   86.0633   54.7445 H   0  0  0  0  0  0  0  0  0  0  0  0
   47.9819   86.0796   58.0720 H   0  0  0  0  0  0  0  0  0  0  0  0
   45.8639   81.1652   49.7587 H   0  0  0  0  0  0  0  0  0  0  0  0
   46.7499   81.2931   52.1059 H   0  0  0  0  0  0  0  0  0  0  0  0
   45.7293   82.8748   53.7275 H   0  0  0  0  0  0  0  0  0  0  0  0
   42.8640   84.1071   50.7202 H   0  0  0  0  0  0  0  0  0  0  0  0
   43.8668   82.5167   49.0938 H   0  0  0  0  0  0  0  0  0  0  0  0
  1  2  1  0
  1  3  1  0
  3  4  1  0
  4  5  1  0
  5  6  1  0
  6  7  1  0
  6 16  1  0
  7  8  1  0
  7 14  2  0
  8  9  2  0
  9 10  1  0
  9 11  1  0
 10 20  1  0
 11 12  1  0
 12 13  2  0
 12 14  1  0
 14 15  1  0
 15 16  2  0
 17 18  2  0
 17 22  1  0
 18 19  1  0
 19 20  2  0
 20 21  1  0
 21 22  2  0
  1 23  1  0
  1 24  1  0
  2 25  1  0
  3 26  1  0
  3 27  1  0
  4 28  1  0
  4 29  1  0
  5 30  1  0
  5 31  1  0
 10 32  1  0
 11 33  1  0
 16 34  1  0
 17 35  1  0
 18 36  1  0
 19 37  1  0
 21 38  1  0
 22 39  1  0
A    1
C3'
A    2
O3'
A    3
C2'
A    4
C12
A    5
C1'
A    6
N9
A    7
C4
A    8
N3
A    9
C2
A   10
N2
A   11
N1
A   12
C6
A   13
O6
A   14
C5
A   15
N7
A   16
C8
A   17
C04
A   18
C05
A   19
C06
A   20
C01
A   21
C02
A   22
C03
M  END
