1C7Z_G3H_A_501
     RDKit          3D

 17 16  0  0  0  0  0  0  0  0999 V2000
   27.9970   12.6990   29.3510 O   0  0  0  0  0  0  0  0  0  0  0  0
   27.0670   11.6460   29.2810 C   0  0  0  0  0  0  0  0  0  0  0  0
   27.8100   10.3410   29.1980 C   0  0  0  0  0  0  0  0  0  0  0  0
   27.4960    9.6310   30.3690 O   0  0  0  0  0  0  0  0  0  0  0  0
   27.3190    9.4640   27.9900 C   0  0  0  0  0  0  0  0  0  0  0  0
   26.4060    8.3900   28.3940 O   0  0  0  0  0  0  0  0  0  0  0  0
   24.0560    7.6560   27.4410 O   0  0  0  0  0  0  0  0  0  0  0  0
   24.1810    8.4140   29.7960 O   0  0  0  0  0  0  0  0  0  0  0  0
   24.4410   10.0420   27.9410 O   0  0  0  0  0  0  0  0  0  0  0  0
   24.7510    8.6270   28.3940 P   0  0  0  0  0  0  0  0  0  0  0  0
   25.9728   11.7588   29.2861 H   0  0  0  0  0  0  0  0  0  0  0  0
   28.8837   10.5450   29.0730 H   0  0  0  0  0  0  0  0  0  0  0  0
   27.7369   10.1757   31.1598 H   0  0  0  0  0  0  0  0  0  0  0  0
   26.7980   10.1155   27.2731 H   0  0  0  0  0  0  0  0  0  0  0  0
   28.2068    8.9906   27.5455 H   0  0  0  0  0  0  0  0  0  0  0  0
   24.8600    8.6677   30.4703 H   0  0  0  0  0  0  0  0  0  0  0  0
   24.3140   10.6218   28.7333 H   0  0  0  0  0  0  0  0  0  0  0  0
  1  2  2  0
  2  3  1  0
  3  4  1  0
  3  5  1  0
  5  6  1  0
  6 10  1  0
  7 10  2  0
  8 10  1  0
  9 10  1  0
  2 11  1  0
  3 12  1  0
  4 13  1  0
  5 14  1  0
  5 15  1  0
  8 16  1  0
  9 17  1  0
A    1
O1
A    2
C1
A    3
C2
A    4
O2
A    5
C3
A    6
O1P
A    7
O2P
A    8
O3P
A    9
O4P
A   10
P
M  END
