1QIQ_ACC_A_332
     RDKit          3D

 48 47  0  0  0  0  0  0  0  0999 V2000
    8.9170   38.3830    4.7590 C   0  0  0  0  0  0  0  0  0  0  0  0
    7.5820   38.5260    4.7700 N   0  0  0  0  0  0  0  0  0  0  0  0
    9.6940   39.6900    4.8570 C   0  0  0  0  0  0  0  0  0  0  0  0
    6.7140   37.5380    4.1910 C   0  0  0  0  0  0  0  0  0  0  0  0
    6.5550   37.7620    2.6850 C   0  0  0  0  0  0  0  0  0  0  0  0
    9.4500   37.3250    4.4980 O   0  0  0  0  0  0  0  0  0  0  0  0
   11.1080   39.4660    4.6580 N   0  0  0  0  0  0  0  0  0  0  0  0
   12.0170   39.6410    5.5920 C   0  0  0  0  0  0  0  0  0  0  0  0
   13.4400   39.3180    5.1710 C   0  0  0  0  0  0  0  0  0  0  0  0
   13.9140   38.0180    5.8260 C   0  0  0  0  0  0  0  0  0  0  0  0
   15.3640   37.7240    5.4090 C   0  0  0  0  0  0  0  0  0  0  0  0
   15.9140   36.4480    6.0420 C   0  0  0  0  0  0  0  0  0  0  0  0
   15.9410   36.6370    7.5240 N   0  0  0  0  0  0  0  0  0  0  0  0
   17.3680   36.2200    5.6480 C   0  0  0  0  0  0  0  0  0  0  0  0
   18.3010   36.2560    6.3980 O   0  0  0  0  0  0  0  0  0  0  0  0
   17.4930   35.9010    4.3660 O   0  0  0  0  0  0  0  0  0  0  0  0
    5.3350   37.4820    4.8240 C   0  0  0  0  0  0  0  0  0  0  0  0
    5.2030   38.2760    5.8970 O   0  0  0  0  0  0  0  0  0  0  0  0
    4.4000   36.8520    4.4020 O   0  0  0  0  0  0  0  0  0  0  0  0
   11.7420   40.0220    6.7300 O   0  0  0  0  0  0  0  0  0  0  0  0
    9.2520   40.6270    3.7390 C   0  0  0  0  0  0  0  0  0  0  0  0
    9.5260   39.9530    2.0640 S   0  0  0  0  0  0  0  0  0  0  0  0
    5.9850   39.4050    2.2500 S   0  0  0  0  0  0  0  0  0  0  0  0
    4.4070   38.9510    1.5290 C   0  0  0  0  0  0  0  0  0  0  0  0
    7.1700   39.3643    5.2040 H   0  0  0  0  0  0  0  0  0  0  0  0
    9.5039   40.1142    5.8540 H   0  0  0  0  0  0  0  0  0  0  0  0
    7.2071   36.5749    4.3891 H   0  0  0  0  0  0  0  0  0  0  0  0
    7.5309   37.5959    2.2054 H   0  0  0  0  0  0  0  0  0  0  0  0
    5.7871   37.0555    2.3369 H   0  0  0  0  0  0  0  0  0  0  0  0
   11.4224   39.1505    3.7293 H   0  0  0  0  0  0  0  0  0  0  0  0
   13.4768   39.2061    4.0773 H   0  0  0  0  0  0  0  0  0  0  0  0
   14.0995   40.1378    5.4921 H   0  0  0  0  0  0  0  0  0  0  0  0
   13.8621   38.1201    6.9200 H   0  0  0  0  0  0  0  0  0  0  0  0
   13.2672   37.1901    5.5002 H   0  0  0  0  0  0  0  0  0  0  0  0
   15.4004   37.6175    4.3148 H   0  0  0  0  0  0  0  0  0  0  0  0
   15.9856   38.5617    5.7581 H   0  0  0  0  0  0  0  0  0  0  0  0
   15.2823   35.6096    5.7132 H   0  0  0  0  0  0  0  0  0  0  0  0
   15.8110   35.7270    7.9886 H   0  0  0  0  0  0  0  0  0  0  0  0
   16.8478   37.0382    7.8025 H   0  0  0  0  0  0  0  0  0  0  0  0
   15.1828   37.2761    7.8025 H   0  0  0  0  0  0  0  0  0  0  0  0
   18.1501   36.2502    7.3764 H   0  0  0  0  0  0  0  0  0  0  0  0
    5.2668   37.8925    6.8075 H   0  0  0  0  0  0  0  0  0  0  0  0
    8.1776   40.8296    3.8602 H   0  0  0  0  0  0  0  0  0  0  0  0
    9.8632   41.5377    3.8227 H   0  0  0  0  0  0  0  0  0  0  0  0
   10.0407   38.6870    2.1597 H   0  0  0  0  0  0  0  0  0  0  0  0
    3.6837   38.7429    2.3312 H   0  0  0  0  0  0  0  0  0  0  0  0
    4.0364   39.7789    0.9068 H   0  0  0  0  0  0  0  0  0  0  0  0
    4.5330   38.0527    0.9068 H   0  0  0  0  0  0  0  0  0  0  0  0
  1  2  1  0
  1  3  1  0
  1  6  2  0
  2  4  1  0
  3  7  1  0
  3 21  1  0
  4  5  1  0
  4 17  1  0
  5 23  1  0
  7  8  1  0
  8  9  1  0
  8 20  2  0
  9 10  1  0
 10 11  1  0
 11 12  1  0
 12 13  1  0
 12 14  1  0
 14 15  1  0
 14 16  2  0
 17 18  1  0
 17 19  2  0
 21 22  1  0
 23 24  1  0
  2 25  1  0
  3 26  1  0
  4 27  1  0
  5 28  1  0
  5 29  1  0
  7 30  1  0
  9 31  1  0
  9 32  1  0
 10 33  1  0
 10 34  1  0
 11 35  1  0
 11 36  1  0
 12 37  1  0
 13 38  1  0
 13 39  1  0
 13 40  1  0
 15 41  1  0
 18 42  1  0
 21 43  1  0
 21 44  1  0
 22 45  1  0
 24 46  1  0
 24 47  1  0
 24 48  1  0
M  CHG  1  13   1
A    1
C1
A    2
N2
A    3
C3
A    4
C4
A    5
C5
A    6
O6
A    7
N7
A    8
C8
A    9
C9
A   10
C10
A   11
C13
A   12
C16
A   13
N19
A   14
C20
A   15
O21
A   16
O22
A   17
C23
A   18
O25
A   19
O26
A   20
O27
A   21
C35
A   22
S37
A   23
S41
A   24
C42
M  END
