1QJX_W02_1_7002
     RDKit          3D

 45 47  0  0  0  0  0  0  0  0999 V2000
  130.0340 -124.6470   11.9770 O   0  0  0  0  0  0  0  0  0  0  0  0
  128.9260 -124.9580   12.8150 N   0  0  0  0  0  0  0  0  0  0  0  0
  128.3240 -123.8180   13.0370 C   0  0  0  0  0  0  0  0  0  0  0  0
  127.1140 -123.7540   13.8990 C   0  0  0  0  0  0  0  0  0  0  0  0
  128.9720 -122.7670   12.3890 C   0  0  0  0  0  0  0  0  0  0  0  0
  130.0150 -123.3180   11.7510 C   0  0  0  0  0  0  0  0  0  0  0  0
  130.9710 -122.8610   10.7460 C   0  0  0  0  0  0  0  0  0  0  0  0
  132.3750 -122.9740   11.2840 C   0  0  0  0  0  0  0  0  0  0  0  0
  133.3790 -122.4880   10.2680 C   0  0  0  0  0  0  0  0  0  0  0  0
  133.8160 -123.6180    9.6190 O   0  0  0  0  0  0  0  0  0  0  0  0
  134.7750 -123.4840    8.6450 C   0  0  0  0  0  0  0  0  0  0  0  0
  136.1480 -123.6530    8.9630 C   0  0  0  0  0  0  0  0  0  0  0  0
  136.5240 -124.0340   10.3820 C   0  0  0  0  0  0  0  0  0  0  0  0
  137.1710 -123.4660    7.9990 C   0  0  0  0  0  0  0  0  0  0  0  0
  136.8140 -123.0930    6.6770 C   0  0  0  0  0  0  0  0  0  0  0  0
  135.4480 -122.9230    6.3320 C   0  0  0  0  0  0  0  0  0  0  0  0
  134.4530 -123.1220    7.3000 C   0  0  0  0  0  0  0  0  0  0  0  0
  133.0090 -122.9810    6.8590 C   0  0  0  0  0  0  0  0  0  0  0  0
  137.8790 -122.8450    5.6660 N   0  0  0  0  0  0  0  0  0  0  0  0
  139.1000 -123.2280    5.8810 N   0  0  0  0  0  0  0  0  0  0  0  0
  137.6850 -122.2330    4.4800 N   0  0  0  0  0  0  0  0  0  0  0  0
  138.9170 -122.2630    3.9700 C   0  0  0  0  0  0  0  0  0  0  0  0
  139.3480 -121.7010    2.6700 C   0  0  0  0  0  0  0  0  0  0  0  0
  139.7900 -122.8720    4.8180 N   0  0  0  0  0  0  0  0  0  0  0  0
  127.4160 -123.7700   14.9566 H   0  0  0  0  0  0  0  0  0  0  0  0
  126.5629 -122.8255   13.6890 H   0  0  0  0  0  0  0  0  0  0  0  0
  126.4680 -124.6192   13.6890 H   0  0  0  0  0  0  0  0  0  0  0  0
  128.6865 -121.7047   12.3991 H   0  0  0  0  0  0  0  0  0  0  0  0
  130.8755 -123.4817    9.8429 H   0  0  0  0  0  0  0  0  0  0  0  0
  130.7616 -121.8098   10.4987 H   0  0  0  0  0  0  0  0  0  0  0  0
  132.4617 -122.3655   12.1962 H   0  0  0  0  0  0  0  0  0  0  0  0
  132.5829 -124.0308   11.5074 H   0  0  0  0  0  0  0  0  0  0  0  0
  132.9037 -121.7955    9.5577 H   0  0  0  0  0  0  0  0  0  0  0  0
  134.2079 -121.9407   10.7407 H   0  0  0  0  0  0  0  0  0  0  0  0
  135.9333 -123.4355   11.0911 H   0  0  0  0  0  0  0  0  0  0  0  0
  136.3164 -125.1023   10.5420 H   0  0  0  0  0  0  0  0  0  0  0  0
  137.5950 -123.8406   10.5420 H   0  0  0  0  0  0  0  0  0  0  0  0
  138.2270 -123.6081    8.2721 H   0  0  0  0  0  0  0  0  0  0  0  0
  135.1701 -122.6357    5.3072 H   0  0  0  0  0  0  0  0  0  0  0  0
  132.3597 -122.9176    7.7446 H   0  0  0  0  0  0  0  0  0  0  0  0
  132.8972 -122.0677    6.2562 H   0  0  0  0  0  0  0  0  0  0  0  0
  132.7226 -123.8555    6.2562 H   0  0  0  0  0  0  0  0  0  0  0  0
  140.0090 -120.8391    2.8442 H   0  0  0  0  0  0  0  0  0  0  0  0
  139.8903 -122.4697    2.0999 H   0  0  0  0  0  0  0  0  0  0  0  0
  138.4650 -121.3766    2.0999 H   0  0  0  0  0  0  0  0  0  0  0  0
  1  2  1  0
  1  6  1  0
  2  3  2  0
  3  4  1  0
  3  5  1  0
  5  6  2  0
  6  7  1  0
  7  8  1  0
  8  9  1  0
  9 10  1  0
 10 11  1  0
 11 12  2  0
 11 17  1  0
 12 13  1  0
 12 14  1  0
 14 15  2  0
 15 16  1  0
 15 19  1  0
 16 17  2  0
 17 18  1  0
 19 20  1  0
 19 21  1  0
 20 24  2  0
 21 22  2  0
 22 23  1  0
 22 24  1  0
  4 25  1  0
  4 26  1  0
  4 27  1  0
  5 28  1  0
  7 29  1  0
  7 30  1  0
  8 31  1  0
  8 32  1  0
  9 33  1  0
  9 34  1  0
 13 35  1  0
 13 36  1  0
 13 37  1  0
 14 38  1  0
 16 39  1  0
 18 40  1  0
 18 41  1  0
 18 42  1  0
 23 43  1  0
 23 44  1  0
 23 45  1  0
A    1
O1
A    2
N2
A    3
C3
A    4
CM3
A    5
C4
A    6
C5
A    7
C1C
A    8
C2C
A    9
C3C
A   10
O1B
A   11
C1B
A   12
C2B
A   13
CM2
A   14
C3B
A   15
C4B
A   16
C5B
A   17
C6B
A   18
CM6
A   19
N2A
A   20
N1A
A   21
N3A
A   22
C4A
A   23
CM4
A   24
N5A
M  END
