1QJY_W03_1_7003
     RDKit          3D

 46 48  0  0  0  0  0  0  0  0999 V2000
  129.9830 -124.5930   12.0460 O   0  0  0  0  0  0  0  0  0  0  0  0
  128.9530 -124.9240   12.9460 N   0  0  0  0  0  0  0  0  0  0  0  0
  128.3240 -123.8170   13.1900 C   0  0  0  0  0  0  0  0  0  0  0  0
  127.1680 -123.8120   14.1110 C   0  0  0  0  0  0  0  0  0  0  0  0
  128.8870 -122.7530   12.4920 C   0  0  0  0  0  0  0  0  0  0  0  0
  129.9080 -123.2780   11.7990 C   0  0  0  0  0  0  0  0  0  0  0  0
  130.9430 -122.7510   10.8830 C   0  0  0  0  0  0  0  0  0  0  0  0
  132.3620 -123.0590   11.3320 C   0  0  0  0  0  0  0  0  0  0  0  0
  133.3740 -122.5590   10.3190 C   0  0  0  0  0  0  0  0  0  0  0  0
  133.9940 -123.6510    9.7060 O   0  0  0  0  0  0  0  0  0  0  0  0
  134.8800 -123.4730    8.6890 C   0  0  0  0  0  0  0  0  0  0  0  0
  136.2890 -123.6150    8.8770 C   0  0  0  0  0  0  0  0  0  0  0  0
  136.8040 -124.0650   10.2070 C   0  0  0  0  0  0  0  0  0  0  0  0
  137.2260 -123.3420    7.8330 C   0  0  0  0  0  0  0  0  0  0  0  0
  136.7510 -122.9050    6.5630 C   0  0  0  0  0  0  0  0  0  0  0  0
  135.3580 -122.7720    6.3610 C   0  0  0  0  0  0  0  0  0  0  0  0
  134.4490 -123.0550    7.3910 C   0  0  0  0  0  0  0  0  0  0  0  0
  132.9990 -122.9370    7.0260 C   0  0  0  0  0  0  0  0  0  0  0  0
  137.6170 -122.6330    5.4420 C   0  0  0  0  0  0  0  0  0  0  0  0
  137.2000 -121.8710    4.4040 C   0  0  0  0  0  0  0  0  0  0  0  0
  138.9290 -122.9350    5.2900 N   0  0  0  0  0  0  0  0  0  0  0  0
  139.2800 -122.3540    4.1630 C   0  0  0  0  0  0  0  0  0  0  0  0
  140.6690 -122.4970    3.6760 C   0  0  0  0  0  0  0  0  0  0  0  0
  138.2530 -121.6760    3.5710 O   0  0  0  0  0  0  0  0  0  0  0  0
  127.5275 -123.8136   15.1506 H   0  0  0  0  0  0  0  0  0  0  0  0
  126.5620 -122.9112   13.9339 H   0  0  0  0  0  0  0  0  0  0  0  0
  126.5542 -124.7075   13.9339 H   0  0  0  0  0  0  0  0  0  0  0  0
  128.5627 -121.7020   12.5058 H   0  0  0  0  0  0  0  0  0  0  0  0
  130.7878 -123.1959    9.8890 H   0  0  0  0  0  0  0  0  0  0  0  0
  130.8375 -121.6561   10.8704 H   0  0  0  0  0  0  0  0  0  0  0  0
  132.5479 -122.5678   12.2985 H   0  0  0  0  0  0  0  0  0  0  0  0
  132.4705 -124.1496   11.4263 H   0  0  0  0  0  0  0  0  0  0  0  0
  132.8622 -121.9522    9.5575 H   0  0  0  0  0  0  0  0  0  0  0  0
  134.1309 -121.9441   10.8279 H   0  0  0  0  0  0  0  0  0  0  0  0
  136.2357 -123.5685   11.0073 H   0  0  0  0  0  0  0  0  0  0  0  0
  136.6866 -125.1551   10.2960 H   0  0  0  0  0  0  0  0  0  0  0  0
  137.8685 -123.8024   10.2960 H   0  0  0  0  0  0  0  0  0  0  0  0
  138.3045 -123.4682    8.0085 H   0  0  0  0  0  0  0  0  0  0  0  0
  134.9816 -122.4417    5.3816 H   0  0  0  0  0  0  0  0  0  0  0  0
  132.3930 -122.8877    7.9427 H   0  0  0  0  0  0  0  0  0  0  0  0
  132.8431 -122.0232    6.4338 H   0  0  0  0  0  0  0  0  0  0  0  0
  132.6974 -123.8136    6.4338 H   0  0  0  0  0  0  0  0  0  0  0  0
  136.1828 -121.4777    4.2605 H   0  0  0  0  0  0  0  0  0  0  0  0
  141.3531 -122.5674    4.5345 H   0  0  0  0  0  0  0  0  0  0  0  0
  140.7515 -123.4084    3.0656 H   0  0  0  0  0  0  0  0  0  0  0  0
  140.9355 -121.6215    3.0656 H   0  0  0  0  0  0  0  0  0  0  0  0
  1  2  1  0
  1  6  1  0
  2  3  2  0
  3  4  1  0
  3  5  1  0
  5  6  2  0
  6  7  1  0
  7  8  1  0
  8  9  1  0
  9 10  1  0
 10 11  1  0
 11 12  2  0
 11 17  1  0
 12 13  1  0
 12 14  1  0
 14 15  2  0
 15 16  1  0
 15 19  1  0
 16 17  2  0
 17 18  1  0
 19 20  2  0
 19 21  1  0
 20 24  1  0
 21 22  2  0
 22 23  1  0
 22 24  1  0
  4 25  1  0
  4 26  1  0
  4 27  1  0
  5 28  1  0
  7 29  1  0
  7 30  1  0
  8 31  1  0
  8 32  1  0
  9 33  1  0
  9 34  1  0
 13 35  1  0
 13 36  1  0
 13 37  1  0
 14 38  1  0
 16 39  1  0
 18 40  1  0
 18 41  1  0
 18 42  1  0
 20 43  1  0
 23 44  1  0
 23 45  1  0
 23 46  1  0
A    1
O1
A    2
N2
A    3
C3
A    4
CM3
A    5
C4
A    6
C5
A    7
C1C
A    8
C2C
A    9
C3C
A   10
O1B
A   11
C1B
A   12
C2B
A   13
CM2
A   14
C3B
A   15
C4B
A   16
C5B
A   17
C6B
A   18
CM6
A   19
C2A
A   20
C1A
A   21
N3A
A   22
C4A
A   23
CM4
A   24
O5A
M  END
