1QKM_GEN_A_600
     RDKit          3D

 30 32  0  0  0  0  0  0  0  0999 V2000
   19.0240    6.9420  114.6830 C   0  0  0  0  0  0  0  0  0  0  0  0
   18.7150    7.2530  116.0120 C   0  0  0  0  0  0  0  0  0  0  0  0
   17.4740    6.8840  116.5100 O   0  0  0  0  0  0  0  0  0  0  0  0
   19.5540    7.9330  116.8530 C   0  0  0  0  0  0  0  0  0  0  0  0
   20.8110    8.3040  116.3680 C   0  0  0  0  0  0  0  0  0  0  0  0
   21.7120    9.0070  117.1070 O   0  0  0  0  0  0  0  0  0  0  0  0
   21.1690    8.0260  115.0360 C   0  0  0  0  0  0  0  0  0  0  0  0
   22.4650    8.4860  114.4820 C   0  0  0  0  0  0  0  0  0  0  0  0
   23.3280    9.0930  115.0980 O   0  0  0  0  0  0  0  0  0  0  0  0
   22.7310    8.1260  113.0680 C   0  0  0  0  0  0  0  0  0  0  0  0
   21.7980    7.4240  112.3740 C   0  0  0  0  0  0  0  0  0  0  0  0
   20.6000    7.0510  112.9140 O   0  0  0  0  0  0  0  0  0  0  0  0
   20.2900    7.3550  114.2140 C   0  0  0  0  0  0  0  0  0  0  0  0
   23.9720    8.4110  112.2590 C   0  0  0  0  0  0  0  0  0  0  0  0
   25.2480    8.3780  112.8180 C   0  0  0  0  0  0  0  0  0  0  0  0
   26.3820    8.6240  112.0620 C   0  0  0  0  0  0  0  0  0  0  0  0
   26.2570    8.9000  110.7170 C   0  0  0  0  0  0  0  0  0  0  0  0
   27.4010    9.1220  109.9700 O   0  0  0  0  0  0  0  0  0  0  0  0
   24.9990    8.9640  110.1140 C   0  0  0  0  0  0  0  0  0  0  0  0
   23.8410    8.7110  110.8910 C   0  0  0  0  0  0  0  0  0  0  0  0
   18.3161    6.4029  114.0363 H   0  0  0  0  0  0  0  0  0  0  0  0
   17.3262    6.8401  117.4879 H   0  0  0  0  0  0  0  0  0  0  0  0
   19.2479    8.1801  117.8802 H   0  0  0  0  0  0  0  0  0  0  0  0
   21.6727    8.9763  118.0957 H   0  0  0  0  0  0  0  0  0  0  0  0
   22.0164    7.1440  111.3329 H   0  0  0  0  0  0  0  0  0  0  0  0
   25.3575    8.1504  113.8886 H   0  0  0  0  0  0  0  0  0  0  0  0
   27.3763    8.5993  112.5318 H   0  0  0  0  0  0  0  0  0  0  0  0
   28.2643    9.2895  110.4247 H   0  0  0  0  0  0  0  0  0  0  0  0
   24.9077    9.2086  109.0454 H   0  0  0  0  0  0  0  0  0  0  0  0
   22.8446    8.7491  110.4265 H   0  0  0  0  0  0  0  0  0  0  0  0
  1  2  2  0
  1 13  1  0
  2  3  1  0
  2  4  1  0
  4  5  2  0
  5  6  1  0
  5  7  1  0
  7  8  1  0
  7 13  2  0
  8  9  2  0
  8 10  1  0
 10 11  2  0
 10 14  1  0
 11 12  1  0
 12 13  1  0
 14 15  2  0
 14 20  1  0
 15 16  1  0
 16 17  2  0
 17 18  1  0
 17 19  1  0
 19 20  2  0
  1 21  1  0
  3 22  1  0
  4 23  1  0
  6 24  1  0
 11 25  1  0
 15 26  1  0
 16 27  1  0
 18 28  1  0
 19 29  1  0
 20 30  1  0
A    1
C1
A    2
C2
A    3
O2
A    4
C3
A    5
C4
A    6
O4
A    7
C5
A    8
C6
A    9
O6
A   10
C7
A   11
C8
A   12
O9
A   13
C10
A   14
C11
A   15
C12
A   16
C13
A   17
C14
A   18
O14
A   19
C15
A   20
C16
M  END
