1J17_ZEN_T_1
     RDKit          3D

 61 65  0  0  0  0  0  0  0  0999 V2000
   18.5550   50.7460   60.2510 N   0  0  0  0  0  0  0  0  0  0  0  0
   18.3350   50.7600   61.5890 C   0  0  0  0  0  0  0  0  0  0  0  0
   17.1270   50.2600   62.1090 C   0  0  0  0  0  0  0  0  0  0  0  0
   16.4120   49.7340   59.8510 C   0  0  0  0  0  0  0  0  0  0  0  0
   17.6340   50.2500   59.3870 C   0  0  0  0  0  0  0  0  0  0  0  0
   16.1530   49.7430   61.2260 C   0  0  0  0  0  0  0  0  0  0  0  0
   14.9290   49.2200   61.7440 N   0  0  0  0  0  0  0  0  0  0  0  0
   14.5110   49.5150   63.1380 C   0  0  0  0  0  0  0  0  0  0  0  0
   13.1890   50.3120   63.1290 C   0  0  0  0  0  0  0  0  0  0  0  0
   12.5410   49.2560   60.9340 C   0  0  0  0  0  0  0  0  0  0  0  0
   13.9240   48.5390   60.8740 C   0  0  0  0  0  0  0  0  0  0  0  0
   12.0790   49.4920   62.4130 C   0  0  0  0  0  0  0  0  0  0  0  0
   10.7440   50.2250   62.4430 C   0  0  0  0  0  0  0  0  0  0  0  0
   10.8350   51.4570   62.5380 O   0  0  0  0  0  0  0  0  0  0  0  0
    9.5510   49.6290   62.3760 N   0  0  0  0  0  0  0  0  0  0  0  0
    9.3600   48.1550   62.2660 C   0  0  0  0  0  0  0  0  0  0  0  0
    8.4700   47.8600   61.0290 C   0  0  0  0  0  0  0  0  0  0  0  0
    7.5060   50.1330   61.1170 C   0  0  0  0  0  0  0  0  0  0  0  0
    8.3110   50.4480   62.4030 C   0  0  0  0  0  0  0  0  0  0  0  0
    7.2310   48.6760   61.0880 N   0  0  0  0  0  0  0  0  0  0  0  0
    6.1600   48.2550   59.9220 S   0  0  0  0  0  0  0  0  0  0  0  0
    4.9890   49.1080   60.0410 O   0  0  0  0  0  0  0  0  0  0  0  0
    5.9200   46.8530   60.0990 O   0  0  0  0  0  0  0  0  0  0  0  0
    6.8680   48.4890   58.2970 C   0  0  0  0  0  0  0  0  0  0  0  0
    6.8400   49.7590   57.6620 C   0  0  0  0  0  0  0  0  0  0  0  0
    7.4910   47.4070   57.6470 C   0  0  0  0  0  0  0  0  0  0  0  0
    8.0580   47.5740   56.3770 C   0  0  0  0  0  0  0  0  0  0  0  0
    7.4140   49.9340   56.3820 C   0  0  0  0  0  0  0  0  0  0  0  0
    8.0160   48.8260   55.7420 C   0  0  0  0  0  0  0  0  0  0  0  0
    8.5800   48.9810   54.4930 C   0  0  0  0  0  0  0  0  0  0  0  0
    7.9500   51.3360   54.4560 C   0  0  0  0  0  0  0  0  0  0  0  0
    7.3800   51.1910   55.7290 C   0  0  0  0  0  0  0  0  0  0  0  0
    8.5570   50.2170   53.8420 C   0  0  0  0  0  0  0  0  0  0  0  0
    9.3320   50.3470   52.2770 Cl  0  0  0  0  0  0  0  0  0  0  0  0
   19.1012   51.1624   62.2680 H   0  0  0  0  0  0  0  0  0  0  0  0
   16.9427   50.2716   63.1934 H   0  0  0  0  0  0  0  0  0  0  0  0
   15.6715   49.3298   59.1451 H   0  0  0  0  0  0  0  0  0  0  0  0
   17.8469   50.2518   58.3078 H   0  0  0  0  0  0  0  0  0  0  0  0
   14.3647   48.5708   63.6831 H   0  0  0  0  0  0  0  0  0  0  0  0
   15.2916   50.1112   63.6332 H   0  0  0  0  0  0  0  0  0  0  0  0
   12.8800   50.5168   64.1647 H   0  0  0  0  0  0  0  0  0  0  0  0
   13.3420   51.2593   62.5912 H   0  0  0  0  0  0  0  0  0  0  0  0
   12.6201   50.2279   60.4250 H   0  0  0  0  0  0  0  0  0  0  0  0
   11.7978   48.6136   60.4390 H   0  0  0  0  0  0  0  0  0  0  0  0
   14.2862   48.5464   59.8354 H   0  0  0  0  0  0  0  0  0  0  0  0
   13.7954   47.5080   61.2352 H   0  0  0  0  0  0  0  0  0  0  0  0
   11.9311   48.5329   62.9310 H   0  0  0  0  0  0  0  0  0  0  0  0
   10.3365   47.6631   62.1453 H   0  0  0  0  0  0  0  0  0  0  0  0
    8.8764   47.7706   63.1762 H   0  0  0  0  0  0  0  0  0  0  0  0
    9.0261   48.1079   60.1128 H   0  0  0  0  0  0  0  0  0  0  0  0
    8.1999   46.7937   61.0248 H   0  0  0  0  0  0  0  0  0  0  0  0
    6.5580   50.6908   61.1251 H   0  0  0  0  0  0  0  0  0  0  0  0
    8.0805   50.4291   60.2269 H   0  0  0  0  0  0  0  0  0  0  0  0
    7.7133   50.1925   63.2904 H   0  0  0  0  0  0  0  0  0  0  0  0
    8.5591   51.5187   62.4479 H   0  0  0  0  0  0  0  0  0  0  0  0
    6.3681   50.6130   58.1700 H   0  0  0  0  0  0  0  0  0  0  0  0
    7.5329   46.4242   58.1394 H   0  0  0  0  0  0  0  0  0  0  0  0
    8.5381   46.7211   55.8750 H   0  0  0  0  0  0  0  0  0  0  0  0
    9.0550   48.1188   54.0021 H   0  0  0  0  0  0  0  0  0  0  0  0
    7.9250   52.3082   53.9419 H   0  0  0  0  0  0  0  0  0  0  0  0
    6.9063   52.0534   56.2208 H   0  0  0  0  0  0  0  0  0  0  0  0
  1  2  2  0
  1  5  1  0
  2  3  1  0
  3  6  2  0
  4  5  2  0
  4  6  1  0
  6  7  1  0
  7  8  1  0
  7 11  1  0
  8  9  1  0
  9 12  1  0
 10 11  1  0
 10 12  1  0
 12 13  1  0
 13 14  2  0
 13 15  1  0
 15 16  1  0
 15 19  1  0
 16 17  1  0
 17 20  1  0
 18 19  1  0
 18 20  1  0
 20 21  1  0
 21 22  2  0
 21 23  2  0
 21 24  1  0
 24 25  2  0
 24 26  1  0
 25 28  1  0
 26 27  2  0
 27 29  1  0
 28 29  2  0
 28 32  1  0
 29 30  1  0
 30 33  2  0
 31 32  2  0
 31 33  1  0
 33 34  1  0
  2 35  1  0
  3 36  1  0
  4 37  1  0
  5 38  1  0
  8 39  1  0
  8 40  1  0
  9 41  1  0
  9 42  1  0
 10 43  1  0
 10 44  1  0
 11 45  1  0
 11 46  1  0
 12 47  1  0
 16 48  1  0
 16 49  1  0
 17 50  1  0
 17 51  1  0
 18 52  1  0
 18 53  1  0
 19 54  1  0
 19 55  1  0
 25 56  1  0
 26 57  1  0
 27 58  1  0
 30 59  1  0
 31 60  1  0
 32 61  1  0
A    1
N1
A    2
C2
A    3
C3
A    4
C5
A    5
C6
A    6
C4
A    7
N7
A    8
C8
A    9
C9
A   10
C11
A   11
C12
A   12
C10
A   13
C13
A   14
O23
A   15
N14
A   16
C15
A   17
C16
A   18
C18
A   19
C19
A   20
N17
A   21
S20
A   22
O21
A   23
O22
A   24
C24
A   25
C25
A   26
C33
A   27
C34
A   28
C26
A   29
C27
A   30
C28
A   31
C30
A   32
C31
A   33
C29
A   34
CL32
M  END
