1QMQ_LRB_A_418
     RDKit          3D

116127  0  0  0  0  0  0  0  0999 V2000
    8.9010   -0.3270   16.5970 Ru  0  0  0  0  0  6  0  0  0  0  0  0
   10.3670   -0.2240   18.0000 N   0  0  0  0  0  0  0  0  0  0  0  0
   10.6290    0.8160   18.7640 C   0  0  0  0  0  0  0  0  0  0  0  0
   11.6550    0.7940   19.7130 C   0  0  0  0  0  0  0  0  0  0  0  0
   12.4060   -0.3420   19.8340 C   0  0  0  0  0  0  0  0  0  0  0  0
   12.1480   -1.4210   19.0510 C   0  0  0  0  0  0  0  0  0  0  0  0
   11.1170   -1.3780   18.1140 C   0  0  0  0  0  0  0  0  0  0  0  0
   10.7510   -2.4420   17.2390 C   0  0  0  0  0  0  0  0  0  0  0  0
   11.3860   -3.6510   17.2230 C   0  0  0  0  0  0  0  0  0  0  0  0
   10.9710   -4.6330   16.3430 C   0  0  0  0  0  0  0  0  0  0  0  0
    9.9180   -4.3920   15.4960 C   0  0  0  0  0  0  0  0  0  0  0  0
    9.2960   -3.1650   15.5360 C   0  0  0  0  0  0  0  0  0  0  0  0
    9.7060   -2.1940   16.4060 N   0  0  0  0  0  0  0  0  0  0  0  0
    7.6510   -0.8120   18.1160 N   0  0  0  0  0  0  0  0  0  0  0  0
    7.4840   -2.0320   18.6320 C   0  0  0  0  0  0  0  0  0  0  0  0
    6.6390   -2.2970   19.7160 C   0  0  0  0  0  0  0  0  0  0  0  0
    5.9570   -1.2900   20.2600 C   0  0  0  0  0  0  0  0  0  0  0  0
    6.1090    0.0150   19.7390 C   0  0  0  0  0  0  0  0  0  0  0  0
    6.9680    0.2560   18.6470 C   0  0  0  0  0  0  0  0  0  0  0  0
    7.2190    1.5430   18.0160 C   0  0  0  0  0  0  0  0  0  0  0  0
    6.6200    2.7580   18.4150 C   0  0  0  0  0  0  0  0  0  0  0  0
    6.8820    3.9210   17.7880 C   0  0  0  0  0  0  0  0  0  0  0  0
    7.7890    3.9010   16.7220 C   0  0  0  0  0  0  0  0  0  0  0  0
    8.4010    2.6720   16.3170 C   0  0  0  0  0  0  0  0  0  0  0  0
    8.1060    1.5250   16.9770 N   0  0  0  0  0  0  0  0  0  0  0  0
   10.0400    0.2310   15.0060 N   0  0  0  0  0  0  0  0  0  0  0  0
   11.3100    0.6160   15.0500 C   0  0  0  0  0  0  0  0  0  0  0  0
   12.0290    0.9560   13.8860 C   0  0  0  0  0  0  0  0  0  0  0  0
   11.3690    0.8820   12.6850 C   0  0  0  0  0  0  0  0  0  0  0  0
   10.0650    0.4890   12.6280 C   0  0  0  0  0  0  0  0  0  0  0  0
    9.3740    0.1560   13.7970 C   0  0  0  0  0  0  0  0  0  0  0  0
    8.0060   -0.2730   13.8680 C   0  0  0  0  0  0  0  0  0  0  0  0
    7.2010   -0.4060   12.7730 C   0  0  0  0  0  0  0  0  0  0  0  0
    5.8920   -0.8250   12.9240 C   0  0  0  0  0  0  0  0  0  0  0  0
    5.4070   -1.1050   14.1780 C   0  0  0  0  0  0  0  0  0  0  0  0
    6.2350   -0.9640   15.2620 C   0  0  0  0  0  0  0  0  0  0  0  0
    7.5290   -0.5510   15.1100 N   0  0  0  0  0  0  0  0  0  0  0  0
    5.0750   -1.5960   21.4010 C   0  0  0  0  0  0  0  0  0  0  0  0
    6.2100    5.1710   18.2560 C   0  0  0  0  0  0  0  0  0  0  0  0
    5.3840    5.9080   17.1700 C   0  0  0  0  0  0  0  0  0  0  0  0
    4.0830    5.1250   16.8610 C   0  0  0  0  0  0  0  0  0  0  0  0
    3.2800    4.9110   18.1630 C   0  0  0  0  0  0  0  0  0  0  0  0
    2.4000    6.0730   18.3970 C   0  0  0  0  0  0  0  0  0  0  0  0
    1.6880    6.3780   19.7200 C   0  0  0  0  0  0  0  0  0  0  0  0
    0.1910    6.5960   19.4680 C   0  0  0  0  0  0  0  0  0  0  0  0
   -0.4630    7.1540   20.7470 C   0  0  0  0  0  0  0  0  0  0  0  0
   -0.1300    9.3730   19.8830 O   0  0  0  0  0  0  0  0  0  0  0  0
   -0.1660    8.6670   20.8840 C   0  0  0  0  0  0  0  0  0  0  0  0
    0.0450    9.2690   22.2250 N   0  0  0  0  0  0  0  0  0  0  0  0
    1.5730   13.3740   23.0690 C   0  0  0  0  0  0  0  0  0  0  0  0
    0.0500   13.0000   23.3370 C   0  0  0  0  0  0  0  0  0  0  0  0
   -0.1560   11.4480   23.4690 C   0  0  0  0  0  0  0  0  0  0  0  0
    0.3010   10.7610   22.1440 C   0  0  0  0  0  0  0  0  0  0  0  0
    1.8170   11.0900   21.8860 C   0  0  0  0  0  0  0  0  0  0  0  0
    2.7160   10.5640   23.0890 C   0  0  0  0  0  0  0  0  0  0  0  0
    2.2370   11.2720   24.4310 C   0  0  0  0  0  0  0  0  0  0  0  0
    2.3810   12.8680   24.2950 C   0  0  0  0  0  0  0  0  0  0  0  0
    2.0290   12.6480   21.7270 C   0  0  0  0  0  0  0  0  0  0  0  0
    0.7190   10.9310   24.6950 C   0  0  0  0  0  0  0  0  0  0  0  0
   10.0235    1.7275   18.6523 H   0  0  0  0  0  0  0  0  0  0  0  0
   11.8535    1.6702   20.3477 H   0  0  0  0  0  0  0  0  0  0  0  0
   13.2232   -0.3821   20.5692 H   0  0  0  0  0  0  0  0  0  0  0  0
   12.7549   -2.3323   19.1566 H   0  0  0  0  0  0  0  0  0  0  0  0
   12.2250   -3.8427   17.9081 H   0  0  0  0  0  0  0  0  0  0  0  0
   11.4837   -5.6059   16.3215 H   0  0  0  0  0  0  0  0  0  0  0  0
    9.5763   -5.1683   14.7955 H   0  0  0  0  0  0  0  0  0  0  0  0
    8.4550   -2.9625   14.8565 H   0  0  0  0  0  0  0  0  0  0  0  0
    8.0376   -2.8700   18.1833 H   0  0  0  0  0  0  0  0  0  0  0  0
    6.5398   -3.3186   20.1117 H   0  0  0  0  0  0  0  0  0  0  0  0
    5.5523    0.8500   20.1893 H   0  0  0  0  0  0  0  0  0  0  0  0
    5.9189    2.7546   19.2626 H   0  0  0  0  0  0  0  0  0  0  0  0
    8.0326    4.8342   16.1930 H   0  0  0  0  0  0  0  0  0  0  0  0
    9.1075    2.6582   15.4740 H   0  0  0  0  0  0  0  0  0  0  0  0
   11.8167    0.6714   16.0248 H   0  0  0  0  0  0  0  0  0  0  0  0
   13.0820    1.2696   13.9385 H   0  0  0  0  0  0  0  0  0  0  0  0
   11.8988    1.1430   11.7570 H   0  0  0  0  0  0  0  0  0  0  0  0
    9.5530    0.4335   11.6560 H   0  0  0  0  0  0  0  0  0  0  0  0
    7.5939   -0.1798   11.7708 H   0  0  0  0  0  0  0  0  0  0  0  0
    5.2418   -0.9336   12.0434 H   0  0  0  0  0  0  0  0  0  0  0  0
    4.3672   -1.4383   14.3112 H   0  0  0  0  0  0  0  0  0  0  0  0
    5.8520   -1.1866   16.2689 H   0  0  0  0  0  0  0  0  0  0  0  0
    5.6140   -1.4090   22.3415 H   0  0  0  0  0  0  0  0  0  0  0  0
    4.1821   -0.9551   21.3564 H   0  0  0  0  0  0  0  0  0  0  0  0
    4.7709   -2.6522   21.3564 H   0  0  0  0  0  0  0  0  0  0  0  0
    5.5326    4.9074   19.0816 H   0  0  0  0  0  0  0  0  0  0  0  0
    7.0120    5.8607   18.5578 H   0  0  0  0  0  0  0  0  0  0  0  0
    5.1250    6.9141   17.5315 H   0  0  0  0  0  0  0  0  0  0  0  0
    5.9847    5.9810   16.2514 H   0  0  0  0  0  0  0  0  0  0  0  0
    3.4736    5.6969   16.1458 H   0  0  0  0  0  0  0  0  0  0  0  0
    4.3414    4.1472   16.4285 H   0  0  0  0  0  0  0  0  0  0  0  0
    2.6687    4.0011   18.0711 H   0  0  0  0  0  0  0  0  0  0  0  0
    3.9755    4.8026   19.0083 H   0  0  0  0  0  0  0  0  0  0  0  0
    3.0180    6.9578   18.1844 H   0  0  0  0  0  0  0  0  0  0  0  0
    1.5412    5.8052   17.7639 H   0  0  0  0  0  0  0  0  0  0  0  0
    1.8224    5.5321   20.4102 H   0  0  0  0  0  0  0  0  0  0  0  0
    2.1178    7.2893   20.1613 H   0  0  0  0  0  0  0  0  0  0  0  0
    0.0573    7.3123   18.6440 H   0  0  0  0  0  0  0  0  0  0  0  0
   -0.2812    5.6397   19.1989 H   0  0  0  0  0  0  0  0  0  0  0  0
   -1.5510    7.0007   20.6951 H   0  0  0  0  0  0  0  0  0  0  0  0
   -0.0502    6.6271   21.6199 H   0  0  0  0  0  0  0  0  0  0  0  0
    0.0203    8.7359   23.1060 H   0  0  0  0  0  0  0  0  0  0  0  0
    1.7332   14.4554   22.9465 H   0  0  0  0  0  0  0  0  0  0  0  0
   -0.2762   13.4830   24.2699 H   0  0  0  0  0  0  0  0  0  0  0  0
   -0.5439   13.3518   22.4806 H   0  0  0  0  0  0  0  0  0  0  0  0
   -1.2142   11.2055   23.6462 H   0  0  0  0  0  0  0  0  0  0  0  0
   -0.2784   11.1472   21.2925 H   0  0  0  0  0  0  0  0  0  0  0  0
    2.1174   10.5841   20.9566 H   0  0  0  0  0  0  0  0  0  0  0  0
    2.6045    9.4739   23.1854 H   0  0  0  0  0  0  0  0  0  0  0  0
    3.7733   10.7995   22.8977 H   0  0  0  0  0  0  0  0  0  0  0  0
    2.8609   10.9102   25.2616 H   0  0  0  0  0  0  0  0  0  0  0  0
    3.4418   13.1278   24.1640 H   0  0  0  0  0  0  0  0  0  0  0  0
    1.9890   13.3439   25.2060 H   0  0  0  0  0  0  0  0  0  0  0  0
    1.4261   13.0180   20.8846 H   0  0  0  0  0  0  0  0  0  0  0  0
    3.0907   12.8602   21.5324 H   0  0  0  0  0  0  0  0  0  0  0  0
    0.3862   11.4264   25.6190 H   0  0  0  0  0  0  0  0  0  0  0  0
    0.5983    9.8429   24.8016 H   0  0  0  0  0  0  0  0  0  0  0  0
  1  2  1  0
  1 13  1  0
  1 14  1  0
  1 25  1  0
  1 26  1  0
  1 37  1  0
  2  3  1  0
  2  7  1  0
  3  4  2  0
  4  5  1  0
  5  6  2  0
  6  7  1  0
  7  8  2  0
  8  9  1  0
  8 13  1  0
  9 10  2  0
 10 11  1  0
 11 12  2  0
 12 13  1  0
 14 15  1  0
 14 19  1  0
 15 16  2  0
 16 17  1  0
 17 18  2  0
 17 38  1  0
 18 19  1  0
 19 20  2  0
 20 21  1  0
 20 25  1  0
 21 22  2  0
 22 23  1  0
 22 39  1  0
 23 24  2  0
 24 25  1  0
 26 27  1  0
 26 31  1  0
 27 28  2  0
 28 29  1  0
 29 30  2  0
 30 31  1  0
 31 32  2  0
 32 33  1  0
 32 37  1  0
 33 34  2  0
 34 35  1  0
 35 36  2  0
 36 37  1  0
 39 40  1  0
 40 41  1  0
 41 42  1  0
 42 43  1  0
 43 44  1  0
 44 45  1  0
 45 46  1  0
 46 48  1  0
 47 48  2  0
 48 49  1  0
 49 53  1  0
 50 51  1  0
 50 57  1  0
 50 58  1  0
 51 52  1  0
 52 53  1  0
 52 59  1  0
 53 54  1  0
 54 55  1  0
 54 58  1  0
 55 56  1  0
 56 57  1  0
 56 59  1  0
  3 60  1  0
  4 61  1  0
  5 62  1  0
  6 63  1  0
  9 64  1  0
 10 65  1  0
 11 66  1  0
 12 67  1  0
 15 68  1  0
 16 69  1  0
 18 70  1  0
 21 71  1  0
 23 72  1  0
 24 73  1  0
 27 74  1  0
 28 75  1  0
 29 76  1  0
 30 77  1  0
 33 78  1  0
 34 79  1  0
 35 80  1  0
 36 81  1  0
 38 82  1  0
 38 83  1  0
 38 84  1  0
 39 85  1  0
 39 86  1  0
 40 87  1  0
 40 88  1  0
 41 89  1  0
 41 90  1  0
 42 91  1  0
 42 92  1  0
 43 93  1  0
 43 94  1  0
 44 95  1  0
 44 96  1  0
 45 97  1  0
 45 98  1  0
 46 99  1  0
 46100  1  0
 49101  1  0
 50102  1  0
 51103  1  0
 51104  1  0
 52105  1  0
 53106  1  0
 54107  1  0
 55108  1  0
 55109  1  0
 56110  1  0
 57111  1  0
 57112  1  0
 58113  1  0
 58114  1  0
 59115  1  0
 59116  1  0
M  CHG  1   1   2
A    1
RU
A    2
N2
A    3
C3
A    4
C4
A    5
C5
A    6
C6
A    7
C7
A    8
C8
A    9
C9
A   10
C10
A   11
C11
A   12
C12
A   13
N13
A   14
N14
A   15
C15
A   16
C16
A   17
C17
A   18
C18
A   19
C19
A   20
C20
A   21
C21
A   22
C22
A   23
C23
A   24
C24
A   25
N25
A   26
N26
A   27
C27
A   28
C28
A   29
C29
A   30
C30
A   31
C31
A   32
C32
A   33
C33
A   34
C34
A   35
C35
A   36
C36
A   37
N37
A   38
C38
A   39
C39
A   40
C40
A   41
C41
A   42
C42
A   43
C43
A   44
C44
A   45
C45
A   46
C46
A   47
O47
A   48
C48
A   49
N49
A   50
C50
A   51
C51
A   52
C52
A   53
C53
A   54
C54
A   55
C55
A   56
C56
A   57
C57
A   58
C58
A   59
C59
M  END
