1QON_I40_A_997
     RDKit          3D

 42 45  0  0  0  0  0  0  0  0999 V2000
   31.8800   63.6290    9.8680 C   0  0  0  0  0  0  0  0  0  0  0  0
   30.8340   63.6860    8.7470 C   0  0  0  0  0  0  0  0  0  0  0  0
   30.2550   64.9410    8.5700 C   0  0  0  0  0  0  0  0  0  0  0  0
   31.2030   66.2100    8.4080 C   0  0  0  0  0  0  0  0  0  0  0  0
   33.6250   67.0380    9.2530 C   0  0  0  0  0  0  0  0  0  0  0  0
   35.9450   67.7160   10.1380 C   0  0  0  0  0  0  0  0  0  0  0  0
   37.1020   67.4270   10.8440 C   0  0  0  0  0  0  0  0  0  0  0  0
   37.2140   66.1450   11.4450 C   0  0  0  0  0  0  0  0  0  0  0  0
   36.2670   65.2160   11.3640 C   0  0  0  0  0  0  0  0  0  0  0  0
   34.0400   64.5160   10.5460 N   0  0  0  0  0  0  0  0  0  0  0  0
   32.9550   64.7550    9.9000 C   0  0  0  0  0  0  0  0  0  0  0  0
   32.5750   65.9610    9.1820 C   0  0  0  0  0  0  0  0  0  0  0  0
   34.8840   66.8410    9.9730 C   0  0  0  0  0  0  0  0  0  0  0  0
   35.0370   65.4680   10.6350 C   0  0  0  0  0  0  0  0  0  0  0  0
   33.1870   68.1090    8.6030 N   0  0  0  0  0  0  0  0  0  0  0  0
   28.9990   71.0380   10.6010 I   0  0  0  0  0  0  0  0  0  0  0  0
   33.7980   69.4540    8.4450 C   0  0  0  0  0  0  0  0  0  0  0  0
   33.0450   70.2770    9.5330 C   0  0  0  0  0  0  0  0  0  0  0  0
   31.6720   70.2820    9.5570 C   0  0  0  0  0  0  0  0  0  0  0  0
   31.0360   70.9770   10.5100 C   0  0  0  0  0  0  0  0  0  0  0  0
   31.6910   71.7060   11.4950 C   0  0  0  0  0  0  0  0  0  0  0  0
   33.0330   71.7230   11.5060 C   0  0  0  0  0  0  0  0  0  0  0  0
   33.7830   71.0070   10.5230 C   0  0  0  0  0  0  0  0  0  0  0  0
   31.3399   63.6606   10.8257 H   0  0  0  0  0  0  0  0  0  0  0  0
   32.4453   62.7043    9.6798 H   0  0  0  0  0  0  0  0  0  0  0  0
   31.3216   63.3950    7.8049 H   0  0  0  0  0  0  0  0  0  0  0  0
   30.0230   63.0014    9.0360 H   0  0  0  0  0  0  0  0  0  0  0  0
   29.6333   64.8848    7.6643 H   0  0  0  0  0  0  0  0  0  0  0  0
   29.7262   65.1246    9.5169 H   0  0  0  0  0  0  0  0  0  0  0  0
   31.4108   66.3769    7.3408 H   0  0  0  0  0  0  0  0  0  0  0  0
   30.7026   67.0938    8.8305 H   0  0  0  0  0  0  0  0  0  0  0  0
   35.8635   68.7109    9.6759 H   0  0  0  0  0  0  0  0  0  0  0  0
   37.9094   68.1683   10.9362 H   0  0  0  0  0  0  0  0  0  0  0  0
   38.1305   65.9092   12.0057 H   0  0  0  0  0  0  0  0  0  0  0  0
   36.4171   64.2435   11.8557 H   0  0  0  0  0  0  0  0  0  0  0  0
   32.2784   67.9885    8.1330 H   0  0  0  0  0  0  0  0  0  0  0  0
   34.8802   69.4276    8.6405 H   0  0  0  0  0  0  0  0  0  0  0  0
   33.7058   69.8684    7.4302 H   0  0  0  0  0  0  0  0  0  0  0  0
   31.1006   69.7217    8.8023 H   0  0  0  0  0  0  0  0  0  0  0  0
   31.1189   72.2603   12.2536 H   0  0  0  0  0  0  0  0  0  0  0  0
   33.5623   72.2956   12.2819 H   0  0  0  0  0  0  0  0  0  0  0  0
   34.8830   71.0152   10.5253 H   0  0  0  0  0  0  0  0  0  0  0  0
  1  2  1  0
  1 11  1  0
  2  3  1  0
  3  4  1  0
  4 12  1  0
  5 12  2  0
  5 13  1  0
  5 15  1  0
  6  7  1  0
  6 13  2  0
  7  8  2  0
  8  9  1  0
  9 14  2  0
 10 11  2  0
 10 14  1  0
 11 12  1  0
 13 14  1  0
 15 17  1  0
 16 20  1  0
 17 18  1  0
 18 19  2  0
 18 23  1  0
 19 20  1  0
 20 21  2  0
 21 22  1  0
 22 23  2  0
  1 24  1  0
  1 25  1  0
  2 26  1  0
  2 27  1  0
  3 28  1  0
  3 29  1  0
  4 30  1  0
  4 31  1  0
  6 32  1  0
  7 33  1  0
  8 34  1  0
  9 35  1  0
 15 36  1  0
 17 37  1  0
 17 38  1  0
 19 39  1  0
 21 40  1  0
 22 41  1  0
 23 42  1  0
A    1
C1
A    2
C2
A    3
C3
A    4
C4
A    5
C5
A    6
C6
A    7
C7
A    8
C8
A    9
C9
A   10
N1
A   11
C10
A   12
C11
A   13
C12
A   14
C13
A   15
N2
A   16
I1
A   17
C14
A   18
C15
A   19
C16
A   20
C17
A   21
C18
A   22
C19
A   23
C20
M  END
