1QPF_858_A_108
     RDKit          3D

145150  0  0  0  0  0  0  0  0999 V2000
    4.0350   45.8280  107.7730 C   0  0  0  0  0  0  0  0  0  0  0  0
    5.0210   44.6840  107.9580 C   0  0  0  0  0  0  0  0  0  0  0  0
    6.2970   45.2020  108.6160 C   0  0  0  0  0  0  0  0  0  0  0  0
    7.0880   46.1420  107.7300 C   0  0  0  0  0  0  0  0  0  0  0  0
    7.4550   45.4480  106.4350 C   0  0  0  0  0  0  0  0  0  0  0  0
    6.2090   44.9280  105.7380 C   0  0  0  0  0  0  0  0  0  0  0  0
    5.2350   42.8040  106.4590 C   0  0  0  0  0  0  0  0  0  0  0  0
    5.6620   42.1470  105.2970 C   0  0  0  0  0  0  0  0  0  0  0  0
    4.8940   42.0320  103.9760 C   0  0  0  0  0  0  0  0  0  0  0  0
    3.3580   41.9010  104.2530 C   0  0  0  0  0  0  0  0  0  0  0  0
    2.5890   42.3210  103.0000 C   0  0  0  0  0  0  0  0  0  0  0  0
    3.0940   43.6320  102.4020 C   0  0  0  0  0  0  0  0  0  0  0  0
    4.5770   43.4950  102.0740 C   0  0  0  0  0  0  0  0  0  0  0  0
    5.3550   44.6080  101.3730 C   0  0  0  0  0  0  0  0  0  0  0  0
    4.9940   45.9750  101.9580 C   0  0  0  0  0  0  0  0  0  0  0  0
    5.6960   47.1950  101.3600 C   0  0  0  0  0  0  0  0  0  0  0  0
    5.1340   47.7570  100.0470 C   0  0  0  0  0  0  0  0  0  0  0  0
    3.9650   48.6790  100.3560 C   0  0  0  0  0  0  0  0  0  0  0  0
    2.7010   48.2480  100.3160 C   0  0  0  0  0  0  0  0  0  0  0  0
    1.5400   49.0620  100.8390 C   0  0  0  0  0  0  0  0  0  0  0  0
    1.2120   48.6630  102.2780 C   0  0  0  0  0  0  0  0  0  0  0  0
    1.6400   49.6030  103.3930 C   0  0  0  0  0  0  0  0  0  0  0  0
    1.5710   48.9530  104.7790 C   0  0  0  0  0  0  0  0  0  0  0  0
    2.7100   47.9130  104.9780 C   0  0  0  0  0  0  0  0  0  0  0  0
    2.5750   47.1880  106.3410 C   0  0  0  0  0  0  0  0  0  0  0  0
    1.2450   46.4620  106.4380 C   0  0  0  0  0  0  0  0  0  0  0  0
    0.4580   46.7850  107.4650 C   0  0  0  0  0  0  0  0  0  0  0  0
   -0.9350   46.2890  107.5870 C   0  0  0  0  0  0  0  0  0  0  0  0
   -1.4790   46.0480  108.9970 C   0  0  0  0  0  0  0  0  0  0  0  0
   -2.9190   45.5320  109.0420 C   0  0  0  0  0  0  0  0  0  0  0  0
   -3.8570   46.4910  108.2710 C   0  0  0  0  0  0  0  0  0  0  0  0
   -3.3010   46.7990  106.8810 C   0  0  0  0  0  0  0  0  0  0  0  0
   -1.8730   47.2750  106.9010 C   0  0  0  0  0  0  0  0  0  0  0  0
    2.9810   40.4690  104.6130 C   0  0  0  0  0  0  0  0  0  0  0  0
    7.1840   46.8980  101.1950 C   0  0  0  0  0  0  0  0  0  0  0  0
    4.3130   50.1080  100.7710 C   0  0  0  0  0  0  0  0  0  0  0  0
    0.3320   48.8320   99.9260 C   0  0  0  0  0  0  0  0  0  0  0  0
   -0.8480   49.7410  100.2040 C   0  0  0  0  0  0  0  0  0  0  0  0
    4.0640   48.5950  104.8950 C   0  0  0  0  0  0  0  0  0  0  0  0
    0.8780   45.3780  105.4280 C   0  0  0  0  0  0  0  0  0  0  0  0
    1.2240   44.6580  101.4550 C   0  0  0  0  0  0  0  0  0  0  0  0
    5.8790   43.4330   99.4570 C   0  0  0  0  0  0  0  0  0  0  0  0
   -2.8320   44.5600  111.2880 C   0  0  0  0  0  0  0  0  0  0  0  0
   -6.2050   46.4180  108.5110 C   0  0  0  0  0  0  0  0  0  0  0  0
   -6.4290   46.4490  109.8860 C   0  0  0  0  0  0  0  0  0  0  0  0
   -7.1660   46.8600  107.6060 C   0  0  0  0  0  0  0  0  0  0  0  0
   -8.3940   47.3450  108.0790 C   0  0  0  0  0  0  0  0  0  0  0  0
   -7.6140   46.9210  110.3750 C   0  0  0  0  0  0  0  0  0  0  0  0
   -8.5770   47.3580  109.4570 C   0  0  0  0  0  0  0  0  0  0  0  0
   -9.5040   47.7990  107.4100 C   0  0  0  0  0  0  0  0  0  0  0  0
   -9.9210   47.8570  109.6380 N   0  0  0  0  0  0  0  0  0  0  0  0
  -10.5570   48.1590  108.2550 C   0  0  0  0  0  0  0  0  0  0  0  0
  -10.6180   48.0260  110.9460 C   0  0  0  0  0  0  0  0  0  0  0  0
  -10.9190   46.6980  111.6340 C   0  0  0  0  0  0  0  0  0  0  0  0
    5.4650   44.0990  106.6950 N   0  0  0  0  0  0  0  0  0  0  0  0
    3.6070   46.2070  106.5330 O   0  0  0  0  0  0  0  0  0  0  0  0
    3.6280   46.4480  108.7520 O   0  0  0  0  0  0  0  0  0  0  0  0
    4.6120   42.1250  107.2840 O   0  0  0  0  0  0  0  0  0  0  0  0
    6.7800   41.6220  105.2820 O   0  0  0  0  0  0  0  0  0  0  0  0
    5.2420   43.2170  103.2770 O   0  0  0  0  0  0  0  0  0  0  0  0
    5.3990   40.9780  103.1760 O   0  0  0  0  0  0  0  0  0  0  0  0
    2.4060   43.9060  101.2140 O   0  0  0  0  0  0  0  0  0  0  0  0
    5.0690   44.4930   99.9840 O   0  0  0  0  0  0  0  0  0  0  0  0
    0.6110   47.6170  102.5220 O   0  0  0  0  0  0  0  0  0  0  0  0
    1.7000   50.0180  105.7330 O   0  0  0  0  0  0  0  0  0  0  0  0
   -3.4030   45.5210  110.3820 O   0  0  0  0  0  0  0  0  0  0  0  0
   -5.0790   45.8760  108.0330 O   0  0  0  0  0  0  0  0  0  0  0  0
    4.4871   43.9342  108.5603 H   0  0  0  0  0  0  0  0  0  0  0  0
    6.0225   45.7379  109.5366 H   0  0  0  0  0  0  0  0  0  0  0  0
    6.9362   44.3302  108.8193 H   0  0  0  0  0  0  0  0  0  0  0  0
    6.4795   47.0308  107.5071 H   0  0  0  0  0  0  0  0  0  0  0  0
    8.0086   46.4413  108.2525 H   0  0  0  0  0  0  0  0  0  0  0  0
    7.9679   46.1624  105.7742 H   0  0  0  0  0  0  0  0  0  0  0  0
    8.1164   44.5987  106.6616 H   0  0  0  0  0  0  0  0  0  0  0  0
    5.5843   45.7724  105.4113 H   0  0  0  0  0  0  0  0  0  0  0  0
    6.4856   44.3351  104.8537 H   0  0  0  0  0  0  0  0  0  0  0  0
    3.1006   42.5507  105.1025 H   0  0  0  0  0  0  0  0  0  0  0  0
    2.6910   41.5285  102.2440 H   0  0  0  0  0  0  0  0  0  0  0  0
    1.5403   42.4755  103.2937 H   0  0  0  0  0  0  0  0  0  0  0  0
    2.9320   44.4436  103.1266 H   0  0  0  0  0  0  0  0  0  0  0  0
    4.5634   42.7137  101.2998 H   0  0  0  0  0  0  0  0  0  0  0  0
    6.4397   44.5114  101.5280 H   0  0  0  0  0  0  0  0  0  0  0  0
    3.9114   46.1171  101.8250 H   0  0  0  0  0  0  0  0  0  0  0  0
    5.3323   45.9357  103.0039 H   0  0  0  0  0  0  0  0  0  0  0  0
    5.5049   47.9944  102.0910 H   0  0  0  0  0  0  0  0  0  0  0  0
    5.9191   48.3217   99.5229 H   0  0  0  0  0  0  0  0  0  0  0  0
    4.7924   46.9296   99.4077 H   0  0  0  0  0  0  0  0  0  0  0  0
    2.4964   47.2575   99.8835 H   0  0  0  0  0  0  0  0  0  0  0  0
    1.8043   50.1298  100.8401 H   0  0  0  0  0  0  0  0  0  0  0  0
    2.6761   49.9213  103.2056 H   0  0  0  0  0  0  0  0  0  0  0  0
    0.9441   50.4549  103.3925 H   0  0  0  0  0  0  0  0  0  0  0  0
    0.6227   48.4093  104.9014 H   0  0  0  0  0  0  0  0  0  0  0  0
    2.6268   47.1648  104.1759 H   0  0  0  0  0  0  0  0  0  0  0  0
    2.6546   47.9700  107.1105 H   0  0  0  0  0  0  0  0  0  0  0  0
    0.8564   47.4436  108.2508 H   0  0  0  0  0  0  0  0  0  0  0  0
   -0.8963   45.2949  107.1176 H   0  0  0  0  0  0  0  0  0  0  0  0
   -0.8333   45.3081  109.4926 H   0  0  0  0  0  0  0  0  0  0  0  0
   -1.4807   47.0248  109.5028 H   0  0  0  0  0  0  0  0  0  0  0  0
   -2.9137   44.5233  108.6034 H   0  0  0  0  0  0  0  0  0  0  0  0
   -3.9518   47.3987  108.8850 H   0  0  0  0  0  0  0  0  0  0  0  0
   -3.3552   45.8839  106.2730 H   0  0  0  0  0  0  0  0  0  0  0  0
   -3.9093   47.6135  106.4608 H   0  0  0  0  0  0  0  0  0  0  0  0
   -1.8291   48.2343  107.4375 H   0  0  0  0  0  0  0  0  0  0  0  0
   -1.5419   47.3779  105.8571 H   0  0  0  0  0  0  0  0  0  0  0  0
    2.9527   40.3614  105.7074 H   0  0  0  0  0  0  0  0  0  0  0  0
    1.9906   40.2347  104.1957 H   0  0  0  0  0  0  0  0  0  0  0  0
    3.7277   39.7773  104.1957 H   0  0  0  0  0  0  0  0  0  0  0  0
    7.6514   46.8047  102.1864 H   0  0  0  0  0  0  0  0  0  0  0  0
    7.3107   45.9569  100.6399 H   0  0  0  0  0  0  0  0  0  0  0  0
    7.6623   47.7184  100.6399 H   0  0  0  0  0  0  0  0  0  0  0  0
    4.3299   50.1772  101.8687 H   0  0  0  0  0  0  0  0  0  0  0  0
    5.3025   50.3752  100.3715 H   0  0  0  0  0  0  0  0  0  0  0  0
    3.5572   50.8002  100.3715 H   0  0  0  0  0  0  0  0  0  0  0  0
    0.6519   48.9927   98.8859 H   0  0  0  0  0  0  0  0  0  0  0  0
   -0.0128   47.8049  100.1162 H   0  0  0  0  0  0  0  0  0  0  0  0
   -0.9828   49.8448  101.2908 H   0  0  0  0  0  0  0  0  0  0  0  0
   -0.6608   50.7305   99.7615 H   0  0  0  0  0  0  0  0  0  0  0  0
   -1.7570   49.3075   99.7615 H   0  0  0  0  0  0  0  0  0  0  0  0
    4.4416   48.7852  105.9105 H   0  0  0  0  0  0  0  0  0  0  0  0
    4.7697   47.9448  104.3572 H   0  0  0  0  0  0  0  0  0  0  0  0
    3.9616   49.5491  104.3572 H   0  0  0  0  0  0  0  0  0  0  0  0
    0.5698   44.4676  105.9630 H   0  0  0  0  0  0  0  0  0  0  0  0
    0.0492   45.7306  104.7966 H   0  0  0  0  0  0  0  0  0  0  0  0
    1.7506   45.1546  104.7966 H   0  0  0  0  0  0  0  0  0  0  0  0
    1.0675   44.7576  102.5392 H   0  0  0  0  0  0  0  0  0  0  0  0
    1.3270   45.6569  101.0061 H   0  0  0  0  0  0  0  0  0  0  0  0
    0.3628   44.1414  101.0061 H   0  0  0  0  0  0  0  0  0  0  0  0
    6.3174   42.8593  100.2868 H   0  0  0  0  0  0  0  0  0  0  0  0
    5.2567   42.7681   98.8400 H   0  0  0  0  0  0  0  0  0  0  0  0
    6.6840   43.8587   98.8400 H   0  0  0  0  0  0  0  0  0  0  0  0
   -3.0201   44.8765  112.3246 H   0  0  0  0  0  0  0  0  0  0  0  0
   -3.2918   43.5756  111.1160 H   0  0  0  0  0  0  0  0  0  0  0  0
   -1.7476   44.4932  111.1160 H   0  0  0  0  0  0  0  0  0  0  0  0
   -5.6514   46.0933  110.5779 H   0  0  0  0  0  0  0  0  0  0  0  0
   -6.9632   46.8290  106.5253 H   0  0  0  0  0  0  0  0  0  0  0  0
   -7.8060   46.9567  111.4575 H   0  0  0  0  0  0  0  0  0  0  0  0
   -9.5589   47.8723  106.3138 H   0  0  0  0  0  0  0  0  0  0  0  0
  -11.5563   48.5474  108.0090 H   0  0  0  0  0  0  0  0  0  0  0  0
   -9.9792   48.6279  111.6090 H   0  0  0  0  0  0  0  0  0  0  0  0
  -11.5804   48.5198  110.7460 H   0  0  0  0  0  0  0  0  0  0  0  0
  -10.8880   46.8350  112.7250 H   0  0  0  0  0  0  0  0  0  0  0  0
  -11.9190   46.3493  111.3365 H   0  0  0  0  0  0  0  0  0  0  0  0
  -10.1671   45.9522  111.3365 H   0  0  0  0  0  0  0  0  0  0  0  0
    5.7445   40.2570  103.7598 H   0  0  0  0  0  0  0  0  0  0  0  0
    1.6551   49.6471  106.6498 H   0  0  0  0  0  0  0  0  0  0  0  0
  1  2  1  0
  1 56  1  0
  1 57  2  0
  2  3  1  0
  2 55  1  0
  3  4  1  0
  4  5  1  0
  5  6  1  0
  6 55  1  0
  7  8  1  0
  7 55  1  0
  7 58  2  0
  8  9  1  0
  8 59  2  0
  9 10  1  0
  9 60  1  0
  9 61  1  0
 10 11  1  0
 10 34  1  0
 11 12  1  0
 12 13  1  0
 12 62  1  0
 13 14  1  0
 13 60  1  0
 14 15  1  0
 14 63  1  0
 15 16  1  0
 16 17  1  0
 16 35  1  0
 17 18  1  0
 18 19  2  0
 18 36  1  0
 19 20  1  0
 20 21  1  0
 20 37  1  0
 21 22  1  0
 21 64  2  0
 22 23  1  0
 23 24  1  0
 23 65  1  0
 24 25  1  0
 24 39  1  0
 25 26  1  0
 25 56  1  0
 26 27  2  0
 26 40  1  0
 27 28  1  0
 28 29  1  0
 28 33  1  0
 29 30  1  0
 30 31  1  0
 30 66  1  0
 31 32  1  0
 31 67  1  0
 32 33  1  0
 37 38  1  0
 41 62  1  0
 42 63  1  0
 43 66  1  0
 44 45  2  0
 44 46  1  0
 44 67  1  0
 45 48  1  0
 46 47  2  0
 47 49  1  0
 47 50  1  0
 48 49  2  0
 49 51  1  0
 50 52  2  0
 51 52  1  0
 51 53  1  0
 53 54  1  0
  2 68  1  0
  3 69  1  0
  3 70  1  0
  4 71  1  0
  4 72  1  0
  5 73  1  0
  5 74  1  0
  6 75  1  0
  6 76  1  0
 10 77  1  0
 11 78  1  0
 11 79  1  0
 12 80  1  0
 13 81  1  0
 14 82  1  0
 15 83  1  0
 15 84  1  0
 16 85  1  0
 17 86  1  0
 17 87  1  0
 19 88  1  0
 20 89  1  0
 22 90  1  0
 22 91  1  0
 23 92  1  0
 24 93  1  0
 25 94  1  0
 27 95  1  0
 28 96  1  0
 29 97  1  0
 29 98  1  0
 30 99  1  0
 31100  1  0
 32101  1  0
 32102  1  0
 33103  1  0
 33104  1  0
 34105  1  0
 34106  1  0
 34107  1  0
 35108  1  0
 35109  1  0
 35110  1  0
 36111  1  0
 36112  1  0
 36113  1  0
 37114  1  0
 37115  1  0
 38116  1  0
 38117  1  0
 38118  1  0
 39119  1  0
 39120  1  0
 39121  1  0
 40122  1  0
 40123  1  0
 40124  1  0
 41125  1  0
 41126  1  0
 41127  1  0
 42128  1  0
 42129  1  0
 42130  1  0
 43131  1  0
 43132  1  0
 43133  1  0
 45134  1  0
 46135  1  0
 48136  1  0
 50137  1  0
 52138  1  0
 53139  1  0
 53140  1  0
 54141  1  0
 54142  1  0
 54143  1  0
 61144  1  0
 65145  1  0
A    1
C1
A    2
C2
A    3
C3
A    4
C4
A    5
C5
A    6
C6
A    7
C8
A    8
C9
A    9
C10
A   10
C11
A   11
C12
A   12
C13
A   13
C14
A   14
C15
A   15
C16
A   16
C17
A   17
C18
A   18
C19
A   19
C20
A   20
C21
A   21
C22
A   22
C23
A   23
C24
A   24
C25
A   25
C26
A   26
C27
A   27
C28
A   28
C29
A   29
C30
A   30
C31
A   31
C32
A   32
C33
A   33
C34
A   34
C35
A   35
C36
A   36
C37
A   37
C38
A   38
C39
A   39
C41
A   40
C42
A   41
C43
A   42
C44
A   43
C45
A   44
C58
A   45
C59
A   46
C60
A   47
C61
A   48
C62
A   49
C63
A   50
C64
A   51
N65
A   52
C66
A   53
C67
A   54
C68
A   55
N7
A   56
O1
A   57
O2
A   58
O3
A   59
O4
A   60
O5
A   61
O6
A   62
O7
A   63
O8
A   64
O9
A   65
O10
A   66
O11
A   67
O12
M  END
