1QV6_24B_A_378
     RDKit          3D

 16 16  0  0  0  0  0  0  0  0999 V2000
    2.0110   -2.6530   21.4130 F   0  0  0  0  0  0  0  0  0  0  0  0
    2.9770   -1.4900   16.9990 F   0  0  0  0  0  0  0  0  0  0  0  0
   -1.1950   -3.8990   20.9410 O   0  0  0  0  0  0  0  0  0  0  0  0
    0.2160   -2.2410   19.9440 C   0  0  0  0  0  0  0  0  0  0  0  0
    1.6600   -2.3170   20.1910 C   0  0  0  0  0  0  0  0  0  0  0  0
    2.5830   -2.0790   19.2090 C   0  0  0  0  0  0  0  0  0  0  0  0
    2.0980   -1.7410   17.9570 C   0  0  0  0  0  0  0  0  0  0  0  0
    0.7380   -1.6530   17.6720 C   0  0  0  0  0  0  0  0  0  0  0  0
   -0.2130   -1.8980   18.6620 C   0  0  0  0  0  0  0  0  0  0  0  0
   -0.7470   -2.5470   21.0640 C   0  0  0  0  0  0  0  0  0  0  0  0
   -1.3237   -4.2873   21.8425 H   0  0  0  0  0  0  0  0  0  0  0  0
    3.6627   -2.1530   19.4057 H   0  0  0  0  0  0  0  0  0  0  0  0
    0.4105   -1.3876   16.6560 H   0  0  0  0  0  0  0  0  0  0  0  0
   -1.2866   -1.8218   18.4350 H   0  0  0  0  0  0  0  0  0  0  0  0
   -1.6093   -1.8666   21.0043 H   0  0  0  0  0  0  0  0  0  0  0  0
   -0.2436   -2.4106   22.0325 H   0  0  0  0  0  0  0  0  0  0  0  0
  1  5  1  0
  2  7  1  0
  3 10  1  0
  4  5  2  0
  4  9  1  0
  4 10  1  0
  5  6  1  0
  6  7  2  0
  7  8  1  0
  8  9  2  0
  3 11  1  0
  6 12  1  0
  8 13  1  0
  9 14  1  0
 10 15  1  0
 10 16  1  0
A    1
F2
A    2
F4
A    3
O1
A    4
C1
A    5
C2
A    6
C3
A    7
C4
A    8
C5
A    9
C6
A   10
C7
M  END
