1MG0_DFB_A_378
     RDKit          3D

 16 16  0  0  0  0  0  0  0  0999 V2000
   20.6340    0.1640    9.2910 O   0  0  0  0  0  0  0  0  0  0  0  0
   19.4150    0.2490   10.0160 C   0  0  0  0  0  0  0  0  0  0  0  0
   19.6970    0.5490   11.4660 C   0  0  0  0  0  0  0  0  0  0  0  0
   19.7230    1.9400   11.9880 C   0  0  0  0  0  0  0  0  0  0  0  0
   19.5060    3.0240   11.2340 F   0  0  0  0  0  0  0  0  0  0  0  0
   19.9470   -0.4930   12.3470 C   0  0  0  0  0  0  0  0  0  0  0  0
   20.2050   -0.2430   13.6990 C   0  0  0  0  0  0  0  0  0  0  0  0
   20.2440    1.0510   14.2270 C   0  0  0  0  0  0  0  0  0  0  0  0
   20.0120    2.1570   13.4130 C   0  0  0  0  0  0  0  0  0  0  0  0
   20.0320    3.4240   13.8740 F   0  0  0  0  0  0  0  0  0  0  0  0
   21.3922    0.1111    9.9253 H   0  0  0  0  0  0  0  0  0  0  0  0
   18.7943    1.0521    9.5920 H   0  0  0  0  0  0  0  0  0  0  0  0
   18.8838   -0.7115    9.9428 H   0  0  0  0  0  0  0  0  0  0  0  0
   19.9423   -1.5292   11.9777 H   0  0  0  0  0  0  0  0  0  0  0  0
   20.3837   -1.0953   14.3710 H   0  0  0  0  0  0  0  0  0  0  0  0
   20.4600    1.1969   15.2957 H   0  0  0  0  0  0  0  0  0  0  0  0
  1  2  1  0
  2  3  1  0
  3  4  2  0
  3  6  1  0
  4  5  1  0
  4  9  1  0
  6  7  2  0
  7  8  1  0
  8  9  2  0
  9 10  1  0
  1 11  1  0
  2 12  1  0
  2 13  1  0
  6 14  1  0
  7 15  1  0
  8 16  1  0
A    1
O1
A    2
C7
A    3
C1
A    4
C2
A    5
F2
A    6
C6
A    7
C5
A    8
C4
A    9
C3
A   10
F3
M  END
