1MMV_3AR_A_1785
     RDKit          3D

 36 35  0  0  0  0  0  0  0  0999 V2000
    9.4840   -1.1740   26.2020 N   0  0  0  0  0  0  0  0  0  0  0  0
    9.0660   -1.5300   24.8440 C   0  0  0  0  0  0  0  0  0  0  0  0
    8.9150   -3.0400   24.7040 C   0  0  0  0  0  0  0  0  0  0  0  0
    9.2860   -3.8170   25.5890 O   0  0  0  0  0  0  0  0  0  0  0  0
   10.1130   -0.9800   23.8360 C   0  0  0  0  0  0  0  0  0  0  0  0
   10.1050    0.5640   23.6440 C   0  0  0  0  0  0  0  0  0  0  0  0
   11.2380    1.2920   24.3880 C   0  0  0  0  0  0  0  0  0  0  0  0
   12.4710    0.4450   24.4120 N   0  0  0  0  0  0  0  0  0  0  0  0
   13.5700    0.6450   23.6830 C   0  0  0  0  0  0  0  0  0  0  0  0
   13.7180    1.6440   22.8280 N   0  0  0  0  0  0  0  0  0  0  0  0
   14.5420   -0.2090   23.8460 N   0  0  0  0  0  0  0  0  0  0  0  0
   14.4990    1.4220   21.5880 C   0  0  0  0  0  0  0  0  0  0  0  0
   14.1680    2.5300   20.5600 C   0  0  0  0  0  0  0  0  0  0  0  0
   12.7880    2.2740   19.9350 C   0  0  0  0  0  0  0  0  0  0  0  0
    8.4060   -3.4460   23.6460 O   0  0  0  0  0  0  0  0  0  0  0  0
    8.8966   -1.6743   26.8843 H   0  0  0  0  0  0  0  0  0  0  0  0
   10.4700   -1.4389   26.3383 H   0  0  0  0  0  0  0  0  0  0  0  0
    8.0848   -1.0807   24.6312 H   0  0  0  0  0  0  0  0  0  0  0  0
   11.1123   -1.2731   24.1903 H   0  0  0  0  0  0  0  0  0  0  0  0
    9.8482   -1.4091   22.8584 H   0  0  0  0  0  0  0  0  0  0  0  0
   10.2019    0.7797   22.5697 H   0  0  0  0  0  0  0  0  0  0  0  0
    9.1583    0.9327   24.0658 H   0  0  0  0  0  0  0  0  0  0  0  0
   11.4587    2.2398   23.8751 H   0  0  0  0  0  0  0  0  0  0  0  0
   10.9187    1.4888   25.4221 H   0  0  0  0  0  0  0  0  0  0  0  0
   12.4713   -0.3649   25.0483 H   0  0  0  0  0  0  0  0  0  0  0  0
   13.2962    2.5635   23.0216 H   0  0  0  0  0  0  0  0  0  0  0  0
   15.4149   -0.1043   23.3094 H   0  0  0  0  0  0  0  0  0  0  0  0
   14.4368   -0.9882   24.5113 H   0  0  0  0  0  0  0  0  0  0  0  0
   15.5734    1.4493   21.8224 H   0  0  0  0  0  0  0  0  0  0  0  0
   14.2392    0.4409   21.1637 H   0  0  0  0  0  0  0  0  0  0  0  0
   14.1627    3.5065   21.0664 H   0  0  0  0  0  0  0  0  0  0  0  0
   14.9297    2.5245   19.7664 H   0  0  0  0  0  0  0  0  0  0  0  0
   12.0439    2.1360   20.7332 H   0  0  0  0  0  0  0  0  0  0  0  0
   12.5022    3.1345   19.3121 H   0  0  0  0  0  0  0  0  0  0  0  0
   12.8299    1.3683   19.3121 H   0  0  0  0  0  0  0  0  0  0  0  0
    7.6324   -4.0631   23.6738 H   0  0  0  0  0  0  0  0  0  0  0  0
  1  2  1  0
  2  3  1  0
  2  5  1  0
  3  4  2  0
  3 15  1  0
  5  6  1  0
  6  7  1  0
  7  8  1  0
  8  9  1  0
  9 10  1  0
  9 11  2  3
 10 12  1  0
 12 13  1  0
 13 14  1  0
  1 16  1  0
  1 17  1  0
  2 18  1  0
  5 19  1  0
  5 20  1  0
  6 21  1  0
  6 22  1  0
  7 23  1  0
  7 24  1  0
  8 25  1  0
 10 26  1  0
 11 27  1  0
 11 28  1  0
 12 29  1  0
 12 30  1  0
 13 31  1  0
 13 32  1  0
 14 33  1  0
 14 34  1  0
 14 35  1  0
 15 36  1  0
M  CHG  1  11   1
A    1
N
A    2
CA
A    3
C
A    4
O
A    5
CB
A    6
CG
A    7
CD
A    8
NE
A    9
CZ
A   10
NH1
A   11
NH2
A   12
C1
A   13
C2
A   14
C3
A   15
OXT
M  END
