1FOI_14W_A_810
     RDKit          3D

 23 23  0  0  0  0  0  0  0  0999 V2000
   10.4670   12.4540   33.6440 C   0  0  0  0  0  0  0  0  0  0  0  0
   11.2660   13.4890   34.1970 C   0  0  0  0  0  0  0  0  0  0  0  0
   10.9580   14.8440   33.9230 C   0  0  0  0  0  0  0  0  0  0  0  0
    9.8520   15.1710   33.0910 C   0  0  0  0  0  0  0  0  0  0  0  0
    9.0500   14.1370   32.5380 C   0  0  0  0  0  0  0  0  0  0  0  0
    9.3540   12.7700   32.8100 C   0  0  0  0  0  0  0  0  0  0  0  0
    8.5010   11.6510   32.2140 C   0  0  0  0  0  0  0  0  0  0  0  0
    7.0260   11.8890   32.2700 N   0  0  0  0  0  0  0  0  0  0  0  0
    6.1550   11.6400   31.2450 C   0  0  0  0  0  0  0  0  0  0  0  0
    6.5540   11.0680   29.8850 C   0  0  0  0  0  0  0  0  0  0  0  0
    4.8820   11.9260   31.5160 N   0  0  0  0  0  0  0  0  0  0  0  0
   10.7076   11.4026   33.8599 H   0  0  0  0  0  0  0  0  0  0  0  0
   12.1241   13.2386   34.8381 H   0  0  0  0  0  0  0  0  0  0  0  0
   11.5757   15.6453   34.3547 H   0  0  0  0  0  0  0  0  0  0  0  0
    9.6176   16.2240   32.8758 H   0  0  0  0  0  0  0  0  0  0  0  0
    8.1921   14.3912   31.8982 H   0  0  0  0  0  0  0  0  0  0  0  0
    8.7878   11.5269   31.1593 H   0  0  0  0  0  0  0  0  0  0  0  0
    8.6936   10.7564   32.8244 H   0  0  0  0  0  0  0  0  0  0  0  0
    6.6370   12.2685   33.1450 H   0  0  0  0  0  0  0  0  0  0  0  0
    7.1777   10.1739   30.0320 H   0  0  0  0  0  0  0  0  0  0  0  0
    5.6491   10.7954   29.3221 H   0  0  0  0  0  0  0  0  0  0  0  0
    7.1224   11.8231   29.3221 H   0  0  0  0  0  0  0  0  0  0  0  0
    4.1559   11.7701   30.8023 H   0  0  0  0  0  0  0  0  0  0  0  0
  1  2  2  0
  1  6  1  0
  2  3  1  0
  3  4  2  0
  4  5  1  0
  5  6  2  0
  6  7  1  0
  7  8  1  0
  8  9  1  0
  9 10  1  0
  9 11  2  3
  1 12  1  0
  2 13  1  0
  3 14  1  0
  4 15  1  0
  5 16  1  0
  7 17  1  0
  7 18  1  0
  8 19  1  0
 10 20  1  0
 10 21  1  0
 10 22  1  0
 11 23  1  0
A    1
C2
A    2
C3
A    3
C4
A    4
C5
A    5
C6
A    6
C1
A    7
C7
A    8
N8
A    9
C9
A   10
C10
A   11
N11
M  END
