1QXY_M2C_A_3001
     RDKit          3D

 31 31  0  0  0  0  0  0  0  0999 V2000
    6.2870    3.1910   -1.6160 O   0  0  0  0  0  0  0  0  0  0  0  0
    5.4300    3.8770   -2.4800 C   0  0  0  0  0  0  0  0  0  0  0  0
    5.4750    5.2400   -2.0250 O   0  0  0  0  0  0  0  0  0  0  0  0
    4.0230    3.2670   -2.3810 C   0  0  0  0  0  0  0  0  0  0  0  0
    2.9090    4.1360   -2.9560 C   0  0  0  0  0  0  0  0  0  0  0  0
    1.4980    3.5620   -2.7630 C   0  0  0  0  0  0  0  0  0  0  0  0
    0.2040    4.5530   -3.5070 S   0  0  0  0  0  0  0  0  0  0  0  0
   -0.7150    5.1960   -2.1620 C   0  0  0  0  0  0  0  0  0  0  0  0
    3.7660    2.7620   -1.0590 N   0  0  0  0  0  0  0  0  0  0  0  0
    5.9930    3.7210   -3.8500 C   0  0  0  0  0  0  0  0  0  0  0  0
    6.1290    2.4990   -4.4350 C   0  0  0  0  0  0  0  0  0  0  0  0
    6.6540    2.4000   -5.7010 C   0  0  0  0  0  0  0  0  0  0  0  0
    7.1350    3.5200   -6.2970 C   0  0  0  0  0  0  0  0  0  0  0  0
    7.0160    4.7260   -5.6480 C   0  0  0  0  0  0  0  0  0  0  0  0
    6.4530    4.8160   -4.4340 N   0  0  0  0  0  0  0  0  0  0  0  0
    6.0388    3.3897   -0.6785 H   0  0  0  0  0  0  0  0  0  0  0  0
    5.4756    5.2576   -1.0352 H   0  0  0  0  0  0  0  0  0  0  0  0
    4.0137    2.3981   -3.0554 H   0  0  0  0  0  0  0  0  0  0  0  0
    2.9511    5.1196   -2.4654 H   0  0  0  0  0  0  0  0  0  0  0  0
    3.0810    4.1924   -4.0410 H   0  0  0  0  0  0  0  0  0  0  0  0
    1.4677    2.5585   -3.2125 H   0  0  0  0  0  0  0  0  0  0  0  0
    1.3051    3.5453   -1.6802 H   0  0  0  0  0  0  0  0  0  0  0  0
   -0.2548    4.8740   -1.2162 H   0  0  0  0  0  0  0  0  0  0  0  0
   -0.7188    6.2948   -2.2125 H   0  0  0  0  0  0  0  0  0  0  0  0
   -1.7486    4.8230   -2.2125 H   0  0  0  0  0  0  0  0  0  0  0  0
    4.1095    3.4369   -0.3609 H   0  0  0  0  0  0  0  0  0  0  0  0
    2.7527    2.6252   -0.9347 H   0  0  0  0  0  0  0  0  0  0  0  0
    5.8190    1.5923   -3.8949 H   0  0  0  0  0  0  0  0  0  0  0  0
    6.6837    1.4313   -6.2213 H   0  0  0  0  0  0  0  0  0  0  0  0
    7.6136    3.4638   -7.2858 H   0  0  0  0  0  0  0  0  0  0  0  0
    7.3911    5.6380   -6.1355 H   0  0  0  0  0  0  0  0  0  0  0  0
  1  2  1  0
  2  3  1  0
  2  4  1  0
  2 10  1  0
  4  5  1  0
  4  9  1  0
  5  6  1  0
  6  7  1  0
  7  8  1  0
 10 11  2  0
 10 15  1  0
 11 12  1  0
 12 13  2  0
 13 14  1  0
 14 15  2  0
  1 16  1  0
  3 17  1  0
  4 18  1  0
  5 19  1  0
  5 20  1  0
  6 21  1  0
  6 22  1  0
  8 23  1  0
  8 24  1  0
  8 25  1  0
  9 26  1  0
  9 27  1  0
 11 28  1  0
 12 29  1  0
 13 30  1  0
 14 31  1  0
A    1
OA
A    2
C7
A    3
O8
A    4
C9
A    5
C11
A    6
C12
A    7
S13
A    8
C14
A    9
N10
A   10
C1
A   11
C2
A   12
C3
A   13
C4
A   14
C5
A   15
N6
M  END
