1QXZ_M3C_A_2001
     RDKit          3D

 28 28  0  0  0  0  0  0  0  0999 V2000
   16.6960    2.9840    1.1790 N   0  0  0  0  0  0  0  0  0  0  0  0
   16.3050    3.2690    2.5540 C   0  0  0  0  0  0  0  0  0  0  0  0
   17.4030    4.1880    3.0830 C   0  0  0  0  0  0  0  0  0  0  0  0
   18.7680    3.5010    3.1040 C   0  0  0  0  0  0  0  0  0  0  0  0
   20.1420    4.5880    3.6080 S   0  0  0  0  0  0  0  0  0  0  0  0
   20.0090    4.1010    5.2380 C   0  0  0  0  0  0  0  0  0  0  0  0
   14.8820    3.8460    2.5570 C   0  0  0  0  0  0  0  0  0  0  0  0
   14.0720    3.0510    1.6930 O   0  0  0  0  0  0  0  0  0  0  0  0
   14.8810    5.1820    2.0730 O   0  0  0  0  0  0  0  0  0  0  0  0
   14.2670    3.7530    3.9390 C   0  0  0  0  0  0  0  0  0  0  0  0
   13.6810    4.8220    4.4880 N   0  0  0  0  0  0  0  0  0  0  0  0
   13.1830    4.4970    5.7200 C   0  0  0  0  0  0  0  0  0  0  0  0
   13.4010    3.1630    6.0040 C   0  0  0  0  0  0  0  0  0  0  0  0
   14.2010    2.2930    4.7930 S   0  0  0  0  0  0  0  0  0  0  0  0
   17.5284    2.3773    1.1775 H   0  0  0  0  0  0  0  0  0  0  0  0
   15.9226    2.5070    0.6940 H   0  0  0  0  0  0  0  0  0  0  0  0
   16.2370    2.3950    3.2185 H   0  0  0  0  0  0  0  0  0  0  0  0
   17.4632    5.0766    2.4375 H   0  0  0  0  0  0  0  0  0  0  0  0
   17.1461    4.4620    4.1169 H   0  0  0  0  0  0  0  0  0  0  0  0
   18.7191    2.6573    3.8081 H   0  0  0  0  0  0  0  0  0  0  0  0
   18.9782    3.1824    2.0723 H   0  0  0  0  0  0  0  0  0  0  0  0
   20.2414    4.9520    5.8951 H   0  0  0  0  0  0  0  0  0  0  0  0
   18.9835    3.7551    5.4348 H   0  0  0  0  0  0  0  0  0  0  0  0
   20.7163    3.2819    5.4348 H   0  0  0  0  0  0  0  0  0  0  0  0
   13.4811    2.4711    2.2358 H   0  0  0  0  0  0  0  0  0  0  0  0
   14.8805    5.8102    2.8382 H   0  0  0  0  0  0  0  0  0  0  0  0
   12.6767    5.2035    6.3942 H   0  0  0  0  0  0  0  0  0  0  0  0
   13.0782    2.7001    6.9482 H   0  0  0  0  0  0  0  0  0  0  0  0
  1  2  1  0
  2  3  1  0
  2  7  1  0
  3  4  1  0
  4  5  1  0
  5  6  1  0
  7  8  1  0
  7  9  1  0
  7 10  1  0
 10 11  2  0
 10 14  1  0
 11 12  1  0
 12 13  2  0
 13 14  1  0
  1 15  1  0
  1 16  1  0
  2 17  1  0
  3 18  1  0
  3 19  1  0
  4 20  1  0
  4 21  1  0
  6 22  1  0
  6 23  1  0
  6 24  1  0
  8 25  1  0
  9 26  1  0
 12 27  1  0
 13 28  1  0
A    1
N1
A    2
C2
A    3
C10
A    4
C11
A    5
S12
A    6
C13
A    7
C3
A    8
O4
A    9
O15
A   10
C5
A   11
N6
A   12
C7
A   13
C8
A   14
S9
M  END
