1QYE_CDY_A_338
     RDKit          3D

 30 32  0  0  0  0  0  0  0  0999 V2000
   16.3750  -13.8510   54.5640 O   0  0  0  0  0  0  0  0  0  0  0  0
   17.6650  -13.4010   54.1850 C   0  0  0  0  0  0  0  0  0  0  0  0
   18.5420  -14.6000   53.8040 C   0  0  0  0  0  0  0  0  0  0  0  0
   18.8830  -15.4830   54.9160 O   0  0  0  0  0  0  0  0  0  0  0  0
   17.9300  -15.5100   52.7720 C   0  0  0  0  0  0  0  0  0  0  0  0
   18.8250  -16.7090   52.8570 C   0  0  0  0  0  0  0  0  0  0  0  0
   19.1810  -16.8070   54.3520 C   0  0  0  0  0  0  0  0  0  0  0  0
   18.3230  -17.8200   55.0090 N   0  0  0  0  0  0  0  0  0  0  0  0
   17.1490  -17.6100   55.6330 C   0  0  0  0  0  0  0  0  0  0  0  0
   16.6770  -18.7830   56.0780 N   0  0  0  0  0  0  0  0  0  0  0  0
   17.5450  -19.7260   55.7390 C   0  0  0  0  0  0  0  0  0  0  0  0
   18.5880  -19.1140   55.0660 C   0  0  0  0  0  0  0  0  0  0  0  0
   19.6240  -19.8430   54.6100 N   0  0  0  0  0  0  0  0  0  0  0  0
   19.6640  -21.1780   54.8020 C   0  0  0  0  0  0  0  0  0  0  0  0
   21.0650  -22.0960   54.2190 Cl  0  0  0  0  0  0  0  0  0  0  0  0
   18.6550  -21.8050   55.4550 N   0  0  0  0  0  0  0  0  0  0  0  0
   17.5910  -21.1050   55.9260 C   0  0  0  0  0  0  0  0  0  0  0  0
   16.5840  -21.7360   56.5340 N   0  0  0  0  0  0  0  0  0  0  0  0
   16.3103  -13.8736   55.5516 H   0  0  0  0  0  0  0  0  0  0  0  0
   17.5769  -12.7242   53.3223 H   0  0  0  0  0  0  0  0  0  0  0  0
   18.1261  -12.8673   55.0291 H   0  0  0  0  0  0  0  0  0  0  0  0
   19.4345  -14.0881   53.4150 H   0  0  0  0  0  0  0  0  0  0  0  0
   16.8913  -15.7658   53.0281 H   0  0  0  0  0  0  0  0  0  0  0  0
   17.8688  -15.0682   51.7665 H   0  0  0  0  0  0  0  0  0  0  0  0
   18.2980  -17.6142   52.5210 H   0  0  0  0  0  0  0  0  0  0  0  0
   19.7146  -16.6180   52.2164 H   0  0  0  0  0  0  0  0  0  0  0  0
   20.2313  -17.0979   54.5008 H   0  0  0  0  0  0  0  0  0  0  0  0
   16.6568  -16.6342   55.7576 H   0  0  0  0  0  0  0  0  0  0  0  0
   16.5398  -21.7637   57.5627 H   0  0  0  0  0  0  0  0  0  0  0  0
   15.8512  -22.1952   55.9745 H   0  0  0  0  0  0  0  0  0  0  0  0
  1  2  1  0
  2  3  1  0
  3  4  1  0
  3  5  1  0
  4  7  1  0
  5  6  1  0
  6  7  1  0
  7  8  1  0
  8  9  1  0
  8 12  1  0
  9 10  2  0
 10 11  1  0
 11 12  2  0
 11 17  1  0
 12 13  1  0
 13 14  2  0
 14 15  1  0
 14 16  1  0
 16 17  2  0
 17 18  1  0
  1 19  1  0
  2 20  1  0
  2 21  1  0
  3 22  1  0
  5 23  1  0
  5 24  1  0
  6 25  1  0
  6 26  1  0
  7 27  1  0
  9 28  1  0
 18 29  1  0
 18 30  1  0
A    1
O5'
A    2
C5'
A    3
C4'
A    4
O4'
A    5
C3'
A    6
C2'
A    7
C1'
A    8
N9
A    9
C8
A   10
N7
A   11
C5
A   12
C4
A   13
N3
A   14
C2
A   15
CL
A   16
N1
A   17
C6
A   18
N6
M  END
