1Q1D_CDX_?_901
     RDKit          3D

 35 36  0  0  0  0  0  0  0  0999 V2000
   28.2380   36.2370   35.5570 O   0  0  0  0  0  0  0  0  0  0  0  0
   27.4740   36.0470   34.6390 C   0  0  0  0  0  0  0  0  0  0  0  0
   26.9190   37.0270   33.9030 N   0  0  0  0  0  0  0  0  0  0  0  0
   26.0750   36.8090   32.8830 C   0  0  0  0  0  0  0  0  0  0  0  0
   25.5900   37.7150   32.2440 O   0  0  0  0  0  0  0  0  0  0  0  0
   25.7580   35.3710   32.5170 C   0  0  0  0  0  0  0  0  0  0  0  0
   27.1320   34.6360   34.2740 C   0  0  0  0  0  0  0  0  0  0  0  0
   26.9830   34.6320   32.8250 N   0  0  0  0  0  0  0  0  0  0  0  0
   27.0040   33.2580   32.3530 C   0  0  0  0  0  0  0  0  0  0  0  0
   28.4660   32.9070   32.0720 C   0  0  0  0  0  0  0  0  0  0  0  0
   29.3760   33.0440   33.2890 C   0  0  0  0  0  0  0  0  0  0  0  0
   28.5840   31.5570   31.5040 N   0  0  0  0  0  0  0  0  0  0  0  0
   29.0480   30.4930   32.3990 C   0  0  0  0  0  0  0  0  0  0  0  0
   29.5840   29.4680   31.4180 C   0  0  0  0  0  0  0  0  0  0  0  0
   30.5670   28.8120   31.7030 O   0  0  0  0  0  0  0  0  0  0  0  0
   28.9450   29.3570   30.2300 N   0  0  0  0  0  0  0  0  0  0  0  0
   27.8530   30.0720   29.8850 C   0  0  0  0  0  0  0  0  0  0  0  0
   27.3520   31.0730   30.8900 C   0  0  0  0  0  0  0  0  0  0  0  0
   27.2790   29.9660   28.8180 O   0  0  0  0  0  0  0  0  0  0  0  0
   27.1559   38.0019   34.1363 H   0  0  0  0  0  0  0  0  0  0  0  0
   24.9163   34.9943   33.1167 H   0  0  0  0  0  0  0  0  0  0  0  0
   25.4611   35.2649   31.4631 H   0  0  0  0  0  0  0  0  0  0  0  0
   27.9393   33.9539   34.5790 H   0  0  0  0  0  0  0  0  0  0  0  0
   26.2158   34.2954   34.7786 H   0  0  0  0  0  0  0  0  0  0  0  0
   26.5952   32.5872   33.1230 H   0  0  0  0  0  0  0  0  0  0  0  0
   26.3905   33.1434   31.4472 H   0  0  0  0  0  0  0  0  0  0  0  0
   28.8112   33.6484   31.3364 H   0  0  0  0  0  0  0  0  0  0  0  0
   28.7767   32.9538   34.2070 H   0  0  0  0  0  0  0  0  0  0  0  0
   30.1374   32.2504   33.2687 H   0  0  0  0  0  0  0  0  0  0  0  0
   29.8700   34.0266   33.2687 H   0  0  0  0  0  0  0  0  0  0  0  0
   29.8394   30.8539   33.0724 H   0  0  0  0  0  0  0  0  0  0  0  0
   28.2658   30.1019   33.0663 H   0  0  0  0  0  0  0  0  0  0  0  0
   29.3159   28.6834   29.5447 H   0  0  0  0  0  0  0  0  0  0  0  0
   26.6993   30.5943   31.6349 H   0  0  0  0  0  0  0  0  0  0  0  0
   26.7442   31.8732   30.4426 H   0  0  0  0  0  0  0  0  0  0  0  0
  1  2  2  0
  2  3  1  0
  2  7  1  0
  3  4  1  0
  4  5  2  0
  4  6  1  0
  6  8  1  0
  7  8  1  0
  8  9  1  0
  9 10  1  0
 10 11  1  0
 10 12  1  0
 12 13  1  0
 12 18  1  0
 13 14  1  0
 14 15  2  0
 14 16  1  0
 16 17  1  0
 17 18  1  0
 17 19  2  0
  3 20  1  0
  6 21  1  0
  6 22  1  0
  7 23  1  0
  7 24  1  0
  9 25  1  0
  9 26  1  0
 10 27  1  0
 11 28  1  0
 11 29  1  0
 11 30  1  0
 13 31  1  0
 13 32  1  0
 16 33  1  0
 18 34  1  0
 18 35  1  0
A    1
OAO
A    2
CAP
A    3
NAI
A    4
CAC
A    5
OAB
A    6
CAD
A    7
CAQ
A    8
NAJ
A    9
CAK
A   10
CAL
A   11
CAE
A   12
NAM
A   13
CAR
A   14
CAS
A   15
OAT
A   16
NAN
A   17
CAG
A   18
CAF
A   19
OAH
M  END
