1R1O_SDC_A_1000
     RDKit          3D

 25 24  0  0  0  0  0  0  0  0999 V2000
    2.8040   50.7000   -3.2340 O   0  0  0  0  0  0  0  0  0  0  0  0
    6.1780   50.1760   -2.0890 N   0  0  0  0  0  0  0  0  0  0  0  0
    5.0470   49.6780   -2.9350 C   0  0  0  0  0  0  0  0  0  0  0  0
    4.0040   50.7900   -3.2370 C   0  0  0  0  0  0  0  0  0  0  0  0
    4.6620   51.9340   -3.5320 O   0  0  0  0  0  0  0  0  0  0  0  0
    4.4660   48.5030   -2.1530 C   0  0  0  0  0  0  0  0  0  0  0  0
    3.7370   47.3650   -3.3530 S   0  0  0  0  0  0  0  0  0  0  0  0
    2.5430   46.5170   -2.2440 C   0  0  0  0  0  0  0  0  0  0  0  0
    2.6830   45.0230   -2.5660 C   0  0  0  0  0  0  0  0  0  0  0  0
    1.2440   44.0910   -2.0310 S   0  0  0  0  0  0  0  0  0  0  0  0
    0.7560   43.2130   -3.0060 O   0  0  0  0  0  0  0  0  0  0  0  0
    1.7990   43.1630   -0.8040 N   0  0  0  0  0  0  0  0  0  0  0  0
    0.2890   44.8490   -1.2640 O   0  0  0  0  0  0  0  0  0  0  0  0
    2.3125   50.6631   -2.3754 H   0  0  0  0  0  0  0  0  0  0  0  0
    5.9352   50.0691   -1.0937 H   0  0  0  0  0  0  0  0  0  0  0  0
    7.0272   49.6310   -2.2957 H   0  0  0  0  0  0  0  0  0  0  0  0
    5.3826   49.3632   -3.9341 H   0  0  0  0  0  0  0  0  0  0  0  0
    5.2626   47.9956   -1.5891 H   0  0  0  0  0  0  0  0  0  0  0  0
    3.7078   48.8501   -1.4356 H   0  0  0  0  0  0  0  0  0  0  0  0
    2.7925   46.7091   -1.1900 H   0  0  0  0  0  0  0  0  0  0  0  0
    1.5144   46.8753   -2.3977 H   0  0  0  0  0  0  0  0  0  0  0  0
    2.8022   44.9021   -3.6528 H   0  0  0  0  0  0  0  0  0  0  0  0
    3.5613   44.6369   -2.0279 H   0  0  0  0  0  0  0  0  0  0  0  0
    1.5416   43.5935    0.0956 H   0  0  0  0  0  0  0  0  0  0  0  0
    1.3807   42.2239   -0.8674 H   0  0  0  0  0  0  0  0  0  0  0  0
  1  4  1  0
  2  3  1  0
  3  4  1  0
  3  6  1  0
  4  5  2  0
  6  7  1  0
  7  8  1  0
  8  9  1  0
  9 10  1  0
 10 11  2  0
 10 12  1  0
 10 13  2  0
  1 14  1  0
  2 15  1  0
  2 16  1  0
  3 17  1  0
  6 18  1  0
  6 19  1  0
  8 20  1  0
  8 21  1  0
  9 22  1  0
  9 23  1  0
 12 24  1  0
 12 25  1  0
A    1
O01
A    2
NP2
A    3
C03
A    4
C04
A    5
O05
A    6
C06
A    7
S07
A    8
C08
A    9
C09
A   10
S10
A   11
O11
A   12
N12
A   13
O13
M  END
