1R3T_CP3_A_867
     RDKit          3D

 92 96  0  0  0  0  0  0  0  0999 V2000
   16.0110   78.1380   62.7180 O   0  0  0  0  0  0  0  0  0  0  0  0
   16.8310   77.2050   62.5550 C   0  0  0  0  0  0  0  0  0  0  0  0
   18.0800   77.3600   62.5060 O   0  0  0  0  0  0  0  0  0  0  0  0
   16.2620   75.8220   62.4260 C   0  0  0  0  0  0  0  0  0  0  0  0
   15.6530   75.4380   63.7740 C   0  0  0  0  0  0  0  0  0  0  0  0
   14.1520   75.3610   63.6350 C   0  0  0  0  0  0  0  0  0  0  0  0
   13.5030   74.4080   62.9410 C   0  0  0  0  0  0  0  0  0  0  0  0
   12.1470   74.6670   63.0260 N   0  0  0  0  0  0  0  0  0  0  0  0
   14.2550   73.3120   62.2170 C   0  0  0  0  0  0  0  0  0  0  0  0
   13.4970   72.0450   61.9090 C   0  0  0  0  0  0  0  0  0  0  0  0
   13.1970   76.2420   64.1820 C   0  0  0  0  0  0  0  0  0  0  0  0
   13.4950   77.4570   65.0240 C   0  0  0  0  0  0  0  0  0  0  0  0
   11.9680   75.8060   63.7990 C   0  0  0  0  0  0  0  0  0  0  0  0
   10.6520   76.4650   64.1770 C   0  0  0  0  0  0  0  0  0  0  0  0
    9.5000   76.0730   63.2700 C   0  0  0  0  0  0  0  0  0  0  0  0
    8.9490   74.8110   63.1610 N   0  0  0  0  0  0  0  0  0  0  0  0
    8.8100   76.8870   62.4290 C   0  0  0  0  0  0  0  0  0  0  0  0
    9.0650   78.3580   62.2190 C   0  0  0  0  0  0  0  0  0  0  0  0
   10.3570   78.5400   61.4260 C   0  0  0  0  0  0  0  0  0  0  0  0
   10.4780   79.9710   60.9520 C   0  0  0  0  0  0  0  0  0  0  0  0
   10.0440   80.2550   59.8100 O   0  0  0  0  0  0  0  0  0  0  0  0
   11.0050   80.8170   61.7170 O   0  0  0  0  0  0  0  0  0  0  0  0
    7.8140   76.1190   61.7850 C   0  0  0  0  0  0  0  0  0  0  0  0
    6.8280   76.6370   60.7660 C   0  0  0  0  0  0  0  0  0  0  0  0
    7.9230   74.8490   62.2460 C   0  0  0  0  0  0  0  0  0  0  0  0
    7.1000   73.6440   61.8580 C   0  0  0  0  0  0  0  0  0  0  0  0
    7.9550   72.6880   61.0400 C   0  0  0  0  0  0  0  0  0  0  0  0
    8.9340   71.8650   61.5620 N   0  0  0  0  0  0  0  0  0  0  0  0
    7.9090   72.4730   59.7000 C   0  0  0  0  0  0  0  0  0  0  0  0
    6.9860   73.1650   58.7210 C   0  0  0  0  0  0  0  0  0  0  0  0
    8.8820   71.4910   59.3810 C   0  0  0  0  0  0  0  0  0  0  0  0
    9.1830   70.9630   57.9870 C   0  0  0  0  0  0  0  0  0  0  0  0
   10.3540   71.7400   57.3740 C   0  0  0  0  0  0  0  0  0  0  0  0
    9.8720   72.9980   56.6670 C   0  0  0  0  0  0  0  0  0  0  0  0
   10.0930   74.1190   57.2010 O   0  0  0  0  0  0  0  0  0  0  0  0
    9.2820   72.8930   55.5660 O   0  0  0  0  0  0  0  0  0  0  0  0
    9.5090   71.1390   60.5430 C   0  0  0  0  0  0  0  0  0  0  0  0
   10.6040   70.0930   60.7290 C   0  0  0  0  0  0  0  0  0  0  0  0
   11.9170   70.6170   61.2510 C   0  0  0  0  0  0  0  0  0  0  0  0
   12.2200   71.9510   61.4080 N   0  0  0  0  0  0  0  0  0  0  0  0
   13.0100   69.8810   61.6370 C   0  0  0  0  0  0  0  0  0  0  0  0
   14.0070   70.7970   62.0450 C   0  0  0  0  0  0  0  0  0  0  0  0
   15.3910   70.4480   62.5580 C   0  0  0  0  0  0  0  0  0  0  0  0
   13.1830   68.3640   61.6420 C   0  0  0  0  0  0  0  0  0  0  0  0
   14.2230   67.9120   60.5980 C   0  0  0  0  0  0  0  0  0  0  0  0
   13.6700   68.0330   59.1790 C   0  0  0  0  0  0  0  0  0  0  0  0
   14.4060   67.8720   58.1720 O   0  0  0  0  0  0  0  0  0  0  0  0
   12.4470   68.2830   59.0680 O   0  0  0  0  0  0  0  0  0  0  0  0
   15.7606   78.4229   63.6325 H   0  0  0  0  0  0  0  0  0  0  0  0
   15.4852   75.8084   61.6473 H   0  0  0  0  0  0  0  0  0  0  0  0
   17.0497   75.1080   62.1436 H   0  0  0  0  0  0  0  0  0  0  0  0
   16.0442   74.4595   64.0894 H   0  0  0  0  0  0  0  0  0  0  0  0
   15.9166   76.1942   64.5281 H   0  0  0  0  0  0  0  0  0  0  0  0
   11.3981   74.1100   62.5903 H   0  0  0  0  0  0  0  0  0  0  0  0
   14.6073   73.7277   61.2615 H   0  0  0  0  0  0  0  0  0  0  0  0
   15.0498   73.0054   62.9129 H   0  0  0  0  0  0  0  0  0  0  0  0
   13.4295   77.1900   66.0891 H   0  0  0  0  0  0  0  0  0  0  0  0
   14.5087   77.8197   64.7986 H   0  0  0  0  0  0  0  0  0  0  0  0
   12.7641   78.2476   64.7986 H   0  0  0  0  0  0  0  0  0  0  0  0
   10.3994   76.1739   65.2073 H   0  0  0  0  0  0  0  0  0  0  0  0
   10.7912   77.5513   64.0745 H   0  0  0  0  0  0  0  0  0  0  0  0
    9.2567   73.9767   63.6808 H   0  0  0  0  0  0  0  0  0  0  0  0
    8.2264   78.7999   61.6609 H   0  0  0  0  0  0  0  0  0  0  0  0
    9.1588   78.8578   63.1944 H   0  0  0  0  0  0  0  0  0  0  0  0
   11.2158   78.2956   62.0684 H   0  0  0  0  0  0  0  0  0  0  0  0
   10.3409   77.8714   60.5527 H   0  0  0  0  0  0  0  0  0  0  0  0
    9.2195   80.7945   59.7138 H   0  0  0  0  0  0  0  0  0  0  0  0
    5.9688   77.0884   61.2837 H   0  0  0  0  0  0  0  0  0  0  0  0
    7.3161   77.3951   60.1359 H   0  0  0  0  0  0  0  0  0  0  0  0
    6.4807   75.8049   60.1359 H   0  0  0  0  0  0  0  0  0  0  0  0
    6.7460   73.1339   62.7660 H   0  0  0  0  0  0  0  0  0  0  0  0
    6.2361   73.9675   61.2588 H   0  0  0  0  0  0  0  0  0  0  0  0
    9.1931   71.8040   62.5570 H   0  0  0  0  0  0  0  0  0  0  0  0
    6.2254   73.7352   59.2745 H   0  0  0  0  0  0  0  0  0  0  0  0
    7.5695   73.8500   58.0884 H   0  0  0  0  0  0  0  0  0  0  0  0
    6.4920   72.4128   58.0884 H   0  0  0  0  0  0  0  0  0  0  0  0
    9.4464   69.8969   58.0502 H   0  0  0  0  0  0  0  0  0  0  0  0
    8.2934   71.0903   57.3526 H   0  0  0  0  0  0  0  0  0  0  0  0
   11.0536   72.0241   58.1739 H   0  0  0  0  0  0  0  0  0  0  0  0
   10.8503   71.0943   56.6346 H   0  0  0  0  0  0  0  0  0  0  0  0
   10.1095   74.2028   58.1873 H   0  0  0  0  0  0  0  0  0  0  0  0
   10.2344   69.3372   61.4377 H   0  0  0  0  0  0  0  0  0  0  0  0
   10.8146   69.6933   59.7261 H   0  0  0  0  0  0  0  0  0  0  0  0
   11.5977   72.7417   61.1882 H   0  0  0  0  0  0  0  0  0  0  0  0
   15.3855   70.4494   63.6580 H   0  0  0  0  0  0  0  0  0  0  0  0
   15.6760   69.4499   62.1940 H   0  0  0  0  0  0  0  0  0  0  0  0
   16.1153   71.1916   62.1940 H   0  0  0  0  0  0  0  0  0  0  0  0
   13.5168   68.0453   62.6405 H   0  0  0  0  0  0  0  0  0  0  0  0
   12.2162   67.9049   61.3880 H   0  0  0  0  0  0  0  0  0  0  0  0
   15.1198   68.5426   60.6886 H   0  0  0  0  0  0  0  0  0  0  0  0
   14.4701   66.8569   60.7867 H   0  0  0  0  0  0  0  0  0  0  0  0
   11.8895   68.3970   59.8782 H   0  0  0  0  0  0  0  0  0  0  0  0
  1  2  1  0
  2  3  2  0
  2  4  1  0
  4  5  1  0
  5  6  1  0
  6  7  2  0
  6 11  1  0
  7  8  1  0
  7  9  1  0
  8 13  1  0
  9 10  1  0
 10 40  1  0
 10 42  2  0
 11 12  1  0
 11 13  2  0
 13 14  1  0
 14 15  1  0
 15 16  1  0
 15 17  2  0
 16 25  1  0
 17 18  1  0
 17 23  1  0
 18 19  1  0
 19 20  1  0
 20 21  1  0
 20 22  2  0
 23 24  1  0
 23 25  2  0
 25 26  1  0
 26 27  1  0
 27 28  1  0
 27 29  2  0
 28 37  1  0
 29 30  1  0
 29 31  1  0
 31 32  1  0
 31 37  2  0
 32 33  1  0
 33 34  1  0
 34 35  1  0
 34 36  2  0
 37 38  1  0
 38 39  1  0
 39 40  1  0
 39 41  2  0
 41 42  1  0
 41 44  1  0
 42 43  1  0
 44 45  1  0
 45 46  1  0
 46 47  2  0
 46 48  1  0
  1 49  1  0
  4 50  1  0
  4 51  1  0
  5 52  1  0
  5 53  1  0
  8 54  1  0
  9 55  1  0
  9 56  1  0
 12 57  1  0
 12 58  1  0
 12 59  1  0
 14 60  1  0
 14 61  1  0
 16 62  1  0
 18 63  1  0
 18 64  1  0
 19 65  1  0
 19 66  1  0
 21 67  1  0
 24 68  1  0
 24 69  1  0
 24 70  1  0
 26 71  1  0
 26 72  1  0
 28 73  1  0
 30 74  1  0
 30 75  1  0
 30 76  1  0
 32 77  1  0
 32 78  1  0
 33 79  1  0
 33 80  1  0
 35 81  1  0
 38 82  1  0
 38 83  1  0
 40 84  1  0
 43 85  1  0
 43 86  1  0
 43 87  1  0
 44 88  1  0
 44 89  1  0
 45 90  1  0
 45 91  1  0
 48 92  1  0
A    1
O2R
A    2
C63
A    3
O1R
A    4
C62
A    5
C61
A    6
C18
A    7
C19
A    8
N24
A    9
C20
A   10
C1
A   11
C17
A   12
C86
A   13
C16
A   14
C15
A   15
C14
A   16
N23
A   17
C13
A   18
C51
A   19
C52
A   20
C53
A   21
O2M
A   22
O1M
A   23
C12
A   24
C81
A   25
C11
A   26
C10
A   27
C6
A   28
N22
A   29
C7
A   30
C7A
A   31
C8
A   32
C41
A   33
C42
A   34
C43
A   35
O28
A   36
O18
A   37
C9
A   38
C5
A   39
C4
A   40
N21
A   41
C3
A   42
C2
A   43
C2A
A   44
C31
A   45
C32
A   46
C33
A   47
O13
A   48
O23
M  END
