1R5G_AO1_A_501
     RDKit          3D

 50 51  0  0  0  0  0  0  0  0999 V2000
   19.2480   33.7340   16.8230 C   0  0  0  0  0  0  0  0  0  0  0  0
   18.9690   33.1550   15.4470 C   0  0  0  0  0  0  0  0  0  0  0  0
   20.0340   31.7290   15.1370 S   0  0  0  0  0  0  0  0  0  0  0  0
   18.9110   30.5100   15.4980 C   0  0  0  0  0  0  0  0  0  0  0  0
   19.5070   29.8660   16.7390 C   0  0  0  0  0  0  0  0  0  0  0  0
   19.5750   28.3780   16.4560 C   0  0  0  0  0  0  0  0  0  0  0  0
   19.3960   27.5050   17.7830 C   0  0  0  0  0  0  0  0  0  0  0  0
   17.9770   27.5740   18.0830 C   0  0  0  0  0  0  0  0  0  0  0  0
   18.1360   27.9950   19.3360 N   0  0  0  0  0  0  0  0  0  0  0  0
   16.8550   28.0660   19.9400 C   0  0  0  0  0  0  0  0  0  0  0  0
   16.0610   29.4040   19.5460 C   0  0  0  0  0  0  0  0  0  0  0  0
   17.7060   27.4890   16.9060 O   0  0  0  0  0  0  0  0  0  0  0  0
   16.9370   27.9400   21.4610 C   0  0  0  0  0  0  0  0  0  0  0  0
   16.7730   30.7700   19.4660 C   0  0  0  0  0  0  0  0  0  0  0  0
   16.0380   32.0180   19.1280 C   0  0  0  0  0  0  0  0  0  0  0  0
   14.5970   32.0100   18.8640 C   0  0  0  0  0  0  0  0  0  0  0  0
   13.8530   30.7560   18.9130 C   0  0  0  0  0  0  0  0  0  0  0  0
   14.5610   29.3950   19.2600 C   0  0  0  0  0  0  0  0  0  0  0  0
   12.4150   30.7800   18.6340 C   0  0  0  0  0  0  0  0  0  0  0  0
   11.6110   29.5330   18.6740 C   0  0  0  0  0  0  0  0  0  0  0  0
   12.2550   28.2310   18.9990 C   0  0  0  0  0  0  0  0  0  0  0  0
   13.7050   28.1490   19.2890 C   0  0  0  0  0  0  0  0  0  0  0  0
   19.7450   26.1250   17.5420 O   0  0  0  0  0  0  0  0  0  0  0  0
   20.7050   27.9380   15.6500 N   0  0  0  0  0  0  0  0  0  0  0  0
   18.9075   33.0273   17.5941 H   0  0  0  0  0  0  0  0  0  0  0  0
   20.3284   33.9072   16.9358 H   0  0  0  0  0  0  0  0  0  0  0  0
   18.7102   34.6869   16.9358 H   0  0  0  0  0  0  0  0  0  0  0  0
   17.9164   32.8401   15.3928 H   0  0  0  0  0  0  0  0  0  0  0  0
   19.1725   33.9245   14.6878 H   0  0  0  0  0  0  0  0  0  0  0  0
   17.9184   30.9345   15.7089 H   0  0  0  0  0  0  0  0  0  0  0  0
   18.7532   29.8021   14.6710 H   0  0  0  0  0  0  0  0  0  0  0  0
   20.5149   30.2641   16.9279 H   0  0  0  0  0  0  0  0  0  0  0  0
   18.8972   30.0758   17.6301 H   0  0  0  0  0  0  0  0  0  0  0  0
   18.7070   28.1915   15.8066 H   0  0  0  0  0  0  0  0  0  0  0  0
   20.0370   27.8774   18.5957 H   0  0  0  0  0  0  0  0  0  0  0  0
   19.0320   28.2282   19.7873 H   0  0  0  0  0  0  0  0  0  0  0  0
   16.2900   27.2091   19.5444 H   0  0  0  0  0  0  0  0  0  0  0  0
   16.3937   28.7748   21.9279 H   0  0  0  0  0  0  0  0  0  0  0  0
   16.4854   26.9874   21.7749 H   0  0  0  0  0  0  0  0  0  0  0  0
   17.9909   27.9672   21.7749 H   0  0  0  0  0  0  0  0  0  0  0  0
   17.8537   30.8225   19.6643 H   0  0  0  0  0  0  0  0  0  0  0  0
   16.5889   32.9686   19.0750 H   0  0  0  0  0  0  0  0  0  0  0  0
   14.0759   32.9497   18.6288 H   0  0  0  0  0  0  0  0  0  0  0  0
   11.9248   31.7345   18.3917 H   0  0  0  0  0  0  0  0  0  0  0  0
   10.5323   29.5713   18.4621 H   0  0  0  0  0  0  0  0  0  0  0  0
   11.6448   27.3161   19.0242 H   0  0  0  0  0  0  0  0  0  0  0  0
   14.1615   27.1768   19.5267 H   0  0  0  0  0  0  0  0  0  0  0  0
   19.8630   25.6585   18.4072 H   0  0  0  0  0  0  0  0  0  0  0  0
   21.4724   27.6392   16.2687 H   0  0  0  0  0  0  0  0  0  0  0  0
   20.4158   27.1481   15.0556 H   0  0  0  0  0  0  0  0  0  0  0  0
  1  2  1  0
  2  3  1  0
  3  4  1  0
  4  5  1  0
  5  6  1  0
  6  7  1  0
  6 24  1  0
  7  8  1  0
  7 23  1  0
  8  9  1  0
  8 12  2  0
  9 10  1  0
 10 11  1  0
 10 13  1  0
 11 14  2  0
 11 18  1  0
 14 15  1  0
 15 16  2  0
 16 17  1  0
 17 18  2  0
 17 19  1  0
 18 22  1  0
 19 20  2  0
 20 21  1  0
 21 22  2  0
  1 25  1  0
  1 26  1  0
  1 27  1  0
  2 28  1  0
  2 29  1  0
  4 30  1  0
  4 31  1  0
  5 32  1  0
  5 33  1  0
  6 34  1  0
  7 35  1  0
  9 36  1  0
 10 37  1  0
 13 38  1  0
 13 39  1  0
 13 40  1  0
 14 41  1  0
 15 42  1  0
 16 43  1  0
 19 44  1  0
 20 45  1  0
 21 46  1  0
 22 47  1  0
 23 48  1  0
 24 49  1  0
 24 50  1  0
A    1
C1
A    2
C2
A    3
S3
A    4
C4
A    5
C5
A    6
C6
A    7
C8
A    8
C9
A    9
N10
A   10
C11
A   11
C12
A   12
O13
A   13
C14
A   14
C15
A   15
C16
A   16
C17
A   17
C18
A   18
C19
A   19
C20
A   20
C21
A   21
C22
A   22
C23
A   23
O24
A   24
N7
M  END
