1R78_FMD_A_299
     RDKit          3D

 48 50  0  0  0  0  0  0  0  0999 V2000
   16.8200   -6.2940   12.7790 F   0  0  0  0  0  0  0  0  0  0  0  0
   16.0240   -7.2080   13.3630 C   0  0  0  0  0  0  0  0  0  0  0  0
   14.8770   -7.6070   12.6580 C   0  0  0  0  0  0  0  0  0  0  0  0
   14.5880   -7.0390   11.4020 C   0  0  0  0  0  0  0  0  0  0  0  0
   14.3260   -6.5710   10.3330 C   0  0  0  0  0  0  0  0  0  0  0  0
   13.9630   -6.0270    9.0860 C   0  0  0  0  0  0  0  0  0  0  0  0
   14.1610   -4.6110    9.1400 O   0  0  0  0  0  0  0  0  0  0  0  0
   14.6030   -6.7310    7.8620 C   0  0  0  0  0  0  0  0  0  0  0  0
   15.0060   -8.1160    8.1400 N   0  0  0  0  0  0  0  0  0  0  0  0
   13.5260   -6.7260    6.7610 C   0  0  0  0  0  0  0  0  0  0  0  0
   14.0860   -6.7570    5.4410 O   0  0  0  0  0  0  0  0  0  0  0  0
   12.5500   -5.5320    6.8670 C   0  0  0  0  0  0  0  0  0  0  0  0
   14.0350   -8.6160   13.3210 C   0  0  0  0  0  0  0  0  0  0  0  0
   14.4160   -9.1250   14.6010 C   0  0  0  0  0  0  0  0  0  0  0  0
   13.4400  -10.0330   14.9620 N   0  0  0  0  0  0  0  0  0  0  0  0
   12.4300  -10.2030   13.9990 C   0  0  0  0  0  0  0  0  0  0  0  0
   11.4920  -10.9640   14.1290 O   0  0  0  0  0  0  0  0  0  0  0  0
   15.5580   -8.6850   15.2550 C   0  0  0  0  0  0  0  0  0  0  0  0
   16.3660   -7.7200   14.6230 C   0  0  0  0  0  0  0  0  0  0  0  0
   12.8870   -9.2350   12.9440 C   0  0  0  0  0  0  0  0  0  0  0  0
   12.1510   -9.0080   11.6890 C   0  0  0  0  0  0  0  0  0  0  0  0
   10.8900   -9.5210   11.1570 C   0  0  0  0  0  0  0  0  0  0  0  0
   10.2570   -9.2220    9.9660 C   0  0  0  0  0  0  0  0  0  0  0  0
   10.7020   -8.3290    9.0100 O   0  0  0  0  0  0  0  0  0  0  0  0
   10.2500   -8.4690    7.6530 C   0  0  0  0  0  0  0  0  0  0  0  0
    9.0360  -10.0210    9.9770 C   0  0  0  0  0  0  0  0  0  0  0  0
    9.0230  -10.7450   11.1260 C   0  0  0  0  0  0  0  0  0  0  0  0
   10.1410  -10.4580   11.8400 N   0  0  0  0  0  0  0  0  0  0  0  0
   12.8953   -6.2239    8.9094 H   0  0  0  0  0  0  0  0  0  0  0  0
   14.2018   -4.3193   10.0852 H   0  0  0  0  0  0  0  0  0  0  0  0
   15.5212   -6.1989    7.5727 H   0  0  0  0  0  0  0  0  0  0  0  0
   15.0488   -8.2632    9.1585 H   0  0  0  0  0  0  0  0  0  0  0  0
   14.3184   -8.7629    7.7282 H   0  0  0  0  0  0  0  0  0  0  0  0
   12.9579   -7.6525    6.9307 H   0  0  0  0  0  0  0  0  0  0  0  0
   15.0726   -6.8116    5.5023 H   0  0  0  0  0  0  0  0  0  0  0  0
   12.3635   -5.3038    7.9268 H   0  0  0  0  0  0  0  0  0  0  0  0
   12.9914   -4.6528    6.3748 H   0  0  0  0  0  0  0  0  0  0  0  0
   11.6006   -5.7897    6.3748 H   0  0  0  0  0  0  0  0  0  0  0  0
   13.4511  -10.5409   15.8580 H   0  0  0  0  0  0  0  0  0  0  0  0
   15.8264   -9.0813   16.2454 H   0  0  0  0  0  0  0  0  0  0  0  0
   17.2777   -7.3631   15.1245 H   0  0  0  0  0  0  0  0  0  0  0  0
   12.6558   -8.3053   11.0097 H   0  0  0  0  0  0  0  0  0  0  0  0
    9.1993   -8.7945    7.6483 H   0  0  0  0  0  0  0  0  0  0  0  0
   10.3367   -7.5019    7.1360 H   0  0  0  0  0  0  0  0  0  0  0  0
   10.8681   -9.2178    7.1360 H   0  0  0  0  0  0  0  0  0  0  0  0
    8.2635  -10.0345    9.1940 H   0  0  0  0  0  0  0  0  0  0  0  0
    8.2344  -11.4496   11.4288 H   0  0  0  0  0  0  0  0  0  0  0  0
   10.3912  -10.8739   12.7485 H   0  0  0  0  0  0  0  0  0  0  0  0
  1  2  1  0
  2  3  2  0
  2 19  1  0
  3  4  1  0
  3 13  1  0
  4  5  3  0
  5  6  1  0
  6  7  1  0
  6  8  1  0
  8  9  1  0
  8 10  1  0
 10 11  1  0
 10 12  1  0
 13 14  2  0
 13 20  1  0
 14 15  1  0
 14 18  1  0
 15 16  1  0
 16 17  2  0
 16 20  1  0
 18 19  2  0
 20 21  2  0
 21 22  1  0
 22 23  2  0
 22 28  1  0
 23 24  1  0
 23 26  1  0
 24 25  1  0
 26 27  2  0
 27 28  1  0
  6 29  1  0
  7 30  1  0
  8 31  1  0
  9 32  1  0
  9 33  1  0
 10 34  1  0
 11 35  1  0
 12 36  1  0
 12 37  1  0
 12 38  1  0
 15 39  1  0
 18 40  1  0
 19 41  1  0
 21 42  1  0
 25 43  1  0
 25 44  1  0
 25 45  1  0
 26 46  1  0
 27 47  1  0
 28 48  1  0
A    1
F17
A    2
C1
A    3
C2
A    4
C18
A    5
C19
A    6
C20
A    7
O27
A    8
C23
A    9
N28
A   10
C24
A   11
O26
A   12
C25
A   13
C3
A   14
C4
A   15
N9
A   16
C8
A   17
O10
A   18
C5
A   19
C6
A   20
C7
A   21
C11
A   22
C12
A   23
C13
A   24
O21
A   25
C22
A   26
C14
A   27
C15
A   28
N16
M  END
