1RA0_FPY_A_501
     RDKit          3D

 14 14  0  0  0  0  0  0  0  0999 V2000
    3.9910   23.8270  102.0730 N   0  0  0  0  0  0  0  0  0  0  0  0
    4.0450   22.4370  102.3110 C   0  0  0  0  0  0  0  0  0  0  0  0
    3.5130   21.5550  101.6190 O   0  0  0  0  0  0  0  0  0  0  0  0
    4.7710   22.0870  103.4310 N   0  0  0  0  0  0  0  0  0  0  0  0
    5.4230   23.0180  104.3000 C   0  0  0  0  0  0  0  0  0  0  0  0
    6.8820   22.8000  104.0060 O   0  0  0  0  0  0  0  0  0  0  0  0
    5.3230   24.4240  104.0160 C   0  0  0  0  0  0  0  0  0  0  0  0
    5.9000   25.2970  104.8230 F   0  0  0  0  0  0  0  0  0  0  0  0
    4.6320   24.8110  102.9340 C   0  0  0  0  0  0  0  0  0  0  0  0
    3.4721   24.1623  101.2489 H   0  0  0  0  0  0  0  0  0  0  0  0
    4.8490   21.0852  103.6573 H   0  0  0  0  0  0  0  0  0  0  0  0
    4.9822   22.8374  105.2915 H   0  0  0  0  0  0  0  0  0  0  0  0
    7.3825   22.7252  104.8569 H   0  0  0  0  0  0  0  0  0  0  0  0
    4.5486   25.8814  102.6946 H   0  0  0  0  0  0  0  0  0  0  0  0
  1  2  1  0
  1  9  1  0
  2  3  2  0
  2  4  1  0
  4  5  1  0
  5  6  1  0
  5  7  1  0
  7  8  1  0
  7  9  2  0
  1 10  1  0
  4 11  1  0
  5 12  1  0
  6 13  1  0
  9 14  1  0
A    1
N1
A    2
C2
A    3
O2
A    4
N3
A    5
C4
A    6
O4
A    7
C5
A    8
F5
A    9
C6
M  END
