1RC1_KT3_A_510
     RDKit          3D

 65 66  0  0  0  0  0  0  0  0999 V2000
  -10.1100   55.3810   22.0880 N   0  0  0  0  0  0  0  0  0  0  0  0
   -9.2780   54.3710   21.8820 C   0  0  0  0  0  0  0  0  0  0  0  0
   -9.3920   53.2380   22.3570 O   0  0  0  0  0  0  0  0  0  0  0  0
   -8.1600   54.7760   20.9970 C   0  0  0  0  0  0  0  0  0  0  0  0
   -6.9780   53.7980   20.9610 C   0  0  0  0  0  0  0  0  0  0  0  0
   -5.6950   54.3140   20.3860 C   0  0  0  0  0  0  0  0  0  0  0  0
   -4.5550   53.2450   20.1640 C   0  0  0  0  0  0  0  0  0  0  0  0
   -3.8330   52.9780   21.1070 O   0  0  0  0  0  0  0  0  0  0  0  0
   -4.3870   52.6220   18.9610 O   0  0  0  0  0  0  0  0  0  0  0  0
   -6.0300   54.9550   19.0550 N   0  0  0  0  0  0  0  0  0  0  0  0
   -5.8550   56.3110   18.8360 C   0  0  0  0  0  0  0  0  0  0  0  0
   -5.2690   57.0530   19.6170 O   0  0  0  0  0  0  0  0  0  0  0  0
   -6.2530   56.7720   17.5350 C   0  0  0  0  0  0  0  0  0  0  0  0
   -7.1330   55.9360   16.6660 C   0  0  0  0  0  0  0  0  0  0  0  0
   -7.3710   56.3770   15.3580 C   0  0  0  0  0  0  0  0  0  0  0  0
   -5.6430   58.0560   17.0760 C   0  0  0  0  0  0  0  0  0  0  0  0
   -5.8880   58.5260   15.7420 C   0  0  0  0  0  0  0  0  0  0  0  0
   -6.7860   57.6370   14.8540 C   0  0  0  0  0  0  0  0  0  0  0  0
   -7.4390   57.8910   13.3920 C   0  0  0  0  0  0  0  0  0  0  0  0
   -8.2790   59.0940   12.8700 C   0  0  0  0  0  0  0  0  0  0  0  0
   -9.7000   58.7920   13.3160 C   0  0  0  0  0  0  0  0  0  0  0  0
   -9.8520   58.3850   14.6250 F   0  0  0  0  0  0  0  0  0  0  0  0
   -9.8590   57.6530   12.6560 F   0  0  0  0  0  0  0  0  0  0  0  0
  -10.5350   59.7670   12.9370 F   0  0  0  0  0  0  0  0  0  0  0  0
   -8.0660   59.6180   11.8310 O   0  0  0  0  0  0  0  0  0  0  0  0
   -7.9340   60.1900   13.9760 O   0  0  0  0  0  0  0  0  0  0  0  0
   -7.0140   57.0610   12.1650 C   0  0  0  0  0  0  0  0  0  0  0  0
   -5.4020   56.6420   12.1750 C   0  0  0  0  0  0  0  0  0  0  0  0
   -5.0920   56.1410   10.7210 C   0  0  0  0  0  0  0  0  0  0  0  0
   -3.8660   55.3660   11.0770 C   0  0  0  0  0  0  0  0  0  0  0  0
   -3.4870   54.0980   11.6910 C   0  0  0  0  0  0  0  0  0  0  0  0
   -4.4680   53.2260   12.0940 N   0  0  0  0  0  0  0  0  0  0  0  0
   -2.7880   56.0980   10.7500 C   0  0  0  0  0  0  0  0  0  0  0  0
   -2.6280   57.3030   10.0750 O   0  0  0  0  0  0  0  0  0  0  0  0
   -1.2600   55.6880   10.9800 N   0  0  0  0  0  0  0  0  0  0  0  0
   -1.0610   54.4790   11.5670 C   0  0  0  0  0  0  0  0  0  0  0  0
    0.1780   54.0630   11.9230 N   0  0  0  0  0  0  0  0  0  0  0  0
   -2.0960   53.7460   11.8900 N   0  0  0  0  0  0  0  0  0  0  0  0
  -10.3453   55.6666   23.0492 H   0  0  0  0  0  0  0  0  0  0  0  0
  -10.5217   55.8807   21.2869 H   0  0  0  0  0  0  0  0  0  0  0  0
   -8.5525   54.8755   19.9742 H   0  0  0  0  0  0  0  0  0  0  0  0
   -7.7682   55.7188   21.4065 H   0  0  0  0  0  0  0  0  0  0  0  0
   -6.7762   53.4809   21.9948 H   0  0  0  0  0  0  0  0  0  0  0  0
   -7.2928   52.9891   20.2853 H   0  0  0  0  0  0  0  0  0  0  0  0
   -5.2800   55.0126   21.1275 H   0  0  0  0  0  0  0  0  0  0  0  0
   -4.1623   53.0998   22.0326 H   0  0  0  0  0  0  0  0  0  0  0  0
   -6.3974   54.3670   18.2933 H   0  0  0  0  0  0  0  0  0  0  0  0
   -7.5802   55.0035   17.0408 H   0  0  0  0  0  0  0  0  0  0  0  0
   -8.0060   55.7734   14.6928 H   0  0  0  0  0  0  0  0  0  0  0  0
   -5.0078   58.6398   17.7584 H   0  0  0  0  0  0  0  0  0  0  0  0
   -5.4591   59.4689   15.3720 H   0  0  0  0  0  0  0  0  0  0  0  0
   -7.9870   57.5869   14.2960 H   0  0  0  0  0  0  0  0  0  0  0  0
   -7.6979   60.5236   11.9875 H   0  0  0  0  0  0  0  0  0  0  0  0
   -8.0570   59.7994   14.8773 H   0  0  0  0  0  0  0  0  0  0  0  0
   -7.6136   56.1391   12.1432 H   0  0  0  0  0  0  0  0  0  0  0  0
   -7.1809   57.6872   11.2761 H   0  0  0  0  0  0  0  0  0  0  0  0
   -4.7793   57.5144   12.4223 H   0  0  0  0  0  0  0  0  0  0  0  0
   -5.1849   55.8703   12.9283 H   0  0  0  0  0  0  0  0  0  0  0  0
   -5.8914   55.5060   10.3115 H   0  0  0  0  0  0  0  0  0  0  0  0
   -4.9899   56.9075    9.9387 H   0  0  0  0  0  0  0  0  0  0  0  0
   -4.6403   53.0729   13.0979 H   0  0  0  0  0  0  0  0  0  0  0  0
   -5.0316   52.7250   11.3924 H   0  0  0  0  0  0  0  0  0  0  0  0
   -2.5163   58.1446   10.5842 H   0  0  0  0  0  0  0  0  0  0  0  0
    0.4268   53.9795   12.9190 H   0  0  0  0  0  0  0  0  0  0  0  0
    0.8713   53.8302   11.1977 H   0  0  0  0  0  0  0  0  0  0  0  0
  1  2  1  0
  2  3  2  0
  2  4  1  0
  4  5  1  0
  5  6  1  0
  6  7  1  0
  6 10  1  0
  7  8  1  0
  7  9  2  0
 10 11  1  0
 11 12  2  0
 11 13  1  0
 13 14  2  0
 13 16  1  0
 14 15  1  0
 15 18  2  0
 16 17  2  0
 17 18  1  0
 18 19  1  0
 19 20  1  0
 19 27  1  0
 20 21  1  0
 20 25  1  0
 20 26  1  0
 21 22  1  0
 21 23  1  0
 21 24  1  0
 27 28  1  0
 28 29  1  0
 29 30  1  0
 30 31  2  0
 30 33  1  0
 31 32  1  0
 31 38  1  0
 33 34  1  0
 33 35  2  0
 35 36  1  0
 36 37  1  0
 36 38  2  0
  1 39  1  0
  1 40  1  0
  4 41  1  0
  4 42  1  0
  5 43  1  0
  5 44  1  0
  6 45  1  0
  8 46  1  0
 10 47  1  0
 14 48  1  0
 15 49  1  0
 16 50  1  0
 17 51  1  0
 19 52  1  0
 25 53  1  0
 26 54  1  0
 27 55  1  0
 27 56  1  0
 28 57  1  0
 28 58  1  0
 29 59  1  0
 29 60  1  0
 32 61  1  0
 32 62  1  0
 34 63  1  0
 37 64  1  0
 37 65  1  0
A    1
N2A
A    2
CD1
A    3
OEB
A    4
CG1
A    5
CB1
A    6
CA1
A    7
C1A
A    8
O11
A    9
O1A
A   10
N1A
A   11
C
A   12
O
A   13
C14
A   14
C15
A   15
C16
A   16
C13
A   17
C12
A   18
C11
A   19
C10
A   20
C5
A   21
C6
A   22
F2
A   23
F1
A   24
F3
A   25
OA2
A   26
OA1
A   27
C1
A   28
C2
A   29
C3
A   30
C4
A   31
C7
A   32
N8
A   33
C9
A   34
O1
A   35
N3
A   36
C8
A   37
N2
A   38
N1
M  END
