1RCO_XDP_L_476
     RDKit          3D

 33 32  0  0  0  0  0  0  0  0999 V2000
  -86.1320   40.5820    5.2030 C   0  0  0  0  0  0  0  0  0  0  0  0
  -86.0620   39.9440    6.5900 C   0  0  0  0  0  0  0  0  0  0  0  0
  -86.0000   40.8790    7.7620 C   0  0  0  0  0  0  0  0  0  0  0  0
  -86.9820   41.9800    7.7880 C   0  0  0  0  0  0  0  0  0  0  0  0
  -87.0460   42.5000    9.2140 C   0  0  0  0  0  0  0  0  0  0  0  0
  -85.9450   39.6620    4.1770 O   0  0  0  0  0  0  0  0  0  0  0  0
  -87.1510   39.1320    6.7900 O   0  0  0  0  0  0  0  0  0  0  0  0
  -84.9550   39.1110    6.6970 O   0  0  0  0  0  0  0  0  0  0  0  0
  -84.6760   41.3520    7.8210 O   0  0  0  0  0  0  0  0  0  0  0  0
  -86.6550   43.0890    7.0490 O   0  0  0  0  0  0  0  0  0  0  0  0
  -88.1580   43.3420    9.4540 O   0  0  0  0  0  0  0  0  0  0  0  0
  -86.5920   39.7610    2.7210 P   0  0  0  0  0  0  0  0  0  0  0  0
  -88.1950   44.9070    9.7280 P   0  0  0  0  0  0  0  0  0  0  0  0
  -86.2080   38.6010    1.8620 O   0  0  0  0  0  0  0  0  0  0  0  0
  -85.9520   41.0100    2.0760 O   0  0  0  0  0  0  0  0  0  0  0  0
  -88.0190   40.0570    2.8960 O   0  0  0  0  0  0  0  0  0  0  0  0
  -89.6370   45.2380    9.7460 O   0  0  0  0  0  0  0  0  0  0  0  0
  -87.5140   45.4930    8.5090 O   0  0  0  0  0  0  0  0  0  0  0  0
  -87.3830   45.0500   10.9380 O   0  0  0  0  0  0  0  0  0  0  0  0
  -87.1203   41.0492    5.0804 H   0  0  0  0  0  0  0  0  0  0  0  0
  -85.3203   41.3215    5.1370 H   0  0  0  0  0  0  0  0  0  0  0  0
  -86.2903   40.3093    8.6571 H   0  0  0  0  0  0  0  0  0  0  0  0
  -87.9060   41.5465    7.3779 H   0  0  0  0  0  0  0  0  0  0  0  0
  -87.1058   41.6397    9.8969 H   0  0  0  0  0  0  0  0  0  0  0  0
  -86.1402   43.1010    9.3823 H   0  0  0  0  0  0  0  0  0  0  0  0
  -87.3037   39.0181    7.7615 H   0  0  0  0  0  0  0  0  0  0  0  0
  -84.7495   38.9564    7.6530 H   0  0  0  0  0  0  0  0  0  0  0  0
  -84.4024   41.4498    8.7674 H   0  0  0  0  0  0  0  0  0  0  0  0
  -86.4342   43.8379    7.6577 H   0  0  0  0  0  0  0  0  0  0  0  0
  -85.6375   41.6237    2.7863 H   0  0  0  0  0  0  0  0  0  0  0  0
  -88.2309   40.1009    3.8621 H   0  0  0  0  0  0  0  0  0  0  0  0
  -86.7961   46.1108    8.7971 H   0  0  0  0  0  0  0  0  0  0  0  0
  -87.9596   44.9484   11.7363 H   0  0  0  0  0  0  0  0  0  0  0  0
  1  2  1  0
  1  6  1  0
  2  3  1  0
  2  7  1  0
  2  8  1  0
  3  4  1  0
  3  9  1  0
  4  5  1  0
  4 10  1  0
  5 11  1  0
  6 12  1  0
 11 13  1  0
 12 14  2  0
 12 15  1  0
 12 16  1  0
 13 17  2  0
 13 18  1  0
 13 19  1  0
  1 20  1  0
  1 21  1  0
  3 22  1  0
  4 23  1  0
  5 24  1  0
  5 25  1  0
  7 26  1  0
  8 27  1  0
  9 28  1  0
 10 29  1  0
 15 30  1  0
 16 31  1  0
 18 32  1  0
 19 33  1  0
A    1
C1
A    2
C2
A    3
C3
A    4
C4
A    5
C5
A    6
O1
A    7
O21
A    8
O22
A    9
O3
A   10
O4
A   11
O5
A   12
P1
A   13
P2
A   14
O1P
A   15
O2P
A   16
O3P
A   17
O4P
A   18
O5P
A   19
O6P
M  END
