1RCV_BV1_D_104
     RDKit          3D

 40 41  0  0  0  0  0  0  0  0999 V2000
  -13.3540  -17.4620   -3.3890 N   0  0  0  0  0  0  0  0  0  0  0  0
  -12.8740  -18.4750   -2.6780 C   0  0  0  0  0  0  0  0  0  0  0  0
  -12.6020  -19.5690   -3.1680 O   0  0  0  0  0  0  0  0  0  0  0  0
  -12.8720  -18.2610   -1.1540 C   0  0  0  0  0  0  0  0  0  0  0  0
  -12.5080  -19.3010   -0.2990 C   0  0  0  0  0  0  0  0  0  0  0  0
  -13.2270  -17.0200   -0.6280 C   0  0  0  0  0  0  0  0  0  0  0  0
  -13.2000  -16.8090    0.7450 C   0  0  0  0  0  0  0  0  0  0  0  0
  -13.4950  -15.6200    1.2910 N   0  0  0  0  0  0  0  0  0  0  0  0
  -13.6000  -14.5220    0.3940 O   0  0  0  0  0  0  0  0  0  0  0  0
  -12.8850  -15.3290    2.6040 O   0  0  0  0  0  0  0  0  0  0  0  0
  -12.8150  -17.8450    1.5790 C   0  0  0  0  0  0  0  0  0  0  0  0
  -12.4570  -19.0870    1.0760 C   0  0  0  0  0  0  0  0  0  0  0  0
  -12.1320  -20.0760    1.9520 O   0  0  0  0  0  0  0  0  0  0  0  0
  -10.7580  -20.3530    2.0410 C   0  0  0  0  0  0  0  0  0  0  0  0
  -10.0970  -19.1920    2.5900 O   0  0  0  0  0  0  0  0  0  0  0  0
  -10.5140  -18.8730    3.9000 C   0  0  0  0  0  0  0  0  0  0  0  0
   -9.6960  -17.5950    4.2320 C   0  0  0  0  0  0  0  0  0  0  0  0
  -10.0400  -16.5230    3.3350 O   0  0  0  0  0  0  0  0  0  0  0  0
  -10.3060  -20.0420    4.8540 C   0  0  0  0  0  0  0  0  0  0  0  0
   -8.9110  -20.3710    4.9970 O   0  0  0  0  0  0  0  0  0  0  0  0
  -11.0510  -21.2970    4.3560 C   0  0  0  0  0  0  0  0  0  0  0  0
  -10.7290  -22.3890    5.1880 O   0  0  0  0  0  0  0  0  0  0  0  0
  -10.6420  -21.6010    2.9040 C   0  0  0  0  0  0  0  0  0  0  0  0
  -11.4820  -22.6430    2.3670 O   0  0  0  0  0  0  0  0  0  0  0  0
  -13.7448  -16.6372   -2.9116 H   0  0  0  0  0  0  0  0  0  0  0  0
  -13.3356  -17.5007   -4.4181 H   0  0  0  0  0  0  0  0  0  0  0  0
  -12.2611  -20.2906   -0.7110 H   0  0  0  0  0  0  0  0  0  0  0  0
  -13.5295  -16.2051   -1.3021 H   0  0  0  0  0  0  0  0  0  0  0  0
  -12.7925  -17.6791    2.6662 H   0  0  0  0  0  0  0  0  0  0  0  0
  -10.2719  -20.5509    1.0743 H   0  0  0  0  0  0  0  0  0  0  0  0
  -11.5925  -18.6809    3.9992 H   0  0  0  0  0  0  0  0  0  0  0  0
   -9.9135  -17.2853    5.2649 H   0  0  0  0  0  0  0  0  0  0  0  0
   -8.6255  -17.8211    4.1186 H   0  0  0  0  0  0  0  0  0  0  0  0
  -10.2966  -15.7234    3.8594 H   0  0  0  0  0  0  0  0  0  0  0  0
  -10.7061  -19.7269    5.8290 H   0  0  0  0  0  0  0  0  0  0  0  0
   -8.6816  -20.4251    5.9585 H   0  0  0  0  0  0  0  0  0  0  0  0
  -12.1364  -21.1214    4.3900 H   0  0  0  0  0  0  0  0  0  0  0  0
  -10.8094  -22.1163    6.1363 H   0  0  0  0  0  0  0  0  0  0  0  0
   -9.5941  -21.9355    2.8994 H   0  0  0  0  0  0  0  0  0  0  0  0
  -11.8923  -23.1520    3.1104 H   0  0  0  0  0  0  0  0  0  0  0  0
  1  2  1  0
  2  3  2  0
  2  4  1  0
  4  5  2  0
  4  6  1  0
  5 12  1  0
  6  7  2  0
  7  8  1  0
  7 11  1  0
  8  9  1  0
  8 10  2  0
 11 12  2  0
 12 13  1  0
 13 14  1  0
 14 15  1  0
 14 23  1  0
 15 16  1  0
 16 17  1  0
 16 19  1  0
 17 18  1  0
 19 20  1  0
 19 21  1  0
 21 22  1  0
 21 23  1  0
 23 24  1  0
  1 25  1  0
  1 26  1  0
  5 27  1  0
  6 28  1  0
 11 29  1  0
 14 30  1  0
 16 31  1  0
 17 32  1  0
 17 33  1  0
 18 34  1  0
 19 35  1  0
 20 36  1  0
 21 37  1  0
 22 38  1  0
 23 39  1  0
 24 40  1  0
M  CHG  2   8   1   9  -1
A    1
N9
A    2
C38
A    3
O12
A    4
C39
A    5
C44
A    6
C40
A    7
C41
A    8
N10
A    9
O15
A   10
O14
A   11
C42
A   12
C43
A   13
O13
A   14
C45
A   15
O16
A   16
C46
A   17
C50
A   18
O20
A   19
C47
A   20
O17
A   21
C48
A   22
O18
A   23
C49
A   24
O19
M  END
