1RDT_L79_A_463
     RDKit          3D

 58 61  0  0  0  0  0  0  0  0999 V2000
   10.7170   36.2230   45.5440 C   0  0  0  0  0  0  0  0  0  0  0  0
   11.7060   35.4770   46.1770 C   0  0  0  0  0  0  0  0  0  0  0  0
   12.7460   35.2610   45.3090 O   0  0  0  0  0  0  0  0  0  0  0  0
   12.4220   35.8680   44.1240 C   0  0  0  0  0  0  0  0  0  0  0  0
   11.1730   36.4650   44.2540 C   0  0  0  0  0  0  0  0  0  0  0  0
   11.5890   35.0460   47.4750 C   0  0  0  0  0  0  0  0  0  0  0  0
   12.1340   33.9130   47.9100 C   0  0  0  0  0  0  0  0  0  0  0  0
   12.0190   33.4180   49.3210 C   0  0  0  0  0  0  0  0  0  0  0  0
   12.6700   32.4120   49.6010 O   0  0  0  0  0  0  0  0  0  0  0  0
   11.2670   33.9590   50.1300 O   0  0  0  0  0  0  0  0  0  0  0  0
   10.4750   37.2330   43.1460 C   0  0  0  0  0  0  0  0  0  0  0  0
   11.4110   37.5540   41.9780 C   0  0  0  0  0  0  0  0  0  0  0  0
   12.5720   36.5990   41.6880 C   0  0  0  0  0  0  0  0  0  0  0  0
   13.2600   35.9040   42.8630 C   0  0  0  0  0  0  0  0  0  0  0  0
    9.0150   37.0690   42.7910 C   0  0  0  0  0  0  0  0  0  0  0  0
    8.2720   38.0890   42.3230 C   0  0  0  0  0  0  0  0  0  0  0  0
    6.9700   37.9980   41.9940 C   0  0  0  0  0  0  0  0  0  0  0  0
    6.2530   39.2330   41.4750 C   0  0  0  0  0  0  0  0  0  0  0  0
    4.7620   39.1060   41.1670 C   0  0  0  0  0  0  0  0  0  0  0  0
    6.2980   40.4060   42.4540 C   0  0  0  0  0  0  0  0  0  0  0  0
    6.8620   39.7600   40.1760 C   0  0  0  0  0  0  0  0  0  0  0  0
    6.3590   36.8020   42.1430 C   0  0  0  0  0  0  0  0  0  0  0  0
    4.8980   36.5650   41.8130 C   0  0  0  0  0  0  0  0  0  0  0  0
    4.0710   36.2260   43.0520 C   0  0  0  0  0  0  0  0  0  0  0  0
    4.1410   37.7090   41.1370 C   0  0  0  0  0  0  0  0  0  0  0  0
    4.6760   35.4050   40.8430 C   0  0  0  0  0  0  0  0  0  0  0  0
    7.0960   35.7750   42.6110 C   0  0  0  0  0  0  0  0  0  0  0  0
    8.3940   35.8850   42.9320 C   0  0  0  0  0  0  0  0  0  0  0  0
    9.7742   35.6572   45.5143 H   0  0  0  0  0  0  0  0  0  0  0  0
   10.5218   37.1631   46.0808 H   0  0  0  0  0  0  0  0  0  0  0  0
   11.2261   34.5489   45.8330 H   0  0  0  0  0  0  0  0  0  0  0  0
   11.9425   34.9398   43.7797 H   0  0  0  0  0  0  0  0  0  0  0  0
   11.6525   37.3934   44.5977 H   0  0  0  0  0  0  0  0  0  0  0  0
   11.0204   35.6637   48.1857 H   0  0  0  0  0  0  0  0  0  0  0  0
   12.7025   33.3033   47.1924 H   0  0  0  0  0  0  0  0  0  0  0  0
   12.8259   32.1711   50.5485 H   0  0  0  0  0  0  0  0  0  0  0  0
   11.2530   38.4508   41.3609 H   0  0  0  0  0  0  0  0  0  0  0  0
   12.9043   36.4167   40.6554 H   0  0  0  0  0  0  0  0  0  0  0  0
   14.2690   35.4707   42.7986 H   0  0  0  0  0  0  0  0  0  0  0  0
    8.7633   39.0656   42.2008 H   0  0  0  0  0  0  0  0  0  0  0  0
    4.2220   39.6854   41.9303 H   0  0  0  0  0  0  0  0  0  0  0  0
    4.6688   39.4651   40.1315 H   0  0  0  0  0  0  0  0  0  0  0  0
    6.2833   40.0236   43.4853 H   0  0  0  0  0  0  0  0  0  0  0  0
    7.2190   40.9848   42.2906 H   0  0  0  0  0  0  0  0  0  0  0  0
    5.4240   41.0537   42.2906 H   0  0  0  0  0  0  0  0  0  0  0  0
    7.6746   40.4632   40.4108 H   0  0  0  0  0  0  0  0  0  0  0  0
    7.2626   38.9189   39.5911 H   0  0  0  0  0  0  0  0  0  0  0  0
    6.0871   40.2772   39.5911 H   0  0  0  0  0  0  0  0  0  0  0  0
    4.6508   36.4637   43.9561 H   0  0  0  0  0  0  0  0  0  0  0  0
    3.1427   36.8162   43.0460 H   0  0  0  0  0  0  0  0  0  0  0  0
    3.8240   35.1541   43.0460 H   0  0  0  0  0  0  0  0  0  0  0  0
    3.1564   37.7797   41.6223 H   0  0  0  0  0  0  0  0  0  0  0  0
    4.1339   37.4376   40.0710 H   0  0  0  0  0  0  0  0  0  0  0  0
    4.4990   34.4802   41.4117 H   0  0  0  0  0  0  0  0  0  0  0  0
    3.8025   35.6188   40.2096 H   0  0  0  0  0  0  0  0  0  0  0  0
    5.5667   35.2811   40.2096 H   0  0  0  0  0  0  0  0  0  0  0  0
    6.6084   34.7969   42.7361 H   0  0  0  0  0  0  0  0  0  0  0  0
    8.9468   35.0116   43.3083 H   0  0  0  0  0  0  0  0  0  0  0  0
  1  2  1  0
  1  5  1  0
  2  3  1  0
  2  6  1  0
  3  4  1  0
  4  5  1  0
  4 14  1  0
  5 11  1  0
  6  7  2  0
  7  8  1  0
  8  9  1  0
  8 10  2  0
 11 12  2  0
 11 15  1  0
 12 13  1  0
 13 14  2  0
 15 16  2  0
 15 28  1  0
 16 17  1  0
 17 18  1  0
 17 22  2  0
 18 19  1  0
 18 20  1  0
 18 21  1  0
 19 25  1  0
 22 23  1  0
 22 27  1  0
 23 24  1  0
 23 25  1  0
 23 26  1  0
 27 28  2  0
  1 29  1  0
  1 30  1  0
  2 31  1  0
  4 32  1  0
  5 33  1  0
  6 34  1  0
  7 35  1  0
  9 36  1  0
 12 37  1  0
 13 38  1  0
 14 39  1  0
 16 40  1  0
 19 41  1  0
 19 42  1  0
 20 43  1  0
 20 44  1  0
 20 45  1  0
 21 46  1  0
 21 47  1  0
 21 48  1  0
 24 49  1  0
 24 50  1  0
 24 51  1  0
 25 52  1  0
 25 53  1  0
 26 54  1  0
 26 55  1  0
 26 56  1  0
 27 57  1  0
 28 58  1  0
A    1
C
A    2
C1
A    3
O
A    4
C2
A    5
C3
A    6
C4
A    7
C5
A    8
C6
A    9
O1
A   10
O7
A   11
C8
A   12
C9
A   13
C10
A   14
C11
A   15
C12
A   16
C13
A   17
C14
A   18
C15
A   19
C16
A   20
C17
A   21
C18
A   22
C19
A   23
C20
A   24
C21
A   25
C22
A   26
C23
A   27
C24
A   28
C25
M  END
