1FM9_570_D_200
     RDKit          3D

 71 75  0  0  0  0  0  0  0  0999 V2000
   14.6300   -6.6230   12.2970 N   0  0  0  0  0  0  0  0  0  0  0  0
   15.1750   -5.2870   12.7430 C   0  0  0  0  0  0  0  0  0  0  0  0
   14.0590   -4.2800   13.1630 C   0  0  0  0  0  0  0  0  0  0  0  0
   13.0210   -3.9940   12.0720 C   0  0  0  0  0  0  0  0  0  0  0  0
   11.7640   -4.6810   12.1280 C   0  0  0  0  0  0  0  0  0  0  0  0
   13.2850   -3.0650   11.0120 C   0  0  0  0  0  0  0  0  0  0  0  0
   10.7800   -4.4500   11.1480 C   0  0  0  0  0  0  0  0  0  0  0  0
   12.3040   -2.8260   10.0230 C   0  0  0  0  0  0  0  0  0  0  0  0
   11.0160   -3.5280   10.0790 C   0  0  0  0  0  0  0  0  0  0  0  0
    9.9370   -3.3850    9.1550 O   0  0  0  0  0  0  0  0  0  0  0  0
   15.2240   -7.7670   11.6100 C   0  0  0  0  0  0  0  0  0  0  0  0
   14.3950   -8.8860   11.1480 C   0  0  0  0  0  0  0  0  0  0  0  0
   15.0700   -9.9720   10.4770 C   0  0  0  0  0  0  0  0  0  0  0  0
   16.4700   -9.9630   10.2740 C   0  0  0  0  0  0  0  0  0  0  0  0
   17.2490   -8.8820   10.7250 C   0  0  0  0  0  0  0  0  0  0  0  0
   16.6460   -7.8050   11.3780 C   0  0  0  0  0  0  0  0  0  0  0  0
   11.8910  -10.1700   10.9450 C   0  0  0  0  0  0  0  0  0  0  0  0
   10.5890   -9.8870   10.3830 C   0  0  0  0  0  0  0  0  0  0  0  0
    9.7040  -10.9480   10.0350 C   0  0  0  0  0  0  0  0  0  0  0  0
   10.1070  -12.3000   10.2430 C   0  0  0  0  0  0  0  0  0  0  0  0
   11.3870  -12.5880   10.7970 C   0  0  0  0  0  0  0  0  0  0  0  0
   12.2690  -11.5350   11.1440 C   0  0  0  0  0  0  0  0  0  0  0  0
   12.8220   -9.0230   11.3070 C   0  0  0  0  0  0  0  0  0  0  0  0
   12.2120   -8.0260   11.7450 O   0  0  0  0  0  0  0  0  0  0  0  0
    8.6790   -6.3110    5.5150 O   0  0  0  0  0  0  0  0  0  0  0  0
    9.4630   -5.6750    4.5590 C   0  0  0  0  0  0  0  0  0  0  0  0
    9.6210   -4.3510    5.0320 N   0  0  0  0  0  0  0  0  0  0  0  0
    8.9300   -4.2570    6.2210 C   0  0  0  0  0  0  0  0  0  0  0  0
    8.3000   -5.5050    6.5670 C   0  0  0  0  0  0  0  0  0  0  0  0
    7.4350   -5.8570    7.7840 C   0  0  0  0  0  0  0  0  0  0  0  0
    9.9910   -6.1960    3.3780 C   0  0  0  0  0  0  0  0  0  0  0  0
   10.7850   -5.4040    2.4690 C   0  0  0  0  0  0  0  0  0  0  0  0
   11.2940   -5.9840    1.2780 C   0  0  0  0  0  0  0  0  0  0  0  0
   11.0230   -7.3440    0.9760 C   0  0  0  0  0  0  0  0  0  0  0  0
   10.2440   -8.1370    1.8620 C   0  0  0  0  0  0  0  0  0  0  0  0
    9.7290   -7.5690    3.0540 C   0  0  0  0  0  0  0  0  0  0  0  0
   10.1330   -2.6860    7.9020 C   0  0  0  0  0  0  0  0  0  0  0  0
    8.8860   -2.9130    7.0260 C   0  0  0  0  0  0  0  0  0  0  0  0
   17.2590   -4.8030   13.7310 O   0  0  0  0  0  0  0  0  0  0  0  0
   15.9520   -6.2630   14.7920 O   0  0  0  0  0  0  0  0  0  0  0  0
   16.1870   -5.4460   13.8430 C   0  0  0  0  0  0  0  0  0  0  0  0
   13.6340   -6.7546   12.5241 H   0  0  0  0  0  0  0  0  0  0  0  0
   15.6768   -4.8568   11.8637 H   0  0  0  0  0  0  0  0  0  0  0  0
   13.5344   -4.6928   14.0373 H   0  0  0  0  0  0  0  0  0  0  0  0
   14.5618   -3.3251   13.3761 H   0  0  0  0  0  0  0  0  0  0  0  0
   11.5669   -5.3937   12.9424 H   0  0  0  0  0  0  0  0  0  0  0  0
   14.2501   -2.5389   10.9687 H   0  0  0  0  0  0  0  0  0  0  0  0
    9.8198   -4.9837   11.2045 H   0  0  0  0  0  0  0  0  0  0  0  0
   12.5059   -2.1129    9.2101 H   0  0  0  0  0  0  0  0  0  0  0  0
   14.4810  -10.8275   10.1147 H   0  0  0  0  0  0  0  0  0  0  0  0
   16.9528  -10.8072    9.7599 H   0  0  0  0  0  0  0  0  0  0  0  0
   18.3370   -8.8851   10.5627 H   0  0  0  0  0  0  0  0  0  0  0  0
   17.2699   -6.9673   11.7229 H   0  0  0  0  0  0  0  0  0  0  0  0
   10.2792   -8.8437   10.2228 H   0  0  0  0  0  0  0  0  0  0  0  0
    8.7150  -10.7254    9.6081 H   0  0  0  0  0  0  0  0  0  0  0  0
    9.4275  -13.1225    9.9749 H   0  0  0  0  0  0  0  0  0  0  0  0
   11.6922  -13.6327   10.9562 H   0  0  0  0  0  0  0  0  0  0  0  0
   13.2552  -11.7697   11.5711 H   0  0  0  0  0  0  0  0  0  0  0  0
    7.9903   -5.6310    8.7062 H   0  0  0  0  0  0  0  0  0  0  0  0
    6.5087   -5.2643    7.7592 H   0  0  0  0  0  0  0  0  0  0  0  0
    7.1857   -6.9281    7.7592 H   0  0  0  0  0  0  0  0  0  0  0  0
   10.9958   -4.3494    2.6999 H   0  0  0  0  0  0  0  0  0  0  0  0
   11.8996   -5.3784    0.5877 H   0  0  0  0  0  0  0  0  0  0  0  0
   11.4184   -7.7874    0.0502 H   0  0  0  0  0  0  0  0  0  0  0  0
   10.0409   -9.1912    1.6225 H   0  0  0  0  0  0  0  0  0  0  0  0
    9.1241   -8.1851    3.7356 H   0  0  0  0  0  0  0  0  0  0  0  0
   10.2643   -1.6105    8.0918 H   0  0  0  0  0  0  0  0  0  0  0  0
   11.0309   -3.0643    7.3914 H   0  0  0  0  0  0  0  0  0  0  0  0
    8.8051   -2.0806    6.3115 H   0  0  0  0  0  0  0  0  0  0  0  0
    8.0190   -2.9658    7.7009 H   0  0  0  0  0  0  0  0  0  0  0  0
   16.0372   -5.9667   15.7328 H   0  0  0  0  0  0  0  0  0  0  0  0
  1  2  1  0
  1 11  1  0
  2  3  1  0
  2 41  1  0
  3  4  1  0
  4  5  2  0
  4  6  1  0
  5  7  1  0
  6  8  2  0
  7  9  2  0
  8  9  1  0
  9 10  1  0
 10 37  1  0
 11 12  1  0
 11 16  2  0
 12 13  2  0
 12 23  1  0
 13 14  1  0
 14 15  2  0
 15 16  1  0
 17 18  2  0
 17 22  1  0
 17 23  1  0
 18 19  1  0
 19 20  2  0
 20 21  1  0
 21 22  2  0
 23 24  2  0
 25 26  1  0
 25 29  1  0
 26 27  2  0
 26 31  1  0
 27 28  1  0
 28 29  2  0
 28 38  1  0
 29 30  1  0
 31 32  2  0
 31 36  1  0
 32 33  1  0
 33 34  2  0
 34 35  1  0
 35 36  2  0
 37 38  1  0
 39 41  2  0
 40 41  1  0
  1 42  1  0
  2 43  1  0
  3 44  1  0
  3 45  1  0
  5 46  1  0
  6 47  1  0
  7 48  1  0
  8 49  1  0
 13 50  1  0
 14 51  1  0
 15 52  1  0
 16 53  1  0
 18 54  1  0
 19 55  1  0
 20 56  1  0
 21 57  1  0
 22 58  1  0
 30 59  1  0
 30 60  1  0
 30 61  1  0
 32 62  1  0
 33 63  1  0
 34 64  1  0
 35 65  1  0
 36 66  1  0
 37 67  1  0
 37 68  1  0
 38 69  1  0
 38 70  1  0
 40 71  1  0
A    1
N
A    2
CA
A    3
CB
A    4
CG
A    5
CD1
A    6
CD2
A    7
CE1
A    8
CE2
A    9
CZ
A   10
OH
A   11
C1A
A   12
C1F
A   13
C1E
A   14
C1D
A   15
C1C
A   16
C1B
A   17
C1H
A   18
C1I
A   19
C1J
A   20
C1K
A   21
C1L
A   22
C1M
A   23
C1G
A   24
O1G
A   25
O3F
A   26
C3G
A   27
N3H
A   28
C3C
A   29
C3D
A   30
C3E
A   31
C3I
A   32
C3N
A   33
C3M
A   34
C3L
A   35
C3K
A   36
C3J
A   37
C3A
A   38
C3B
A   39
O2
A   40
O1
A   41
C
M  END
