1REJ_B1L_A_351
     RDKit          3D

 49 51  0  0  0  0  0  0  0  0999 V2000
   16.9020   39.1290   19.4210 O   0  0  0  0  0  0  0  0  0  0  0  0
   15.6260   39.4820   19.2210 C   0  0  0  0  0  0  0  0  0  0  0  0
   15.2800   40.8300   19.0950 C   0  0  0  0  0  0  0  0  0  0  0  0
   13.9470   41.1980   18.8910 C   0  0  0  0  0  0  0  0  0  0  0  0
   12.9590   40.2120   18.8100 C   0  0  0  0  0  0  0  0  0  0  0  0
   13.3010   38.8640   18.9310 C   0  0  0  0  0  0  0  0  0  0  0  0
   14.6340   38.5000   19.1430 C   0  0  0  0  0  0  0  0  0  0  0  0
   11.6330   40.5750   18.6060 C   0  0  0  0  0  0  0  0  0  0  0  0
   11.3220   41.7800   18.4860 O   0  0  0  0  0  0  0  0  0  0  0  0
   10.6710   39.6300   18.5350 N   0  0  0  0  0  0  0  0  0  0  0  0
    9.2740   39.9710   18.7520 C   0  0  0  0  0  0  0  0  0  0  0  0
    8.4700   39.6660   17.4790 C   0  0  0  0  0  0  0  0  0  0  0  0
    6.9560   39.6620   17.7350 C   0  0  0  0  0  0  0  0  0  0  0  0
    6.5410   38.4710   18.5840 C   0  0  0  0  0  0  0  0  0  0  0  0
    6.3870   38.9240   20.0260 C   0  0  0  0  0  0  0  0  0  0  0  0
    7.5010   39.7750   20.4130 N   0  0  0  0  0  0  0  0  0  0  0  0
    8.7570   39.2010   19.9620 C   0  0  0  0  0  0  0  0  0  0  0  0
    8.7600   40.6800   16.5230 O   0  0  0  0  0  0  0  0  0  0  0  0
    8.1770   40.3930   15.2660 C   0  0  0  0  0  0  0  0  0  0  0  0
    8.3170   39.2670   14.7700 O   0  0  0  0  0  0  0  0  0  0  0  0
    7.4700   41.3770   14.5890 C   0  0  0  0  0  0  0  0  0  0  0  0
    6.6430   42.2620   15.2960 C   0  0  0  0  0  0  0  0  0  0  0  0
    5.9290   43.2540   14.6040 C   0  0  0  0  0  0  0  0  0  0  0  0
    6.0590   43.3760   13.2190 C   0  0  0  0  0  0  0  0  0  0  0  0
    6.8880   42.4920   12.5160 C   0  0  0  0  0  0  0  0  0  0  0  0
    7.6010   41.5040   13.2060 C   0  0  0  0  0  0  0  0  0  0  0  0
    5.3820   44.3220   12.5500 O   0  0  0  0  0  0  0  0  0  0  0  0
   17.2503   39.0326   20.3427 H   0  0  0  0  0  0  0  0  0  0  0  0
   16.0591   41.6040   19.1565 H   0  0  0  0  0  0  0  0  0  0  0  0
   13.6762   42.2598   18.7945 H   0  0  0  0  0  0  0  0  0  0  0  0
   12.5230   38.0896   18.8597 H   0  0  0  0  0  0  0  0  0  0  0  0
   14.9029   37.4386   19.2487 H   0  0  0  0  0  0  0  0  0  0  0  0
   10.9299   38.6555   18.3245 H   0  0  0  0  0  0  0  0  0  0  0  0
    9.1617   41.0447   18.9628 H   0  0  0  0  0  0  0  0  0  0  0  0
    8.7552   38.6653   17.1223 H   0  0  0  0  0  0  0  0  0  0  0  0
    6.6789   40.5889   18.2586 H   0  0  0  0  0  0  0  0  0  0  0  0
    6.4408   39.5929   16.7656 H   0  0  0  0  0  0  0  0  0  0  0  0
    5.5833   38.0725   18.2179 H   0  0  0  0  0  0  0  0  0  0  0  0
    7.3064   37.6835   18.5206 H   0  0  0  0  0  0  0  0  0  0  0  0
    5.4478   39.4870   20.1305 H   0  0  0  0  0  0  0  0  0  0  0  0
    6.3720   38.0382   20.6781 H   0  0  0  0  0  0  0  0  0  0  0  0
    7.3810   40.7055   19.9879 H   0  0  0  0  0  0  0  0  0  0  0  0
    8.5982   38.1486   19.6841 H   0  0  0  0  0  0  0  0  0  0  0  0
    9.4963   39.2634   20.7742 H   0  0  0  0  0  0  0  0  0  0  0  0
    6.5538   42.1794   16.3893 H   0  0  0  0  0  0  0  0  0  0  0  0
    5.2654   43.9369   15.1547 H   0  0  0  0  0  0  0  0  0  0  0  0
    6.9787   42.5740   11.4228 H   0  0  0  0  0  0  0  0  0  0  0  0
    8.2677   40.8246   12.6548 H   0  0  0  0  0  0  0  0  0  0  0  0
    4.8835   45.0185   13.0465 H   0  0  0  0  0  0  0  0  0  0  0  0
  1  2  1  0
  2  3  2  0
  2  7  1  0
  3  4  1  0
  4  5  2  0
  5  6  1  0
  5  8  1  0
  6  7  2  0
  8  9  2  0
  8 10  1  0
 10 11  1  0
 11 12  1  0
 11 17  1  0
 12 13  1  0
 12 18  1  0
 13 14  1  0
 14 15  1  0
 15 16  1  0
 16 17  1  0
 18 19  1  0
 19 20  2  0
 19 21  1  0
 21 22  2  0
 21 26  1  0
 22 23  1  0
 23 24  2  0
 24 25  1  0
 24 27  1  0
 25 26  2  0
  1 28  1  0
  3 29  1  0
  4 30  1  0
  6 31  1  0
  7 32  1  0
 10 33  1  0
 11 34  1  0
 12 35  1  0
 13 36  1  0
 13 37  1  0
 14 38  1  0
 14 39  1  0
 15 40  1  0
 15 41  1  0
 16 42  1  0
 17 43  1  0
 17 44  1  0
 22 45  1  0
 23 46  1  0
 25 47  1  0
 26 48  1  0
 27 49  1  0
A    1
O1
A    2
C1
A    3
C2
A    4
C3
A    5
C4
A    6
C5
A    7
C6
A    8
C7
A    9
O7
A   10
N8
A   11
C8
A   12
C9
A   13
C10
A   14
C11
A   15
C12
A   16
N13
A   17
C14
A   18
O9
A   19
C15
A   20
O15
A   21
C16
A   22
C17
A   23
C18
A   24
C19
A   25
C20
A   26
C21
A   27
O19
M  END
