1REK_B8L_A_351
     RDKit          3D

 77 80  0  0  0  0  0  0  0  0999 V2000
   17.4550   38.8030   20.0470 O   0  0  0  0  0  0  0  0  0  0  0  0
   16.0770   39.1820   19.8310 C   0  0  0  0  0  0  0  0  0  0  0  0
   15.7230   40.5320   19.8190 C   0  0  0  0  0  0  0  0  0  0  0  0
   14.3960   40.9000   19.5690 C   0  0  0  0  0  0  0  0  0  0  0  0
   13.3930   39.9380   19.3460 C   0  0  0  0  0  0  0  0  0  0  0  0
   13.7820   38.5800   19.3750 C   0  0  0  0  0  0  0  0  0  0  0  0
   15.1130   38.1930   19.6170 C   0  0  0  0  0  0  0  0  0  0  0  0
   12.0380   40.3230   19.3110 C   0  0  0  0  0  0  0  0  0  0  0  0
   11.6680   41.5020   19.3660 O   0  0  0  0  0  0  0  0  0  0  0  0
   11.1770   39.3140   19.1060 N   0  0  0  0  0  0  0  0  0  0  0  0
    9.7340   39.4380   19.2820 C   0  0  0  0  0  0  0  0  0  0  0  0
    8.9540   39.1420   17.9680 C   0  0  0  0  0  0  0  0  0  0  0  0
    7.5320   38.5560   18.0870 C   0  0  0  0  0  0  0  0  0  0  0  0
    6.6600   39.3150   19.0750 C   0  0  0  0  0  0  0  0  0  0  0  0
    6.8090   38.7520   20.4870 C   0  0  0  0  0  0  0  0  0  0  0  0
    8.1220   39.0270   21.0620 N   0  0  0  0  0  0  0  0  0  0  0  0
    8.9290   40.4050   17.2870 O   0  0  0  0  0  0  0  0  0  0  0  0
    9.3870   38.5830   20.4960 C   0  0  0  0  0  0  0  0  0  0  0  0
    8.5220   40.3350   15.8860 C   0  0  0  0  0  0  0  0  0  0  0  0
    8.6230   39.2810   15.2610 O   0  0  0  0  0  0  0  0  0  0  0  0
    7.7830   41.3680   15.3100 C   0  0  0  0  0  0  0  0  0  0  0  0
    7.8520   41.6350   13.9320 C   0  0  0  0  0  0  0  0  0  0  0  0
    7.1140   42.6800   13.3620 C   0  0  0  0  0  0  0  0  0  0  0  0
    6.3030   43.4920   14.1580 C   0  0  0  0  0  0  0  0  0  0  0  0
    6.2370   43.2300   15.5290 C   0  0  0  0  0  0  0  0  0  0  0  0
    6.9760   42.1860   16.0990 C   0  0  0  0  0  0  0  0  0  0  0  0
    5.5260   44.5080   13.5760 C   0  0  0  0  0  0  0  0  0  0  0  0
    4.9230   44.2530   12.5260 O   0  0  0  0  0  0  0  0  0  0  0  0
    5.3570   45.7720   14.1560 C   0  0  0  0  0  0  0  0  0  0  0  0
    4.0420   46.2140   14.2960 C   0  0  0  0  0  0  0  0  0  0  0  0
    3.7410   47.5190   14.7160 C   0  0  0  0  0  0  0  0  0  0  0  0
    2.3560   47.9510   14.8370 O   0  0  0  0  0  0  0  0  0  0  0  0
    4.7600   48.4250   14.9870 C   0  0  0  0  0  0  0  0  0  0  0  0
    6.0790   48.0090   14.8580 C   0  0  0  0  0  0  0  0  0  0  0  0
    6.3720   46.7090   14.4220 C   0  0  0  0  0  0  0  0  0  0  0  0
    7.7500   46.3220   14.2310 O   0  0  0  0  0  0  0  0  0  0  0  0
   15.5120   36.7540   19.6510 C   0  0  0  0  0  0  0  0  0  0  0  0
   15.1790   36.0260   18.3340 C   0  0  0  0  0  0  0  0  0  0  0  0
   14.9010   36.0550   20.8600 C   0  0  0  0  0  0  0  0  0  0  0  0
   16.1880   36.3800   17.2120 C   0  0  0  0  0  0  0  0  0  0  0  0
    1.2890   47.0600   15.0440 C   0  0  0  0  0  0  0  0  0  0  0  0
   17.8034   38.7072   20.9687 H   0  0  0  0  0  0  0  0  0  0  0  0
   16.4842   41.3039   20.0053 H   0  0  0  0  0  0  0  0  0  0  0  0
   14.1304   41.9672   19.5462 H   0  0  0  0  0  0  0  0  0  0  0  0
   13.0225   37.8030   19.2035 H   0  0  0  0  0  0  0  0  0  0  0  0
   11.5553   38.4033   18.8085 H   0  0  0  0  0  0  0  0  0  0  0  0
    9.4128   40.4693   19.4902 H   0  0  0  0  0  0  0  0  0  0  0  0
    9.4712   38.3270   17.4405 H   0  0  0  0  0  0  0  0  0  0  0  0
    7.0537   38.5918   17.0971 H   0  0  0  0  0  0  0  0  0  0  0  0
    7.6298   37.5248   18.4573 H   0  0  0  0  0  0  0  0  0  0  0  0
    6.9581   40.3738   19.0773 H   0  0  0  0  0  0  0  0  0  0  0  0
    5.6095   39.2092   18.7662 H   0  0  0  0  0  0  0  0  0  0  0  0
    6.0402   39.2047   21.1304 H   0  0  0  0  0  0  0  0  0  0  0  0
    6.6927   37.6599   20.4257 H   0  0  0  0  0  0  0  0  0  0  0  0
    8.1896   40.0534   21.1157 H   0  0  0  0  0  0  0  0  0  0  0  0
    9.3011   37.5301   20.1894 H   0  0  0  0  0  0  0  0  0  0  0  0
   10.1800   38.6837   21.2517 H   0  0  0  0  0  0  0  0  0  0  0  0
    8.4953   41.0139   13.2914 H   0  0  0  0  0  0  0  0  0  0  0  0
    7.1736   42.8627   12.2789 H   0  0  0  0  0  0  0  0  0  0  0  0
    5.5954   43.8528   16.1697 H   0  0  0  0  0  0  0  0  0  0  0  0
    6.9189   42.0092   17.1832 H   0  0  0  0  0  0  0  0  0  0  0  0
    3.2179   45.5210   14.0711 H   0  0  0  0  0  0  0  0  0  0  0  0
    4.5258   49.4537   15.2983 H   0  0  0  0  0  0  0  0  0  0  0  0
    6.8978   48.7029   15.0991 H   0  0  0  0  0  0  0  0  0  0  0  0
    8.3316   46.1587   15.0154 H   0  0  0  0  0  0  0  0  0  0  0  0
   16.6063   36.7138   19.7552 H   0  0  0  0  0  0  0  0  0  0  0  0
   15.2077   34.9405   18.5097 H   0  0  0  0  0  0  0  0  0  0  0  0
   14.1783   36.3465   18.0087 H   0  0  0  0  0  0  0  0  0  0  0  0
   15.2954   36.5062   21.7825 H   0  0  0  0  0  0  0  0  0  0  0  0
   13.8071   36.1683   20.8350 H   0  0  0  0  0  0  0  0  0  0  0  0
   15.1596   34.9861   20.8350 H   0  0  0  0  0  0  0  0  0  0  0  0
   17.1351   36.7123   17.6621 H   0  0  0  0  0  0  0  0  0  0  0  0
   16.3698   35.4920   16.5888 H   0  0  0  0  0  0  0  0  0  0  0  0
   15.7752   37.1870   16.5888 H   0  0  0  0  0  0  0  0  0  0  0  0
    1.1279   46.9255   16.1238 H   0  0  0  0  0  0  0  0  0  0  0  0
    0.3763   47.4680   14.5851 H   0  0  0  0  0  0  0  0  0  0  0  0
    1.5277   46.0892   14.5851 H   0  0  0  0  0  0  0  0  0  0  0  0
  1  2  1  0
  2  3  2  0
  2  7  1  0
  3  4  1  0
  4  5  2  0
  5  6  1  0
  5  8  1  0
  6  7  2  0
  7 37  1  0
  8  9  2  0
  8 10  1  0
 10 11  1  0
 11 12  1  0
 11 18  1  0
 12 13  1  0
 12 17  1  0
 13 14  1  0
 14 15  1  0
 15 16  1  0
 16 18  1  0
 17 19  1  0
 19 20  2  0
 19 21  1  0
 21 22  2  0
 21 26  1  0
 22 23  1  0
 23 24  2  0
 24 25  1  0
 24 27  1  0
 25 26  2  0
 27 28  2  0
 27 29  1  0
 29 30  2  0
 29 35  1  0
 30 31  1  0
 31 32  1  0
 31 33  2  0
 32 41  1  0
 33 34  1  0
 34 35  2  0
 35 36  1  0
 37 38  1  0
 37 39  1  0
 38 40  1  0
  1 42  1  0
  3 43  1  0
  4 44  1  0
  6 45  1  0
 10 46  1  0
 11 47  1  0
 12 48  1  0
 13 49  1  0
 13 50  1  0
 14 51  1  0
 14 52  1  0
 15 53  1  0
 15 54  1  0
 16 55  1  0
 18 56  1  0
 18 57  1  0
 22 58  1  0
 23 59  1  0
 25 60  1  0
 26 61  1  0
 30 62  1  0
 33 63  1  0
 34 64  1  0
 36 65  1  0
 37 66  1  0
 38 67  1  0
 38 68  1  0
 39 69  1  0
 39 70  1  0
 39 71  1  0
 40 72  1  0
 40 73  1  0
 40 74  1  0
 41 75  1  0
 41 76  1  0
 41 77  1  0
A    1
O1
A    2
C1
A    3
C2
A    4
C3
A    5
C4
A    6
C5
A    7
C6
A    8
C7
A    9
O7
A   10
N8
A   11
C8
A   12
C9
A   13
C10
A   14
C11
A   15
C12
A   16
N13
A   17
O9
A   18
C14
A   19
C15
A   20
O15
A   21
C16
A   22
C17
A   23
C18
A   24
C19
A   25
C20
A   26
C21
A   27
C22
A   28
O22
A   29
C23
A   30
C24
A   31
C26
A   32
O26
A   33
C27
A   34
C28
A   35
C29
A   36
O29
A   37
C66
A   38
C71
A   39
C72
A   40
C81
A   41
C30
M  END
