1REV_TB9_A_999
     RDKit          3D

 41 43  0  0  0  0  0  0  0  0999 V2000
    0.8980  -37.3110   18.5140 N   0  0  0  0  0  0  0  0  0  0  0  0
    0.2840  -37.1300   19.7030 C   0  0  0  0  0  0  0  0  0  0  0  0
    2.1420  -37.7570   18.7700 C   0  0  0  0  0  0  0  0  0  0  0  0
    3.3020  -38.0590   17.5780 S   0  0  0  0  0  0  0  0  0  0  0  0
    2.3500  -37.8790   20.1140 N   0  0  0  0  0  0  0  0  0  0  0  0
    1.2110  -37.4930   20.7250 C   0  0  0  0  0  0  0  0  0  0  0  0
    3.6220  -38.3840   20.6320 C   0  0  0  0  0  0  0  0  0  0  0  0
    3.5360  -38.9920   22.0390 C   0  0  0  0  0  0  0  0  0  0  0  0
    3.0190  -38.0210   23.0050 N   0  0  0  0  0  0  0  0  0  0  0  0
    1.5670  -38.1600   23.1250 C   0  0  0  0  0  0  0  0  0  0  0  0
    0.8230  -37.3720   22.0740 C   0  0  0  0  0  0  0  0  0  0  0  0
   -0.4320  -36.8990   22.3890 C   0  0  0  0  0  0  0  0  0  0  0  0
   -2.8610  -36.0010   21.8380 Cl  0  0  0  0  0  0  0  0  0  0  0  0
   -1.3250  -36.5530   21.3970 C   0  0  0  0  0  0  0  0  0  0  0  0
   -0.9800  -36.6610   20.0660 C   0  0  0  0  0  0  0  0  0  0  0  0
    2.7330  -40.2820   22.0090 C   0  0  0  0  0  0  0  0  0  0  0  0
    3.7770  -36.8760   23.5370 C   0  0  0  0  0  0  0  0  0  0  0  0
    3.0080  -36.1580   24.6020 C   0  0  0  0  0  0  0  0  0  0  0  0
    3.4910  -35.2020   25.3750 C   0  0  0  0  0  0  0  0  0  0  0  0
    2.6420  -34.5480   26.4230 C   0  0  0  0  0  0  0  0  0  0  0  0
    4.8940  -34.7090   25.2550 C   0  0  0  0  0  0  0  0  0  0  0  0
    0.4902  -37.1396   17.5838 H   0  0  0  0  0  0  0  0  0  0  0  0
    3.9905  -39.1592   19.9440 H   0  0  0  0  0  0  0  0  0  0  0  0
    4.2977  -37.5190   20.7041 H   0  0  0  0  0  0  0  0  0  0  0  0
    4.5499  -39.2505   22.3785 H   0  0  0  0  0  0  0  0  0  0  0  0
    1.3044  -39.2231   23.0208 H   0  0  0  0  0  0  0  0  0  0  0  0
    1.2733  -37.7660   24.1091 H   0  0  0  0  0  0  0  0  0  0  0  0
   -0.7251  -36.7962   23.4442 H   0  0  0  0  0  0  0  0  0  0  0  0
   -1.7033  -36.3766   19.2876 H   0  0  0  0  0  0  0  0  0  0  0  0
    2.5285  -40.6106   23.0387 H   0  0  0  0  0  0  0  0  0  0  0  0
    1.7822  -40.1099   21.4833 H   0  0  0  0  0  0  0  0  0  0  0  0
    3.3072  -41.0592   21.4833 H   0  0  0  0  0  0  0  0  0  0  0  0
    4.7233  -37.2404   23.9632 H   0  0  0  0  0  0  0  0  0  0  0  0
    3.9649  -36.1726   22.7124 H   0  0  0  0  0  0  0  0  0  0  0  0
    1.9581  -36.4495   24.7527 H   0  0  0  0  0  0  0  0  0  0  0  0
    3.0087  -34.8305   27.4208 H   0  0  0  0  0  0  0  0  0  0  0  0
    2.6952  -33.4553   26.3086 H   0  0  0  0  0  0  0  0  0  0  0  0
    1.5990  -34.8783   26.3086 H   0  0  0  0  0  0  0  0  0  0  0  0
    5.3175  -34.5602   26.2592 H   0  0  0  0  0  0  0  0  0  0  0  0
    5.4972  -35.4490   24.7086 H   0  0  0  0  0  0  0  0  0  0  0  0
    4.9017  -33.7543   24.7086 H   0  0  0  0  0  0  0  0  0  0  0  0
  1  2  1  0
  1  3  1  0
  2  6  2  0
  2 15  1  0
  3  4  2  0
  3  5  1  0
  5  6  1  0
  5  7  1  0
  6 11  1  0
  7  8  1  0
  8  9  1  0
  8 16  1  0
  9 10  1  0
  9 17  1  0
 10 11  1  0
 11 12  2  0
 12 14  1  0
 13 14  1  0
 14 15  2  0
 17 18  1  0
 18 19  2  0
 19 20  1  0
 19 21  1  0
  1 22  1  0
  7 23  1  0
  7 24  1  0
  8 25  1  0
 10 26  1  0
 10 27  1  0
 12 28  1  0
 15 29  1  0
 16 30  1  0
 16 31  1  0
 16 32  1  0
 17 33  1  0
 17 34  1  0
 18 35  1  0
 20 36  1  0
 20 37  1  0
 20 38  1  0
 21 39  1  0
 21 40  1  0
 21 41  1  0
A    1
N1
A    2
C1A
A    3
C2
A    4
S2
A    5
N3
A    6
C3A
A    7
C4
A    8
C5
A    9
N6
A   10
C7
A   11
C7A
A   12
C8
A   13
CL9
A   14
C9
A   15
C10
A   16
C11
A   17
C12
A   18
C13
A   19
C14
A   20
C15
A   21
C16
M  END
