1RF2_BV4_D_104
     RDKit          3D

 40 41  0  0  0  0  0  0  0  0999 V2000
  -11.5900  -22.4590    2.3570 O   0  0  0  0  0  0  0  0  0  0  0  0
  -10.8340  -21.3730    2.9340 C   0  0  0  0  0  0  0  0  0  0  0  0
  -11.2130  -21.1300    4.4060 C   0  0  0  0  0  0  0  0  0  0  0  0
  -10.8640  -22.2580    5.1990 O   0  0  0  0  0  0  0  0  0  0  0  0
  -10.4510  -19.9300    4.9710 C   0  0  0  0  0  0  0  0  0  0  0  0
   -9.0460  -20.2480    5.0540 O   0  0  0  0  0  0  0  0  0  0  0  0
  -10.6650  -18.7310    4.0560 C   0  0  0  0  0  0  0  0  0  0  0  0
   -9.8350  -17.4940    4.4720 C   0  0  0  0  0  0  0  0  0  0  0  0
  -10.1160  -16.3730    3.5900 O   0  0  0  0  0  0  0  0  0  0  0  0
  -10.2720  -19.0180    2.6730 O   0  0  0  0  0  0  0  0  0  0  0  0
  -11.0310  -20.0940    2.1170 C   0  0  0  0  0  0  0  0  0  0  0  0
  -12.4370  -19.8330    2.1330 O   0  0  0  0  0  0  0  0  0  0  0  0
  -12.7930  -18.8340    1.2830 C   0  0  0  0  0  0  0  0  0  0  0  0
  -13.0830  -19.1480   -0.0340 C   0  0  0  0  0  0  0  0  0  0  0  0
  -12.9110  -17.5210    1.7370 C   0  0  0  0  0  0  0  0  0  0  0  0
  -13.2890  -16.5080    0.8550 C   0  0  0  0  0  0  0  0  0  0  0  0
  -13.3710  -15.2520    1.3150 N   0  0  0  0  0  0  0  0  0  0  0  0
  -13.7090  -14.1930    0.4560 O   0  0  0  0  0  0  0  0  0  0  0  0
  -13.0840  -14.9890    2.6830 O   0  0  0  0  0  0  0  0  0  0  0  0
  -13.5740  -16.8290   -0.4710 C   0  0  0  0  0  0  0  0  0  0  0  0
  -13.4620  -18.1390   -0.9040 C   0  0  0  0  0  0  0  0  0  0  0  0
  -13.7550  -18.5000   -2.3510 C   0  0  0  0  0  0  0  0  0  0  0  0
  -13.5030  -19.6210   -2.7950 O   0  0  0  0  0  0  0  0  0  0  0  0
  -14.2810  -17.5120   -3.0520 N   0  0  0  0  0  0  0  0  0  0  0  0
  -11.9760  -23.0135    3.0807 H   0  0  0  0  0  0  0  0  0  0  0  0
   -9.7719  -21.6582    2.9071 H   0  0  0  0  0  0  0  0  0  0  0  0
  -12.2973  -20.9477    4.4382 H   0  0  0  0  0  0  0  0  0  0  0  0
  -10.9368  -22.0226    6.1578 H   0  0  0  0  0  0  0  0  0  0  0  0
  -10.8210  -19.6895    5.9786 H   0  0  0  0  0  0  0  0  0  0  0  0
   -8.7770  -20.3089    6.0048 H   0  0  0  0  0  0  0  0  0  0  0  0
  -11.7418  -18.5225    4.1400 H   0  0  0  0  0  0  0  0  0  0  0  0
  -10.0925  -17.2157    5.5046 H   0  0  0  0  0  0  0  0  0  0  0  0
   -8.7658  -17.7427    4.4021 H   0  0  0  0  0  0  0  0  0  0  0  0
  -10.3175  -15.5693    4.1318 H   0  0  0  0  0  0  0  0  0  0  0  0
  -10.6729  -20.2043    1.0828 H   0  0  0  0  0  0  0  0  0  0  0  0
  -13.0131  -20.1879   -0.3857 H   0  0  0  0  0  0  0  0  0  0  0  0
  -12.7059  -17.2835    2.7913 H   0  0  0  0  0  0  0  0  0  0  0  0
  -13.8876  -16.0421   -1.1728 H   0  0  0  0  0  0  0  0  0  0  0  0
  -14.7086  -16.7088   -2.5694 H   0  0  0  0  0  0  0  0  0  0  0  0
  -14.2636  -17.5447   -4.0813 H   0  0  0  0  0  0  0  0  0  0  0  0
  1  2  1  0
  2  3  1  0
  2 11  1  0
  3  4  1  0
  3  5  1  0
  5  6  1  0
  5  7  1  0
  7  8  1  0
  7 10  1  0
  8  9  1  0
 10 11  1  0
 11 12  1  0
 12 13  1  0
 13 14  2  0
 13 15  1  0
 14 21  1  0
 15 16  2  0
 16 17  1  0
 16 20  1  0
 17 18  1  0
 17 19  2  0
 20 21  2  0
 21 22  1  0
 22 23  2  0
 22 24  1  0
  1 25  1  0
  2 26  1  0
  3 27  1  0
  4 28  1  0
  5 29  1  0
  6 30  1  0
  7 31  1  0
  8 32  1  0
  8 33  1  0
  9 34  1  0
 11 35  1  0
 14 36  1  0
 15 37  1  0
 20 38  1  0
 24 39  1  0
 24 40  1  0
M  CHG  2  17   1  18  -1
A    1
O31
A    2
C73
A    3
C72
A    4
O30
A    5
C71
A    6
O29
A    7
C70
A    8
C75
A    9
O32
A   10
O28
A   11
C74
A   12
O25
A   13
C66
A   14
C65
A   15
C67
A   16
C68
A   17
N14
A   18
O27
A   19
O26
A   20
C69
A   21
C64
A   22
C13
A   23
O24
A   24
N13
M  END
