1RGB_ELD_B_134
     RDKit          3D

 55 54  0  0  0  0  0  0  0  0999 V2000
    2.0340   65.9860   24.8680 C   0  0  0  0  0  0  0  0  0  0  0  0
    1.6170   66.5470   26.0120 N   0  0  0  0  0  0  0  0  0  0  0  0
    1.6940   64.8080   24.5240 O   0  0  0  0  0  0  0  0  0  0  0  0
    3.5610   66.0650   24.5530 C   0  0  0  0  0  0  0  0  0  0  0  0
    3.8490   65.3820   23.1890 C   0  0  0  0  0  0  0  0  0  0  0  0
    5.2580   64.8890   23.4360 C   0  0  0  0  0  0  0  0  0  0  0  0
    5.6030   63.5520   22.7800 C   0  0  0  0  0  0  0  0  0  0  0  0
    6.4330   64.0020   21.5590 C   0  0  0  0  0  0  0  0  0  0  0  0
    7.8850   63.5070   21.6200 C   0  0  0  0  0  0  0  0  0  0  0  0
    8.7720   64.3040   22.6040 C   0  0  0  0  0  0  0  0  0  0  0  0
    9.4450   63.4790   23.6850 C   0  0  0  0  0  0  0  0  0  0  0  0
   10.5010   62.7410   23.3630 C   0  0  0  0  0  0  0  0  0  0  0  0
   11.8610   63.3570   23.3690 C   0  0  0  0  0  0  0  0  0  0  0  0
   12.9920   62.4430   22.9610 C   0  0  0  0  0  0  0  0  0  0  0  0
   14.0450   62.3280   24.0240 C   0  0  0  0  0  0  0  0  0  0  0  0
   14.8430   61.0430   23.8670 C   0  0  0  0  0  0  0  0  0  0  0  0
   15.9280   60.9380   24.9510 C   0  0  0  0  0  0  0  0  0  0  0  0
   17.1090   61.9050   24.7060 C   0  0  0  0  0  0  0  0  0  0  0  0
   18.3480   61.2440   24.0780 C   0  0  0  0  0  0  0  0  0  0  0  0
   19.6670   61.2840   24.8850 C   0  0  0  0  0  0  0  0  0  0  0  0
    1.9109   66.1516   26.9165 H   0  0  0  0  0  0  0  0  0  0  0  0
    1.0027   67.3734   25.9864 H   0  0  0  0  0  0  0  0  0  0  0  0
    3.8709   67.1194   24.5068 H   0  0  0  0  0  0  0  0  0  0  0  0
    4.1239   65.5494   25.3450 H   0  0  0  0  0  0  0  0  0  0  0  0
    3.1543   64.5519   22.9931 H   0  0  0  0  0  0  0  0  0  0  0  0
    3.7329   66.0335   22.3103 H   0  0  0  0  0  0  0  0  0  0  0  0
    5.9563   65.6471   23.0517 H   0  0  0  0  0  0  0  0  0  0  0  0
    5.3395   64.7272   24.5210 H   0  0  0  0  0  0  0  0  0  0  0  0
    6.1956   62.9164   23.4545 H   0  0  0  0  0  0  0  0  0  0  0  0
    4.7238   62.9440   22.5204 H   0  0  0  0  0  0  0  0  0  0  0  0
    5.9630   63.6048   20.6472 H   0  0  0  0  0  0  0  0  0  0  0  0
    6.4548   65.1018   21.5568 H   0  0  0  0  0  0  0  0  0  0  0  0
    7.8796   62.4525   21.9331 H   0  0  0  0  0  0  0  0  0  0  0  0
    8.3141   63.6444   20.6165 H   0  0  0  0  0  0  0  0  0  0  0  0
    9.5580   64.8071   22.0217 H   0  0  0  0  0  0  0  0  0  0  0  0
    8.0978   64.9983   23.1269 H   0  0  0  0  0  0  0  0  0  0  0  0
    9.0649   63.4920   24.7172 H   0  0  0  0  0  0  0  0  0  0  0  0
   10.3745   61.6821   23.0934 H   0  0  0  0  0  0  0  0  0  0  0  0
   11.8490   64.2111   22.6759 H   0  0  0  0  0  0  0  0  0  0  0  0
   12.0609   63.6359   24.4141 H   0  0  0  0  0  0  0  0  0  0  0  0
   12.5825   61.4422   22.7594 H   0  0  0  0  0  0  0  0  0  0  0  0
   13.4645   62.8725   22.0653 H   0  0  0  0  0  0  0  0  0  0  0  0
   14.7281   63.1868   23.9475 H   0  0  0  0  0  0  0  0  0  0  0  0
   13.5500   62.3142   25.0062 H   0  0  0  0  0  0  0  0  0  0  0  0
   14.1625   60.1831   23.9535 H   0  0  0  0  0  0  0  0  0  0  0  0
   15.3297   61.0486   22.8805 H   0  0  0  0  0  0  0  0  0  0  0  0
   15.4761   61.1738   25.9258 H   0  0  0  0  0  0  0  0  0  0  0  0
   16.3261   59.9129   24.9256 H   0  0  0  0  0  0  0  0  0  0  0  0
   16.7660   62.7041   24.0323 H   0  0  0  0  0  0  0  0  0  0  0  0
   17.4183   62.2811   25.6924 H   0  0  0  0  0  0  0  0  0  0  0  0
   18.1026   60.1865   23.9006 H   0  0  0  0  0  0  0  0  0  0  0  0
   18.5544   61.8379   23.1754 H   0  0  0  0  0  0  0  0  0  0  0  0
   19.4388   61.2771   25.9611 H   0  0  0  0  0  0  0  0  0  0  0  0
   20.2773   60.4040   24.6339 H   0  0  0  0  0  0  0  0  0  0  0  0
   20.2229   62.1994   24.6339 H   0  0  0  0  0  0  0  0  0  0  0  0
  1  2  1  0
  1  3  2  0
  1  4  1  0
  4  5  1  0
  5  6  1  0
  6  7  1  0
  7  8  1  0
  8  9  1  0
  9 10  1  0
 10 11  1  0
 11 12  2  0
 12 13  1  0
 13 14  1  0
 14 15  1  0
 15 16  1  0
 16 17  1  0
 17 18  1  0
 18 19  1  0
 19 20  1  0
  2 21  1  0
  2 22  1  0
  4 23  1  0
  4 24  1  0
  5 25  1  0
  5 26  1  0
  6 27  1  0
  6 28  1  0
  7 29  1  0
  7 30  1  0
  8 31  1  0
  8 32  1  0
  9 33  1  0
  9 34  1  0
 10 35  1  0
 10 36  1  0
 11 37  1  0
 12 38  1  0
 13 39  1  0
 13 40  1  0
 14 41  1  0
 14 42  1  0
 15 43  1  0
 15 44  1  0
 16 45  1  0
 16 46  1  0
 17 47  1  0
 17 48  1  0
 18 49  1  0
 18 50  1  0
 19 51  1  0
 19 52  1  0
 20 53  1  0
 20 54  1  0
 20 55  1  0
A    1
C1
A    2
N1
A    3
O2
A    4
C2
A    5
C3
A    6
C4
A    7
C5
A    8
C6
A    9
C7
A   10
C8
A   11
C9
A   12
C10
A   13
C11
A   14
C12
A   15
C13
A   16
C14
A   17
C15
A   18
C16
A   19
C17
A   20
C18
M  END
