1RG1_OTS_A_997
     RDKit          3D

 22 22  0  0  0  0  0  0  0  0999 V2000
    8.8030   53.8110   -3.5600 C   0  0  0  0  0  0  0  0  0  0  0  0
    8.2470   53.7250   -2.2790 C   0  0  0  0  0  0  0  0  0  0  0  0
    6.9600   53.2330   -2.1220 C   0  0  0  0  0  0  0  0  0  0  0  0
    6.4270   53.1590   -0.8880 O   0  0  0  0  0  0  0  0  0  0  0  0
    6.2280   52.8150   -3.2360 C   0  0  0  0  0  0  0  0  0  0  0  0
    6.7900   52.9030   -4.5160 C   0  0  0  0  0  0  0  0  0  0  0  0
    8.0770   53.4000   -4.6730 C   0  0  0  0  0  0  0  0  0  0  0  0
    8.7030   53.4880   -6.0730 C   0  0  0  0  0  0  0  0  0  0  0  0
    9.8480   52.6340   -6.1330 O   0  0  0  0  0  0  0  0  0  0  0  0
    9.1800   54.9170   -6.3220 C   0  0  0  0  0  0  0  0  0  0  0  0
    8.1050   55.7010   -6.9620 N   0  0  0  0  0  0  0  0  0  0  0  0
    9.8215   54.2064   -3.6879 H   0  0  0  0  0  0  0  0  0  0  0  0
    8.8274   54.0458   -1.4014 H   0  0  0  0  0  0  0  0  0  0  0  0
    7.0094   53.2399   -0.0916 H   0  0  0  0  0  0  0  0  0  0  0  0
    5.2106   52.4169   -3.1080 H   0  0  0  0  0  0  0  0  0  0  0  0
    6.2131   52.5791   -5.3948 H   0  0  0  0  0  0  0  0  0  0  0  0
    7.9546   53.1898   -6.8220 H   0  0  0  0  0  0  0  0  0  0  0  0
   10.1437   52.4135   -5.2143 H   0  0  0  0  0  0  0  0  0  0  0  0
    9.4505   55.3836   -5.3633 H   0  0  0  0  0  0  0  0  0  0  0  0
   10.0571   54.8957   -6.9856 H   0  0  0  0  0  0  0  0  0  0  0  0
    7.5149   56.1313   -6.2357 H   0  0  0  0  0  0  0  0  0  0  0  0
    8.5206   56.4388   -7.5484 H   0  0  0  0  0  0  0  0  0  0  0  0
  1  2  2  0
  1  7  1  0
  2  3  1  0
  3  4  1  0
  3  5  2  0
  5  6  1  0
  6  7  2  0
  7  8  1  0
  8  9  1  0
  8 10  1  0
 10 11  1  0
  1 12  1  0
  2 13  1  0
  4 14  1  0
  5 15  1  0
  6 16  1  0
  8 17  1  0
  9 18  1  0
 10 19  1  0
 10 20  1  0
 11 21  1  0
 11 22  1  0
A    1
C2
A    2
C3
A    3
C4
A    4
O4
A    5
C5
A    6
C6
A    7
C1
A    8
C7
A    9
O7
A   10
C8
A   11
N8
M  END
