1RHM_NA4_A_501
     RDKit          3D

 39 40  0  0  0  0  0  0  0  0999 V2000
  -44.2300   38.5980   90.0000 C   0  0  0  0  0  0  0  0  0  0  0  0
  -44.2130   39.4770   91.0470 C   0  0  0  0  0  0  0  0  0  0  0  0
  -45.3710   39.7180   91.7550 C   0  0  0  0  0  0  0  0  0  0  0  0
  -46.5280   39.1320   91.4680 N   0  0  0  0  0  0  0  0  0  0  0  0
  -46.5380   38.2710   90.4390 C   0  0  0  0  0  0  0  0  0  0  0  0
  -45.4200   37.9600   89.6710 C   0  0  0  0  0  0  0  0  0  0  0  0
  -45.4580   36.8850   88.6230 C   0  0  0  0  0  0  0  0  0  0  0  0
  -44.4380   36.4160   88.1170 O   0  0  0  0  0  0  0  0  0  0  0  0
  -46.6910   36.5090   88.2860 N   0  0  0  0  0  0  0  0  0  0  0  0
  -46.9760   35.4450   87.3330 C   0  0  0  0  0  0  0  0  0  0  0  0
  -48.1330   34.5600   87.8220 C   0  0  0  0  0  0  0  0  0  0  0  0
  -47.0570   35.8550   85.8100 C   0  0  0  0  0  0  0  0  0  0  0  0
  -47.0660   34.6830   84.9760 O   0  0  0  0  0  0  0  0  0  0  0  0
  -47.8760   33.9770   89.2150 C   0  0  0  0  0  0  0  0  0  0  0  0
  -48.8260   33.5150   89.8880 O   0  0  0  0  0  0  0  0  0  0  0  0
  -46.7120   33.9510   89.6400 O   0  0  0  0  0  0  0  0  0  0  0  0
  -42.1310   42.4560   91.8260 C   0  0  0  0  0  0  0  0  0  0  0  0
  -43.2250   41.6520   91.5830 C   0  0  0  0  0  0  0  0  0  0  0  0
  -43.0400   40.3440   91.2110 C   0  0  0  0  0  0  0  0  0  0  0  0
  -41.7650   39.8270   91.0750 C   0  0  0  0  0  0  0  0  0  0  0  0
  -40.6690   40.6280   91.3180 C   0  0  0  0  0  0  0  0  0  0  0  0
  -40.8560   41.9470   91.6920 C   0  0  0  0  0  0  0  0  0  0  0  0
  -39.7560   42.7850   91.9310 C   0  0  0  0  0  0  0  0  0  0  0  0
  -38.6160   42.2920   91.7780 O   0  0  0  0  0  0  0  0  0  0  0  0
  -39.9900   43.9690   92.2780 O   0  0  0  0  0  0  0  0  0  0  0  0
  -43.3135   38.3983   89.4254 H   0  0  0  0  0  0  0  0  0  0  0  0
  -45.3353   40.4272   92.5951 H   0  0  0  0  0  0  0  0  0  0  0  0
  -47.4896   37.7802   90.1867 H   0  0  0  0  0  0  0  0  0  0  0  0
  -47.4857   36.9972   88.7231 H   0  0  0  0  0  0  0  0  0  0  0  0
  -46.0666   34.8262   87.3208 H   0  0  0  0  0  0  0  0  0  0  0  0
  -49.0505   35.1658   87.8567 H   0  0  0  0  0  0  0  0  0  0  0  0
  -48.2307   33.7188   87.1200 H   0  0  0  0  0  0  0  0  0  0  0  0
  -47.1004   36.8898   85.4396 H   0  0  0  0  0  0  0  0  0  0  0  0
  -46.5410   33.9472   90.6151 H   0  0  0  0  0  0  0  0  0  0  0  0
  -42.2754   43.5041   92.1269 H   0  0  0  0  0  0  0  0  0  0  0  0
  -44.2421   42.0577   91.6870 H   0  0  0  0  0  0  0  0  0  0  0  0
  -41.6250   38.7784   90.7735 H   0  0  0  0  0  0  0  0  0  0  0  0
  -39.6523   40.2208   91.2151 H   0  0  0  0  0  0  0  0  0  0  0  0
  -38.0689   42.0554   92.5684 H   0  0  0  0  0  0  0  0  0  0  0  0
  1  2  2  0
  1  6  1  0
  2  3  1  0
  2 19  1  0
  3  4  2  0
  4  5  1  0
  5  6  2  0
  6  7  1  0
  7  8  2  0
  7  9  1  0
  9 10  1  0
 10 11  1  0
 10 12  1  0
 11 14  1  0
 12 13  2  0
 14 15  2  0
 14 16  1  0
 17 18  2  0
 17 22  1  0
 18 19  1  0
 19 20  2  0
 20 21  1  0
 21 22  2  0
 22 23  1  0
 23 24  1  0
 23 25  2  0
  1 26  1  0
  3 27  1  0
  5 28  1  0
  9 29  1  0
 10 30  1  0
 11 31  1  0
 11 32  1  0
 12 33  1  0
 16 34  1  0
 17 35  1  0
 18 36  1  0
 20 37  1  0
 21 38  1  0
 24 39  1  0
A    1
C7
A    2
C8
A    3
C9
A    4
N2
A    5
C10
A    6
C6
A    7
C5
A    8
O4
A    9
N1
A   10
C3
A   11
C2
A   12
C4
A   13
O3
A   14
C1
A   15
O2
A   16
O1
A   17
C15
A   18
C16
A   19
C11
A   20
C12
A   21
C13
A   22
C14
A   23
C17
A   24
O5
A   25
O6
M  END
