1RKH_VD2_A_500
     RDKit          3D

 76 78  0  0  0  0  0  0  0  0999 V2000
   65.9920   -2.5040   -7.4360 O   0  0  0  0  0  0  0  0  0  0  0  0
   66.5170   -1.4030   -6.7450 C   0  0  0  0  0  0  0  0  0  0  0  0
   67.3880   -1.9550   -5.5660 C   0  0  0  0  0  0  0  0  0  0  0  0
   67.3460   -0.5120   -7.6460 C   0  0  0  0  0  0  0  0  0  0  0  0
   65.4030   -0.6240   -6.1230 C   0  0  0  0  0  0  0  0  0  0  0  0
   64.5510    0.2170   -6.9030 C   0  0  0  0  0  0  0  0  0  0  0  0
   63.2540    0.5210   -6.1940 C   0  0  0  0  0  0  0  0  0  0  0  0
   62.3580    1.5040   -7.0040 C   0  0  0  0  0  0  0  0  0  0  0  0
   61.5340    0.6100   -8.0710 C   0  0  0  0  0  0  0  0  0  0  0  0
   61.2150    2.2590   -6.1680 C   0  0  0  0  0  0  0  0  0  0  0  0
   60.4430    1.5190   -4.9890 C   0  0  0  0  0  0  0  0  0  0  0  0
   61.7540    3.5440   -5.5190 C   0  0  0  0  0  0  0  0  0  0  0  0
   63.0270    3.4230   -4.4330 C   0  0  0  0  0  0  0  0  0  0  0  0
   60.3290    4.0370   -4.9160 C   0  0  0  0  0  0  0  0  0  0  0  0
   59.7080    2.6700   -4.2060 C   0  0  0  0  0  0  0  0  0  0  0  0
   62.2260    4.7550   -6.4780 C   0  0  0  0  0  0  0  0  0  0  0  0
   62.3570    6.1790   -5.7210 C   0  0  0  0  0  0  0  0  0  0  0  0
   60.9400    6.5420   -5.1220 C   0  0  0  0  0  0  0  0  0  0  0  0
   60.5620    5.3200   -4.1390 C   0  0  0  0  0  0  0  0  0  0  0  0
   60.4980    5.4050   -2.8520 C   0  0  0  0  0  0  0  0  0  0  0  0
   60.7190    6.6640   -2.0730 C   0  0  0  0  0  0  0  0  0  0  0  0
   60.8830    6.7930   -0.7030 C   0  0  0  0  0  0  0  0  0  0  0  0
   60.9420    5.5890    0.2500 C   0  0  0  0  0  0  0  0  0  0  0  0
   61.0580    8.1440   -0.0270 C   0  0  0  0  0  0  0  0  0  0  0  0
   60.2880    8.2370    1.3320 C   0  0  0  0  0  0  0  0  0  0  0  0
   58.8690    8.1170    1.1080 O   0  0  0  0  0  0  0  0  0  0  0  0
   60.7730    7.0420    2.2810 C   0  0  0  0  0  0  0  0  0  0  0  0
   62.1360    6.9470    2.9880 C   0  0  0  0  0  0  0  0  0  0  0  0
   60.3310    5.6840    1.6790 C   0  0  0  0  0  0  0  0  0  0  0  0
   60.8130    4.5940    2.5240 O   0  0  0  0  0  0  0  0  0  0  0  0
   65.6704   -3.1784   -6.7865 H   0  0  0  0  0  0  0  0  0  0  0  0
   66.9325   -1.6663   -4.6072 H   0  0  0  0  0  0  0  0  0  0  0  0
   67.4408   -3.0518   -5.6314 H   0  0  0  0  0  0  0  0  0  0  0  0
   68.4024   -1.5345   -5.6314 H   0  0  0  0  0  0  0  0  0  0  0  0
   67.9671    0.1555   -7.0306 H   0  0  0  0  0  0  0  0  0  0  0  0
   67.9941   -1.1339   -8.2809 H   0  0  0  0  0  0  0  0  0  0  0  0
   66.6790    0.0897   -8.2809 H   0  0  0  0  0  0  0  0  0  0  0  0
   64.7479   -1.3585   -5.6317 H   0  0  0  0  0  0  0  0  0  0  0  0
   65.9438    0.1027   -5.4990 H   0  0  0  0  0  0  0  0  0  0  0  0
   65.0748    1.1627   -7.1061 H   0  0  0  0  0  0  0  0  0  0  0  0
   64.3117   -0.3137   -7.8363 H   0  0  0  0  0  0  0  0  0  0  0  0
   62.7031   -0.4193   -6.0444 H   0  0  0  0  0  0  0  0  0  0  0  0
   63.4977    0.9990   -5.2337 H   0  0  0  0  0  0  0  0  0  0  0  0
   63.0446    2.2619   -7.4092 H   0  0  0  0  0  0  0  0  0  0  0  0
   60.8836   -0.0956   -7.5334 H   0  0  0  0  0  0  0  0  0  0  0  0
   60.9186    1.2676   -8.7026 H   0  0  0  0  0  0  0  0  0  0  0  0
   62.2394    0.0502   -8.7026 H   0  0  0  0  0  0  0  0  0  0  0  0
   60.4839    2.3848   -6.9802 H   0  0  0  0  0  0  0  0  0  0  0  0
   59.7158    0.7996   -5.3934 H   0  0  0  0  0  0  0  0  0  0  0  0
   61.1234    0.9454   -4.3425 H   0  0  0  0  0  0  0  0  0  0  0  0
   62.6369    3.4601   -3.4052 H   0  0  0  0  0  0  0  0  0  0  0  0
   63.5544    2.4707   -4.5909 H   0  0  0  0  0  0  0  0  0  0  0  0
   63.7244    4.2589   -4.5909 H   0  0  0  0  0  0  0  0  0  0  0  0
   59.5374    4.3760   -5.6004 H   0  0  0  0  0  0  0  0  0  0  0  0
   58.6181    2.6109   -4.3421 H   0  0  0  0  0  0  0  0  0  0  0  0
   59.8637    2.6304   -3.1178 H   0  0  0  0  0  0  0  0  0  0  0  0
   63.2072    4.4975   -6.9033 H   0  0  0  0  0  0  0  0  0  0  0  0
   61.4494    4.8734   -7.2480 H   0  0  0  0  0  0  0  0  0  0  0  0
   63.0975    6.1051   -4.9110 H   0  0  0  0  0  0  0  0  0  0  0  0
   62.6872    6.9580   -6.4239 H   0  0  0  0  0  0  0  0  0  0  0  0
   60.9906    7.4861   -4.5598 H   0  0  0  0  0  0  0  0  0  0  0  0
   60.1862    6.6792   -5.9113 H   0  0  0  0  0  0  0  0  0  0  0  0
   60.2650    4.4890   -2.2893 H   0  0  0  0  0  0  0  0  0  0  0  0
   60.7555    7.5959   -2.6563 H   0  0  0  0  0  0  0  0  0  0  0  0
   60.4290    4.7591   -0.2580 H   0  0  0  0  0  0  0  0  0  0  0  0
   62.0188    5.4809    0.4471 H   0  0  0  0  0  0  0  0  0  0  0  0
   62.1291    8.3079    0.1623 H   0  0  0  0  0  0  0  0  0  0  0  0
   60.6447    8.9106   -0.6990 H   0  0  0  0  0  0  0  0  0  0  0  0
   60.4950    9.2090    1.8035 H   0  0  0  0  0  0  0  0  0  0  0  0
   58.3997    8.0773    1.9788 H   0  0  0  0  0  0  0  0  0  0  0  0
   60.2532    7.3764    3.1910 H   0  0  0  0  0  0  0  0  0  0  0  0
   61.9854    6.9575    4.0776 H   0  0  0  0  0  0  0  0  0  0  0  0
   62.6361    6.0118    2.6960 H   0  0  0  0  0  0  0  0  0  0  0  0
   62.7610    7.8038    2.6960 H   0  0  0  0  0  0  0  0  0  0  0  0
   59.2349    5.6088    1.6256 H   0  0  0  0  0  0  0  0  0  0  0  0
   60.7035    4.8415    3.4763 H   0  0  0  0  0  0  0  0  0  0  0  0
  1  2  1  0
  2  3  1  0
  2  4  1  0
  2  5  1  0
  5  6  1  0
  6  7  1  0
  7  8  1  0
  8  9  1  0
  8 10  1  0
 10 11  1  0
 10 12  1  0
 11 15  1  0
 12 13  1  0
 12 14  1  0
 12 16  1  0
 14 15  1  0
 14 19  1  0
 16 17  1  0
 17 18  1  0
 18 19  1  0
 19 20  2  0
 20 21  1  0
 21 22  2  0
 22 23  1  0
 22 24  1  0
 23 29  1  0
 24 25  1  0
 25 26  1  0
 25 27  1  0
 27 28  1  0
 27 29  1  0
 29 30  1  0
  1 31  1  0
  3 32  1  0
  3 33  1  0
  3 34  1  0
  4 35  1  0
  4 36  1  0
  4 37  1  0
  5 38  1  0
  5 39  1  0
  6 40  1  0
  6 41  1  0
  7 42  1  0
  7 43  1  0
  8 44  1  0
  9 45  1  0
  9 46  1  0
  9 47  1  0
 10 48  1  0
 11 49  1  0
 11 50  1  0
 13 51  1  0
 13 52  1  0
 13 53  1  0
 14 54  1  0
 15 55  1  0
 15 56  1  0
 16 57  1  0
 16 58  1  0
 17 59  1  0
 17 60  1  0
 18 61  1  0
 18 62  1  0
 20 63  1  0
 21 64  1  0
 23 65  1  0
 23 66  1  0
 24 67  1  0
 24 68  1  0
 25 69  1  0
 26 70  1  0
 27 71  1  0
 28 72  1  0
 28 73  1  0
 28 74  1  0
 29 75  1  0
 30 76  1  0
A    1
O3
A    2
C25
A    3
C27
A    4
C26
A    5
C24
A    6
C23
A    7
C22
A    8
C20
A    9
C21
A   10
C17
A   11
C16
A   12
C13
A   13
C18
A   14
C14
A   15
C15
A   16
C12
A   17
C11
A   18
C9
A   19
C8
A   20
C7
A   21
C6
A   22
C5
A   23
C10
A   24
C4
A   25
C3
A   26
O2
A   27
C2
A   28
C28
A   29
C1
A   30
O1
M  END
