1RO9_8BR_A_531
     RDKit          3D

 37 39  0  0  0  0  0  0  0  0999 V2000
   34.1430   71.3390   24.2510 P   0  0  0  0  0  0  0  0  0  0  0  0
   33.2870   72.2750   25.0550 O   0  0  0  0  0  0  0  0  0  0  0  0
   35.3750   72.0050   23.8140 O   0  0  0  0  0  0  0  0  0  0  0  0
   34.4810   70.2270   25.0700 O   0  0  0  0  0  0  0  0  0  0  0  0
   33.4120   70.8350   22.9530 O   0  0  0  0  0  0  0  0  0  0  0  0
   32.4380   71.6880   22.3130 C   0  0  0  0  0  0  0  0  0  0  0  0
   32.8220   71.9450   20.8520 C   0  0  0  0  0  0  0  0  0  0  0  0
   31.9210   72.9260   20.3430 O   0  0  0  0  0  0  0  0  0  0  0  0
   34.1720   72.6280   20.7600 C   0  0  0  0  0  0  0  0  0  0  0  0
   35.1830   71.6310   20.7870 O   0  0  0  0  0  0  0  0  0  0  0  0
   34.0780   73.3530   19.4360 C   0  0  0  0  0  0  0  0  0  0  0  0
   34.3410   72.4350   18.3800 O   0  0  0  0  0  0  0  0  0  0  0  0
   32.6070   73.7870   19.4210 C   0  0  0  0  0  0  0  0  0  0  0  0
   32.3610   75.2310   19.7670 N   0  0  0  0  0  0  0  0  0  0  0  0
   32.1420   76.3020   18.9390 C   0  0  0  0  0  0  0  0  0  0  0  0
   32.0970   76.2180   17.0430 Br  0  0  0  0  0  0  0  0  0  0  0  0
   31.9520   77.4700   19.5980 N   0  0  0  0  0  0  0  0  0  0  0  0
   32.0460   77.1760   20.9490 C   0  0  0  0  0  0  0  0  0  0  0  0
   31.9490   77.9020   22.1480 C   0  0  0  0  0  0  0  0  0  0  0  0
   31.7060   79.2280   22.1470 N   0  0  0  0  0  0  0  0  0  0  0  0
   32.0950   77.2880   23.3810 N   0  0  0  0  0  0  0  0  0  0  0  0
   32.3430   75.9360   23.4190 C   0  0  0  0  0  0  0  0  0  0  0  0
   32.4530   75.1520   22.3020 N   0  0  0  0  0  0  0  0  0  0  0  0
   32.3040   75.7690   21.0710 C   0  0  0  0  0  0  0  0  0  0  0  0
   35.8967   72.2870   24.6067 H   0  0  0  0  0  0  0  0  0  0  0  0
   34.4031   70.4833   26.0231 H   0  0  0  0  0  0  0  0  0  0  0  0
   31.4526   71.2003   22.3472 H   0  0  0  0  0  0  0  0  0  0  0  0
   32.4056   72.6501   22.8453 H   0  0  0  0  0  0  0  0  0  0  0  0
   32.8139   70.9820   20.3205 H   0  0  0  0  0  0  0  0  0  0  0  0
   34.4197   73.3203   21.5782 H   0  0  0  0  0  0  0  0  0  0  0  0
   35.4053   71.4118   21.7265 H   0  0  0  0  0  0  0  0  0  0  0  0
   34.7843   74.1873   19.3131 H   0  0  0  0  0  0  0  0  0  0  0  0
   34.5926   71.5567   18.7613 H   0  0  0  0  0  0  0  0  0  0  0  0
   32.2352   73.6971   18.3897 H   0  0  0  0  0  0  0  0  0  0  0  0
   31.6130   79.7352   23.0386 H   0  0  0  0  0  0  0  0  0  0  0  0
   31.6133   79.7339   21.2546 H   0  0  0  0  0  0  0  0  0  0  0  0
   32.4596   75.4573   24.4025 H   0  0  0  0  0  0  0  0  0  0  0  0
  1  2  2  0
  1  3  1  0
  1  4  1  0
  1  5  1  0
  5  6  1  0
  6  7  1  0
  7  8  1  0
  7  9  1  0
  8 13  1  0
  9 10  1  0
  9 11  1  0
 11 12  1  0
 11 13  1  0
 13 14  1  0
 14 15  1  0
 14 24  1  0
 15 16  1  0
 15 17  2  0
 17 18  1  0
 18 19  1  0
 18 24  2  0
 19 20  1  0
 19 21  2  0
 21 22  1  0
 22 23  2  0
 23 24  1  0
  3 25  1  0
  4 26  1  0
  6 27  1  0
  6 28  1  0
  7 29  1  0
  9 30  1  0
 10 31  1  0
 11 32  1  0
 12 33  1  0
 13 34  1  0
 20 35  1  0
 20 36  1  0
 22 37  1  0
A    1
P
A    2
O1P
A    3
O2P
A    4
O3P
A    5
O5'
A    6
C5'
A    7
C4'
A    8
O4'
A    9
C3'
A   10
O3'
A   11
C2'
A   12
O2'
A   13
C1'
A   14
N9
A   15
C8
A   16
BR8
A   17
N7
A   18
C5
A   19
C6
A   20
N6
A   21
N1
A   22
C2
A   23
N3
A   24
C4
M  END
