1RPW_DID_B_193
     RDKit          3D

 52 53  0  0  0  0  0  0  0  0999 V2000
  -73.0100  -42.9170    8.4960 C   0  0  0  0  0  0  0  0  0  0  0  0
  -71.6750  -43.1540    8.6010 C   0  0  0  0  0  0  0  0  0  0  0  0
  -70.8430  -43.4330    7.3770 C   0  0  0  0  0  0  0  0  0  0  0  0
  -71.4300  -43.4520    6.1400 C   0  0  0  0  0  0  0  0  0  0  0  0
  -72.9000  -43.1860    6.0460 C   0  0  0  0  0  0  0  0  0  0  0  0
  -73.6380  -42.9380    7.1490 C   0  0  0  0  0  0  0  0  0  0  0  0
  -73.8470  -42.6410    9.7050 C   0  0  0  0  0  0  0  0  0  0  0  0
  -74.0610  -43.6470   10.6960 N   0  0  0  0  0  0  0  0  0  0  0  0
  -74.3880  -41.5150    9.8810 N   0  0  0  0  0  0  0  0  0  0  0  0
  -70.7140  -43.7190    4.9040 O   0  0  0  0  0  0  0  0  0  0  0  0
  -69.2830  -43.9850    4.9930 C   0  0  0  0  0  0  0  0  0  0  0  0
  -68.6870  -44.2690    3.5580 C   0  0  0  0  0  0  0  0  0  0  0  0
  -67.1630  -44.5530    3.7030 C   0  0  0  0  0  0  0  0  0  0  0  0
  -66.3810  -44.8710    2.3680 C   0  0  0  0  0  0  0  0  0  0  0  0
  -64.9140  -45.0890    2.8560 C   0  0  0  0  0  0  0  0  0  0  0  0
  -63.7840  -45.4160    1.8210 C   0  0  0  0  0  0  0  0  0  0  0  0
  -62.6260  -45.4970    2.7110 O   0  0  0  0  0  0  0  0  0  0  0  0
  -61.2980  -45.7330    2.2300 C   0  0  0  0  0  0  0  0  0  0  0  0
  -60.3310  -45.7840    3.1800 C   0  0  0  0  0  0  0  0  0  0  0  0
  -58.9090  -46.0080    2.8260 C   0  0  0  0  0  0  0  0  0  0  0  0
  -58.5480  -46.1710    1.5370 C   0  0  0  0  0  0  0  0  0  0  0  0
  -59.6030  -46.1200    0.4540 C   0  0  0  0  0  0  0  0  0  0  0  0
  -60.9150  -45.9130    0.7810 C   0  0  0  0  0  0  0  0  0  0  0  0
  -57.1190  -46.3910    1.2120 C   0  0  0  0  0  0  0  0  0  0  0  0
  -56.7530  -46.5480    0.0030 N   0  0  0  0  0  0  0  0  0  0  0  0
  -56.1600  -46.4310    2.2400 N   0  0  0  0  0  0  0  0  0  0  0  0
  -71.1972  -43.1418    9.5917 H   0  0  0  0  0  0  0  0  0  0  0  0
  -69.7639  -43.6215    7.4767 H   0  0  0  0  0  0  0  0  0  0  0  0
  -73.3879  -43.1927    5.0602 H   0  0  0  0  0  0  0  0  0  0  0  0
  -74.7171  -42.7492    7.0496 H   0  0  0  0  0  0  0  0  0  0  0  0
  -74.0094  -43.4044   11.6957 H   0  0  0  0  0  0  0  0  0  0  0  0
  -74.2669  -44.6151   10.4110 H   0  0  0  0  0  0  0  0  0  0  0  0
  -74.9607  -41.3443   10.7199 H   0  0  0  0  0  0  0  0  0  0  0  0
  -68.7779  -43.1104    5.4290 H   0  0  0  0  0  0  0  0  0  0  0  0
  -69.1225  -44.8687    5.6280 H   0  0  0  0  0  0  0  0  0  0  0  0
  -69.1868  -45.1431    3.1150 H   0  0  0  0  0  0  0  0  0  0  0  0
  -68.8476  -43.3989    2.9044 H   0  0  0  0  0  0  0  0  0  0  0  0
  -66.6989  -43.6668    4.1605 H   0  0  0  0  0  0  0  0  0  0  0  0
  -67.0912  -45.4674    4.3102 H   0  0  0  0  0  0  0  0  0  0  0  0
  -66.7753  -45.7781    1.8866 H   0  0  0  0  0  0  0  0  0  0  0  0
  -66.4709  -44.0737    1.6155 H   0  0  0  0  0  0  0  0  0  0  0  0
  -64.6119  -44.1675    3.3752 H   0  0  0  0  0  0  0  0  0  0  0  0
  -64.9813  -46.0088    3.4556 H   0  0  0  0  0  0  0  0  0  0  0  0
  -63.9683  -46.3703    1.3059 H   0  0  0  0  0  0  0  0  0  0  0  0
  -63.6849  -44.6868    1.0035 H   0  0  0  0  0  0  0  0  0  0  0  0
  -60.6083  -45.6563    4.2368 H   0  0  0  0  0  0  0  0  0  0  0  0
  -58.1458  -46.0414    3.6174 H   0  0  0  0  0  0  0  0  0  0  0  0
  -59.3142  -46.2497   -0.5995 H   0  0  0  0  0  0  0  0  0  0  0  0
  -61.6840  -45.8780   -0.0048 H   0  0  0  0  0  0  0  0  0  0  0  0
  -55.8263  -46.9455   -0.2071 H   0  0  0  0  0  0  0  0  0  0  0  0
  -57.3835  -46.2775   -0.7652 H   0  0  0  0  0  0  0  0  0  0  0  0
  -55.1672  -46.5840    2.0124 H   0  0  0  0  0  0  0  0  0  0  0  0
  1  2  2  0
  1  6  1  0
  1  7  1  0
  2  3  1  0
  3  4  2  0
  4  5  1  0
  4 10  1  0
  5  6  2  0
  7  8  1  0
  7  9  2  3
 10 11  1  0
 11 12  1  0
 12 13  1  0
 13 14  1  0
 14 15  1  0
 15 16  1  0
 16 17  1  0
 17 18  1  0
 18 19  2  0
 18 23  1  0
 19 20  1  0
 20 21  2  0
 21 22  1  0
 21 24  1  0
 22 23  2  0
 24 25  1  0
 24 26  2  3
  2 27  1  0
  3 28  1  0
  5 29  1  0
  6 30  1  0
  8 31  1  0
  8 32  1  0
  9 33  1  0
 11 34  1  0
 11 35  1  0
 12 36  1  0
 12 37  1  0
 13 38  1  0
 13 39  1  0
 14 40  1  0
 14 41  1  0
 15 42  1  0
 15 43  1  0
 16 44  1  0
 16 45  1  0
 19 46  1  0
 20 47  1  0
 22 48  1  0
 23 49  1  0
 25 50  1  0
 25 51  1  0
 26 52  1  0
A    1
C4
A    2
C5
A    3
C6
A    4
C1
A    5
C2
A    6
C3
A    7
C9
A    8
N1
A    9
N2
A   10
O1
A   11
C7
A   12
C8
A   13
C10
A   14
C11
A   15
C8'
A   16
C7'
A   17
O1'
A   18
C1'
A   19
C6'
A   20
C5'
A   21
C4'
A   22
C3'
A   23
C2'
A   24
C9'
A   25
N1'
A   26
N2'
M  END
