1RQI_IPR_A_501
     RDKit          3D

 28 27  0  0  0  0  0  0  0  0999 V2000
   58.1790   65.4000    9.1480 P   0  0  0  0  0  0  0  0  0  0  0  0
   56.7240   65.6750    9.4420 O   0  0  0  0  0  0  0  0  0  0  0  0
   58.8160   64.6810   10.3180 O   0  0  0  0  0  0  0  0  0  0  0  0
   58.3560   64.7480    7.7940 O   0  0  0  0  0  0  0  0  0  0  0  0
   58.8640   66.8570    9.0530 O   0  0  0  0  0  0  0  0  0  0  0  0
   60.1720   67.2090    8.1820 P   0  0  0  0  0  0  0  0  0  0  0  0
   61.0530   66.0060    8.0260 O   0  0  0  0  0  0  0  0  0  0  0  0
   59.7270   67.9270    6.9280 O   0  0  0  0  0  0  0  0  0  0  0  0
   60.8980   68.3020    9.1110 O   0  0  0  0  0  0  0  0  0  0  0  0
   60.1490   69.3030    9.8120 C   0  0  0  0  0  0  0  0  0  0  0  0
   61.1370   70.2660   10.4280 C   0  0  0  0  0  0  0  0  0  0  0  0
   62.3460   70.5250    9.5690 C   0  0  0  0  0  0  0  0  0  0  0  0
   63.7230   70.1280   10.1140 C   0  0  0  0  0  0  0  0  0  0  0  0
   62.1450   71.4900    8.4090 C   0  0  0  0  0  0  0  0  0  0  0  0
   56.5846   65.7014   10.4218 H   0  0  0  0  0  0  0  0  0  0  0  0
   58.4765   65.0642   11.1653 H   0  0  0  0  0  0  0  0  0  0  0  0
   61.3043   65.6629    8.9200 H   0  0  0  0  0  0  0  0  0  0  0  0
   59.4908   69.8380    9.1115 H   0  0  0  0  0  0  0  0  0  0  0  0
   59.5227   68.8422   10.5901 H   0  0  0  0  0  0  0  0  0  0  0  0
   60.6249   71.2234   10.6044 H   0  0  0  0  0  0  0  0  0  0  0  0
   61.4974   69.8048   11.3593 H   0  0  0  0  0  0  0  0  0  0  0  0
   62.5003   69.6778    8.8845 H   0  0  0  0  0  0  0  0  0  0  0  0
   63.6981   70.1352   11.2137 H   0  0  0  0  0  0  0  0  0  0  0  0
   63.9806   69.1190    9.7597 H   0  0  0  0  0  0  0  0  0  0  0  0
   64.4782   70.8450    9.7597 H   0  0  0  0  0  0  0  0  0  0  0  0
   61.9354   72.4961    8.8011 H   0  0  0  0  0  0  0  0  0  0  0  0
   63.0564   71.5187    7.7938 H   0  0  0  0  0  0  0  0  0  0  0  0
   61.2979   71.1525    7.7938 H   0  0  0  0  0  0  0  0  0  0  0  0
  1  2  1  0
  1  3  1  0
  1  4  2  0
  1  5  1  0
  5  6  1  0
  6  7  1  0
  6  8  2  0
  6  9  1  0
  9 10  1  0
 10 11  1  0
 11 12  1  0
 12 13  1  0
 12 14  1  0
  2 15  1  0
  3 16  1  0
  7 17  1  0
 10 18  1  0
 10 19  1  0
 11 20  1  0
 11 21  1  0
 12 22  1  0
 13 23  1  0
 13 24  1  0
 13 25  1  0
 14 26  1  0
 14 27  1  0
 14 28  1  0
A    1
P11
A    2
O14
A    3
O12
A    4
O13
A    5
O10
A    6
P7
A    7
O8
A    8
O9
A    9
O6
A   10
C5
A   11
C4
A   12
C2
A   13
C1
A   14
C3
M  END
