1K4T_TTC_D_990
     RDKit          3D

 54 58  0  0  0  0  0  0  0  0999 V2000
   19.7090    1.6120   29.4990 C   0  0  0  0  0  0  0  0  0  0  0  0
   18.6450    0.7720   30.2500 C   0  0  0  0  0  0  0  0  0  0  0  0
   20.0910    1.0950   28.0810 C   0  0  0  0  0  0  0  0  0  0  0  0
   18.9830    0.8350   27.4100 O   0  0  0  0  0  0  0  0  0  0  0  0
   20.9730   -0.1340   28.2250 C   0  0  0  0  0  0  0  0  0  0  0  0
   20.8980    2.1730   27.2750 C   0  0  0  0  0  0  0  0  0  0  0  0
   22.3880   -0.0080   28.3820 C   0  0  0  0  0  0  0  0  0  0  0  0
   20.5700   -1.4690   28.2120 C   0  0  0  0  0  0  0  0  0  0  0  0
   20.3350    2.9850   26.4060 O   0  0  0  0  0  0  0  0  0  0  0  0
   22.2640    2.2880   27.4680 O   0  0  0  0  0  0  0  0  0  0  0  0
   23.2600   -1.1000   28.5100 C   0  0  0  0  0  0  0  0  0  0  0  0
   22.9580    1.4170   28.4060 C   0  0  0  0  0  0  0  0  0  0  0  0
   21.4600   -2.5510   28.3350 C   0  0  0  0  0  0  0  0  0  0  0  0
   24.5670   -0.9400   28.6530 O   0  0  0  0  0  0  0  0  0  0  0  0
   22.7550   -2.3780   28.4770 N   0  0  0  0  0  0  0  0  0  0  0  0
   21.1640   -3.9150   28.3120 C   0  0  0  0  0  0  0  0  0  0  0  0
   23.5230   -3.6370   28.5820 C   0  0  0  0  0  0  0  0  0  0  0  0
   22.4180   -4.6700   28.4590 C   0  0  0  0  0  0  0  0  0  0  0  0
   19.9320   -4.4280   28.1690 N   0  0  0  0  0  0  0  0  0  0  0  0
   22.3480   -6.0000   28.4480 C   0  0  0  0  0  0  0  0  0  0  0  0
   19.8990   -5.8280   28.1570 C   0  0  0  0  0  0  0  0  0  0  0  0
   21.0710   -6.6350   28.2830 C   0  0  0  0  0  0  0  0  0  0  0  0
   18.6570   -6.3600   27.9950 C   0  0  0  0  0  0  0  0  0  0  0  0
   20.9250   -8.0350   28.2410 C   0  0  0  0  0  0  0  0  0  0  0  0
   18.5190   -7.7590   27.9510 C   0  0  0  0  0  0  0  0  0  0  0  0
   19.6520   -8.5800   28.0710 C   0  0  0  0  0  0  0  0  0  0  0  0
   22.0810   -9.0360   28.3510 C   0  0  0  0  0  0  0  0  0  0  0  0
   22.6920   -9.3970   27.0440 N   0  0  0  0  0  0  0  0  0  0  0  0
   23.8570   -8.5830   26.7240 C   0  0  0  0  0  0  0  0  0  0  0  0
   23.0590  -10.8230   26.9670 C   0  0  0  0  0  0  0  0  0  0  0  0
   19.4330   -9.9280   28.0140 O   0  0  0  0  0  0  0  0  0  0  0  0
   19.3203    2.6356   29.3934 H   0  0  0  0  0  0  0  0  0  0  0  0
   20.6266    1.5468   30.1021 H   0  0  0  0  0  0  0  0  0  0  0  0
   18.7877    0.8847   31.3349 H   0  0  0  0  0  0  0  0  0  0  0  0
   17.6395    1.1225   29.9741 H   0  0  0  0  0  0  0  0  0  0  0  0
   18.7526   -0.2874   29.9741 H   0  0  0  0  0  0  0  0  0  0  0  0
   18.2447    0.6618   28.0464 H   0  0  0  0  0  0  0  0  0  0  0  0
   19.4978   -1.6876   28.0994 H   0  0  0  0  0  0  0  0  0  0  0  0
   22.8503    1.8274   29.4209 H   0  0  0  0  0  0  0  0  0  0  0  0
   24.0168    1.3689   28.1118 H   0  0  0  0  0  0  0  0  0  0  0  0
   24.2552   -3.7314   27.7665 H   0  0  0  0  0  0  0  0  0  0  0  0
   24.1215   -3.7245   29.5008 H   0  0  0  0  0  0  0  0  0  0  0  0
   23.2590   -6.6055   28.5641 H   0  0  0  0  0  0  0  0  0  0  0  0
   17.7766   -5.7074   27.9001 H   0  0  0  0  0  0  0  0  0  0  0  0
   17.5239   -8.2099   27.8226 H   0  0  0  0  0  0  0  0  0  0  0  0
   22.8616   -8.5949   28.9882 H   0  0  0  0  0  0  0  0  0  0  0  0
   21.6630   -9.9612   28.7745 H   0  0  0  0  0  0  0  0  0  0  0  0
   24.3370   -8.2476   27.6552 H   0  0  0  0  0  0  0  0  0  0  0  0
   24.5713   -9.1796   26.1376 H   0  0  0  0  0  0  0  0  0  0  0  0
   23.5424   -7.7071   26.1376 H   0  0  0  0  0  0  0  0  0  0  0  0
   23.1638  -11.2301   27.9835 H   0  0  0  0  0  0  0  0  0  0  0  0
   22.2737  -11.3752   26.4300 H   0  0  0  0  0  0  0  0  0  0  0  0
   24.0133  -10.9275   26.4300 H   0  0  0  0  0  0  0  0  0  0  0  0
   19.3480  -10.4515   28.8500 H   0  0  0  0  0  0  0  0  0  0  0  0
  1  2  1  0
  1  3  1  0
  3  4  1  0
  3  5  1  0
  3  6  1  0
  5  7  2  0
  5  8  1  0
  6  9  2  0
  6 10  1  0
  7 11  1  0
  7 12  1  0
  8 13  2  0
 10 12  1  0
 11 14  2  0
 11 15  1  0
 13 15  1  0
 13 16  1  0
 15 17  1  0
 16 18  2  0
 16 19  1  0
 17 18  1  0
 18 20  1  0
 19 21  2  0
 20 22  2  0
 21 22  1  0
 21 23  1  0
 22 24  1  0
 23 25  2  0
 24 26  2  0
 24 27  1  0
 25 26  1  0
 26 31  1  0
 27 28  1  0
 28 29  1  0
 28 30  1  0
  1 32  1  0
  1 33  1  0
  2 34  1  0
  2 35  1  0
  2 36  1  0
  4 37  1  0
  8 38  1  0
 12 39  1  0
 12 40  1  0
 17 41  1  0
 17 42  1  0
 20 43  1  0
 23 44  1  0
 25 45  1  0
 27 46  1  0
 27 47  1  0
 29 48  1  0
 29 49  1  0
 29 50  1  0
 30 51  1  0
 30 52  1  0
 30 53  1  0
 31 54  1  0
A    1
C25
A    2
C31
A    3
C21
A    4
O24
A    5
C16
A    6
C20
A    7
C15
A    8
C17
A    9
O23
A   10
O22
A   11
C14
A   12
C19
A   13
C13
A   14
O18
A   15
N12
A   16
C9
A   17
C11
A   18
C8
A   19
N10
A   20
C7
A   21
C5
A   22
C6
A   23
C4
A   24
C1
A   25
C3
A   26
C2
A   27
C27
A   28
N28
A   29
C29
A   30
C30
A   31
O26
M  END
