1K4T_TTG_C_991
     RDKit          3D

 57 60  0  0  0  0  0  0  0  0999 V2000
   19.3970    1.9110   29.0790 C   0  0  0  0  0  0  0  0  0  0  0  0
   18.5260    1.0040   29.9790 C   0  0  0  0  0  0  0  0  0  0  0  0
   20.0320    1.3410   27.7610 C   0  0  0  0  0  0  0  0  0  0  0  0
   18.9460    0.8230   26.9810 O   0  0  0  0  0  0  0  0  0  0  0  0
   21.0310    0.1500   28.1100 C   0  0  0  0  0  0  0  0  0  0  0  0
   20.5720    2.5540   26.8550 C   0  0  0  0  0  0  0  0  0  0  0  0
   22.3870    0.3030   28.3480 C   0  0  0  0  0  0  0  0  0  0  0  0
   20.5240   -1.1400   28.2230 C   0  0  0  0  0  0  0  0  0  0  0  0
   20.6060    2.4610   25.6020 O   0  0  0  0  0  0  0  0  0  0  0  0
   20.9780    3.6130   27.3890 O   0  0  0  0  0  0  0  0  0  0  0  0
   23.3420   -0.9430   28.5010 C   0  0  0  0  0  0  0  0  0  0  0  0
   23.0760    1.6470   28.4750 C   0  0  0  0  0  0  0  0  0  0  0  0
   21.2710   -2.2670   28.3940 C   0  0  0  0  0  0  0  0  0  0  0  0
   24.5670   -0.8350   28.6490 O   0  0  0  0  0  0  0  0  0  0  0  0
   22.7150   -2.1430   28.4830 N   0  0  0  0  0  0  0  0  0  0  0  0
   21.0050   -3.7410   28.4660 C   0  0  0  0  0  0  0  0  0  0  0  0
   23.4130   -3.4500   28.5260 C   0  0  0  0  0  0  0  0  0  0  0  0
   22.2470   -4.4310   28.5130 C   0  0  0  0  0  0  0  0  0  0  0  0
   19.7590   -4.4690   28.3460 N   0  0  0  0  0  0  0  0  0  0  0  0
   22.2630   -5.8290   28.4460 C   0  0  0  0  0  0  0  0  0  0  0  0
   19.8100   -5.7840   28.2830 C   0  0  0  0  0  0  0  0  0  0  0  0
   21.0540   -6.5370   28.3210 C   0  0  0  0  0  0  0  0  0  0  0  0
   18.6180   -6.4680   28.0730 C   0  0  0  0  0  0  0  0  0  0  0  0
   21.0150   -7.9460   28.1560 C   0  0  0  0  0  0  0  0  0  0  0  0
   18.6190   -7.8250   27.8130 C   0  0  0  0  0  0  0  0  0  0  0  0
   19.7820   -8.5630   27.8780 C   0  0  0  0  0  0  0  0  0  0  0  0
   22.2390   -8.9080   28.2590 C   0  0  0  0  0  0  0  0  0  0  0  0
   22.7880   -9.4030   26.9450 N   0  0  0  0  0  0  0  0  0  0  0  0
   23.6120   -8.3780   26.2250 C   0  0  0  0  0  0  0  0  0  0  0  0
   23.4780  -10.7280   27.0450 C   0  0  0  0  0  0  0  0  0  0  0  0
   19.6930   -9.9130   27.6240 O   0  0  0  0  0  0  0  0  0  0  0  0
   23.9950    1.9100   27.4230 O   0  0  0  0  0  0  0  0  0  0  0  0
   18.7668    2.7629   28.7839 H   0  0  0  0  0  0  0  0  0  0  0  0
   20.2740    2.1208   29.7090 H   0  0  0  0  0  0  0  0  0  0  0  0
   18.7376    1.2243   31.0357 H   0  0  0  0  0  0  0  0  0  0  0  0
   17.4626    1.1934   29.7707 H   0  0  0  0  0  0  0  0  0  0  0  0
   18.7582   -0.0508   29.7707 H   0  0  0  0  0  0  0  0  0  0  0  0
   18.2378    0.4852   27.5847 H   0  0  0  0  0  0  0  0  0  0  0  0
   19.4319   -1.2605   28.1701 H   0  0  0  0  0  0  0  0  0  0  0  0
   21.0076    3.6901   28.3755 H   0  0  0  0  0  0  0  0  0  0  0  0
   22.3080    2.4345   28.4726 H   0  0  0  0  0  0  0  0  0  0  0  0
   23.6507    1.6309   29.4128 H   0  0  0  0  0  0  0  0  0  0  0  0
   24.0604   -3.5867   27.6473 H   0  0  0  0  0  0  0  0  0  0  0  0
   24.0825   -3.5676   29.3908 H   0  0  0  0  0  0  0  0  0  0  0  0
   23.2183   -6.3725   28.4910 H   0  0  0  0  0  0  0  0  0  0  0  0
   17.6635   -5.9228   28.1143 H   0  0  0  0  0  0  0  0  0  0  0  0
   17.6755   -8.3254   27.5495 H   0  0  0  0  0  0  0  0  0  0  0  0
   23.0455   -8.3752   28.7841 H   0  0  0  0  0  0  0  0  0  0  0  0
   21.8776   -9.8006   28.7907 H   0  0  0  0  0  0  0  0  0  0  0  0
   24.1255   -7.7392   26.9586 H   0  0  0  0  0  0  0  0  0  0  0  0
   24.3575   -8.8841   25.5941 H   0  0  0  0  0  0  0  0  0  0  0  0
   22.9575   -7.7587   25.5941 H   0  0  0  0  0  0  0  0  0  0  0  0
   23.6150  -10.9910   28.1043 H   0  0  0  0  0  0  0  0  0  0  0  0
   22.8664  -11.4980   26.5521 H   0  0  0  0  0  0  0  0  0  0  0  0
   24.4596  -10.6684   26.5521 H   0  0  0  0  0  0  0  0  0  0  0  0
   19.6506  -10.5563   28.3753 H   0  0  0  0  0  0  0  0  0  0  0  0
   24.8725    2.1611   27.8065 H   0  0  0  0  0  0  0  0  0  0  0  0
  1  2  1  0
  1  3  1  0
  3  4  1  0
  3  5  1  0
  3  6  1  0
  5  7  2  0
  5  8  1  0
  6  9  2  0
  6 10  1  0
  7 11  1  0
  7 12  1  0
  8 13  2  0
 11 14  2  0
 11 15  1  0
 12 32  1  0
 13 15  1  0
 13 16  1  0
 15 17  1  0
 16 18  2  0
 16 19  1  0
 17 18  1  0
 18 20  1  0
 19 21  2  0
 20 22  2  0
 21 22  1  0
 21 23  1  0
 22 24  1  0
 23 25  2  0
 24 26  2  0
 24 27  1  0
 25 26  1  0
 26 31  1  0
 27 28  1  0
 28 29  1  0
 28 30  1  0
  1 33  1  0
  1 34  1  0
  2 35  1  0
  2 36  1  0
  2 37  1  0
  4 38  1  0
  8 39  1  0
 10 40  1  0
 12 41  1  0
 12 42  1  0
 17 43  1  0
 17 44  1  0
 20 45  1  0
 23 46  1  0
 25 47  1  0
 27 48  1  0
 27 49  1  0
 29 50  1  0
 29 51  1  0
 29 52  1  0
 30 53  1  0
 30 54  1  0
 30 55  1  0
 31 56  1  0
 32 57  1  0
A    1
C25
A    2
C31
A    3
C21
A    4
O24
A    5
C16
A    6
C20
A    7
C15
A    8
C17
A    9
O23
A   10
O22
A   11
C14
A   12
C19
A   13
C13
A   14
O18
A   15
N12
A   16
C9
A   17
C11
A   18
C8
A   19
N10
A   20
C7
A   21
C5
A   22
C6
A   23
C4
A   24
C1
A   25
C3
A   26
C2
A   27
C27
A   28
N28
A   29
C29
A   30
C30
A   31
O26
A   32
O19
M  END
