1RRW_9MG_A_1001
     RDKit          3D

 19 20  0  0  0  0  0  0  0  0999 V2000
   51.2670   45.6840   74.4570 C   0  0  0  0  0  0  0  0  0  0  0  0
   50.0290   46.4900   74.5330 N   0  0  0  0  0  0  0  0  0  0  0  0
   49.6010   47.4500   73.6390 C   0  0  0  0  0  0  0  0  0  0  0  0
   48.4430   47.9600   74.0280 N   0  0  0  0  0  0  0  0  0  0  0  0
   48.0550   47.3390   75.2220 C   0  0  0  0  0  0  0  0  0  0  0  0
   46.9480   47.4370   76.1020 C   0  0  0  0  0  0  0  0  0  0  0  0
   45.9320   48.3240   75.8400 O   0  0  0  0  0  0  0  0  0  0  0  0
   46.9150   46.6380   77.2300 N   0  0  0  0  0  0  0  0  0  0  0  0
   47.9310   45.7480   77.5070 C   0  0  0  0  0  0  0  0  0  0  0  0
   47.8780   44.9530   78.6640 N   0  0  0  0  0  0  0  0  0  0  0  0
   48.9830   45.6350   76.6720 N   0  0  0  0  0  0  0  0  0  0  0  0
   49.0770   46.3980   75.5520 C   0  0  0  0  0  0  0  0  0  0  0  0
   51.6185   45.4551   75.4739 H   0  0  0  0  0  0  0  0  0  0  0  0
   51.0615   44.7461   73.9203 H   0  0  0  0  0  0  0  0  0  0  0  0
   52.0416   46.2514   73.9203 H   0  0  0  0  0  0  0  0  0  0  0  0
   50.1453   47.7493   72.7311 H   0  0  0  0  0  0  0  0  0  0  0  0
   45.4428   48.7511   76.5872 H   0  0  0  0  0  0  0  0  0  0  0  0
   47.9074   45.3946   79.5941 H   0  0  0  0  0  0  0  0  0  0  0  0
   47.8097   43.9285   78.5822 H   0  0  0  0  0  0  0  0  0  0  0  0
  1  2  1  0
  2  3  1  0
  2 12  1  0
  3  4  2  0
  4  5  1  0
  5  6  1  0
  5 12  2  0
  6  7  1  0
  6  8  2  0
  8  9  1  0
  9 10  1  0
  9 11  2  0
 11 12  1  0
  1 13  1  0
  1 14  1  0
  1 15  1  0
  3 16  1  0
  7 17  1  0
 10 18  1  0
 10 19  1  0
A    1
C1
A    2
N2
A    3
C3
A    4
N4
A    5
C5
A    6
C6
A    7
O7
A    8
N8
A    9
C9
A   10
N10
A   11
N11
A   12
C12
M  END
