1RSI_977_A_1001
     RDKit          3D

 23 24  0  0  0  0  0  0  0  0999 V2000
   47.8010   44.9010   78.9940 N   0  0  0  0  0  0  0  0  0  0  0  0
   47.8660   45.6470   77.8720 C   0  0  0  0  0  0  0  0  0  0  0  0
   48.9410   45.5550   77.0970 N   0  0  0  0  0  0  0  0  0  0  0  0
   49.0550   46.3020   75.9260 C   0  0  0  0  0  0  0  0  0  0  0  0
   48.0250   47.1780   75.5140 C   0  0  0  0  0  0  0  0  0  0  0  0
   48.1460   48.2120   73.8810 Br  0  0  0  0  0  0  0  0  0  0  0  0
   46.8040   47.2640   76.4030 C   0  0  0  0  0  0  0  0  0  0  0  0
   45.8350   48.0110   76.1340 O   0  0  0  0  0  0  0  0  0  0  0  0
   46.8000   46.4920   77.5330 N   0  0  0  0  0  0  0  0  0  0  0  0
   50.2730   46.1180   75.1110 C   0  0  0  0  0  0  0  0  0  0  0  0
   51.2510   47.1380   75.0150 C   0  0  0  0  0  0  0  0  0  0  0  0
   52.3990   46.9520   74.2010 C   0  0  0  0  0  0  0  0  0  0  0  0
   52.5650   45.7410   73.4750 C   0  0  0  0  0  0  0  0  0  0  0  0
   51.5910   44.7120   73.5740 C   0  0  0  0  0  0  0  0  0  0  0  0
   50.4480   44.8940   74.3850 C   0  0  0  0  0  0  0  0  0  0  0  0
   47.8406   45.3553   79.9175 H   0  0  0  0  0  0  0  0  0  0  0  0
   47.7118   43.8770   78.9272 H   0  0  0  0  0  0  0  0  0  0  0  0
   45.3063   48.4186   76.8651 H   0  0  0  0  0  0  0  0  0  0  0  0
   51.1206   48.0770   75.5728 H   0  0  0  0  0  0  0  0  0  0  0  0
   53.1593   47.7440   74.1320 H   0  0  0  0  0  0  0  0  0  0  0  0
   53.4491   45.6007   72.8357 H   0  0  0  0  0  0  0  0  0  0  0  0
   51.7265   43.7722   73.0187 H   0  0  0  0  0  0  0  0  0  0  0  0
   49.6932   44.0973   74.4592 H   0  0  0  0  0  0  0  0  0  0  0  0
  1  2  1  0
  2  3  2  0
  2  9  1  0
  3  4  1  0
  4  5  2  0
  4 10  1  0
  5  6  1  0
  5  7  1  0
  7  8  1  0
  7  9  2  0
 10 11  2  0
 10 15  1  0
 11 12  1  0
 12 13  2  0
 13 14  1  0
 14 15  2  0
  1 16  1  0
  1 17  1  0
  8 18  1  0
 11 19  1  0
 12 20  1  0
 13 21  1  0
 14 22  1  0
 15 23  1  0
A    1
N1
A    2
C2
A    3
N3
A    4
C4
A    5
C5
A    6
BR6
A    7
C7
A    8
O8
A    9
N9
A   10
C10
A   11
C11
A   12
C12
A   13
C13
A   14
C14
A   15
C15
M  END
