1RT6_UC3_A_999
     RDKit          3D

 38 38  0  0  0  0  0  0  0  0999 V2000
   -0.0230  -35.6750   21.0390 C   0  0  0  0  0  0  0  0  0  0  0  0
    0.9110  -35.9430   19.6510 S   0  0  0  0  0  0  0  0  0  0  0  0
   -1.1070  -34.7630   21.0100 N   0  0  0  0  0  0  0  0  0  0  0  0
   -1.9580  -34.2930   22.0900 C   0  0  0  0  0  0  0  0  0  0  0  0
   -1.5100  -34.3230   23.4310 C   0  0  0  0  0  0  0  0  0  0  0  0
   -2.3210  -33.8670   24.4810 C   0  0  0  0  0  0  0  0  0  0  0  0
   -3.6160  -33.3800   24.1820 C   0  0  0  0  0  0  0  0  0  0  0  0
   -4.6980  -32.8530   25.4730 Cl  0  0  0  0  0  0  0  0  0  0  0  0
   -4.0730  -33.3340   22.8520 C   0  0  0  0  0  0  0  0  0  0  0  0
   -3.2510  -33.7920   21.8130 C   0  0  0  0  0  0  0  0  0  0  0  0
   -1.7430  -33.9350   25.9080 C   0  0  0  0  0  0  0  0  0  0  0  0
   -1.4760  -32.6780   26.4190 O   0  0  0  0  0  0  0  0  0  0  0  0
   -1.5400  -34.9660   26.5260 O   0  0  0  0  0  0  0  0  0  0  0  0
   -0.1460  -32.5590   26.9630 C   0  0  0  0  0  0  0  0  0  0  0  0
    0.4270  -31.1980   26.5320 C   0  0  0  0  0  0  0  0  0  0  0  0
   -0.2300  -32.6810   28.4920 C   0  0  0  0  0  0  0  0  0  0  0  0
    0.1220  -36.2580   22.2850 O   0  0  0  0  0  0  0  0  0  0  0  0
    1.4380  -36.2030   22.9020 C   0  0  0  0  0  0  0  0  0  0  0  0
    1.3860  -36.9670   24.2490 C   0  0  0  0  0  0  0  0  0  0  0  0
    2.4750  -36.8220   21.9280 C   0  0  0  0  0  0  0  0  0  0  0  0
   -1.3251  -34.3738   20.0816 H   0  0  0  0  0  0  0  0  0  0  0  0
   -0.5057  -34.7116   23.6553 H   0  0  0  0  0  0  0  0  0  0  0  0
   -5.0748  -32.9388   22.6277 H   0  0  0  0  0  0  0  0  0  0  0  0
   -3.6142  -33.7615   20.7752 H   0  0  0  0  0  0  0  0  0  0  0  0
    0.5184  -33.3532   26.5917 H   0  0  0  0  0  0  0  0  0  0  0  0
    0.6763  -30.6058   27.4248 H   0  0  0  0  0  0  0  0  0  0  0  0
    1.3350  -31.3560   25.9315 H   0  0  0  0  0  0  0  0  0  0  0  0
   -0.3206  -30.6590   25.9315 H   0  0  0  0  0  0  0  0  0  0  0  0
    0.3353  -31.8599   28.9570 H   0  0  0  0  0  0  0  0  0  0  0  0
   -1.2825  -32.6259   28.8070 H   0  0  0  0  0  0  0  0  0  0  0  0
    0.1970  -33.6446   28.8070 H   0  0  0  0  0  0  0  0  0  0  0  0
    1.7394  -35.1649   23.1059 H   0  0  0  0  0  0  0  0  0  0  0  0
    1.4349  -36.2483   25.0803 H   0  0  0  0  0  0  0  0  0  0  0  0
    0.4470  -37.5366   24.3115 H   0  0  0  0  0  0  0  0  0  0  0  0
    2.2392  -37.6585   24.3115 H   0  0  0  0  0  0  0  0  0  0  0  0
    3.2791  -37.3020   22.5051 H   0  0  0  0  0  0  0  0  0  0  0  0
    1.9802  -37.5726   21.2942 H   0  0  0  0  0  0  0  0  0  0  0  0
    2.9009  -36.0302   21.2942 H   0  0  0  0  0  0  0  0  0  0  0  0
  1  2  2  0
  1  3  1  0
  1 17  1  0
  3  4  1  0
  4  5  2  0
  4 10  1  0
  5  6  1  0
  6  7  2  0
  6 11  1  0
  7  8  1  0
  7  9  1  0
  9 10  2  0
 11 12  1  0
 11 13  2  0
 12 14  1  0
 14 15  1  0
 14 16  1  0
 17 18  1  0
 18 19  1  0
 18 20  1  0
  3 21  1  0
  5 22  1  0
  9 23  1  0
 10 24  1  0
 14 25  1  0
 15 26  1  0
 15 27  1  0
 15 28  1  0
 16 29  1  0
 16 30  1  0
 16 31  1  0
 18 32  1  0
 19 33  1  0
 19 34  1  0
 19 35  1  0
 20 36  1  0
 20 37  1  0
 20 38  1  0
A    1
C
A    2
S
A    3
N
A    4
C1
A    5
C2
A    6
C3
A    7
C4
A    8
CL4
A    9
C5
A   10
C6
A   11
CA
A   12
OB
A   13
OA
A   14
CC
A   15
CD
A   16
CE
A   17
OF
A   18
CG
A   19
CH
A   20
CI
M  END
