1DYJ_DDF_A_161
     RDKit          3D

 57 59  0  0  0  0  0  0  0  0999 V2000
   22.7980   57.8870   22.4760 N   0  0  0  0  0  0  0  0  0  0  0  0
   23.5750   58.2560   23.4490 C   0  0  0  0  0  0  0  0  0  0  0  0
   24.7520   58.6100   23.3310 N   0  0  0  0  0  0  0  0  0  0  0  0
   23.0640   58.2490   24.7970 N   0  0  0  0  0  0  0  0  0  0  0  0
   21.8110   57.8610   25.0190 C   0  0  0  0  0  0  0  0  0  0  0  0
   21.3850   57.8390   26.1940 O   0  0  0  0  0  0  0  0  0  0  0  0
   21.0120   57.4890   23.9200 C   0  0  0  0  0  0  0  0  0  0  0  0
   19.5280   57.2030   24.2130 C   0  0  0  0  0  0  0  0  0  0  0  0
   18.7230   57.4370   23.0510 C   0  0  0  0  0  0  0  0  0  0  0  0
   19.3770   56.9320   21.8460 C   0  0  0  0  0  0  0  0  0  0  0  0
   20.7250   57.2910   21.5410 N   0  0  0  0  0  0  0  0  0  0  0  0
   21.5030   57.4980   22.7180 C   0  0  0  0  0  0  0  0  0  0  0  0
   18.4610   58.9380   22.9670 C   0  0  0  0  0  0  0  0  0  0  0  0
   17.6170   59.3310   24.1190 C   0  0  0  0  0  0  0  0  0  0  0  0
   18.1040   63.7020   25.0270 C   0  0  0  0  0  0  0  0  0  0  0  0
   17.5770   62.8170   25.9410 C   0  0  0  0  0  0  0  0  0  0  0  0
   17.4040   61.4210   25.6500 C   0  0  0  0  0  0  0  0  0  0  0  0
   17.7940   60.8620   24.3650 C   0  0  0  0  0  0  0  0  0  0  0  0
   18.3350   61.7770   23.4460 C   0  0  0  0  0  0  0  0  0  0  0  0
   18.4720   63.1740   23.8020 C   0  0  0  0  0  0  0  0  0  0  0  0
   18.2630   65.2040   25.3110 C   0  0  0  0  0  0  0  0  0  0  0  0
   17.6090   65.7550   26.2930 O   0  0  0  0  0  0  0  0  0  0  0  0
   19.0110   65.8890   24.3870 N   0  0  0  0  0  0  0  0  0  0  0  0
   19.5090   67.1560   24.3870 C   0  0  0  0  0  0  0  0  0  0  0  0
   20.5940   67.3210   25.3180 C   0  0  0  0  0  0  0  0  0  0  0  0
   20.0900   68.1550   26.3940 C   0  0  0  0  0  0  0  0  0  0  0  0
   21.0670   68.0210   27.3170 C   0  0  0  0  0  0  0  0  0  0  0  0
   20.4730   67.9220   28.5530 O   0  0  0  0  0  0  0  0  0  0  0  0
   22.3580   67.9540   26.9650 O   0  0  0  0  0  0  0  0  0  0  0  0
   19.9390   67.4030   23.1710 C   0  0  0  0  0  0  0  0  0  0  0  0
   20.4370   66.4740   22.4560 O   0  0  0  0  0  0  0  0  0  0  0  0
   19.7030   68.6090   22.8070 O   0  0  0  0  0  0  0  0  0  0  0  0
   23.1573   57.8860   21.5107 H   0  0  0  0  0  0  0  0  0  0  0  0
   25.3246   58.7822   24.1697 H   0  0  0  0  0  0  0  0  0  0  0  0
   25.1613   58.7331   22.3939 H   0  0  0  0  0  0  0  0  0  0  0  0
   19.4178   56.1531   24.5220 H   0  0  0  0  0  0  0  0  0  0  0  0
   19.1919   57.8768   25.0149 H   0  0  0  0  0  0  0  0  0  0  0  0
   17.7684   56.8961   23.1294 H   0  0  0  0  0  0  0  0  0  0  0  0
   19.3519   55.8343   21.9120 H   0  0  0  0  0  0  0  0  0  0  0  0
   18.8070   57.4145   21.0383 H   0  0  0  0  0  0  0  0  0  0  0  0
   21.0921   57.3889   20.5836 H   0  0  0  0  0  0  0  0  0  0  0  0
   19.4152   59.4841   23.0023 H   0  0  0  0  0  0  0  0  0  0  0  0
   17.9492   59.1799   22.0239 H   0  0  0  0  0  0  0  0  0  0  0  0
   16.5622   59.1104   23.8982 H   0  0  0  0  0  0  0  0  0  0  0  0
   17.9180   58.7686   25.0152 H   0  0  0  0  0  0  0  0  0  0  0  0
   17.2775   63.1929   26.9304 H   0  0  0  0  0  0  0  0  0  0  0  0
   16.9677   60.7613   26.4145 H   0  0  0  0  0  0  0  0  0  0  0  0
   18.6557   61.4308   22.4524 H   0  0  0  0  0  0  0  0  0  0  0  0
   18.8950   63.8582   23.0517 H   0  0  0  0  0  0  0  0  0  0  0  0
   19.2364   65.3469   23.5407 H   0  0  0  0  0  0  0  0  0  0  0  0
   18.7156   67.8523   24.6964 H   0  0  0  0  0  0  0  0  0  0  0  0
   20.9097   66.3433   25.7109 H   0  0  0  0  0  0  0  0  0  0  0  0
   21.4677   67.7814   24.8335 H   0  0  0  0  0  0  0  0  0  0  0  0
   19.9802   69.2016   26.0738 H   0  0  0  0  0  0  0  0  0  0  0  0
   19.0905   67.8690   26.7533 H   0  0  0  0  0  0  0  0  0  0  0  0
   23.0599   67.9176   27.6622 H   0  0  0  0  0  0  0  0  0  0  0  0
   19.5651   69.3137   23.4885 H   0  0  0  0  0  0  0  0  0  0  0  0
  1  2  1  0
  1 12  1  0
  2  3  1  0
  2  4  2  0
  4  5  1  0
  5  6  2  0
  5  7  1  0
  7  8  1  0
  7 12  2  0
  8  9  1  0
  9 10  1  0
  9 13  1  0
 10 11  1  0
 11 12  1  0
 13 14  1  0
 14 18  1  0
 15 16  2  0
 15 20  1  0
 15 21  1  0
 16 17  1  0
 17 18  2  0
 18 19  1  0
 19 20  2  0
 21 22  2  0
 21 23  1  0
 23 24  1  0
 24 25  1  0
 24 30  1  0
 25 26  1  0
 26 27  1  0
 27 28  2  0
 27 29  1  0
 30 31  2  0
 30 32  1  0
  1 33  1  0
  3 34  1  0
  3 35  1  0
  8 36  1  0
  8 37  1  0
  9 38  1  0
 10 39  1  0
 10 40  1  0
 11 41  1  0
 13 42  1  0
 13 43  1  0
 14 44  1  0
 14 45  1  0
 16 46  1  0
 17 47  1  0
 19 48  1  0
 20 49  1  0
 23 50  1  0
 24 51  1  0
 25 52  1  0
 25 53  1  0
 26 54  1  0
 26 55  1  0
 29 56  1  0
 32 57  1  0
A    1
N1
A    2
C2
A    3
NA2
A    4
N3
A    5
C4
A    6
O4
A    7
C4A
A    8
C5
A    9
C6
A   10
C7
A   11
N8
A   12
C8A
A   13
C9
A   14
C10
A   15
C11
A   16
C12
A   17
C13
A   18
C14
A   19
C15
A   20
C16
A   21
C
A   22
O
A   23
N
A   24
CA
A   25
CB
A   26
CG
A   27
CD
A   28
OE1
A   29
OE2
A   30
CT
A   31
O1
A   32
O2
M  END
