1RY8_RUT_A_2325
     RDKit          3D

 73 77  0  0  0  0  0  0  0  0999 V2000
   -3.2020  -23.8260   10.3510 O   0  0  0  0  0  0  0  0  0  0  0  0
   -3.0610  -22.5230    9.8160 C   0  0  0  0  0  0  0  0  0  0  0  0
   -1.8560  -22.0960    9.2610 C   0  0  0  0  0  0  0  0  0  0  0  0
   -1.7320  -20.8220    8.7270 O   0  0  0  0  0  0  0  0  0  0  0  0
   -0.6860  -23.0630    9.2190 C   0  0  0  0  0  0  0  0  0  0  0  0
    0.4240  -22.7210    8.7050 O   0  0  0  0  0  0  0  0  0  0  0  0
    0.1120  -25.5330    9.8150 C   0  0  0  0  0  0  0  0  0  0  0  0
    1.3400  -25.2090    9.2540 O   0  0  0  0  0  0  0  0  0  0  0  0
   -0.1670  -26.7910   10.3530 C   0  0  0  0  0  0  0  0  0  0  0  0
   -1.5160  -27.0090   10.9110 C   0  0  0  0  0  0  0  0  0  0  0  0
   -1.8320  -28.2350   11.4500 O   0  0  0  0  0  0  0  0  0  0  0  0
   -2.6080  -26.0740   10.9670 C   0  0  0  0  0  0  0  0  0  0  0  0
   -2.1800  -24.7900   10.3590 C   0  0  0  0  0  0  0  0  0  0  0  0
   -0.9070  -24.4300    9.7860 C   0  0  0  0  0  0  0  0  0  0  0  0
   -4.4180  -21.8330    9.9570 C   0  0  0  0  0  0  0  0  0  0  0  0
   -5.5190  -22.6370    9.8500 C   0  0  0  0  0  0  0  0  0  0  0  0
   -6.7870  -22.0930    9.9030 C   0  0  0  0  0  0  0  0  0  0  0  0
   -7.8610  -22.8810    9.8010 O   0  0  0  0  0  0  0  0  0  0  0  0
   -6.9750  -20.7240   10.0620 C   0  0  0  0  0  0  0  0  0  0  0  0
   -8.2450  -20.2370   10.0880 O   0  0  0  0  0  0  0  0  0  0  0  0
   -5.9040  -19.8870   10.1780 C   0  0  0  0  0  0  0  0  0  0  0  0
   -4.5440  -20.3330   10.1410 C   0  0  0  0  0  0  0  0  0  0  0  0
   -0.9720  -19.8280    9.5140 C   0  0  0  0  0  0  0  0  0  0  0  0
   -0.0890  -19.0260    8.5200 C   0  0  0  0  0  0  0  0  0  0  0  0
    0.8120  -19.9680    7.8560 O   0  0  0  0  0  0  0  0  0  0  0  0
    0.6940  -17.9150    9.4050 C   0  0  0  0  0  0  0  0  0  0  0  0
    1.5260  -17.1720    8.5380 O   0  0  0  0  0  0  0  0  0  0  0  0
   -0.3200  -17.0700   10.0520 C   0  0  0  0  0  0  0  0  0  0  0  0
    0.2940  -16.0610   10.8350 O   0  0  0  0  0  0  0  0  0  0  0  0
   -1.2850  -17.9170   11.0120 C   0  0  0  0  0  0  0  0  0  0  0  0
   -2.3590  -17.0860   11.7020 C   0  0  0  0  0  0  0  0  0  0  0  0
   -1.9240  -18.9650   10.2010 O   0  0  0  0  0  0  0  0  0  0  0  0
   -4.4720  -17.4070   12.8420 C   0  0  0  0  0  0  0  0  0  0  0  0
   -3.1990  -18.0000   12.5050 O   0  0  0  0  0  0  0  0  0  0  0  0
   -5.3430  -18.4590   13.6250 C   0  0  0  0  0  0  0  0  0  0  0  0
   -6.5950  -17.8190   13.8790 O   0  0  0  0  0  0  0  0  0  0  0  0
   -4.7460  -18.8410   15.0060 C   0  0  0  0  0  0  0  0  0  0  0  0
   -5.5750  -19.8070   15.6770 O   0  0  0  0  0  0  0  0  0  0  0  0
   -4.5650  -17.5400   15.8930 C   0  0  0  0  0  0  0  0  0  0  0  0
   -4.0260  -17.8790   17.1550 O   0  0  0  0  0  0  0  0  0  0  0  0
   -3.6320  -16.5480   15.0370 C   0  0  0  0  0  0  0  0  0  0  0  0
   -3.4540  -15.2020   15.8700 C   0  0  0  0  0  0  0  0  0  0  0  0
   -4.2720  -16.2350   13.7210 O   0  0  0  0  0  0  0  0  0  0  0  0
    2.1128  -25.0051    9.8383 H   0  0  0  0  0  0  0  0  0  0  0  0
    0.5898  -27.5892   10.3607 H   0  0  0  0  0  0  0  0  0  0  0  0
   -1.8619  -28.3508   12.4327 H   0  0  0  0  0  0  0  0  0  0  0  0
   -3.6015  -26.2784   11.3926 H   0  0  0  0  0  0  0  0  0  0  0  0
   -5.3939  -23.7222    9.7211 H   0  0  0  0  0  0  0  0  0  0  0  0
   -8.3117  -23.2117   10.6181 H   0  0  0  0  0  0  0  0  0  0  0  0
   -8.6918  -20.0657   10.9547 H   0  0  0  0  0  0  0  0  0  0  0  0
   -6.0956  -18.8115   10.3069 H   0  0  0  0  0  0  0  0  0  0  0  0
   -3.6806  -19.6581   10.2361 H   0  0  0  0  0  0  0  0  0  0  0  0
   -0.3262  -20.2985   10.2700 H   0  0  0  0  0  0  0  0  0  0  0  0
   -0.6599  -18.5138    7.7315 H   0  0  0  0  0  0  0  0  0  0  0  0
    1.3081  -20.4867    8.5379 H   0  0  0  0  0  0  0  0  0  0  0  0
    1.3264  -18.3655   10.1842 H   0  0  0  0  0  0  0  0  0  0  0  0
    2.1476  -16.6169    9.0724 H   0  0  0  0  0  0  0  0  0  0  0  0
   -0.9143  -16.6239    9.2410 H   0  0  0  0  0  0  0  0  0  0  0  0
    0.1689  -16.2666   11.7953 H   0  0  0  0  0  0  0  0  0  0  0  0
   -0.6637  -18.3349   11.8178 H   0  0  0  0  0  0  0  0  0  0  0  0
   -1.8886  -16.3385   12.3577 H   0  0  0  0  0  0  0  0  0  0  0  0
   -2.9726  -16.5597   10.9561 H   0  0  0  0  0  0  0  0  0  0  0  0
   -4.9734  -17.0974   11.9132 H   0  0  0  0  0  0  0  0  0  0  0  0
   -5.4081  -19.3775   13.0232 H   0  0  0  0  0  0  0  0  0  0  0  0
   -6.7364  -17.7467   14.8562 H   0  0  0  0  0  0  0  0  0  0  0  0
   -3.7599  -19.3019   14.8473 H   0  0  0  0  0  0  0  0  0  0  0  0
   -5.4817  -19.6982   16.6566 H   0  0  0  0  0  0  0  0  0  0  0  0
   -5.5189  -17.0401   16.1171 H   0  0  0  0  0  0  0  0  0  0  0  0
   -4.6056  -17.5145   17.8701 H   0  0  0  0  0  0  0  0  0  0  0  0
   -2.6585  -17.0233   14.8461 H   0  0  0  0  0  0  0  0  0  0  0  0
   -3.4841  -15.4298   16.9457 H   0  0  0  0  0  0  0  0  0  0  0  0
   -2.4871  -14.7411   15.6198 H   0  0  0  0  0  0  0  0  0  0  0  0
   -4.2679  -14.5056   15.6198 H   0  0  0  0  0  0  0  0  0  0  0  0
  1  2  1  0
  1 13  1  0
  2  3  2  0
  2 15  1  0
  3  4  1  0
  3  5  1  0
  4 23  1  0
  5  6  2  0
  5 14  1  0
  7  8  1  0
  7  9  1  0
  7 14  2  0
  9 10  2  0
 10 11  1  0
 10 12  1  0
 12 13  2  0
 13 14  1  0
 15 16  2  0
 15 22  1  0
 16 17  1  0
 17 18  1  0
 17 19  2  0
 19 20  1  0
 19 21  1  0
 21 22  2  0
 23 24  1  0
 23 32  1  0
 24 25  1  0
 24 26  1  0
 26 27  1  0
 26 28  1  0
 28 29  1  0
 28 30  1  0
 30 31  1  0
 30 32  1  0
 31 34  1  0
 33 34  1  0
 33 35  1  0
 33 43  1  0
 35 36  1  0
 35 37  1  0
 37 38  1  0
 37 39  1  0
 39 40  1  0
 39 41  1  0
 41 42  1  0
 41 43  1  0
  8 44  1  0
  9 45  1  0
 11 46  1  0
 12 47  1  0
 16 48  1  0
 18 49  1  0
 20 50  1  0
 21 51  1  0
 22 52  1  0
 23 53  1  0
 24 54  1  0
 25 55  1  0
 26 56  1  0
 27 57  1  0
 28 58  1  0
 29 59  1  0
 30 60  1  0
 31 61  1  0
 31 62  1  0
 33 63  1  0
 35 64  1  0
 36 65  1  0
 37 66  1  0
 38 67  1  0
 39 68  1  0
 40 69  1  0
 41 70  1  0
 42 71  1  0
 42 72  1  0
 42 73  1  0
A    1
O1
A    2
C1
A    3
C2
A    4
O2
A    5
C3
A    6
O3
A    7
C4
A    8
O4
A    9
C5
A   10
C6
A   11
O5
A   12
C7
A   13
C8
A   14
C9
A   15
C10
A   16
C11
A   17
C12
A   18
O6
A   19
C13
A   20
O7
A   21
C14
A   22
C15
A   23
C16
A   24
C17
A   25
O8
A   26
C18
A   27
O9
A   28
C19
A   29
O10
A   30
C20
A   31
C21
A   32
O11
A   33
C22
A   34
O12
A   35
C23
A   36
O13
A   37
C24
A   38
O14
A   39
C25
A   40
O15
A   41
C26
A   42
C27
A   43
O16
M  END
