1AXL_BAP_A_22
     RDKit          3D

 39 43  0  0  0  0  0  0  0  0999 V2000
   -5.0290    1.4230  -16.0200 C   0  0  0  0  0  0  0  0  0  0  0  0
   -4.3440    0.4300  -16.8070 C   0  0  0  0  0  0  0  0  0  0  0  0
   -4.8280   -0.9300  -16.8370 C   0  0  0  0  0  0  0  0  0  0  0  0
   -5.9850   -1.2950  -16.0840 C   0  0  0  0  0  0  0  0  0  0  0  0
   -6.4890   -2.6350  -16.0990 C   0  0  0  0  0  0  0  0  0  0  0  0
   -7.6360   -2.9780  -15.3830 C   0  0  0  0  0  0  0  0  0  0  0  0
   -8.3350   -1.9900  -14.6010 C   0  0  0  0  0  0  0  0  0  0  0  0
   -9.5180   -2.3490  -13.8630 C   0  0  0  0  0  0  0  0  0  0  0  0
  -10.2000   -1.3300  -13.0760 C   0  0  0  0  0  0  0  0  0  0  0  0
   -9.6870    0.0140  -13.0530 C   0  0  0  0  0  0  0  0  0  0  0  0
   -8.5250    0.3670  -13.7840 C   0  0  0  0  0  0  0  0  0  0  0  0
   -8.0340    1.6980  -13.7540 C   0  0  0  0  0  0  0  0  0  0  0  0
   -6.8700    2.0470  -14.4970 C   0  0  0  0  0  0  0  0  0  0  0  0
   -6.1870    1.0670  -15.2680 C   0  0  0  0  0  0  0  0  0  0  0  0
   -6.6700   -0.2910  -15.3040 C   0  0  0  0  0  0  0  0  0  0  0  0
   -7.8430   -0.6420  -14.5610 C   0  0  0  0  0  0  0  0  0  0  0  0
  -11.5570   -1.6260  -12.4560 C   0  0  0  0  0  0  0  0  0  0  0  0
  -11.1610   -1.0720  -11.2010 O   0  0  0  0  0  0  0  0  0  0  0  0
  -11.8050   -3.1310  -12.3340 C   0  0  0  0  0  0  0  0  0  0  0  0
  -13.0160   -3.4860  -11.6560 O   0  0  0  0  0  0  0  0  0  0  0  0
  -11.6800   -3.7230  -13.7450 C   0  0  0  0  0  0  0  0  0  0  0  0
  -12.4100   -2.9660  -14.7150 O   0  0  0  0  0  0  0  0  0  0  0  0
  -10.1910   -3.6870  -14.1620 C   0  0  0  0  0  0  0  0  0  0  0  0
   -4.6580    2.4583  -15.9990 H   0  0  0  0  0  0  0  0  0  0  0  0
   -3.4510    0.7081  -17.3859 H   0  0  0  0  0  0  0  0  0  0  0  0
   -4.3047   -1.6860  -17.4408 H   0  0  0  0  0  0  0  0  0  0  0  0
   -5.9642   -3.4051  -16.6835 H   0  0  0  0  0  0  0  0  0  0  0  0
   -8.0102   -4.0119  -15.4157 H   0  0  0  0  0  0  0  0  0  0  0  0
  -10.2053    0.7805  -12.4581 H   0  0  0  0  0  0  0  0  0  0  0  0
   -8.5531    2.4615  -13.1560 H   0  0  0  0  0  0  0  0  0  0  0  0
   -6.4970    3.0816  -14.4741 H   0  0  0  0  0  0  0  0  0  0  0  0
  -12.4681   -1.2634  -12.9544 H   0  0  0  0  0  0  0  0  0  0  0  0
  -11.5465   -1.6114  -10.4658 H   0  0  0  0  0  0  0  0  0  0  0  0
  -11.0461   -3.5725  -11.6713 H   0  0  0  0  0  0  0  0  0  0  0  0
  -12.8710   -3.4435  -10.6776 H   0  0  0  0  0  0  0  0  0  0  0  0
  -12.0844   -4.7455  -13.7139 H   0  0  0  0  0  0  0  0  0  0  0  0
  -13.0177   -2.3359  -14.2526 H   0  0  0  0  0  0  0  0  0  0  0  0
  -10.1254   -3.8781  -15.2433 H   0  0  0  0  0  0  0  0  0  0  0  0
   -9.6672   -4.4563  -13.5756 H   0  0  0  0  0  0  0  0  0  0  0  0
  1  2  2  0
  1 14  1  0
  2  3  1  0
  3  4  2  0
  4  5  1  0
  4 15  1  0
  5  6  2  0
  6  7  1  0
  7  8  2  0
  7 16  1  0
  8  9  1  0
  8 23  1  0
  9 10  2  0
  9 17  1  0
 10 11  1  0
 11 12  2  0
 11 16  1  0
 12 13  1  0
 13 14  2  0
 14 15  1  0
 15 16  2  0
 17 18  1  0
 17 19  1  0
 19 20  1  0
 19 21  1  0
 21 22  1  0
 21 23  1  0
  1 24  1  0
  2 25  1  0
  3 26  1  0
  5 27  1  0
  6 28  1  0
 10 29  1  0
 12 30  1  0
 13 31  1  0
 17 32  1  0
 18 33  1  0
 19 34  1  0
 20 35  1  0
 21 36  1  0
 22 37  1  0
 23 38  1  0
 23 39  1  0
A    1
C1
A    2
C2
A    3
C3
A    4
C3A
A    5
C4
A    6
C5
A    7
C5A
A    8
C6
A    9
C7
A   10
C8
A   11
C8A
A   12
C9
A   13
C10
A   14
C1A
A   15
C3B
A   16
C5B
A   17
C1'
A   18
O1'
A   19
C2'
A   20
O2'
A   21
C3'
A   22
O3'
A   23
C4'
M  END
