1S17_GNR_A_501
     RDKit          3D

 26 27  0  0  0  0  0  0  0  0999 V2000
   56.2630   52.2270   37.8260 O   0  0  0  0  0  0  0  0  0  0  0  0
   56.1400   51.3030   37.0290 C   0  0  0  0  0  0  0  0  0  0  0  0
   57.1640   50.9900   36.1660 N   0  0  0  0  0  0  0  0  0  0  0  0
   57.1510   50.0330   35.1640 C   0  0  0  0  0  0  0  0  0  0  0  0
   58.3470   49.7510   34.4790 C   0  0  0  0  0  0  0  0  0  0  0  0
   58.3850   48.7380   33.5020 C   0  0  0  0  0  0  0  0  0  0  0  0
   57.2300   47.9950   33.2020 C   0  0  0  0  0  0  0  0  0  0  0  0
   56.0280   48.2600   33.8790 C   0  0  0  0  0  0  0  0  0  0  0  0
   55.9940   49.2710   34.8450 C   0  0  0  0  0  0  0  0  0  0  0  0
   54.4320   49.7140   35.6280 S   0  0  0  0  0  0  0  0  0  0  0  0
   55.0030   50.2990   37.2470 C   0  0  0  0  0  0  0  0  0  0  0  0
   53.8700   50.8890   38.0840 C   0  0  0  0  0  0  0  0  0  0  0  0
   52.9440   49.7290   38.5140 C   0  0  0  0  0  0  0  0  0  0  0  0
   53.2490   48.9950   39.4450 O   0  0  0  0  0  0  0  0  0  0  0  0
   51.8630   49.5530   37.7590 N   0  0  0  0  0  0  0  0  0  0  0  0
   50.9930   48.5650   38.0470 O   0  0  0  0  0  0  0  0  0  0  0  0
   58.0366   51.5259   36.2766 H   0  0  0  0  0  0  0  0  0  0  0  0
   59.2571   50.3249   34.7079 H   0  0  0  0  0  0  0  0  0  0  0  0
   59.3244   48.5266   32.9701 H   0  0  0  0  0  0  0  0  0  0  0  0
   57.2674   47.2057   32.4368 H   0  0  0  0  0  0  0  0  0  0  0  0
   55.1225   47.6782   33.6517 H   0  0  0  0  0  0  0  0  0  0  0  0
   55.3779   49.4427   37.8269 H   0  0  0  0  0  0  0  0  0  0  0  0
   54.2828   51.3873   38.9736 H   0  0  0  0  0  0  0  0  0  0  0  0
   53.3077   51.6316   37.4989 H   0  0  0  0  0  0  0  0  0  0  0  0
   51.6909   50.1721   36.9540 H   0  0  0  0  0  0  0  0  0  0  0  0
   50.9118   48.4728   39.0293 H   0  0  0  0  0  0  0  0  0  0  0  0
  1  2  2  0
  2  3  1  0
  2 11  1  0
  3  4  1  0
  4  5  1  0
  4  9  2  0
  5  6  2  0
  6  7  1  0
  7  8  2  0
  8  9  1  0
  9 10  1  0
 10 11  1  0
 11 12  1  0
 12 13  1  0
 13 14  2  0
 13 15  1  0
 15 16  1  0
  3 17  1  0
  5 18  1  0
  6 19  1  0
  7 20  1  0
  8 21  1  0
 11 22  1  0
 12 23  1  0
 12 24  1  0
 15 25  1  0
 16 26  1  0
A    1
OAM
A    2
CAH
A    3
NAG
A    4
CAD
A    5
CAC
A    6
CAB
A    7
CAA
A    8
CAF
A    9
CAE
A   10
SAJ
A   11
CAI
A   12
CAK
A   13
CAL
A   14
OAN
A   15
NAO
A   16
OAP
M  END
