1AGP_GNP_A_167
     RDKit          3D

 49 51  0  0  0  0  0  0  0  0999 V2000
   11.5560   -5.3110   21.8830 P   0  0  0  0  0  0  0  0  0  0  0  0
   12.6910   -5.5230   20.9780 O   0  0  0  0  0  0  0  0  0  0  0  0
   12.1610   -5.6420   23.3030 O   0  0  0  0  0  0  0  0  0  0  0  0
   11.2410   -3.8790   22.0060 O   0  0  0  0  0  0  0  0  0  0  0  0
   10.2760   -6.3620   21.6560 N   0  0  0  0  0  0  0  0  0  0  0  0
    9.6700   -6.3730   20.0660 P   0  0  0  0  0  0  0  0  0  0  0  0
    8.8120   -5.1820   19.7480 O   0  0  0  0  0  0  0  0  0  0  0  0
   10.6690   -6.6130   18.9850 O   0  0  0  0  0  0  0  0  0  0  0  0
    8.5960   -7.5850   19.9640 O   0  0  0  0  0  0  0  0  0  0  0  0
    8.9860   -9.1270   19.6350 P   0  0  0  0  0  0  0  0  0  0  0  0
    8.9260   -9.3430   18.1820 O   0  0  0  0  0  0  0  0  0  0  0  0
   10.1930   -9.5090   20.3910 O   0  0  0  0  0  0  0  0  0  0  0  0
    7.7100   -9.9250   20.1730 O   0  0  0  0  0  0  0  0  0  0  0  0
    7.4330  -10.0480   21.5440 C   0  0  0  0  0  0  0  0  0  0  0  0
    6.4080  -11.1430   21.8050 C   0  0  0  0  0  0  0  0  0  0  0  0
    5.2680  -10.8260   20.9990 O   0  0  0  0  0  0  0  0  0  0  0  0
    6.8570  -12.5770   21.3940 C   0  0  0  0  0  0  0  0  0  0  0  0
    6.4040  -13.5610   22.3490 O   0  0  0  0  0  0  0  0  0  0  0  0
    6.2590  -12.6820   19.9780 C   0  0  0  0  0  0  0  0  0  0  0  0
    6.0880  -14.0060   19.4610 O   0  0  0  0  0  0  0  0  0  0  0  0
    4.9280  -11.9380   20.1250 C   0  0  0  0  0  0  0  0  0  0  0  0
    4.3250  -11.4710   18.8130 N   0  0  0  0  0  0  0  0  0  0  0  0
    4.8690  -10.6500   17.8580 C   0  0  0  0  0  0  0  0  0  0  0  0
    4.0870  -10.3570   16.8500 N   0  0  0  0  0  0  0  0  0  0  0  0
    2.8920  -11.0550   17.1510 C   0  0  0  0  0  0  0  0  0  0  0  0
    1.6310  -11.1430   16.4480 C   0  0  0  0  0  0  0  0  0  0  0  0
    1.2360  -10.7100   15.3550 O   0  0  0  0  0  0  0  0  0  0  0  0
    0.7450  -11.9060   17.1390 N   0  0  0  0  0  0  0  0  0  0  0  0
    0.9770  -12.5610   18.2790 C   0  0  0  0  0  0  0  0  0  0  0  0
   -0.0230  -13.3340   18.6580 N   0  0  0  0  0  0  0  0  0  0  0  0
    2.1220  -12.4810   18.9480 N   0  0  0  0  0  0  0  0  0  0  0  0
    3.0370  -11.7220   18.3370 C   0  0  0  0  0  0  0  0  0  0  0  0
   11.5509   -5.3082   24.0076 H   0  0  0  0  0  0  0  0  0  0  0  0
   11.1871   -3.6340   22.9637 H   0  0  0  0  0  0  0  0  0  0  0  0
   10.5922   -7.3140   21.8896 H   0  0  0  0  0  0  0  0  0  0  0  0
   11.5479   -6.8241   19.3888 H   0  0  0  0  0  0  0  0  0  0  0  0
   10.0069   -9.4501   21.3616 H   0  0  0  0  0  0  0  0  0  0  0  0
    8.3634  -10.2936   22.0769 H   0  0  0  0  0  0  0  0  0  0  0  0
    7.0201   -9.0933   21.9019 H   0  0  0  0  0  0  0  0  0  0  0  0
    6.2284  -11.1649   22.8900 H   0  0  0  0  0  0  0  0  0  0  0  0
    7.9409  -12.7642   21.3874 H   0  0  0  0  0  0  0  0  0  0  0  0
    6.5586  -13.2252   23.2674 H   0  0  0  0  0  0  0  0  0  0  0  0
    6.9453  -12.2578   19.2303 H   0  0  0  0  0  0  0  0  0  0  0  0
    6.0054  -14.6455   20.2122 H   0  0  0  0  0  0  0  0  0  0  0  0
    4.1406  -12.5928   20.5266 H   0  0  0  0  0  0  0  0  0  0  0  0
    5.8958  -10.2630   17.9344 H   0  0  0  0  0  0  0  0  0  0  0  0
   -0.2024  -11.9876   16.7432 H   0  0  0  0  0  0  0  0  0  0  0  0
   -0.2106  -13.4790   19.6603 H   0  0  0  0  0  0  0  0  0  0  0  0
   -0.6160  -13.7924   17.9515 H   0  0  0  0  0  0  0  0  0  0  0  0
  1  2  2  0
  1  3  1  0
  1  4  1  0
  1  5  1  0
  5  6  1  0
  6  7  2  0
  6  8  1  0
  6  9  1  0
  9 10  1  0
 10 11  2  0
 10 12  1  0
 10 13  1  0
 13 14  1  0
 14 15  1  0
 15 16  1  0
 15 17  1  0
 16 21  1  0
 17 18  1  0
 17 19  1  0
 19 20  1  0
 19 21  1  0
 21 22  1  0
 22 23  1  0
 22 32  1  0
 23 24  2  0
 24 25  1  0
 25 26  1  0
 25 32  2  0
 26 27  2  0
 26 28  1  0
 28 29  1  0
 29 30  1  0
 29 31  2  0
 31 32  1  0
  3 33  1  0
  4 34  1  0
  5 35  1  0
  8 36  1  0
 12 37  1  0
 14 38  1  0
 14 39  1  0
 15 40  1  0
 17 41  1  0
 18 42  1  0
 19 43  1  0
 20 44  1  0
 21 45  1  0
 23 46  1  0
 28 47  1  0
 30 48  1  0
 30 49  1  0
A    1
PG
A    2
O1G
A    3
O2G
A    4
O3G
A    5
N3B
A    6
PB
A    7
O1B
A    8
O2B
A    9
O3A
A   10
PA
A   11
O1A
A   12
O2A
A   13
O5'
A   14
C5'
A   15
C4'
A   16
O4'
A   17
C3'
A   18
O3'
A   19
C2'
A   20
O2'
A   21
C1'
A   22
N9
A   23
C8
A   24
N7
A   25
C5
A   26
C6
A   27
O6
A   28
N1
A   29
C2
A   30
N2
A   31
N3
A   32
C4
M  END
