1S22_ULA_A_500
     RDKit          3D

101104  0  0  0  0  0  0  0  0999 V2000
   -8.3890   -1.5220   13.6770 O   0  0  0  0  0  0  0  0  0  0  0  0
   -7.2000   -1.2820   13.6860 C   0  0  0  0  0  0  0  0  0  0  0  0
   -6.8310   -0.0690   14.2390 C   0  0  0  0  0  0  0  0  0  0  0  0
   -7.6910    0.6420   15.0680 C   0  0  0  0  0  0  0  0  0  0  0  0
   -7.9580    1.9740   14.9640 C   0  0  0  0  0  0  0  0  0  0  0  0
   -8.7460    2.9070   15.7250 C   0  0  0  0  0  0  0  0  0  0  0  0
  -10.0020    3.1010   15.0610 O   0  0  0  0  0  0  0  0  0  0  0  0
   -8.0030    4.1870   15.7740 C   0  0  0  0  0  0  0  0  0  0  0  0
   -8.7310    5.3200   16.4070 C   0  0  0  0  0  0  0  0  0  0  0  0
   -9.3550    5.1370   17.4220 O   0  0  0  0  0  0  0  0  0  0  0  0
   -8.5490    6.4220   15.6790 O   0  0  0  0  0  0  0  0  0  0  0  0
   -6.2760   -2.2890   13.0780 C   0  0  0  0  0  0  0  0  0  0  0  0
   -6.2450   -2.5300   11.5960 C   0  0  0  0  0  0  0  0  0  0  0  0
   -5.6570   -3.8400   11.1700 C   0  0  0  0  0  0  0  0  0  0  0  0
   -5.9070   -1.3190   10.8370 C   0  0  0  0  0  0  0  0  0  0  0  0
   -4.7200   -1.1580   10.1270 C   0  0  0  0  0  0  0  0  0  0  0  0
   -4.6310    0.0560    9.5480 O   0  0  0  0  0  0  0  0  0  0  0  0
   -6.5490   -0.0930   10.6900 N   0  0  0  0  0  0  0  0  0  0  0  0
   -5.8340    0.6990    9.9240 C   0  0  0  0  0  0  0  0  0  0  0  0
   -5.9680    2.0260    9.4560 C   0  0  0  0  0  0  0  0  0  0  0  0
   -5.2850    2.9310    8.6620 C   0  0  0  0  0  0  0  0  0  0  0  0
   -5.8350    4.1840    8.6040 O   0  0  0  0  0  0  0  0  0  0  0  0
   -7.0290    2.8100    9.9260 N   0  0  0  0  0  0  0  0  0  0  0  0
   -6.9700    4.0140    9.4270 C   0  0  0  0  0  0  0  0  0  0  0  0
   -7.7450    5.1800    9.6190 C   0  0  0  0  0  0  0  0  0  0  0  0
   -8.7200    5.2250   10.6210 N   0  0  0  0  0  0  0  0  0  0  0  0
   -7.5450    6.3390    8.9480 C   0  0  0  0  0  0  0  0  0  0  0  0
   -8.4190    7.2310    9.4830 O   0  0  0  0  0  0  0  0  0  0  0  0
   -9.0750    6.4730   10.4320 C   0  0  0  0  0  0  0  0  0  0  0  0
  -10.0950    6.9570   11.3280 C   0  0  0  0  0  0  0  0  0  0  0  0
  -10.6700    6.3240   12.3330 C   0  0  0  0  0  0  0  0  0  0  0  0
  -11.6720    6.9590   13.2250 C   0  0  0  0  0  0  0  0  0  0  0  0
  -11.2850    7.0080   14.7230 C   0  0  0  0  0  0  0  0  0  0  0  0
  -12.3290    7.0740   15.6620 O   0  0  0  0  0  0  0  0  0  0  0  0
  -13.0700    5.8800   15.9030 C   0  0  0  0  0  0  0  0  0  0  0  0
  -10.1580    8.0080   14.9680 C   0  0  0  0  0  0  0  0  0  0  0  0
  -10.7970    9.3660   15.1620 C   0  0  0  0  0  0  0  0  0  0  0  0
   -9.1460    7.6560   16.0810 C   0  0  0  0  0  0  0  0  0  0  0  0
   -8.2160    8.7680   16.4810 C   0  0  0  0  0  0  0  0  0  0  0  0
   -7.1090    8.2400   17.4120 C   0  0  0  0  0  0  0  0  0  0  0  0
   -7.8010    7.9270   18.6380 O   0  0  0  0  0  0  0  0  0  0  0  0
   -7.1990    6.9680   19.5110 C   0  0  0  0  0  0  0  0  0  0  0  0
   -5.9280    9.2020   17.4940 C   0  0  0  0  0  0  0  0  0  0  0  0
   -5.0560    9.1350   16.2590 C   0  0  0  0  0  0  0  0  0  0  0  0
   -6.2170   10.5970   17.9680 C   0  0  0  0  0  0  0  0  0  0  0  0
   -5.2010   11.5680   18.5430 C   0  0  0  0  0  0  0  0  0  0  0  0
   -5.3700   13.0530   18.3320 C   0  0  0  0  0  0  0  0  0  0  0  0
   -6.1580   13.5140   17.4690 O   0  0  0  0  0  0  0  0  0  0  0  0
   -4.3650   13.7680   19.2380 C   0  0  0  0  0  0  0  0  0  0  0  0
   -4.5690   13.4530   20.7180 C   0  0  0  0  0  0  0  0  0  0  0  0
   -5.9206   -0.2596   14.8262 H   0  0  0  0  0  0  0  0  0  0  0  0
   -6.7611    0.5826   13.3555 H   0  0  0  0  0  0  0  0  0  0  0  0
   -8.6658    0.1404   14.9775 H   0  0  0  0  0  0  0  0  0  0  0  0
   -7.1156    0.6294   16.0054 H   0  0  0  0  0  0  0  0  0  0  0  0
   -6.9560    2.4274   14.9812 H   0  0  0  0  0  0  0  0  0  0  0  0
   -8.6906    1.8653   14.1507 H   0  0  0  0  0  0  0  0  0  0  0  0
   -8.9302    2.5339   16.7433 H   0  0  0  0  0  0  0  0  0  0  0  0
  -10.7182    3.2116   15.7355 H   0  0  0  0  0  0  0  0  0  0  0  0
   -7.0751    4.0200   16.3407 H   0  0  0  0  0  0  0  0  0  0  0  0
   -7.8330    4.4808   14.7277 H   0  0  0  0  0  0  0  0  0  0  0  0
   -5.2574   -1.9890   13.3652 H   0  0  0  0  0  0  0  0  0  0  0  0
   -6.6738   -3.2390   13.4642 H   0  0  0  0  0  0  0  0  0  0  0  0
   -7.2804   -2.7199   11.2768 H   0  0  0  0  0  0  0  0  0  0  0  0
   -5.3923   -4.4298   12.0600 H   0  0  0  0  0  0  0  0  0  0  0  0
   -6.3928   -4.3939   10.5686 H   0  0  0  0  0  0  0  0  0  0  0  0
   -4.7541   -3.6584   10.5686 H   0  0  0  0  0  0  0  0  0  0  0  0
   -3.9435   -1.9331   10.0477 H   0  0  0  0  0  0  0  0  0  0  0  0
   -4.3675    2.6634    8.1174 H   0  0  0  0  0  0  0  0  0  0  0  0
   -6.8240    6.5207    8.1374 H   0  0  0  0  0  0  0  0  0  0  0  0
  -10.4384    7.9870   11.1512 H   0  0  0  0  0  0  0  0  0  0  0  0
  -10.3935    5.2756   12.5185 H   0  0  0  0  0  0  0  0  0  0  0  0
  -11.8283    7.9918   12.8801 H   0  0  0  0  0  0  0  0  0  0  0  0
  -12.5747    6.3334   13.1636 H   0  0  0  0  0  0  0  0  0  0  0  0
  -10.9019    5.9984   14.9327 H   0  0  0  0  0  0  0  0  0  0  0  0
  -13.1681    5.7219   16.9871 H   0  0  0  0  0  0  0  0  0  0  0  0
  -14.0699    5.9721   15.4539 H   0  0  0  0  0  0  0  0  0  0  0  0
  -12.5437    5.0249   15.4539 H   0  0  0  0  0  0  0  0  0  0  0  0
   -9.5069    7.9894   14.0816 H   0  0  0  0  0  0  0  0  0  0  0  0
  -10.8952    9.5747   16.2375 H   0  0  0  0  0  0  0  0  0  0  0  0
  -10.1675   10.1376   14.6947 H   0  0  0  0  0  0  0  0  0  0  0  0
  -11.7928    9.3728   14.6947 H   0  0  0  0  0  0  0  0  0  0  0  0
   -9.6482    7.5197   17.0501 H   0  0  0  0  0  0  0  0  0  0  0  0
   -7.7556    9.1965   15.5786 H   0  0  0  0  0  0  0  0  0  0  0  0
   -8.7923    9.5372   17.0159 H   0  0  0  0  0  0  0  0  0  0  0  0
   -6.6001    7.3332   17.0533 H   0  0  0  0  0  0  0  0  0  0  0  0
   -7.3813    7.2584   20.5562 H   0  0  0  0  0  0  0  0  0  0  0  0
   -7.6370    5.9764   19.3242 H   0  0  0  0  0  0  0  0  0  0  0  0
   -6.1156    6.9314   19.3242 H   0  0  0  0  0  0  0  0  0  0  0  0
   -5.3347    8.8158   18.3359 H   0  0  0  0  0  0  0  0  0  0  0  0
   -4.0008    9.0539   16.5591 H   0  0  0  0  0  0  0  0  0  0  0  0
   -5.3355    8.2557   15.6601 H   0  0  0  0  0  0  0  0  0  0  0  0
   -5.1978   10.0467   15.6601 H   0  0  0  0  0  0  0  0  0  0  0  0
   -6.6515   11.1135   17.0994 H   0  0  0  0  0  0  0  0  0  0  0  0
   -6.7989   10.3727   18.8742 H   0  0  0  0  0  0  0  0  0  0  0  0
   -5.1838   11.4021   19.6303 H   0  0  0  0  0  0  0  0  0  0  0  0
   -4.2846   11.3363   17.9803 H   0  0  0  0  0  0  0  0  0  0  0  0
   -3.3499   13.4572   18.9498 H   0  0  0  0  0  0  0  0  0  0  0  0
   -4.5149   14.8499   19.1075 H   0  0  0  0  0  0  0  0  0  0  0  0
   -4.0715   14.2211   21.3283 H   0  0  0  0  0  0  0  0  0  0  0  0
   -5.6451   13.4437   20.9460 H   0  0  0  0  0  0  0  0  0  0  0  0
   -4.1374   12.4672   20.9460 H   0  0  0  0  0  0  0  0  0  0  0  0
  1  2  2  0
  2  3  1  0
  2 12  1  0
  3  4  1  0
  4  5  1  0
  5  6  1  0
  6  7  1  0
  6  8  1  0
  8  9  1  0
  9 10  2  0
  9 11  1  0
 11 38  1  0
 12 13  1  0
 13 14  1  0
 13 15  1  0
 15 16  2  0
 15 18  1  0
 16 17  1  0
 17 19  1  0
 18 19  2  0
 19 20  1  0
 20 21  2  0
 20 23  1  0
 21 22  1  0
 22 24  1  0
 23 24  2  0
 24 25  1  0
 25 26  1  0
 25 27  2  0
 26 29  2  0
 27 28  1  0
 28 29  1  0
 29 30  1  0
 30 31  2  0
 31 32  1  0
 32 33  1  0
 33 34  1  0
 33 36  1  0
 34 35  1  0
 36 37  1  0
 36 38  1  0
 38 39  1  0
 39 40  1  0
 40 41  1  0
 40 43  1  0
 41 42  1  0
 43 44  1  0
 43 45  1  0
 45 46  1  0
 46 47  1  0
 47 48  2  0
 47 49  1  0
 49 50  1  0
  3 51  1  0
  3 52  1  0
  4 53  1  0
  4 54  1  0
  5 55  1  0
  5 56  1  0
  6 57  1  0
  7 58  1  0
  8 59  1  0
  8 60  1  0
 12 61  1  0
 12 62  1  0
 13 63  1  0
 14 64  1  0
 14 65  1  0
 14 66  1  0
 16 67  1  0
 21 68  1  0
 27 69  1  0
 30 70  1  0
 31 71  1  0
 32 72  1  0
 32 73  1  0
 33 74  1  0
 35 75  1  0
 35 76  1  0
 35 77  1  0
 36 78  1  0
 37 79  1  0
 37 80  1  0
 37 81  1  0
 38 82  1  0
 39 83  1  0
 39 84  1  0
 40 85  1  0
 42 86  1  0
 42 87  1  0
 42 88  1  0
 43 89  1  0
 44 90  1  0
 44 91  1  0
 44 92  1  0
 45 93  1  0
 45 94  1  0
 46 95  1  0
 46 96  1  0
 49 97  1  0
 49 98  1  0
 50 99  1  0
 50100  1  0
 50101  1  0
A    1
O4
A    2
C7
A    3
C6
A    4
C5
A    5
C4
A    6
C3
A    7
O3
A    8
C2
A    9
C1
A   10
O1
A   11
O2
A   12
C8
A   13
C9
A   14
C36
A   15
C10
A   16
C11
A   17
O5
A   18
N1
A   19
C12
A   20
C13
A   21
C14
A   22
O6
A   23
N2
A   24
C15
A   25
C16
A   26
N3
A   27
C17
A   28
O7
A   29
C18
A   30
C19
A   31
C20
A   32
C21
A   33
C22
A   34
O8
A   35
C46
A   36
C23
A   37
C37
A   38
C24
A   39
C25
A   40
C26
A   41
O9
A   42
C45
A   43
C27
A   44
C38
A   45
C28
A   46
C29
A   47
C30
A   48
O10
A   49
C31
A   50
C39
M  END
