1S39_AQO_A_900
     RDKit          3D

 19 20  0  0  0  0  0  0  0  0999 V2000
   18.1570   17.1460   19.1100 C   0  0  0  0  0  0  0  0  0  0  0  0
   16.8480   16.7120   18.7390 C   0  0  0  0  0  0  0  0  0  0  0  0
   15.8400   16.5470   19.7200 C   0  0  0  0  0  0  0  0  0  0  0  0
   16.1130   16.8130   21.1020 C   0  0  0  0  0  0  0  0  0  0  0  0
   15.0980   16.6460   22.0520 N   0  0  0  0  0  0  0  0  0  0  0  0
   15.3240   16.8840   23.3250 C   0  0  0  0  0  0  0  0  0  0  0  0
   14.3360   16.7300   24.3030 N   0  0  0  0  0  0  0  0  0  0  0  0
   16.6160   17.3270   23.8100 N   0  0  0  0  0  0  0  0  0  0  0  0
   17.7220   17.5250   22.8910 C   0  0  0  0  0  0  0  0  0  0  0  0
   18.8180   17.9050   23.3400 O   0  0  0  0  0  0  0  0  0  0  0  0
   17.4410   17.2520   21.4730 C   0  0  0  0  0  0  0  0  0  0  0  0
   18.4480   17.4130   20.4680 C   0  0  0  0  0  0  0  0  0  0  0  0
   18.9354   17.2720   18.3430 H   0  0  0  0  0  0  0  0  0  0  0  0
   16.6209   16.5042   17.6829 H   0  0  0  0  0  0  0  0  0  0  0  0
   14.8369   16.2112   19.4183 H   0  0  0  0  0  0  0  0  0  0  0  0
   14.5885   16.7694   25.3008 H   0  0  0  0  0  0  0  0  0  0  0  0
   13.3559   16.5772   24.0254 H   0  0  0  0  0  0  0  0  0  0  0  0
   16.7506   17.5029   24.8159 H   0  0  0  0  0  0  0  0  0  0  0  0
   19.4561   17.7471   20.7544 H   0  0  0  0  0  0  0  0  0  0  0  0
  1  2  2  0
  1 12  1  0
  2  3  1  0
  3  4  2  0
  4  5  1  0
  4 11  1  0
  5  6  2  0
  6  7  1  0
  6  8  1  0
  8  9  1  0
  9 10  2  0
  9 11  1  0
 11 12  2  0
  1 13  1  0
  2 14  1  0
  3 15  1  0
  7 16  1  0
  7 17  1  0
  8 18  1  0
 12 19  1  0
A    1
C1
A    2
C2
A    3
C3
A    4
C4
A    5
N5
A    6
C6
A    7
N7
A    8
N8
A    9
C9
A   10
O10
A   11
C11
A   12
C12
M  END
