1K4C_DGA_C_1001
     RDKit          3D

 81 80  0  0  0  0  0  0  0  0999 V2000
  165.0960  138.7370  -29.0050 C   0  0  0  0  0  0  0  0  0  0  0  0
  165.4220  139.6860  -30.1140 C   0  0  0  0  0  0  0  0  0  0  0  0
  164.5340  139.4470  -31.3050 C   0  0  0  0  0  0  0  0  0  0  0  0
  165.1100  140.0930  -32.5430 C   0  0  0  0  0  0  0  0  0  0  0  0
  164.2730  139.7570  -33.7560 C   0  0  0  0  0  0  0  0  0  0  0  0
  164.8730  140.3460  -35.0080 C   0  0  0  0  0  0  0  0  0  0  0  0
  164.0560  139.9770  -36.2260 C   0  0  0  0  0  0  0  0  0  0  0  0
  164.7000  140.5210  -37.4830 C   0  0  0  0  0  0  0  0  0  0  0  0
  163.9290  140.1040  -38.7210 C   0  0  0  0  0  0  0  0  0  0  0  0
  164.1210  138.9570  -28.2530 O   0  0  0  0  0  0  0  0  0  0  0  0
  168.7570  135.4740  -28.8470 C   0  0  0  0  0  0  0  0  0  0  0  0
  168.2290  135.3670  -30.2840 C   0  0  0  0  0  0  0  0  0  0  0  0
  169.2110  135.9120  -31.3050 C   0  0  0  0  0  0  0  0  0  0  0  0
  168.5430  136.9390  -32.2290 C   0  0  0  0  0  0  0  0  0  0  0  0
  169.2520  137.6970  -33.2050 C   0  0  0  0  0  0  0  0  0  0  0  0
  170.7750  137.5890  -33.4360 C   0  0  0  0  0  0  0  0  0  0  0  0
  171.5740  138.6370  -32.6390 C   0  0  0  0  0  0  0  0  0  0  0  0
  171.5200  140.0330  -33.2590 C   0  0  0  0  0  0  0  0  0  0  0  0
  172.5770  140.2170  -34.3380 C   0  0  0  0  0  0  0  0  0  0  0  0
  172.6080  141.6600  -34.8420 C   0  0  0  0  0  0  0  0  0  0  0  0
  173.9130  141.9890  -35.5630 C   0  0  0  0  0  0  0  0  0  0  0  0
  175.0860  142.0780  -34.5920 C   0  0  0  0  0  0  0  0  0  0  0  0
  176.4110  142.1780  -35.3210 C   0  0  0  0  0  0  0  0  0  0  0  0
  177.5690  142.1330  -34.3400 C   0  0  0  0  0  0  0  0  0  0  0  0
  169.7370  134.7990  -28.4800 O   0  0  0  0  0  0  0  0  0  0  0  0
  165.8840  137.5360  -28.8900 O   0  0  0  0  0  0  0  0  0  0  0  0
  165.7570  136.9340  -27.6400 C   0  0  0  0  0  0  0  0  0  0  0  0
  166.8300  135.8890  -27.4240 C   0  0  0  0  0  0  0  0  0  0  0  0
  168.1190  136.3730  -27.9230 O   0  0  0  0  0  0  0  0  0  0  0  0
  166.9220  135.5460  -25.9270 C   0  0  0  0  0  0  0  0  0  0  0  0
  165.6180  135.2420  -25.3480 O   0  0  0  0  0  0  0  0  0  0  0  0
  165.2785  140.7173  -29.7592 H   0  0  0  0  0  0  0  0  0  0  0  0
  166.4671  139.5255  -30.4175 H   0  0  0  0  0  0  0  0  0  0  0  0
  164.4409  138.3640  -31.4736 H   0  0  0  0  0  0  0  0  0  0  0  0
  163.5475  139.8898  -31.1032 H   0  0  0  0  0  0  0  0  0  0  0  0
  165.1274  141.1844  -32.4067 H   0  0  0  0  0  0  0  0  0  0  0  0
  166.1304  139.7131  -32.6996 H   0  0  0  0  0  0  0  0  0  0  0  0
  164.2184  138.6636  -33.8635 H   0  0  0  0  0  0  0  0  0  0  0  0
  163.2680  140.1817  -33.6163 H   0  0  0  0  0  0  0  0  0  0  0  0
  164.9014  141.4415  -34.9123 H   0  0  0  0  0  0  0  0  0  0  0  0
  165.8891  139.9435  -35.1325 H   0  0  0  0  0  0  0  0  0  0  0  0
  163.9896  138.8814  -36.2987 H   0  0  0  0  0  0  0  0  0  0  0  0
  163.0511  140.4127  -36.1248 H   0  0  0  0  0  0  0  0  0  0  0  0
  164.7225  141.6194  -37.4278 H   0  0  0  0  0  0  0  0  0  0  0  0
  165.7196  140.1144  -37.5551 H   0  0  0  0  0  0  0  0  0  0  0  0
  162.9981  139.6005  -38.4210 H   0  0  0  0  0  0  0  0  0  0  0  0
  163.6876  140.9945  -39.3199 H   0  0  0  0  0  0  0  0  0  0  0  0
  164.5422  139.4145  -39.3199 H   0  0  0  0  0  0  0  0  0  0  0  0
  168.0351  134.3083  -30.5109 H   0  0  0  0  0  0  0  0  0  0  0  0
  167.3104  135.9687  -30.3487 H   0  0  0  0  0  0  0  0  0  0  0  0
  170.0459  136.3953  -30.7765 H   0  0  0  0  0  0  0  0  0  0  0  0
  169.5721  135.0748  -31.9204 H   0  0  0  0  0  0  0  0  0  0  0  0
  167.7683  136.3871  -32.7816 H   0  0  0  0  0  0  0  0  0  0  0  0
  168.2623  137.7233  -31.5106 H   0  0  0  0  0  0  0  0  0  0  0  0
  168.7849  137.4531  -34.1706 H   0  0  0  0  0  0  0  0  0  0  0  0
  169.1733  138.7102  -32.7840 H   0  0  0  0  0  0  0  0  0  0  0  0
  171.1069  136.5860  -33.1296 H   0  0  0  0  0  0  0  0  0  0  0  0
  170.9622  137.7713  -34.5045 H   0  0  0  0  0  0  0  0  0  0  0  0
  171.1621  138.6905  -31.6204 H   0  0  0  0  0  0  0  0  0  0  0  0
  172.6267  138.3179  -32.6422 H   0  0  0  0  0  0  0  0  0  0  0  0
  170.5262  140.1855  -33.7053 H   0  0  0  0  0  0  0  0  0  0  0  0
  171.7147  140.7668  -32.4630 H   0  0  0  0  0  0  0  0  0  0  0  0
  173.5626  139.9611  -33.9220 H   0  0  0  0  0  0  0  0  0  0  0  0
  172.3297  139.5582  -35.1835 H   0  0  0  0  0  0  0  0  0  0  0  0
  171.7702  141.8103  -35.5388 H   0  0  0  0  0  0  0  0  0  0  0  0
  172.5261  142.3251  -33.9697 H   0  0  0  0  0  0  0  0  0  0  0  0
  174.1207  141.2010  -36.3019 H   0  0  0  0  0  0  0  0  0  0  0  0
  173.7976  142.9673  -36.0525 H   0  0  0  0  0  0  0  0  0  0  0  0
  174.9587  142.9693  -33.9600 H   0  0  0  0  0  0  0  0  0  0  0  0
  175.0977  141.1616  -33.9836 H   0  0  0  0  0  0  0  0  0  0  0  0
  176.5006  141.3367  -36.0240 H   0  0  0  0  0  0  0  0  0  0  0  0
  176.4445  143.1344  -35.8634 H   0  0  0  0  0  0  0  0  0  0  0  0
  177.1791  142.1482  -33.3115 H   0  0  0  0  0  0  0  0  0  0  0  0
  178.1486  141.2117  -34.4989 H   0  0  0  0  0  0  0  0  0  0  0  0
  178.2183  143.0066  -34.4989 H   0  0  0  0  0  0  0  0  0  0  0  0
  165.8447  137.7047  -26.8601 H   0  0  0  0  0  0  0  0  0  0  0  0
  164.7752  136.4406  -27.5893 H   0  0  0  0  0  0  0  0  0  0  0  0
  166.5666  134.9786  -27.9824 H   0  0  0  0  0  0  0  0  0  0  0  0
  167.5765  134.6705  -25.8042 H   0  0  0  0  0  0  0  0  0  0  0  0
  167.3258  136.4256  -25.4042 H   0  0  0  0  0  0  0  0  0  0  0  0
  165.6838  135.2573  -24.3603 H   0  0  0  0  0  0  0  0  0  0  0  0
  1  2  1  0
  1 10  2  0
  1 26  1  0
  2  3  1  0
  3  4  1  0
  4  5  1  0
  5  6  1  0
  6  7  1  0
  7  8  1  0
  8  9  1  0
 11 12  1  0
 11 25  2  0
 11 29  1  0
 12 13  1  0
 13 14  1  0
 14 15  1  0
 15 16  1  0
 16 17  1  0
 17 18  1  0
 18 19  1  0
 19 20  1  0
 20 21  1  0
 21 22  1  0
 22 23  1  0
 23 24  1  0
 26 27  1  0
 27 28  1  0
 28 29  1  0
 28 30  1  0
 30 31  1  0
  2 32  1  0
  2 33  1  0
  3 34  1  0
  3 35  1  0
  4 36  1  0
  4 37  1  0
  5 38  1  0
  5 39  1  0
  6 40  1  0
  6 41  1  0
  7 42  1  0
  7 43  1  0
  8 44  1  0
  8 45  1  0
  9 46  1  0
  9 47  1  0
  9 48  1  0
 12 49  1  0
 12 50  1  0
 13 51  1  0
 13 52  1  0
 14 53  1  0
 14 54  1  0
 15 55  1  0
 15 56  1  0
 16 57  1  0
 16 58  1  0
 17 59  1  0
 17 60  1  0
 18 61  1  0
 18 62  1  0
 19 63  1  0
 19 64  1  0
 20 65  1  0
 20 66  1  0
 21 67  1  0
 21 68  1  0
 22 69  1  0
 22 70  1  0
 23 71  1  0
 23 72  1  0
 24 73  1  0
 24 74  1  0
 24 75  1  0
 27 76  1  0
 27 77  1  0
 28 78  1  0
 30 79  1  0
 30 80  1  0
 31 81  1  0
A    1
CA1
A    2
CA2
A    3
CA3
A    4
CA4
A    5
CA5
A    6
CA6
A    7
CA7
A    8
CA8
A    9
CA9
A   10
OA1
A   11
CB1
A   12
CB2
A   13
CB3
A   14
CB4
A   15
CB5
A   16
CB6
A   17
CB7
A   18
CB8
A   19
CB9
A   20
CAB
A   21
CBB
A   22
CCB
A   23
CDB
A   24
CEB
A   25
OB1
A   26
OG1
A   27
CG1
A   28
CG2
A   29
OG2
A   30
CG3
A   31
OXT
M  END
