1S5Z_SON_A_1160
     RDKit          3D

 42 44  0  0  0  0  0  0  0  0999 V2000
    3.7600  -20.3990    4.8340 P   0  0  0  0  0  0  0  0  0  0  0  0
    4.9760  -21.2280    5.0220 O   0  0  0  0  0  0  0  0  0  0  0  0
    3.1160  -20.1060    6.1380 O   0  0  0  0  0  0  0  0  0  0  0  0
    4.2670  -18.9960    4.2730 O   0  0  0  0  0  0  0  0  0  0  0  0
    2.6530  -21.1830    3.7600 C   0  0  0  0  0  0  0  0  0  0  0  0
    1.5280  -22.0620    4.2610 C   0  0  0  0  0  0  0  0  0  0  0  0
    1.6760  -23.2840    4.2640 O   0  0  0  0  0  0  0  0  0  0  0  0
    0.5790  -21.3950    5.1000 O   0  0  0  0  0  0  0  0  0  0  0  0
    0.0090  -20.2850    4.4040 C   0  0  0  0  0  0  0  0  0  0  0  0
   -0.5100  -19.2630    5.3890 C   0  0  0  0  0  0  0  0  0  0  0  0
   -1.6570  -19.7930    6.1020 O   0  0  0  0  0  0  0  0  0  0  0  0
   -1.6940  -19.2550    7.4150 C   0  0  0  0  0  0  0  0  0  0  0  0
   -1.7240  -20.3640    8.3690 N   0  0  0  0  0  0  0  0  0  0  0  0
   -2.5590  -20.4800    9.4530 C   0  0  0  0  0  0  0  0  0  0  0  0
   -3.5100  -19.6160    9.8450 N   0  0  0  0  0  0  0  0  0  0  0  0
   -4.1230  -20.0620   10.9420 C   0  0  0  0  0  0  0  0  0  0  0  0
   -3.9070  -21.1900   11.6370 N   0  0  0  0  0  0  0  0  0  0  0  0
   -2.9420  -22.0350   11.2120 C   0  0  0  0  0  0  0  0  0  0  0  0
   -2.7230  -23.1570   11.9020 N   0  0  0  0  0  0  0  0  0  0  0  0
   -2.2210  -21.6770   10.0620 C   0  0  0  0  0  0  0  0  0  0  0  0
   -1.1930  -22.3040    9.3740 N   0  0  0  0  0  0  0  0  0  0  0  0
   -0.9360  -21.4880    8.3810 C   0  0  0  0  0  0  0  0  0  0  0  0
   -0.4660  -18.3560    7.5820 C   0  0  0  0  0  0  0  0  0  0  0  0
   -0.8360  -17.0050    7.3980 O   0  0  0  0  0  0  0  0  0  0  0  0
    0.4630  -18.8960    6.4970 C   0  0  0  0  0  0  0  0  0  0  0  0
    1.4010  -17.9240    6.0450 O   0  0  0  0  0  0  0  0  0  0  0  0
    3.7195  -20.3806    6.8732 H   0  0  0  0  0  0  0  0  0  0  0  0
    4.4836  -18.3965    5.0305 H   0  0  0  0  0  0  0  0  0  0  0  0
    2.1790  -20.3839    3.1711 H   0  0  0  0  0  0  0  0  0  0  0  0
    3.3034  -21.9112    3.2533 H   0  0  0  0  0  0  0  0  0  0  0  0
    0.7779  -19.8203    3.7693 H   0  0  0  0  0  0  0  0  0  0  0  0
   -0.8258  -20.6410    3.7824 H   0  0  0  0  0  0  0  0  0  0  0  0
   -0.7224  -18.3834    4.7636 H   0  0  0  0  0  0  0  0  0  0  0  0
   -2.5908  -18.6445    7.5970 H   0  0  0  0  0  0  0  0  0  0  0  0
   -4.9198  -19.4126   11.3335 H   0  0  0  0  0  0  0  0  0  0  0  0
   -2.7268  -23.1373   12.9318 H   0  0  0  0  0  0  0  0  0  0  0  0
   -2.5502  -24.0422   11.4044 H   0  0  0  0  0  0  0  0  0  0  0  0
   -0.1602  -21.6857    7.6266 H   0  0  0  0  0  0  0  0  0  0  0  0
    0.0097  -18.3721    8.5737 H   0  0  0  0  0  0  0  0  0  0  0  0
   -0.9545  -16.5722    8.2805 H   0  0  0  0  0  0  0  0  0  0  0  0
    1.0841  -19.7322    6.8506 H   0  0  0  0  0  0  0  0  0  0  0  0
    1.8240  -17.4857    6.8254 H   0  0  0  0  0  0  0  0  0  0  0  0
  1  2  2  0
  1  3  1  0
  1  4  1  0
  1  5  1  0
  5  6  1  0
  6  7  2  0
  6  8  1  0
  8  9  1  0
  9 10  1  0
 10 11  1  0
 10 25  1  0
 11 12  1  0
 12 13  1  0
 12 23  1  0
 13 14  1  0
 13 22  1  0
 14 15  2  0
 14 20  1  0
 15 16  1  0
 16 17  2  0
 17 18  1  0
 18 19  1  0
 18 20  2  0
 20 21  1  0
 21 22  2  0
 23 24  1  0
 23 25  1  0
 25 26  1  0
  3 27  1  0
  4 28  1  0
  5 29  1  0
  5 30  1  0
  9 31  1  0
  9 32  1  0
 10 33  1  0
 12 34  1  0
 16 35  1  0
 19 36  1  0
 19 37  1  0
 22 38  1  0
 23 39  1  0
 24 40  1  0
 25 41  1  0
 26 42  1  0
A    1
PB
A    2
O1B
A    3
O2B
A    4
O3B
A    5
CB
A    6
CA
A    7
OA
A    8
O5'
A    9
C5'
A   10
C4'
A   11
O4'
A   12
C1'
A   13
N9
A   14
C4
A   15
N3
A   16
C2
A   17
N1
A   18
C6
A   19
N6
A   20
C5
A   21
N7
A   22
C8
A   23
C2'
A   24
O2'
A   25
C3'
A   26
O3'
M  END
