1S6H_4BZ_A_1
     RDKit          3D

 21 21  0  0  0  0  0  0  0  0999 V2000
   35.3900   24.0600   11.4920 O   0  0  0  0  0  0  0  0  0  0  0  0
   35.1910   25.3470   11.0290 C   0  0  0  0  0  0  0  0  0  0  0  0
   34.2840   26.1760   11.9070 C   0  0  0  0  0  0  0  0  0  0  0  0
   33.9980   25.8980   13.2610 C   0  0  0  0  0  0  0  0  0  0  0  0
   33.6350   27.2430   11.2900 C   0  0  0  0  0  0  0  0  0  0  0  0
   33.0000   26.6110   13.9470 C   0  0  0  0  0  0  0  0  0  0  0  0
   32.6590   27.9740   11.9890 C   0  0  0  0  0  0  0  0  0  0  0  0
   32.3010   27.6490   13.2980 C   0  0  0  0  0  0  0  0  0  0  0  0
   31.3440   28.3990   13.9810 C   0  0  0  0  0  0  0  0  0  0  0  0
   30.7230   27.9090   15.0390 N   0  0  0  0  0  0  0  0  0  0  0  0
   31.0640   29.6380   13.5860 N   0  0  0  0  0  0  0  0  0  0  0  0
   35.3897   24.0617   12.4820 H   0  0  0  0  0  0  0  0  0  0  0  0
   36.1680   25.8487   10.9677 H   0  0  0  0  0  0  0  0  0  0  0  0
   34.6993   25.2629   10.0486 H   0  0  0  0  0  0  0  0  0  0  0  0
   34.5632   25.1136   13.7857 H   0  0  0  0  0  0  0  0  0  0  0  0
   33.8867   27.5139   10.2540 H   0  0  0  0  0  0  0  0  0  0  0  0
   32.7640   26.3589   14.9914 H   0  0  0  0  0  0  0  0  0  0  0  0
   32.1656   28.8225   11.4924 H   0  0  0  0  0  0  0  0  0  0  0  0
   31.0417   28.1605   15.9856 H   0  0  0  0  0  0  0  0  0  0  0  0
   29.9201   27.2754   14.9173 H   0  0  0  0  0  0  0  0  0  0  0  0
   30.3572   30.1920   14.0904 H   0  0  0  0  0  0  0  0  0  0  0  0
  1  2  1  0
  2  3  1  0
  3  4  2  0
  3  5  1  0
  4  6  1  0
  5  7  2  0
  6  8  2  0
  7  8  1  0
  8  9  1  0
  9 10  1  0
  9 11  2  3
  1 12  1  0
  2 13  1  0
  2 14  1  0
  4 15  1  0
  5 16  1  0
  6 17  1  0
  7 18  1  0
 10 19  1  0
 10 20  1  0
 11 21  1  0
A    1
OA
A    2
CB
A    3
CG
A    4
CD1
A    5
CD2
A    6
CE1
A    7
CE2
A    8
CZ
A    9
CH
A   10
NQ1
A   11
NQ2
M  END
