1S83_4HA_A_5
     RDKit          3D

 18 17  0  0  0  0  0  0  0  0999 V2000
   35.7380   27.1020   10.8570 O   0  0  0  0  0  0  0  0  0  0  0  0
   34.9480   26.4360   11.7970 C   0  0  0  0  0  0  0  0  0  0  0  0
   33.4820   26.6460   11.4350 C   0  0  0  0  0  0  0  0  0  0  0  0
   32.8570   27.9510   11.9230 C   0  0  0  0  0  0  0  0  0  0  0  0
   32.3960   27.9670   13.3830 C   0  0  0  0  0  0  0  0  0  0  0  0
   31.6370   29.2150   13.5890 N   0  0  0  0  0  0  0  0  0  0  0  0
   36.4049   27.6642   11.3254 H   0  0  0  0  0  0  0  0  0  0  0  0
   35.1829   25.3614   11.7840 H   0  0  0  0  0  0  0  0  0  0  0  0
   35.1473   26.8316   12.8039 H   0  0  0  0  0  0  0  0  0  0  0  0
   33.3983   26.6211   10.3385 H   0  0  0  0  0  0  0  0  0  0  0  0
   32.9305   25.8420   11.9444 H   0  0  0  0  0  0  0  0  0  0  0  0
   33.6026   28.7498   11.7963 H   0  0  0  0  0  0  0  0  0  0  0  0
   31.9460   28.0877   11.3218 H   0  0  0  0  0  0  0  0  0  0  0  0
   31.7529   27.0976   13.5844 H   0  0  0  0  0  0  0  0  0  0  0  0
   33.2581   27.9182   14.0645 H   0  0  0  0  0  0  0  0  0  0  0  0
   31.5308   29.3896   14.5985 H   0  0  0  0  0  0  0  0  0  0  0  0
   32.1437   30.0004   13.1562 H   0  0  0  0  0  0  0  0  0  0  0  0
   30.7066   29.1264   13.1562 H   0  0  0  0  0  0  0  0  0  0  0  0
  1  2  1  0
  2  3  1  0
  3  4  1  0
  4  5  1  0
  5  6  1  0
  1  7  1  0
  2  8  1  0
  2  9  1  0
  3 10  1  0
  3 11  1  0
  4 12  1  0
  4 13  1  0
  5 14  1  0
  5 15  1  0
  6 16  1  0
  6 17  1  0
  6 18  1  0
M  CHG  1   6   1
A    1
OA
A    2
CB
A    3
CG
A    4
CD
A    5
CE
A    6
NZ
M  END
