1R8Q_AFB_A_403
     RDKit          3D

 44 45  0  0  0  0  0  0  0  0999 V2000
   10.0910    6.8570   32.0840 O   0  0  0  0  0  0  0  0  0  0  0  0
    8.7250    7.2320   31.9100 C   0  0  0  0  0  0  0  0  0  0  0  0
    7.9640    6.1570   31.2310 C   0  0  0  0  0  0  0  0  0  0  0  0
    8.0890    7.2920   33.3370 C   0  0  0  0  0  0  0  0  0  0  0  0
    6.5380    7.0670   33.0360 C   0  0  0  0  0  0  0  0  0  0  0  0
    6.5060    6.6790   31.5660 C   0  0  0  0  0  0  0  0  0  0  0  0
    5.5020    5.5280   31.3330 C   0  0  0  0  0  0  0  0  0  0  0  0
    4.5110    5.6510   30.3590 C   0  0  0  0  0  0  0  0  0  0  0  0
    3.5790    4.4910   30.1500 C   0  0  0  0  0  0  0  0  0  0  0  0
    2.0900    4.8720   30.6080 C   0  0  0  0  0  0  0  0  0  0  0  0
    1.4940    6.0920   29.8490 C   0  0  0  0  0  0  0  0  0  0  0  0
    0.7970    7.0430   30.8690 C   0  0  0  0  0  0  0  0  0  0  0  0
    0.1650    8.0980   29.9060 C   0  0  0  0  0  0  0  0  0  0  0  0
    1.9860    7.7240   31.3940 O   0  0  0  0  0  0  0  0  0  0  0  0
    1.9720    8.1170   32.6590 C   0  0  0  0  0  0  0  0  0  0  0  0
    0.8730    8.3170   33.1860 O   0  0  0  0  0  0  0  0  0  0  0  0
    3.1900    8.4720   33.3190 C   0  0  0  0  0  0  0  0  0  0  0  0
    4.3400    8.2000   32.5760 C   0  0  0  0  0  0  0  0  0  0  0  0
    5.7730    8.4290   33.1600 C   0  0  0  0  0  0  0  0  0  0  0  0
    5.7460    8.8330   34.5550 O   0  0  0  0  0  0  0  0  0  0  0  0
   10.2971    6.8004   33.0507 H   0  0  0  0  0  0  0  0  0  0  0  0
    8.6886    8.1719   31.3396 H   0  0  0  0  0  0  0  0  0  0  0  0
    8.1583    6.1279   30.1487 H   0  0  0  0  0  0  0  0  0  0  0  0
    8.1940    5.1283   31.5453 H   0  0  0  0  0  0  0  0  0  0  0  0
    8.4877    6.4962   33.9833 H   0  0  0  0  0  0  0  0  0  0  0  0
    8.2996    8.2304   33.8710 H   0  0  0  0  0  0  0  0  0  0  0  0
    6.0869    6.3308   33.7175 H   0  0  0  0  0  0  0  0  0  0  0  0
    6.2033    7.5300   30.9382 H   0  0  0  0  0  0  0  0  0  0  0  0
    5.5687    4.6104   31.9359 H   0  0  0  0  0  0  0  0  0  0  0  0
    4.4147    6.5697   29.7618 H   0  0  0  0  0  0  0  0  0  0  0  0
    3.5711    4.2215   29.0836 H   0  0  0  0  0  0  0  0  0  0  0  0
    3.9293    3.6418   30.7552 H   0  0  0  0  0  0  0  0  0  0  0  0
    1.4396    4.0024   30.4323 H   0  0  0  0  0  0  0  0  0  0  0  0
    2.1423    5.1497   31.6711 H   0  0  0  0  0  0  0  0  0  0  0  0
    2.3006    6.6338   29.3334 H   0  0  0  0  0  0  0  0  0  0  0  0
    0.7588    5.7424   29.1093 H   0  0  0  0  0  0  0  0  0  0  0  0
    0.1057    6.6137   31.6091 H   0  0  0  0  0  0  0  0  0  0  0  0
   -0.3119    8.8942   30.4965 H   0  0  0  0  0  0  0  0  0  0  0  0
    0.9514    8.5330   29.2717 H   0  0  0  0  0  0  0  0  0  0  0  0
   -0.5895    7.6099   29.2717 H   0  0  0  0  0  0  0  0  0  0  0  0
    3.2182    8.9198   34.3233 H   0  0  0  0  0  0  0  0  0  0  0  0
    4.2356    7.8139   31.5513 H   0  0  0  0  0  0  0  0  0  0  0  0
    6.2639    9.2397   32.6016 H   0  0  0  0  0  0  0  0  0  0  0  0
    5.7996    8.0304   35.1321 H   0  0  0  0  0  0  0  0  0  0  0  0
  1  2  1  0
  2  3  1  0
  2  4  1  0
  3  6  1  0
  4  5  1  0
  5  6  1  0
  5 19  1  0
  6  7  1  0
  7  8  2  0
  8  9  1  0
  9 10  1  0
 10 11  1  0
 11 12  1  0
 12 13  1  0
 12 14  1  0
 14 15  1  0
 15 16  2  0
 15 17  1  0
 17 18  2  0
 18 19  1  0
 19 20  1  0
  1 21  1  0
  2 22  1  0
  3 23  1  0
  3 24  1  0
  4 25  1  0
  4 26  1  0
  5 27  1  0
  6 28  1  0
  7 29  1  0
  8 30  1  0
  9 31  1  0
  9 32  1  0
 10 33  1  0
 10 34  1  0
 11 35  1  0
 11 36  1  0
 12 37  1  0
 13 38  1  0
 13 39  1  0
 13 40  1  0
 17 41  1  0
 18 42  1  0
 19 43  1  0
 20 44  1  0
A    1
OC7
A    2
C7
A    3
C8
A    4
C6
A    5
C5
A    6
C9
A    7
C10
A    8
C11
A    9
C12
A   10
C13
A   11
C14
A   12
C15
A   13
C16
A   14
O16
A   15
C1
A   16
OC1
A   17
C2
A   18
C3
A   19
C4
A   20
OC4
M  END
