1S9E_ADB_A_701
     RDKit          3D

 35 37  0  0  0  0  0  0  0  0999 V2000
  145.3930  -22.3840   74.0050 C   0  0  0  0  0  0  0  0  0  0  0  0
  145.1150  -22.0570   72.7220 O   0  0  0  0  0  0  0  0  0  0  0  0
  144.7400  -21.6730   75.0880 C   0  0  0  0  0  0  0  0  0  0  0  0
  143.5520  -20.4300   74.7920 Cl  0  0  0  0  0  0  0  0  0  0  0  0
  145.0380  -22.0140   76.4350 C   0  0  0  0  0  0  0  0  0  0  0  0
  146.0110  -23.0190   76.7030 C   0  0  0  0  0  0  0  0  0  0  0  0
  146.6650  -23.7120   75.6370 C   0  0  0  0  0  0  0  0  0  0  0  0
  146.3900  -23.3930   74.3040 C   0  0  0  0  0  0  0  0  0  0  0  0
  147.2340  -24.2670   73.0480 Cl  0  0  0  0  0  0  0  0  0  0  0  0
  144.3640  -22.7900   71.9010 C   0  0  0  0  0  0  0  0  0  0  0  0
  144.0610  -24.0510   72.2620 N   0  0  0  0  0  0  0  0  0  0  0  0
  143.2890  -24.8200   71.4730 C   0  0  0  0  0  0  0  0  0  0  0  0
  142.9490  -26.1050   71.7760 N   0  0  0  0  0  0  0  0  0  0  0  0
  142.8800  -24.3180   70.2810 N   0  0  0  0  0  0  0  0  0  0  0  0
  143.1920  -23.0510   69.9090 C   0  0  0  0  0  0  0  0  0  0  0  0
  142.7560  -22.5400   68.6710 N   0  0  0  0  0  0  0  0  0  0  0  0
  143.9610  -22.2820   70.7170 N   0  0  0  0  0  0  0  0  0  0  0  0
  143.2880  -26.8470   72.8920 C   0  0  0  0  0  0  0  0  0  0  0  0
  142.5820  -28.0610   73.0980 C   0  0  0  0  0  0  0  0  0  0  0  0
  142.8970  -28.9220   74.1950 C   0  0  0  0  0  0  0  0  0  0  0  0
  143.9360  -28.5780   75.1090 C   0  0  0  0  0  0  0  0  0  0  0  0
  144.6610  -27.3570   74.9380 C   0  0  0  0  0  0  0  0  0  0  0  0
  144.3440  -26.4960   73.8360 C   0  0  0  0  0  0  0  0  0  0  0  0
  144.2380  -29.4950   76.1860 C   0  0  0  0  0  0  0  0  0  0  0  0
  144.4920  -30.2610   77.0370 N   0  0  0  0  0  0  0  0  0  0  0  0
  144.5219  -21.5064   77.2632 H   0  0  0  0  0  0  0  0  0  0  0  0
  146.2629  -23.2656   77.7450 H   0  0  0  0  0  0  0  0  0  0  0  0
  147.3921  -24.5044   75.8682 H   0  0  0  0  0  0  0  0  0  0  0  0
  142.3614  -26.5871   71.0809 H   0  0  0  0  0  0  0  0  0  0  0  0
  142.0877  -21.7567   68.6437 H   0  0  0  0  0  0  0  0  0  0  0  0
  143.1055  -22.9496   67.7929 H   0  0  0  0  0  0  0  0  0  0  0  0
  141.7788  -28.3442   72.4018 H   0  0  0  0  0  0  0  0  0  0  0  0
  142.3338  -29.8565   74.3349 H   0  0  0  0  0  0  0  0  0  0  0  0
  145.4557  -27.0805   75.6465 H   0  0  0  0  0  0  0  0  0  0  0  0
  144.9040  -25.5590   73.7005 H   0  0  0  0  0  0  0  0  0  0  0  0
  1  2  1  0
  1  3  2  0
  1  8  1  0
  2 10  1  0
  3  4  1  0
  3  5  1  0
  5  6  2  0
  6  7  1  0
  7  8  2  0
  8  9  1  0
 10 11  2  0
 10 17  1  0
 11 12  1  0
 12 13  1  0
 12 14  2  0
 13 18  1  0
 14 15  1  0
 15 16  1  0
 15 17  2  0
 18 19  2  0
 18 23  1  0
 19 20  1  0
 20 21  2  0
 21 22  1  0
 21 24  1  0
 22 23  2  0
 24 25  3  0
  5 26  1  0
  6 27  1  0
  7 28  1  0
 13 29  1  0
 16 30  1  0
 16 31  1  0
 19 32  1  0
 20 33  1  0
 22 34  1  0
 23 35  1  0
A    1
C1
A    2
O7
A    3
C2
A    4
CL2
A    5
C3
A    6
C4
A    7
C5
A    8
C6
A    9
CL6
A   10
C8
A   11
N1
A   12
C9
A   13
N5
A   14
N2
A   15
C10
A   16
N4
A   17
N3
A   18
C11
A   19
C12
A   20
C13
A   21
C14
A   22
C15
A   23
C16
A   24
C17
A   25
N6
M  END
