1S9G_ABZ_A_701
     RDKit          3D

 41 44  0  0  0  0  0  0  0  0999 V2000
  142.8490  -23.5090   73.8520 C   0  0  0  0  0  0  0  0  0  0  0  0
  143.6550  -24.4410   72.9740 C   0  0  0  0  0  0  0  0  0  0  0  0
  142.1500  -22.3420   73.4700 C   0  0  0  0  0  0  0  0  0  0  0  0
  140.7870  -20.5840   73.6840 N   0  0  0  0  0  0  0  0  0  0  0  0
  141.2950  -21.6440   74.3190 C   0  0  0  0  0  0  0  0  0  0  0  0
  141.0860  -22.0420   75.6490 C   0  0  0  0  0  0  0  0  0  0  0  0
  141.8180  -23.1650   76.0770 C   0  0  0  0  0  0  0  0  0  0  0  0
  142.6990  -23.8680   75.2060 C   0  0  0  0  0  0  0  0  0  0  0  0
  142.1010  -21.5510   72.1750 C   0  0  0  0  0  0  0  0  0  0  0  0
  142.8380  -24.8850   71.7910 C   0  0  0  0  0  0  0  0  0  0  0  0
  143.0450  -24.2270   70.6370 N   0  0  0  0  0  0  0  0  0  0  0  0
  142.2310  -24.4070   69.6140 C   0  0  0  0  0  0  0  0  0  0  0  0
  142.4200  -23.6040   68.4820 N   0  0  0  0  0  0  0  0  0  0  0  0
  141.1870  -25.3060   69.7140 N   0  0  0  0  0  0  0  0  0  0  0  0
  140.9900  -26.0170   70.8940 C   0  0  0  0  0  0  0  0  0  0  0  0
  139.9680  -26.9990   71.0020 N   0  0  0  0  0  0  0  0  0  0  0  0
  141.8170  -25.7960   71.9400 N   0  0  0  0  0  0  0  0  0  0  0  0
  141.3020  -23.1640   67.7570 C   0  0  0  0  0  0  0  0  0  0  0  0
  140.2730  -22.4280   68.4120 C   0  0  0  0  0  0  0  0  0  0  0  0
  139.1240  -22.0220   67.6770 C   0  0  0  0  0  0  0  0  0  0  0  0
  138.9910  -22.3300   66.2790 C   0  0  0  0  0  0  0  0  0  0  0  0
  140.0130  -23.0710   65.6130 C   0  0  0  0  0  0  0  0  0  0  0  0
  141.1710  -23.4880   66.3540 C   0  0  0  0  0  0  0  0  0  0  0  0
  137.8370  -21.8570   65.5430 C   0  0  0  0  0  0  0  0  0  0  0  0
  136.8770  -21.4930   64.9500 N   0  0  0  0  0  0  0  0  0  0  0  0
  141.2550  -20.5290   72.4430 C   0  0  0  0  0  0  0  0  0  0  0  0
  143.6790  -25.1710   75.8390 Cl  0  0  0  0  0  0  0  0  0  0  0  0
  144.5536  -23.9163   72.6174 H   0  0  0  0  0  0  0  0  0  0  0  0
  143.9419  -25.3256   73.5616 H   0  0  0  0  0  0  0  0  0  0  0  0
  140.1285  -19.9082   74.0970 H   0  0  0  0  0  0  0  0  0  0  0  0
  140.3925  -21.5086   76.3157 H   0  0  0  0  0  0  0  0  0  0  0  0
  141.7065  -23.5104   77.1154 H   0  0  0  0  0  0  0  0  0  0  0  0
  142.6315  -21.7605   71.2344 H   0  0  0  0  0  0  0  0  0  0  0  0
  143.3700  -23.3392   68.1848 H   0  0  0  0  0  0  0  0  0  0  0  0
  139.6466  -27.3078   71.9306 H   0  0  0  0  0  0  0  0  0  0  0  0
  139.5488  -27.4017   70.1517 H   0  0  0  0  0  0  0  0  0  0  0  0
  140.3660  -22.1753   69.4785 H   0  0  0  0  0  0  0  0  0  0  0  0
  138.3249  -21.4636   68.1866 H   0  0  0  0  0  0  0  0  0  0  0  0
  139.9152  -23.3196   64.5459 H   0  0  0  0  0  0  0  0  0  0  0  0
  141.9647  -24.0586   65.8497 H   0  0  0  0  0  0  0  0  0  0  0  0
  140.9871  -19.7459   71.7185 H   0  0  0  0  0  0  0  0  0  0  0  0
  1  2  1  0
  1  3  1  0
  1  8  2  0
  2 10  1  0
  3  5  2  0
  3  9  1  0
  4  5  1  0
  4 26  1  0
  5  6  1  0
  6  7  2  0
  7  8  1  0
  8 27  1  0
  9 26  2  0
 10 11  2  0
 10 17  1  0
 11 12  1  0
 12 13  1  0
 12 14  2  0
 13 18  1  0
 14 15  1  0
 15 16  1  0
 15 17  2  0
 18 19  2  0
 18 23  1  0
 19 20  1  0
 20 21  2  0
 21 22  1  0
 21 24  1  0
 22 23  2  0
 24 25  3  0
  2 28  1  0
  2 29  1  0
  4 30  1  0
  6 31  1  0
  7 32  1  0
  9 33  1  0
 13 34  1  0
 16 35  1  0
 16 36  1  0
 19 37  1  0
 20 38  1  0
 22 39  1  0
 23 40  1  0
 26 41  1  0
A    1
C1
A    2
C7
A    3
C2
A    4
N10
A    5
C3
A    6
C4
A    7
C5
A    8
C6
A    9
C25
A   10
C8
A   11
N1
A   12
C9
A   13
N5
A   14
N2
A   15
C10
A   16
N4
A   17
N3
A   18
C11
A   19
C12
A   20
C13
A   21
C14
A   22
C15
A   23
C16
A   24
C17
A   25
N6
A   26
C26
A   27
CL
M  END
