1S9J_BBM_A_1001
     RDKit          3D

 40 41  0  0  0  0  0  0  0  0999 V2000
   30.5520   29.2310   41.1140 O   0  0  0  0  0  0  0  0  0  0  0  0
   30.6710   28.8580   39.9590 C   0  0  0  0  0  0  0  0  0  0  0  0
   30.5990   29.7130   38.9400 N   0  0  0  0  0  0  0  0  0  0  0  0
   30.0090   31.0060   39.1500 O   0  0  0  0  0  0  0  0  0  0  0  0
   28.7110   31.3130   38.6420 C   0  0  0  0  0  0  0  0  0  0  0  0
   27.6940   31.3760   39.7790 C   0  0  0  0  0  0  0  0  0  0  0  0
   26.4280   32.0590   39.2780 C   0  0  0  0  0  0  0  0  0  0  0  0
   26.6650   33.4660   39.1650 O   0  0  0  0  0  0  0  0  0  0  0  0
   28.2140   32.1040   40.9000 O   0  0  0  0  0  0  0  0  0  0  0  0
   30.8490   27.3870   39.7070 C   0  0  0  0  0  0  0  0  0  0  0  0
   30.2750   26.8430   38.5550 C   0  0  0  0  0  0  0  0  0  0  0  0
   30.3740   25.4870   38.2430 C   0  0  0  0  0  0  0  0  0  0  0  0
   29.5640   24.8390   36.6610 Br  0  0  0  0  0  0  0  0  0  0  0  0
   31.0940   24.5360   39.1320 C   0  0  0  0  0  0  0  0  0  0  0  0
   31.1740   23.2360   38.7450 F   0  0  0  0  0  0  0  0  0  0  0  0
   31.7170   25.0610   40.3880 C   0  0  0  0  0  0  0  0  0  0  0  0
   32.3610   24.2630   41.2770 F   0  0  0  0  0  0  0  0  0  0  0  0
   31.5990   26.5190   40.6780 C   0  0  0  0  0  0  0  0  0  0  0  0
   32.1820   27.0300   41.8040 N   0  0  0  0  0  0  0  0  0  0  0  0
   33.5490   27.0540   42.0240 C   0  0  0  0  0  0  0  0  0  0  0  0
   34.0850   27.8970   43.1240 C   0  0  0  0  0  0  0  0  0  0  0  0
   33.2220   28.6210   43.8530 F   0  0  0  0  0  0  0  0  0  0  0  0
   34.4990   26.3190   41.3010 C   0  0  0  0  0  0  0  0  0  0  0  0
   35.8650   26.3930   41.6110 C   0  0  0  0  0  0  0  0  0  0  0  0
   36.3600   27.1900   42.6490 C   0  0  0  0  0  0  0  0  0  0  0  0
   38.4310   27.2560   43.0530 I   0  0  0  0  0  0  0  0  0  0  0  0
   35.4560   27.9410   43.3970 C   0  0  0  0  0  0  0  0  0  0  0  0
   30.9620   29.4502   38.0126 H   0  0  0  0  0  0  0  0  0  0  0  0
   28.7432   32.2863   38.1305 H   0  0  0  0  0  0  0  0  0  0  0  0
   28.4088   30.5245   37.9371 H   0  0  0  0  0  0  0  0  0  0  0  0
   27.4723   30.3496   40.1067 H   0  0  0  0  0  0  0  0  0  0  0  0
   26.1554   31.6517   38.2932 H   0  0  0  0  0  0  0  0  0  0  0  0
   25.6060   31.8786   39.9863 H   0  0  0  0  0  0  0  0  0  0  0  0
   26.7319   33.8631   40.0694 H   0  0  0  0  0  0  0  0  0  0  0  0
   27.9096   31.6779   41.7401 H   0  0  0  0  0  0  0  0  0  0  0  0
   29.7263   27.5068   37.8707 H   0  0  0  0  0  0  0  0  0  0  0  0
   31.5676   27.4206   42.5325 H   0  0  0  0  0  0  0  0  0  0  0  0
   34.1670   25.6723   40.4754 H   0  0  0  0  0  0  0  0  0  0  0  0
   36.5750   25.8012   41.0146 H   0  0  0  0  0  0  0  0  0  0  0  0
   35.8258   28.5778   44.2141 H   0  0  0  0  0  0  0  0  0  0  0  0
  1  2  2  0
  2  3  1  0
  2 10  1  0
  3  4  1  0
  4  5  1  0
  5  6  1  0
  6  7  1  0
  6  9  1  0
  7  8  1  0
 10 11  2  0
 10 18  1  0
 11 12  1  0
 12 13  1  0
 12 14  2  0
 14 15  1  0
 14 16  1  0
 16 17  1  0
 16 18  2  0
 18 19  1  0
 19 20  1  0
 20 21  2  0
 20 23  1  0
 21 22  1  0
 21 27  1  0
 23 24  2  0
 24 25  1  0
 25 26  1  0
 25 27  2  0
  3 28  1  0
  5 29  1  0
  5 30  1  0
  6 31  1  0
  7 32  1  0
  7 33  1  0
  8 34  1  0
  9 35  1  0
 11 36  1  0
 19 37  1  0
 23 38  1  0
 24 39  1  0
 27 40  1  0
A    1
O1
A    2
C7
A    3
N2
A    4
O4
A    5
C15
A    6
C16
A    7
C17
A    8
O3
A    9
O2
A   10
C8
A   11
C9
A   12
C10
A   13
BR
A   14
C11
A   15
F1
A   16
C12
A   17
F2
A   18
C13
A   19
N
A   20
C3
A   21
C26
A   22
F3
A   23
C4
A   24
C5
A   25
C6
A   26
I
A   27
C1
M  END
