1S9P_DES_A_459
     RDKit          3D

 40 41  0  0  0  0  0  0  0  0999 V2000
   59.6010   35.2420   55.6180 C   0  0  0  0  0  0  0  0  0  0  0  0
   59.2280   35.7570   56.9700 C   0  0  0  0  0  0  0  0  0  0  0  0
   58.7540   34.7110   58.0050 C   0  0  0  0  0  0  0  0  0  0  0  0
   59.8900   33.8160   58.5420 C   0  0  0  0  0  0  0  0  0  0  0  0
   60.6160   34.1790   59.7180 C   0  0  0  0  0  0  0  0  0  0  0  0
   61.6620   33.3390   60.2210 C   0  0  0  0  0  0  0  0  0  0  0  0
   61.9790   32.1350   59.5410 C   0  0  0  0  0  0  0  0  0  0  0  0
   62.9760   31.2890   59.9850 O   0  0  0  0  0  0  0  0  0  0  0  0
   61.2740   31.7540   58.3700 C   0  0  0  0  0  0  0  0  0  0  0  0
   60.2410   32.5930   57.8860 C   0  0  0  0  0  0  0  0  0  0  0  0
   57.4770   34.5750   58.4340 C   0  0  0  0  0  0  0  0  0  0  0  0
   56.2940   35.4400   57.9420 C   0  0  0  0  0  0  0  0  0  0  0  0
   55.5750   35.0850   56.7570 C   0  0  0  0  0  0  0  0  0  0  0  0
   54.4700   35.8690   56.3020 C   0  0  0  0  0  0  0  0  0  0  0  0
   54.0740   37.0170   57.0320 C   0  0  0  0  0  0  0  0  0  0  0  0
   53.0110   37.7960   56.6300 O   0  0  0  0  0  0  0  0  0  0  0  0
   54.7690   37.4000   58.2150 C   0  0  0  0  0  0  0  0  0  0  0  0
   55.8770   36.6030   58.6570 C   0  0  0  0  0  0  0  0  0  0  0  0
   57.0110   33.5380   59.4830 C   0  0  0  0  0  0  0  0  0  0  0  0
   57.1150   34.0040   60.9190 C   0  0  0  0  0  0  0  0  0  0  0  0
   60.2430   34.3556   55.7276 H   0  0  0  0  0  0  0  0  0  0  0  0
   58.6899   34.9688   55.0655 H   0  0  0  0  0  0  0  0  0  0  0  0
   60.1447   36.0225   55.0655 H   0  0  0  0  0  0  0  0  0  0  0  0
   60.1099   36.2641   57.3885 H   0  0  0  0  0  0  0  0  0  0  0  0
   58.3594   36.4105   56.8009 H   0  0  0  0  0  0  0  0  0  0  0  0
   60.3691   35.1136   60.2429 H   0  0  0  0  0  0  0  0  0  0  0  0
   62.2151   33.6255   61.1276 H   0  0  0  0  0  0  0  0  0  0  0  0
   63.1232   31.1641   60.9560 H   0  0  0  0  0  0  0  0  0  0  0  0
   61.5262   30.8204   57.8458 H   0  0  0  0  0  0  0  0  0  0  0  0
   59.6925   32.2964   56.9798 H   0  0  0  0  0  0  0  0  0  0  0  0
   55.8776   34.1942   56.1869 H   0  0  0  0  0  0  0  0  0  0  0  0
   53.9289   35.5822   55.3883 H   0  0  0  0  0  0  0  0  0  0  0  0
   52.4273   38.2237   57.3056 H   0  0  0  0  0  0  0  0  0  0  0  0
   54.4612   38.2921   58.7803 H   0  0  0  0  0  0  0  0  0  0  0  0
   56.4183   36.8952   59.5689 H   0  0  0  0  0  0  0  0  0  0  0  0
   55.9589   33.2914   59.2777 H   0  0  0  0  0  0  0  0  0  0  0  0
   57.6837   32.6731   59.3865 H   0  0  0  0  0  0  0  0  0  0  0  0
   56.9258   33.1564   61.5941 H   0  0  0  0  0  0  0  0  0  0  0  0
   58.1240   34.4015   61.1033 H   0  0  0  0  0  0  0  0  0  0  0  0
   56.3708   34.7928   61.1033 H   0  0  0  0  0  0  0  0  0  0  0  0
  1  2  1  0
  2  3  1  0
  3  4  1  0
  3 11  2  0
  4  5  2  0
  4 10  1  0
  5  6  1  0
  6  7  2  0
  7  8  1  0
  7  9  1  0
  9 10  2  0
 11 12  1  0
 11 19  1  0
 12 13  2  0
 12 18  1  0
 13 14  1  0
 14 15  2  0
 15 16  1  0
 15 17  1  0
 17 18  2  0
 19 20  1  0
  1 21  1  0
  1 22  1  0
  1 23  1  0
  2 24  1  0
  2 25  1  0
  5 26  1  0
  6 27  1  0
  8 28  1  0
  9 29  1  0
 10 30  1  0
 13 31  1  0
 14 32  1  0
 16 33  1  0
 17 34  1  0
 18 35  1  0
 19 36  1  0
 19 37  1  0
 20 38  1  0
 20 39  1  0
 20 40  1  0
A    1
CP9
A    2
CP8
A    3
CP7
A    4
CP6
A    5
CP1
A    6
CP2
A    7
CP3
A    8
OP3
A    9
CP4
A   10
CP5
A   11
C7
A   12
C6
A   13
C5
A   14
C4
A   15
C3
A   16
O3
A   17
C2
A   18
C1
A   19
C8
A   20
C9
M  END
