1SA5_BMV_B_440
     RDKit          3D

 57 61  0  0  0  0  0  0  0  0999 V2000
   98.5830   21.9780   34.0100 C   0  0  0  0  0  0  0  0  0  0  0  0
   97.3330   22.4520   33.6230 C   0  0  0  0  0  0  0  0  0  0  0  0
   97.2280   23.3660   32.5780 C   0  0  0  0  0  0  0  0  0  0  0  0
   98.3770   23.8020   31.9240 C   0  0  0  0  0  0  0  0  0  0  0  0
   99.6280   23.3260   32.3100 C   0  0  0  0  0  0  0  0  0  0  0  0
   99.7330   22.4110   33.3540 C   0  0  0  0  0  0  0  0  0  0  0  0
  101.0970   21.8490   33.7650 C   0  0  0  0  0  0  0  0  0  0  0  0
  101.3660   20.5070   33.0800 C   0  0  0  0  0  0  0  0  0  0  0  0
  101.7770   20.7570   31.6270 C   0  0  0  0  0  0  0  0  0  0  0  0
  102.1180   19.5220   30.9060 N   0  0  0  0  0  0  0  0  0  0  0  0
  103.5560   19.2600   30.7340 C   0  0  0  0  0  0  0  0  0  0  0  0
  104.0990   19.9130   29.4610 C   0  0  0  0  0  0  0  0  0  0  0  0
  103.3750   20.4400   28.4780 C   0  0  0  0  0  0  0  0  0  0  0  0
  104.2100   20.8740   27.5390 N   0  0  0  0  0  0  0  0  0  0  0  0
  105.4510   20.6210   27.9420 C   0  0  0  0  0  0  0  0  0  0  0  0
  105.3820   20.0290   29.1310 N   0  0  0  0  0  0  0  0  0  0  0  0
  101.2190   18.5910   30.5930 C   0  0  0  0  0  0  0  0  0  0  0  0
  101.6100   17.7250   29.5750 C   0  0  0  0  0  0  0  0  0  0  0  0
  100.6680   16.9190   28.9400 C   0  0  0  0  0  0  0  0  0  0  0  0
   99.3300   16.9730   29.3200 C   0  0  0  0  0  0  0  0  0  0  0  0
   98.3490   16.2060   28.6150 C   0  0  0  0  0  0  0  0  0  0  0  0
   97.5660   15.6100   28.0430 N   0  0  0  0  0  0  0  0  0  0  0  0
   98.9370   17.8200   30.3520 C   0  0  0  0  0  0  0  0  0  0  0  0
   99.8840   18.6200   30.9820 C   0  0  0  0  0  0  0  0  0  0  0  0
   99.2740   19.4490   32.1110 C   0  0  0  0  0  0  0  0  0  0  0  0
  100.1560   19.6880   33.2680 N   0  0  0  0  0  0  0  0  0  0  0  0
  100.3970   18.4110   34.2490 S   0  0  0  0  0  0  0  0  0  0  0  0
  101.0900   18.8780   35.4940 O   0  0  0  0  0  0  0  0  0  0  0  0
   99.0640   17.8520   34.6510 O   0  0  0  0  0  0  0  0  0  0  0  0
  101.3790   17.1600   33.5220 C   0  0  0  0  0  0  0  0  0  0  0  0
  102.7090   17.1310   33.4870 C   0  0  0  0  0  0  0  0  0  0  0  0
  103.2270   16.0060   32.9850 C   0  0  0  0  0  0  0  0  0  0  0  0
  102.3610   15.0690   32.5920 C   0  0  0  0  0  0  0  0  0  0  0  0
  100.7970   15.6840   32.8820 S   0  0  0  0  0  0  0  0  0  0  0  0
   98.6632   21.2581   34.8378 H   0  0  0  0  0  0  0  0  0  0  0  0
   96.4280   22.1045   34.1428 H   0  0  0  0  0  0  0  0  0  0  0  0
   96.2411   23.7421   32.2704 H   0  0  0  0  0  0  0  0  0  0  0  0
   98.2967   24.5253   31.0991 H   0  0  0  0  0  0  0  0  0  0  0  0
  100.5330   23.6731   31.7899 H   0  0  0  0  0  0  0  0  0  0  0  0
  101.8821   22.5636   33.4771 H   0  0  0  0  0  0  0  0  0  0  0  0
  101.0983   21.6933   34.8539 H   0  0  0  0  0  0  0  0  0  0  0  0
  102.2083   19.9472   33.5126 H   0  0  0  0  0  0  0  0  0  0  0  0
  100.9418   21.2479   31.1060 H   0  0  0  0  0  0  0  0  0  0  0  0
  102.6780   21.3878   31.6437 H   0  0  0  0  0  0  0  0  0  0  0  0
  104.0987   19.6634   31.6016 H   0  0  0  0  0  0  0  0  0  0  0  0
  103.7003   18.1726   30.6515 H   0  0  0  0  0  0  0  0  0  0  0  0
  102.2774   20.5054   28.4472 H   0  0  0  0  0  0  0  0  0  0  0  0
  103.9420   21.3272   26.6537 H   0  0  0  0  0  0  0  0  0  0  0  0
  106.3721   20.8591   27.3899 H   0  0  0  0  0  0  0  0  0  0  0  0
  102.6662   17.6773   29.2713 H   0  0  0  0  0  0  0  0  0  0  0  0
  100.9824   16.2377   28.1357 H   0  0  0  0  0  0  0  0  0  0  0  0
   97.8838   17.8564   30.6674 H   0  0  0  0  0  0  0  0  0  0  0  0
   98.9855   20.4263   31.6967 H   0  0  0  0  0  0  0  0  0  0  0  0
   98.4253   18.8627   32.4930 H   0  0  0  0  0  0  0  0  0  0  0  0
  103.3315   17.9654   33.8424 H   0  0  0  0  0  0  0  0  0  0  0  0
  104.3138   15.8592   32.8998 H   0  0  0  0  0  0  0  0  0  0  0  0
  102.6091   14.0871   32.1628 H   0  0  0  0  0  0  0  0  0  0  0  0
  1  2  2  0
  1  6  1  0
  2  3  1  0
  3  4  2  0
  4  5  1  0
  5  6  2  0
  6  7  1  0
  7  8  1  0
  8  9  1  0
  8 26  1  0
  9 10  1  0
 10 11  1  0
 10 17  1  0
 11 12  1  0
 12 13  2  0
 12 16  1  0
 13 14  1  0
 14 15  1  0
 15 16  2  0
 17 18  1  0
 17 24  2  0
 18 19  2  0
 19 20  1  0
 20 21  1  0
 20 23  2  0
 21 22  3  0
 23 24  1  0
 24 25  1  0
 25 26  1  0
 26 27  1  0
 27 28  2  0
 27 29  2  0
 27 30  1  0
 30 31  2  0
 30 34  1  0
 31 32  1  0
 32 33  2  0
 33 34  1  0
  1 35  1  0
  2 36  1  0
  3 37  1  0
  4 38  1  0
  5 39  1  0
  7 40  1  0
  7 41  1  0
  8 42  1  0
  9 43  1  0
  9 44  1  0
 11 45  1  0
 11 46  1  0
 13 47  1  0
 14 48  1  0
 15 49  1  0
 18 50  1  0
 19 51  1  0
 23 52  1  0
 25 53  1  0
 25 54  1  0
 31 55  1  0
 32 56  1  0
 33 57  1  0
A    1
CAJ
A    2
CAF
A    3
CAE
A    4
CAG
A    5
CAK
A    6
CAZ
A    7
CAR
A    8
CBE
A    9
CAU
A   10
NBF
A   11
CAS
A   12
CBA
A   13
CAP
A   14
NAV
A   15
CAO
A   16
NAW
A   17
CBD
A   18
CAN
A   19
CAM
A   20
CAY
A   21
CAD
A   22
NAA
A   23
CAQ
A   24
CBB
A   25
CAT
A   26
NBG
A   27
SBH
A   28
OAB
A   29
OAC
A   30
CBC
A   31
CAL
A   32
CAH
A   33
CAI
A   34
SAX
M  END
