1SC7_M38_C_990
     RDKit          3D

 40 43  0  0  0  0  0  0  0  0999 V2000
   95.7770    2.0310    9.9950 C   0  0  0  0  0  0  0  0  0  0  0  0
   94.4890    1.9450   10.5960 C   0  0  0  0  0  0  0  0  0  0  0  0
   94.3680    1.9600   12.0070 C   0  0  0  0  0  0  0  0  0  0  0  0
   95.5290    2.0620   12.8240 C   0  0  0  0  0  0  0  0  0  0  0  0
   96.8370    2.1530   12.2390 C   0  0  0  0  0  0  0  0  0  0  0  0
   96.9560    2.1360   10.8000 C   0  0  0  0  0  0  0  0  0  0  0  0
   98.3550    2.2360   10.1650 C   0  0  0  0  0  0  0  0  0  0  0  0
   99.4680    2.3470   10.9570 C   0  0  0  0  0  0  0  0  0  0  0  0
   98.1200    2.2730   13.1120 C   0  0  0  0  0  0  0  0  0  0  0  0
   99.3880    2.3680   12.4750 N   0  0  0  0  0  0  0  0  0  0  0  0
   98.6980    2.2360    8.6910 C   0  0  0  0  0  0  0  0  0  0  0  0
  100.1700    2.3670    8.6670 C   0  0  0  0  0  0  0  0  0  0  0  0
  100.6630    2.4350   10.0140 C   0  0  0  0  0  0  0  0  0  0  0  0
  101.0690    2.4300    7.5450 C   0  0  0  0  0  0  0  0  0  0  0  0
  102.4690    2.5640    7.7820 C   0  0  0  0  0  0  0  0  0  0  0  0
  102.9810    2.6340    9.1080 C   0  0  0  0  0  0  0  0  0  0  0  0
  102.1000    2.5710   10.2310 C   0  0  0  0  0  0  0  0  0  0  0  0
   97.9430    2.1510    7.7140 O   0  0  0  0  0  0  0  0  0  0  0  0
  103.6780   -0.4600   15.4190 O   0  0  0  0  0  0  0  0  0  0  0  0
  102.8940   -1.4650   13.6130 O   0  0  0  0  0  0  0  0  0  0  0  0
   98.0090    2.2890   14.3540 O   0  0  0  0  0  0  0  0  0  0  0  0
  100.6340    2.4980   13.3410 C   0  0  0  0  0  0  0  0  0  0  0  0
  101.0990    1.1780   13.9870 C   0  0  0  0  0  0  0  0  0  0  0  0
  103.0980   -0.4280   14.3110 C   0  0  0  0  0  0  0  0  0  0  0  0
  102.6220    0.9340   13.7980 C   0  0  0  0  0  0  0  0  0  0  0  0
   95.8671    2.0166    8.8988 H   0  0  0  0  0  0  0  0  0  0  0  0
   93.5905    1.8671    9.9662 H   0  0  0  0  0  0  0  0  0  0  0  0
   93.3738    1.8926   12.4729 H   0  0  0  0  0  0  0  0  0  0  0  0
   95.4227    2.0712   13.9188 H   0  0  0  0  0  0  0  0  0  0  0  0
  100.6811    2.3755    6.5171 H   0  0  0  0  0  0  0  0  0  0  0  0
  103.1618    2.6139    6.9291 H   0  0  0  0  0  0  0  0  0  0  0  0
  104.0641    2.7375    9.2697 H   0  0  0  0  0  0  0  0  0  0  0  0
  102.5024    2.6247   11.2534 H   0  0  0  0  0  0  0  0  0  0  0  0
  103.1493   -0.4308   16.2555 H   0  0  0  0  0  0  0  0  0  0  0  0
  101.4517    2.8806   12.7126 H   0  0  0  0  0  0  0  0  0  0  0  0
  100.3743    3.1777   14.1660 H   0  0  0  0  0  0  0  0  0  0  0  0
  100.8773    1.2137   15.0638 H   0  0  0  0  0  0  0  0  0  0  0  0
  100.5622    0.3543   13.4937 H   0  0  0  0  0  0  0  0  0  0  0  0
  102.8533    1.0005   12.7247 H   0  0  0  0  0  0  0  0  0  0  0  0
  103.1450    1.6998   14.3896 H   0  0  0  0  0  0  0  0  0  0  0  0
  1  2  2  0
  1  6  1  0
  2  3  1  0
  3  4  2  0
  4  5  1  0
  5  6  2  0
  5  9  1  0
  6  7  1  0
  7  8  2  0
  7 11  1  0
  8 10  1  0
  8 13  1  0
  9 10  1  0
  9 21  2  0
 10 22  1  0
 11 12  1  0
 11 18  2  0
 12 13  2  0
 12 14  1  0
 13 17  1  0
 14 15  2  0
 15 16  1  0
 16 17  2  0
 19 24  1  0
 20 24  2  0
 22 23  1  0
 23 25  1  0
 24 25  1  0
  1 26  1  0
  2 27  1  0
  3 28  1  0
  4 29  1  0
 14 30  1  0
 15 31  1  0
 16 32  1  0
 17 33  1  0
 19 34  1  0
 22 35  1  0
 22 36  1  0
 23 37  1  0
 23 38  1  0
 25 39  1  0
 25 40  1  0
A    1
C1
A    2
C2
A    3
C3
A    4
C4
A    5
C5
A    6
C6
A    7
C7
A    8
C8
A    9
C9
A   10
N10
A   11
C11
A   12
C12
A   13
C13
A   14
C14
A   15
C15
A   16
C16
A   17
C17
A   18
O18
A   19
O19
A   20
O20
A   21
O21
A   22
C22
A   23
C23
A   24
C24
A   25
C25
M  END
