1SES_AHX_A_422
     RDKit          3D

 50 52  0  0  0  0  0  0  0  0999 V2000
   52.2550   11.5230   62.9640 N   0  0  0  0  0  0  0  0  0  0  0  0
   52.8650   12.7830   62.6410 C   0  0  0  0  0  0  0  0  0  0  0  0
   54.3480   12.6590   62.7550 C   0  0  0  0  0  0  0  0  0  0  0  0
   54.7040   11.5050   61.9790 O   0  0  0  0  0  0  0  0  0  0  0  0
   52.4440   12.8620   61.2050 C   0  0  0  0  0  0  0  0  0  0  0  0
   52.1960   11.8210   60.5780 O   0  0  0  0  0  0  0  0  0  0  0  0
   52.2810   14.0540   60.6970 N   0  0  0  0  0  0  0  0  0  0  0  0
   52.9740   14.6340   58.4080 P   0  0  0  0  0  0  0  0  0  0  0  0
   52.2210   15.2360   57.2920 O   0  0  0  0  0  0  0  0  0  0  0  0
   53.9150   15.4820   59.1880 O   0  0  0  0  0  0  0  0  0  0  0  0
   51.8810   14.0720   59.3800 O   0  0  0  0  0  0  0  0  0  0  0  0
   53.8430   13.3840   57.8970 O   0  0  0  0  0  0  0  0  0  0  0  0
   55.0600   13.0060   58.5630 C   0  0  0  0  0  0  0  0  0  0  0  0
   56.1520   12.4640   57.6570 C   0  0  0  0  0  0  0  0  0  0  0  0
   55.7730   11.3280   56.8510 O   0  0  0  0  0  0  0  0  0  0  0  0
   56.6640   13.5570   56.7460 C   0  0  0  0  0  0  0  0  0  0  0  0
   57.6300   14.3880   57.4180 O   0  0  0  0  0  0  0  0  0  0  0  0
   57.2880   12.7520   55.6410 C   0  0  0  0  0  0  0  0  0  0  0  0
   58.5010   12.2090   56.0940 O   0  0  0  0  0  0  0  0  0  0  0  0
   56.3130   11.5970   55.5470 C   0  0  0  0  0  0  0  0  0  0  0  0
   55.2410   11.8910   54.5980 N   0  0  0  0  0  0  0  0  0  0  0  0
   53.9890   12.4460   54.8190 C   0  0  0  0  0  0  0  0  0  0  0  0
   53.2160   12.3950   53.7580 N   0  0  0  0  0  0  0  0  0  0  0  0
   53.9960   11.7630   52.7780 C   0  0  0  0  0  0  0  0  0  0  0  0
   53.7210   11.3510   51.4650 C   0  0  0  0  0  0  0  0  0  0  0  0
   52.5490   11.5480   50.8720 N   0  0  0  0  0  0  0  0  0  0  0  0
   54.6930   10.7130   50.8200 N   0  0  0  0  0  0  0  0  0  0  0  0
   55.8380   10.4360   51.4380 C   0  0  0  0  0  0  0  0  0  0  0  0
   56.1810   10.6340   52.6970 N   0  0  0  0  0  0  0  0  0  0  0  0
   55.2130   11.3880   53.3020 C   0  0  0  0  0  0  0  0  0  0  0  0
   52.2044   11.4184   63.9874 H   0  0  0  0  0  0  0  0  0  0  0  0
   51.3047   11.4901   62.5681 H   0  0  0  0  0  0  0  0  0  0  0  0
   52.5911   13.6459   63.2658 H   0  0  0  0  0  0  0  0  0  0  0  0
   54.8396   13.5574   62.3534 H   0  0  0  0  0  0  0  0  0  0  0  0
   54.6667   12.5567   63.8028 H   0  0  0  0  0  0  0  0  0  0  0  0
   54.9346   10.7576   62.5859 H   0  0  0  0  0  0  0  0  0  0  0  0
   52.4396   14.9147   61.2402 H   0  0  0  0  0  0  0  0  0  0  0  0
   53.7602   15.3425   60.1558 H   0  0  0  0  0  0  0  0  0  0  0  0
   55.4553   13.8935   59.0789 H   0  0  0  0  0  0  0  0  0  0  0  0
   54.7927   12.1844   59.2438 H   0  0  0  0  0  0  0  0  0  0  0  0
   56.9342   12.1079   58.3436 H   0  0  0  0  0  0  0  0  0  0  0  0
   55.8922   14.2610   56.4014 H   0  0  0  0  0  0  0  0  0  0  0  0
   57.5212   14.2944   58.3975 H   0  0  0  0  0  0  0  0  0  0  0  0
   57.4690   13.3213   54.7173 H   0  0  0  0  0  0  0  0  0  0  0  0
   58.5112   12.2044   57.0839 H   0  0  0  0  0  0  0  0  0  0  0  0
   56.8461   10.7075   55.1801 H   0  0  0  0  0  0  0  0  0  0  0  0
   53.6770   12.8820   55.7795 H   0  0  0  0  0  0  0  0  0  0  0  0
   51.7018   11.6904   51.4402 H   0  0  0  0  0  0  0  0  0  0  0  0
   52.4873   11.5584   49.8439 H   0  0  0  0  0  0  0  0  0  0  0  0
   56.6122    9.9744   50.8075 H   0  0  0  0  0  0  0  0  0  0  0  0
  1  2  1  0
  2  3  1  0
  2  5  1  0
  3  4  1  0
  5  6  2  0
  5  7  1  0
  7 11  1  0
  8  9  2  0
  8 10  1  0
  8 11  1  0
  8 12  1  0
 12 13  1  0
 13 14  1  0
 14 15  1  0
 14 16  1  0
 15 20  1  0
 16 17  1  0
 16 18  1  0
 18 19  1  0
 18 20  1  0
 20 21  1  0
 21 22  1  0
 21 30  1  0
 22 23  2  0
 23 24  1  0
 24 25  1  0
 24 30  2  0
 25 26  1  0
 25 27  2  0
 27 28  1  0
 28 29  2  0
 29 30  1  0
  1 31  1  0
  1 32  1  0
  2 33  1  0
  3 34  1  0
  3 35  1  0
  4 36  1  0
  7 37  1  0
 10 38  1  0
 13 39  1  0
 13 40  1  0
 14 41  1  0
 16 42  1  0
 17 43  1  0
 18 44  1  0
 19 45  1  0
 20 46  1  0
 22 47  1  0
 26 48  1  0
 26 49  1  0
 28 50  1  0
A    1
N10
A    2
CA
A    3
CB
A    4
OG
A    5
C9
A    6
O9
A    7
N8
A    8
PA
A    9
O1A
A   10
O2A
A   11
O3A
A   12
O5'
A   13
C5'
A   14
C4'
A   15
O4'
A   16
C3'
A   17
O3'
A   18
C2'
A   19
O2'
A   20
C1'
A   21
N9
A   22
C8
A   23
N7
A   24
C5
A   25
C6
A   26
N6
A   27
N1
A   28
C2
A   29
N3
A   30
C4
M  END
