1AAQ_PSI_B_100
     RDKit          3D

 88 88  0  0  0  0  0  0  0  0999 V2000
   -5.7410   17.9380   -7.0390 N   0  0  0  0  0  0  0  0  0  0  0  0
   -5.8830   17.4740   -5.6800 C   0  0  0  0  0  0  0  0  0  0  0  0
   -7.2840   17.7850   -5.1510 C   0  0  0  0  0  0  0  0  0  0  0  0
   -7.8780   18.7950   -5.5030 O   0  0  0  0  0  0  0  0  0  0  0  0
   -4.8320   18.1790   -4.8280 C   0  0  0  0  0  0  0  0  0  0  0  0
   -7.7640   16.9320   -4.2320 N   0  0  0  0  0  0  0  0  0  0  0  0
   -9.0680   17.1150   -3.5730 C   0  0  0  0  0  0  0  0  0  0  0  0
   -8.8180   16.8680   -2.0810 C   0  0  0  0  0  0  0  0  0  0  0  0
   -8.4350   15.7610   -1.7290 O   0  0  0  0  0  0  0  0  0  0  0  0
  -10.0880   16.1150   -4.1410 C   0  0  0  0  0  0  0  0  0  0  0  0
  -11.3700   15.7810    3.2710 C   0  0  0  0  0  0  0  0  0  0  0  0
  -10.7800   14.7100    3.1960 O   0  0  0  0  0  0  0  0  0  0  0  0
  -11.8840   16.4140    1.9720 C   0  0  0  0  0  0  0  0  0  0  0  0
  -10.7740   16.6120    0.9150 C   0  0  0  0  0  0  0  0  0  0  0  0
   -9.9260   17.8710    1.1670 C   0  0  0  0  0  0  0  0  0  0  0  0
  -10.8640   19.0150    1.0930 O   0  0  0  0  0  0  0  0  0  0  0  0
   -8.6630   17.8220    0.2180 C   0  0  0  0  0  0  0  0  0  0  0  0
   -8.9820   17.9020   -1.2370 N   0  0  0  0  0  0  0  0  0  0  0  0
   -7.6860   18.9390    0.6230 C   0  0  0  0  0  0  0  0  0  0  0  0
   -6.3150   18.8260   -0.0240 C   0  0  0  0  0  0  0  0  0  0  0  0
   -5.9580   19.6050   -1.1370 C   0  0  0  0  0  0  0  0  0  0  0  0
   -5.3680   17.9530    0.5460 C   0  0  0  0  0  0  0  0  0  0  0  0
   -4.6690   19.4940   -1.6820 C   0  0  0  0  0  0  0  0  0  0  0  0
   -4.0860   17.8370   -0.0040 C   0  0  0  0  0  0  0  0  0  0  0  0
   -3.7290   18.6210   -1.1100 C   0  0  0  0  0  0  0  0  0  0  0  0
  -11.6290   16.3670    4.4580 N   0  0  0  0  0  0  0  0  0  0  0  0
  -11.2800   15.6530    5.7110 C   0  0  0  0  0  0  0  0  0  0  0  0
  -12.5960   15.1310    6.3280 C   0  0  0  0  0  0  0  0  0  0  0  0
  -13.5770   15.8440    6.4930 O   0  0  0  0  0  0  0  0  0  0  0  0
  -10.4320   16.5190    6.6690 C   0  0  0  0  0  0  0  0  0  0  0  0
   -9.9680   15.7260    7.9080 C   0  0  0  0  0  0  0  0  0  0  0  0
   -9.1670   17.0370    5.9540 C   0  0  0  0  0  0  0  0  0  0  0  0
  -12.5390   13.8420    6.6570 N   0  0  0  0  0  0  0  0  0  0  0  0
  -13.5190   12.9170    7.2560 C   0  0  0  0  0  0  0  0  0  0  0  0
  -12.8290   12.0770    8.4190 C   0  0  0  0  0  0  0  0  0  0  0  0
  -11.5110   11.4360    8.2750 O   0  0  0  0  0  0  0  0  0  0  0  0
  -14.1680   12.0520    6.1210 C   0  0  0  0  0  0  0  0  0  0  0  0
  -15.2790   11.0900    6.6380 C   0  0  0  0  0  0  0  0  0  0  0  0
  -14.8520   12.9270    5.0450 C   0  0  0  0  0  0  0  0  0  0  0  0
  -13.0560   11.6970   10.7740 C   0  0  0  0  0  0  0  0  0  0  0  0
  -13.0000   12.6640    9.7100 O   0  0  0  0  0  0  0  0  0  0  0  0
   -5.4396   18.9229   -7.0358 H   0  0  0  0  0  0  0  0  0  0  0  0
   -5.0369   17.3650   -7.5256 H   0  0  0  0  0  0  0  0  0  0  0  0
   -5.7409   16.3840   -5.6387 H   0  0  0  0  0  0  0  0  0  0  0  0
   -5.0604   18.0258   -3.7629 H   0  0  0  0  0  0  0  0  0  0  0  0
   -3.8386   17.7639   -5.0534 H   0  0  0  0  0  0  0  0  0  0  0  0
   -4.8392   19.2556   -5.0534 H   0  0  0  0  0  0  0  0  0  0  0  0
   -7.1945   16.1127   -3.9764 H   0  0  0  0  0  0  0  0  0  0  0  0
   -9.4817   18.1203   -3.7409 H   0  0  0  0  0  0  0  0  0  0  0  0
  -10.6049   15.6082   -3.3128 H   0  0  0  0  0  0  0  0  0  0  0  0
  -10.8232   16.6519   -4.7583 H   0  0  0  0  0  0  0  0  0  0  0  0
   -9.5657   15.3693   -4.7583 H   0  0  0  0  0  0  0  0  0  0  0  0
  -12.6600   15.7604    1.5469 H   0  0  0  0  0  0  0  0  0  0  0  0
  -12.2781   17.4093    2.2250 H   0  0  0  0  0  0  0  0  0  0  0  0
  -11.2439   16.6977   -0.0759 H   0  0  0  0  0  0  0  0  0  0  0  0
  -10.1018   15.7434    0.9750 H   0  0  0  0  0  0  0  0  0  0  0  0
   -9.4572   17.9646    2.1577 H   0  0  0  0  0  0  0  0  0  0  0  0
  -11.1025   19.3059    2.0087 H   0  0  0  0  0  0  0  0  0  0  0  0
   -8.2020   16.8326    0.3543 H   0  0  0  0  0  0  0  0  0  0  0  0
   -9.3445   18.7900   -1.6124 H   0  0  0  0  0  0  0  0  0  0  0  0
   -8.1261   19.9049    0.3344 H   0  0  0  0  0  0  0  0  0  0  0  0
   -7.5338   18.8504    1.7088 H   0  0  0  0  0  0  0  0  0  0  0  0
   -6.6863   20.3000   -1.5803 H   0  0  0  0  0  0  0  0  0  0  0  0
   -5.6380   17.3575    1.4306 H   0  0  0  0  0  0  0  0  0  0  0  0
   -4.3936   20.0940   -2.5619 H   0  0  0  0  0  0  0  0  0  0  0  0
   -3.3610   17.1329    0.4303 H   0  0  0  0  0  0  0  0  0  0  0  0
   -2.7143   18.5526   -1.5292 H   0  0  0  0  0  0  0  0  0  0  0  0
  -12.0642   17.2998    4.4942 H   0  0  0  0  0  0  0  0  0  0  0  0
  -10.6243   14.7960    5.4977 H   0  0  0  0  0  0  0  0  0  0  0  0
  -11.0769   17.3522    6.9851 H   0  0  0  0  0  0  0  0  0  0  0  0
  -10.2784   16.2565    8.8203 H   0  0  0  0  0  0  0  0  0  0  0  0
  -10.4225   14.7244    7.8937 H   0  0  0  0  0  0  0  0  0  0  0  0
   -8.8722   15.6316    7.8937 H   0  0  0  0  0  0  0  0  0  0  0  0
   -8.4215   17.3423    6.7030 H   0  0  0  0  0  0  0  0  0  0  0  0
   -8.7484   16.2379    5.3246 H   0  0  0  0  0  0  0  0  0  0  0  0
   -9.4291   17.9002    5.3246 H   0  0  0  0  0  0  0  0  0  0  0  0
  -11.6296   13.4038    6.4525 H   0  0  0  0  0  0  0  0  0  0  0  0
  -14.3438   13.4623    7.7379 H   0  0  0  0  0  0  0  0  0  0  0  0
  -13.3220   11.4814    5.7102 H   0  0  0  0  0  0  0  0  0  0  0  0
  -15.2803   11.0889    7.7380 H   0  0  0  0  0  0  0  0  0  0  0  0
  -16.2585   11.4299    6.2705 H   0  0  0  0  0  0  0  0  0  0  0  0
  -15.0827   10.0720    6.2705 H   0  0  0  0  0  0  0  0  0  0  0  0
  -15.4586   13.7030    5.5347 H   0  0  0  0  0  0  0  0  0  0  0  0
  -14.0844   13.4034    4.4174 H   0  0  0  0  0  0  0  0  0  0  0  0
  -15.4996   12.2971    4.4174 H   0  0  0  0  0  0  0  0  0  0  0  0
  -13.0259   12.2162   11.7433 H   0  0  0  0  0  0  0  0  0  0  0  0
  -13.9891   11.1197   10.6961 H   0  0  0  0  0  0  0  0  0  0  0  0
  -12.1958   11.0158   10.6961 H   0  0  0  0  0  0  0  0  0  0  0  0
  1  2  1  0
  2  3  1  0
  2  5  1  0
  3  4  2  0
  6  7  1  0
  7  8  1  0
  7 10  1  0
  8  9  2  0
 18 17  1  0
 17 15  1  0
 17 19  1  0
 15 16  1  0
 15 14  1  0
 19 20  1  0
 20 21  2  0
 20 22  1  0
 21 23  1  0
 22 24  2  0
 23 25  2  0
 24 25  1  0
 13 11  1  0
 11 12  2  0
 26 27  1  0
 27 28  1  0
 27 30  1  0
 28 29  2  0
 30 31  1  0
 30 32  1  0
 33 34  1  0
 34 35  1  0
 34 37  1  0
 35 36  2  0
 37 38  1  0
 37 39  1  0
 40 41  1  0
  3  6  1  0
  8 18  1  0
 14 13  1  0
 11 26  1  0
 28 33  1  0
 35 41  1  0
  1 42  1  0
  1 43  1  0
  2 44  1  0
  5 45  1  0
  5 46  1  0
  5 47  1  0
  6 48  1  0
  7 49  1  0
 10 50  1  0
 10 51  1  0
 10 52  1  0
 13 53  1  0
 13 54  1  0
 14 55  1  0
 14 56  1  0
 15 57  1  0
 16 58  1  0
 17 59  1  0
 18 60  1  0
 19 61  1  0
 19 62  1  0
 21 63  1  0
 22 64  1  0
 23 65  1  0
 24 66  1  0
 25 67  1  0
 26 68  1  0
 27 69  1  0
 30 70  1  0
 31 71  1  0
 31 72  1  0
 31 73  1  0
 32 74  1  0
 32 75  1  0
 32 76  1  0
 33 77  1  0
 34 78  1  0
 37 79  1  0
 38 80  1  0
 38 81  1  0
 38 82  1  0
 39 83  1  0
 39 84  1  0
 39 85  1  0
 40 86  1  0
 40 87  1  0
 40 88  1  0
A    1
N
A    2
CA
A    3
C
A    4
O
A    5
CB
A    6
N1
A    7
CA1
A    8
C1
A    9
O1
A   10
CB1
A   11
C3
A   12
O2
A   13
CA3
A   14
CM
A   15
C2
A   16
OS
A   17
CA2
A   18
N2
A   19
CB2
A   20
CG
A   21
CD1
A   22
CD2
A   23
CE1
A   24
CE2
A   25
CZ
A   26
N4
A   27
CA4
A   28
C4
A   29
O3
A   30
CB3
A   31
CG1
A   32
CG2
A   33
N5
A   34
CA5
A   35
C5
A   36
O4
A   37
CB4
A   38
CG11
A   39
CG21
A   40
C6
A   41
O5
M  END
