1SJ0_E4D_A_600
     RDKit          3D

 62 66  0  0  0  0  0  0  0  0999 V2000
   31.1720   -0.2380   28.7070 C   0  0  0  0  0  0  0  0  0  0  0  0
   31.2760   -1.6690   28.1770 C   0  0  0  0  0  0  0  0  0  0  0  0
   30.0500   -2.3690   28.4310 O   0  0  0  0  0  0  0  0  0  0  0  0
   28.8610   -1.9480   27.9670 C   0  0  0  0  0  0  0  0  0  0  0  0
   27.9320   -2.9010   27.5800 C   0  0  0  0  0  0  0  0  0  0  0  0
   26.7240   -2.5350   27.0030 C   0  0  0  0  0  0  0  0  0  0  0  0
   26.3460   -1.1830   27.0310 C   0  0  0  0  0  0  0  0  0  0  0  0
   25.1280   -0.8570   26.5840 O   0  0  0  0  0  0  0  0  0  0  0  0
   27.2840   -0.2150   27.4260 C   0  0  0  0  0  0  0  0  0  0  0  0
   28.5550   -0.5630   27.8540 C   0  0  0  0  0  0  0  0  0  0  0  0
   29.6080    0.4570   28.1910 S   0  0  0  0  0  0  0  0  0  0  0  0
   32.4700    0.4800   28.4200 C   0  0  0  0  0  0  0  0  0  0  0  0
   32.6800    1.3800   27.3730 C   0  0  0  0  0  0  0  0  0  0  0  0
   33.9320    1.9870   27.2050 C   0  0  0  0  0  0  0  0  0  0  0  0
   34.9760    1.6980   28.0990 C   0  0  0  0  0  0  0  0  0  0  0  0
   36.1910    2.2510   27.9230 O   0  0  0  0  0  0  0  0  0  0  0  0
   34.7830    0.7840   29.1430 C   0  0  0  0  0  0  0  0  0  0  0  0
   33.5190    0.2030   29.3110 C   0  0  0  0  0  0  0  0  0  0  0  0
   31.6300   -1.8400   26.7020 C   0  0  0  0  0  0  0  0  0  0  0  0
   32.6480   -2.7670   26.4480 C   0  0  0  0  0  0  0  0  0  0  0  0
   33.0730   -3.0500   25.1480 C   0  0  0  0  0  0  0  0  0  0  0  0
   32.4960   -2.3520   24.0600 C   0  0  0  0  0  0  0  0  0  0  0  0
   31.4550   -1.4710   24.2950 C   0  0  0  0  0  0  0  0  0  0  0  0
   31.0470   -1.1710   25.6230 C   0  0  0  0  0  0  0  0  0  0  0  0
   32.9110   -2.5720   22.7850 O   0  0  0  0  0  0  0  0  0  0  0  0
   34.0020   -3.4000   22.3460 C   0  0  0  0  0  0  0  0  0  0  0  0
   33.6550   -4.3840   21.2060 C   0  0  0  0  0  0  0  0  0  0  0  0
   32.8000   -4.0120   20.0540 N   0  0  0  0  0  0  0  0  0  0  0  0
   31.5970   -3.2410   20.3190 C   0  0  0  0  0  0  0  0  0  0  0  0
   30.5570   -3.2640   19.1770 C   0  0  0  0  0  0  0  0  0  0  0  0
   31.1870   -2.9120   17.8130 C   0  0  0  0  0  0  0  0  0  0  0  0
   32.4130   -3.8420   17.6170 C   0  0  0  0  0  0  0  0  0  0  0  0
   33.4340   -3.6740   18.7760 C   0  0  0  0  0  0  0  0  0  0  0  0
   31.1028   -0.1432   29.8007 H   0  0  0  0  0  0  0  0  0  0  0  0
   32.1332   -2.0854   28.7263 H   0  0  0  0  0  0  0  0  0  0  0  0
   28.1563   -3.9670   27.7330 H   0  0  0  0  0  0  0  0  0  0  0  0
   26.0756   -3.2891   26.5331 H   0  0  0  0  0  0  0  0  0  0  0  0
   24.4006   -0.6623   27.2267 H   0  0  0  0  0  0  0  0  0  0  0  0
   27.0020    0.8478   27.3947 H   0  0  0  0  0  0  0  0  0  0  0  0
   31.8600    1.6133   26.6779 H   0  0  0  0  0  0  0  0  0  0  0  0
   34.0968    2.6888   26.3741 H   0  0  0  0  0  0  0  0  0  0  0  0
   36.7397    2.5007   28.7083 H   0  0  0  0  0  0  0  0  0  0  0  0
   35.6107    0.5265   29.8202 H   0  0  0  0  0  0  0  0  0  0  0  0
   33.3458   -0.4812   30.1547 H   0  0  0  0  0  0  0  0  0  0  0  0
   33.1248   -3.2852   27.2931 H   0  0  0  0  0  0  0  0  0  0  0  0
   33.8495   -3.8088   24.9711 H   0  0  0  0  0  0  0  0  0  0  0  0
   30.9386   -0.9986   23.4463 H   0  0  0  0  0  0  0  0  0  0  0  0
   30.2716   -0.4115   25.8014 H   0  0  0  0  0  0  0  0  0  0  0  0
   34.8105   -2.7419   21.9949 H   0  0  0  0  0  0  0  0  0  0  0  0
   34.2873   -4.0178   23.2103 H   0  0  0  0  0  0  0  0  0  0  0  0
   34.6165   -4.7053   20.7791 H   0  0  0  0  0  0  0  0  0  0  0  0
   33.0173   -5.1120   21.7287 H   0  0  0  0  0  0  0  0  0  0  0  0
   31.1219   -3.6460   21.2246 H   0  0  0  0  0  0  0  0  0  0  0  0
   31.9149   -2.1940   20.4317 H   0  0  0  0  0  0  0  0  0  0  0  0
   30.1187   -4.2711   19.1163 H   0  0  0  0  0  0  0  0  0  0  0  0
   29.7897   -2.5085   19.4015 H   0  0  0  0  0  0  0  0  0  0  0  0
   30.4566   -3.0772   17.0072 H   0  0  0  0  0  0  0  0  0  0  0  0
   31.4916   -1.8554   17.7859 H   0  0  0  0  0  0  0  0  0  0  0  0
   32.0703   -4.8869   17.5888 H   0  0  0  0  0  0  0  0  0  0  0  0
   32.9088   -3.5719   16.6730 H   0  0  0  0  0  0  0  0  0  0  0  0
   33.7824   -2.6311   18.8065 H   0  0  0  0  0  0  0  0  0  0  0  0
   34.2874   -4.3470   18.6065 H   0  0  0  0  0  0  0  0  0  0  0  0
  1  2  1  0
  1 11  1  0
  1 12  1  0
  2  3  1  0
  2 19  1  0
  3  4  1  0
  4  5  2  0
  4 10  1  0
  5  6  1  0
  6  7  2  0
  7  8  1  0
  7  9  1  0
  9 10  2  0
 10 11  1  0
 12 13  2  0
 12 18  1  0
 13 14  1  0
 14 15  2  0
 15 16  1  0
 15 17  1  0
 17 18  2  0
 19 20  2  0
 19 24  1  0
 20 21  1  0
 21 22  2  0
 22 23  1  0
 22 25  1  0
 23 24  2  0
 25 26  1  0
 26 27  1  0
 27 28  1  0
 28 29  1  0
 28 33  1  0
 29 30  1  0
 30 31  1  0
 31 32  1  0
 32 33  1  0
  1 34  1  0
  2 35  1  0
  5 36  1  0
  6 37  1  0
  8 38  1  0
  9 39  1  0
 13 40  1  0
 14 41  1  0
 16 42  1  0
 17 43  1  0
 18 44  1  0
 20 45  1  0
 21 46  1  0
 23 47  1  0
 24 48  1  0
 26 49  1  0
 26 50  1  0
 27 51  1  0
 27 52  1  0
 29 53  1  0
 29 54  1  0
 30 55  1  0
 30 56  1  0
 31 57  1  0
 31 58  1  0
 32 59  1  0
 32 60  1  0
 33 61  1  0
 33 62  1  0
A    1
C1
A    2
C2
A    3
O3
A    4
C4
A    5
C5
A    6
C6
A    7
C7
A    8
O8
A    9
C9
A   10
C10
A   11
S11
A   12
C12
A   13
C13
A   14
C14
A   15
C15
A   16
O16
A   17
C17
A   18
C18
A   19
C19
A   20
C20
A   21
C21
A   22
C22
A   23
C23
A   24
C24
A   25
O25
A   26
C26
A   27
C27
A   28
N28
A   29
C29
A   30
C30
A   31
C31
A   32
C32
A   33
C33
M  END
