1SP4_EP2_B_48
     RDKit          3D

 82 83  0  0  0  0  0  0  0  0999 V2000
   12.9790   20.2590   68.8650 C   0  0  0  0  0  0  0  0  0  0  0  0
   14.4360   20.1950   69.1180 O   0  0  0  0  0  0  0  0  0  0  0  0
   17.2080   20.7140   67.9080 N   0  0  0  0  0  0  0  0  0  0  0  0
   16.7800   20.9760   69.2690 C   0  0  0  0  0  0  0  0  0  0  0  0
   15.2940   21.2140   69.3580 C   0  0  0  0  0  0  0  0  0  0  0  0
   14.8650   22.3240   69.6030 O   0  0  0  0  0  0  0  0  0  0  0  0
   18.8870   19.9150   65.7010 N   0  0  0  0  0  0  0  0  0  0  0  0
   18.2710   21.2290   65.7990 C   0  0  0  0  0  0  0  0  0  0  0  0
   17.9030   21.6150   67.2220 C   0  0  0  0  0  0  0  0  0  0  0  0
   18.3300   22.6620   67.7290 O   0  0  0  0  0  0  0  0  0  0  0  0
   22.0430   18.3070   65.2790 N   0  0  0  0  0  0  0  0  0  0  0  0
   20.6830   18.3200   65.8500 C   0  0  0  0  0  0  0  0  0  0  0  0
   20.1640   19.7320   66.0170 C   0  0  0  0  0  0  0  0  0  0  0  0
   20.9140   20.6490   66.3530 O   0  0  0  0  0  0  0  0  0  0  0  0
   20.6480   17.6670   67.2100 C   0  0  0  0  0  0  0  0  0  0  0  0
   20.6070   16.1540   67.3090 C   0  0  0  0  0  0  0  0  0  0  0  0
   20.6960   15.8070   68.7920 C   0  0  0  0  0  0  0  0  0  0  0  0
   19.2980   15.5940   66.7400 C   0  0  0  0  0  0  0  0  0  0  0  0
   21.3730   17.6470   63.2430 O   0  0  0  0  0  0  0  0  0  0  0  0
   22.2860   17.8680   64.0500 C   0  0  0  0  0  0  0  0  0  0  0  0
   23.7370   17.9270   63.5770 C   0  0  0  0  0  0  0  0  0  0  0  0
   24.5530   18.9680   64.1370 O   0  0  0  0  0  0  0  0  0  0  0  0
   24.4690   16.5680   63.6730 C   0  0  0  0  0  0  0  0  0  0  0  0
   25.8400   16.8060   63.0690 C   0  0  0  0  0  0  0  0  0  0  0  0
   26.0460   16.6560   61.8650 O   0  0  0  0  0  0  0  0  0  0  0  0
   26.7720   17.1970   63.9300 N   0  0  0  0  0  0  0  0  0  0  0  0
   28.0920   17.6180   63.5120 C   0  0  0  0  0  0  0  0  0  0  0  0
   28.9880   16.6400   62.7980 C   0  0  0  0  0  0  0  0  0  0  0  0
   28.8670   15.4300   62.9480 O   0  0  0  0  0  0  0  0  0  0  0  0
   28.8530   18.2090   64.7030 C   0  0  0  0  0  0  0  0  0  0  0  0
   29.5700   17.2210   65.6250 C   0  0  0  0  0  0  0  0  0  0  0  0
   30.4290   17.9620   66.6490 C   0  0  0  0  0  0  0  0  0  0  0  0
   28.5680   16.3350   66.3340 C   0  0  0  0  0  0  0  0  0  0  0  0
   29.9120   17.1730   62.0030 N   0  0  0  0  0  0  0  0  0  0  0  0
   30.8760   16.3660   61.2500 C   0  0  0  0  0  0  0  0  0  0  0  0
   32.1590   16.1950   62.1090 C   0  0  0  0  0  0  0  0  0  0  0  0
   32.3380   16.9540   63.0680 O   0  0  0  0  0  0  0  0  0  0  0  0
   31.1140   17.2280   60.0030 C   0  0  0  0  0  0  0  0  0  0  0  0
   30.9970   18.6270   60.5070 C   0  0  0  0  0  0  0  0  0  0  0  0
   29.8530   18.5720   61.5060 C   0  0  0  0  0  0  0  0  0  0  0  0
   32.9540   15.2890   61.8460 O   0  0  0  0  0  0  0  0  0  0  0  0
   12.4410   20.2826   69.8242 H   0  0  0  0  0  0  0  0  0  0  0  0
   12.7460   21.1682   68.2914 H   0  0  0  0  0  0  0  0  0  0  0  0
   12.6672   19.3737   68.2914 H   0  0  0  0  0  0  0  0  0  0  0  0
   16.9692   19.8148   67.4661 H   0  0  0  0  0  0  0  0  0  0  0  0
   17.0391   20.1099   69.8957 H   0  0  0  0  0  0  0  0  0  0  0  0
   17.2912   21.8859   69.6166 H   0  0  0  0  0  0  0  0  0  0  0  0
   18.3240   19.1138   65.3815 H   0  0  0  0  0  0  0  0  0  0  0  0
   18.9766   21.9757   65.4059 H   0  0  0  0  0  0  0  0  0  0  0  0
   17.3373   21.1956   65.2184 H   0  0  0  0  0  0  0  0  0  0  0  0
   22.8281   18.6490   65.8514 H   0  0  0  0  0  0  0  0  0  0  0  0
   20.0524   17.7627   65.1417 H   0  0  0  0  0  0  0  0  0  0  0  0
   21.5482   17.9990   67.7480 H   0  0  0  0  0  0  0  0  0  0  0  0
   19.6778   17.9802   67.6231 H   0  0  0  0  0  0  0  0  0  0  0  0
   21.4353   15.7176   66.7316 H   0  0  0  0  0  0  0  0  0  0  0  0
   20.4669   16.7001   69.3919 H   0  0  0  0  0  0  0  0  0  0  0  0
   19.9726   15.0122   69.0267 H   0  0  0  0  0  0  0  0  0  0  0  0
   21.7126   15.4585   69.0267 H   0  0  0  0  0  0  0  0  0  0  0  0
   18.6311   15.3087   67.5670 H   0  0  0  0  0  0  0  0  0  0  0  0
   18.8086   16.3615   66.1224 H   0  0  0  0  0  0  0  0  0  0  0  0
   19.5151   14.7100   66.1224 H   0  0  0  0  0  0  0  0  0  0  0  0
   23.6099   18.1949   62.5177 H   0  0  0  0  0  0  0  0  0  0  0  0
   24.2240   15.5051   63.8156 H   0  0  0  0  0  0  0  0  0  0  0  0
   26.5467   17.2008   64.9350 H   0  0  0  0  0  0  0  0  0  0  0  0
   27.8544   18.3520   62.7279 H   0  0  0  0  0  0  0  0  0  0  0  0
   29.6098   18.9004   64.3039 H   0  0  0  0  0  0  0  0  0  0  0  0
   28.0822   18.6798   65.3309 H   0  0  0  0  0  0  0  0  0  0  0  0
   30.2264   16.5913   65.0065 H   0  0  0  0  0  0  0  0  0  0  0  0
   30.1089   17.6859   67.6645 H   0  0  0  0  0  0  0  0  0  0  0  0
   31.4848   17.6867   66.5098 H   0  0  0  0  0  0  0  0  0  0  0  0
   30.3115   19.0468   66.5098 H   0  0  0  0  0  0  0  0  0  0  0  0
   28.6892   16.4422   67.4220 H   0  0  0  0  0  0  0  0  0  0  0  0
   27.5484   16.6324   66.0476 H   0  0  0  0  0  0  0  0  0  0  0  0
   28.7383   15.2867   66.0476 H   0  0  0  0  0  0  0  0  0  0  0  0
   30.5479   15.3483   60.9920 H   0  0  0  0  0  0  0  0  0  0  0  0
   32.1151   17.0447   59.5856 H   0  0  0  0  0  0  0  0  0  0  0  0
   30.4032   17.0079   59.1929 H   0  0  0  0  0  0  0  0  0  0  0  0
   31.9288   18.9432   60.9987 H   0  0  0  0  0  0  0  0  0  0  0  0
   30.8148   19.3509   59.6990 H   0  0  0  0  0  0  0  0  0  0  0  0
   28.8898   18.7775   61.0161 H   0  0  0  0  0  0  0  0  0  0  0  0
   29.9397   19.3211   62.3068 H   0  0  0  0  0  0  0  0  0  0  0  0
   33.3935   14.7881   62.5781 H   0  0  0  0  0  0  0  0  0  0  0  0
  1  2  1  0
  2  5  1  0
  3  4  1  0
  3  9  1  0
  4  5  1  0
  5  6  2  0
  7  8  1  0
  7 13  1  0
  8  9  1  0
  9 10  2  0
 11 12  1  0
 11 20  1  0
 12 13  1  0
 12 15  1  0
 13 14  2  0
 15 16  1  0
 16 17  1  0
 16 18  1  0
 26 27  1  0
 26 24  1  0
 27 28  1  0
 27 30  1  0
 28 29  2  0
 28 34  1  0
 30 31  1  0
 31 32  1  0
 31 33  1  0
 34 35  1  0
 34 40  1  0
 35 36  1  0
 35 38  1  0
 36 37  2  0
 36 41  1  0
 38 39  1  0
 39 40  1  0
 19 20  2  0
 20 21  1  0
 21 22  1  0
 21 23  1  0
 22 23  1  0
 23 24  1  0
 24 25  2  0
  1 42  1  0
  1 43  1  0
  1 44  1  0
  3 45  1  0
  4 46  1  0
  4 47  1  0
  7 48  1  0
  8 49  1  0
  8 50  1  0
 11 51  1  0
 12 52  1  0
 15 53  1  0
 15 54  1  0
 16 55  1  0
 17 56  1  0
 17 57  1  0
 17 58  1  0
 18 59  1  0
 18 60  1  0
 18 61  1  0
 21 62  1  0
 23 63  1  0
 26 64  1  0
 27 65  1  0
 30 66  1  0
 30 67  1  0
 31 68  1  0
 32 69  1  0
 32 70  1  0
 32 71  1  0
 33 72  1  0
 33 73  1  0
 33 74  1  0
 35 75  1  0
 38 76  1  0
 38 77  1  0
 39 78  1  0
 39 79  1  0
 40 80  1  0
 40 81  1  0
 41 82  1  0
A    1
CB
A    2
OXT
A    3
N
A    4
CA
A    5
C
A    6
O
A    7
N1
A    8
CA1
A    9
C1
A   10
O1
A   11
N2
A   12
CA2
A   13
C2
A   14
O2
A   15
CB1
A   16
CG
A   17
CD1
A   18
CD2
A   19
O11
A   20
C11
A   21
C21
A   22
O21
A   23
C31
A   24
C41
A   25
O41
A   26
N3
A   27
CA3
A   28
C3
A   29
O3
A   30
CB2
A   31
CG1
A   32
CD11
A   33
CD21
A   34
N4
A   35
CA4
A   36
C4
A   37
O4
A   38
CB3
A   39
CG2
A   40
CD
A   41
OXT1
M  END
