1SQO_UI2_A_1001
     RDKit          3D

 33 35  0  0  0  0  0  0  0  0999 V2000
   22.8480   15.6040   33.4860 C   0  0  0  0  0  0  0  0  0  0  0  0
   21.5630   15.6150   32.9250 C   0  0  0  0  0  0  0  0  0  0  0  0
   20.6830   16.7430   33.1310 C   0  0  0  0  0  0  0  0  0  0  0  0
   21.1830   17.8310   33.9200 C   0  0  0  0  0  0  0  0  0  0  0  0
   22.4840   17.8600   34.4720 C   0  0  0  0  0  0  0  0  0  0  0  0
   23.3140   16.7200   34.2580 C   0  0  0  0  0  0  0  0  0  0  0  0
   19.3950   16.7020   32.5920 C   0  0  0  0  0  0  0  0  0  0  0  0
   18.5190   17.7660   32.9440 C   0  0  0  0  0  0  0  0  0  0  0  0
   18.9390   18.8490   33.7780 C   0  0  0  0  0  0  0  0  0  0  0  0
   20.2510   18.9260   34.2320 C   0  0  0  0  0  0  0  0  0  0  0  0
   23.0230   18.9790   35.1990 N   0  0  0  0  0  0  0  0  0  0  0  0
   23.5730   18.9350   36.4770 C   0  0  0  0  0  0  0  0  0  0  0  0
   23.5420   17.8270   37.2840 N   0  0  0  0  0  0  0  0  0  0  0  0
   24.0180   17.7620   38.5550 C   0  0  0  0  0  0  0  0  0  0  0  0
   24.6230   18.9260   39.1790 C   0  0  0  0  0  0  0  0  0  0  0  0
   24.5650   20.0600   38.2700 C   0  0  0  0  0  0  0  0  0  0  0  0
   24.1230   20.0870   37.0400 N   0  0  0  0  0  0  0  0  0  0  0  0
   18.1090   19.8910   34.1900 C   0  0  0  0  0  0  0  0  0  0  0  0
   16.8030   19.7790   34.1600 N   0  0  0  0  0  0  0  0  0  0  0  0
   18.5430   21.0900   34.6510 N   0  0  0  0  0  0  0  0  0  0  0  0
   23.5033   14.7338   33.3332 H   0  0  0  0  0  0  0  0  0  0  0  0
   21.2222   14.7591   32.3239 H   0  0  0  0  0  0  0  0  0  0  0  0
   24.3251   16.6961   34.6907 H   0  0  0  0  0  0  0  0  0  0  0  0
   19.0737   15.8864   31.9275 H   0  0  0  0  0  0  0  0  0  0  0  0
   17.4871   17.7554   32.5631 H   0  0  0  0  0  0  0  0  0  0  0  0
   20.5879   19.7945   34.8170 H   0  0  0  0  0  0  0  0  0  0  0  0
   22.9997   19.8962   34.7309 H   0  0  0  0  0  0  0  0  0  0  0  0
   23.9445   16.8191   39.1167 H   0  0  0  0  0  0  0  0  0  0  0  0
   25.0598   18.9467   40.1883 H   0  0  0  0  0  0  0  0  0  0  0  0
   24.9401   21.0147   38.6674 H   0  0  0  0  0  0  0  0  0  0  0  0
   16.2116   20.5633   34.4698 H   0  0  0  0  0  0  0  0  0  0  0  0
   18.6046   21.2602   35.6650 H   0  0  0  0  0  0  0  0  0  0  0  0
   18.8111   21.8306   33.9872 H   0  0  0  0  0  0  0  0  0  0  0  0
  1  2  2  0
  1  6  1  0
  2  3  1  0
  3  4  2  0
  3  7  1  0
  4  5  1  0
  4 10  1  0
  5  6  2  0
  5 11  1  0
  7  8  2  0
  8  9  1  0
  9 10  2  0
  9 18  1  0
 11 12  1  0
 12 13  2  0
 12 17  1  0
 13 14  1  0
 14 15  2  0
 15 16  1  0
 16 17  2  0
 18 19  2  3
 18 20  1  0
  1 21  1  0
  2 22  1  0
  6 23  1  0
  7 24  1  0
  8 25  1  0
 10 26  1  0
 11 27  1  0
 14 28  1  0
 15 29  1  0
 16 30  1  0
 19 31  1  0
 20 32  1  0
 20 33  1  0
A    1
C1
A    2
C2
A    3
C3
A    4
C4
A    5
C5
A    6
C6
A    7
C10
A    8
C11
A    9
C12
A   10
C13
A   11
N17
A   12
C18
A   13
N19
A   14
C20
A   15
C21
A   16
C22
A   17
N23
A   18
C28
A   19
N29
A   20
N30
M  END
