1SRJ_NAB_A_142
     RDKit          3D

 34 36  0  0  0  0  0  0  0  0999 V2000
   33.5660   12.1170   -5.5440 C   0  0  0  0  0  0  0  0  0  0  0  0
   34.7230   12.0340   -4.7900 C   0  0  0  0  0  0  0  0  0  0  0  0
   34.8700   11.0370   -3.8150 C   0  0  0  0  0  0  0  0  0  0  0  0
   33.8130   10.1450   -3.6160 C   0  0  0  0  0  0  0  0  0  0  0  0
   32.6470   10.2200   -4.3590 C   0  0  0  0  0  0  0  0  0  0  0  0
   32.5050   11.2220   -5.3310 C   0  0  0  0  0  0  0  0  0  0  0  0
   32.1130   14.3990   -8.0550 C   0  0  0  0  0  0  0  0  0  0  0  0
   33.0570   15.4400   -8.1010 C   0  0  0  0  0  0  0  0  0  0  0  0
   32.8800   16.4810   -9.0190 C   0  0  0  0  0  0  0  0  0  0  0  0
   31.7750   16.4910   -9.8770 C   0  0  0  0  0  0  0  0  0  0  0  0
   30.8270   15.4580   -9.8060 C   0  0  0  0  0  0  0  0  0  0  0  0
   29.7170   15.4720  -10.6540 C   0  0  0  0  0  0  0  0  0  0  0  0
   28.7640   14.4560  -10.5620 C   0  0  0  0  0  0  0  0  0  0  0  0
   28.9170   13.4340   -9.6310 C   0  0  0  0  0  0  0  0  0  0  0  0
   30.0650   13.3820   -8.8200 C   0  0  0  0  0  0  0  0  0  0  0  0
   30.9950   14.4200   -8.8970 C   0  0  0  0  0  0  0  0  0  0  0  0
   35.8740   13.0240   -5.0200 C   0  0  0  0  0  0  0  0  0  0  0  0
   33.4140   13.1770   -6.5650 N   0  0  0  0  0  0  0  0  0  0  0  0
   32.2810   13.2870   -7.1150 N   0  0  0  0  0  0  0  0  0  0  0  0
   35.7840   13.8560   -5.9200 O   0  0  0  0  0  0  0  0  0  0  0  0
   36.9650   12.9190   -4.1440 O   0  0  0  0  0  0  0  0  0  0  0  0
   31.5830   17.5530  -10.8190 O   0  0  0  0  0  0  0  0  0  0  0  0
   35.7934   10.9591   -3.2222 H   0  0  0  0  0  0  0  0  0  0  0  0
   33.9098    9.3626   -2.8489 H   0  0  0  0  0  0  0  0  0  0  0  0
   31.8356    9.4973   -4.1880 H   0  0  0  0  0  0  0  0  0  0  0  0
   31.5776   11.3051   -5.9167 H   0  0  0  0  0  0  0  0  0  0  0  0
   33.9238   15.4361   -7.4238 H   0  0  0  0  0  0  0  0  0  0  0  0
   33.6153   17.2978   -9.0665 H   0  0  0  0  0  0  0  0  0  0  0  0
   29.5944   16.2797  -11.3907 H   0  0  0  0  0  0  0  0  0  0  0  0
   27.8888   14.4637  -11.2283 H   0  0  0  0  0  0  0  0  0  0  0  0
   28.1379   12.6642   -9.5287 H   0  0  0  0  0  0  0  0  0  0  0  0
   30.2274   12.5363   -8.1356 H   0  0  0  0  0  0  0  0  0  0  0  0
   36.8171   12.9332   -3.1652 H   0  0  0  0  0  0  0  0  0  0  0  0
   31.4164   18.4748  -10.4986 H   0  0  0  0  0  0  0  0  0  0  0  0
  1  2  2  0
  1  6  1  0
  1 18  1  0
  2  3  1  0
  2 17  1  0
  3  4  2  0
  4  5  1  0
  5  6  2  0
  7  8  2  0
  7 16  1  0
  7 19  1  0
  8  9  1  0
  9 10  2  0
 10 11  1  0
 10 22  1  0
 11 12  1  0
 11 16  2  0
 12 13  2  0
 13 14  1  0
 14 15  2  0
 15 16  1  0
 17 20  2  0
 17 21  1  0
 18 19  2  0
  3 23  1  0
  4 24  1  0
  5 25  1  0
  6 26  1  0
  8 27  1  0
  9 28  1  0
 12 29  1  0
 13 30  1  0
 14 31  1  0
 15 32  1  0
 21 33  1  0
 22 34  1  0
A    1
C1
A    2
C2
A    3
C3
A    4
C4
A    5
C5
A    6
C6
A    7
C1'
A    8
C2'
A    9
C3'
A   10
C4'
A   11
C4A
A   12
C5'
A   13
C6'
A   14
C7'
A   15
C8'
A   16
C8A
A   17
C
A   18
N1
A   19
N1'
A   20
O
A   21
OXT
A   22
O4'
M  END
