1SUO_CPZ_A_600
     RDKit          3D

 19 20  0  0  0  0  0  0  0  0999 V2000
  -17.7410   89.4810    5.3500 C   0  0  0  0  0  0  0  0  0  0  0  0
  -16.6500   88.8610    4.7440 C   0  0  0  0  0  0  0  0  0  0  0  0
  -16.5790   88.7450    3.3580 C   0  0  0  0  0  0  0  0  0  0  0  0
  -17.6190   89.2440    2.5760 C   0  0  0  0  0  0  0  0  0  0  0  0
  -18.7070   89.8650    3.1890 C   0  0  0  0  0  0  0  0  0  0  0  0
  -18.7800   89.9930    4.5740 C   0  0  0  0  0  0  0  0  0  0  0  0
  -19.8780   90.6260    5.1560 C   0  0  0  0  0  0  0  0  0  0  0  0
  -20.3400   90.4700    6.3940 C   0  0  0  0  0  0  0  0  0  0  0  0
  -21.4290   91.2200    6.5600 N   0  0  0  0  0  0  0  0  0  0  0  0
  -21.6370   91.8490    5.4060 C   0  0  0  0  0  0  0  0  0  0  0  0
  -20.6890   91.4880    4.5480 N   0  0  0  0  0  0  0  0  0  0  0  0
  -15.1590   88.1010    2.6040 Cl  0  0  0  0  0  0  0  0  0  0  0  0
  -17.7827   89.5669    6.4459 H   0  0  0  0  0  0  0  0  0  0  0  0
  -15.8369   88.4593    5.3665 H   0  0  0  0  0  0  0  0  0  0  0  0
  -17.5820   89.1486    1.4808 H   0  0  0  0  0  0  0  0  0  0  0  0
  -19.5230   90.2612    2.5668 H   0  0  0  0  0  0  0  0  0  0  0  0
  -19.8922   89.8220    7.1619 H   0  0  0  0  0  0  0  0  0  0  0  0
  -22.4575   92.5512    5.1971 H   0  0  0  0  0  0  0  0  0  0  0  0
  -20.5974   91.8192    3.5770 H   0  0  0  0  0  0  0  0  0  0  0  0
  1  2  2  0
  1  6  1  0
  2  3  1  0
  3  4  2  0
  3 12  1  0
  4  5  1  0
  5  6  2  0
  6  7  1  0
  7  8  2  0
  7 11  1  0
  8  9  1  0
  9 10  2  0
 10 11  1  0
  1 13  1  0
  2 14  1  0
  4 15  1  0
  5 16  1  0
  8 17  1  0
 10 18  1  0
 11 19  1  0
A    1
C11
A    2
C10
A    3
C9
A    4
C8
A    5
C7
A    6
C6
A    7
C4
A    8
C2
A    9
N1
A   10
C5
A   11
N3
A   12
CL
M  END
