1SUQ_185_A_600
     RDKit          3D

 45 47  0  0  0  0  0  0  0  0999 V2000
  144.7080  -24.5500   73.6240 C   0  0  0  0  0  0  0  0  0  0  0  0
  144.3110  -23.9860   72.4180 O   0  0  0  0  0  0  0  0  0  0  0  0
  143.9670  -24.2750   74.8090 C   0  0  0  0  0  0  0  0  0  0  0  0
  142.7560  -23.3380   74.8150 C   0  0  0  0  0  0  0  0  0  0  0  0
  144.3570  -24.8560   76.0200 C   0  0  0  0  0  0  0  0  0  0  0  0
  145.4610  -25.7240   76.0670 C   0  0  0  0  0  0  0  0  0  0  0  0
  146.2100  -25.9990   74.9030 C   0  0  0  0  0  0  0  0  0  0  0  0
  145.8360  -25.4210   73.6740 C   0  0  0  0  0  0  0  0  0  0  0  0
  146.6590  -25.7200   72.4170 C   0  0  0  0  0  0  0  0  0  0  0  0
  143.3270  -24.7330   71.7060 C   0  0  0  0  0  0  0  0  0  0  0  0
  142.8260  -25.9170   72.1760 N   0  0  0  0  0  0  0  0  0  0  0  0
  141.8830  -26.6200   71.4830 C   0  0  0  0  0  0  0  0  0  0  0  0
  141.3700  -27.7970   71.9280 N   0  0  0  0  0  0  0  0  0  0  0  0
  141.4440  -26.1300   70.2920 N   0  0  0  0  0  0  0  0  0  0  0  0
  141.9170  -24.9540   69.7780 C   0  0  0  0  0  0  0  0  0  0  0  0
  141.3650  -24.5000   68.4410 C   0  0  0  0  0  0  0  0  0  0  0  0
  142.8850  -24.2410   70.4990 C   0  0  0  0  0  0  0  0  0  0  0  0
  141.8320  -28.6130   72.9380 C   0  0  0  0  0  0  0  0  0  0  0  0
  142.9960  -28.3540   73.7630 C   0  0  0  0  0  0  0  0  0  0  0  0
  143.3830  -29.2810   74.7860 C   0  0  0  0  0  0  0  0  0  0  0  0
  142.5960  -30.4590   74.9830 C   0  0  0  0  0  0  0  0  0  0  0  0
  141.4730  -30.6950   74.1770 C   0  0  0  0  0  0  0  0  0  0  0  0
  141.0980  -29.7830   73.1760 C   0  0  0  0  0  0  0  0  0  0  0  0
  142.9300  -31.4310   75.9870 C   0  0  0  0  0  0  0  0  0  0  0  0
  143.1700  -32.2440   76.7800 N   0  0  0  0  0  0  0  0  0  0  0  0
  145.8070  -26.3070   77.3200 C   0  0  0  0  0  0  0  0  0  0  0  0
  146.0830  -26.7610   78.3400 N   0  0  0  0  0  0  0  0  0  0  0  0
  140.8520  -23.3520   68.2440 O   0  0  0  0  0  0  0  0  0  0  0  0
  143.5880  -22.6790   69.9330 Br  0  0  0  0  0  0  0  0  0  0  0  0
  142.4692  -23.1161   75.8535 H   0  0  0  0  0  0  0  0  0  0  0  0
  143.0140  -22.4020   74.2979 H   0  0  0  0  0  0  0  0  0  0  0  0
  141.9148  -23.8227   74.2979 H   0  0  0  0  0  0  0  0  0  0  0  0
  143.7969  -24.6324   76.9399 H   0  0  0  0  0  0  0  0  0  0  0  0
  147.0848  -26.6639   74.9553 H   0  0  0  0  0  0  0  0  0  0  0  0
  147.6558  -26.0821   72.7089 H   0  0  0  0  0  0  0  0  0  0  0  0
  146.1494  -26.4904   71.8197 H   0  0  0  0  0  0  0  0  0  0  0  0
  146.7628  -24.8021   71.8197 H   0  0  0  0  0  0  0  0  0  0  0  0
  140.5209  -28.1235   71.4451 H   0  0  0  0  0  0  0  0  0  0  0  0
  142.1989  -24.5824   67.7284 H   0  0  0  0  0  0  0  0  0  0  0  0
  140.4816  -25.1482   68.3436 H   0  0  0  0  0  0  0  0  0  0  0  0
  143.5863  -27.4398   73.6028 H   0  0  0  0  0  0  0  0  0  0  0  0
  144.2696  -29.0896   75.4084 H   0  0  0  0  0  0  0  0  0  0  0  0
  140.8773  -31.6069   74.3305 H   0  0  0  0  0  0  0  0  0  0  0  0
  140.2076  -29.9922   72.5649 H   0  0  0  0  0  0  0  0  0  0  0  0
  140.6600  -22.9224   69.1151 H   0  0  0  0  0  0  0  0  0  0  0  0
  1  2  1  0
  1  3  2  0
  1  8  1  0
  2 10  1  0
  3  4  1  0
  3  5  1  0
  5  6  2  0
  6  7  1  0
  6 26  1  0
  7  8  2  0
  8  9  1  0
 10 11  2  0
 10 17  1  0
 11 12  1  0
 12 13  1  0
 12 14  2  0
 13 18  1  0
 14 15  1  0
 15 16  1  0
 15 17  2  0
 16 28  1  0
 17 29  1  0
 18 19  2  0
 18 23  1  0
 19 20  1  0
 20 21  2  0
 21 22  1  0
 21 24  1  0
 22 23  2  0
 24 25  3  0
 26 27  3  0
  4 30  1  0
  4 31  1  0
  4 32  1  0
  5 33  1  0
  7 34  1  0
  9 35  1  0
  9 36  1  0
  9 37  1  0
 13 38  1  0
 16 39  1  0
 16 40  1  0
 19 41  1  0
 20 42  1  0
 22 43  1  0
 23 44  1  0
 28 45  1  0
A    1
C1
A    2
O17
A    3
C2
A    4
C2'
A    5
C3
A    6
C4
A    7
C5
A    8
C6
A    9
C6'
A   10
C13
A   11
N12
A   12
C11
A   13
N5
A   14
N16
A   15
C15
A   16
C18
A   17
C14
A   18
C21
A   19
C22
A   20
C23
A   21
C24
A   22
C25
A   23
C26
A   24
C27
A   25
N27
A   26
C4'
A   27
N4'
A   28
O18
A   29
BR
M  END
