1SVG_I04_A_351
     RDKit          3D

 64 67  0  0  0  0  0  0  0  0999 V2000
   17.1040   12.0200   -3.4210 F   0  0  0  0  0  0  0  0  0  0  0  0
   16.1080   11.7360   -4.2890 C   0  0  0  0  0  0  0  0  0  0  0  0
   16.3970   11.0580   -5.4640 C   0  0  0  0  0  0  0  0  0  0  0  0
   17.7050   10.6830   -5.6690 O   0  0  0  0  0  0  0  0  0  0  0  0
   18.0500   10.2530   -6.9860 C   0  0  0  0  0  0  0  0  0  0  0  0
   15.3430   10.7900   -6.3870 C   0  0  0  0  0  0  0  0  0  0  0  0
   14.0600   11.1780   -6.0920 C   0  0  0  0  0  0  0  0  0  0  0  0
   13.7500   11.8590   -4.8680 C   0  0  0  0  0  0  0  0  0  0  0  0
   12.5420   12.2190   -4.6090 O   0  0  0  0  0  0  0  0  0  0  0  0
   14.8190   12.1390   -3.9570 C   0  0  0  0  0  0  0  0  0  0  0  0
   14.6480   12.8520   -2.7220 C   0  0  0  0  0  0  0  0  0  0  0  0
   15.3150   13.8970   -2.6300 O   0  0  0  0  0  0  0  0  0  0  0  0
   13.8380   12.4570   -1.5650 C   0  0  0  0  0  0  0  0  0  0  0  0
   13.6060   11.0960   -1.2660 C   0  0  0  0  0  0  0  0  0  0  0  0
   12.8840   10.7200   -0.1470 C   0  0  0  0  0  0  0  0  0  0  0  0
   13.3110   13.4530   -0.7260 C   0  0  0  0  0  0  0  0  0  0  0  0
   12.5920   13.0820    0.3790 C   0  0  0  0  0  0  0  0  0  0  0  0
   12.3790   11.7320    0.6820 C   0  0  0  0  0  0  0  0  0  0  0  0
   11.6290   11.4110    1.8830 C   0  0  0  0  0  0  0  0  0  0  0  0
   11.5290   12.2580    2.7560 O   0  0  0  0  0  0  0  0  0  0  0  0
   11.0620   10.1800    2.0090 N   0  0  0  0  0  0  0  0  0  0  0  0
   10.5010    9.6830    3.2260 C   0  0  0  0  0  0  0  0  0  0  0  0
   11.6340    9.2690    4.2060 C   0  0  0  0  0  0  0  0  0  0  0  0
   12.6890    8.3300    3.5950 C   0  0  0  0  0  0  0  0  0  0  0  0
   12.2660    6.8630    3.5850 C   0  0  0  0  0  0  0  0  0  0  0  0
   11.0890    6.6130    2.7100 N   0  0  0  0  0  0  0  0  0  0  0  0
    9.8640    7.0860    3.3330 C   0  0  0  0  0  0  0  0  0  0  0  0
    9.5190    8.5300    2.8830 C   0  0  0  0  0  0  0  0  0  0  0  0
    8.1940    8.7520    3.4130 N   0  0  0  0  0  0  0  0  0  0  0  0
    7.1140    8.9730    2.5750 C   0  0  0  0  0  0  0  0  0  0  0  0
    7.2880    8.9940    1.3350 O   0  0  0  0  0  0  0  0  0  0  0  0
    5.7780    9.1120    3.1660 C   0  0  0  0  0  0  0  0  0  0  0  0
    4.6850    9.0500    2.2800 C   0  0  0  0  0  0  0  0  0  0  0  0
    3.4040    9.1320    2.7500 C   0  0  0  0  0  0  0  0  0  0  0  0
    3.1600    9.2440    4.1130 N   0  0  0  0  0  0  0  0  0  0  0  0
    4.2120    9.2980    5.0180 C   0  0  0  0  0  0  0  0  0  0  0  0
    5.5190    9.2140    4.5440 C   0  0  0  0  0  0  0  0  0  0  0  0
   18.7373    9.3964   -6.9238 H   0  0  0  0  0  0  0  0  0  0  0  0
   17.1387    9.9536   -7.5245 H   0  0  0  0  0  0  0  0  0  0  0  0
   18.5398   11.0777   -7.5245 H   0  0  0  0  0  0  0  0  0  0  0  0
   15.5582   10.2731   -7.3338 H   0  0  0  0  0  0  0  0  0  0  0  0
   13.2534   10.9625   -6.8083 H   0  0  0  0  0  0  0  0  0  0  0  0
   12.2427   12.3082   -3.6696 H   0  0  0  0  0  0  0  0  0  0  0  0
   14.0068   10.3205   -1.9353 H   0  0  0  0  0  0  0  0  0  0  0  0
   12.7113    9.6588    0.0853 H   0  0  0  0  0  0  0  0  0  0  0  0
   13.4737   14.5168   -0.9536 H   0  0  0  0  0  0  0  0  0  0  0  0
   12.1753   13.8571    1.0389 H   0  0  0  0  0  0  0  0  0  0  0  0
   11.0357    9.5710    1.1787 H   0  0  0  0  0  0  0  0  0  0  0  0
    9.9247   10.4620    3.7466 H   0  0  0  0  0  0  0  0  0  0  0  0
   12.1429   10.1817    4.5493 H   0  0  0  0  0  0  0  0  0  0  0  0
   11.1542    8.7128    5.0248 H   0  0  0  0  0  0  0  0  0  0  0  0
   12.8768    8.6452    2.5580 H   0  0  0  0  0  0  0  0  0  0  0  0
   13.5893    8.4028    4.2228 H   0  0  0  0  0  0  0  0  0  0  0  0
   13.1090    6.2557    3.2236 H   0  0  0  0  0  0  0  0  0  0  0  0
   11.9813    6.5913    4.6122 H   0  0  0  0  0  0  0  0  0  0  0  0
   11.2238    7.1061    1.8158 H   0  0  0  0  0  0  0  0  0  0  0  0
    9.0379    6.4166    3.0511 H   0  0  0  0  0  0  0  0  0  0  0  0
   10.0100    7.0895    4.4233 H   0  0  0  0  0  0  0  0  0  0  0  0
    9.5973    8.5732    1.7866 H   0  0  0  0  0  0  0  0  0  0  0  0
    8.0497    8.7458    4.4328 H   0  0  0  0  0  0  0  0  0  0  0  0
    4.8636    8.9346    1.2008 H   0  0  0  0  0  0  0  0  0  0  0  0
    2.5606    9.1091    2.0441 H   0  0  0  0  0  0  0  0  0  0  0  0
    4.0156    9.4057    6.0950 H   0  0  0  0  0  0  0  0  0  0  0  0
    6.3577    9.2276    5.2556 H   0  0  0  0  0  0  0  0  0  0  0  0
  1  2  1  0
  2  3  2  0
  2 10  1  0
  3  4  1  0
  3  6  1  0
  4  5  1  0
  6  7  2  0
  7  8  1  0
  8  9  1  0
  8 10  2  0
 10 11  1  0
 11 12  2  0
 11 13  1  0
 13 14  2  0
 13 16  1  0
 14 15  1  0
 15 18  2  0
 16 17  2  0
 17 18  1  0
 18 19  1  0
 19 20  2  0
 19 21  1  0
 21 22  1  0
 22 23  1  0
 22 28  1  0
 23 24  1  0
 24 25  1  0
 25 26  1  0
 26 27  1  0
 27 28  1  0
 28 29  1  0
 29 30  1  0
 30 31  2  0
 30 32  1  0
 32 33  2  0
 32 37  1  0
 33 34  1  0
 34 35  2  0
 35 36  1  0
 36 37  2  0
  5 38  1  0
  5 39  1  0
  5 40  1  0
  6 41  1  0
  7 42  1  0
  9 43  1  0
 14 44  1  0
 15 45  1  0
 16 46  1  0
 17 47  1  0
 21 48  1  0
 22 49  1  0
 23 50  1  0
 23 51  1  0
 24 52  1  0
 24 53  1  0
 25 54  1  0
 25 55  1  0
 26 56  1  0
 27 57  1  0
 27 58  1  0
 28 59  1  0
 29 60  1  0
 33 61  1  0
 34 62  1  0
 36 63  1  0
 37 64  1  0
A    1
F96
A    2
C76
A    3
C75
A    4
O95
A    5
C98
A    6
C74
A    7
C73
A    8
C72
A    9
O92
A   10
C71
A   11
C61
A   12
O62
A   13
C54
A   14
C55
A   15
C56
A   16
C53
A   17
C52
A   18
C51
A   19
C42
A   20
O43
A   21
N41
A   22
C37
A   23
C36
A   24
C35
A   25
C34
A   26
N33
A   27
C32
A   28
C31
A   29
N23
A   30
C21
A   31
O22
A   32
C14
A   33
C13
A   34
C12
A   35
N11
A   36
C16
A   37
C15
M  END
