1SVH_I08_A_351
     RDKit          3D

 64 67  0  0  0  0  0  0  0  0999 V2000
   36.2690   16.2010    7.8140 F   0  0  0  0  0  0  0  0  0  0  0  0
   35.2130   15.3860    7.9370 C   0  0  0  0  0  0  0  0  0  0  0  0
   35.3840   14.2780    8.6890 C   0  0  0  0  0  0  0  0  0  0  0  0
   36.6400   14.0420    9.2690 O   0  0  0  0  0  0  0  0  0  0  0  0
   36.8280   12.7440    9.8580 C   0  0  0  0  0  0  0  0  0  0  0  0
   34.2510   13.4390    8.8510 C   0  0  0  0  0  0  0  0  0  0  0  0
   33.0460   13.7300    8.2610 C   0  0  0  0  0  0  0  0  0  0  0  0
   32.8590   14.9150    7.4870 C   0  0  0  0  0  0  0  0  0  0  0  0
   31.7240   15.1980    6.9160 O   0  0  0  0  0  0  0  0  0  0  0  0
   33.9910   15.7570    7.3450 C   0  0  0  0  0  0  0  0  0  0  0  0
   33.9010   16.9490    6.5340 C   0  0  0  0  0  0  0  0  0  0  0  0
   34.5150   16.9800    5.4770 O   0  0  0  0  0  0  0  0  0  0  0  0
   33.1070   18.1050    6.8670 C   0  0  0  0  0  0  0  0  0  0  0  0
   32.6400   18.2520    8.2050 C   0  0  0  0  0  0  0  0  0  0  0  0
   31.8910   19.3780    8.5770 C   0  0  0  0  0  0  0  0  0  0  0  0
   32.8100   19.0590    5.8800 C   0  0  0  0  0  0  0  0  0  0  0  0
   32.0510   20.1800    6.2420 C   0  0  0  0  0  0  0  0  0  0  0  0
   31.5830   20.3500    7.5990 C   0  0  0  0  0  0  0  0  0  0  0  0
   30.8150   21.5280    7.9710 C   0  0  0  0  0  0  0  0  0  0  0  0
   30.1810   21.6340    9.1630 C   0  0  0  0  0  0  0  0  0  0  0  0
   29.4440   22.8840    9.5330 C   0  0  0  0  0  0  0  0  0  0  0  0
   30.5220   23.9530    9.9280 C   0  0  0  0  0  0  0  0  0  0  0  0
   31.5550   23.4730   10.9920 C   0  0  0  0  0  0  0  0  0  0  0  0
   30.9480   23.6260   12.3880 C   0  0  0  0  0  0  0  0  0  0  0  0
   29.7770   22.7130   12.5480 N   0  0  0  0  0  0  0  0  0  0  0  0
   28.5170   23.2130   11.9460 C   0  0  0  0  0  0  0  0  0  0  0  0
   28.3080   22.6650   10.5580 C   0  0  0  0  0  0  0  0  0  0  0  0
   27.0710   23.2800   10.0710 N   0  0  0  0  0  0  0  0  0  0  0  0
   25.9750   22.5110    9.6990 C   0  0  0  0  0  0  0  0  0  0  0  0
   26.1490   21.3000    9.6080 O   0  0  0  0  0  0  0  0  0  0  0  0
   24.6550   23.0800    9.4930 C   0  0  0  0  0  0  0  0  0  0  0  0
   23.5840   22.1760    9.3710 C   0  0  0  0  0  0  0  0  0  0  0  0
   22.2970   22.6250    9.2180 C   0  0  0  0  0  0  0  0  0  0  0  0
   22.0460   23.9910    9.1270 N   0  0  0  0  0  0  0  0  0  0  0  0
   23.0790   24.9140    9.2220 C   0  0  0  0  0  0  0  0  0  0  0  0
   24.3860   24.4690    9.4110 C   0  0  0  0  0  0  0  0  0  0  0  0
   36.8150   12.8335   10.9543 H   0  0  0  0  0  0  0  0  0  0  0  0
   36.0175   12.0740    9.5352 H   0  0  0  0  0  0  0  0  0  0  0  0
   37.7953   12.3315    9.5352 H   0  0  0  0  0  0  0  0  0  0  0  0
   34.3407   12.5312    9.4657 H   0  0  0  0  0  0  0  0  0  0  0  0
   32.2042   13.0333    8.3877 H   0  0  0  0  0  0  0  0  0  0  0  0
   30.9275   15.3966    7.4693 H   0  0  0  0  0  0  0  0  0  0  0  0
   32.8685   17.4770    8.9515 H   0  0  0  0  0  0  0  0  0  0  0  0
   31.5484   19.5025    9.6149 H   0  0  0  0  0  0  0  0  0  0  0  0
   33.1649   18.9293    4.8469 H   0  0  0  0  0  0  0  0  0  0  0  0
   31.8084   20.9397    5.4844 H   0  0  0  0  0  0  0  0  0  0  0  0
   30.7467   22.3630    7.2582 H   0  0  0  0  0  0  0  0  0  0  0  0
   30.2078   20.7907    9.8688 H   0  0  0  0  0  0  0  0  0  0  0  0
   28.8721   23.2636    8.6735 H   0  0  0  0  0  0  0  0  0  0  0  0
   31.0728   24.2364    9.0190 H   0  0  0  0  0  0  0  0  0  0  0  0
   29.9754   24.7928   10.3819 H   0  0  0  0  0  0  0  0  0  0  0  0
   31.8037   22.4166   10.8128 H   0  0  0  0  0  0  0  0  0  0  0  0
   32.4698   24.0794   10.9185 H   0  0  0  0  0  0  0  0  0  0  0  0
   31.7080   23.3769   13.1432 H   0  0  0  0  0  0  0  0  0  0  0  0
   30.6117   24.6650   12.5196 H   0  0  0  0  0  0  0  0  0  0  0  0
   30.0091   21.8123   12.1055 H   0  0  0  0  0  0  0  0  0  0  0  0
   27.6724   22.9074   12.5811 H   0  0  0  0  0  0  0  0  0  0  0  0
   28.5808   24.3089   11.8765 H   0  0  0  0  0  0  0  0  0  0  0  0
   28.2735   21.5691   10.6462 H   0  0  0  0  0  0  0  0  0  0  0  0
   27.0122   24.3061   10.0027 H   0  0  0  0  0  0  0  0  0  0  0  0
   23.7814   21.0942    9.3987 H   0  0  0  0  0  0  0  0  0  0  0  0
   21.4651   21.9071    9.1673 H   0  0  0  0  0  0  0  0  0  0  0  0
   22.8668   25.9908    9.1485 H   0  0  0  0  0  0  0  0  0  0  0  0
   25.2079   25.1950    9.4964 H   0  0  0  0  0  0  0  0  0  0  0  0
  1  2  1  0
  2  3  2  0
  2 10  1  0
  3  4  1  0
  3  6  1  0
  4  5  1  0
  6  7  2  0
  7  8  1  0
  8  9  1  0
  8 10  2  0
 10 11  1  0
 11 12  2  0
 11 13  1  0
 13 14  2  0
 13 16  1  0
 14 15  1  0
 15 18  2  0
 16 17  2  0
 17 18  1  0
 18 19  1  0
 19 20  2  0
 20 21  1  0
 21 22  1  0
 21 27  1  0
 22 23  1  0
 23 24  1  0
 24 25  1  0
 25 26  1  0
 26 27  1  0
 27 28  1  0
 28 29  1  0
 29 30  2  0
 29 31  1  0
 31 32  2  0
 31 36  1  0
 32 33  1  0
 33 34  2  0
 34 35  1  0
 35 36  2  0
  5 37  1  0
  5 38  1  0
  5 39  1  0
  6 40  1  0
  7 41  1  0
  9 42  1  0
 14 43  1  0
 15 44  1  0
 16 45  1  0
 17 46  1  0
 19 47  1  0
 20 48  1  0
 21 49  1  0
 22 50  1  0
 22 51  1  0
 23 52  1  0
 23 53  1  0
 24 54  1  0
 24 55  1  0
 25 56  1  0
 26 57  1  0
 26 58  1  0
 27 59  1  0
 28 60  1  0
 32 61  1  0
 33 62  1  0
 35 63  1  0
 36 64  1  0
A    1
F96
A    2
C76
A    3
C75
A    4
O95
A    5
C98
A    6
C74
A    7
C73
A    8
C72
A    9
O92
A   10
C71
A   11
C61
A   12
O62
A   13
C54
A   14
C55
A   15
C56
A   16
C53
A   17
C52
A   18
C51
A   19
C42
A   20
C41
A   21
C37
A   22
C36
A   23
C35
A   24
C34
A   25
N33
A   26
C32
A   27
C31
A   28
N23
A   29
C21
A   30
O22
A   31
C14
A   32
C13
A   33
C12
A   34
N11
A   35
C16
A   36
C15
M  END
