1SZO_CAX_A_5001
     RDKit          3D

 31 31  0  0  0  0  0  0  0  0999 V2000
   17.3840  -18.1870   42.9930 O   0  0  0  0  0  0  0  0  0  0  0  0
   18.0670  -17.7220   42.0520 C   0  0  0  0  0  0  0  0  0  0  0  0
   18.7670  -16.7050   42.1530 O   0  0  0  0  0  0  0  0  0  0  0  0
   18.1010  -18.4150   40.6990 C   0  0  0  0  0  0  0  0  0  0  0  0
   19.0070  -19.6640   40.6430 C   0  0  0  0  0  0  0  0  0  0  0  0
   20.4650  -19.5620   41.1590 C   0  0  0  0  0  0  0  0  0  0  0  0
   21.2030  -18.2760   40.7600 C   0  0  0  0  0  0  0  0  0  0  0  0
   21.2480  -20.7290   40.5300 C   0  0  0  0  0  0  0  0  0  0  0  0
   20.3370  -19.7560   42.6840 C   0  0  0  0  0  0  0  0  0  0  0  0
   21.5220  -20.2640   43.4860 C   0  0  0  0  0  0  0  0  0  0  0  0
   19.0000  -20.4850   42.8890 C   0  0  0  0  0  0  0  0  0  0  0  0
   18.8780  -21.5510   43.7960 O   0  0  0  0  0  0  0  0  0  0  0  0
   18.3850  -20.7480   41.5180 C   0  0  0  0  0  0  0  0  0  0  0  0
   17.7838  -17.9148   43.8568 H   0  0  0  0  0  0  0  0  0  0  0  0
   17.2134  -17.1033   41.7382 H   0  0  0  0  0  0  0  0  0  0  0  0
   18.9103  -16.4968   43.1102 H   0  0  0  0  0  0  0  0  0  0  0  0
   17.0759  -18.7222   40.4443 H   0  0  0  0  0  0  0  0  0  0  0  0
   18.5220  -17.6904   39.9864 H   0  0  0  0  0  0  0  0  0  0  0  0
   19.0688  -19.8525   39.5610 H   0  0  0  0  0  0  0  0  0  0  0  0
   21.5134  -17.7352   41.6662 H   0  0  0  0  0  0  0  0  0  0  0  0
   22.0912  -18.5328   40.1640 H   0  0  0  0  0  0  0  0  0  0  0  0
   20.5332  -17.6387   40.1640 H   0  0  0  0  0  0  0  0  0  0  0  0
   21.6705  -21.3587   41.3268 H   0  0  0  0  0  0  0  0  0  0  0  0
   20.5706  -21.3314   39.9069 H   0  0  0  0  0  0  0  0  0  0  0  0
   22.0623  -20.3306   39.9069 H   0  0  0  0  0  0  0  0  0  0  0  0
   20.3467  -18.7638   43.1588 H   0  0  0  0  0  0  0  0  0  0  0  0
   21.3047  -20.1708   44.5603 H   0  0  0  0  0  0  0  0  0  0  0  0
   21.7060  -21.3201   43.2394 H   0  0  0  0  0  0  0  0  0  0  0  0
   22.4138  -19.6691   43.2394 H   0  0  0  0  0  0  0  0  0  0  0  0
   17.2900  -20.6481   41.5511 H   0  0  0  0  0  0  0  0  0  0  0  0
   18.5778  -21.7653   41.1468 H   0  0  0  0  0  0  0  0  0  0  0  0
  1  2  1  0
  2  3  1  0
  2  4  1  0
  4  5  1  0
  5  6  1  0
  5 13  1  0
  6  7  1  0
  6  8  1  0
  6  9  1  0
  9 10  1  0
  9 11  1  0
 11 12  2  0
 11 13  1  0
  1 14  1  0
  2 15  1  0
  3 16  1  0
  4 17  1  0
  4 18  1  0
  5 19  1  0
  7 20  1  0
  7 21  1  0
  7 22  1  0
  8 23  1  0
  8 24  1  0
  8 25  1  0
  9 26  1  0
 10 27  1  0
 10 28  1  0
 10 29  1  0
 13 30  1  0
 13 31  1  0
A    1
O3
A    2
C10
A    3
O2
A    4
C9
A    5
C1
A    6
C2
A    7
C8
A    8
C7
A    9
C3
A   10
C6
A   11
C4
A   12
O1
A   13
C5
M  END
