1T31_OHH_A_901
     RDKit          3D

 84 90  0  0  0  0  0  0  0  0999 V2000
   -1.7640   31.3350   23.9320 O   0  0  0  0  0  0  0  0  0  0  0  0
   -3.3130   41.1690   21.4410 P   0  0  0  0  0  0  0  0  0  0  0  0
   -2.0860   41.9460   21.1950 O   0  0  0  0  0  0  0  0  0  0  0  0
   -4.2890   41.0870   20.2730 O   0  0  0  0  0  0  0  0  0  0  0  0
   -4.3500   41.7230   22.4230 O   0  0  0  0  0  0  0  0  0  0  0  0
   -2.9320   39.5210   21.8550 C   0  0  0  0  0  0  0  0  0  0  0  0
   -2.9560   39.1160   24.2720 O   0  0  0  0  0  0  0  0  0  0  0  0
   -2.3520   39.3740   23.2750 C   0  0  0  0  0  0  0  0  0  0  0  0
    2.3640   40.1760   21.0080 C   0  0  0  0  0  0  0  0  0  0  0  0
    3.8200   40.1850   21.1240 C   0  0  0  0  0  0  0  0  0  0  0  0
    4.4960   39.8120   22.4010 C   0  0  0  0  0  0  0  0  0  0  0  0
    3.7350   39.4290   23.5770 C   0  0  0  0  0  0  0  0  0  0  0  0
    2.2560   39.4040   23.5150 C   0  0  0  0  0  0  0  0  0  0  0  0
    1.5370   39.7920   22.1730 C   0  0  0  0  0  0  0  0  0  0  0  0
    0.0900   39.7690   22.1240 C   0  0  0  0  0  0  0  0  0  0  0  0
   -0.7500   39.4000   23.2900 C   0  0  0  0  0  0  0  0  0  0  0  0
    0.0220   39.0200   24.6090 C   0  0  0  0  0  0  0  0  0  0  0  0
    1.4490   39.0360   24.6640 C   0  0  0  0  0  0  0  0  0  0  0  0
   -0.7760   39.4550   26.7870 O   0  0  0  0  0  0  0  0  0  0  0  0
   -0.6960   38.6020   25.9180 C   0  0  0  0  0  0  0  0  0  0  0  0
   -6.4190   36.6120   21.5790 C   0  0  0  0  0  0  0  0  0  0  0  0
   -6.5570   37.8010   22.3720 C   0  0  0  0  0  0  0  0  0  0  0  0
   -5.4530   38.7280   22.4620 C   0  0  0  0  0  0  0  0  0  0  0  0
   -4.1460   38.5610   21.7900 C   0  0  0  0  0  0  0  0  0  0  0  0
   -3.9600   37.3090   20.9430 C   0  0  0  0  0  0  0  0  0  0  0  0
   -5.1740   36.3100   20.8530 C   0  0  0  0  0  0  0  0  0  0  0  0
   -5.0550   35.0740   20.0380 C   0  0  0  0  0  0  0  0  0  0  0  0
   -3.8450   34.7600   19.3260 C   0  0  0  0  0  0  0  0  0  0  0  0
   -2.6720   35.6700   19.3850 C   0  0  0  0  0  0  0  0  0  0  0  0
   -2.7350   36.9050   20.1700 C   0  0  0  0  0  0  0  0  0  0  0  0
   -1.2210   37.2420   26.0070 N   0  0  0  0  0  0  0  0  0  0  0  0
   -1.9190   36.9000   27.3000 C   0  0  0  0  0  0  0  0  0  0  0  0
   -0.3070   33.8180   24.2730 C   0  0  0  0  0  0  0  0  0  0  0  0
   -1.6750   33.6690   23.6100 N   0  0  0  0  0  0  0  0  0  0  0  0
   -2.2300   34.9570   23.1190 C   0  0  0  0  0  0  0  0  0  0  0  0
   -2.4790   35.9600   24.2500 C   0  0  0  0  0  0  0  0  0  0  0  0
   -1.1100   36.2310   24.9270 C   0  0  0  0  0  0  0  0  0  0  0  0
   -0.4050   34.8710   25.4300 C   0  0  0  0  0  0  0  0  0  0  0  0
   -2.2910   32.3560   23.5110 C   0  0  0  0  0  0  0  0  0  0  0  0
   -5.1450   31.3170   20.9010 C   0  0  0  0  0  0  0  0  0  0  0  0
   -3.8670   31.4490   21.5610 C   0  0  0  0  0  0  0  0  0  0  0  0
   -3.6940   32.2360   22.8380 C   0  0  0  0  0  0  0  0  0  0  0  0
   -4.9050   32.8850   23.4090 C   0  0  0  0  0  0  0  0  0  0  0  0
   -6.2190   32.7900   22.7900 C   0  0  0  0  0  0  0  0  0  0  0  0
   -6.3570   31.9620   21.4620 C   0  0  0  0  0  0  0  0  0  0  0  0
   -7.7030   31.8690   20.8280 C   0  0  0  0  0  0  0  0  0  0  0  0
   -8.8580   32.5360   21.4370 C   0  0  0  0  0  0  0  0  0  0  0  0
   -8.7270   33.3190   22.6980 C   0  0  0  0  0  0  0  0  0  0  0  0
   -7.4320   33.4430   23.3610 C   0  0  0  0  0  0  0  0  0  0  0  0
   -1.6794   42.2035   22.0602 H   0  0  0  0  0  0  0  0  0  0  0  0
   -4.0456   41.5604   23.3509 H   0  0  0  0  0  0  0  0  0  0  0  0
   -2.1882   39.2463   21.0925 H   0  0  0  0  0  0  0  0  0  0  0  0
    1.8842   40.4537   20.0579 H   0  0  0  0  0  0  0  0  0  0  0  0
    4.4293   40.4719   20.2542 H   0  0  0  0  0  0  0  0  0  0  0  0
    5.5947   39.8275   22.4526 H   0  0  0  0  0  0  0  0  0  0  0  0
    4.2543   39.1591   24.5083 H   0  0  0  0  0  0  0  0  0  0  0  0
   -0.4084   40.0369   21.1807 H   0  0  0  0  0  0  0  0  0  0  0  0
    1.9507   38.7617   25.6037 H   0  0  0  0  0  0  0  0  0  0  0  0
   -7.2633   35.9101   21.5122 H   0  0  0  0  0  0  0  0  0  0  0  0
   -7.4964   38.0044   22.9069 H   0  0  0  0  0  0  0  0  0  0  0  0
   -5.5953   39.6281   23.0782 H   0  0  0  0  0  0  0  0  0  0  0  0
   -5.9098   34.3844   19.9776 H   0  0  0  0  0  0  0  0  0  0  0  0
   -3.7876   33.8363   18.7315 H   0  0  0  0  0  0  0  0  0  0  0  0
   -1.7528   35.4153   18.8371 H   0  0  0  0  0  0  0  0  0  0  0  0
   -1.8529   37.5618   20.1950 H   0  0  0  0  0  0  0  0  0  0  0  0
   -1.2905   37.2080   28.1486 H   0  0  0  0  0  0  0  0  0  0  0  0
   -2.8829   37.4279   27.3471 H   0  0  0  0  0  0  0  0  0  0  0  0
   -2.0926   35.8148   27.3471 H   0  0  0  0  0  0  0  0  0  0  0  0
    0.0097   32.8482   24.6844 H   0  0  0  0  0  0  0  0  0  0  0  0
    0.4290   34.1555   23.5284 H   0  0  0  0  0  0  0  0  0  0  0  0
   -1.5178   35.3989   22.4066 H   0  0  0  0  0  0  0  0  0  0  0  0
   -3.1988   34.7430   22.6439 H   0  0  0  0  0  0  0  0  0  0  0  0
   -2.8900   36.8951   23.8417 H   0  0  0  0  0  0  0  0  0  0  0  0
   -3.2030   35.5609   24.9756 H   0  0  0  0  0  0  0  0  0  0  0  0
   -0.4485   36.6592   24.1595 H   0  0  0  0  0  0  0  0  0  0  0  0
   -0.9964   34.4443   26.2535 H   0  0  0  0  0  0  0  0  0  0  0  0
    0.6140   35.1124   25.7667 H   0  0  0  0  0  0  0  0  0  0  0  0
   -5.2202   30.7319   19.9725 H   0  0  0  0  0  0  0  0  0  0  0  0
   -2.9880   30.9585   21.1173 H   0  0  0  0  0  0  0  0  0  0  0  0
   -4.8028   33.4620   24.3399 H   0  0  0  0  0  0  0  0  0  0  0  0
   -7.8305   31.2964   19.8975 H   0  0  0  0  0  0  0  0  0  0  0  0
   -9.8424   32.4567   20.9526 H   0  0  0  0  0  0  0  0  0  0  0  0
   -9.6120   33.8070   23.1324 H   0  0  0  0  0  0  0  0  0  0  0  0
   -7.3503   34.0242   24.2914 H   0  0  0  0  0  0  0  0  0  0  0  0
  1 39  2  0
  2  3  1  0
  2  4  2  0
  2  5  1  0
  2  6  1  0
  6  8  1  0
  6 24  1  0
  7  8  2  0
  8 16  1  0
  9 10  2  0
  9 14  1  0
 10 11  1  0
 11 12  2  0
 12 13  1  0
 13 14  2  0
 13 18  1  0
 14 15  1  0
 15 16  2  0
 16 17  1  0
 17 18  2  0
 17 20  1  0
 19 20  2  0
 20 31  1  0
 21 22  2  0
 21 26  1  0
 22 23  1  0
 23 24  2  0
 24 25  1  0
 25 26  2  0
 25 30  1  0
 26 27  1  0
 27 28  2  0
 28 29  1  0
 29 30  2  0
 31 32  1  0
 31 37  1  0
 33 34  1  0
 33 38  1  0
 34 35  1  0
 34 39  1  0
 35 36  1  0
 36 37  1  0
 37 38  1  0
 39 42  1  0
 40 41  2  0
 40 45  1  0
 41 42  1  0
 42 43  2  0
 43 44  1  0
 44 45  2  0
 44 49  1  0
 45 46  1  0
 46 47  2  0
 47 48  1  0
 48 49  2  0
  3 50  1  0
  5 51  1  0
  6 52  1  0
  9 53  1  0
 10 54  1  0
 11 55  1  0
 12 56  1  0
 15 57  1  0
 18 58  1  0
 21 59  1  0
 22 60  1  0
 23 61  1  0
 27 62  1  0
 28 63  1  0
 29 64  1  0
 30 65  1  0
 32 66  1  0
 32 67  1  0
 32 68  1  0
 33 69  1  0
 33 70  1  0
 35 71  1  0
 35 72  1  0
 36 73  1  0
 36 74  1  0
 37 75  1  0
 38 76  1  0
 38 77  1  0
 40 78  1  0
 41 79  1  0
 43 80  1  0
 46 81  1  0
 47 82  1  0
 48 83  1  0
 49 84  1  0
A    1
O6
A    2
P1
A    3
O1
A    4
O3
A    5
O2
A    6
C9
A    7
O4
A    8
C10
A    9
C17
A   10
C16
A   11
C15
A   12
C14
A   13
C4B
A   14
C8B
A   15
C18
A   16
C11
A   17
C12
A   18
C13
A   19
O5
A   20
C19
A   21
C1
A   22
C2
A   23
C3
A   24
C4
A   25
C4A
A   26
C8A
A   27
C8
A   28
C7
A   29
C6
A   30
C5
A   31
N1
A   32
C20
A   33
C24
A   34
N2
A   35
C23
A   36
C22
A   37
C21
A   38
C25
A   39
C26
A   40
C29
A   41
C28
A   42
C27
A   43
C34
A   44
C8C
A   45
C4C
A   46
C30
A   47
C31
A   48
C32
A   49
C33
M  END
