1T4R_AHI_A_1000
     RDKit          3D

 22 21  0  0  0  0  0  0  0  0999 V2000
   -3.1860   42.5140   11.2440 N   0  0  0  0  0  0  0  0  0  0  0  0
   -2.9810   43.7070   10.6140 C   0  0  0  0  0  0  0  0  0  0  0  0
   -2.1000   43.8060    9.6620 N   0  0  0  0  0  0  0  0  0  0  0  0
   -3.6970   44.7810   11.1110 N   0  0  0  0  0  0  0  0  0  0  0  0
   -3.5100   46.1400   10.5370 C   0  0  0  0  0  0  0  0  0  0  0  0
   -4.5350   47.0240   11.2270 C   0  0  0  0  0  0  0  0  0  0  0  0
   -4.6340   48.4010   10.3760 C   0  0  0  0  0  0  0  0  0  0  0  0
   -4.3480   49.4290   11.4240 N   0  0  0  0  0  0  0  0  0  0  0  0
   -1.4550   42.7420    9.2470 O   0  0  0  0  0  0  0  0  0  0  0  0
   -3.1936   42.4696   12.2730 H   0  0  0  0  0  0  0  0  0  0  0  0
   -3.3331   41.6579   10.6905 H   0  0  0  0  0  0  0  0  0  0  0  0
   -4.3636   44.6386   11.8832 H   0  0  0  0  0  0  0  0  0  0  0  0
   -2.4919   46.5044   10.7386 H   0  0  0  0  0  0  0  0  0  0  0  0
   -3.6435   46.1408    9.4451 H   0  0  0  0  0  0  0  0  0  0  0  0
   -5.5135   46.5218   11.2459 H   0  0  0  0  0  0  0  0  0  0  0  0
   -4.2369   47.2285   12.2659 H   0  0  0  0  0  0  0  0  0  0  0  0
   -3.8842   48.4296    9.5716 H   0  0  0  0  0  0  0  0  0  0  0  0
   -5.5983   48.5412    9.8657 H   0  0  0  0  0  0  0  0  0  0  0  0
   -4.4647   49.0094   12.3574 H   0  0  0  0  0  0  0  0  0  0  0  0
   -3.3809   49.7674   11.3182 H   0  0  0  0  0  0  0  0  0  0  0  0
   -5.0014   50.2182   11.3182 H   0  0  0  0  0  0  0  0  0  0  0  0
   -1.0710   42.1085    9.9037 H   0  0  0  0  0  0  0  0  0  0  0  0
  1  2  1  0
  2  3  2  0
  2  4  1  0
  3  9  1  0
  4  5  1  0
  5  6  1  0
  6  7  1  0
  7  8  1  0
  1 10  1  0
  1 11  1  0
  4 12  1  0
  5 13  1  0
  5 14  1  0
  6 15  1  0
  6 16  1  0
  7 17  1  0
  7 18  1  0
  8 19  1  0
  8 20  1  0
  8 21  1  0
  9 22  1  0
M  CHG  1   8   1
A    1
N10
A    2
C09
A    3
NP1
A    4
N08
A    5
C07
A    6
C06
A    7
C03
A    8
N02
A    9
O16
M  END
