1T4T_DIR_A_1000
     RDKit          3D

 21 20  0  0  0  0  0  0  0  0999 V2000
   -5.2790   47.6760   10.2130 C   0  0  0  0  0  0  0  0  0  0  0  0
   -4.3950   46.5260    9.6570 C   0  0  0  0  0  0  0  0  0  0  0  0
   -5.2300   48.6240    9.0650 N   0  0  0  0  0  0  0  0  0  0  0  0
   -4.5220   48.4720   11.3190 C   0  0  0  0  0  0  0  0  0  0  0  0
   -4.4760   45.3100   10.4840 N   0  0  0  0  0  0  0  0  0  0  0  0
   -3.6390   44.2220   10.2460 C   0  0  0  0  0  0  0  0  0  0  0  0
   -4.2660   48.1650   12.4550 O   0  0  0  0  0  0  0  0  0  0  0  0
   -4.0600   49.6450   10.8090 O   0  0  0  0  0  0  0  0  0  0  0  0
   -2.6590   44.1590    9.3820 N   0  0  0  0  0  0  0  0  0  0  0  0
   -3.9290   43.1400   11.0370 N   0  0  0  0  0  0  0  0  0  0  0  0
   -1.9300   43.0550    9.3000 O   0  0  0  0  0  0  0  0  0  0  0  0
   -6.2481   47.3136   10.5864 H   0  0  0  0  0  0  0  0  0  0  0  0
   -4.7296   46.2836    8.6376 H   0  0  0  0  0  0  0  0  0  0  0  0
   -3.3502   46.8701    9.6653 H   0  0  0  0  0  0  0  0  0  0  0  0
   -5.1801   49.5899    9.4192 H   0  0  0  0  0  0  0  0  0  0  0  0
   -4.3982   48.4254    8.4910 H   0  0  0  0  0  0  0  0  0  0  0  0
   -5.1624   45.2632   11.2505 H   0  0  0  0  0  0  0  0  0  0  0  0
   -4.6787   48.6600   13.2065 H   0  0  0  0  0  0  0  0  0  0  0  0
   -3.9047   43.2306   12.0627 H   0  0  0  0  0  0  0  0  0  0  0  0
   -4.1711   42.2367   10.6054 H   0  0  0  0  0  0  0  0  0  0  0  0
   -1.6285   42.5985   10.1251 H   0  0  0  0  0  0  0  0  0  0  0  0
  1  2  1  0
  1  3  1  0
  1  4  1  0
  2  5  1  0
  4  7  1  0
  4  8  2  0
  5  6  1  0
  6  9  2  0
  6 10  1  0
  9 11  1  0
  1 12  1  0
  2 13  1  0
  2 14  1  0
  3 15  1  0
  3 16  1  0
  5 17  1  0
  7 18  1  0
 10 19  1  0
 10 20  1  0
 11 21  1  0
A    1
CA
A    2
CB
A    3
N
A    4
C
A    5
NG
A    6
CD
A    7
OXT
A    8
O
A    9
NH1
A   10
NH2
A   11
OH1
M  END
