1T8I_EHD_D_990
     RDKit          3D

 42 46  0  0  0  0  0  0  0  0999 V2000
   25.0540   -1.0640   27.9310 O   0  0  0  0  0  0  0  0  0  0  0  0
   23.7050   -1.1420   27.9650 C   0  0  0  0  0  0  0  0  0  0  0  0
   22.9450   -0.0210   28.0310 C   0  0  0  0  0  0  0  0  0  0  0  0
   23.6780    1.2820   28.0760 C   0  0  0  0  0  0  0  0  0  0  0  0
   22.9360    2.2610   27.2870 O   0  0  0  0  0  0  0  0  0  0  0  0
   21.5280    2.3220   27.2790 C   0  0  0  0  0  0  0  0  0  0  0  0
   20.9320    3.2230   26.5380 O   0  0  0  0  0  0  0  0  0  0  0  0
   21.4900   -0.0040   28.0540 C   0  0  0  0  0  0  0  0  0  0  0  0
   20.9250   -1.3070   27.9900 C   0  0  0  0  0  0  0  0  0  0  0  0
   20.7330    1.3360   28.1050 C   0  0  0  0  0  0  0  0  0  0  0  0
   19.5350    1.2470   27.5060 O   0  0  0  0  0  0  0  0  0  0  0  0
   20.5790    1.8610   29.5520 C   0  0  0  0  0  0  0  0  0  0  0  0
   19.0930    1.9670   30.0520 C   0  0  0  0  0  0  0  0  0  0  0  0
   23.0750   -2.3740   27.9070 N   0  0  0  0  0  0  0  0  0  0  0  0
   23.7700   -3.6460   27.8220 C   0  0  0  0  0  0  0  0  0  0  0  0
   22.6200   -4.5980   27.7570 C   0  0  0  0  0  0  0  0  0  0  0  0
   22.5180   -5.9280   27.6530 C   0  0  0  0  0  0  0  0  0  0  0  0
   21.2670   -6.5580   27.6090 C   0  0  0  0  0  0  0  0  0  0  0  0
   20.0800   -5.7290   27.6720 C   0  0  0  0  0  0  0  0  0  0  0  0
   20.1290   -4.2830   27.7860 N   0  0  0  0  0  0  0  0  0  0  0  0
   21.3820   -3.7900   27.8240 C   0  0  0  0  0  0  0  0  0  0  0  0
   21.7390   -2.4630   27.9150 C   0  0  0  0  0  0  0  0  0  0  0  0
   21.1480   -7.9490   27.5070 C   0  0  0  0  0  0  0  0  0  0  0  0
   19.8960   -8.5310   27.4670 C   0  0  0  0  0  0  0  0  0  0  0  0
   18.7310   -7.7150   27.5260 C   0  0  0  0  0  0  0  0  0  0  0  0
   18.8250   -6.2790   27.6360 C   0  0  0  0  0  0  0  0  0  0  0  0
   23.7560    1.6276   29.1174 H   0  0  0  0  0  0  0  0  0  0  0  0
   24.6908    1.1579   27.6652 H   0  0  0  0  0  0  0  0  0  0  0  0
   19.8308   -1.4196   27.9990 H   0  0  0  0  0  0  0  0  0  0  0  0
   18.8251    1.1943   28.1940 H   0  0  0  0  0  0  0  0  0  0  0  0
   21.1199    1.1789   30.2244 H   0  0  0  0  0  0  0  0  0  0  0  0
   20.9851    2.8833   29.5588 H   0  0  0  0  0  0  0  0  0  0  0  0
   19.0754    1.9683   31.1519 H   0  0  0  0  0  0  0  0  0  0  0  0
   18.6456    2.8993   29.6771 H   0  0  0  0  0  0  0  0  0  0  0  0
   18.5178    1.1076   29.6771 H   0  0  0  0  0  0  0  0  0  0  0  0
   24.3945   -3.7051   26.9184 H   0  0  0  0  0  0  0  0  0  0  0  0
   24.4687   -3.8362   28.6500 H   0  0  0  0  0  0  0  0  0  0  0  0
   23.4321   -6.5376   27.6011 H   0  0  0  0  0  0  0  0  0  0  0  0
   22.0496   -8.5773   27.4588 H   0  0  0  0  0  0  0  0  0  0  0  0
   19.7992   -9.6240   27.3896 H   0  0  0  0  0  0  0  0  0  0  0  0
   17.7389   -8.1886   27.4870 H   0  0  0  0  0  0  0  0  0  0  0  0
   17.9241   -5.6501   27.6889 H   0  0  0  0  0  0  0  0  0  0  0  0
  1  2  2  0
  2  3  1  0
  2 14  1  0
  3  4  1  0
  3  8  2  0
  4  5  1  0
  5  6  1  0
  6  7  2  0
  6 10  1  0
  8  9  1  0
  8 10  1  0
  9 22  2  0
 10 11  1  0
 10 12  1  0
 12 13  1  0
 14 15  1  0
 14 22  1  0
 15 16  1  0
 16 17  1  0
 16 21  2  0
 17 18  2  0
 18 19  1  0
 18 23  1  0
 19 20  2  0
 19 26  1  0
 20 21  1  0
 21 22  1  0
 23 24  2  0
 24 25  1  0
 25 26  2  0
  4 27  1  0
  4 28  1  0
  9 29  1  0
 11 30  1  0
 12 31  1  0
 12 32  1  0
 13 33  1  0
 13 34  1  0
 13 35  1  0
 15 36  1  0
 15 37  1  0
 17 38  1  0
 23 39  1  0
 24 40  1  0
 25 41  1  0
 26 42  1  0
A    1
O18
A    2
C14
A    3
C15
A    4
C19
A    5
O22
A    6
C20
A    7
O23
A    8
C16
A    9
C17
A   10
C21
A   11
O24
A   12
C25
A   13
C31
A   14
N12
A   15
C11
A   16
C8
A   17
C7
A   18
C6
A   19
C5
A   20
N10
A   21
C9
A   22
C13
A   23
C1
A   24
C2
A   25
C3
A   26
C4
M  END
