1AHB_FMP_A_339
     RDKit          3D

 37 39  0  0  0  0  0  0  0  0999 V2000
   59.5090   90.4430   -2.1140 P   0  0  0  0  0  0  0  0  0  0  0  0
   60.1840   91.5460   -2.8490 O   0  0  0  0  0  0  0  0  0  0  0  0
   58.1010   90.7400   -1.7180 O   0  0  0  0  0  0  0  0  0  0  0  0
   59.7310   89.0610   -2.6690 O   0  0  0  0  0  0  0  0  0  0  0  0
   60.3400   90.3730   -0.8020 O   0  0  0  0  0  0  0  0  0  0  0  0
   61.7340   90.0690   -0.6170 C   0  0  0  0  0  0  0  0  0  0  0  0
   61.9460   89.6540    0.8460 C   0  0  0  0  0  0  0  0  0  0  0  0
   61.5290   90.7320    1.6670 O   0  0  0  0  0  0  0  0  0  0  0  0
   61.1440   88.4160    1.2910 C   0  0  0  0  0  0  0  0  0  0  0  0
   62.0390   87.3610    1.6460 O   0  0  0  0  0  0  0  0  0  0  0  0
   60.4640   88.9320    2.5360 C   0  0  0  0  0  0  0  0  0  0  0  0
   60.4000   87.9090    3.5410 O   0  0  0  0  0  0  0  0  0  0  0  0
   61.3530   90.1000    2.9180 C   0  0  0  0  0  0  0  0  0  0  0  0
   60.7070   91.1030    3.7780 C   0  0  0  0  0  0  0  0  0  0  0  0
   60.1080   92.1830    3.3650 N   0  0  0  0  0  0  0  0  0  0  0  0
   59.5580   92.8820    4.3620 N   0  0  0  0  0  0  0  0  0  0  0  0
   59.6610   92.4340    6.8720 C   0  0  0  0  0  0  0  0  0  0  0  0
   58.7670   93.3510    7.2370 N   0  0  0  0  0  0  0  0  0  0  0  0
   59.9400   92.2180    5.5130 C   0  0  0  0  0  0  0  0  0  0  0  0
   60.6960   91.1400    5.1830 C   0  0  0  0  0  0  0  0  0  0  0  0
   61.2940   90.2860    6.0710 N   0  0  0  0  0  0  0  0  0  0  0  0
   61.0280   90.6480    7.3260 C   0  0  0  0  0  0  0  0  0  0  0  0
   60.2710   91.6430    7.7820 N   0  0  0  0  0  0  0  0  0  0  0  0
   58.0320   90.7546   -0.7305 H   0  0  0  0  0  0  0  0  0  0  0  0
   59.8342   88.4184   -1.9230 H   0  0  0  0  0  0  0  0  0  0  0  0
   62.0267   89.2446   -1.2838 H   0  0  0  0  0  0  0  0  0  0  0  0
   62.3491   90.9495   -0.8545 H   0  0  0  0  0  0  0  0  0  0  0  0
   63.0120   89.3999    0.9410 H   0  0  0  0  0  0  0  0  0  0  0  0
   60.4630   88.0184    0.5241 H   0  0  0  0  0  0  0  0  0  0  0  0
   62.0957   87.2942    2.6321 H   0  0  0  0  0  0  0  0  0  0  0  0
   59.4145   89.2329    2.4014 H   0  0  0  0  0  0  0  0  0  0  0  0
   60.4261   88.3260    4.4385 H   0  0  0  0  0  0  0  0  0  0  0  0
   62.2407   89.7459    3.4627 H   0  0  0  0  0  0  0  0  0  0  0  0
   58.9770   93.7294    4.2891 H   0  0  0  0  0  0  0  0  0  0  0  0
   58.5919   93.5306    8.2360 H   0  0  0  0  0  0  0  0  0  0  0  0
   58.2506   93.8807    6.5203 H   0  0  0  0  0  0  0  0  0  0  0  0
   61.5062   90.0315    8.1014 H   0  0  0  0  0  0  0  0  0  0  0  0
  1  2  2  0
  1  3  1  0
  1  4  1  0
  1  5  1  0
  5  6  1  0
  6  7  1  0
  7  8  1  0
  7  9  1  0
  8 13  1  0
  9 10  1  0
  9 11  1  0
 11 12  1  0
 11 13  1  0
 13 14  1  0
 14 15  2  0
 14 20  1  0
 15 16  1  0
 16 19  1  0
 17 18  1  0
 17 19  1  0
 17 23  2  0
 19 20  2  0
 20 21  1  0
 21 22  2  0
 22 23  1  0
  3 24  1  0
  4 25  1  0
  6 26  1  0
  6 27  1  0
  7 28  1  0
  9 29  1  0
 10 30  1  0
 11 31  1  0
 12 32  1  0
 13 33  1  0
 16 34  1  0
 18 35  1  0
 18 36  1  0
 22 37  1  0
A    1
P
A    2
O1P
A    3
O2P
A    4
O3P
A    5
O5'
A    6
C5'
A    7
C4'
A    8
O4'
A    9
C3'
A   10
O3'
A   11
C2'
A   12
O2'
A   13
C1'
A   14
C9
A   15
N8
A   16
N7
A   17
C6
A   18
N6
A   19
C5
A   20
C4
A   21
N3
A   22
C2
A   23
N1
M  END
