1T9B_1CS_A_695
     RDKit          3D

 35 36  0  0  0  0  0  0  0  0999 V2000
   25.8790   30.1660  137.7790 C   0  0  0  0  0  0  0  0  0  0  0  0
   25.3140   28.8750  137.6340 O   0  0  0  0  0  0  0  0  0  0  0  0
   25.2060   28.2670  136.3270 C   0  0  0  0  0  0  0  0  0  0  0  0
   25.6770   28.9940  135.1990 N   0  0  0  0  0  0  0  0  0  0  0  0
   25.5660   28.3690  133.9060 C   0  0  0  0  0  0  0  0  0  0  0  0
   26.0370   29.1020  132.7740 C   0  0  0  0  0  0  0  0  0  0  0  0
   25.0040   27.0730  133.7460 N   0  0  0  0  0  0  0  0  0  0  0  0
   24.5420   26.3820  134.9240 C   0  0  0  0  0  0  0  0  0  0  0  0
   24.0020   25.1520  134.8100 N   0  0  0  0  0  0  0  0  0  0  0  0
   23.5310   24.4130  135.8380 C   0  0  0  0  0  0  0  0  0  0  0  0
   23.4920   24.6940  137.0510 O   0  0  0  0  0  0  0  0  0  0  0  0
   23.0560   23.2540  135.3240 N   0  0  0  0  0  0  0  0  0  0  0  0
   22.3540   22.0450  136.2270 S   0  0  0  0  0  0  0  0  0  0  0  0
   23.1170   21.0510  136.9430 O   0  0  0  0  0  0  0  0  0  0  0  0
   21.6960   21.6790  134.9860 O   0  0  0  0  0  0  0  0  0  0  0  0
   20.9380   22.7280  137.0080 C   0  0  0  0  0  0  0  0  0  0  0  0
   20.7650   22.1350  138.3120 C   0  0  0  0  0  0  0  0  0  0  0  0
   19.6400   22.5470  139.1710 C   0  0  0  0  0  0  0  0  0  0  0  0
   18.6960   23.5720  138.6860 C   0  0  0  0  0  0  0  0  0  0  0  0
   18.8820   24.1420  137.4030 C   0  0  0  0  0  0  0  0  0  0  0  0
   19.9790   23.7430  136.5530 C   0  0  0  0  0  0  0  0  0  0  0  0
   24.6630   27.0110  136.1820 N   0  0  0  0  0  0  0  0  0  0  0  0
   20.1170   24.4860  135.0260 Cl  0  0  0  0  0  0  0  0  0  0  0  0
   25.9827   30.4029  138.8482 H   0  0  0  0  0  0  0  0  0  0  0  0
   26.8693   30.1887  137.3007 H   0  0  0  0  0  0  0  0  0  0  0  0
   25.2237   30.9089  137.3007 H   0  0  0  0  0  0  0  0  0  0  0  0
   26.6022   29.9816  133.1160 H   0  0  0  0  0  0  0  0  0  0  0  0
   26.6914   28.4589  132.1672 H   0  0  0  0  0  0  0  0  0  0  0  0
   25.1802   29.4300  132.1672 H   0  0  0  0  0  0  0  0  0  0  0  0
   23.9441   24.7442  133.8660 H   0  0  0  0  0  0  0  0  0  0  0  0
   23.1343   23.1111  134.3070 H   0  0  0  0  0  0  0  0  0  0  0  0
   21.4749   21.3730  138.6663 H   0  0  0  0  0  0  0  0  0  0  0  0
   19.5056   22.0944  140.1645 H   0  0  0  0  0  0  0  0  0  0  0  0
   17.8533   23.8913  139.3168 H   0  0  0  0  0  0  0  0  0  0  0  0
   18.1752   24.9056  137.0461 H   0  0  0  0  0  0  0  0  0  0  0  0
  1  2  1  0
  2  3  1  0
  3  4  2  0
  3 22  1  0
  4  5  1  0
  5  6  1  0
  5  7  2  0
  7  8  1  0
  8  9  1  0
  8 22  2  0
  9 10  1  0
 10 11  2  0
 10 12  1  0
 12 13  1  0
 13 14  2  0
 13 15  2  0
 13 16  1  0
 16 17  2  0
 16 21  1  0
 17 18  1  0
 18 19  2  0
 19 20  1  0
 20 21  2  0
 21 23  1  0
  1 24  1  0
  1 25  1  0
  1 26  1  0
  6 27  1  0
  6 28  1  0
  6 29  1  0
  9 30  1  0
 12 31  1  0
 17 32  1  0
 18 33  1  0
 19 34  1  0
 20 35  1  0
A    1
C5'
A    2
O4'
A    3
C4'
A    4
N5'
A    5
C6'
A    6
C7'
A    7
N1'
A    8
C2'
A    9
N10
A   10
C9
A   11
O9
A   12
N8
A   13
S7
A   14
O7A
A   15
O7B
A   16
C2
A   17
C3
A   18
C4
A   19
C5
A   20
C6
A   21
C1
A   22
N3'
A   23
CL11
M  END
