1OYE_CPF_A_5001
     RDKit          3D

 42 45  0  0  0  0  0  0  0  0999 V2000
  -78.4060  115.0600  134.7150 O   0  0  0  0  0  0  0  0  0  0  0  0
  -77.9300  115.6670  133.7480 C   0  0  0  0  0  0  0  0  0  0  0  0
  -76.9510  116.4680  133.8490 O   0  0  0  0  0  0  0  0  0  0  0  0
  -78.5340  115.4170  132.3870 C   0  0  0  0  0  0  0  0  0  0  0  0
  -79.5850  114.5430  132.3500 C   0  0  0  0  0  0  0  0  0  0  0  0
  -80.2350  114.1760  131.2360 N   0  0  0  0  0  0  0  0  0  0  0  0
  -79.8160  114.6730  130.0030 C   0  0  0  0  0  0  0  0  0  0  0  0
  -80.4760  114.2860  128.8260 C   0  0  0  0  0  0  0  0  0  0  0  0
  -80.0820  114.7580  127.5810 C   0  0  0  0  0  0  0  0  0  0  0  0
  -80.6880  114.3400  126.3990 N   0  0  0  0  0  0  0  0  0  0  0  0
  -81.6780  113.2630  126.5060 C   0  0  0  0  0  0  0  0  0  0  0  0
  -81.9410  112.6440  125.1490 C   0  0  0  0  0  0  0  0  0  0  0  0
  -82.3600  113.6970  124.1840 N   0  0  0  0  0  0  0  0  0  0  0  0
  -81.3420  114.7620  124.0760 C   0  0  0  0  0  0  0  0  0  0  0  0
  -81.1040  115.3700  125.4360 C   0  0  0  0  0  0  0  0  0  0  0  0
  -78.9600  115.6350  127.5730 C   0  0  0  0  0  0  0  0  0  0  0  0
  -78.4770  116.0690  126.3850 F   0  0  0  0  0  0  0  0  0  0  0  0
  -78.3160  116.0320  128.7020 C   0  0  0  0  0  0  0  0  0  0  0  0
  -78.7310  115.5610  129.9630 C   0  0  0  0  0  0  0  0  0  0  0  0
  -78.0560  115.9880  131.1790 C   0  0  0  0  0  0  0  0  0  0  0  0
  -77.0970  116.8160  131.0760 O   0  0  0  0  0  0  0  0  0  0  0  0
  -81.3290  113.2190  131.2770 C   0  0  0  0  0  0  0  0  0  0  0  0
  -82.7260  113.7350  131.1560 C   0  0  0  0  0  0  0  0  0  0  0  0
  -82.2390  113.1850  132.4610 C   0  0  0  0  0  0  0  0  0  0  0  0
  -78.1829  115.3445  135.6366 H   0  0  0  0  0  0  0  0  0  0  0  0
  -79.9217  114.1095  133.3033 H   0  0  0  0  0  0  0  0  0  0  0  0
  -81.3265  113.5915  128.8917 H   0  0  0  0  0  0  0  0  0  0  0  0
  -81.2978  112.4890  127.1889 H   0  0  0  0  0  0  0  0  0  0  0  0
  -82.6184  113.6828  126.8926 H   0  0  0  0  0  0  0  0  0  0  0  0
  -81.0227  112.1601  124.7848 H   0  0  0  0  0  0  0  0  0  0  0  0
  -82.7436  111.8974  125.2411 H   0  0  0  0  0  0  0  0  0  0  0  0
  -82.4963  113.2680  123.2576 H   0  0  0  0  0  0  0  0  0  0  0  0
  -80.4025  114.3341  123.6962 H   0  0  0  0  0  0  0  0  0  0  0  0
  -81.6970  115.5397  123.3837 H   0  0  0  0  0  0  0  0  0  0  0  0
  -82.0335  115.8404  125.7891 H   0  0  0  0  0  0  0  0  0  0  0  0
  -80.3044  116.1209  125.3532 H   0  0  0  0  0  0  0  0  0  0  0  0
  -77.4652  116.7256  128.6306 H   0  0  0  0  0  0  0  0  0  0  0  0
  -80.7215  112.4666  130.7527 H   0  0  0  0  0  0  0  0  0  0  0  0
  -82.9063  114.8146  131.0468 H   0  0  0  0  0  0  0  0  0  0  0  0
  -83.5783  113.5260  130.4927 H   0  0  0  0  0  0  0  0  0  0  0  0
  -82.6246  112.2236  132.8311 H   0  0  0  0  0  0  0  0  0  0  0  0
  -82.1873  113.5613  133.4933 H   0  0  0  0  0  0  0  0  0  0  0  0
  1  2  1  0
  2  3  2  0
  2  4  1  0
  4  5  2  0
  4 20  1  0
  5  6  1  0
  6  7  1  0
  6 22  1  0
  7  8  1  0
  7 19  2  0
  8  9  2  0
  9 10  1  0
  9 16  1  0
 10 11  1  0
 10 15  1  0
 11 12  1  0
 12 13  1  0
 13 14  1  0
 14 15  1  0
 16 17  1  0
 16 18  2  0
 18 19  1  0
 19 20  1  0
 20 21  2  0
 22 23  1  0
 22 24  1  0
 23 24  1  0
  1 25  1  0
  5 26  1  0
  8 27  1  0
 11 28  1  0
 11 29  1  0
 12 30  1  0
 12 31  1  0
 13 32  1  0
 14 33  1  0
 14 34  1  0
 15 35  1  0
 15 36  1  0
 18 37  1  0
 22 38  1  0
 23 39  1  0
 23 40  1  0
 24 41  1  0
 24 42  1  0
A    1
O2
A    2
C3
A    3
O1
A    4
C2
A    5
C1
A    6
N1
A    7
C10
A    8
C9
A    9
C8
A   10
N2
A   11
C17
A   12
C16
A   13
N3
A   14
C15
A   15
C14
A   16
C7
A   17
F1
A   18
C6
A   19
C5
A   20
C4
A   21
O3
A   22
C11
A   23
C12
A   24
C13
M  END
