1T9W_NFN_A_6001
     RDKit          3D

 50 53  0  0  0  0  0  0  0  0999 V2000
   -1.6670   11.2160  129.8060 O   0  0  0  0  0  0  0  0  0  0  0  0
    2.0250   11.4620  129.5260 C   0  0  0  0  0  0  0  0  0  0  0  0
    0.7400   11.3910  130.0680 C   0  0  0  0  0  0  0  0  0  0  0  0
    2.2470   11.4310  128.1500 C   0  0  0  0  0  0  0  0  0  0  0  0
   -0.4040   11.2840  129.2650 C   0  0  0  0  0  0  0  0  0  0  0  0
    1.0800   11.3170  127.1770 C   0  0  0  0  0  0  0  0  0  0  0  0
   -0.2850   11.2470  127.7800 C   0  0  0  0  0  0  0  0  0  0  0  0
    3.5520   11.5050  127.6330 C   0  0  0  0  0  0  0  0  0  0  0  0
    3.4960   11.4540  126.2630 C   0  0  0  0  0  0  0  0  0  0  0  0
    2.5900   11.3570  125.2370 C   0  0  0  0  0  0  0  0  0  0  0  0
    1.2840   11.2820  125.7620 C   0  0  0  0  0  0  0  0  0  0  0  0
   -3.3030   10.4200  123.4380 O   0  0  0  0  0  0  0  0  0  0  0  0
   -2.3660   11.1600  123.6800 C   0  0  0  0  0  0  0  0  0  0  0  0
   -1.4900   11.8350  122.9160 N   0  0  0  0  0  0  0  0  0  0  0  0
   -0.9220   12.0320  121.6010 C   0  0  0  0  0  0  0  0  0  0  0  0
   -2.0350   12.3660  120.6490 C   0  0  0  0  0  0  0  0  0  0  0  0
   -2.7460   13.3720  120.8680 O   0  0  0  0  0  0  0  0  0  0  0  0
   -2.2370   11.6010  119.6790 O   0  0  0  0  0  0  0  0  0  0  0  0
    0.2210   13.1090  121.8150 C   0  0  0  0  0  0  0  0  0  0  0  0
    1.5710   12.4510  121.5110 C   0  0  0  0  0  0  0  0  0  0  0  0
    0.0830   14.4120  121.0270 C   0  0  0  0  0  0  0  0  0  0  0  0
    0.3580   13.5970  123.5330 S   0  0  0  0  0  0  0  0  0  0  0  0
   -1.1220   12.7780  123.8780 C   0  0  0  0  0  0  0  0  0  0  0  0
   -2.0630   12.0860  124.8550 C   0  0  0  0  0  0  0  0  0  0  0  0
   -2.0350   12.1760  126.2960 N   0  0  0  0  0  0  0  0  0  0  0  0
   -1.5470   11.1280  126.9640 C   0  0  0  0  0  0  0  0  0  0  0  0
   -2.1150   10.0480  126.9280 O   0  0  0  0  0  0  0  0  0  0  0  0
   -1.9200   11.0550  131.2020 C   0  0  0  0  0  0  0  0  0  0  0  0
   -3.4140   10.9860  131.4460 C   0  0  0  0  0  0  0  0  0  0  0  0
    2.8870   11.5448  130.2043 H   0  0  0  0  0  0  0  0  0  0  0  0
    0.6216   11.4200  131.1612 H   0  0  0  0  0  0  0  0  0  0  0  0
    4.4712   11.5902  128.2311 H   0  0  0  0  0  0  0  0  0  0  0  0
    4.5143   11.5091  125.8507 H   0  0  0  0  0  0  0  0  0  0  0  0
    2.8444   11.3403  124.1669 H   0  0  0  0  0  0  0  0  0  0  0  0
    0.4223   11.1966  125.0837 H   0  0  0  0  0  0  0  0  0  0  0  0
   -0.4501   11.1564  121.1312 H   0  0  0  0  0  0  0  0  0  0  0  0
    2.0790   12.2034  122.4547 H   0  0  0  0  0  0  0  0  0  0  0  0
    1.4081   11.5313  120.9300 H   0  0  0  0  0  0  0  0  0  0  0  0
    2.1951   13.1460  120.9300 H   0  0  0  0  0  0  0  0  0  0  0  0
   -0.0064   15.2560  121.7268 H   0  0  0  0  0  0  0  0  0  0  0  0
    0.9712   14.5533  120.3937 H   0  0  0  0  0  0  0  0  0  0  0  0
   -0.8151   14.3641  120.3937 H   0  0  0  0  0  0  0  0  0  0  0  0
   -1.0841   13.8066  124.2659 H   0  0  0  0  0  0  0  0  0  0  0  0
   -2.8548   12.2482  125.6011 H   0  0  0  0  0  0  0  0  0  0  0  0
   -2.3772   13.0137  126.7880 H   0  0  0  0  0  0  0  0  0  0  0  0
   -1.4487   10.1255  131.5541 H   0  0  0  0  0  0  0  0  0  0  0  0
   -1.5009   11.9122  131.7493 H   0  0  0  0  0  0  0  0  0  0  0  0
   -3.6087   10.9770  132.5286 H   0  0  0  0  0  0  0  0  0  0  0  0
   -3.9003   11.8626  130.9933 H   0  0  0  0  0  0  0  0  0  0  0  0
   -3.8175   10.0683  130.9933 H   0  0  0  0  0  0  0  0  0  0  0  0
  1  5  1  0
  1 28  1  0
  2  3  2  0
  2  4  1  0
  3  5  1  0
  4  6  2  0
  4  8  1  0
  5  7  2  0
  6  7  1  0
  6 11  1  0
  7 26  1  0
  8  9  2  0
  9 10  1  0
 10 11  2  0
 12 13  2  0
 13 14  1  0
 13 24  1  0
 14 15  1  0
 14 23  1  0
 15 16  1  0
 15 19  1  0
 16 17  1  0
 16 18  2  0
 19 20  1  0
 19 21  1  0
 19 22  1  0
 22 23  1  0
 23 24  1  0
 24 25  1  0
 25 26  1  0
 26 27  2  0
 28 29  1  0
  2 30  1  0
  3 31  1  0
  8 32  1  0
  9 33  1  0
 10 34  1  0
 11 35  1  0
 15 36  1  0
 20 37  1  0
 20 38  1  0
 20 39  1  0
 21 40  1  0
 21 41  1  0
 21 42  1  0
 23 43  1  0
 24 44  1  0
 25 45  1  0
 28 46  1  0
 28 47  1  0
 29 48  1  0
 29 49  1  0
 29 50  1  0
M  CHG  1  17  -1
A    1
O1
A    2
C4
A    3
C3
A    4
C10
A    5
C2
A    6
C9
A    7
C1
A    8
C5
A    9
C6
A   10
C7
A   11
C8
A   12
O3
A   13
C14
A   14
N2
A   15
C16
A   16
C21
A   17
O4
A   18
O5
A   19
C15
A   20
C19
A   21
C20
A   22
S1
A   23
C13
A   24
C12
A   25
N1
A   26
C11
A   27
O2
A   28
C17
A   29
C18
M  END
