1TA2_176_A_401
     RDKit          3D

 61 64  0  0  0  0  0  0  0  0999 V2000
   20.2020  -15.8250   24.1330 C   0  0  0  0  0  0  0  0  0  0  0  0
   21.4950  -15.3760   24.3010 C   0  0  0  0  0  0  0  0  0  0  0  0
   21.8120  -14.5240   25.3310 C   0  0  0  0  0  0  0  0  0  0  0  0
   20.8240  -14.1130   26.1900 C   0  0  0  0  0  0  0  0  0  0  0  0
   19.5340  -14.5620   26.0220 C   0  0  0  0  0  0  0  0  0  0  0  0
   19.2120  -15.4260   24.9960 C   0  0  0  0  0  0  0  0  0  0  0  0
   17.7760  -15.9630   24.8830 C   0  0  0  0  0  0  0  0  0  0  0  0
   17.1550  -16.1010   23.4550 C   0  0  0  0  0  0  0  0  0  0  0  0
   16.8700  -14.7370   22.8670 C   0  0  0  0  0  0  0  0  0  0  0  0
   15.9140  -14.0630   23.2910 O   0  0  0  0  0  0  0  0  0  0  0  0
   15.8660  -16.7580   23.5030 N   0  0  0  0  0  0  0  0  0  0  0  0
   17.6640  -17.2060   25.7530 C   0  0  0  0  0  0  0  0  0  0  0  0
   17.8350  -18.4740   25.2130 C   0  0  0  0  0  0  0  0  0  0  0  0
   17.7410  -19.5790   26.0350 C   0  0  0  0  0  0  0  0  0  0  0  0
   17.4820  -19.4190   27.3820 C   0  0  0  0  0  0  0  0  0  0  0  0
   17.3150  -18.1500   27.9110 C   0  0  0  0  0  0  0  0  0  0  0  0
   17.4020  -17.0370   27.1040 C   0  0  0  0  0  0  0  0  0  0  0  0
   17.6840  -14.2690   21.9030 N   0  0  0  0  0  0  0  0  0  0  0  0
   17.4520  -13.0160   21.1990 C   0  0  0  0  0  0  0  0  0  0  0  0
   16.0260  -12.8260   20.6590 C   0  0  0  0  0  0  0  0  0  0  0  0
   15.6730  -13.4810   19.6730 O   0  0  0  0  0  0  0  0  0  0  0  0
   18.5290  -13.0280   20.1110 C   0  0  0  0  0  0  0  0  0  0  0  0
   19.6380  -13.8030   20.7460 C   0  0  0  0  0  0  0  0  0  0  0  0
   18.8430  -14.9480   21.3240 C   0  0  0  0  0  0  0  0  0  0  0  0
   15.2430  -11.8970   21.2410 N   0  0  0  0  0  0  0  0  0  0  0  0
   13.8920  -11.6010   20.8080 C   0  0  0  0  0  0  0  0  0  0  0  0
   12.9150  -11.5570   21.9770 C   0  0  0  0  0  0  0  0  0  0  0  0
   12.0460  -12.5690   22.2790 C   0  0  0  0  0  0  0  0  0  0  0  0
   11.1370  -12.5980   23.3220 C   0  0  0  0  0  0  0  0  0  0  0  0
   11.0810  -11.5020   24.1630 C   0  0  0  0  0  0  0  0  0  0  0  0
   11.9440  -10.4620   23.8820 C   0  0  0  0  0  0  0  0  0  0  0  0
   12.8300  -10.4940   22.8240 C   0  0  0  0  0  0  0  0  0  0  0  0
   12.0890  -13.8950   21.2070 Cl  0  0  0  0  0  0  0  0  0  0  0  0
   11.9280   -9.0600   24.8550 Cl  0  0  0  0  0  0  0  0  0  0  0  0
   19.9628  -16.5063   23.3032 H   0  0  0  0  0  0  0  0  0  0  0  0
   22.2802  -15.7032   23.6035 H   0  0  0  0  0  0  0  0  0  0  0  0
   22.8465  -14.1751   25.4656 H   0  0  0  0  0  0  0  0  0  0  0  0
   21.0633  -13.4241   27.0135 H   0  0  0  0  0  0  0  0  0  0  0  0
   18.7486  -14.2272   26.7156 H   0  0  0  0  0  0  0  0  0  0  0  0
   17.1157  -15.1705   25.2651 H   0  0  0  0  0  0  0  0  0  0  0  0
   17.8821  -16.6730   22.8600 H   0  0  0  0  0  0  0  0  0  0  0  0
   15.5890  -16.8992   24.4849 H   0  0  0  0  0  0  0  0  0  0  0  0
   15.1640  -16.1719   23.0291 H   0  0  0  0  0  0  0  0  0  0  0  0
   18.0435  -18.5967   24.1399 H   0  0  0  0  0  0  0  0  0  0  0  0
   17.8725  -20.5878   25.6167 H   0  0  0  0  0  0  0  0  0  0  0  0
   17.4082  -20.3006   28.0357 H   0  0  0  0  0  0  0  0  0  0  0  0
   17.1111  -18.0298   28.9852 H   0  0  0  0  0  0  0  0  0  0  0  0
   17.2657  -16.0299   27.5248 H   0  0  0  0  0  0  0  0  0  0  0  0
   17.5278  -12.1493   21.8721 H   0  0  0  0  0  0  0  0  0  0  0  0
   18.1667  -13.5291   19.2012 H   0  0  0  0  0  0  0  0  0  0  0  0
   18.8322  -12.0207   19.7894 H   0  0  0  0  0  0  0  0  0  0  0  0
   20.1490  -13.2223   21.5281 H   0  0  0  0  0  0  0  0  0  0  0  0
   20.4534  -14.0947   20.0677 H   0  0  0  0  0  0  0  0  0  0  0  0
   19.4177  -15.4812   22.0956 H   0  0  0  0  0  0  0  0  0  0  0  0
   18.5761  -15.7149   20.5819 H   0  0  0  0  0  0  0  0  0  0  0  0
   15.6256  -11.3679   22.0376 H   0  0  0  0  0  0  0  0  0  0  0  0
   13.8868  -10.6234   20.3037 H   0  0  0  0  0  0  0  0  0  0  0  0
   13.5704  -12.4020   20.1261 H   0  0  0  0  0  0  0  0  0  0  0  0
   10.4794  -13.4661   23.4772 H   0  0  0  0  0  0  0  0  0  0  0  0
   10.3840  -11.4609   25.0130 H   0  0  0  0  0  0  0  0  0  0  0  0
   13.4908   -9.6302   22.6592 H   0  0  0  0  0  0  0  0  0  0  0  0
 11  8  1  0
  8  7  1  0
  8  9  1  0
  7  6  1  0
  7 12  1  0
  6  1  2  0
  6  5  1  0
  1  2  1  0
  2  3  2  0
  3  4  1  0
  4  5  2  0
 12 13  2  0
 12 17  1  0
 13 14  1  0
 14 15  2  0
 15 16  1  0
 16 17  2  0
  9 10  2  0
  9 18  1  0
 18 24  1  0
 18 19  1  0
 24 23  1  0
 19 22  1  0
 19 20  1  0
 22 23  1  0
 20 21  2  0
 20 25  1  0
 25 26  1  0
 26 27  1  0
 27 28  2  0
 27 32  1  0
 28 29  1  0
 28 33  1  0
 29 30  2  0
 30 31  1  0
 31 32  2  0
 31 34  1  0
  1 35  1  0
  2 36  1  0
  3 37  1  0
  4 38  1  0
  5 39  1  0
  7 40  1  0
  8 41  1  0
 11 42  1  0
 11 43  1  0
 13 44  1  0
 14 45  1  0
 15 46  1  0
 16 47  1  0
 17 48  1  0
 19 49  1  0
 22 50  1  0
 22 51  1  0
 23 52  1  0
 23 53  1  0
 24 54  1  0
 24 55  1  0
 25 56  1  0
 26 57  1  0
 26 58  1  0
 29 59  1  0
 30 60  1  0
 32 61  1  0
A    1
CD1
A    2
CE1
A    3
CZ1
A    4
CE2
A    5
CD2
A    6
CG1
A    7
CB0
A    8
CA0
A    9
C0
A   10
O0
A   11
N0
A   12
CG2
A   13
CD3
A   14
CE3
A   15
CZ2
A   16
CE4
A   17
CD4
A   18
N
A   19
CA
A   20
C
A   21
O
A   22
CB
A   23
CG
A   24
CD
A   25
N'
A   26
CA'
A   27
CB'
A   28
CG'
A   29
CD'
A   30
CE'
A   31
CDB
A   32
CGB
A   33
CL1
A   34
CL2
M  END
