1SQI_869_A_1501
     RDKit          3D

 57 59  0  0  0  0  0  0  0  0999 V2000
   45.7410    1.5990    8.0700 O   0  0  0  0  0  0  0  0  0  0  0  0
   47.1160    1.8760    8.3900 C   0  0  0  0  0  0  0  0  0  0  0  0
   44.8060    1.1630    5.7870 C   0  0  0  0  0  0  0  0  0  0  0  0
   44.9830    0.5580    4.5250 C   0  0  0  0  0  0  0  0  0  0  0  0
   46.1780   -0.1590    4.3240 C   0  0  0  0  0  0  0  0  0  0  0  0
   47.1740   -0.2880    5.2560 C   0  0  0  0  0  0  0  0  0  0  0  0
   46.9690    0.3120    6.5100 C   0  0  0  0  0  0  0  0  0  0  0  0
   45.7780    1.0360    6.7610 C   0  0  0  0  0  0  0  0  0  0  0  0
   44.9710   -1.3850    2.7410 C   0  0  0  0  0  0  0  0  0  0  0  0
   44.9260   -1.7960    1.3680 C   0  0  0  0  0  0  0  0  0  0  0  0
   46.0010   -1.3190    0.5940 C   0  0  0  0  0  0  0  0  0  0  0  0
   47.0630   -0.4980    1.0990 C   0  0  0  0  0  0  0  0  0  0  0  0
   47.0730   -0.0570    2.4270 C   0  0  0  0  0  0  0  0  0  0  0  0
   45.9910   -0.5360    3.2610 C   0  0  0  0  0  0  0  0  0  0  0  0
   43.9270   -1.8440    3.5890 C   0  0  0  0  0  0  0  0  0  0  0  0
   44.7360   -4.1020    0.6560 C   0  0  0  0  0  0  0  0  0  0  0  0
   43.6300   -4.8120    0.4470 C   0  0  0  0  0  0  0  0  0  0  0  0
   45.9510   -4.7200    0.7620 C   0  0  0  0  0  0  0  0  0  0  0  0
   44.1140   -6.0720    0.4150 N   0  0  0  0  0  0  0  0  0  0  0  0
   45.5960   -5.9980    0.6170 N   0  0  0  0  0  0  0  0  0  0  0  0
   42.2850   -4.5980    0.2980 O   0  0  0  0  0  0  0  0  0  0  0  0
   44.1030   -2.9680    0.6160 C   0  0  0  0  0  0  0  0  0  0  0  0
   42.8230   -2.6630    0.4160 O   0  0  0  0  0  0  0  0  0  0  0  0
   48.3160    0.7470    2.8370 S   0  0  0  0  0  0  0  0  0  0  0  0
   49.2610    0.2880    2.2240 O   0  0  0  0  0  0  0  0  0  0  0  0
   48.6460    0.6080    4.1630 O   0  0  0  0  0  0  0  0  0  0  0  0
   48.4050    1.9280    2.6670 C   0  0  0  0  0  0  0  0  0  0  0  0
   43.6240   -7.5700    0.4260 C   0  0  0  0  0  0  0  0  0  0  0  0
   43.3960   -7.8750    1.9170 C   0  0  0  0  0  0  0  0  0  0  0  0
   42.4490   -7.8120   -0.4330 C   0  0  0  0  0  0  0  0  0  0  0  0
   44.6530   -8.6610    0.0180 C   0  0  0  0  0  0  0  0  0  0  0  0
   47.2403    1.9010    9.4827 H   0  0  0  0  0  0  0  0  0  0  0  0
   47.7569    1.0889    7.9660 H   0  0  0  0  0  0  0  0  0  0  0  0
   47.4021    2.8498    7.9660 H   0  0  0  0  0  0  0  0  0  0  0  0
   43.8916    1.7375    5.9964 H   0  0  0  0  0  0  0  0  0  0  0  0
   44.2227    0.6425    3.7346 H   0  0  0  0  0  0  0  0  0  0  0  0
   48.0985   -0.8400    5.0312 H   0  0  0  0  0  0  0  0  0  0  0  0
   47.7329    0.2194    7.2960 H   0  0  0  0  0  0  0  0  0  0  0  0
   46.0282   -1.5948   -0.4705 H   0  0  0  0  0  0  0  0  0  0  0  0
   47.8862   -0.2092    0.4290 H   0  0  0  0  0  0  0  0  0  0  0  0
   44.2241   -1.7134    4.6400 H   0  0  0  0  0  0  0  0  0  0  0  0
   43.0129   -1.2648    3.3917 H   0  0  0  0  0  0  0  0  0  0  0  0
   43.7359   -2.9091    3.3917 H   0  0  0  0  0  0  0  0  0  0  0  0
   46.9478   -4.2834    0.9227 H   0  0  0  0  0  0  0  0  0  0  0  0
   41.7070   -4.5060    1.0964 H   0  0  0  0  0  0  0  0  0  0  0  0
   48.4433    2.4369    3.6415 H   0  0  0  0  0  0  0  0  0  0  0  0
   49.3223    2.1490    2.1016 H   0  0  0  0  0  0  0  0  0  0  0  0
   47.5311    2.2839    2.1016 H   0  0  0  0  0  0  0  0  0  0  0  0
   43.9433   -7.1429    2.5289 H   0  0  0  0  0  0  0  0  0  0  0  0
   42.3215   -7.8123    2.1439 H   0  0  0  0  0  0  0  0  0  0  0  0
   43.7602   -8.8878    2.1439 H   0  0  0  0  0  0  0  0  0  0  0  0
   41.5656   -7.9939    0.1968 H   0  0  0  0  0  0  0  0  0  0  0  0
   42.2715   -6.9316   -1.0681 H   0  0  0  0  0  0  0  0  0  0  0  0
   42.6339   -8.6909   -1.0681 H   0  0  0  0  0  0  0  0  0  0  0  0
   45.0826   -9.1164    0.9225 H   0  0  0  0  0  0  0  0  0  0  0  0
   44.1490   -9.4356   -0.5786 H   0  0  0  0  0  0  0  0  0  0  0  0
   45.4557   -8.2031   -0.5786 H   0  0  0  0  0  0  0  0  0  0  0  0
  1  2  1  0
  1  8  1  0
  3  4  2  0
  3  8  1  0
  4  5  1  0
  5  6  2  0
  5 14  1  0
  6  7  1  0
  7  8  2  0
  9 10  2  0
  9 14  1  0
  9 15  1  0
 10 11  1  0
 10 22  1  0
 11 12  2  0
 12 13  1  0
 13 14  2  0
 13 24  1  0
 16 17  2  0
 16 18  1  0
 16 22  1  0
 17 19  1  0
 17 21  1  0
 18 20  2  0
 19 20  1  0
 19 28  1  0
 22 23  2  0
 24 25  2  0
 24 26  2  0
 24 27  1  0
 28 29  1  0
 28 30  1  0
 28 31  1  0
  2 32  1  0
  2 33  1  0
  2 34  1  0
  3 35  1  0
  4 36  1  0
  6 37  1  0
  7 38  1  0
 11 39  1  0
 12 40  1  0
 15 41  1  0
 15 42  1  0
 15 43  1  0
 18 44  1  0
 21 45  1  0
 27 46  1  0
 27 47  1  0
 27 48  1  0
 29 49  1  0
 29 50  1  0
 29 51  1  0
 30 52  1  0
 30 53  1  0
 30 54  1  0
 31 55  1  0
 31 56  1  0
 31 57  1  0
A    1
O30
A    2
C31
A    3
C24
A    4
C25
A    5
C26
A    6
C27
A    7
C28
A    8
C29
A    9
C1
A   10
C2
A   11
C3
A   12
C4
A   13
C5
A   14
C6
A   15
C7
A   16
C9
A   17
C15
A   18
C18
A   19
N16
A   20
N17
A   21
O19
A   22
C8
A   23
O10
A   24
S11
A   25
O13
A   26
O12
A   27
C14
A   28
C20
A   29
C21
A   30
C22
A   31
C23
M  END
