1RXC_5UD_J_2051
     RDKit          3D

 29 30  0  0  0  0  0  0  0  0999 V2000
  -23.2290  -54.3250   -3.7890 F   0  0  0  0  0  0  0  0  0  0  0  0
  -22.4040  -53.3600   -3.3270 C   0  0  0  0  0  0  0  0  0  0  0  0
  -21.1400  -53.8850   -2.7560 C   0  0  0  0  0  0  0  0  0  0  0  0
  -20.8720  -55.1060   -2.7080 O   0  0  0  0  0  0  0  0  0  0  0  0
  -20.2970  -52.9740   -2.2910 N   0  0  0  0  0  0  0  0  0  0  0  0
  -20.5540  -51.6520   -2.3310 C   0  0  0  0  0  0  0  0  0  0  0  0
  -19.6590  -50.9350   -1.8600 O   0  0  0  0  0  0  0  0  0  0  0  0
  -22.6360  -51.9620   -3.3540 C   0  0  0  0  0  0  0  0  0  0  0  0
  -21.7220  -51.0810   -2.8700 N   0  0  0  0  0  0  0  0  0  0  0  0
  -22.0100  -49.6090   -2.8810 C   0  0  0  0  0  0  0  0  0  0  0  0
  -21.1210  -48.4130   -2.4750 C   0  0  0  0  0  0  0  0  0  0  0  0
  -21.3560  -47.7030   -1.2640 O   0  0  0  0  0  0  0  0  0  0  0  0
  -20.8480  -47.6510   -3.7630 C   0  0  0  0  0  0  0  0  0  0  0  0
  -21.1300  -46.2750   -3.9580 O   0  0  0  0  0  0  0  0  0  0  0  0
  -21.7280  -48.2550   -4.8360 C   0  0  0  0  0  0  0  0  0  0  0  0
  -22.6230  -49.0040   -4.0220 O   0  0  0  0  0  0  0  0  0  0  0  0
  -20.9940  -49.2520   -5.7210 C   0  0  0  0  0  0  0  0  0  0  0  0
  -21.7060  -50.2840   -6.3730 O   0  0  0  0  0  0  0  0  0  0  0  0
  -19.4066  -53.2905   -1.8812 H   0  0  0  0  0  0  0  0  0  0  0  0
  -23.5777  -51.5816   -3.7765 H   0  0  0  0  0  0  0  0  0  0  0  0
  -22.5717  -49.9674   -2.0057 H   0  0  0  0  0  0  0  0  0  0  0  0
  -20.1825  -48.7899   -2.0424 H   0  0  0  0  0  0  0  0  0  0  0  0
  -21.1609  -48.2923   -0.4928 H   0  0  0  0  0  0  0  0  0  0  0  0
  -19.7509  -47.7314   -3.7632 H   0  0  0  0  0  0  0  0  0  0  0  0
  -21.2214  -45.8291   -3.0789 H   0  0  0  0  0  0  0  0  0  0  0  0
  -22.1490  -47.4974   -5.5133 H   0  0  0  0  0  0  0  0  0  0  0  0
  -20.4926  -48.6681   -6.5070 H   0  0  0  0  0  0  0  0  0  0  0  0
  -20.3583  -49.7982   -5.0086 H   0  0  0  0  0  0  0  0  0  0  0  0
  -22.1168  -50.8794   -5.6971 H   0  0  0  0  0  0  0  0  0  0  0  0
  1  2  1  0
  2  3  1  0
  2  8  2  0
  3  4  2  0
  3  5  1  0
  5  6  1  0
  6  7  2  0
  6  9  1  0
  8  9  1  0
  9 10  1  0
 10 11  1  0
 10 16  1  0
 11 12  1  0
 11 13  1  0
 13 14  1  0
 13 15  1  0
 15 16  1  0
 15 17  1  0
 17 18  1  0
  5 19  1  0
  8 20  1  0
 10 21  1  0
 11 22  1  0
 12 23  1  0
 13 24  1  0
 14 25  1  0
 15 26  1  0
 17 27  1  0
 17 28  1  0
 18 29  1  0
A    1
F5
A    2
C5
A    3
C4
A    4
O4
A    5
N3
A    6
C2
A    7
O2
A    8
C6
A    9
N1
A   10
C1'
A   11
C2'
A   12
O2'
A   13
C3'
A   14
O3'
A   15
C4'
A   16
O4'
A   17
C5'
A   18
O5'
M  END
