1THA_T33_A_130
     RDKit          3D

 35 36  0  0  0  0  0  0  0  0999 V2000
   20.9440   42.4430    4.3060 C   0  0  0  0  0  0  0  0  0  0  0  0
   20.3030   43.5520    4.8970 C   0  0  0  0  0  0  0  0  0  0  0  0
   20.8260   44.2970    5.9150 C   0  0  0  0  0  0  0  0  0  0  0  0
   19.6180   45.8310    6.5910 I   0  0  0  0  0  0  0  0  0  0  0  0
   22.1000   43.9760    6.4920 C   0  0  0  0  0  0  0  0  0  0  0  0
   22.4990   44.8170    7.5290 O   0  0  0  0  0  0  0  0  0  0  0  0
   22.7540   42.8930    5.9010 C   0  0  0  0  0  0  0  0  0  0  0  0
   22.1960   42.1650    4.8770 C   0  0  0  0  0  0  0  0  0  0  0  0
   20.1850   41.7410    3.2760 C   0  0  0  0  0  0  0  0  0  0  0  0
   20.4570   41.5670    1.7990 C   0  0  0  0  0  0  0  0  0  0  0  0
   21.3710   42.5550    1.2340 N   0  0  0  0  0  0  0  0  0  0  0  0
   19.0950   41.4290    1.1160 C   0  0  0  0  0  0  0  0  0  0  0  0
   18.6380   42.1830    0.2560 O   0  0  0  0  0  0  0  0  0  0  0  0
   18.3530   40.4760    1.4640 O   0  0  0  0  0  0  0  0  0  0  0  0
   22.2930   44.6090    8.9540 C   0  0  0  0  0  0  0  0  0  0  0  0
   22.0380   43.2750    9.1180 C   0  0  0  0  0  0  0  0  0  0  0  0
   21.8100   42.6510   10.3260 C   0  0  0  0  0  0  0  0  0  0  0  0
   21.3570   40.5190   10.6480 I   0  0  0  0  0  0  0  0  0  0  0  0
   21.8580   43.6470   11.3500 C   0  0  0  0  0  0  0  0  0  0  0  0
   21.6430   43.1880   12.6300 O   0  0  0  0  0  0  0  0  0  0  0  0
   22.1440   45.0420   11.1600 C   0  0  0  0  0  0  0  0  0  0  0  0
   22.3940   45.6750    9.9910 C   0  0  0  0  0  0  0  0  0  0  0  0
   19.3130   43.8364    4.5110 H   0  0  0  0  0  0  0  0  0  0  0  0
   23.7521   42.6121    6.2682 H   0  0  0  0  0  0  0  0  0  0  0  0
   22.7659   41.3118    4.4805 H   0  0  0  0  0  0  0  0  0  0  0  0
   20.1127   40.7111    3.6555 H   0  0  0  0  0  0  0  0  0  0  0  0
   19.3701   42.4738    3.1811 H   0  0  0  0  0  0  0  0  0  0  0  0
   21.0366   40.6510    1.6118 H   0  0  0  0  0  0  0  0  0  0  0  0
   21.8412   43.0633    1.9965 H   0  0  0  0  0  0  0  0  0  0  0  0
   22.0757   42.0783    0.6534 H   0  0  0  0  0  0  0  0  0  0  0  0
   18.2066   40.2880    2.4249 H   0  0  0  0  0  0  0  0  0  0  0  0
   22.0129   42.6499    8.2132 H   0  0  0  0  0  0  0  0  0  0  0  0
   21.9038   43.7448   13.4059 H   0  0  0  0  0  0  0  0  0  0  0  0
   22.1617   45.6650   12.0664 H   0  0  0  0  0  0  0  0  0  0  0  0
   22.6215   46.7405    9.8392 H   0  0  0  0  0  0  0  0  0  0  0  0
  1  2  2  0
  1  8  1  0
  1  9  1  0
  2  3  1  0
  3  4  1  0
  3  5  2  0
  5  6  1  0
  5  7  1  0
  6 15  1  0
  7  8  2  0
  9 10  1  0
 10 11  1  0
 10 12  1  0
 12 13  2  0
 12 14  1  0
 15 16  2  0
 15 22  1  0
 16 17  1  0
 17 18  1  0
 17 19  2  0
 19 20  1  0
 19 21  1  0
 21 22  2  0
  2 23  1  0
  7 24  1  0
  8 25  1  0
  9 26  1  0
  9 27  1  0
 10 28  1  0
 11 29  1  0
 11 30  1  0
 14 31  1  0
 16 32  1  0
 20 33  1  0
 21 34  1  0
 22 35  1  0
A    1
C1
A    2
C2
A    3
C3
A    4
I3
A    5
C4
A    6
O4
A    7
C5
A    8
C6
A    9
C7
A   10
C8
A   11
N8
A   12
C9
A   13
O9
A   14
O10
A   15
C1'
A   16
C2'
A   17
C3'
A   18
I3'
A   19
C4'
A   20
O4'
A   21
C5'
A   22
C6'
M  END
