1THC_FL9_A_130
     RDKit          3D

 31 33  0  0  0  0  0  0  0  0999 V2000
   20.9800   43.3880    5.1010 C   0  0  0  0  0  0  0  0  0  0  0  0
   21.0630   43.1570    3.6320 C   0  0  0  0  0  0  0  0  0  0  0  0
   22.2950   43.8160    3.2550 C   0  0  0  0  0  0  0  0  0  0  0  0
   22.9560   43.9830    2.0390 C   0  0  0  0  0  0  0  0  0  0  0  0
   24.1390   44.6820    2.0000 C   0  0  0  0  0  0  0  0  0  0  0  0
   24.6560   45.1880    3.1860 C   0  0  0  0  0  0  0  0  0  0  0  0
   24.0330   45.0680    4.4250 C   0  0  0  0  0  0  0  0  0  0  0  0
   22.8610   44.3720    4.4060 C   0  0  0  0  0  0  0  0  0  0  0  0
   20.2860   42.7000    6.0190 C   0  0  0  0  0  0  0  0  0  0  0  0
   20.7440   42.8380    7.4190 C   0  0  0  0  0  0  0  0  0  0  0  0
   20.6590   41.6920    8.2330 C   0  0  0  0  0  0  0  0  0  0  0  0
   21.0830   41.7790    9.5680 C   0  0  0  0  0  0  0  0  0  0  0  0
   21.5770   42.9660   10.1060 C   0  0  0  0  0  0  0  0  0  0  0  0
   21.6550   44.0720    9.2680 C   0  0  0  0  0  0  0  0  0  0  0  0
   21.2550   44.0260    7.9430 C   0  0  0  0  0  0  0  0  0  0  0  0
   20.9810   40.2850   10.6890 Br  0  0  0  0  0  0  0  0  0  0  0  0
   22.3280   45.6850    9.9780 Br  0  0  0  0  0  0  0  0  0  0  0  0
   22.1010   44.1360    5.5090 O   0  0  0  0  0  0  0  0  0  0  0  0
   20.2590   42.5460    2.9460 O   0  0  0  0  0  0  0  0  0  0  0  0
   22.4230   43.4570    0.9000 O   0  0  0  0  0  0  0  0  0  0  0  0
   25.8390   45.8750    3.1280 O   0  0  0  0  0  0  0  0  0  0  0  0
   20.1740   40.5820    7.6910 O   0  0  0  0  0  0  0  0  0  0  0  0
   21.9720   42.9750   11.4000 O   0  0  0  0  0  0  0  0  0  0  0  0
   24.6665   44.8378    1.0474 H   0  0  0  0  0  0  0  0  0  0  0  0
   24.4527   45.5001    5.3454 H   0  0  0  0  0  0  0  0  0  0  0  0
   19.4264   42.0698    5.7471 H   0  0  0  0  0  0  0  0  0  0  0  0
   21.3395   44.9201    7.3078 H   0  0  0  0  0  0  0  0  0  0  0  0
   21.7195   42.7628    0.9574 H   0  0  0  0  0  0  0  0  0  0  0  0
   26.2981   46.1416    3.9636 H   0  0  0  0  0  0  0  0  0  0  0  0
   19.8529   39.8471    8.2714 H   0  0  0  0  0  0  0  0  0  0  0  0
   21.2967   42.9596   12.1238 H   0  0  0  0  0  0  0  0  0  0  0  0
  1  2  1  0
  1  9  2  0
  1 18  1  0
  2  3  1  0
  2 19  2  0
  3  4  1  0
  3  8  2  0
  4  5  2  0
  4 20  1  0
  5  6  1  0
  6  7  2  0
  6 21  1  0
  7  8  1  0
  8 18  1  0
  9 10  1  0
 10 11  2  0
 10 15  1  0
 11 12  1  0
 11 22  1  0
 12 13  2  0
 12 16  1  0
 13 14  1  0
 13 23  1  0
 14 15  2  0
 14 17  1  0
  5 24  1  0
  7 25  1  0
  9 26  1  0
 15 27  1  0
 20 28  1  0
 21 29  1  0
 22 30  1  0
 23 31  1  0
A    1
C2
A    2
C3
A    3
C3A
A    4
C4
A    5
C5
A    6
C6
A    7
C7
A    8
C7A
A    9
C21
A   10
C1'
A   11
C2'
A   12
C3'
A   13
C4'
A   14
C5'
A   15
C6'
A   16
BR1
A   17
BR2
A   18
O1
A   19
O3
A   20
O4
A   21
O6
A   22
O2'
A   23
O4'
M  END
