1TJP_HPF_A_1001
     RDKit          3D

 32 32  0  0  0  0  0  0  0  0999 V2000
   52.2250   25.4770   14.7920 C   0  0  0  0  0  0  0  0  0  0  0  0
   51.6320   24.1490   14.7880 C   0  0  0  0  0  0  0  0  0  0  0  0
   50.2200   24.1300   15.0820 C   0  0  0  0  0  0  0  0  0  0  0  0
   49.4300   25.2790   15.3400 C   0  0  0  0  0  0  0  0  0  0  0  0
   50.0820   26.5240   15.3170 C   0  0  0  0  0  0  0  0  0  0  0  0
   51.4380   26.6300   15.0600 C   0  0  0  0  0  0  0  0  0  0  0  0
   52.0340   27.8570   15.0600 O   0  0  0  0  0  0  0  0  0  0  0  0
   49.3050   27.7450   15.5810 N   0  0  0  0  0  0  0  0  0  0  0  0
   48.1960   28.0580   14.6470 C   0  0  0  0  0  0  0  0  0  0  0  0
   48.5990   28.0510   13.1640 C   0  0  0  0  0  0  0  0  0  0  0  0
   47.4480   28.3470   12.2370 C   0  0  0  0  0  0  0  0  0  0  0  0
   47.9160   28.0600   10.8770 O   0  0  0  0  0  0  0  0  0  0  0  0
   48.2440   29.3420    9.9520 P   0  0  0  0  0  0  0  0  0  0  0  0
   46.8860   30.2140    9.8770 O   0  0  0  0  0  0  0  0  0  0  0  0
   49.4720   30.1970   10.6130 O   0  0  0  0  0  0  0  0  0  0  0  0
   48.5940   28.7010    8.6560 O   0  0  0  0  0  0  0  0  0  0  0  0
   47.1100   27.1640   14.8710 O   0  0  0  0  0  0  0  0  0  0  0  0
   49.5380   29.1630   13.0860 O   0  0  0  0  0  0  0  0  0  0  0  0
   53.2992   25.5909   14.5844 H   0  0  0  0  0  0  0  0  0  0  0  0
   52.2107   23.2372   14.5787 H   0  0  0  0  0  0  0  0  0  0  0  0
   49.7186   23.1513   15.1080 H   0  0  0  0  0  0  0  0  0  0  0  0
   48.3530   25.1994   15.5492 H   0  0  0  0  0  0  0  0  0  0  0  0
   52.2503   28.3023   15.9174 H   0  0  0  0  0  0  0  0  0  0  0  0
   49.5219   28.3568   16.3807 H   0  0  0  0  0  0  0  0  0  0  0  0
   47.8924   29.0925   14.8654 H   0  0  0  0  0  0  0  0  0  0  0  0
   48.9883   27.0677   12.8616 H   0  0  0  0  0  0  0  0  0  0  0  0
   46.5880   27.7074   12.4846 H   0  0  0  0  0  0  0  0  0  0  0  0
   47.1243   29.3941   12.3308 H   0  0  0  0  0  0  0  0  0  0  0  0
   46.5722   30.4155   10.7941 H   0  0  0  0  0  0  0  0  0  0  0  0
   49.4102   30.1540   11.6001 H   0  0  0  0  0  0  0  0  0  0  0  0
   46.9717   27.0502   15.8447 H   0  0  0  0  0  0  0  0  0  0  0  0
   49.7828   29.4529   14.0004 H   0  0  0  0  0  0  0  0  0  0  0  0
  1  2  2  0
  1  6  1  0
  2  3  1  0
  3  4  2  0
  4  5  1  0
  5  6  2  0
  5  8  1  0
  6  7  1  0
  8  9  1  0
  9 10  1  0
  9 17  1  0
 10 11  1  0
 10 18  1  0
 11 12  1  0
 12 13  1  0
 13 14  1  0
 13 15  1  0
 13 16  2  0
  1 19  1  0
  2 20  1  0
  3 21  1  0
  4 22  1  0
  7 23  1  0
  8 24  1  0
  9 25  1  0
 10 26  1  0
 11 27  1  0
 11 28  1  0
 14 29  1  0
 15 30  1  0
 17 31  1  0
 18 32  1  0
A    1
C1
A    2
C2
A    3
C3
A    4
C4
A    5
C5
A    6
C6
A    7
O7
A    8
N8
A    9
C9
A   10
C10
A   11
C11
A   12
O12
A   13
P13
A   14
O14
A   15
O15
A   16
O16
A   17
O17
A   18
O18
M  END
