1BPY_DCT_A_338
     RDKit          3D

 43 44  0  0  0  0  0  0  0  0999 V2000
    7.1620    7.7040   10.2340 N   0  0  0  0  0  0  0  0  0  0  0  0
    7.9820    8.1320    9.2730 C   0  0  0  0  0  0  0  0  0  0  0  0
    9.2940    8.1400    9.4240 N   0  0  0  0  0  0  0  0  0  0  0  0
    9.8250    7.6800   10.5440 C   0  0  0  0  0  0  0  0  0  0  0  0
    9.0170    7.1570   11.5710 C   0  0  0  0  0  0  0  0  0  0  0  0
    7.7000    7.1660   11.3560 C   0  0  0  0  0  0  0  0  0  0  0  0
    7.4980    8.5620    8.2100 O   0  0  0  0  0  0  0  0  0  0  0  0
   11.1500    7.6970   10.6510 N   0  0  0  0  0  0  0  0  0  0  0  0
    5.8150    7.5590    9.9880 C   0  0  0  0  0  0  0  0  0  0  0  0
    5.4420    6.0980    9.7550 C   0  0  0  0  0  0  0  0  0  0  0  0
    3.9830    6.0750   10.0910 C   0  0  0  0  0  0  0  0  0  0  0  0
    3.8530    7.1490   11.2020 C   0  0  0  0  0  0  0  0  0  0  0  0
    5.0530    7.9760   11.0220 O   0  0  0  0  0  0  0  0  0  0  0  0
    3.7470    6.5840   12.6170 C   0  0  0  0  0  0  0  0  0  0  0  0
    5.0640    6.2920   13.1410 O   0  0  0  0  0  0  0  0  0  0  0  0
    5.3340    5.2760   14.3920 P   0  0  0  0  0  0  0  0  0  0  0  0
    4.1830    5.3280   15.4120 O   0  0  0  0  0  0  0  0  0  0  0  0
    6.6880    5.4400   14.7990 O   0  0  0  0  0  0  0  0  0  0  0  0
    5.3600    3.8410   13.6660 O   0  0  0  0  0  0  0  0  0  0  0  0
    4.2720    2.7420   13.4180 P   0  0  0  0  0  0  0  0  0  0  0  0
    4.4150    2.1800   11.9670 O   0  0  0  0  0  0  0  0  0  0  0  0
    2.9370    3.2900   13.8290 O   0  0  0  0  0  0  0  0  0  0  0  0
    4.8070    1.6930   14.4100 O   0  0  0  0  0  0  0  0  0  0  0  0
    4.4770    1.4880   15.9550 P   0  0  0  0  0  0  0  0  0  0  0  0
    3.9540    2.7770   16.4340 O   0  0  0  0  0  0  0  0  0  0  0  0
    3.6020    0.3010   16.0840 O   0  0  0  0  0  0  0  0  0  0  0  0
    5.9650    1.2420   16.3830 O   0  0  0  0  0  0  0  0  0  0  0  0
    9.4486    6.7615   12.5023 H   0  0  0  0  0  0  0  0  0  0  0  0
    7.0322    6.7245   12.1104 H   0  0  0  0  0  0  0  0  0  0  0  0
   11.5915    7.7027   11.5816 H   0  0  0  0  0  0  0  0  0  0  0  0
   11.7351    7.7045    9.8033 H   0  0  0  0  0  0  0  0  0  0  0  0
    5.6237    8.1721    9.0949 H   0  0  0  0  0  0  0  0  0  0  0  0
    5.6129    5.8068    8.7081 H   0  0  0  0  0  0  0  0  0  0  0  0
    6.0394    5.3936   10.3525 H   0  0  0  0  0  0  0  0  0  0  0  0
    3.3731    6.3394    9.2146 H   0  0  0  0  0  0  0  0  0  0  0  0
    3.6314    5.0827   10.4098 H   0  0  0  0  0  0  0  0  0  0  0  0
    2.9137    7.7130   11.1032 H   0  0  0  0  0  0  0  0  0  0  0  0
    3.2535    7.3220   13.2664 H   0  0  0  0  0  0  0  0  0  0  0  0
    3.1592    5.6547   12.5882 H   0  0  0  0  0  0  0  0  0  0  0  0
    6.7370    5.4459   15.7878 H   0  0  0  0  0  0  0  0  0  0  0  0
    2.8799    3.3134   14.8171 H   0  0  0  0  0  0  0  0  0  0  0  0
    3.4552    0.1019   17.0426 H   0  0  0  0  0  0  0  0  0  0  0  0
    6.0268    1.2318   17.3710 H   0  0  0  0  0  0  0  0  0  0  0  0
  1  2  1  0
  1  6  1  0
  1  9  1  0
  2  3  1  0
  2  7  2  0
  3  4  2  0
  4  5  1  0
  4  8  1  0
  5  6  2  0
  9 10  1  0
  9 13  1  0
 10 11  1  0
 11 12  1  0
 12 13  1  0
 12 14  1  0
 14 15  1  0
 15 16  1  0
 16 17  2  0
 16 18  1  0
 16 19  1  0
 19 20  1  0
 20 21  2  0
 20 22  1  0
 20 23  1  0
 23 24  1  0
 24 25  2  0
 24 26  1  0
 24 27  1  0
  5 28  1  0
  6 29  1  0
  8 30  1  0
  8 31  1  0
  9 32  1  0
 10 33  1  0
 10 34  1  0
 11 35  1  0
 11 36  1  0
 12 37  1  0
 14 38  1  0
 14 39  1  0
 18 40  1  0
 22 41  1  0
 26 42  1  0
 27 43  1  0
A    1
N1
A    2
C2
A    3
N3
A    4
C4
A    5
C5
A    6
C6
A    7
O2
A    8
N4
A    9
C1'
A   10
C2'
A   11
C3'
A   12
C4'
A   13
O4'
A   14
C5'
A   15
O5'
A   16
PA
A   17
O1A
A   18
O2A
A   19
O3A
A   20
PB
A   21
O1B
A   22
O2B
A   23
O3B
A   24
PG
A   25
O1G
A   26
O2G
A   27
O3G
M  END
