1TKA_N3T_A_681
     RDKit          3D

 45 46  0  0  0  0  0  0  0  0999 V2000
   -3.2320   60.8370   19.8970 N   0  0  0  0  0  0  0  0  0  0  0  0
   -2.3830   59.9170   20.3880 C   0  0  0  0  0  0  0  0  0  0  0  0
   -1.1050   60.3640   20.9750 C   0  0  0  0  0  0  0  0  0  0  0  0
   -2.7080   58.5800   20.3080 C   0  0  0  0  0  0  0  0  0  0  0  0
   -4.0350   58.2650   19.9290 C   0  0  0  0  0  0  0  0  0  0  0  0
   -4.3140   56.9930   19.8450 N   0  0  0  0  0  0  0  0  0  0  0  0
   -4.8760   59.2250   19.3500 C   0  0  0  0  0  0  0  0  0  0  0  0
   -4.4510   60.4920   19.3840 C   0  0  0  0  0  0  0  0  0  0  0  0
   -6.1160   58.8440   18.5940 C   0  0  0  0  0  0  0  0  0  0  0  0
   -5.8050   58.2460   17.2260 N   0  0  0  0  0  0  0  0  0  0  0  0
   -5.6930   56.9310   16.9760 C   0  0  0  0  0  0  0  0  0  0  0  0
   -5.4750   56.5790   15.3350 S   0  0  0  0  0  0  0  0  0  0  0  0
   -5.5800   58.2520   14.9830 C   0  0  0  0  0  0  0  0  0  0  0  0
   -5.8110   58.9910   16.1300 C   0  0  0  0  0  0  0  0  0  0  0  0
   -6.2060   60.4420   16.2110 C   0  0  0  0  0  0  0  0  0  0  0  0
   -5.6950   58.7380   13.5630 C   0  0  0  0  0  0  0  0  0  0  0  0
   -5.4940   57.7980   12.4230 C   0  0  0  0  0  0  0  0  0  0  0  0
   -4.0890   57.4670   12.3610 O   0  0  0  0  0  0  0  0  0  0  0  0
   -3.6290   56.3160   11.3770 P   0  0  0  0  0  0  0  0  0  0  0  0
   -2.3340   55.7430   11.8510 O   0  0  0  0  0  0  0  0  0  0  0  0
   -3.6030   56.8090    9.9410 O   0  0  0  0  0  0  0  0  0  0  0  0
   -4.7410   55.1390   11.3460 O   0  0  0  0  0  0  0  0  0  0  0  0
   -5.6430   54.5090   10.1780 P   0  0  0  0  0  0  0  0  0  0  0  0
   -4.6650   54.5610    9.0580 O   0  0  0  0  0  0  0  0  0  0  0  0
   -6.7270   55.4710    9.9490 O   0  0  0  0  0  0  0  0  0  0  0  0
   -6.0780   53.2010   10.6490 O   0  0  0  0  0  0  0  0  0  0  0  0
   -1.1769   60.3389   22.0724 H   0  0  0  0  0  0  0  0  0  0  0  0
   -0.2962   59.6954   20.6451 H   0  0  0  0  0  0  0  0  0  0  0  0
   -0.8893   61.3910   20.6451 H   0  0  0  0  0  0  0  0  0  0  0  0
   -1.9705   57.7942   20.5284 H   0  0  0  0  0  0  0  0  0  0  0  0
   -4.4364   56.4349   20.7020 H   0  0  0  0  0  0  0  0  0  0  0  0
   -4.4118   56.5471   18.9217 H   0  0  0  0  0  0  0  0  0  0  0  0
   -5.1038   61.2829   18.9860 H   0  0  0  0  0  0  0  0  0  0  0  0
   -6.6753   58.1030   19.1841 H   0  0  0  0  0  0  0  0  0  0  0  0
   -6.7039   59.7596   18.4328 H   0  0  0  0  0  0  0  0  0  0  0  0
   -5.7384   56.1601   17.7594 H   0  0  0  0  0  0  0  0  0  0  0  0
   -6.2875   60.7415   17.2663 H   0  0  0  0  0  0  0  0  0  0  0  0
   -5.4429   61.0581   15.7129 H   0  0  0  0  0  0  0  0  0  0  0  0
   -7.1761   60.5863   15.7129 H   0  0  0  0  0  0  0  0  0  0  0  0
   -6.7072   59.1545   13.4534 H   0  0  0  0  0  0  0  0  0  0  0  0
   -4.8436   59.4280   13.4679 H   0  0  0  0  0  0  0  0  0  0  0  0
   -6.0861   56.8849   12.5830 H   0  0  0  0  0  0  0  0  0  0  0  0
   -5.8192   58.2639   11.4811 H   0  0  0  0  0  0  0  0  0  0  0  0
   -3.5509   57.7976    9.9324 H   0  0  0  0  0  0  0  0  0  0  0  0
   -6.0813   53.1911   11.6389 H   0  0  0  0  0  0  0  0  0  0  0  0
  1  2  2  0
  1  8  1  0
  2  3  1  0
  2  4  1  0
  4  5  2  0
  5  6  1  0
  5  7  1  0
  7  8  2  0
  7  9  1  0
  9 10  1  0
 10 11  2  0
 10 14  1  0
 11 12  1  0
 12 13  1  0
 13 14  2  0
 13 16  1  0
 14 15  1  0
 16 17  1  0
 17 18  1  0
 18 19  1  0
 19 20  2  0
 19 21  1  0
 19 22  1  0
 22 23  1  0
 23 24  2  0
 23 25  1  0
 23 26  1  0
  3 27  1  0
  3 28  1  0
  3 29  1  0
  4 30  1  0
  6 31  1  0
  6 32  1  0
  8 33  1  0
  9 34  1  0
  9 35  1  0
 11 36  1  0
 15 37  1  0
 15 38  1  0
 15 39  1  0
 16 40  1  0
 16 41  1  0
 17 42  1  0
 17 43  1  0
 21 44  1  0
 26 45  1  0
M  CHG  2  10   1  25  -1
A    1
N1'
A    2
C2'
A    3
CM2
A    4
C3'
A    5
C4'
A    6
N4'
A    7
C5'
A    8
C6'
A    9
C7'
A   10
N3
A   11
C2
A   12
S1
A   13
C5
A   14
C4
A   15
CM4
A   16
C6
A   17
C7
A   18
O7
A   19
PA
A   20
O1A
A   21
O2A
A   22
O3A
A   23
PB
A   24
O1B
A   25
O2B
A   26
O3B
M  END
