1N4Q_MGM_B_1401
     RDKit          3D

 66 65  0  0  0  0  0  0  0  0999 V2000
   34.9370   83.8130   65.2530 C   0  0  0  0  0  0  0  0  0  0  0  0
   35.3920   85.0130   67.4200 C   0  0  0  0  0  0  0  0  0  0  0  0
   35.5100   85.0240   65.9180 C   0  0  0  0  0  0  0  0  0  0  0  0
   36.0630   86.0070   65.2090 C   0  0  0  0  0  0  0  0  0  0  0  0
   36.6870   87.2560   65.7540 C   0  0  0  0  0  0  0  0  0  0  0  0
   35.4030   88.3330   62.7760 C   0  0  0  0  0  0  0  0  0  0  0  0
   35.9280   88.9230   64.0730 C   0  0  0  0  0  0  0  0  0  0  0  0
   37.1300   88.1730   64.6410 C   0  0  0  0  0  0  0  0  0  0  0  0
   35.3720   90.0100   64.6900 C   0  0  0  0  0  0  0  0  0  0  0  0
   34.1650   90.7700   64.1800 C   0  0  0  0  0  0  0  0  0  0  0  0
   33.7710   91.9520   65.0690 C   0  0  0  0  0  0  0  0  0  0  0  0
   32.5480   92.7050   64.5970 C   0  0  0  0  0  0  0  0  0  0  0  0
   31.4590   92.7530   65.6470 C   0  0  0  0  0  0  0  0  0  0  0  0
   32.4350   93.2720   63.3580 C   0  0  0  0  0  0  0  0  0  0  0  0
   31.2130   94.0250   62.8500 C   0  0  0  0  0  0  0  0  0  0  0  0
   30.3070   93.1270   61.9840 C   0  0  0  0  0  0  0  0  0  0  0  0
   29.1590   93.7990   61.3560 N   0  0  0  0  0  0  0  0  0  0  0  0
   27.8710   93.3170   61.8670 C   0  0  0  0  0  0  0  0  0  0  0  0
   29.3320   94.8370   60.3110 C   0  0  0  0  0  0  0  0  0  0  0  0
   28.2740   95.6340   59.5450 C   0  0  0  0  0  0  0  0  0  0  0  0
   26.9400   95.2370   59.8340 O   0  0  0  0  0  0  0  0  0  0  0  0
   26.0030   96.2210   60.6990 P   0  0  0  0  0  0  0  0  0  0  0  0
   25.8780   97.5810   60.0700 O   0  0  0  0  0  0  0  0  0  0  0  0
   26.6310   96.2650   62.1890 O   0  0  0  0  0  0  0  0  0  0  0  0
   24.6310   95.4950   60.8400 O   0  0  0  0  0  0  0  0  0  0  0  0
   26.1920   97.0060   63.5290 P   0  0  0  0  0  0  0  0  0  0  0  0
   24.9390   97.8040   63.3620 O   0  0  0  0  0  0  0  0  0  0  0  0
   27.3980   97.8790   63.9360 O   0  0  0  0  0  0  0  0  0  0  0  0
   26.0340   95.8760   64.5670 O   0  0  0  0  0  0  0  0  0  0  0  0
   34.5993   83.0993   66.0189 H   0  0  0  0  0  0  0  0  0  0  0  0
   34.0833   84.1087   64.6255 H   0  0  0  0  0  0  0  0  0  0  0  0
   35.7070   83.3404   64.6255 H   0  0  0  0  0  0  0  0  0  0  0  0
   36.3927   85.1063   67.8671 H   0  0  0  0  0  0  0  0  0  0  0  0
   34.7652   85.8566   67.7447 H   0  0  0  0  0  0  0  0  0  0  0  0
   34.9319   84.0681   67.7447 H   0  0  0  0  0  0  0  0  0  0  0  0
   36.0615   85.8904   64.1152 H   0  0  0  0  0  0  0  0  0  0  0  0
   35.9511   87.7812   66.3806 H   0  0  0  0  0  0  0  0  0  0  0  0
   37.5698   86.9750   66.3470 H   0  0  0  0  0  0  0  0  0  0  0  0
   34.6874   87.5288   63.0022 H   0  0  0  0  0  0  0  0  0  0  0  0
   34.8997   89.1185   62.1931 H   0  0  0  0  0  0  0  0  0  0  0  0
   36.2416   87.9244   62.1931 H   0  0  0  0  0  0  0  0  0  0  0  0
   37.8588   88.8972   65.0340 H   0  0  0  0  0  0  0  0  0  0  0  0
   37.5924   87.5744   63.8424 H   0  0  0  0  0  0  0  0  0  0  0  0
   35.8354   90.3577   65.6251 H   0  0  0  0  0  0  0  0  0  0  0  0
   34.3927   91.1513   63.1736 H   0  0  0  0  0  0  0  0  0  0  0  0
   33.3173   90.0691   64.1770 H   0  0  0  0  0  0  0  0  0  0  0  0
   33.5712   91.5703   66.0811 H   0  0  0  0  0  0  0  0  0  0  0  0
   34.6099   92.6628   65.0380 H   0  0  0  0  0  0  0  0  0  0  0  0
   31.9140   92.7329   66.6483 H   0  0  0  0  0  0  0  0  0  0  0  0
   30.8753   93.6777   65.5279 H   0  0  0  0  0  0  0  0  0  0  0  0
   30.7962   91.8832   65.5279 H   0  0  0  0  0  0  0  0  0  0  0  0
   33.2927   93.1769   62.6759 H   0  0  0  0  0  0  0  0  0  0  0  0
   30.6347   94.3884   63.7123 H   0  0  0  0  0  0  0  0  0  0  0  0
   31.5614   94.8619   62.2269 H   0  0  0  0  0  0  0  0  0  0  0  0
   30.9251   92.6943   61.1836 H   0  0  0  0  0  0  0  0  0  0  0  0
   29.8802   92.3801   62.6696 H   0  0  0  0  0  0  0  0  0  0  0  0
   27.8874   93.3231   62.9669 H   0  0  0  0  0  0  0  0  0  0  0  0
   27.0652   93.9744   61.5086 H   0  0  0  0  0  0  0  0  0  0  0  0
   27.6947   92.2921   61.5086 H   0  0  0  0  0  0  0  0  0  0  0  0
   29.9534   95.6059   60.7934 H   0  0  0  0  0  0  0  0  0  0  0  0
   29.6425   94.1732   59.4906 H   0  0  0  0  0  0  0  0  0  0  0  0
   28.3841   96.6971   59.8051 H   0  0  0  0  0  0  0  0  0  0  0  0
   28.4412   95.4446   58.4744 H   0  0  0  0  0  0  0  0  0  0  0  0
   25.8148   98.2683   60.7797 H   0  0  0  0  0  0  0  0  0  0  0  0
   24.5745   98.0362   64.2527 H   0  0  0  0  0  0  0  0  0  0  0  0
   27.4565   97.9213   64.9234 H   0  0  0  0  0  0  0  0  0  0  0  0
  1  3  1  0
  2  3  1  0
  3  4  2  0
  4  5  1  0
  5  8  1  0
  6  7  1  0
  7  8  1  0
  7  9  2  0
  9 10  1  0
 10 11  1  0
 11 12  1  0
 12 13  1  0
 12 14  2  0
 14 15  1  0
 15 16  1  0
 16 17  1  0
 17 18  1  0
 17 19  1  0
 19 20  1  0
 20 21  1  0
 21 22  1  0
 22 23  1  0
 22 24  1  0
 22 25  2  0
 24 26  1  0
 26 27  1  0
 26 28  1  0
 26 29  2  0
  1 30  1  0
  1 31  1  0
  1 32  1  0
  2 33  1  0
  2 34  1  0
  2 35  1  0
  4 36  1  0
  5 37  1  0
  5 38  1  0
  6 39  1  0
  6 40  1  0
  6 41  1  0
  8 42  1  0
  8 43  1  0
  9 44  1  0
 10 45  1  0
 10 46  1  0
 11 47  1  0
 11 48  1  0
 13 49  1  0
 13 50  1  0
 13 51  1  0
 14 52  1  0
 15 53  1  0
 15 54  1  0
 16 55  1  0
 16 56  1  0
 18 57  1  0
 18 58  1  0
 18 59  1  0
 19 60  1  0
 19 61  1  0
 20 62  1  0
 20 63  1  0
 23 64  1  0
 27 65  1  0
 28 66  1  0
A    1
C20
A    2
C19
A    3
C18
A    4
C17
A    5
C16
A    6
C14
A    7
C13
A    8
C15
A    9
C12
A   10
C11
A   11
C9
A   12
C8
A   13
C10
A   14
C7
A   15
C6
A   16
C5
A   17
N3
A   18
C4
A   19
C2
A   20
C1
A   21
O1
A   22
PA
A   23
O1A
A   24
O3A
A   25
O2A
A   26
PB
A   27
O1B
A   28
O2B
A   29
O3B
M  END
