1TOW_CRZ_A_501
     RDKit          3D

 34 36  0  0  0  0  0  0  0  0999 V2000
   17.4080    7.2290    2.0020 O   0  0  0  0  0  0  0  0  0  0  0  0
   17.9280    6.4240    2.7610 C   0  0  0  0  0  0  0  0  0  0  0  0
   17.1920    5.4060    3.1960 O   0  0  0  0  0  0  0  0  0  0  0  0
   19.3710    6.5730    3.1920 C   0  0  0  0  0  0  0  0  0  0  0  0
   19.8380    5.4040    4.0810 C   0  0  0  0  0  0  0  0  0  0  0  0
   20.1330    4.1170    3.2890 C   0  0  0  0  0  0  0  0  0  0  0  0
   21.0330    4.3350    2.1460 N   0  0  0  0  0  0  0  0  0  0  0  0
   20.6150    4.5170    0.8490 C   0  0  0  0  0  0  0  0  0  0  0  0
   19.3820    4.6100    0.2010 C   0  0  0  0  0  0  0  0  0  0  0  0
   21.8270    4.6580    0.0110 C   0  0  0  0  0  0  0  0  0  0  0  0
   21.7870    4.8620   -1.3620 C   0  0  0  0  0  0  0  0  0  0  0  0
   20.5190    4.9520   -1.9530 C   0  0  0  0  0  0  0  0  0  0  0  0
   19.3480    4.8220   -1.1880 C   0  0  0  0  0  0  0  0  0  0  0  0
   22.9600    4.5250    0.9060 C   0  0  0  0  0  0  0  0  0  0  0  0
   22.3980    4.3210    2.2560 C   0  0  0  0  0  0  0  0  0  0  0  0
   23.3060    4.1740    3.3110 C   0  0  0  0  0  0  0  0  0  0  0  0
   24.3290    4.5700    0.6410 C   0  0  0  0  0  0  0  0  0  0  0  0
   25.1830    4.4050    1.7380 C   0  0  0  0  0  0  0  0  0  0  0  0
   24.6770    4.2150    3.0320 C   0  0  0  0  0  0  0  0  0  0  0  0
   16.9086    8.0021    2.3668 H   0  0  0  0  0  0  0  0  0  0  0  0
   20.0063    6.6112    2.2948 H   0  0  0  0  0  0  0  0  0  0  0  0
   19.4531    7.4983    3.7811 H   0  0  0  0  0  0  0  0  0  0  0  0
   20.7554    5.7092    4.6057 H   0  0  0  0  0  0  0  0  0  0  0  0
   19.0180    5.1769    4.7781 H   0  0  0  0  0  0  0  0  0  0  0  0
   20.5996    3.3878    3.9676 H   0  0  0  0  0  0  0  0  0  0  0  0
   19.1758    3.7530    2.8874 H   0  0  0  0  0  0  0  0  0  0  0  0
   18.4462    4.5183    0.7719 H   0  0  0  0  0  0  0  0  0  0  0  0
   22.7074    4.9489   -1.9581 H   0  0  0  0  0  0  0  0  0  0  0  0
   20.4395    5.1277   -3.0360 H   0  0  0  0  0  0  0  0  0  0  0  0
   18.3727    4.8883   -1.6925 H   0  0  0  0  0  0  0  0  0  0  0  0
   22.9485    4.0288    4.3411 H   0  0  0  0  0  0  0  0  0  0  0  0
   24.7169    4.7269   -0.3763 H   0  0  0  0  0  0  0  0  0  0  0  0
   26.2717    4.4248    1.5819 H   0  0  0  0  0  0  0  0  0  0  0  0
   25.3875    4.0930    3.8628 H   0  0  0  0  0  0  0  0  0  0  0  0
  1  2  1  0
  2  3  2  0
  2  4  1  0
  4  5  1  0
  5  6  1  0
  6  7  1  0
  7  8  1  0
  7 15  1  0
  8  9  2  0
  8 10  1  0
  9 13  1  0
 10 11  2  0
 10 14  1  0
 11 12  1  0
 12 13  2  0
 14 15  2  0
 14 17  1  0
 15 16  1  0
 16 19  2  0
 17 18  2  0
 18 19  1  0
  1 20  1  0
  4 21  1  0
  4 22  1  0
  5 23  1  0
  5 24  1  0
  6 25  1  0
  6 26  1  0
  9 27  1  0
 11 28  1  0
 12 29  1  0
 13 30  1  0
 16 31  1  0
 17 32  1  0
 18 33  1  0
 19 34  1  0
A    1
O19
A    2
C1
A    3
O18
A    4
C2
A    5
C3
A    6
C4
A    7
N5
A    8
C6
A    9
C17
A   10
C7
A   11
C14
A   12
C15
A   13
C16
A   14
C8
A   15
C9
A   16
C10
A   17
C13
A   18
C12
A   19
C11
M  END
