1TQU_GHA_A_1300
     RDKit          3D

 38 38  0  0  0  0  0  0  0  0999 V2000
   31.4470   66.1940    6.4380 C   0  0  0  0  0  0  0  0  0  0  0  0
   31.3220   67.2130    5.4750 O   0  0  0  0  0  0  0  0  0  0  0  0
   32.6590   66.3200    7.3730 C   0  0  0  0  0  0  0  0  0  0  0  0
   33.8480   65.6280    7.1030 O   0  0  0  0  0  0  0  0  0  0  0  0
   32.0790   66.0050    8.7380 C   0  0  0  0  0  0  0  0  0  0  0  0
   30.7030   65.4780    8.6360 N   0  0  0  0  0  0  0  0  0  0  0  0
   30.3030   66.2740    7.4660 C   0  0  0  0  0  0  0  0  0  0  0  0
   28.8900   65.9530    6.9300 C   0  0  0  0  0  0  0  0  0  0  0  0
   27.6370   66.2490    7.4710 O   0  0  0  0  0  0  0  0  0  0  0  0
   29.8730   65.5920    9.8640 C   0  0  0  0  0  0  0  0  0  0  0  0
   28.8710   64.4840   10.1390 C   0  0  0  0  0  0  0  0  0  0  0  0
   28.9190   63.1050    9.9310 O   0  0  0  0  0  0  0  0  0  0  0  0
   27.6230   65.0900   10.7560 C   0  0  0  0  0  0  0  0  0  0  0  0
   26.9200   64.0060   11.5300 C   0  0  0  0  0  0  0  0  0  0  0  0
   26.1250   63.5470   10.4490 O   0  0  0  0  0  0  0  0  0  0  0  0
   27.0650   66.4120   10.8130 O   0  0  0  0  0  0  0  0  0  0  0  0
   27.0640   67.5000   11.7970 S   0  0  0  0  0  0  0  0  0  0  0  0
   28.4180   68.0310   11.9130 O   0  0  0  0  0  0  0  0  0  0  0  0
   26.6050   66.9440   13.0700 O   0  0  0  0  0  0  0  0  0  0  0  0
   26.1630   68.4420   11.2030 O   0  0  0  0  0  0  0  0  0  0  0  0
   31.4918   65.2894    5.8137 H   0  0  0  0  0  0  0  0  0  0  0  0
   31.2149   68.0857    5.9300 H   0  0  0  0  0  0  0  0  0  0  0  0
   33.0761   67.3298    7.2455 H   0  0  0  0  0  0  0  0  0  0  0  0
   34.2832   65.3747    7.9554 H   0  0  0  0  0  0  0  0  0  0  0  0
   32.7134   65.2534    9.2306 H   0  0  0  0  0  0  0  0  0  0  0  0
   32.0480   66.9367    9.3219 H   0  0  0  0  0  0  0  0  0  0  0  0
   30.1712   67.3275    7.7538 H   0  0  0  0  0  0  0  0  0  0  0  0
   28.8688   66.4177    5.9332 H   0  0  0  0  0  0  0  0  0  0  0  0
   28.8924   64.8752    7.1499 H   0  0  0  0  0  0  0  0  0  0  0  0
   27.6928   66.2358    8.4593 H   0  0  0  0  0  0  0  0  0  0  0  0
   30.5593   65.6361   10.7225 H   0  0  0  0  0  0  0  0  0  0  0  0
   29.2596   66.4912    9.7050 H   0  0  0  0  0  0  0  0  0  0  0  0
   28.4442   64.6207    9.1344 H   0  0  0  0  0  0  0  0  0  0  0  0
   28.9352   62.6398   10.8048 H   0  0  0  0  0  0  0  0  0  0  0  0
   27.0482   64.8212    9.8575 H   0  0  0  0  0  0  0  0  0  0  0  0
   27.6100   63.2368   11.9072 H   0  0  0  0  0  0  0  0  0  0  0  0
   26.3946   64.3046   12.4491 H   0  0  0  0  0  0  0  0  0  0  0  0
   25.3239   63.0845   10.8016 H   0  0  0  0  0  0  0  0  0  0  0  0
  1  2  1  0
  1  3  1  0
  1  7  1  0
  3  4  1  0
  3  5  1  0
  5  6  1  0
  6  7  1  0
  6 10  1  0
  7  8  1  0
  8  9  1  0
 10 11  1  0
 11 12  1  0
 11 13  1  0
 13 14  1  0
 13 16  1  0
 14 15  1  0
 16 17  1  0
 17 18  1  0
 17 19  1  0
 17 20  1  0
  1 21  1  0
  2 22  1  0
  3 23  1  0
  4 24  1  0
  5 25  1  0
  5 26  1  0
  7 27  1  0
  8 28  1  0
  8 29  1  0
  9 30  1  0
 10 31  1  0
 10 32  1  0
 11 33  1  0
 12 34  1  0
 13 35  1  0
 14 36  1  0
 14 37  1  0
 15 38  1  0
M  CHG  3  18  -1  19  -1  20  -1
A    1
C1
A    2
O1
A    3
C2
A    4
O2
A    5
C3
A    6
N4
A    7
C5
A    8
C6
A    9
O6
A   10
C7
A   11
C8
A   12
O8
A   13
C9
A   14
C10
A   15
O10
A   16
O9
A   17
S9
A   18
O11
A   19
O12
A   20
O13
M  END
