1TSL_A15_A_318
     RDKit          3D

 44 48  0  0  0  0  0  0  0  0999 V2000
   20.8960   54.8800  -57.8540 C   0  0  0  0  0  0  0  0  0  0  0  0
   20.8040   56.2990  -58.1210 C   0  0  0  0  0  0  0  0  0  0  0  0
   19.8920   56.7860  -59.1650 C   0  0  0  0  0  0  0  0  0  0  0  0
   19.8430   58.1350  -59.5050 C   0  0  0  0  0  0  0  0  0  0  0  0
   20.6830   59.0530  -58.8720 C   0  0  0  0  0  0  0  0  0  0  0  0
   21.6010   58.6210  -57.8210 C   0  0  0  0  0  0  0  0  0  0  0  0
   22.5810   59.5380  -57.2680 C   0  0  0  0  0  0  0  0  0  0  0  0
   23.5540   59.0870  -56.3800 C   0  0  0  0  0  0  0  0  0  0  0  0
   23.5480   57.7700  -55.9310 C   0  0  0  0  0  0  0  0  0  0  0  0
   22.5690   56.7770  -56.4450 C   0  0  0  0  0  0  0  0  0  0  0  0
   21.6370   57.2280  -57.4360 C   0  0  0  0  0  0  0  0  0  0  0  0
   22.6700   55.3790  -56.0960 C   0  0  0  0  0  0  0  0  0  0  0  0
   24.0360   54.9750  -56.2250 C   0  0  0  0  0  0  0  0  0  0  0  0
   24.5350   54.5720  -57.4770 C   0  0  0  0  0  0  0  0  0  0  0  0
   25.8760   54.1710  -57.6070 C   0  0  0  0  0  0  0  0  0  0  0  0
   26.7210   54.1720  -56.4870 C   0  0  0  0  0  0  0  0  0  0  0  0
   26.2490   54.6070  -55.2480 C   0  0  0  0  0  0  0  0  0  0  0  0
   24.9240   54.9920  -55.1100 C   0  0  0  0  0  0  0  0  0  0  0  0
   22.2140   55.1210  -54.7420 C   0  0  0  0  0  0  0  0  0  0  0  0
   22.1740   56.1200  -53.7300 C   0  0  0  0  0  0  0  0  0  0  0  0
   21.7110   55.8070  -52.4360 C   0  0  0  0  0  0  0  0  0  0  0  0
   21.3070   54.4980  -52.1310 C   0  0  0  0  0  0  0  0  0  0  0  0
   21.3390   53.5000  -53.1190 C   0  0  0  0  0  0  0  0  0  0  0  0
   21.7810   53.8060  -54.4020 C   0  0  0  0  0  0  0  0  0  0  0  0
   21.7940   54.4490  -56.9110 O   0  0  0  0  0  0  0  0  0  0  0  0
   20.2050   54.0660  -58.4680 O   0  0  0  0  0  0  0  0  0  0  0  0
   28.0440   53.6830  -56.5930 O   0  0  0  0  0  0  0  0  0  0  0  0
   20.8650   54.1770  -50.8130 O   0  0  0  0  0  0  0  0  0  0  0  0
   26.4820   53.6830  -59.1410 Cl  0  0  0  0  0  0  0  0  0  0  0  0
   21.5860   57.0360  -51.2420 Cl  0  0  0  0  0  0  0  0  0  0  0  0
   19.2370   56.0727  -59.6867 H   0  0  0  0  0  0  0  0  0  0  0  0
   19.1387   58.4795  -60.2765 H   0  0  0  0  0  0  0  0  0  0  0  0
   20.6533   60.1121  -59.1676 H   0  0  0  0  0  0  0  0  0  0  0  0
   22.5547   60.6000  -57.5534 H   0  0  0  0  0  0  0  0  0  0  0  0
   24.3348   59.7783  -56.0301 H   0  0  0  0  0  0  0  0  0  0  0  0
   24.2855   57.4563  -55.1776 H   0  0  0  0  0  0  0  0  0  0  0  0
   23.8742   54.5707  -58.3564 H   0  0  0  0  0  0  0  0  0  0  0  0
   26.9267   54.6444  -54.3824 H   0  0  0  0  0  0  0  0  0  0  0  0
   24.5529   55.3151  -54.1262 H   0  0  0  0  0  0  0  0  0  0  0  0
   22.5065   57.1433  -53.9588 H   0  0  0  0  0  0  0  0  0  0  0  0
   21.0147   52.4769  -52.8782 H   0  0  0  0  0  0  0  0  0  0  0  0
   21.7967   53.0179  -55.1692 H   0  0  0  0  0  0  0  0  0  0  0  0
   28.5673   53.4896  -55.7751 H   0  0  0  0  0  0  0  0  0  0  0  0
   21.3525   54.5310  -50.0275 H   0  0  0  0  0  0  0  0  0  0  0  0
  1  2  1  0
  1 25  1  0
  1 26  2  0
  2  3  1  0
  2 11  2  0
  3  4  2  0
  4  5  1  0
  5  6  2  0
  6  7  1  0
  6 11  1  0
  7  8  2  0
  8  9  1  0
  9 10  2  0
 10 11  1  0
 10 12  1  0
 12 13  1  0
 12 19  1  0
 12 25  1  0
 13 14  2  0
 13 18  1  0
 14 15  1  0
 15 16  2  0
 15 29  1  0
 16 17  1  0
 16 27  1  0
 17 18  2  0
 19 20  2  0
 19 24  1  0
 20 21  1  0
 21 22  2  0
 21 30  1  0
 22 23  1  0
 22 28  1  0
 23 24  2  0
  3 31  1  0
  4 32  1  0
  5 33  1  0
  7 34  1  0
  8 35  1  0
  9 36  1  0
 14 37  1  0
 17 38  1  0
 18 39  1  0
 20 40  1  0
 23 41  1  0
 24 42  1  0
 27 43  1  0
 28 44  1  0
A    1
C1
A    2
C2
A    3
C3
A    4
C4
A    5
C5
A    6
C6
A    7
C7
A    8
C8
A    9
C9
A   10
C10
A   11
C11
A   12
C12
A   13
C13
A   14
C14
A   15
C15
A   16
C16
A   17
C17
A   18
C18
A   19
C19
A   20
C20
A   21
C21
A   22
C22
A   23
C23
A   24
C24
A   25
O1
A   26
O2
A   27
O3
A   28
O4
A   29
CL1
A   30
CL2
M  END
