1TVE_178_A_1360
     RDKit          3D

 43 44  0  0  0  0  0  0  0  0999 V2000
   -4.8950   35.3630  -18.8670 O   0  0  0  0  0  0  0  0  0  0  0  0
   -4.0130   36.3900  -18.6150 C   0  0  0  0  0  0  0  0  0  0  0  0
   -2.6140   36.1520  -18.6410 C   0  0  0  0  0  0  0  0  0  0  0  0
   -2.0890   34.7780  -18.9420 C   0  0  0  0  0  0  0  0  0  0  0  0
   -1.2680   34.2700  -17.7680 C   0  0  0  0  0  0  0  0  0  0  0  0
   -1.2260   34.8190  -20.1880 C   0  0  0  0  0  0  0  0  0  0  0  0
   -1.7240   37.2080  -18.3830 C   0  0  0  0  0  0  0  0  0  0  0  0
   -2.2210   38.4950  -18.1020 C   0  0  0  0  0  0  0  0  0  0  0  0
   -3.6080   38.7270  -18.0770 C   0  0  0  0  0  0  0  0  0  0  0  0
   -4.5000   37.6850  -18.3320 C   0  0  0  0  0  0  0  0  0  0  0  0
   -1.1420   39.7700  -17.7890 S   0  0  0  0  0  0  0  0  0  0  0  0
    1.1630   38.1690  -12.6140 O   0  0  0  0  0  0  0  0  0  0  0  0
    0.6180   38.5440  -13.8210 C   0  0  0  0  0  0  0  0  0  0  0  0
   -0.7670   38.8270  -13.9230 C   0  0  0  0  0  0  0  0  0  0  0  0
   -1.6500   38.7190  -12.7130 C   0  0  0  0  0  0  0  0  0  0  0  0
   -2.3050   40.0610  -12.4330 C   0  0  0  0  0  0  0  0  0  0  0  0
   -2.7200   37.6700  -12.9470 C   0  0  0  0  0  0  0  0  0  0  0  0
   -1.3090   39.2080  -15.1590 C   0  0  0  0  0  0  0  0  0  0  0  0
   -0.4810   39.3080  -16.2930 C   0  0  0  0  0  0  0  0  0  0  0  0
    0.8930   39.0270  -16.1900 C   0  0  0  0  0  0  0  0  0  0  0  0
    1.4420   38.6470  -14.9660 C   0  0  0  0  0  0  0  0  0  0  0  0
   -5.3143   34.8748  -18.1147 H   0  0  0  0  0  0  0  0  0  0  0  0
   -2.9376   34.0988  -19.1108 H   0  0  0  0  0  0  0  0  0  0  0  0
   -1.7511   34.5689  -16.8261 H   0  0  0  0  0  0  0  0  0  0  0  0
   -1.2019   33.1730  -17.8142 H   0  0  0  0  0  0  0  0  0  0  0  0
   -0.2568   34.7005  -17.8142 H   0  0  0  0  0  0  0  0  0  0  0  0
   -0.1660   34.8694  -19.8984 H   0  0  0  0  0  0  0  0  0  0  0  0
   -1.4003   33.9116  -20.7848 H   0  0  0  0  0  0  0  0  0  0  0  0
   -1.4856   35.7058  -20.7848 H   0  0  0  0  0  0  0  0  0  0  0  0
   -0.6388   37.0293  -18.4005 H   0  0  0  0  0  0  0  0  0  0  0  0
   -3.9910   39.7341  -17.8555 H   0  0  0  0  0  0  0  0  0  0  0  0
   -5.5838   37.8724  -18.3126 H   0  0  0  0  0  0  0  0  0  0  0  0
    0.7396   38.4603  -11.7678 H   0  0  0  0  0  0  0  0  0  0  0  0
   -1.0379   38.4250  -11.8476 H   0  0  0  0  0  0  0  0  0  0  0  0
   -2.3792   40.2131  -11.3461 H   0  0  0  0  0  0  0  0  0  0  0  0
   -1.6979   40.8647  -12.8751 H   0  0  0  0  0  0  0  0  0  0  0  0
   -3.3121   40.0768  -12.8751 H   0  0  0  0  0  0  0  0  0  0  0  0
   -3.0930   37.3044  -11.9789 H   0  0  0  0  0  0  0  0  0  0  0  0
   -3.5503   38.1137  -13.5159 H   0  0  0  0  0  0  0  0  0  0  0  0
   -2.2928   36.8310  -13.5159 H   0  0  0  0  0  0  0  0  0  0  0  0
   -2.3833   39.4291  -15.2425 H   0  0  0  0  0  0  0  0  0  0  0  0
    1.5369   39.1073  -17.0782 H   0  0  0  0  0  0  0  0  0  0  0  0
    2.5172   38.4271  -14.8907 H   0  0  0  0  0  0  0  0  0  0  0  0
  1  2  1  0
  2  3  2  0
  2 10  1  0
  3  4  1  0
  3  7  1  0
  4  5  1  0
  4  6  1  0
  7  8  2  0
  8  9  1  0
  8 11  1  0
  9 10  2  0
 11 19  1  0
 12 13  1  0
 13 14  2  0
 13 21  1  0
 14 15  1  0
 14 18  1  0
 15 16  1  0
 15 17  1  0
 18 19  2  0
 19 20  1  0
 20 21  2  0
  1 22  1  0
  4 23  1  0
  5 24  1  0
  5 25  1  0
  5 26  1  0
  6 27  1  0
  6 28  1  0
  6 29  1  0
  7 30  1  0
  9 31  1  0
 10 32  1  0
 12 33  1  0
 15 34  1  0
 16 35  1  0
 16 36  1  0
 16 37  1  0
 17 38  1  0
 17 39  1  0
 17 40  1  0
 18 41  1  0
 20 42  1  0
 21 43  1  0
A    1
O
A    2
C1
A    3
C2
A    4
C2A
A    5
C2B
A    6
C2G
A    7
C3
A    8
C4
A    9
C5
A   10
C6
A   11
S
A   12
O'
A   13
C1'
A   14
C2'
A   15
C2X
A   16
C2Y
A   17
C2Z
A   18
C3'
A   19
C4'
A   20
C5'
A   21
C6'
M  END
