1TVO_FRZ_A_1001
     RDKit          3D

 38 42  0  0  0  0  0  0  0  0999 V2000
   11.5040   -5.7240   14.4460 C   0  0  0  0  0  0  0  0  0  0  0  0
   11.1560   -5.2580   15.7780 C   0  0  0  0  0  0  0  0  0  0  0  0
    9.8050   -4.9890   16.0940 N   0  0  0  0  0  0  0  0  0  0  0  0
    8.7110   -5.1280   15.2100 C   0  0  0  0  0  0  0  0  0  0  0  0
    9.0180   -5.5610   13.8530 C   0  0  0  0  0  0  0  0  0  0  0  0
   10.4020   -5.8570   13.4960 C   0  0  0  0  0  0  0  0  0  0  0  0
    9.3480   -4.5910   17.4250 N   0  0  0  0  0  0  0  0  0  0  0  0
    7.9410   -4.5200   17.3180 C   0  0  0  0  0  0  0  0  0  0  0  0
    7.5010   -4.8360   15.9620 C   0  0  0  0  0  0  0  0  0  0  0  0
    6.1390   -4.8200   15.4290 C   0  0  0  0  0  0  0  0  0  0  0  0
    7.2430   -4.1580   18.5460 C   0  0  0  0  0  0  0  0  0  0  0  0
    7.8090   -3.1670   19.4580 C   0  0  0  0  0  0  0  0  0  0  0  0
    7.0640   -2.6020   20.5780 C   0  0  0  0  0  0  0  0  0  0  0  0
    5.6990   -3.0090   20.8540 C   0  0  0  0  0  0  0  0  0  0  0  0
    5.1220   -4.0260   19.9930 C   0  0  0  0  0  0  0  0  0  0  0  0
    5.8900   -4.5790   18.8870 C   0  0  0  0  0  0  0  0  0  0  0  0
    5.2240   -3.6860   15.6090 C   0  0  0  0  0  0  0  0  0  0  0  0
    3.7830   -3.7150   15.4050 C   0  0  0  0  0  0  0  0  0  0  0  0
    3.0980   -4.9090   14.9750 C   0  0  0  0  0  0  0  0  0  0  0  0
    3.9300   -6.0350   14.7410 N   0  0  0  0  0  0  0  0  0  0  0  0
    5.5090   -6.0060   14.9660 N   0  0  0  0  0  0  0  0  0  0  0  0
    2.7430   -2.7440   15.6320 C   0  0  0  0  0  0  0  0  0  0  0  0
    1.4710   -3.2920   15.3700 N   0  0  0  0  0  0  0  0  0  0  0  0
    1.7120   -4.6510   14.9570 N   0  0  0  0  0  0  0  0  0  0  0  0
    2.9010   -1.4330   16.1170 N   0  0  0  0  0  0  0  0  0  0  0  0
   12.5410   -5.9636   14.1682 H   0  0  0  0  0  0  0  0  0  0  0  0
   11.9401   -5.1154   16.5362 H   0  0  0  0  0  0  0  0  0  0  0  0
    8.2165   -5.6636   13.1067 H   0  0  0  0  0  0  0  0  0  0  0  0
   10.6238   -6.1931   12.4724 H   0  0  0  0  0  0  0  0  0  0  0  0
    8.8435   -2.8317   19.2928 H   0  0  0  0  0  0  0  0  0  0  0  0
    7.5459   -1.8540   21.2248 H   0  0  0  0  0  0  0  0  0  0  0  0
    5.1251   -2.5656   21.6811 H   0  0  0  0  0  0  0  0  0  0  0  0
    4.0974   -4.3810   20.1778 H   0  0  0  0  0  0  0  0  0  0  0  0
    5.4213   -5.3613   18.2719 H   0  0  0  0  0  0  0  0  0  0  0  0
    5.6664   -2.7301   15.9260 H   0  0  0  0  0  0  0  0  0  0  0  0
    0.9843   -5.3292   14.6899 H   0  0  0  0  0  0  0  0  0  0  0  0
    2.9220   -1.2584   17.1319 H   0  0  0  0  0  0  0  0  0  0  0  0
    2.9956   -0.6477   15.4572 H   0  0  0  0  0  0  0  0  0  0  0  0
  1  2  2  0
  1  6  1  0
  2  3  1  0
  3  4  1  0
  3  7  1  0
  4  5  1  0
  4  9  2  0
  5  6  2  0
  7  8  2  0
  8  9  1  0
  8 11  1  0
  9 10  1  0
 10 17  2  0
 10 21  1  0
 11 12  2  0
 11 16  1  0
 12 13  1  0
 13 14  2  0
 14 15  1  0
 15 16  2  0
 17 18  1  0
 18 19  2  0
 18 22  1  0
 19 20  1  0
 19 24  1  0
 20 21  2  0
 22 23  2  0
 22 25  1  0
 23 24  1  0
  1 26  1  0
  2 27  1  0
  5 28  1  0
  6 29  1  0
 12 30  1  0
 13 31  1  0
 14 32  1  0
 15 33  1  0
 16 34  1  0
 17 35  1  0
 24 36  1  0
 25 37  1  0
 25 38  1  0
A    1
C1
A    2
C2
A    3
N3
A    4
C4
A    5
C5
A    6
C6
A    7
N7
A    8
C8
A    9
C9
A   10
C10
A   11
C11
A   12
C12
A   13
C13
A   14
C14
A   15
C15
A   16
C16
A   17
C22
A   18
C23
A   19
C24
A   20
N25
A   21
N26
A   22
C27
A   23
N28
A   24
N29
A   25
N30
M  END
