1TL7_ONM_A_100
     RDKit          3D

 65 68  0  0  0  0  0  0  0  0999 V2000
   66.8560  -14.3330   54.3330 C   0  0  0  0  0  0  0  0  0  0  0  0
   65.4090  -14.6420   54.4560 N   0  0  0  0  0  0  0  0  0  0  0  0
   64.8280  -15.8410   54.7390 C   0  0  0  0  0  0  0  0  0  0  0  0
   65.6550  -17.0950   54.9760 C   0  0  0  0  0  0  0  0  0  0  0  0
   65.0000  -18.5110   55.3150 C   0  0  0  0  0  0  0  0  0  0  0  0
   63.5650  -18.4920   55.3720 C   0  0  0  0  0  0  0  0  0  0  0  0
   62.7670  -17.1650   55.1170 C   0  0  0  0  0  0  0  0  0  0  0  0
   63.4020  -15.9260   54.8190 C   0  0  0  0  0  0  0  0  0  0  0  0
   62.4580  -14.7050   54.5980 C   0  0  0  0  0  0  0  0  0  0  0  0
   62.7550  -13.4230   55.2390 O   0  0  0  0  0  0  0  0  0  0  0  0
   61.3290  -14.8290   53.8160 O   0  0  0  0  0  0  0  0  0  0  0  0
   60.2560  -13.8150   53.6790 C   0  0  0  0  0  0  0  0  0  0  0  0
   59.2730  -14.3570   52.6570 C   0  0  0  0  0  0  0  0  0  0  0  0
   59.9000  -15.1470   51.6340 O   0  0  0  0  0  0  0  0  0  0  0  0
   59.3130  -13.5710   54.9060 C   0  0  0  0  0  0  0  0  0  0  0  0
   58.4910  -12.2710   55.1490 C   0  0  0  0  0  0  0  0  0  0  0  0
   58.4950  -11.2170   54.1710 O   0  0  0  0  0  0  0  0  0  0  0  0
   57.5890   -9.8810   54.3680 P   0  0  0  0  0  0  0  0  0  0  0  0
   58.0320   -9.0460   53.0520 O   0  0  0  0  0  0  0  0  0  0  0  0
   56.1680  -10.3070   54.3430 O   0  0  0  0  0  0  0  0  0  0  0  0
   58.2520   -9.1530   55.6070 O   0  0  0  0  0  0  0  0  0  0  0  0
   57.3980   -8.9610   56.9440 P   0  0  0  0  0  0  0  0  0  0  0  0
   56.4720  -10.2900   57.0640 O   0  0  0  0  0  0  0  0  0  0  0  0
   56.3530   -7.9190   56.8260 O   0  0  0  0  0  0  0  0  0  0  0  0
   58.2200   -9.0260   58.2070 O   0  0  0  0  0  0  0  0  0  0  0  0
   59.0980   -7.7540   58.1750 P   0  0  0  0  0  0  0  0  0  0  0  0
   60.6860   -7.9010   58.2930 O   0  0  0  0  0  0  0  0  0  0  0  0
   58.4960   -6.2610   58.0930 O   0  0  0  0  0  0  0  0  0  0  0  0
   58.6010   -7.4670   59.5330 O   0  0  0  0  0  0  0  0  0  0  0  0
   58.3930  -14.6750   54.8900 O   0  0  0  0  0  0  0  0  0  0  0  0
   58.3650  -15.1930   53.5330 C   0  0  0  0  0  0  0  0  0  0  0  0
   56.9770  -15.3780   53.0210 N   0  0  0  0  0  0  0  0  0  0  0  0
   55.9640  -14.5140   52.8930 C   0  0  0  0  0  0  0  0  0  0  0  0
   54.9260  -15.1130   52.2970 N   0  0  0  0  0  0  0  0  0  0  0  0
   55.2900  -16.3550   52.0120 C   0  0  0  0  0  0  0  0  0  0  0  0
   56.6020  -16.5170   52.4590 C   0  0  0  0  0  0  0  0  0  0  0  0
   57.2810  -17.7020   52.3020 N   0  0  0  0  0  0  0  0  0  0  0  0
   56.7240  -18.7940   51.7060 C   0  0  0  0  0  0  0  0  0  0  0  0
   57.4210  -19.9170   51.5840 N   0  0  0  0  0  0  0  0  0  0  0  0
   55.3930  -18.7010   51.2300 N   0  0  0  0  0  0  0  0  0  0  0  0
   54.6800  -17.4770   51.3830 C   0  0  0  0  0  0  0  0  0  0  0  0
   53.5320  -17.4460   50.9480 O   0  0  0  0  0  0  0  0  0  0  0  0
   67.2974  -14.2387   55.3362 H   0  0  0  0  0  0  0  0  0  0  0  0
   67.3589  -15.1440   53.7859 H   0  0  0  0  0  0  0  0  0  0  0  0
   66.9838  -13.3873   53.7859 H   0  0  0  0  0  0  0  0  0  0  0  0
   64.7648  -13.8519   54.3091 H   0  0  0  0  0  0  0  0  0  0  0  0
   66.7508  -17.0234   54.9111 H   0  0  0  0  0  0  0  0  0  0  0  0
   65.5946  -19.4199   55.4893 H   0  0  0  0  0  0  0  0  0  0  0  0
   63.0183  -19.4195   55.5973 H   0  0  0  0  0  0  0  0  0  0  0  0
   61.6687  -17.1933   55.1709 H   0  0  0  0  0  0  0  0  0  0  0  0
   60.8072  -12.8870   53.4668 H   0  0  0  0  0  0  0  0  0  0  0  0
   58.7609  -13.5686   52.0858 H   0  0  0  0  0  0  0  0  0  0  0  0
   60.4572  -15.8491   52.0543 H   0  0  0  0  0  0  0  0  0  0  0  0
   60.0389  -13.4568   55.7245 H   0  0  0  0  0  0  0  0  0  0  0  0
   57.4429  -12.5791   55.2775 H   0  0  0  0  0  0  0  0  0  0  0  0
   58.9972  -11.8131   56.0116 H   0  0  0  0  0  0  0  0  0  0  0  0
   55.8369  -10.4063   55.2707 H   0  0  0  0  0  0  0  0  0  0  0  0
   56.0674   -7.6342   57.7301 H   0  0  0  0  0  0  0  0  0  0  0  0
   58.3550   -5.9113   59.0084 H   0  0  0  0  0  0  0  0  0  0  0  0
   59.2343   -7.8327   60.2003 H   0  0  0  0  0  0  0  0  0  0  0  0
   58.7710  -16.2152   53.5175 H   0  0  0  0  0  0  0  0  0  0  0  0
   55.9814  -13.4664   53.2279 H   0  0  0  0  0  0  0  0  0  0  0  0
   57.7347  -20.4224   52.4249 H   0  0  0  0  0  0  0  0  0  0  0  0
   57.6482  -20.2831   50.6484 H   0  0  0  0  0  0  0  0  0  0  0  0
   54.9449  -19.5106   50.7776 H   0  0  0  0  0  0  0  0  0  0  0  0
  1  2  1  0
  2  3  1  0
  3  4  2  0
  3  8  1  0
  4  5  1  0
  5  6  2  0
  6  7  1  0
  7  8  2  0
  8  9  1  0
  9 10  2  0
  9 11  1  0
 11 12  1  0
 12 13  1  0
 12 15  1  0
 13 14  1  0
 13 31  1  0
 15 16  1  0
 15 30  1  0
 16 17  1  0
 17 18  1  0
 18 19  2  0
 18 20  1  0
 18 21  1  0
 21 22  1  0
 22 23  2  0
 22 24  1  0
 22 25  1  0
 25 26  1  0
 26 27  2  0
 26 28  1  0
 26 29  1  0
 30 31  1  0
 31 32  1  0
 32 33  1  0
 32 36  1  0
 33 34  2  0
 34 35  1  0
 35 36  2  0
 35 41  1  0
 36 37  1  0
 37 38  2  0
 38 39  1  0
 38 40  1  0
 40 41  1  0
 41 42  2  0
  1 43  1  0
  1 44  1  0
  1 45  1  0
  2 46  1  0
  4 47  1  0
  5 48  1  0
  6 49  1  0
  7 50  1  0
 12 51  1  0
 13 52  1  0
 14 53  1  0
 15 54  1  0
 16 55  1  0
 16 56  1  0
 20 57  1  0
 24 58  1  0
 28 59  1  0
 29 60  1  0
 31 61  1  0
 33 62  1  0
 39 63  1  0
 39 64  1  0
 40 65  1  0
A    1
CA7
A    2
NA1
A    3
CA6
A    4
CA5
A    5
CA4
A    6
CA3
A    7
CA2
A    8
CA1
A    9
CA
A   10
OA
A   11
O3'
A   12
C3'
A   13
C2'
A   14
O2'
A   15
C4'
A   16
C5'
A   17
O5'
A   18
PA
A   19
O3A
A   20
O2A
A   21
O1A
A   22
PB
A   23
O3B
A   24
O2B
A   25
O1B
A   26
PG
A   27
O2G
A   28
O3G
A   29
O1G
A   30
O4'
A   31
C1'
A   32
N9
A   33
C8
A   34
N7
A   35
C5
A   36
C4
A   37
N3
A   38
C2
A   39
N2
A   40
N1
A   41
C6
A   42
O6
M  END
