1U1E_182_A_3400
     RDKit          3D

 34 35  0  0  0  0  0  0  0  0999 V2000
   12.2800   97.5150   70.2560 O   0  0  0  0  0  0  0  0  0  0  0  0
   10.9930   98.1030   70.0720 C   0  0  0  0  0  0  0  0  0  0  0  0
   10.8040   99.2300   71.0950 C   0  0  0  0  0  0  0  0  0  0  0  0
   11.0770   98.6760   72.3950 O   0  0  0  0  0  0  0  0  0  0  0  0
   11.2390   99.7130   73.3880 C   0  0  0  0  0  0  0  0  0  0  0  0
   12.4570  100.3850   73.4760 N   0  0  0  0  0  0  0  0  0  0  0  0
   12.5780  101.7740   73.1730 C   0  0  0  0  0  0  0  0  0  0  0  0
   11.6100  102.4610   72.8110 O   0  0  0  0  0  0  0  0  0  0  0  0
   13.8370  102.4010   73.2810 N   0  0  0  0  0  0  0  0  0  0  0  0
   14.9660  101.6530   73.6830 C   0  0  0  0  0  0  0  0  0  0  0  0
   16.0560  102.2250   73.7190 O   0  0  0  0  0  0  0  0  0  0  0  0
   13.6050   99.6590   73.8820 C   0  0  0  0  0  0  0  0  0  0  0  0
   14.8630  100.2760   73.9910 C   0  0  0  0  0  0  0  0  0  0  0  0
   16.2530   99.2920   74.4580 Se  0  0  0  0  0  2  0  0  0  0  0  0
   17.0200   98.8260   72.9600 C   0  0  0  0  0  0  0  0  0  0  0  0
   18.1670   99.4930   72.4580 C   0  0  0  0  0  0  0  0  0  0  0  0
   18.7090   99.1320   71.1940 C   0  0  0  0  0  0  0  0  0  0  0  0
   18.0970   98.0890   70.4490 C   0  0  0  0  0  0  0  0  0  0  0  0
   16.9530   97.4080   70.9410 C   0  0  0  0  0  0  0  0  0  0  0  0
   16.4210   97.7830   72.2100 C   0  0  0  0  0  0  0  0  0  0  0  0
   12.4682   97.4290   71.2241 H   0  0  0  0  0  0  0  0  0  0  0  0
   10.9178   98.5133   69.0542 H   0  0  0  0  0  0  0  0  0  0  0  0
   10.2137   97.3398   70.2139 H   0  0  0  0  0  0  0  0  0  0  0  0
   11.5020  100.0530   70.8821 H   0  0  0  0  0  0  0  0  0  0  0  0
    9.7808   99.6312   71.0489 H   0  0  0  0  0  0  0  0  0  0  0  0
   10.4670  100.4712   73.1900 H   0  0  0  0  0  0  0  0  0  0  0  0
   11.1678   99.1736   74.3440 H   0  0  0  0  0  0  0  0  0  0  0  0
   13.9331  103.4039   73.0668 H   0  0  0  0  0  0  0  0  0  0  0  0
   13.5090   98.5887   74.1170 H   0  0  0  0  0  0  0  0  0  0  0  0
   18.6387  100.2922   73.0486 H   0  0  0  0  0  0  0  0  0  0  0  0
   19.5921   99.6545   70.7977 H   0  0  0  0  0  0  0  0  0  0  0  0
   18.5172   97.8039   69.4732 H   0  0  0  0  0  0  0  0  0  0  0  0
   16.4846   96.6046   70.3535 H   0  0  0  0  0  0  0  0  0  0  0  0
   15.5399   97.2593   72.6094 H   0  0  0  0  0  0  0  0  0  0  0  0
  1  2  1  0
  2  3  1  0
  3  4  1  0
  4  5  1  0
  5  6  1  0
  6  7  1  0
  6 12  1  0
  7  8  2  0
  7  9  1  0
  9 10  1  0
 10 11  2  0
 10 13  1  0
 12 13  2  0
 13 14  1  0
 14 15  1  0
 15 16  2  0
 15 20  1  0
 16 17  1  0
 17 18  2  0
 18 19  1  0
 19 20  2  0
  1 21  1  0
  2 22  1  0
  2 23  1  0
  3 24  1  0
  3 25  1  0
  5 26  1  0
  5 27  1  0
  9 28  1  0
 12 29  1  0
 16 30  1  0
 17 31  1  0
 18 32  1  0
 19 33  1  0
 20 34  1  0
A    1
OAC
A    2
CAJ
A    3
CAK
A    4
OAN
A    5
CAL
A    6
NAT
A    7
CAS
A    8
OAB
A    9
NAM
A   10
CAR
A   11
OAA
A   12
CAI
A   13
CAQ
A   14
SE
A   15
CAP
A   16
CAH
A   17
CAF
A   18
CAD
A   19
CAE
A   20
CAG
M  END
