1U1F_183_A_3300
     RDKit          3D

 50 52  0  0  0  0  0  0  0  0999 V2000
   38.5300  160.8370   59.8370 O   0  0  0  0  0  0  0  0  0  0  0  0
   39.6880  161.5990   60.2270 C   0  0  0  0  0  0  0  0  0  0  0  0
   39.7310  162.9350   59.4800 C   0  0  0  0  0  0  0  0  0  0  0  0
   39.6190  162.7320   58.0550 O   0  0  0  0  0  0  0  0  0  0  0  0
   39.1450  163.8530   57.3140 C   0  0  0  0  0  0  0  0  0  0  0  0
   37.8030  164.2670   57.4550 N   0  0  0  0  0  0  0  0  0  0  0  0
   37.4510  165.4620   58.1840 C   0  0  0  0  0  0  0  0  0  0  0  0
   38.2680  166.1940   58.7700 O   0  0  0  0  0  0  0  0  0  0  0  0
   36.0750  165.8070   58.2770 N   0  0  0  0  0  0  0  0  0  0  0  0
   35.0540  165.0000   57.6720 C   0  0  0  0  0  0  0  0  0  0  0  0
   33.8860  165.3970   57.8220 O   0  0  0  0  0  0  0  0  0  0  0  0
   36.7580  163.4640   56.8500 C   0  0  0  0  0  0  0  0  0  0  0  0
   35.3720  163.7920   56.9390 C   0  0  0  0  0  0  0  0  0  0  0  0
   34.2440  162.8740   56.3330 C   0  0  0  0  0  0  0  0  0  0  0  0
   33.6000  161.9510   57.4210 C   0  0  0  0  0  0  0  0  0  0  0  0
   32.2250  162.1270   57.9010 C   0  0  0  0  0  0  0  0  0  0  0  0
   31.6690  161.2610   58.9460 C   0  0  0  0  0  0  0  0  0  0  0  0
   32.5120  160.2120   59.5080 C   0  0  0  0  0  0  0  0  0  0  0  0
   34.4270  160.8940   57.9930 C   0  0  0  0  0  0  0  0  0  0  0  0
   33.8870  160.0110   59.0380 C   0  0  0  0  0  0  0  0  0  0  0  0
   34.6550  158.9550   59.5170 O   0  0  0  0  0  0  0  0  0  0  0  0
   35.0240  157.4790   59.3920 C   0  0  0  0  0  0  0  0  0  0  0  0
   33.9620  156.6770   58.9080 C   0  0  0  0  0  0  0  0  0  0  0  0
   34.0060  156.1270   57.5500 C   0  0  0  0  0  0  0  0  0  0  0  0
   32.8680  155.3520   57.0560 C   0  0  0  0  0  0  0  0  0  0  0  0
   31.6900  155.1190   57.9100 C   0  0  0  0  0  0  0  0  0  0  0  0
   31.6420  155.6650   59.2690 C   0  0  0  0  0  0  0  0  0  0  0  0
   32.7830  156.4400   59.7660 C   0  0  0  0  0  0  0  0  0  0  0  0
   38.0535  160.5234   60.6461 H   0  0  0  0  0  0  0  0  0  0  0  0
   39.6465  161.7912   61.3093 H   0  0  0  0  0  0  0  0  0  0  0  0
   40.5916  161.0237   59.9769 H   0  0  0  0  0  0  0  0  0  0  0  0
   38.8963  163.5652   59.8208 H   0  0  0  0  0  0  0  0  0  0  0  0
   40.6931  163.4249   59.6908 H   0  0  0  0  0  0  0  0  0  0  0  0
   39.7746  164.7103   57.5946 H   0  0  0  0  0  0  0  0  0  0  0  0
   39.1997  163.5117   56.2697 H   0  0  0  0  0  0  0  0  0  0  0  0
   35.8041  166.6573   58.7914 H   0  0  0  0  0  0  0  0  0  0  0  0
   37.0475  162.5588   56.2960 H   0  0  0  0  0  0  0  0  0  0  0  0
   33.4606  163.5122   55.8982 H   0  0  0  0  0  0  0  0  0  0  0  0
   34.7009  162.2315   55.5659 H   0  0  0  0  0  0  0  0  0  0  0  0
   31.5999  162.9226   57.4695 H   0  0  0  0  0  0  0  0  0  0  0  0
   30.6365  161.4000   59.2989 H   0  0  0  0  0  0  0  0  0  0  0  0
   32.1099  159.5604   60.2978 H   0  0  0  0  0  0  0  0  0  0  0  0
   35.4600  160.7567   57.6408 H   0  0  0  0  0  0  0  0  0  0  0  0
   35.8739  157.3886   58.6995 H   0  0  0  0  0  0  0  0  0  0  0  0
   35.2725  157.1179   60.4009 H   0  0  0  0  0  0  0  0  0  0  0  0
   34.8846  156.2951   56.9098 H   0  0  0  0  0  0  0  0  0  0  0  0
   32.8919  154.9390   56.0368 H   0  0  0  0  0  0  0  0  0  0  0  0
   30.8426  154.5324   57.5255 H   0  0  0  0  0  0  0  0  0  0  0  0
   30.7623  155.4958   59.9073 H   0  0  0  0  0  0  0  0  0  0  0  0
   32.7610  156.8487   60.7870 H   0  0  0  0  0  0  0  0  0  0  0  0
  1  2  1  0
  2  3  1  0
  3  4  1  0
  4  5  1  0
  5  6  1  0
  6  7  1  0
  6 12  1  0
  7  8  2  0
  7  9  1  0
  9 10  1  0
 10 11  2  0
 10 13  1  0
 12 13  2  0
 13 14  1  0
 14 15  1  0
 15 16  2  0
 15 19  1  0
 16 17  1  0
 17 18  2  0
 18 20  1  0
 19 20  2  0
 20 21  1  0
 21 22  1  0
 22 23  1  0
 23 24  2  0
 23 28  1  0
 24 25  1  0
 25 26  2  0
 26 27  1  0
 27 28  2  0
  1 29  1  0
  2 30  1  0
  2 31  1  0
  3 32  1  0
  3 33  1  0
  5 34  1  0
  5 35  1  0
  9 36  1  0
 12 37  1  0
 14 38  1  0
 14 39  1  0
 16 40  1  0
 17 41  1  0
 18 42  1  0
 19 43  1  0
 22 44  1  0
 22 45  1  0
 24 46  1  0
 25 47  1  0
 26 48  1  0
 27 49  1  0
 28 50  1  0
A    1
OAC
A    2
CAN
A    3
CAO
A    4
OAT
A    5
CAR
A    6
NBC
A    7
CBB
A    8
OAB
A    9
NAS
A   10
CBA
A   11
OAA
A   12
CAY
A   13
CAZ
A   14
CAQ
A   15
CAW
A   16
CAK
A   17
CAH
A   18
CAL
A   19
CAM
A   20
CAX
A   21
OAU
A   22
CAP
A   23
CAV
A   24
CAJ
A   25
CAG
A   26
CAE
A   27
CAF
A   28
CAI
M  END
