1U1G_BBB_A_3300
     RDKit          3D

 51 53  0  0  0  0  0  0  0  0999 V2000
    7.1250  162.7960   10.8800 O   0  0  0  0  0  0  0  0  0  0  0  0
    5.9010  163.4640   10.5590 C   0  0  0  0  0  0  0  0  0  0  0  0
    5.7200  164.7030   11.4360 C   0  0  0  0  0  0  0  0  0  0  0  0
    6.0960  164.4510   12.8150 O   0  0  0  0  0  0  0  0  0  0  0  0
    6.6000  165.6010   13.5190 C   0  0  0  0  0  0  0  0  0  0  0  0
    7.9580  165.9720   13.3790 N   0  0  0  0  0  0  0  0  0  0  0  0
    8.3280  167.1420   12.6360 C   0  0  0  0  0  0  0  0  0  0  0  0
    7.5230  167.8470   12.0220 O   0  0  0  0  0  0  0  0  0  0  0  0
    9.7050  167.4720   12.5330 N   0  0  0  0  0  0  0  0  0  0  0  0
   10.7070  166.6650   13.1450 C   0  0  0  0  0  0  0  0  0  0  0  0
   11.8760  167.0660   13.0480 O   0  0  0  0  0  0  0  0  0  0  0  0
    8.9900  165.1650   13.9920 C   0  0  0  0  0  0  0  0  0  0  0  0
   10.3760  165.4770   13.8790 C   0  0  0  0  0  0  0  0  0  0  0  0
   11.5060  164.5410   14.4310 C   0  0  0  0  0  0  0  0  0  0  0  0
   12.1550  163.6350   13.3550 C   0  0  0  0  0  0  0  0  0  0  0  0
   13.4990  163.8460   12.8730 C   0  0  0  0  0  0  0  0  0  0  0  0
   14.0620  163.0180   11.8340 C   0  0  0  0  0  0  0  0  0  0  0  0
   13.2630  161.9650   11.2780 C   0  0  0  0  0  0  0  0  0  0  0  0
   11.3630  162.5720   12.7950 C   0  0  0  0  0  0  0  0  0  0  0  0
   11.9150  161.7310   11.7450 C   0  0  0  0  0  0  0  0  0  0  0  0
   11.1580  160.7070   11.1970 O   0  0  0  0  0  0  0  0  0  0  0  0
   10.6890  159.2640   11.2760 C   0  0  0  0  0  0  0  0  0  0  0  0
   11.6610  158.3490   11.7380 C   0  0  0  0  0  0  0  0  0  0  0  0
   11.5200  157.7240   13.0390 C   0  0  0  0  0  0  0  0  0  0  0  0
   12.5380  156.8170   13.5080 C   0  0  0  0  0  0  0  0  0  0  0  0
   13.6910  156.5380   12.6720 C   0  0  0  0  0  0  0  0  0  0  0  0
   13.8370  157.1550   11.3750 C   0  0  0  0  0  0  0  0  0  0  0  0
   12.8160  158.0630   10.9080 C   0  0  0  0  0  0  0  0  0  0  0  0
    8.6260  164.0770   14.7250 O   0  0  0  0  0  0  0  0  0  0  0  0
    7.2235  162.7423   11.8636 H   0  0  0  0  0  0  0  0  0  0  0  0
    5.9214  163.7686    9.5022 H   0  0  0  0  0  0  0  0  0  0  0  0
    5.0625  162.7753   10.7396 H   0  0  0  0  0  0  0  0  0  0  0  0
    6.3479  165.5143   11.0390 H   0  0  0  0  0  0  0  0  0  0  0  0
    4.6555  164.9798   11.4186 H   0  0  0  0  0  0  0  0  0  0  0  0
    5.9992  166.4627   13.1926 H   0  0  0  0  0  0  0  0  0  0  0  0
    6.5240  165.3062   14.5760 H   0  0  0  0  0  0  0  0  0  0  0  0
    9.9851  168.3112   12.0055 H   0  0  0  0  0  0  0  0  0  0  0  0
   12.2921  165.1711   14.8727 H   0  0  0  0  0  0  0  0  0  0  0  0
   11.0349  163.8733   15.1674 H   0  0  0  0  0  0  0  0  0  0  0  0
   14.1063  164.6543   13.3064 H   0  0  0  0  0  0  0  0  0  0  0  0
   15.0870  163.1916   11.4744 H   0  0  0  0  0  0  0  0  0  0  0  0
   13.6813  161.3269   10.4857 H   0  0  0  0  0  0  0  0  0  0  0  0
   10.3407  162.3958   13.1610 H   0  0  0  0  0  0  0  0  0  0  0  0
    9.8273  159.2213   11.9584 H   0  0  0  0  0  0  0  0  0  0  0  0
   10.4438  158.9616   10.2472 H   0  0  0  0  0  0  0  0  0  0  0  0
   10.6414  157.9406   13.6644 H   0  0  0  0  0  0  0  0  0  0  0  0
   12.4412  156.3391   14.4940 H   0  0  0  0  0  0  0  0  0  0  0  0
   14.4660  155.8454   13.0323 H   0  0  0  0  0  0  0  0  0  0  0  0
   14.7154  156.9361   10.7501 H   0  0  0  0  0  0  0  0  0  0  0  0
   12.9141  158.5388    9.9211 H   0  0  0  0  0  0  0  0  0  0  0  0
    8.6401  164.1192   15.7140 H   0  0  0  0  0  0  0  0  0  0  0  0
  1  2  1  0
  2  3  1  0
  3  4  1  0
  4  5  1  0
  5  6  1  0
  6  7  1  0
  6 12  1  0
  7  8  2  0
  7  9  1  0
  9 10  1  0
 10 11  2  0
 10 13  1  0
 12 13  2  0
 12 29  1  0
 13 14  1  0
 14 15  1  0
 15 16  2  0
 15 19  1  0
 16 17  1  0
 17 18  2  0
 18 20  1  0
 19 20  2  0
 20 21  1  0
 21 22  1  0
 22 23  1  0
 23 24  2  0
 23 28  1  0
 24 25  1  0
 25 26  2  0
 26 27  1  0
 27 28  2  0
  1 30  1  0
  2 31  1  0
  2 32  1  0
  3 33  1  0
  3 34  1  0
  5 35  1  0
  5 36  1  0
  9 37  1  0
 14 38  1  0
 14 39  1  0
 16 40  1  0
 17 41  1  0
 18 42  1  0
 19 43  1  0
 22 44  1  0
 22 45  1  0
 24 46  1  0
 25 47  1  0
 26 48  1  0
 27 49  1  0
 28 50  1  0
 29 51  1  0
A    1
OAC
A    2
CAN
A    3
CAO
A    4
OAT
A    5
CAR
A    6
NBC
A    7
CBB
A    8
OAB
A    9
NAS
A   10
CBA
A   11
OAA
A   12
CAY
A   13
CAZ
A   14
CAQ
A   15
CAW
A   16
CAK
A   17
CAH
A   18
CAL
A   19
CAM
A   20
CAX
A   21
OAU
A   22
CAP
A   23
CAV
A   24
CAJ
A   25
CAG
A   26
CAE
A   27
CAF
A   28
CAI
A   29
OAD
M  END
