1U3S_797_A_201
     RDKit          3D

 32 35  0  0  0  0  0  0  0  0999 V2000
   28.5560   36.9250   37.8410 C   0  0  0  0  0  0  0  0  0  0  0  0
   28.8270   36.3570   39.1400 C   0  0  0  0  0  0  0  0  0  0  0  0
   27.7760   36.1960   40.0930 C   0  0  0  0  0  0  0  0  0  0  0  0
   26.3940   36.6220   39.7330 C   0  0  0  0  0  0  0  0  0  0  0  0
   26.1350   37.1800   38.4500 C   0  0  0  0  0  0  0  0  0  0  0  0
   27.2100   37.3290   37.5200 C   0  0  0  0  0  0  0  0  0  0  0  0
   28.0480   35.6400   41.3790 C   0  0  0  0  0  0  0  0  0  0  0  0
   26.9740   35.4930   42.3120 C   0  0  0  0  0  0  0  0  0  0  0  0
   25.6430   35.9000   41.9620 C   0  0  0  0  0  0  0  0  0  0  0  0
   25.3440   36.4620   40.6810 C   0  0  0  0  0  0  0  0  0  0  0  0
   24.6310   35.7380   42.8950 O   0  0  0  0  0  0  0  0  0  0  0  0
   29.6560   37.1110   36.8170 C   0  0  0  0  0  0  0  0  0  0  0  0
   31.0570   36.7560   36.8020 C   0  0  0  0  0  0  0  0  0  0  0  0
   31.6060   37.1910   35.5520 C   0  0  0  0  0  0  0  0  0  0  0  0
   30.6050   37.7710   34.8600 O   0  0  0  0  0  0  0  0  0  0  0  0
   29.5120   37.7190   35.5850 N   0  0  0  0  0  0  0  0  0  0  0  0
   31.9610   36.0910   37.7340 C   0  0  0  0  0  0  0  0  0  0  0  0
   33.3440   35.9000   37.3790 C   0  0  0  0  0  0  0  0  0  0  0  0
   33.8320   36.3630   36.1040 C   0  0  0  0  0  0  0  0  0  0  0  0
   32.9710   37.0080   35.1860 C   0  0  0  0  0  0  0  0  0  0  0  0
   35.1640   36.1880   35.7540 O   0  0  0  0  0  0  0  0  0  0  0  0
   29.8502   36.0460   39.3975 H   0  0  0  0  0  0  0  0  0  0  0  0
   25.1168   37.4938   38.1764 H   0  0  0  0  0  0  0  0  0  0  0  0
   27.0044   37.7644   36.5310 H   0  0  0  0  0  0  0  0  0  0  0  0
   29.0682   35.3292   41.6485 H   0  0  0  0  0  0  0  0  0  0  0  0
   27.1697   35.0645   43.3060 H   0  0  0  0  0  0  0  0  0  0  0  0
   24.3168   36.7664   40.4318 H   0  0  0  0  0  0  0  0  0  0  0  0
   24.8395   35.7714   43.8622 H   0  0  0  0  0  0  0  0  0  0  0  0
   31.5874   35.7361   38.7058 H   0  0  0  0  0  0  0  0  0  0  0  0
   34.0279   35.4007   38.0811 H   0  0  0  0  0  0  0  0  0  0  0  0
   33.3457   37.3597   34.2135 H   0  0  0  0  0  0  0  0  0  0  0  0
   35.8532   36.0974   36.4589 H   0  0  0  0  0  0  0  0  0  0  0  0
  1  2  2  0
  1  6  1  0
  1 12  1  0
  2  3  1  0
  3  4  2  0
  3  7  1  0
  4  5  1  0
  4 10  1  0
  5  6  2  0
  7  8  2  0
  8  9  1  0
  9 10  2  0
  9 11  1  0
 12 13  1  0
 12 16  2  0
 13 14  2  0
 13 17  1  0
 14 15  1  0
 14 20  1  0
 15 16  1  0
 17 18  2  0
 18 19  1  0
 19 20  2  0
 19 21  1  0
  2 22  1  0
  5 23  1  0
  6 24  1  0
  7 25  1  0
  8 26  1  0
 10 27  1  0
 11 28  1  0
 17 29  1  0
 18 30  1  0
 20 31  1  0
 21 32  1  0
A    1
C1
A    2
C2
A    3
C3
A    4
C4
A    5
C5
A    6
C6
A    7
C10
A    8
C11
A    9
C12
A   10
C13
A   11
O17
A   12
C18
A   13
C19
A   14
C20
A   15
O21
A   16
N22
A   17
C23
A   18
C24
A   19
C25
A   20
C26
A   21
O30
M  END
