1U4M_H3S_A_301
     RDKit          3D

 47 48  0  0  0  0  0  0  0  0999 V2000
   18.8050    7.8000   34.8080 C   0  0  0  0  0  0  0  0  0  0  0  0
   18.8260    8.9980   33.7520 C   0  0  0  0  0  0  0  0  0  0  0  0
   18.5970    8.2890   36.1470 O   0  0  0  0  0  0  0  0  0  0  0  0
   17.7620    6.7800   34.3140 C   0  0  0  0  0  0  0  0  0  0  0  0
   19.0570    8.5470   32.3760 O   0  0  0  0  0  0  0  0  0  0  0  0
   19.8890   10.0590   34.1420 C   0  0  0  0  0  0  0  0  0  0  0  0
   17.2640    8.9090   36.4020 C   0  0  0  0  0  0  0  0  0  0  0  0
   18.0960    6.3150   32.8800 C   0  0  0  0  0  0  0  0  0  0  0  0
   17.7480    5.6750   35.2300 O   0  0  0  0  0  0  0  0  0  0  0  0
   18.0880    7.5390   31.9290 C   0  0  0  0  0  0  0  0  0  0  0  0
   21.2260    9.5670   33.9410 O   0  0  0  0  0  0  0  0  0  0  0  0
   16.7330    8.5840   37.8510 C   0  0  0  0  0  0  0  0  0  0  0  0
   17.3660   10.3870   36.2870 O   0  0  0  0  0  0  0  0  0  0  0  0
   17.1130    5.3440   32.4210 N   0  0  0  0  0  0  0  0  0  0  0  0
   16.7570    8.1190   31.8810 O   0  0  0  0  0  0  0  0  0  0  0  0
   17.7160    9.2280   38.9190 C   0  0  0  0  0  0  0  0  0  0  0  0
   15.4310    9.2100   38.0180 O   0  0  0  0  0  0  0  0  0  0  0  0
   18.0630   11.1170   37.2340 C   0  0  0  0  0  0  0  0  0  0  0  0
   17.4970    3.7450   32.4610 S   0  0  0  0  0  0  0  0  0  0  0  0
   18.2590   10.6140   38.4970 C   0  0  0  0  0  0  0  0  0  0  0  0
   18.8230    8.3420   39.1370 O   0  0  0  0  0  0  0  0  0  0  0  0
   14.2380    8.2240   37.8670 S   0  0  0  0  0  0  0  0  0  0  0  0
   18.5750   12.4450   36.8440 C   0  0  0  0  0  0  0  0  0  0  0  0
   17.7570    3.3420   33.8040 O   0  0  0  0  0  0  0  0  0  0  0  0
   16.4020    2.9920   31.9560 O   0  0  0  0  0  0  0  0  0  0  0  0
   18.8500    3.4900   31.5340 O   0  0  0  0  0  0  0  0  0  0  0  0
   13.0360    8.9670   38.0590 O   0  0  0  0  0  0  0  0  0  0  0  0
   14.2090    7.6480   36.5480 O   0  0  0  0  0  0  0  0  0  0  0  0
   14.3150    7.0260   39.0130 O   0  0  0  0  0  0  0  0  0  0  0  0
   18.2210   12.9310   35.7930 O   0  0  0  0  0  0  0  0  0  0  0  0
   19.4520   13.1590   37.6610 O   0  0  0  0  0  0  0  0  0  0  0  0
   19.7759    7.2868   34.8710 H   0  0  0  0  0  0  0  0  0  0  0  0
   17.8236    9.4499   33.7833 H   0  0  0  0  0  0  0  0  0  0  0  0
   16.7641    7.2416   34.2799 H   0  0  0  0  0  0  0  0  0  0  0  0
   19.7418   10.9563   33.5229 H   0  0  0  0  0  0  0  0  0  0  0  0
   19.7654   10.2940   35.2095 H   0  0  0  0  0  0  0  0  0  0  0  0
   16.5691    8.4944   35.6569 H   0  0  0  0  0  0  0  0  0  0  0  0
   19.0905    5.8449   32.8801 H   0  0  0  0  0  0  0  0  0  0  0  0
   17.7523    6.0166   36.1592 H   0  0  0  0  0  0  0  0  0  0  0  0
   18.3737    7.2018   30.9217 H   0  0  0  0  0  0  0  0  0  0  0  0
   21.6550    9.4091   34.8191 H   0  0  0  0  0  0  0  0  0  0  0  0
   16.6698    7.4944   37.9884 H   0  0  0  0  0  0  0  0  0  0  0  0
   16.2717    5.4675   33.0023 H   0  0  0  0  0  0  0  0  0  0  0  0
   16.4264    8.2631   32.8030 H   0  0  0  0  0  0  0  0  0  0  0  0
   17.1318    9.3757   39.8393 H   0  0  0  0  0  0  0  0  0  0  0  0
   18.8183   11.2141   39.2299 H   0  0  0  0  0  0  0  0  0  0  0  0
   18.9669    8.2268   40.1097 H   0  0  0  0  0  0  0  0  0  0  0  0
  1  2  1  0
  1  3  1  0
  1  4  1  0
  2  5  1  0
  2  6  1  0
  3  7  1  0
  4  8  1  0
  4  9  1  0
  5 10  1  0
  6 11  1  0
  7 12  1  0
  7 13  1  0
  8 10  1  0
  8 14  1  0
 10 15  1  0
 12 16  1  0
 12 17  1  0
 13 18  1  0
 14 19  1  0
 16 20  1  0
 16 21  1  0
 17 22  1  0
 18 20  2  0
 18 23  1  0
 19 24  2  0
 19 25  2  0
 19 26  1  0
 22 27  2  0
 22 28  2  0
 22 29  1  0
 23 30  1  0
 23 31  2  0
  1 32  1  0
  2 33  1  0
  4 34  1  0
  6 35  1  0
  6 36  1  0
  7 37  1  0
  8 38  1  0
  9 39  1  0
 10 40  1  0
 11 41  1  0
 12 42  1  0
 14 43  1  0
 15 44  1  0
 16 45  1  0
 20 46  1  0
 21 47  1  0
M  CHG  3  26  -1  29  -1  30  -1
A    1
C1
A    2
C2
A    3
O3
A    4
C4
A    5
O5
A    6
C6
A    7
C7
A    8
C8
A    9
O9
A   10
C10
A   11
O11
A   12
C12
A   13
O13
A   14
N14
A   15
O15
A   16
C17
A   17
O18
A   18
C19
A   19
S20
A   20
C24
A   21
O25
A   22
S26
A   23
C27
A   24
O28
A   25
O29
A   26
O30
A   27
O31
A   28
O32
A   29
O33
A   30
O34
A   31
O35
M  END
