1U5A_BIK_A_1001
     RDKit          3D

 23 24  0  0  0  0  0  0  0  0999 V2000
   20.8230   15.9260    7.5870 O   0  0  0  0  0  0  0  0  0  0  0  0
   21.8680   16.2480    6.8590 C   0  0  0  0  0  0  0  0  0  0  0  0
   22.9920   15.4180    6.8600 C   0  0  0  0  0  0  0  0  0  0  0  0
   24.1360   15.7130    6.1060 C   0  0  0  0  0  0  0  0  0  0  0  0
   24.2000   16.8600    5.3140 C   0  0  0  0  0  0  0  0  0  0  0  0
   23.0980   17.7150    5.2910 C   0  0  0  0  0  0  0  0  0  0  0  0
   21.9430   17.4100    6.0570 C   0  0  0  0  0  0  0  0  0  0  0  0
   23.1890   18.8710    4.4890 C   0  0  0  0  0  0  0  0  0  0  0  0
   25.3670   17.1500    4.5760 C   0  0  0  0  0  0  0  0  0  0  0  0
   25.4590   18.2980    3.7710 C   0  0  0  0  0  0  0  0  0  0  0  0
   26.5210   18.5090    3.0820 O   0  0  0  0  0  0  0  0  0  0  0  0
   24.3460   19.1600    3.7220 C   0  0  0  0  0  0  0  0  0  0  0  0
   24.3940   20.4120    2.8620 C   0  0  0  0  0  0  0  0  0  0  0  0
   23.4070   21.2010    2.8010 O   0  0  0  0  0  0  0  0  0  0  0  0
   25.4260   20.6360    2.2040 O   0  0  0  0  0  0  0  0  0  0  0  0
   20.8833   15.9446    8.5750 H   0  0  0  0  0  0  0  0  0  0  0  0
   22.9786   14.5041    7.4720 H   0  0  0  0  0  0  0  0  0  0  0  0
   24.9972   15.0294    6.1391 H   0  0  0  0  0  0  0  0  0  0  0  0
   21.0834   18.0957    6.0260 H   0  0  0  0  0  0  0  0  0  0  0  0
   22.3387   19.5681    4.4574 H   0  0  0  0  0  0  0  0  0  0  0  0
   26.2237   16.4623    4.6320 H   0  0  0  0  0  0  0  0  0  0  0  0
   27.3821   18.6801    3.5396 H   0  0  0  0  0  0  0  0  0  0  0  0
   22.9885   21.5355    3.6335 H   0  0  0  0  0  0  0  0  0  0  0  0
  1  2  1  0
  2  3  2  0
  2  7  1  0
  3  4  1  0
  4  5  2  0
  5  6  1  0
  5  9  1  0
  6  7  2  0
  6  8  1  0
  8 12  2  0
  9 10  2  0
 10 11  1  0
 10 12  1  0
 12 13  1  0
 13 14  1  0
 13 15  2  0
  1 16  1  0
  3 17  1  0
  4 18  1  0
  7 19  1  0
  8 20  1  0
  9 21  1  0
 11 22  1  0
 14 23  1  0
A    1
O6
A    2
C6
A    3
C7
A    4
C8
A    5
C8A
A    6
C4A
A    7
C5
A    8
C4
A    9
C1
A   10
C2
A   11
O2
A   12
C3
A   13
C31
A   14
O32
A   15
O31
M  END
