1RR5_NPR_?_1001
     RDKit          3D

 31 32  0  0  0  0  0  0  0  0999 V2000
   47.7080   44.4860   78.4340 N   0  0  0  0  0  0  0  0  0  0  0  0
   47.9280   45.3770   77.3710 C   0  0  0  0  0  0  0  0  0  0  0  0
   46.9670   46.3000   77.0660 N   0  0  0  0  0  0  0  0  0  0  0  0
   47.1160   47.1990   76.0470 C   0  0  0  0  0  0  0  0  0  0  0  0
   46.1150   48.1320   75.7550 O   0  0  0  0  0  0  0  0  0  0  0  0
   48.3240   47.1650   75.2690 C   0  0  0  0  0  0  0  0  0  0  0  0
   48.5810   48.0340   74.2100 N   0  0  0  0  0  0  0  0  0  0  0  0
   49.7580   47.9770   73.4760 C   0  0  0  0  0  0  0  0  0  0  0  0
   50.7530   46.9700   73.8240 C   0  0  0  0  0  0  0  0  0  0  0  0
   50.4910   46.1150   74.8810 N   0  0  0  0  0  0  0  0  0  0  0  0
   49.3170   46.1780   75.6070 C   0  0  0  0  0  0  0  0  0  0  0  0
   49.0880   45.3150   76.6460 N   0  0  0  0  0  0  0  0  0  0  0  0
   52.0780   46.8330   73.0760 C   0  0  0  0  0  0  0  0  0  0  0  0
   52.8200   48.0630   73.1920 O   0  0  0  0  0  0  0  0  0  0  0  0
   51.9020   46.4940   71.5650 C   0  0  0  0  0  0  0  0  0  0  0  0
   51.1820   45.2610   71.4170 O   0  0  0  0  0  0  0  0  0  0  0  0
   53.2860   46.3740   70.9130 C   0  0  0  0  0  0  0  0  0  0  0  0
   53.1560   46.0920   69.5180 O   0  0  0  0  0  0  0  0  0  0  0  0
   47.7892   44.8148   79.4067 H   0  0  0  0  0  0  0  0  0  0  0  0
   47.4655   43.5038   78.2409 H   0  0  0  0  0  0  0  0  0  0  0  0
   50.9068   46.3448   72.9321 H   0  0  0  0  0  0  0  0  0  0  0  0
   51.6198   47.5564   74.1628 H   0  0  0  0  0  0  0  0  0  0  0  0
   51.1954   45.4077   75.1349 H   0  0  0  0  0  0  0  0  0  0  0  0
   49.7988   44.6091   76.8854 H   0  0  0  0  0  0  0  0  0  0  0  0
   52.4618   45.9829   73.6592 H   0  0  0  0  0  0  0  0  0  0  0  0
   52.9511   48.2803   74.1489 H   0  0  0  0  0  0  0  0  0  0  0  0
   51.3306   47.2952   71.0734 H   0  0  0  0  0  0  0  0  0  0  0  0
   50.9680   44.8944   72.3114 H   0  0  0  0  0  0  0  0  0  0  0  0
   53.8310   47.3207   71.0423 H   0  0  0  0  0  0  0  0  0  0  0  0
   53.8372   45.5523   71.3936 H   0  0  0  0  0  0  0  0  0  0  0  0
   52.7446   45.1995   69.3987 H   0  0  0  0  0  0  0  0  0  0  0  0
  1  2  1  0
  2  3  2  0
  2 12  1  0
  3  4  1  0
  4  5  2  0
  4  6  1  0
  6  7  1  0
  6 11  2  0
  7  8  2  0
  8  9  1  0
  8 13  1  0
  9 10  1  0
 10 11  1  0
 11 12  1  0
 13 14  1  0
 13 15  1  0
 15 16  1  0
 15 17  1  0
 17 18  1  0
  1 19  1  0
  1 20  1  0
  9 21  1  0
  9 22  1  0
 10 23  1  0
 12 24  1  0
 13 25  1  0
 14 26  1  0
 15 27  1  0
 16 28  1  0
 17 29  1  0
 17 30  1  0
 18 31  1  0
A    1
N1
A    2
C2
A    3
N3
A    4
C4
A    5
O5
A    6
C6
A    7
N7
A    8
C8
A    9
C9
A   10
N10
A   11
C11
A   12
N12
A   13
C13
A   14
O14
A   15
C15
A   16
O16
A   17
C17
A   18
O18
M  END
