1U6S_DCC_A_960
     RDKit          3D

119121  0  0  0  0  0  0  0  0999 V2000
   19.7900  -29.5890   -7.1940 C   0  0  0  0  0  0  0  0  0  0  0  0
   19.1400  -28.8400   -5.0270 C   0  0  0  0  0  0  0  0  0  0  0  0
   18.7700  -27.6130   -5.4930 C   0  0  0  0  0  0  0  0  0  0  0  0
   18.9260  -27.4000   -6.8500 C   0  0  0  0  0  0  0  0  0  0  0  0
   18.4380  -27.7220   -3.3610 C   0  0  0  0  0  0  0  0  0  0  0  0
   14.7800   -6.5480   -1.8790 C   0  0  0  0  0  0  0  0  0  0  0  0
   16.2950   -6.6250   -1.9940 C   0  0  0  0  0  0  0  0  0  0  0  0
   16.8570   -5.5180   -2.8540 C   0  0  0  0  0  0  0  0  0  0  0  0
   18.9330  -28.9350   -3.7200 N   0  0  0  0  0  0  0  0  0  0  0  0
   18.3260  -26.8970   -4.4430 N   0  0  0  0  0  0  0  0  0  0  0  0
   19.6680  -29.8690   -5.8890 N   0  0  0  0  0  0  0  0  0  0  0  0
   19.4230  -28.3790   -7.6570 N   0  0  0  0  0  0  0  0  0  0  0  0
   18.5710  -26.1960   -7.3500 N   0  0  0  0  0  0  0  0  0  0  0  0
   19.2420  -30.1140   -2.8620 C   0  0  0  0  0  0  0  0  0  0  0  0
   20.6830  -29.8730   -2.4620 C   0  0  0  0  0  0  0  0  0  0  0  0
   21.3570  -31.1090   -2.2500 O   0  0  0  0  0  0  0  0  0  0  0  0
   20.5310  -29.0530   -1.1870 C   0  0  0  0  0  0  0  0  0  0  0  0
   21.8040  -28.9860   -0.5140 O   0  0  0  0  0  0  0  0  0  0  0  0
   19.2810  -29.6670   -0.5340 C   0  0  0  0  0  0  0  0  0  0  0  0
   18.4820  -30.1260   -1.6440 O   0  0  0  0  0  0  0  0  0  0  0  0
   18.4320  -28.7470    0.3790 C   0  0  0  0  0  0  0  0  0  0  0  0
   17.3410  -28.0010   -0.2860 O   0  0  0  0  0  0  0  0  0  0  0  0
   16.4350  -27.0470    0.6760 P   0  0  0  0  0  0  0  0  0  0  0  0
   15.7550  -27.9620    1.6760 O   0  0  0  0  0  0  0  0  0  0  0  0
   17.3440  -25.9560    1.2070 O   0  0  0  0  0  0  0  0  0  0  0  0
   15.2520  -26.2950   -0.1640 O   0  0  0  0  0  0  0  0  0  0  0  0
   14.9670  -26.3220   -1.7610 P   0  0  0  0  0  0  0  0  0  0  0  0
   15.8040  -25.2430   -2.4120 O   0  0  0  0  0  0  0  0  0  0  0  0
   15.1160  -27.7550   -2.2220 O   0  0  0  0  0  0  0  0  0  0  0  0
   13.3890  -25.9260   -1.8980 O   0  0  0  0  0  0  0  0  0  0  0  0
   12.9070  -24.6470   -2.3650 C   0  0  0  0  0  0  0  0  0  0  0  0
   11.3950  -24.5750   -2.6940 C   0  0  0  0  0  0  0  0  0  0  0  0
   10.7430  -23.4240   -1.8770 C   0  0  0  0  0  0  0  0  0  0  0  0
   11.2730  -24.2840   -4.1860 C   0  0  0  0  0  0  0  0  0  0  0  0
   10.7460  -25.9300   -2.3990 C   0  0  0  0  0  0  0  0  0  0  0  0
   11.5150  -22.2330   -2.0360 O   0  0  0  0  0  0  0  0  0  0  0  0
    9.2610  -23.1020   -2.1080 C   0  0  0  0  0  0  0  0  0  0  0  0
    8.4620  -23.9880   -2.3940 O   0  0  0  0  0  0  0  0  0  0  0  0
    8.8600  -21.8200   -1.9510 N   0  0  0  0  0  0  0  0  0  0  0  0
    7.5160  -21.2430   -2.0820 C   0  0  0  0  0  0  0  0  0  0  0  0
    7.5480  -20.0790   -3.0820 C   0  0  0  0  0  0  0  0  0  0  0  0
    7.6670  -18.7090   -2.4280 C   0  0  0  0  0  0  0  0  0  0  0  0
    8.6820  -18.4310   -1.8160 O   0  0  0  0  0  0  0  0  0  0  0  0
    6.6660  -17.8240   -2.5540 N   0  0  0  0  0  0  0  0  0  0  0  0
    6.6400  -16.4690   -1.9900 C   0  0  0  0  0  0  0  0  0  0  0  0
    5.4930  -15.6750   -2.6170 C   0  0  0  0  0  0  0  0  0  0  0  0
    5.9630  -14.0030   -2.9750 S   0  0  0  0  0  0  0  0  0  0  0  0
   22.1240  -29.1070    1.0620 P   0  0  0  0  0  0  0  0  0  0  0  0
   21.1610  -28.1600    1.7460 O   0  0  0  0  0  0  0  0  0  0  0  0
   21.9200  -30.5760    1.3380 O   0  0  0  0  0  0  0  0  0  0  0  0
   23.5690  -28.6760    1.1530 O   0  0  0  0  0  0  0  0  0  0  0  0
    5.7610  -12.7320   -1.9100 C   0  0  0  0  0  0  0  0  0  0  0  0
    6.3980  -11.3720   -2.1010 C   0  0  0  0  0  0  0  0  0  0  0  0
    5.0530  -12.9010   -0.9450 O   0  0  0  0  0  0  0  0  0  0  0  0
    7.9230  -11.3870   -2.1230 C   0  0  0  0  0  0  0  0  0  0  0  0
    8.4320   -9.9620   -2.3420 C   0  0  0  0  0  0  0  0  0  0  0  0
    9.9530   -9.8560   -2.3660 C   0  0  0  0  0  0  0  0  0  0  0  0
   10.3940   -8.3980   -2.4680 C   0  0  0  0  0  0  0  0  0  0  0  0
   11.8830   -8.2700   -2.7770 C   0  0  0  0  0  0  0  0  0  0  0  0
   12.6770   -7.8990   -1.5280 C   0  0  0  0  0  0  0  0  0  0  0  0
   14.1830   -7.9450   -1.7610 C   0  0  0  0  0  0  0  0  0  0  0  0
   20.1890  -30.3459   -7.8853 H   0  0  0  0  0  0  0  0  0  0  0  0
   18.1635  -27.4413   -2.3335 H   0  0  0  0  0  0  0  0  0  0  0  0
   14.5138   -5.9638   -0.9858 H   0  0  0  0  0  0  0  0  0  0  0  0
   14.3784   -6.0642   -2.7816 H   0  0  0  0  0  0  0  0  0  0  0  0
   16.7314   -6.5482   -0.9872 H   0  0  0  0  0  0  0  0  0  0  0  0
   16.5502   -7.5844   -2.4677 H   0  0  0  0  0  0  0  0  0  0  0  0
   17.2608   -4.7227   -2.2103 H   0  0  0  0  0  0  0  0  0  0  0  0
   17.6606   -5.9191   -3.4891 H   0  0  0  0  0  0  0  0  0  0  0  0
   16.0589   -5.1060   -3.4891 H   0  0  0  0  0  0  0  0  0  0  0  0
   18.3423  -25.4205   -6.7119 H   0  0  0  0  0  0  0  0  0  0  0  0
   18.5290  -26.0537   -8.3693 H   0  0  0  0  0  0  0  0  0  0  0  0
   19.0283  -31.0515   -3.3964 H   0  0  0  0  0  0  0  0  0  0  0  0
   21.2906  -29.3586   -3.2211 H   0  0  0  0  0  0  0  0  0  0  0  0
   21.4467  -31.2735   -1.2779 H   0  0  0  0  0  0  0  0  0  0  0  0
   20.3250  -27.9745   -1.2530 H   0  0  0  0  0  0  0  0  0  0  0  0
   19.6154  -30.4474    0.1654 H   0  0  0  0  0  0  0  0  0  0  0  0
   17.9819  -29.3737    1.1630 H   0  0  0  0  0  0  0  0  0  0  0  0
   19.1264  -27.9823    0.7571 H   0  0  0  0  0  0  0  0  0  0  0  0
   17.3326  -25.9697    2.1968 H   0  0  0  0  0  0  0  0  0  0  0  0
   15.1779  -28.3505   -1.4336 H   0  0  0  0  0  0  0  0  0  0  0  0
   13.1183  -23.9013   -1.5844 H   0  0  0  0  0  0  0  0  0  0  0  0
   13.4285  -24.4604   -3.3154 H   0  0  0  0  0  0  0  0  0  0  0  0
   10.7510  -23.8196   -0.8506 H   0  0  0  0  0  0  0  0  0  0  0  0
   10.8514  -23.2783   -4.3301 H   0  0  0  0  0  0  0  0  0  0  0  0
   12.2681  -24.3346   -4.6520 H   0  0  0  0  0  0  0  0  0  0  0  0
   10.6115  -25.0292   -4.6520 H   0  0  0  0  0  0  0  0  0  0  0  0
   10.6769  -26.0743   -1.3107 H   0  0  0  0  0  0  0  0  0  0  0  0
    9.7374  -25.9566   -2.8372 H   0  0  0  0  0  0  0  0  0  0  0  0
   11.3574  -26.7326   -2.8372 H   0  0  0  0  0  0  0  0  0  0  0  0
   11.7499  -21.8706   -1.1452 H   0  0  0  0  0  0  0  0  0  0  0  0
    9.6043  -21.1523   -1.7040 H   0  0  0  0  0  0  0  0  0  0  0  0
    6.8201  -22.0151   -2.4418 H   0  0  0  0  0  0  0  0  0  0  0  0
    7.1816  -20.8721   -1.1019 H   0  0  0  0  0  0  0  0  0  0  0  0
    8.4100  -20.2200   -3.7506 H   0  0  0  0  0  0  0  0  0  0  0  0
    6.5894  -20.0940   -3.6213 H   0  0  0  0  0  0  0  0  0  0  0  0
    5.8419  -18.1224   -3.0951 H   0  0  0  0  0  0  0  0  0  0  0  0
    6.4924  -16.5281   -0.9016 H   0  0  0  0  0  0  0  0  0  0  0  0
    7.5939  -15.9651   -2.2050 H   0  0  0  0  0  0  0  0  0  0  0  0
    5.1899  -16.1672   -3.5529 H   0  0  0  0  0  0  0  0  0  0  0  0
    4.6630  -15.6484   -1.8956 H   0  0  0  0  0  0  0  0  0  0  0  0
   21.8989  -30.7282    2.3160 H   0  0  0  0  0  0  0  0  0  0  0  0
   23.8308  -28.5979    2.1046 H   0  0  0  0  0  0  0  0  0  0  0  0
    6.0444  -10.9578   -3.0567 H   0  0  0  0  0  0  0  0  0  0  0  0
    6.1029  -10.7630   -1.2338 H   0  0  0  0  0  0  0  0  0  0  0  0
    8.3019  -11.7706   -1.1642 H   0  0  0  0  0  0  0  0  0  0  0  0
    8.2764  -12.0370   -2.9370 H   0  0  0  0  0  0  0  0  0  0  0  0
    8.0424   -9.5972   -3.3038 H   0  0  0  0  0  0  0  0  0  0  0  0
    8.0791   -9.3584   -1.4928 H   0  0  0  0  0  0  0  0  0  0  0  0
   10.3594  -10.2917   -1.4413 H   0  0  0  0  0  0  0  0  0  0  0  0
   10.3303  -10.4004   -3.2442 H   0  0  0  0  0  0  0  0  0  0  0  0
    9.8218   -7.9095   -3.2704 H   0  0  0  0  0  0  0  0  0  0  0  0
   10.2068   -7.9182   -1.4960 H   0  0  0  0  0  0  0  0  0  0  0  0
   12.2527   -9.2308   -3.1647 H   0  0  0  0  0  0  0  0  0  0  0  0
   12.0161   -7.4729   -3.5233 H   0  0  0  0  0  0  0  0  0  0  0  0
   12.3980   -6.8800   -1.2219 H   0  0  0  0  0  0  0  0  0  0  0  0
   12.4361   -8.6350   -0.7468 H   0  0  0  0  0  0  0  0  0  0  0  0
   14.3827   -8.4973   -2.6911 H   0  0  0  0  0  0  0  0  0  0  0  0
   14.6476   -8.4437   -0.8976 H   0  0  0  0  0  0  0  0  0  0  0  0
  1 11  2  0
  1 12  1  0
  2  3  2  0
  2  9  1  0
  2 11  1  0
  3  4  1  0
  3 10  1  0
  4 12  2  0
  4 13  1  0
  5  9  1  0
  5 10  2  0
  6  7  1  0
  6 61  1  0
  7  8  1  0
  9 14  1  0
 14 15  1  0
 14 20  1  0
 15 16  1  0
 15 17  1  0
 17 18  1  0
 17 19  1  0
 18 48  1  0
 19 20  1  0
 19 21  1  0
 21 22  1  0
 22 23  1  0
 23 24  2  0
 23 25  1  0
 23 26  1  0
 26 27  1  0
 27 28  2  0
 27 29  1  0
 27 30  1  0
 30 31  1  0
 31 32  1  0
 32 33  1  0
 32 34  1  0
 32 35  1  0
 33 36  1  0
 33 37  1  0
 37 38  2  0
 37 39  1  0
 39 40  1  0
 40 41  1  0
 41 42  1  0
 42 43  2  0
 42 44  1  0
 44 45  1  0
 45 46  1  0
 46 47  1  0
 47 52  1  0
 48 49  2  0
 48 50  1  0
 48 51  1  0
 52 53  1  0
 52 54  2  0
 53 55  1  0
 55 56  1  0
 56 57  1  0
 57 58  1  0
 58 59  1  0
 59 60  1  0
 60 61  1  0
  1 62  1  0
  5 63  1  0
  6 64  1  0
  6 65  1  0
  7 66  1  0
  7 67  1  0
  8 68  1  0
  8 69  1  0
  8 70  1  0
 13 71  1  0
 13 72  1  0
 14 73  1  0
 15 74  1  0
 16 75  1  0
 17 76  1  0
 19 77  1  0
 21 78  1  0
 21 79  1  0
 25 80  1  0
 29 81  1  0
 31 82  1  0
 31 83  1  0
 33 84  1  0
 34 85  1  0
 34 86  1  0
 34 87  1  0
 35 88  1  0
 35 89  1  0
 35 90  1  0
 36 91  1  0
 39 92  1  0
 40 93  1  0
 40 94  1  0
 41 95  1  0
 41 96  1  0
 44 97  1  0
 45 98  1  0
 45 99  1  0
 46100  1  0
 46101  1  0
 50102  1  0
 51103  1  0
 53104  1  0
 53105  1  0
 55106  1  0
 55107  1  0
 56108  1  0
 56109  1  0
 57110  1  0
 57111  1  0
 58112  1  0
 58113  1  0
 59114  1  0
 59115  1  0
 60116  1  0
 60117  1  0
 61118  1  0
 61119  1  0
A    1
C2
A    2
C4
A    3
C5
A    4
C6
A    5
C8
A    6
C10
A    7
C11
A    8
C12
A    9
N9
A   10
N7
A   11
N3
A   12
N1
A   13
N6
A   14
C1'
A   15
C2'
A   16
O2'
A   17
C3'
A   18
O3'
A   19
C4'
A   20
O4'
A   21
C5'
A   22
O5'
A   23
P1
A   24
O11
A   25
O12
A   26
O6
A   27
P2
A   28
O21
A   29
O22
A   30
O7
A   31
CPA
A   32
CPB
A   33
CP8
A   34
CP7
A   35
CP9
A   36
OP3
A   37
CP6
A   38
OP2
A   39
NP2
A   40
CP5
A   41
CP4
A   42
CP3
A   43
OP1
A   44
NP1
A   45
CP2
A   46
CP1
A   47
S
A   48
P3
A   49
O31
A   50
O32
A   51
O33
A   52
CA1
A   53
CA2
A   54
OA1
A   55
CA3
A   56
CA4
A   57
CA5
A   58
CA6
A   59
CA7
A   60
CA8
A   61
CA9
M  END
