1U88_GTY_A_220
     RDKit          3D

 61 60  0  0  0  0  0  0  0  0999 V2000
   23.8310   39.9860   -8.2190 N   0  0  0  0  0  0  0  0  0  0  0  0
   24.6180   39.2970   -9.2920 C   0  0  0  0  0  0  0  0  0  0  0  0
   25.1160   38.0080   -8.6460 C   0  0  0  0  0  0  0  0  0  0  0  0
   25.8140   37.1940   -9.2690 O   0  0  0  0  0  0  0  0  0  0  0  0
   24.7870   37.8240   -7.4910 O   0  0  0  0  0  0  0  0  0  0  0  0
   25.7400   40.2590   -9.7440 C   0  0  0  0  0  0  0  0  0  0  0  0
   26.7130   39.8460  -10.8610 C   0  0  0  0  0  0  0  0  0  0  0  0
   28.1800   40.1200  -10.5290 C   0  0  0  0  0  0  0  0  0  0  0  0
   28.6430   39.7210   -9.4570 O   0  0  0  0  0  0  0  0  0  0  0  0
   28.8930   40.8010  -11.4730 N   0  0  0  0  0  0  0  0  0  0  0  0
   30.3420   41.2140  -11.4350 C   0  0  0  0  0  0  0  0  0  0  0  0
   30.9070   41.4800  -12.8410 C   0  0  0  0  0  0  0  0  0  0  0  0
   31.6660   42.4480  -13.0100 O   0  0  0  0  0  0  0  0  0  0  0  0
   31.2550   40.1920  -10.7290 C   0  0  0  0  0  0  0  0  0  0  0  0
   32.4200   40.8000   -9.4430 S   0  0  0  0  0  0  0  0  0  0  0  0
   31.4650   40.9160   -7.9070 C   0  0  0  0  0  0  0  0  0  0  0  0
   31.0860   42.3130   -7.4150 C   0  0  0  0  0  0  0  0  0  0  0  0
   29.7800   42.8560   -7.9830 C   0  0  0  0  0  0  0  0  0  0  0  0
   29.5150   44.2530   -7.4230 C   0  0  0  0  0  0  0  0  0  0  0  0
   28.2170   44.8930   -7.9140 C   0  0  0  0  0  0  0  0  0  0  0  0
   26.9770   44.3150   -7.2320 C   0  0  0  0  0  0  0  0  0  0  0  0
   25.7440   45.0110   -7.7920 C   0  0  0  0  0  0  0  0  0  0  0  0
   24.6420   44.0310   -8.1510 C   0  0  0  0  0  0  0  0  0  0  0  0
   30.5440   40.6290  -13.8540 N   0  0  0  0  0  0  0  0  0  0  0  0
   31.0190   40.7710  -15.2620 C   0  0  0  0  0  0  0  0  0  0  0  0
   30.0100   41.5200  -16.1570 C   0  0  0  0  0  0  0  0  0  0  0  0
   29.0250   40.8760  -16.6550 O   0  0  0  0  0  0  0  0  0  0  0  0
   30.1940   42.7750  -16.3840 O   0  0  0  0  0  0  0  0  0  0  0  0
   24.1739   39.6858   -7.2953 H   0  0  0  0  0  0  0  0  0  0  0  0
   23.9431   41.0056   -8.3121 H   0  0  0  0  0  0  0  0  0  0  0  0
   24.0525   39.0426  -10.2006 H   0  0  0  0  0  0  0  0  0  0  0  0
   25.3643   38.1469   -6.7544 H   0  0  0  0  0  0  0  0  0  0  0  0
   25.2475   41.1835  -10.0797 H   0  0  0  0  0  0  0  0  0  0  0  0
   26.3888   40.3196   -8.8578 H   0  0  0  0  0  0  0  0  0  0  0  0
   26.5938   38.7680  -11.0447 H   0  0  0  0  0  0  0  0  0  0  0  0
   26.4643   40.4518  -11.7449 H   0  0  0  0  0  0  0  0  0  0  0  0
   28.3733   41.0672  -12.3215 H   0  0  0  0  0  0  0  0  0  0  0  0
   30.3443   42.1448  -10.8488 H   0  0  0  0  0  0  0  0  0  0  0  0
   30.6010   39.4487  -10.2497 H   0  0  0  0  0  0  0  0  0  0  0  0
   31.9090   39.8162  -11.5296 H   0  0  0  0  0  0  0  0  0  0  0  0
   30.5309   40.3548   -8.0567 H   0  0  0  0  0  0  0  0  0  0  0  0
   32.1342   40.5175   -7.1303 H   0  0  0  0  0  0  0  0  0  0  0  0
   30.9944   42.2772   -6.3194 H   0  0  0  0  0  0  0  0  0  0  0  0
   31.8806   42.9903   -7.7611 H   0  0  0  0  0  0  0  0  0  0  0  0
   29.8525   42.9094   -9.0793 H   0  0  0  0  0  0  0  0  0  0  0  0
   28.9539   42.1874   -7.6991 H   0  0  0  0  0  0  0  0  0  0  0  0
   29.4701   44.1814   -6.3262 H   0  0  0  0  0  0  0  0  0  0  0  0
   30.3354   44.8945   -7.7771 H   0  0  0  0  0  0  0  0  0  0  0  0
   28.2588   45.9732   -7.7105 H   0  0  0  0  0  0  0  0  0  0  0  0
   28.1309   44.6838   -8.9905 H   0  0  0  0  0  0  0  0  0  0  0  0
   26.9148   43.2349   -7.4305 H   0  0  0  0  0  0  0  0  0  0  0  0
   27.0373   44.4753   -6.1454 H   0  0  0  0  0  0  0  0  0  0  0  0
   25.3607   45.7132   -7.0370 H   0  0  0  0  0  0  0  0  0  0  0  0
   26.0421   45.5340   -8.7127 H   0  0  0  0  0  0  0  0  0  0  0  0
   24.1925   43.6312   -7.2301 H   0  0  0  0  0  0  0  0  0  0  0  0
   23.8706   44.5469   -8.7416 H   0  0  0  0  0  0  0  0  0  0  0  0
   25.0643   43.2046   -8.7416 H   0  0  0  0  0  0  0  0  0  0  0  0
   29.9089   39.8494  -13.6308 H   0  0  0  0  0  0  0  0  0  0  0  0
   31.9678   41.3275  -15.2591 H   0  0  0  0  0  0  0  0  0  0  0  0
   31.1428   39.7590  -15.6750 H   0  0  0  0  0  0  0  0  0  0  0  0
   28.3638   40.4437  -16.0583 H   0  0  0  0  0  0  0  0  0  0  0  0
  1  2  1  0
  2  3  1  0
  2  6  1  0
  3  4  2  0
  3  5  1  0
  6  7  1  0
  7  8  1  0
  8  9  2  0
  8 10  1  0
 10 11  1  0
 11 12  1  0
 11 14  1  0
 12 13  2  0
 12 24  1  0
 14 15  1  0
 15 16  1  0
 16 17  1  0
 17 18  1  0
 18 19  1  0
 19 20  1  0
 20 21  1  0
 21 22  1  0
 22 23  1  0
 24 25  1  0
 25 26  1  0
 26 27  1  0
 26 28  2  0
  1 29  1  0
  1 30  1  0
  2 31  1  0
  5 32  1  0
  6 33  1  0
  6 34  1  0
  7 35  1  0
  7 36  1  0
 10 37  1  0
 11 38  1  0
 14 39  1  0
 14 40  1  0
 16 41  1  0
 16 42  1  0
 17 43  1  0
 17 44  1  0
 18 45  1  0
 18 46  1  0
 19 47  1  0
 19 48  1  0
 20 49  1  0
 20 50  1  0
 21 51  1  0
 21 52  1  0
 22 53  1  0
 22 54  1  0
 23 55  1  0
 23 56  1  0
 23 57  1  0
 24 58  1  0
 25 59  1  0
 25 60  1  0
 27 61  1  0
A    1
N1
A    2
CA1
A    3
C1
A    4
O11
A    5
O12
A    6
CB1
A    7
CG1
A    8
CD1
A    9
OE1
A   10
N2
A   11
CA2
A   12
C2
A   13
O2
A   14
CB2
A   15
SG2
A   16
C1S
A   17
C2S
A   18
C3S
A   19
C4S
A   20
C5S
A   21
C6S
A   22
C7S
A   23
C8S
A   24
N3
A   25
CA3
A   26
C3
A   27
O31
A   28
O32
M  END
