1U9E_397_A_201
     RDKit          3D

 27 29  0  0  0  0  0  0  0  0999 V2000
   32.1100   36.9260   35.3650 C   0  0  0  0  0  0  0  0  0  0  0  0
   30.7430   37.0510   35.7400 C   0  0  0  0  0  0  0  0  0  0  0  0
   30.3120   36.6340   37.0060 C   0  0  0  0  0  0  0  0  0  0  0  0
   31.2720   36.0610   37.9350 C   0  0  0  0  0  0  0  0  0  0  0  0
   32.6150   35.9410   37.5620 C   0  0  0  0  0  0  0  0  0  0  0  0
   33.0410   36.3680   36.2770 C   0  0  0  0  0  0  0  0  0  0  0  0
   29.0750   36.6560   37.5800 O   0  0  0  0  0  0  0  0  0  0  0  0
   29.2140   36.1310   38.8260 C   0  0  0  0  0  0  0  0  0  0  0  0
   30.5640   35.7210   39.1540 C   0  0  0  0  0  0  0  0  0  0  0  0
   28.0660   36.0510   39.6530 C   0  0  0  0  0  0  0  0  0  0  0  0
   26.7520   36.4000   39.1600 C   0  0  0  0  0  0  0  0  0  0  0  0
   25.5980   36.3370   39.9750 C   0  0  0  0  0  0  0  0  0  0  0  0
   25.7070   35.9250   41.3200 C   0  0  0  0  0  0  0  0  0  0  0  0
   26.9710   35.5720   41.8530 C   0  0  0  0  0  0  0  0  0  0  0  0
   28.1220   35.6360   41.0390 C   0  0  0  0  0  0  0  0  0  0  0  0
   34.3640   36.2420   35.9250 O   0  0  0  0  0  0  0  0  0  0  0  0
   24.5770   35.8710   42.0960 O   0  0  0  0  0  0  0  0  0  0  0  0
   32.4430   37.2610   34.3716 H   0  0  0  0  0  0  0  0  0  0  0  0
   30.0192   37.4783   35.0304 H   0  0  0  0  0  0  0  0  0  0  0  0
   33.3435   35.5142   38.2671 H   0  0  0  0  0  0  0  0  0  0  0  0
   30.9495   35.2714   40.0810 H   0  0  0  0  0  0  0  0  0  0  0  0
   26.6465   36.7258   38.1147 H   0  0  0  0  0  0  0  0  0  0  0  0
   24.6160   36.6090   39.5606 H   0  0  0  0  0  0  0  0  0  0  0  0
   27.0554   35.2482   42.9009 H   0  0  0  0  0  0  0  0  0  0  0  0
   29.0950   35.3612   41.4723 H   0  0  0  0  0  0  0  0  0  0  0  0
   35.0589   36.1758   36.6270 H   0  0  0  0  0  0  0  0  0  0  0  0
   24.6537   35.8747   43.0830 H   0  0  0  0  0  0  0  0  0  0  0  0
  1  2  2  0
  1  6  1  0
  2  3  1  0
  3  4  2  0
  3  7  1  0
  4  5  1  0
  4  9  1  0
  5  6  2  0
  6 16  1  0
  7  8  1  0
  8  9  2  0
  8 10  1  0
 10 11  2  0
 10 15  1  0
 11 12  1  0
 12 13  2  0
 13 14  1  0
 13 17  1  0
 14 15  2  0
  1 18  1  0
  2 19  1  0
  5 20  1  0
  9 21  1  0
 11 22  1  0
 12 23  1  0
 14 24  1  0
 15 25  1  0
 16 26  1  0
 17 27  1  0
A    1
C1
A    2
C2
A    3
C3
A    4
C4
A    5
C5
A    6
C6
A    7
O10
A    8
C11
A    9
C12
A   10
C13
A   11
C14
A   12
C15
A   13
C16
A   14
C17
A   15
C18
A   16
O23
A   17
O24
M  END
