1U9Q_186_X_300
     RDKit          3D

 54 55  0  0  0  0  0  0  0  0999 V2000
    0.4750   13.3590    5.6950 O   0  0  0  0  0  0  0  0  0  0  0  0
    0.9950   12.3210    5.3570 C   0  0  0  0  0  0  0  0  0  0  0  0
    0.9730   12.0230    3.9440 O   0  0  0  0  0  0  0  0  0  0  0  0
    0.5600   13.1480    3.1000 C   0  0  0  0  0  0  0  0  0  0  0  0
    0.6860   12.9310    1.6070 C   0  0  0  0  0  0  0  0  0  0  0  0
   -0.3500   12.3090    0.8840 C   0  0  0  0  0  0  0  0  0  0  0  0
   -0.1760   12.0660   -0.4760 C   0  0  0  0  0  0  0  0  0  0  0  0
    1.0220   12.4600   -1.0970 C   0  0  0  0  0  0  0  0  0  0  0  0
    2.0620   13.0820   -0.4130 C   0  0  0  0  0  0  0  0  0  0  0  0
    1.8620   13.3130    0.9520 C   0  0  0  0  0  0  0  0  0  0  0  0
    1.4450   11.6290    6.3750 N   0  0  0  0  0  0  0  0  0  0  0  0
    2.1900   10.4510    6.4240 C   0  0  0  0  0  0  0  0  0  0  0  0
    1.6550    9.5380    7.5260 C   0  0  0  0  0  0  0  0  0  0  0  0
    0.4820    8.7330    6.9740 C   0  0  0  0  0  0  0  0  0  0  0  0
    0.7060    7.6150    6.1920 C   0  0  0  0  0  0  0  0  0  0  0  0
   -0.3850    6.9020    5.7020 C   0  0  0  0  0  0  0  0  0  0  0  0
   -1.6930    7.3010    5.9750 C   0  0  0  0  0  0  0  0  0  0  0  0
   -1.9320    8.4270    6.7550 C   0  0  0  0  0  0  0  0  0  0  0  0
   -0.8330    9.1340    7.2520 C   0  0  0  0  0  0  0  0  0  0  0  0
    3.4900   11.0810    6.7950 C   0  0  0  0  0  0  0  0  0  0  0  0
    4.3300   11.2030    5.9300 O   0  0  0  0  0  0  0  0  0  0  0  0
    3.7000   11.5520    8.0020 N   0  0  0  0  0  0  0  0  0  0  0  0
    5.0470   12.1390    8.2600 C   0  0  0  0  0  0  0  0  0  0  0  0
    4.9760   13.6750    8.4460 C   0  0  0  0  0  0  0  0  0  0  0  0
    5.7550   11.4910    9.4630 C   0  0  0  0  0  0  0  0  0  0  0  0
    5.8110   12.3330   10.4850 C   0  0  0  0  0  0  0  0  0  0  0  0
    6.3540   12.2420   11.8320 C   0  0  0  0  0  0  0  0  0  0  0  0
    7.4730   11.8350   12.0670 O   0  0  0  0  0  0  0  0  0  0  0  0
    5.4820   12.7690   12.8930 C   0  0  0  0  0  0  0  0  0  0  0  0
    5.5430   12.2720   13.9960 O   0  0  0  0  0  0  0  0  0  0  0  0
   -0.4949   13.3670    3.3216 H   0  0  0  0  0  0  0  0  0  0  0  0
    1.2476   13.9718    3.3418 H   0  0  0  0  0  0  0  0  0  0  0  0
   -1.2843   12.0189    1.3869 H   0  0  0  0  0  0  0  0  0  0  0  0
   -0.9674   11.5711   -1.0581 H   0  0  0  0  0  0  0  0  0  0  0  0
    1.1429   12.2677   -2.1733 H   0  0  0  0  0  0  0  0  0  0  0  0
    2.9930   13.3767   -0.9194 H   0  0  0  0  0  0  0  0  0  0  0  0
    2.6549   13.8111    1.5292 H   0  0  0  0  0  0  0  0  0  0  0  0
    1.2078   12.0226    7.2968 H   0  0  0  0  0  0  0  0  0  0  0  0
    2.2022    9.8106    5.5297 H   0  0  0  0  0  0  0  0  0  0  0  0
    2.4498    8.8532    7.8566 H   0  0  0  0  0  0  0  0  0  0  0  0
    1.3221   10.1427    8.3825 H   0  0  0  0  0  0  0  0  0  0  0  0
    1.7320    7.2932    5.9601 H   0  0  0  0  0  0  0  0  0  0  0  0
   -0.2117    6.0063    5.0874 H   0  0  0  0  0  0  0  0  0  0  0  0
   -2.5380    6.7234    5.5722 H   0  0  0  0  0  0  0  0  0  0  0  0
   -2.9592    8.7531    6.9753 H   0  0  0  0  0  0  0  0  0  0  0  0
   -1.0034   10.0245    7.8749 H   0  0  0  0  0  0  0  0  0  0  0  0
    2.9739   11.5181    8.7317 H   0  0  0  0  0  0  0  0  0  0  0  0
    5.6475   11.9213    7.3644 H   0  0  0  0  0  0  0  0  0  0  0  0
    4.9649   13.9142    9.5196 H   0  0  0  0  0  0  0  0  0  0  0  0
    5.8535   14.1423    7.9752 H   0  0  0  0  0  0  0  0  0  0  0  0
    4.0591   14.0594    7.9752 H   0  0  0  0  0  0  0  0  0  0  0  0
    6.1595   10.4681    9.4733 H   0  0  0  0  0  0  0  0  0  0  0  0
    5.3489   13.3076   10.2692 H   0  0  0  0  0  0  0  0  0  0  0  0
    4.7883   13.5979   12.6888 H   0  0  0  0  0  0  0  0  0  0  0  0
  1  2  2  0
  2  3  1  0
  2 11  1  0
  3  4  1  0
  4  5  1  0
  5  6  2  0
  5 10  1  0
  6  7  1  0
  7  8  2  0
  8  9  1  0
  9 10  2  0
 11 12  1  0
 12 13  1  0
 12 20  1  0
 13 14  1  0
 14 15  2  0
 14 19  1  0
 15 16  1  0
 16 17  2  0
 17 18  1  0
 18 19  2  0
 20 21  2  0
 20 22  1  0
 22 23  1  0
 23 24  1  0
 23 25  1  0
 25 26  2  0
 26 27  1  0
 27 28  2  0
 27 29  1  0
 29 30  2  0
  4 31  1  0
  4 32  1  0
  6 33  1  0
  7 34  1  0
  8 35  1  0
  9 36  1  0
 10 37  1  0
 11 38  1  0
 12 39  1  0
 13 40  1  0
 13 41  1  0
 15 42  1  0
 16 43  1  0
 17 44  1  0
 18 45  1  0
 19 46  1  0
 22 47  1  0
 23 48  1  0
 24 49  1  0
 24 50  1  0
 24 51  1  0
 25 52  1  0
 26 53  1  0
 29 54  1  0
A    1
O34
A    2
C18
A    3
O26
A    4
C27
A    5
C28
A    6
C33
A    7
C32
A    8
C31
A    9
C30
A   10
C29
A   11
N17
A   12
C13
A   13
C16
A   14
C20
A   15
C25
A   16
C24
A   17
C23
A   18
C22
A   19
C21
A   20
C12
A   21
O19
A   22
N11
A   23
C8
A   24
C14
A   25
C7
A   26
C6
A   27
C5
A   28
O10
A   29
C4
A   30
O9
M  END
