1IKT_OXN_A_123
     RDKit          3D

 61 61  0  0  0  0  0  0  0  0999 V2000
   29.5530   28.8300   15.9440 C   0  0  0  0  0  0  0  0  0  0  0  0
   30.2890   28.7900   17.2730 C   0  0  0  0  0  0  0  0  0  0  0  0
   29.3270   28.4350   18.4150 C   0  0  0  0  0  0  0  0  0  0  0  0
   31.3090   27.6510   17.1890 C   0  0  0  0  0  0  0  0  0  0  0  0
   31.0540   30.0570   17.7100 C   0  0  0  0  0  0  0  0  0  0  0  0
   29.8430   29.2540   14.4720 C   0  0  0  0  0  0  0  0  0  0  0  0
   30.4160   30.6950   14.3880 C   0  0  0  0  0  0  0  0  0  0  0  0
   30.7990   28.2770   13.7980 C   0  0  0  0  0  0  0  0  0  0  0  0
   28.5370   29.2090   13.6820 C   0  0  0  0  0  0  0  0  0  0  0  0
   29.5790   31.8340   14.6420 C   0  0  0  0  0  0  0  0  0  0  0  0
   30.1000   33.1770   14.5860 C   0  0  0  0  0  0  0  0  0  0  0  0
   31.4620   33.3240   14.2710 C   0  0  0  0  0  0  0  0  0  0  0  0
   32.3410   32.2670   14.0150 C   0  0  0  0  0  0  0  0  0  0  0  0
   31.7970   30.9260   14.0760 C   0  0  0  0  0  0  0  0  0  0  0  0
   31.9870   34.6660   14.1200 O   0  0  0  0  0  0  0  0  0  0  0  0
   31.7630   35.5090   15.2590 C   0  0  0  0  0  0  0  0  0  0  0  0
   31.5560   36.9420   14.8090 C   0  0  0  0  0  0  0  0  0  0  0  0
   32.8010   37.6480   14.7910 O   0  0  0  0  0  0  0  0  0  0  0  0
   32.6720   38.9270   14.1580 C   0  0  0  0  0  0  0  0  0  0  0  0
   33.6100   39.9300   14.8010 C   0  0  0  0  0  0  0  0  0  0  0  0
   32.9430   40.6310   15.8510 O   0  0  0  0  0  0  0  0  0  0  0  0
   33.5260   41.9120   16.1060 C   0  0  0  0  0  0  0  0  0  0  0  0
   32.8960   42.5390   17.3490 C   0  0  0  0  0  0  0  0  0  0  0  0
   33.5580   42.0700   18.5240 O   0  0  0  0  0  0  0  0  0  0  0  0
   33.3050   42.9050   19.6530 C   0  0  0  0  0  0  0  0  0  0  0  0
   29.2452   27.7810   15.8224 H   0  0  0  0  0  0  0  0  0  0  0  0
   29.0345   29.7702   16.1832 H   0  0  0  0  0  0  0  0  0  0  0  0
   29.8211   28.6173   19.3807 H   0  0  0  0  0  0  0  0  0  0  0  0
   28.4243   29.0592   18.3414 H   0  0  0  0  0  0  0  0  0  0  0  0
   29.0461   27.3740   18.3414 H   0  0  0  0  0  0  0  0  0  0  0  0
   31.5912   27.3359   18.2044 H   0  0  0  0  0  0  0  0  0  0  0  0
   30.8652   26.8003   16.6511 H   0  0  0  0  0  0  0  0  0  0  0  0
   32.2033   27.9986   16.6511 H   0  0  0  0  0  0  0  0  0  0  0  0
   31.0840   30.1066   18.8085 H   0  0  0  0  0  0  0  0  0  0  0  0
   32.0805   30.0195   17.3165 H   0  0  0  0  0  0  0  0  0  0  0  0
   30.5428   30.9480   17.3165 H   0  0  0  0  0  0  0  0  0  0  0  0
   31.3498   27.7141   14.5660 H   0  0  0  0  0  0  0  0  0  0  0  0
   30.2267   27.5777   13.1708 H   0  0  0  0  0  0  0  0  0  0  0  0
   31.5106   28.8340   13.1708 H   0  0  0  0  0  0  0  0  0  0  0  0
   27.6872   29.1797   14.3798 H   0  0  0  0  0  0  0  0  0  0  0  0
   28.4606   30.1050   13.0485 H   0  0  0  0  0  0  0  0  0  0  0  0
   28.5224   28.3098   13.0485 H   0  0  0  0  0  0  0  0  0  0  0  0
   28.5174   31.6783   14.8845 H   0  0  0  0  0  0  0  0  0  0  0  0
   29.4591   34.0494   14.7814 H   0  0  0  0  0  0  0  0  0  0  0  0
   33.4000   32.4462   13.7775 H   0  0  0  0  0  0  0  0  0  0  0  0
   32.4560   30.0675   13.8791 H   0  0  0  0  0  0  0  0  0  0  0  0
   30.8686   35.1634   15.7981 H   0  0  0  0  0  0  0  0  0  0  0  0
   32.6392   35.4612   15.9223 H   0  0  0  0  0  0  0  0  0  0  0  0
   31.1240   36.9447   13.7974 H   0  0  0  0  0  0  0  0  0  0  0  0
   30.8750   37.4409   15.5142 H   0  0  0  0  0  0  0  0  0  0  0  0
   32.9205   38.8303   13.0908 H   0  0  0  0  0  0  0  0  0  0  0  0
   31.6368   39.2804   14.2736 H   0  0  0  0  0  0  0  0  0  0  0  0
   34.4802   39.3993   15.2148 H   0  0  0  0  0  0  0  0  0  0  0  0
   33.9365   40.6534   14.0393 H   0  0  0  0  0  0  0  0  0  0  0  0
   34.6077   41.7936   16.2670 H   0  0  0  0  0  0  0  0  0  0  0  0
   33.3452   42.5678   15.2416 H   0  0  0  0  0  0  0  0  0  0  0  0
   32.9890   43.6335   17.2913 H   0  0  0  0  0  0  0  0  0  0  0  0
   31.8342   42.2557   17.3965 H   0  0  0  0  0  0  0  0  0  0  0  0
   33.4779   42.3342   20.5773 H   0  0  0  0  0  0  0  0  0  0  0  0
   33.9806   43.7727   19.6260 H   0  0  0  0  0  0  0  0  0  0  0  0
   32.2615   43.2518   19.6260 H   0  0  0  0  0  0  0  0  0  0  0  0
  1  2  1  0
  1  6  1  0
  2  3  1  0
  2  4  1  0
  2  5  1  0
  6  7  1  0
  6  8  1  0
  6  9  1  0
  7 10  2  0
  7 14  1  0
 10 11  1  0
 11 12  2  0
 12 13  1  0
 12 15  1  0
 13 14  2  0
 15 16  1  0
 16 17  1  0
 17 18  1  0
 18 19  1  0
 19 20  1  0
 20 21  1  0
 21 22  1  0
 22 23  1  0
 23 24  1  0
 24 25  1  0
  1 26  1  0
  1 27  1  0
  3 28  1  0
  3 29  1  0
  3 30  1  0
  4 31  1  0
  4 32  1  0
  4 33  1  0
  5 34  1  0
  5 35  1  0
  5 36  1  0
  8 37  1  0
  8 38  1  0
  8 39  1  0
  9 40  1  0
  9 41  1  0
  9 42  1  0
 10 43  1  0
 11 44  1  0
 13 45  1  0
 14 46  1  0
 16 47  1  0
 16 48  1  0
 17 49  1  0
 17 50  1  0
 19 51  1  0
 19 52  1  0
 20 53  1  0
 20 54  1  0
 22 55  1  0
 22 56  1  0
 23 57  1  0
 23 58  1  0
 25 59  1  0
 25 60  1  0
 25 61  1  0
A    1
C5
A    2
C1
A    3
C3
A    4
C4
A    5
C2
A    6
C6
A    7
C9
A    8
C8
A    9
C7
A   10
C10
A   11
C11
A   12
C12
A   13
C13
A   14
C14
A   15
O15
A   16
C16
A   17
C17
A   18
O18
A   19
C19
A   20
C20
A   21
O21
A   22
C22
A   23
C23
A   24
O24
A   25
C25
M  END
