1UF5_CDT_A_998
     RDKit          3D

 24 23  0  0  0  0  0  0  0  0999 V2000
   53.3140   80.0350   -4.4530 N   0  0  0  0  0  0  0  0  0  0  0  0
   52.7360   80.2950   -3.2630 C   0  0  0  0  0  0  0  0  0  0  0  0
   52.3220   81.4240   -3.0230 O   0  0  0  0  0  0  0  0  0  0  0  0
   52.6080   79.2910   -2.3500 N   0  0  0  0  0  0  0  0  0  0  0  0
   52.0920   79.5120   -0.9810 C   0  0  0  0  0  0  0  0  0  0  0  0
   52.6050   78.3720   -0.0750 C   0  0  0  0  0  0  0  0  0  0  0  0
   52.1950   78.5570    1.4080 C   0  0  0  0  0  0  0  0  0  0  0  0
   52.9160   80.0720    2.1280 S   0  0  0  0  0  0  0  0  0  0  0  0
   54.6810   79.8160    1.7900 C   0  0  0  0  0  0  0  0  0  0  0  0
   50.5700   79.5310   -0.9960 C   0  0  0  0  0  0  0  0  0  0  0  0
   49.9460   78.7450   -1.6780 O   0  0  0  0  0  0  0  0  0  0  0  0
   49.9260   80.4230   -0.2450 O   0  0  0  0  0  0  0  0  0  0  0  0
   54.2528   79.6127   -4.4882 H   0  0  0  0  0  0  0  0  0  0  0  0
   52.8168   80.2587   -5.3269 H   0  0  0  0  0  0  0  0  0  0  0  0
   52.8824   78.3371   -2.6250 H   0  0  0  0  0  0  0  0  0  0  0  0
   52.4447   80.4801   -0.5958 H   0  0  0  0  0  0  0  0  0  0  0  0
   52.1909   77.4200   -0.4386 H   0  0  0  0  0  0  0  0  0  0  0  0
   53.7041   78.3807   -0.1197 H   0  0  0  0  0  0  0  0  0  0  0  0
   51.0985   78.6210    1.4688 H   0  0  0  0  0  0  0  0  0  0  0  0
   52.5733   77.6950    1.9770 H   0  0  0  0  0  0  0  0  0  0  0  0
   55.2286   79.7366    2.7407 H   0  0  0  0  0  0  0  0  0  0  0  0
   54.8130   78.8893    1.2122 H   0  0  0  0  0  0  0  0  0  0  0  0
   55.0709   80.6670    1.2122 H   0  0  0  0  0  0  0  0  0  0  0  0
   49.9696   80.3626    0.7422 H   0  0  0  0  0  0  0  0  0  0  0  0
  1  2  1  0
  2  3  2  0
  2  4  1  0
  4  5  1  0
  5  6  1  0
  5 10  1  0
  6  7  1  0
  7  8  1  0
  8  9  1  0
 10 11  2  0
 10 12  1  0
  1 13  1  0
  1 14  1  0
  4 15  1  0
  5 16  1  0
  6 17  1  0
  6 18  1  0
  7 19  1  0
  7 20  1  0
  9 21  1  0
  9 22  1  0
  9 23  1  0
 12 24  1  0
A    1
NT
A    2
CT
A    3
OT
A    4
N
A    5
CA
A    6
CB
A    7
CG
A    8
SD
A    9
CE
A   10
C
A   11
O
A   12
OXT
M  END
