1UGX_MGC_A_135
     RDKit          3D

 33 33  0  0  0  0  0  0  0  0999 V2000
   32.0040   32.6350   26.5090 O   0  0  0  0  0  0  0  0  0  0  0  0
   32.8500   33.0820   27.5500 C   0  0  0  0  0  0  0  0  0  0  0  0
   34.2970   32.5870   27.4100 C   0  0  0  0  0  0  0  0  0  0  0  0
   34.3580   31.0970   27.0990 O   0  0  0  0  0  0  0  0  0  0  0  0
   35.7100   30.4760   26.9570 C   0  0  0  0  0  0  0  0  0  0  0  0
   36.3570   30.4950   28.2390 O   0  0  0  0  0  0  0  0  0  0  0  0
   35.7250   29.7650   29.4700 C   0  0  0  0  0  0  0  0  0  0  0  0
   36.5020   31.2500   25.9000 C   0  0  0  0  0  0  0  0  0  0  0  0
   37.7340   30.5590   25.8660 N   0  0  0  0  0  0  0  0  0  0  0  0
   38.4030   30.2170   24.7300 C   0  0  0  0  0  0  0  0  0  0  0  0
   37.8600   30.1380   23.6130 O   0  0  0  0  0  0  0  0  0  0  0  0
   39.8880   29.9270   24.8530 C   0  0  0  0  0  0  0  0  0  0  0  0
   36.5490   32.7350   26.2580 C   0  0  0  0  0  0  0  0  0  0  0  0
   37.2990   33.3920   25.2820 O   0  0  0  0  0  0  0  0  0  0  0  0
   35.1040   33.3520   26.2630 C   0  0  0  0  0  0  0  0  0  0  0  0
   34.5370   33.0940   24.9530 O   0  0  0  0  0  0  0  0  0  0  0  0
   31.1990   32.2096   26.8977 H   0  0  0  0  0  0  0  0  0  0  0  0
   32.8553   34.1820   27.5479 H   0  0  0  0  0  0  0  0  0  0  0  0
   32.4544   32.6718   28.4909 H   0  0  0  0  0  0  0  0  0  0  0  0
   34.7627   32.7945   28.3847 H   0  0  0  0  0  0  0  0  0  0  0  0
   35.6392   29.4299   26.6242 H   0  0  0  0  0  0  0  0  0  0  0  0
   36.1110   30.2108   30.3986 H   0  0  0  0  0  0  0  0  0  0  0  0
   34.6308   29.8733   29.4385 H   0  0  0  0  0  0  0  0  0  0  0  0
   35.9889   28.6976   29.4385 H   0  0  0  0  0  0  0  0  0  0  0  0
   36.0694   31.2758   24.8890 H   0  0  0  0  0  0  0  0  0  0  0  0
   38.1574   30.2944   26.7669 H   0  0  0  0  0  0  0  0  0  0  0  0
   40.1642   29.8731   25.9164 H   0  0  0  0  0  0  0  0  0  0  0  0
   40.1158   28.9674   24.3659 H   0  0  0  0  0  0  0  0  0  0  0  0
   40.4601   30.7304   24.3659 H   0  0  0  0  0  0  0  0  0  0  0  0
   36.9926   32.8512   27.2579 H   0  0  0  0  0  0  0  0  0  0  0  0
   37.9675   33.9776   25.7182 H   0  0  0  0  0  0  0  0  0  0  0  0
   35.0796   34.4344   26.4572 H   0  0  0  0  0  0  0  0  0  0  0  0
   33.6408   32.6862   25.0558 H   0  0  0  0  0  0  0  0  0  0  0  0
  1  2  1  0
  2  3  1  0
  3  4  1  0
  3 15  1  0
  4  5  1  0
  5  6  1  0
  5  8  1  0
  6  7  1  0
  8  9  1  0
  8 13  1  0
  9 10  1  0
 10 11  2  0
 10 12  1  0
 13 14  1  0
 13 15  1  0
 15 16  1  0
  1 17  1  0
  2 18  1  0
  2 19  1  0
  3 20  1  0
  5 21  1  0
  7 22  1  0
  7 23  1  0
  7 24  1  0
  8 25  1  0
  9 26  1  0
 12 27  1  0
 12 28  1  0
 12 29  1  0
 13 30  1  0
 14 31  1  0
 15 32  1  0
 16 33  1  0
A    1
O6
A    2
C6
A    3
C5
A    4
O5
A    5
C1
A    6
O1
A    7
CM
A    8
C2
A    9
N2
A   10
C7
A   11
O7
A   12
C8
A   13
C3
A   14
O3
A   15
C4
A   16
O4
M  END
