1UHE_NSN_A_25
     RDKit          3D

 23 22  0  0  0  0  0  0  0  0999 V2000
  -16.3970   84.9570   16.1080 C   0  0  0  0  0  0  0  0  0  0  0  0
  -16.0900   84.6000   14.7300 C   0  0  0  0  0  0  0  0  0  0  0  0
  -16.3610   83.3220   14.2350 C   0  0  0  0  0  0  0  0  0  0  0  0
  -16.6010   83.2750   13.0320 O   0  0  0  0  0  0  0  0  0  0  0  0
  -15.5410   85.6830   13.8900 N   0  0  0  0  0  0  0  0  0  0  0  0
  -14.5580   86.9850   14.2480 C   0  0  0  0  0  0  0  0  0  0  0  0
  -14.0300   87.3500   12.8480 C   0  0  0  0  0  0  0  0  0  0  0  0
  -12.9420   86.4340   12.3040 C   0  0  0  0  0  0  0  0  0  0  0  0
  -12.4600   85.5440   13.0410 O   0  0  0  0  0  0  0  0  0  0  0  0
  -12.5400   86.6370   11.1360 O   0  0  0  0  0  0  0  0  0  0  0  0
  -15.6000   88.0290   14.6740 C   0  0  0  0  0  0  0  0  0  0  0  0
  -15.0810   88.9710   15.2810 N   0  0  0  0  0  0  0  0  0  0  0  0
  -16.7700   87.7770   14.3520 O   0  0  0  0  0  0  0  0  0  0  0  0
  -15.8344   84.3028   16.7903 H   0  0  0  0  0  0  0  0  0  0  0  0
  -16.1133   86.0045   16.2873 H   0  0  0  0  0  0  0  0  0  0  0  0
  -17.4752   84.8333   16.2873 H   0  0  0  0  0  0  0  0  0  0  0  0
  -16.3594   82.4267   14.8741 H   0  0  0  0  0  0  0  0  0  0  0  0
  -15.8152   85.6248   12.8989 H   0  0  0  0  0  0  0  0  0  0  0  0
  -13.7513   86.8651   14.9862 H   0  0  0  0  0  0  0  0  0  0  0  0
  -14.8778   87.3240   12.1476 H   0  0  0  0  0  0  0  0  0  0  0  0
  -13.5698   88.3443   12.9460 H   0  0  0  0  0  0  0  0  0  0  0  0
  -15.0761   88.9798   16.3110 H   0  0  0  0  0  0  0  0  0  0  0  0
  -14.6530   89.7478   14.7573 H   0  0  0  0  0  0  0  0  0  0  0  0
  1  2  1  0
  2  3  1  0
  2  5  2  0
  3  4  2  0
  5  6  1  0
  6  7  1  0
  6 11  1  0
  7  8  1  0
  8  9  1  0
  8 10  2  0
 11 12  1  0
 11 13  2  0
  1 14  1  0
  1 15  1  0
  1 16  1  0
  3 17  1  0
  5 18  1  0
  6 19  1  0
  7 20  1  0
  7 21  1  0
 12 22  1  0
 12 23  1  0
M  CHG  2   5   1   9  -1
A    1
C1
A    2
C2
A    3
C3
A    4
O1
A    5
N1
A    6
C4
A    7
C5
A    8
C6
A    9
O2
A   10
O3
A   11
C7
A   12
N2
A   13
O4
M  END
