1UHK_CZN_A_1001
     RDKit          3D

 62 67  0  0  0  0  0  0  0  0999 V2000
   -0.9780    1.1210    0.6920 O   0  0  0  0  0  0  0  0  0  0  0  0
   -0.9940    0.1950    1.4790 C   0  0  0  0  0  0  0  0  0  0  0  0
   -0.2530   -0.9430    1.3110 N   0  0  0  0  0  0  0  0  0  0  0  0
    0.6100   -1.2660    0.3220 C   0  0  0  0  0  0  0  0  0  0  0  0
   -0.4820   -1.7590    2.3280 C   0  0  0  0  0  0  0  0  0  0  0  0
    0.1920   -3.0610    2.3750 C   0  0  0  0  0  0  0  0  0  0  0  0
    1.0270   -3.3460    1.3970 N   0  0  0  0  0  0  0  0  0  0  0  0
    1.2470   -2.5190    0.3730 C   0  0  0  0  0  0  0  0  0  0  0  0
    2.2430   -2.9560   -0.6480 C   0  0  0  0  0  0  0  0  0  0  0  0
    2.8010   -4.2270   -0.5740 C   0  0  0  0  0  0  0  0  0  0  0  0
    3.7240   -4.6870   -1.5040 C   0  0  0  0  0  0  0  0  0  0  0  0
    4.1150   -3.8770   -2.5460 C   0  0  0  0  0  0  0  0  0  0  0  0
    3.5790   -2.6150   -2.6150 C   0  0  0  0  0  0  0  0  0  0  0  0
    2.6430   -2.1470   -1.6950 C   0  0  0  0  0  0  0  0  0  0  0  0
    5.0450   -4.3360   -3.4480 O   0  0  0  0  0  0  0  0  0  0  0  0
   -0.0010   -4.0140    3.5250 C   0  0  0  0  0  0  0  0  0  0  0  0
   -0.8510   -5.1930    3.2200 C   0  0  0  0  0  0  0  0  0  0  0  0
   -2.0440   -5.3370    3.9120 C   0  0  0  0  0  0  0  0  0  0  0  0
   -2.8470   -6.4260    3.6570 C   0  0  0  0  0  0  0  0  0  0  0  0
   -2.4840   -7.3490    2.7040 C   0  0  0  0  0  0  0  0  0  0  0  0
   -1.2990   -7.1930    2.0100 C   0  0  0  0  0  0  0  0  0  0  0  0
   -0.4700   -6.1130    2.2600 C   0  0  0  0  0  0  0  0  0  0  0  0
   -1.3640   -1.2480    3.1880 N   0  0  0  0  0  0  0  0  0  0  0  0
   -1.7890    0.0760    2.7610 C   0  0  0  0  0  0  0  0  0  0  0  0
   -1.2430    1.0620    3.6360 O   0  0  0  0  0  0  0  0  0  0  0  0
   -0.0060    0.8870    3.9370 O   0  0  0  0  0  0  0  0  0  0  0  0
   -3.3040    0.1220    2.7150 C   0  0  0  0  0  0  0  0  0  0  0  0
   -3.8030    1.5150    2.3690 C   0  0  0  0  0  0  0  0  0  0  0  0
   -4.2090    1.7830    1.0810 C   0  0  0  0  0  0  0  0  0  0  0  0
   -4.6900    3.0570    0.7450 C   0  0  0  0  0  0  0  0  0  0  0  0
   -5.0740    3.3730   -0.5510 C   0  0  0  0  0  0  0  0  0  0  0  0
   -4.7410    4.0800    1.8110 C   0  0  0  0  0  0  0  0  0  0  0  0
   -4.3010    3.7700    3.0840 C   0  0  0  0  0  0  0  0  0  0  0  0
   -3.8620    2.4810    3.3650 C   0  0  0  0  0  0  0  0  0  0  0  0
   -5.2050    5.3560    1.4900 C   0  0  0  0  0  0  0  0  0  0  0  0
   -5.6020    5.6370    0.1850 C   0  0  0  0  0  0  0  0  0  0  0  0
   -5.5480    4.6540   -0.8340 C   0  0  0  0  0  0  0  0  0  0  0  0
    0.8093   -0.5659   -0.5027 H   0  0  0  0  0  0  0  0  0  0  0  0
   -0.6328   -3.5087    1.8012 H   0  0  0  0  0  0  0  0  0  0  0  0
    1.5308   -4.2440    1.4237 H   0  0  0  0  0  0  0  0  0  0  0  0
    2.5010   -4.8914    0.2498 H   0  0  0  0  0  0  0  0  0  0  0  0
    4.1430   -5.6995   -1.4079 H   0  0  0  0  0  0  0  0  0  0  0  0
    3.9009   -1.9475   -3.4279 H   0  0  0  0  0  0  0  0  0  0  0  0
    2.2233   -1.1358   -1.8017 H   0  0  0  0  0  0  0  0  0  0  0  0
    5.8845   -4.7503   -3.1259 H   0  0  0  0  0  0  0  0  0  0  0  0
    0.9888   -4.3774    3.8382 H   0  0  0  0  0  0  0  0  0  0  0  0
   -0.5243   -3.4496    4.3108 H   0  0  0  0  0  0  0  0  0  0  0  0
   -2.3463   -4.5876    4.6583 H   0  0  0  0  0  0  0  0  0  0  0  0
   -3.7837   -6.5586    4.2183 H   0  0  0  0  0  0  0  0  0  0  0  0
   -3.1358   -8.2100    2.4945 H   0  0  0  0  0  0  0  0  0  0  0  0
   -1.0115   -7.9352    1.2507 H   0  0  0  0  0  0  0  0  0  0  0  0
    0.4725   -5.9890    1.7065 H   0  0  0  0  0  0  0  0  0  0  0  0
    0.0952    0.8727    4.9217 H   0  0  0  0  0  0  0  0  0  0  0  0
   -3.6612   -0.5863    1.9529 H   0  0  0  0  0  0  0  0  0  0  0  0
   -3.6903   -0.1487    3.7087 H   0  0  0  0  0  0  0  0  0  0  0  0
   -4.1560    0.9964    0.3139 H   0  0  0  0  0  0  0  0  0  0  0  0
   -5.0050    2.6189   -1.3488 H   0  0  0  0  0  0  0  0  0  0  0  0
   -4.2981    4.5389    3.8706 H   0  0  0  0  0  0  0  0  0  0  0  0
   -3.5573    2.2229    4.3900 H   0  0  0  0  0  0  0  0  0  0  0  0
   -5.2570    6.1361    2.2637 H   0  0  0  0  0  0  0  0  0  0  0  0
   -5.9660    6.6456   -0.0604 H   0  0  0  0  0  0  0  0  0  0  0  0
   -5.8813    4.9021   -1.8525 H   0  0  0  0  0  0  0  0  0  0  0  0
  1  2  2  0
  2  3  1  0
  2 24  1  0
  3  4  1  0
  3  5  1  0
  4  8  2  0
  5  6  1  0
  5 23  2  0
  6  7  1  0
  6 16  1  0
  7  8  1  0
  8  9  1  0
  9 10  2  0
  9 14  1  0
 10 11  1  0
 11 12  2  0
 12 13  1  0
 12 15  1  0
 13 14  2  0
 16 17  1  0
 17 18  2  0
 17 22  1  0
 18 19  1  0
 19 20  2  0
 20 21  1  0
 21 22  2  0
 23 24  1  0
 24 25  1  0
 24 27  1  0
 25 26  1  0
 27 28  1  0
 28 29  2  0
 28 34  1  0
 29 30  1  0
 30 31  2  0
 30 32  1  0
 31 37  1  0
 32 33  1  0
 32 35  2  0
 33 34  2  0
 35 36  1  0
 36 37  2  0
  4 38  1  0
  6 39  1  0
  7 40  1  0
 10 41  1  0
 11 42  1  0
 13 43  1  0
 14 44  1  0
 15 45  1  0
 16 46  1  0
 16 47  1  0
 18 48  1  0
 19 49  1  0
 20 50  1  0
 21 51  1  0
 22 52  1  0
 26 53  1  0
 27 54  1  0
 27 55  1  0
 29 56  1  0
 31 57  1  0
 33 58  1  0
 34 59  1  0
 35 60  1  0
 36 61  1  0
 37 62  1  0
A    1
O21
A    2
C3
A    3
N4
A    4
C5
A    5
C9
A    6
C8
A    7
N7
A    8
C6
A    9
C22
A   10
C23
A   11
C24
A   12
C25
A   13
C26
A   14
C27
A   15
O28
A   16
C29
A   17
C30
A   18
C31
A   19
C32
A   20
C33
A   21
C34
A   22
C35
A   23
N1
A   24
C2
A   25
O36
A   26
O37
A   27
C10
A   28
C11
A   29
C12
A   30
C13
A   31
C14
A   32
C18
A   33
C19
A   34
C20
A   35
C17
A   36
C16
A   37
C15
M  END
