1UK1_FRQ_A_501
     RDKit          3D

 53 56  0  0  0  0  0  0  0  0999 V2000
    7.6140   -7.7970   32.1870 C   0  0  0  0  0  0  0  0  0  0  0  0
    8.1890   -6.5390   32.2300 C   0  0  0  0  0  0  0  0  0  0  0  0
    7.6850   -5.5770   33.0970 C   0  0  0  0  0  0  0  0  0  0  0  0
    6.5890   -5.8690   33.8730 C   0  0  0  0  0  0  0  0  0  0  0  0
    6.0230   -7.0990   33.8040 C   0  0  0  0  0  0  0  0  0  0  0  0
    6.5240   -8.0790   32.9930 C   0  0  0  0  0  0  0  0  0  0  0  0
    8.2480   -4.3570   33.2710 N   0  0  0  0  0  0  0  0  0  0  0  0
    7.7040   -3.4420   34.0540 C   0  0  0  0  0  0  0  0  0  0  0  0
    6.6400   -3.7060   34.7200 N   0  0  0  0  0  0  0  0  0  0  0  0
    6.0480   -4.8680   34.7540 C   0  0  0  0  0  0  0  0  0  0  0  0
    5.1070   -5.0400   35.5180 O   0  0  0  0  0  0  0  0  0  0  0  0
    8.2020   -2.3610   34.1990 O   0  0  0  0  0  0  0  0  0  0  0  0
    9.5310   -4.0410   32.7140 C   0  0  0  0  0  0  0  0  0  0  0  0
    9.3860   -3.4660   31.3230 C   0  0  0  0  0  0  0  0  0  0  0  0
    8.9980   -2.0130   31.2620 C   0  0  0  0  0  0  0  0  0  0  0  0
    9.4010   -1.4750   29.8970 C   0  0  0  0  0  0  0  0  0  0  0  0
    9.0110   -0.0870   29.7140 N   0  0  0  0  0  0  0  0  0  0  0  0
    8.6410    0.7200   30.8850 C   0  0  0  0  0  0  0  0  0  0  0  0
    8.4270    2.1540   30.5010 C   0  0  0  0  0  0  0  0  0  0  0  0
    8.5790    2.6760   29.2750 C   0  0  0  0  0  0  0  0  0  0  0  0
    8.9560    1.7710   28.1380 C   0  0  0  0  0  0  0  0  0  0  0  0
    8.4970    0.3440   28.4150 C   0  0  0  0  0  0  0  0  0  0  0  0
    8.2340    4.0760   29.0770 C   0  0  0  0  0  0  0  0  0  0  0  0
    8.4500    4.9790   30.1090 C   0  0  0  0  0  0  0  0  0  0  0  0
    8.0450    6.2940   29.9790 C   0  0  0  0  0  0  0  0  0  0  0  0
    7.4740    6.7300   28.8000 C   0  0  0  0  0  0  0  0  0  0  0  0
    7.3110    5.8440   27.7390 C   0  0  0  0  0  0  0  0  0  0  0  0
    7.6690    4.5130   27.8910 C   0  0  0  0  0  0  0  0  0  0  0  0
    4.9480   -7.3330   34.5090 F   0  0  0  0  0  0  0  0  0  0  0  0
    8.0205   -8.5684   31.5164 H   0  0  0  0  0  0  0  0  0  0  0  0
    9.0433   -6.3010   31.5792 H   0  0  0  0  0  0  0  0  0  0  0  0
    6.0667   -9.0794   32.9809 H   0  0  0  0  0  0  0  0  0  0  0  0
    6.2211   -2.9424   35.2698 H   0  0  0  0  0  0  0  0  0  0  0  0
   10.0322   -3.3038   33.3585 H   0  0  0  0  0  0  0  0  0  0  0  0
   10.1260   -4.9642   32.6535 H   0  0  0  0  0  0  0  0  0  0  0  0
   10.3499   -3.5818   30.8058 H   0  0  0  0  0  0  0  0  0  0  0  0
    8.5613   -4.0199   30.8506 H   0  0  0  0  0  0  0  0  0  0  0  0
    7.9111   -1.9110   31.3973 H   0  0  0  0  0  0  0  0  0  0  0  0
    9.5039   -1.4489   32.0594 H   0  0  0  0  0  0  0  0  0  0  0  0
   10.4936   -1.5518   29.7950 H   0  0  0  0  0  0  0  0  0  0  0  0
    8.8831   -2.0735   29.1331 H   0  0  0  0  0  0  0  0  0  0  0  0
    7.7122    0.3208   31.3185 H   0  0  0  0  0  0  0  0  0  0  0  0
    9.4594    0.6710   31.6183 H   0  0  0  0  0  0  0  0  0  0  0  0
    7.3861    2.3742   30.7803 H   0  0  0  0  0  0  0  0  0  0  0  0
    9.2899    2.6124   31.0063 H   0  0  0  0  0  0  0  0  0  0  0  0
    9.4892    2.0928   27.2313 H   0  0  0  0  0  0  0  0  0  0  0  0
    8.8793   -0.3238   27.6289 H   0  0  0  0  0  0  0  0  0  0  0  0
    7.3977    0.3064   28.4236 H   0  0  0  0  0  0  0  0  0  0  0  0
    8.9452    4.6468   31.0334 H   0  0  0  0  0  0  0  0  0  0  0  0
    8.1779    6.9946   30.8165 H   0  0  0  0  0  0  0  0  0  0  0  0
    7.1484    7.7759   28.6993 H   0  0  0  0  0  0  0  0  0  0  0  0
    6.8993    6.1986   26.7826 H   0  0  0  0  0  0  0  0  0  0  0  0
    7.5037    3.8028   27.0674 H   0  0  0  0  0  0  0  0  0  0  0  0
  1  2  2  0
  1  6  1  0
  2  3  1  0
  3  4  2  0
  3  7  1  0
  4  5  1  0
  4 10  1  0
  5  6  2  0
  5 29  1  0
  7  8  1  0
  7 13  1  0
  8  9  1  0
  8 12  2  0
  9 10  1  0
 10 11  2  0
 13 14  1  0
 14 15  1  0
 15 16  1  0
 16 17  1  0
 17 18  1  0
 17 22  1  0
 18 19  1  0
 19 20  1  0
 20 21  2  0
 20 23  1  0
 21 22  1  0
 23 24  2  0
 23 28  1  0
 24 25  1  0
 25 26  2  0
 26 27  1  0
 27 28  2  0
  1 30  1  0
  2 31  1  0
  6 32  1  0
  9 33  1  0
 13 34  1  0
 13 35  1  0
 14 36  1  0
 14 37  1  0
 15 38  1  0
 15 39  1  0
 16 40  1  0
 16 41  1  0
 18 42  1  0
 18 43  1  0
 19 44  1  0
 19 45  1  0
 21 46  1  0
 22 47  1  0
 22 48  1  0
 24 49  1  0
 25 50  1  0
 26 51  1  0
 27 52  1  0
 28 53  1  0
A    1
C1
A    2
C2
A    3
C3
A    4
C4
A    5
C5
A    6
C6
A    7
N10
A    8
C11
A    9
N12
A   10
C13
A   11
O14
A   12
O15
A   13
C16
A   14
C17
A   15
C20
A   16
C23
A   17
N26
A   18
C29
A   19
C30
A   20
C31
A   21
C32
A   22
C33
A   23
C40
A   24
C42
A   25
C43
A   26
C44
A   27
C45
A   28
C46
A   29
F53
M  END
