1I1M_4MV_A_414
     RDKit          3D

 20 19  0  0  0  0  0  0  0  0999 V2000
   20.3240   15.6410   17.0360 C   0  0  0  0  0  0  0  0  0  0  0  0
   19.5380   16.3070   15.9260 C   0  0  0  0  0  0  0  0  0  0  0  0
   18.4250   15.4420   15.3370 C   0  0  0  0  0  0  0  0  0  0  0  0
   17.5150   16.2990   14.4750 C   0  0  0  0  0  0  0  0  0  0  0  0
   19.0280   14.3040   14.5300 C   0  0  0  0  0  0  0  0  0  0  0  0
   19.5380   15.4950   18.3280 C   0  0  0  0  0  0  0  0  0  0  0  0
   19.0880   16.5200   18.8790 O   0  0  0  0  0  0  0  0  0  0  0  0
   19.4000   14.3550   18.8160 O   0  0  0  0  0  0  0  0  0  0  0  0
   20.6263   14.6393   16.6967 H   0  0  0  0  0  0  0  0  0  0  0  0
   21.1890   16.2850   17.2530 H   0  0  0  0  0  0  0  0  0  0  0  0
   19.0846   17.2251   16.3280 H   0  0  0  0  0  0  0  0  0  0  0  0
   20.2495   16.5031   15.1103 H   0  0  0  0  0  0  0  0  0  0  0  0
   17.8254   15.0067   16.1500 H   0  0  0  0  0  0  0  0  0  0  0  0
   16.8667   16.9096   15.1206 H   0  0  0  0  0  0  0  0  0  0  0  0
   18.1253   16.9580   13.8400 H   0  0  0  0  0  0  0  0  0  0  0  0
   16.8938   15.6503   13.8400 H   0  0  0  0  0  0  0  0  0  0  0  0
   19.4313   13.5429   15.2141 H   0  0  0  0  0  0  0  0  0  0  0  0
   18.2509   13.8522   13.8959 H   0  0  0  0  0  0  0  0  0  0  0  0
   19.8382   14.6933   13.8959 H   0  0  0  0  0  0  0  0  0  0  0  0
   19.3856   14.2356   19.7987 H   0  0  0  0  0  0  0  0  0  0  0  0
  1  2  1  0
  1  6  1  0
  2  3  1  0
  3  4  1  0
  3  5  1  0
  6  7  2  0
  6  8  1  0
  1  9  1  0
  1 10  1  0
  2 11  1  0
  2 12  1  0
  3 13  1  0
  4 14  1  0
  4 15  1  0
  4 16  1  0
  5 17  1  0
  5 18  1  0
  5 19  1  0
  8 20  1  0
A    1
CA
A    2
CB
A    3
CG
A    4
CD1
A    5
CD2
A    6
C
A    7
O
A    8
OXT
M  END
