1UML_FR4_A_1001
     RDKit          3D

 60 63  0  0  0  0  0  0  0  0999 V2000
   51.8290   54.6770   20.8590 C   0  0  0  0  0  0  0  0  0  0  0  0
   51.8880   55.6880   21.9190 N   0  0  0  0  0  0  0  0  0  0  0  0
   51.8600   55.1000   23.1260 C   0  0  0  0  0  0  0  0  0  0  0  0
   51.7790   53.7750   22.9620 N   0  0  0  0  0  0  0  0  0  0  0  0
   51.7350   53.5200   21.5290 C   0  0  0  0  0  0  0  0  0  0  0  0
   51.6070   52.1810   20.9160 C   0  0  0  0  0  0  0  0  0  0  0  0
   51.3610   52.1210   19.7260 O   0  0  0  0  0  0  0  0  0  0  0  0
   51.7490   51.0960   21.6820 N   0  0  0  0  0  0  0  0  0  0  0  0
   51.9880   57.1300   21.7230 C   0  0  0  0  0  0  0  0  0  0  0  0
   53.4550   57.5680   21.5660 C   0  0  0  0  0  0  0  0  0  0  0  0
   54.2510   57.2110   22.6660 O   0  0  0  0  0  0  0  0  0  0  0  0
   51.1060   57.6310   20.5640 C   0  0  0  0  0  0  0  0  0  0  0  0
   49.6510   57.1520   20.6020 C   0  0  0  0  0  0  0  0  0  0  0  0
   49.0410   57.3030   19.2790 N   0  0  0  0  0  0  0  0  0  0  0  0
   48.5480   58.4350   18.7040 C   0  0  0  0  0  0  0  0  0  0  0  0
   48.0910   58.1640   17.4100 C   0  0  0  0  0  0  0  0  0  0  0  0
   48.3220   56.7580   17.2020 C   0  0  0  0  0  0  0  0  0  0  0  0
   48.9180   56.2500   18.3940 C   0  0  0  0  0  0  0  0  0  0  0  0
   48.0750   55.9260   16.1420 C   0  0  0  0  0  0  0  0  0  0  0  0
   48.4170   54.5770   16.2390 C   0  0  0  0  0  0  0  0  0  0  0  0
   49.0150   54.0720   17.4080 C   0  0  0  0  0  0  0  0  0  0  0  0
   49.2570   54.9300   18.4840 C   0  0  0  0  0  0  0  0  0  0  0  0
   49.3960   52.7740   17.5440 N   0  0  0  0  0  0  0  0  0  0  0  0
   49.1610   51.7710   16.6630 C   0  0  0  0  0  0  0  0  0  0  0  0
   48.5250   51.8600   15.6130 O   0  0  0  0  0  0  0  0  0  0  0  0
   49.8040   50.4740   17.1270 C   0  0  0  0  0  0  0  0  0  0  0  0
   49.1790   49.2540   16.4430 C   0  0  0  0  0  0  0  0  0  0  0  0
   47.5840   48.9190   18.3820 C   0  0  0  0  0  0  0  0  0  0  0  0
   47.8190   48.8890   17.0080 C   0  0  0  0  0  0  0  0  0  0  0  0
   46.8090   48.4760   16.1420 C   0  0  0  0  0  0  0  0  0  0  0  0
   45.5800   48.0760   16.6460 C   0  0  0  0  0  0  0  0  0  0  0  0
   45.3560   48.0770   18.0230 C   0  0  0  0  0  0  0  0  0  0  0  0
   46.3550   48.5030   18.8860 C   0  0  0  0  0  0  0  0  0  0  0  0
   51.8556   54.8316   19.7702 H   0  0  0  0  0  0  0  0  0  0  0  0
   51.8976   55.6232   24.0929 H   0  0  0  0  0  0  0  0  0  0  0  0
   51.7374   51.1849   22.7081 H   0  0  0  0  0  0  0  0  0  0  0  0
   51.8701   50.1705   21.2466 H   0  0  0  0  0  0  0  0  0  0  0  0
   51.5942   57.6080   22.6321 H   0  0  0  0  0  0  0  0  0  0  0  0
   53.8688   57.0932   20.6641 H   0  0  0  0  0  0  0  0  0  0  0  0
   53.4664   58.6654   21.4918 H   0  0  0  0  0  0  0  0  0  0  0  0
   53.7708   57.4264   23.5045 H   0  0  0  0  0  0  0  0  0  0  0  0
   51.1037   58.7307   20.5880 H   0  0  0  0  0  0  0  0  0  0  0  0
   51.5423   57.2144   19.6441 H   0  0  0  0  0  0  0  0  0  0  0  0
   49.6235   56.0928   20.8974 H   0  0  0  0  0  0  0  0  0  0  0  0
   49.0900   57.7562   21.3302 H   0  0  0  0  0  0  0  0  0  0  0  0
   48.5140   59.4220   19.1883 H   0  0  0  0  0  0  0  0  0  0  0  0
   47.6474   58.8767   16.6992 H   0  0  0  0  0  0  0  0  0  0  0  0
   47.6120   56.3175   15.2242 H   0  0  0  0  0  0  0  0  0  0  0  0
   48.2173   53.9020   15.3937 H   0  0  0  0  0  0  0  0  0  0  0  0
   49.7204   54.5424   19.4033 H   0  0  0  0  0  0  0  0  0  0  0  0
   49.9137   52.5289   18.4000 H   0  0  0  0  0  0  0  0  0  0  0  0
   50.8778   50.5040   16.8902 H   0  0  0  0  0  0  0  0  0  0  0  0
   49.6412   50.3797   18.2108 H   0  0  0  0  0  0  0  0  0  0  0  0
   49.0658   49.4730   15.3710 H   0  0  0  0  0  0  0  0  0  0  0  0
   49.8485   48.3992   16.6193 H   0  0  0  0  0  0  0  0  0  0  0  0
   48.3692   49.2711   19.0672 H   0  0  0  0  0  0  0  0  0  0  0  0
   46.9863   48.4670   15.0564 H   0  0  0  0  0  0  0  0  0  0  0  0
   44.7816   47.7578   15.9595 H   0  0  0  0  0  0  0  0  0  0  0  0
   44.3885   47.7404   18.4238 H   0  0  0  0  0  0  0  0  0  0  0  0
   46.1755   48.5121   19.9712 H   0  0  0  0  0  0  0  0  0  0  0  0
  1  2  1  0
  1  5  2  0
  2  3  1  0
  2  9  1  0
  3  4  2  0
  4  5  1  0
  5  6  1  0
  6  7  2  0
  6  8  1  0
  9 10  1  0
  9 12  1  0
 10 11  1  0
 12 13  1  0
 13 14  1  0
 14 15  1  0
 14 18  1  0
 15 16  2  0
 16 17  1  0
 17 18  2  0
 17 19  1  0
 18 22  1  0
 19 20  2  0
 20 21  1  0
 21 22  2  0
 21 23  1  0
 23 24  1  0
 24 25  2  0
 24 26  1  0
 26 27  1  0
 27 29  1  0
 28 29  2  0
 28 33  1  0
 29 30  1  0
 30 31  2  0
 31 32  1  0
 32 33  2  0
  1 34  1  0
  3 35  1  0
  8 36  1  0
  8 37  1  0
  9 38  1  0
 10 39  1  0
 10 40  1  0
 11 41  1  0
 12 42  1  0
 12 43  1  0
 13 44  1  0
 13 45  1  0
 15 46  1  0
 16 47  1  0
 19 48  1  0
 20 49  1  0
 22 50  1  0
 23 51  1  0
 26 52  1  0
 26 53  1  0
 27 54  1  0
 27 55  1  0
 28 56  1  0
 30 57  1  0
 31 58  1  0
 32 59  1  0
 33 60  1  0
A    1
C1
A    2
N2
A    3
C3
A    4
N4
A    5
C5
A    6
C8
A    7
O9
A    8
N10
A    9
C13
A   10
C14
A   11
O15
A   12
C18
A   13
C19
A   14
N22
A   15
C27
A   16
C28
A   17
C29
A   18
C30
A   19
C31
A   20
C32
A   21
C33
A   22
C34
A   23
N1
A   24
C2
A   25
O1
A   26
C4
A   27
C6
A   28
C7
A   29
C11
A   30
C9
A   31
C12
A   32
C10
A   33
C15
M  END
