1UMP_SQA_A_1630
     RDKit          3D

 81 80  0  0  0  0  0  0  0  0999 V2000
   63.0700   68.1510   56.9660 C   0  0  0  0  0  0  0  0  0  0  0  0
   62.3610   69.3490   57.4480 N   0  0  0  0  0  0  0  0  0  0  0  0
   63.1570   69.9340   58.5260 C   0  0  0  0  0  0  0  0  0  0  0  0
   62.8390   71.4280   58.7190 C   0  0  0  0  0  0  0  0  0  0  0  0
   63.0700   71.8170   60.1840 C   0  0  0  0  0  0  0  0  0  0  0  0
   62.2040   70.9050   61.0430 C   0  0  0  0  0  0  0  0  0  0  0  0
   62.7950   69.8810   61.7040 C   0  0  0  0  0  0  0  0  0  0  0  0
   62.0480   68.8850   62.5830 C   0  0  0  0  0  0  0  0  0  0  0  0
   62.9370   68.6120   63.7910 C   0  0  0  0  0  0  0  0  0  0  0  0
   63.0840   69.9050   64.5230 C   0  0  0  0  0  0  0  0  0  0  0  0
   64.2870   70.4650   64.6080 C   0  0  0  0  0  0  0  0  0  0  0  0
   64.5060   71.7700   65.3150 C   0  0  0  0  0  0  0  0  0  0  0  0
   65.8150   71.7670   66.0470 C   0  0  0  0  0  0  0  0  0  0  0  0
   65.6930   70.9550   67.3080 C   0  0  0  0  0  0  0  0  0  0  0  0
   66.0990   69.6850   67.4210 C   0  0  0  0  0  0  0  0  0  0  0  0
   65.8880   68.9980   68.7500 C   0  0  0  0  0  0  0  0  0  0  0  0
   67.1640   68.8050   69.5190 C   0  0  0  0  0  0  0  0  0  0  0  0
   67.6470   70.1260   70.0900 C   0  0  0  0  0  0  0  0  0  0  0  0
   68.4300   70.2230   71.1790 C   0  0  0  0  0  0  0  0  0  0  0  0
   68.9110   71.5660   71.7260 C   0  0  0  0  0  0  0  0  0  0  0  0
   68.3470   72.7780   70.9790 C   0  0  0  0  0  0  0  0  0  0  0  0
   68.8630   74.0540   71.6300 C   0  0  0  0  0  0  0  0  0  0  0  0
   70.0110   74.6690   71.2430 C   0  0  0  0  0  0  0  0  0  0  0  0
   70.8810   74.1410   70.1250 C   0  0  0  0  0  0  0  0  0  0  0  0
   60.9760   69.0810   57.8520 C   0  0  0  0  0  0  0  0  0  0  0  0
   60.7300   71.1480   61.0680 C   0  0  0  0  0  0  0  0  0  0  0  0
   61.8540   70.5270   65.1170 C   0  0  0  0  0  0  0  0  0  0  0  0
   66.6820   68.9250   66.2450 C   0  0  0  0  0  0  0  0  0  0  0  0
   68.8910   69.0050   71.9300 C   0  0  0  0  0  0  0  0  0  0  0  0
   70.4690   75.9300   71.9350 C   0  0  0  0  0  0  0  0  0  0  0  0
   63.4193   67.5608   57.8260 H   0  0  0  0  0  0  0  0  0  0  0  0
   62.3871   67.5414   56.3560 H   0  0  0  0  0  0  0  0  0  0  0  0
   63.9330   68.4563   56.3560 H   0  0  0  0  0  0  0  0  0  0  0  0
   62.9386   69.3988   59.4619 H   0  0  0  0  0  0  0  0  0  0  0  0
   64.2199   69.8403   58.2586 H   0  0  0  0  0  0  0  0  0  0  0  0
   63.4957   72.0287   58.0726 H   0  0  0  0  0  0  0  0  0  0  0  0
   61.7885   71.6158   58.4520 H   0  0  0  0  0  0  0  0  0  0  0  0
   64.1301   71.6832   60.4452 H   0  0  0  0  0  0  0  0  0  0  0  0
   62.8053   72.8716   60.3507 H   0  0  0  0  0  0  0  0  0  0  0  0
   63.8834   69.7606   61.5997 H   0  0  0  0  0  0  0  0  0  0  0  0
   61.0879   69.3122   62.9080 H   0  0  0  0  0  0  0  0  0  0  0  0
   61.8324   67.9569   62.0333 H   0  0  0  0  0  0  0  0  0  0  0  0
   62.4689   67.8596   64.4427 H   0  0  0  0  0  0  0  0  0  0  0  0
   63.9173   68.2232   63.4783 H   0  0  0  0  0  0  0  0  0  0  0  0
   65.1465   69.9567   64.1466 H   0  0  0  0  0  0  0  0  0  0  0  0
   64.5083   72.5845   64.5757 H   0  0  0  0  0  0  0  0  0  0  0  0
   63.6952   71.9161   66.0439 H   0  0  0  0  0  0  0  0  0  0  0  0
   66.5919   71.3279   65.4038 H   0  0  0  0  0  0  0  0  0  0  0  0
   66.0882   72.8006   66.3060 H   0  0  0  0  0  0  0  0  0  0  0  0
   65.2430   71.4343   68.1899 H   0  0  0  0  0  0  0  0  0  0  0  0
   65.2025   69.6089   69.3557 H   0  0  0  0  0  0  0  0  0  0  0  0
   65.4739   68.0002   68.5430 H   0  0  0  0  0  0  0  0  0  0  0  0
   66.9865   68.0981   70.3429 H   0  0  0  0  0  0  0  0  0  0  0  0
   67.9326   68.4099   68.8385 H   0  0  0  0  0  0  0  0  0  0  0  0
   67.3399   71.0541   69.5857 H   0  0  0  0  0  0  0  0  0  0  0  0
   68.6091   71.6383   72.7813 H   0  0  0  0  0  0  0  0  0  0  0  0
   70.0031   71.5909   71.5965 H   0  0  0  0  0  0  0  0  0  0  0  0
   68.6699   72.7450   69.9280 H   0  0  0  0  0  0  0  0  0  0  0  0
   67.2480   72.7598   71.0230 H   0  0  0  0  0  0  0  0  0  0  0  0
   68.2801   74.4979   72.4505 H   0  0  0  0  0  0  0  0  0  0  0  0
   71.7476   73.6150   70.5520 H   0  0  0  0  0  0  0  0  0  0  0  0
   70.2982   73.4441   69.5048 H   0  0  0  0  0  0  0  0  0  0  0  0
   71.2302   74.9797   69.5048 H   0  0  0  0  0  0  0  0  0  0  0  0
   60.9103   69.0683   58.9500 H   0  0  0  0  0  0  0  0  0  0  0  0
   60.3191   69.8687   57.4544 H   0  0  0  0  0  0  0  0  0  0  0  0
   60.6604   68.1051   57.4544 H   0  0  0  0  0  0  0  0  0  0  0  0
   60.3854   71.2048   62.1111 H   0  0  0  0  0  0  0  0  0  0  0  0
   60.5058   72.0952   60.5557 H   0  0  0  0  0  0  0  0  0  0  0  0
   60.2136   70.3229   60.5557 H   0  0  0  0  0  0  0  0  0  0  0  0
   61.9198   70.4937   66.2145 H   0  0  0  0  0  0  0  0  0  0  0  0
   61.7757   71.5731   64.7859 H   0  0  0  0  0  0  0  0  0  0  0  0
   60.9651   69.9701   64.7859 H   0  0  0  0  0  0  0  0  0  0  0  0
   67.3124   68.1033   66.6157 H   0  0  0  0  0  0  0  0  0  0  0  0
   65.8656   68.5136   65.6332 H   0  0  0  0  0  0  0  0  0  0  0  0
   67.2909   69.6069   65.6332 H   0  0  0  0  0  0  0  0  0  0  0  0
   68.8200   69.1925   73.0116 H   0  0  0  0  0  0  0  0  0  0  0  0
   68.2551   68.1477   71.6640 H   0  0  0  0  0  0  0  0  0  0  0  0
   69.9351   68.7836   71.6640 H   0  0  0  0  0  0  0  0  0  0  0  0
   70.4179   75.7894   73.0248 H   0  0  0  0  0  0  0  0  0  0  0  0
   71.5056   76.1531   71.6422 H   0  0  0  0  0  0  0  0  0  0  0  0
   69.8172   76.7663   71.6422 H   0  0  0  0  0  0  0  0  0  0  0  0
  1  2  1  0
  2  3  1  0
  2 25  1  0
  3  4  1  0
  4  5  1  0
  5  6  1  0
  6  7  2  0
  6 26  1  0
  7  8  1  0
  8  9  1  0
  9 10  1  0
 10 11  2  0
 10 27  1  0
 11 12  1  0
 12 13  1  0
 13 14  1  0
 14 15  2  0
 15 16  1  0
 15 28  1  0
 16 17  1  0
 17 18  1  0
 18 19  2  0
 19 20  1  0
 19 29  1  0
 20 21  1  0
 21 22  1  0
 22 23  2  0
 23 24  1  0
 23 30  1  0
  1 31  1  0
  1 32  1  0
  1 33  1  0
  3 34  1  0
  3 35  1  0
  4 36  1  0
  4 37  1  0
  5 38  1  0
  5 39  1  0
  7 40  1  0
  8 41  1  0
  8 42  1  0
  9 43  1  0
  9 44  1  0
 11 45  1  0
 12 46  1  0
 12 47  1  0
 13 48  1  0
 13 49  1  0
 14 50  1  0
 16 51  1  0
 16 52  1  0
 17 53  1  0
 17 54  1  0
 18 55  1  0
 20 56  1  0
 20 57  1  0
 21 58  1  0
 21 59  1  0
 22 60  1  0
 24 61  1  0
 24 62  1  0
 24 63  1  0
 25 64  1  0
 25 65  1  0
 25 66  1  0
 26 67  1  0
 26 68  1  0
 26 69  1  0
 27 70  1  0
 27 71  1  0
 27 72  1  0
 28 73  1  0
 28 74  1  0
 28 75  1  0
 29 76  1  0
 29 77  1  0
 29 78  1  0
 30 79  1  0
 30 80  1  0
 30 81  1  0
A    1
C1
A    2
N2
A    3
C3
A    4
C4
A    5
C5
A    6
C6
A    7
C7
A    8
C8
A    9
C9
A   10
C10
A   11
C11
A   12
C12
A   13
C13
A   14
C14
A   15
C15
A   16
C16
A   17
C17
A   18
C18
A   19
C19
A   20
C20
A   21
C21
A   22
C22
A   23
C23
A   24
C24
A   25
C25
A   26
C26
A   27
C27
A   28
C28
A   29
C29
A   30
C30
M  END
