1UNB_PN1_A_1312
     RDKit          3D

 43 45  0  0  0  0  0  0  0  0999 V2000
   -0.9980   16.2140   50.0950 C   0  0  0  0  0  0  0  0  0  0  0  0
    0.4630   14.6950   51.4710 C   0  0  0  0  0  0  0  0  0  0  0  0
    7.4100   15.4440   55.3830 C   0  0  0  0  0  0  0  0  0  0  0  0
    3.3940   13.9250   53.7970 N   0  0  0  0  0  0  0  0  0  0  0  0
    6.7210   16.7960   57.3280 C   0  0  0  0  0  0  0  0  0  0  0  0
    5.2070   15.3840   56.2430 N   0  0  0  0  0  0  0  0  0  0  0  0
    1.8340   14.2380   51.9720 C   0  0  0  0  0  0  0  0  0  0  0  0
    8.0640   14.6380   56.5110 C   0  0  0  0  0  0  0  0  0  0  0  0
    2.1710   14.4270   53.4530 C   0  0  0  0  0  0  0  0  0  0  0  0
    0.2940   15.9930   50.6540 C   0  0  0  0  0  0  0  0  0  0  0  0
   -2.0440   15.2170   50.2830 C   0  0  0  0  0  0  0  0  0  0  0  0
   -1.9020   13.8740   51.0370 C   0  0  0  0  0  0  0  0  0  0  0  0
   -0.6820   13.7250   51.7020 C   0  0  0  0  0  0  0  0  0  0  0  0
    6.3070   16.2750   55.9860 C   0  0  0  0  0  0  0  0  0  0  0  0
    5.3930   14.1480   55.4390 C   0  0  0  0  0  0  0  0  0  0  0  0
    3.8880   14.2010   55.1140 C   0  0  0  0  0  0  0  0  0  0  0  0
    3.9620   15.5960   55.6190 C   0  0  0  0  0  0  0  0  0  0  0  0
    8.3990   16.3010   54.6030 C   0  0  0  0  0  0  0  0  0  0  0  0
    1.6990   12.7130   52.0050 N   0  0  0  0  0  0  0  0  0  0  0  0
    6.2520   16.3300   58.3600 O   0  0  0  0  0  0  0  0  0  0  0  0
    7.6110   17.7640   57.4030 O   0  0  0  0  0  0  0  0  0  0  0  0
    1.3410   14.9550   54.2110 O   0  0  0  0  0  0  0  0  0  0  0  0
    3.1970   16.5750   55.5220 O   0  0  0  0  0  0  0  0  0  0  0  0
    6.7150   14.4260   54.2130 S   0  0  0  0  0  0  0  0  0  0  0  0
   -1.2045   17.1318   49.5249 H   0  0  0  0  0  0  0  0  0  0  0  0
    3.9445   13.3652   53.1303 H   0  0  0  0  0  0  0  0  0  0  0  0
    2.5574   14.7809   51.3459 H   0  0  0  0  0  0  0  0  0  0  0  0
    7.7396   15.0378   57.4831 H   0  0  0  0  0  0  0  0  0  0  0  0
    7.7634   13.5830   56.4297 H   0  0  0  0  0  0  0  0  0  0  0  0
    9.1583   14.7148   56.4297 H   0  0  0  0  0  0  0  0  0  0  0  0
    1.1207   16.7046   50.5117 H   0  0  0  0  0  0  0  0  0  0  0  0
   -3.0288   15.4409   49.8470 H   0  0  0  0  0  0  0  0  0  0  0  0
   -2.6896   13.1061   51.0487 H   0  0  0  0  0  0  0  0  0  0  0  0
   -0.5488   12.8899   52.4055 H   0  0  0  0  0  0  0  0  0  0  0  0
    6.0613   17.1043   55.3064 H   0  0  0  0  0  0  0  0  0  0  0  0
    5.7576   13.1642   55.7694 H   0  0  0  0  0  0  0  0  0  0  0  0
    3.1751   13.4567   55.4985 H   0  0  0  0  0  0  0  0  0  0  0  0
    9.0383   16.8550   55.3061 H   0  0  0  0  0  0  0  0  0  0  0  0
    9.0246   15.6546   53.9698 H   0  0  0  0  0  0  0  0  0  0  0  0
    7.8482   17.0122   53.9698 H   0  0  0  0  0  0  0  0  0  0  0  0
    1.6706   12.3919   52.9833 H   0  0  0  0  0  0  0  0  0  0  0  0
    0.8301   12.4348   51.5270 H   0  0  0  0  0  0  0  0  0  0  0  0
    7.9124   18.0919   58.2872 H   0  0  0  0  0  0  0  0  0  0  0  0
  1 10  2  0
  1 11  1  0
  2  7  1  0
  2 10  1  0
  2 13  2  0
  3  8  1  0
  3 14  1  0
  3 18  1  0
  3 24  1  0
  4  9  1  0
  4 16  1  0
  5 14  1  0
  5 20  2  0
  5 21  1  0
  6 14  1  0
  6 15  1  0
  6 17  1  0
  7  9  1  0
  7 19  1  0
  9 22  2  0
 11 12  2  0
 12 13  1  0
 15 16  1  0
 15 24  1  0
 16 17  1  0
 17 23  2  0
  1 25  1  0
  4 26  1  0
  7 27  1  0
  8 28  1  0
  8 29  1  0
  8 30  1  0
 10 31  1  0
 11 32  1  0
 12 33  1  0
 13 34  1  0
 14 35  1  0
 15 36  1  0
 16 37  1  0
 18 38  1  0
 18 39  1  0
 18 40  1  0
 19 41  1  0
 19 42  1  0
 21 43  1  0
A    1
C8
A    2
C5
A    3
C6
A    4
N1
A    5
C2
A    6
N3
A    7
C4
A    8
C1
A    9
C3
A   10
C7
A   11
C9
A   12
C10
A   13
C11
A   14
C12
A   15
C13
A   16
C14
A   17
C15
A   18
C16
A   19
N2
A   20
O1
A   21
O2
A   22
O3
A   23
O4
A   24
S1
M  END
