1UNG_ALH_A_1293
     RDKit          3D

 37 39  0  0  0  0  0  0  0  0999 V2000
    0.9860   70.0120    1.0710 O   0  0  0  0  0  0  0  0  0  0  0  0
    1.8070   69.0080    0.9370 C   0  0  0  0  0  0  0  0  0  0  0  0
    2.3790   68.3990    2.0550 C   0  0  0  0  0  0  0  0  0  0  0  0
    3.2490   67.3160    1.9140 C   0  0  0  0  0  0  0  0  0  0  0  0
    3.5520   66.8900    0.6280 C   0  0  0  0  0  0  0  0  0  0  0  0
    2.9860   67.5350   -0.4940 C   0  0  0  0  0  0  0  0  0  0  0  0
    2.1080   68.5970   -0.3450 C   0  0  0  0  0  0  0  0  0  0  0  0
    4.3980   65.8360    0.3110 C   0  0  0  0  0  0  0  0  0  0  0  0
    4.6370   65.4420   -0.9710 N   0  0  0  0  0  0  0  0  0  0  0  0
    5.4840   64.4360   -0.8390 C   0  0  0  0  0  0  0  0  0  0  0  0
    6.0700   63.6610   -1.9000 N   0  0  0  0  0  0  0  0  0  0  0  0
    5.7850   64.2120    0.4800 C   0  0  0  0  0  0  0  0  0  0  0  0
    6.7000   63.1680    0.8300 N   0  0  0  0  0  0  0  0  0  0  0  0
    7.2010   62.4310   -0.1540 C   0  0  0  0  0  0  0  0  0  0  0  0
    6.8800   62.6720   -1.4960 C   0  0  0  0  0  0  0  0  0  0  0  0
    5.0830   65.0800    1.2990 C   0  0  0  0  0  0  0  0  0  0  0  0
    5.1550   65.1990    2.8220 C   0  0  0  0  0  0  0  0  0  0  0  0
    4.3490   64.2710    3.7290 C   0  0  0  0  0  0  0  0  0  0  0  0
    5.1210   64.1220    5.0390 C   0  0  0  0  0  0  0  0  0  0  0  0
    4.5150   64.8330    6.2450 C   0  0  0  0  0  0  0  0  0  0  0  0
    0.7301   70.3250    1.9747 H   0  0  0  0  0  0  0  0  0  0  0  0
    2.1413   68.7771    3.0603 H   0  0  0  0  0  0  0  0  0  0  0  0
    3.6805   66.8163    2.7939 H   0  0  0  0  0  0  0  0  0  0  0  0
    3.2469   67.1880   -1.5047 H   0  0  0  0  0  0  0  0  0  0  0  0
    1.6658   69.0957   -1.2201 H   0  0  0  0  0  0  0  0  0  0  0  0
    4.2485   65.8359   -1.8398 H   0  0  0  0  0  0  0  0  0  0  0  0
    7.8878   61.6076    0.0915 H   0  0  0  0  0  0  0  0  0  0  0  0
    7.3168   62.0132   -2.2609 H   0  0  0  0  0  0  0  0  0  0  0  0
    6.2115   65.0613    3.0955 H   0  0  0  0  0  0  0  0  0  0  0  0
    4.6890   66.1780    3.0074 H   0  0  0  0  0  0  0  0  0  0  0  0
    3.3577   64.7058    3.9250 H   0  0  0  0  0  0  0  0  0  0  0  0
    4.2063   63.2908    3.2506 H   0  0  0  0  0  0  0  0  0  0  0  0
    5.1840   63.0494    5.2747 H   0  0  0  0  0  0  0  0  0  0  0  0
    6.0981   64.5976    4.8686 H   0  0  0  0  0  0  0  0  0  0  0  0
    4.9012   64.3799    7.1700 H   0  0  0  0  0  0  0  0  0  0  0  0
    4.7870   65.8985    6.2173 H   0  0  0  0  0  0  0  0  0  0  0  0
    3.4199   64.7333    6.2173 H   0  0  0  0  0  0  0  0  0  0  0  0
  1  2  1  0
  2  3  2  0
  2  7  1  0
  3  4  1  0
  4  5  2  0
  5  6  1  0
  5  8  1  0
  6  7  2  0
  8  9  1  0
  8 16  2  0
  9 10  1  0
 10 11  2  0
 10 12  1  0
 11 15  1  0
 12 13  2  0
 12 16  1  0
 13 14  1  0
 14 15  2  0
 16 17  1  0
 17 18  1  0
 18 19  1  0
 19 20  1  0
  1 21  1  0
  3 22  1  0
  4 23  1  0
  6 24  1  0
  7 25  1  0
  9 26  1  0
 14 27  1  0
 15 28  1  0
 17 29  1  0
 17 30  1  0
 18 31  1  0
 18 32  1  0
 19 33  1  0
 19 34  1  0
 20 35  1  0
 20 36  1  0
 20 37  1  0
A    1
OAO
A    2
CAN
A    3
CAU
A    4
CAT
A    5
CAM
A    6
CAE
A    7
CAF
A    8
CAL
A    9
NAS
A   10
CAR
A   11
NAQ
A   12
CAJ
A   13
NAI
A   14
CAH
A   15
CAP
A   16
CAK
A   17
CAG
A   18
CAD
A   19
CAC
A   20
CAB
M  END
