1UOM_PTI_A_1547
     RDKit          3D

 64 68  0  0  0  0  0  0  0  0999 V2000
   -3.1030   53.4940   19.4140 C   0  0  0  0  0  0  0  0  0  0  0  0
   -1.9600   53.8010   18.4030 C   0  0  0  0  0  0  0  0  0  0  0  0
   -2.5510   54.4550   17.1200 C   0  0  0  0  0  0  0  0  0  0  0  0
   -3.9320   54.7120   19.7410 N   0  0  0  0  0  0  0  0  0  0  0  0
   -3.3140   55.7660   17.5060 C   0  0  0  0  0  0  0  0  0  0  0  0
   -4.4500   55.4410   18.5200 C   0  0  0  0  0  0  0  0  0  0  0  0
   -5.0190   54.3990   20.7130 C   0  0  0  0  0  0  0  0  0  0  0  0
   -4.6090   54.3590   22.2140 C   0  0  0  0  0  0  0  0  0  0  0  0
   -3.7250   53.2370   22.4260 O   0  0  0  0  0  0  0  0  0  0  0  0
   -3.1760   52.8610   23.6760 C   0  0  0  0  0  0  0  0  0  0  0  0
   -3.4350   53.5470   24.9120 C   0  0  0  0  0  0  0  0  0  0  0  0
   -2.8460   53.0890   26.1300 C   0  0  0  0  0  0  0  0  0  0  0  0
   -1.9890   51.9450   26.1420 C   0  0  0  0  0  0  0  0  0  0  0  0
   -1.7340   51.2670   24.9020 C   0  0  0  0  0  0  0  0  0  0  0  0
   -2.3210   51.7240   23.6980 C   0  0  0  0  0  0  0  0  0  0  0  0
   -1.3290   51.4190   27.4700 C   0  0  0  0  0  0  0  0  0  0  0  0
   -1.8570   50.0460   27.8620 N   0  0  0  0  0  0  0  0  0  0  0  0
   -0.9350   49.0100   28.4040 C   0  0  0  0  0  0  0  0  0  0  0  0
    0.4420   48.9400   27.6670 C   0  0  0  0  0  0  0  0  0  0  0  0
    1.0320   50.3300   27.3360 C   0  0  0  0  0  0  0  0  0  0  0  0
    0.2030   51.4910   27.2360 C   0  0  0  0  0  0  0  0  0  0  0  0
    0.8050   52.7540   26.9090 C   0  0  0  0  0  0  0  0  0  0  0  0
    2.2040   52.8580   26.6870 C   0  0  0  0  0  0  0  0  0  0  0  0
    3.0240   51.7120   26.7890 C   0  0  0  0  0  0  0  0  0  0  0  0
    2.4340   50.4520   27.1110 C   0  0  0  0  0  0  0  0  0  0  0  0
    4.4020   51.7840   26.5760 O   0  0  0  0  0  0  0  0  0  0  0  0
   -3.2130   49.7890   27.9000 C   0  0  0  0  0  0  0  0  0  0  0  0
   -3.9470   50.1380   29.0730 C   0  0  0  0  0  0  0  0  0  0  0  0
   -5.3410   49.8980   29.1540 C   0  0  0  0  0  0  0  0  0  0  0  0
   -6.0260   49.3020   28.0590 C   0  0  0  0  0  0  0  0  0  0  0  0
   -5.3110   48.9420   26.8840 C   0  0  0  0  0  0  0  0  0  0  0  0
   -3.9130   49.1800   26.8020 C   0  0  0  0  0  0  0  0  0  0  0  0
   -3.7606   52.7266   18.9797 H   0  0  0  0  0  0  0  0  0  0  0  0
   -2.6370   53.1478   20.3483 H   0  0  0  0  0  0  0  0  0  0  0  0
   -1.2392   54.4912   18.8656 H   0  0  0  0  0  0  0  0  0  0  0  0
   -1.4539   52.8628   18.1317 H   0  0  0  0  0  0  0  0  0  0  0  0
   -1.7352   54.6974   16.4230 H   0  0  0  0  0  0  0  0  0  0  0  0
   -3.2483   53.7533   16.6390 H   0  0  0  0  0  0  0  0  0  0  0  0
   -2.6096   56.4764   17.9633 H   0  0  0  0  0  0  0  0  0  0  0  0
   -3.7539   56.2083   16.6000 H   0  0  0  0  0  0  0  0  0  0  0  0
   -5.2003   54.8096   18.0217 H   0  0  0  0  0  0  0  0  0  0  0  0
   -4.8881   56.3930   18.8544 H   0  0  0  0  0  0  0  0  0  0  0  0
   -5.8013   55.1639   20.5992 H   0  0  0  0  0  0  0  0  0  0  0  0
   -5.3456   53.3771   20.4700 H   0  0  0  0  0  0  0  0  0  0  0  0
   -4.0919   55.2925   22.4808 H   0  0  0  0  0  0  0  0  0  0  0  0
   -5.5050   54.2525   22.8431 H   0  0  0  0  0  0  0  0  0  0  0  0
   -4.0908   54.4301   24.9201 H   0  0  0  0  0  0  0  0  0  0  0  0
   -3.0542   53.6225   27.0692 H   0  0  0  0  0  0  0  0  0  0  0  0
   -1.0769   50.3850   24.8879 H   0  0  0  0  0  0  0  0  0  0  0  0
   -2.1119   51.1891   22.7598 H   0  0  0  0  0  0  0  0  0  0  0  0
   -1.5907   52.0357   28.3424 H   0  0  0  0  0  0  0  0  0  0  0  0
   -0.7491   49.2327   29.4651 H   0  0  0  0  0  0  0  0  0  0  0  0
   -1.4260   48.0368   28.2567 H   0  0  0  0  0  0  0  0  0  0  0  0
    1.1547   48.4027   28.3099 H   0  0  0  0  0  0  0  0  0  0  0  0
    0.2730   48.4227   26.7110 H   0  0  0  0  0  0  0  0  0  0  0  0
    0.1744   53.6518   26.8296 H   0  0  0  0  0  0  0  0  0  0  0  0
    2.6495   53.8318   26.4354 H   0  0  0  0  0  0  0  0  0  0  0  0
    3.0730   49.5598   27.1867 H   0  0  0  0  0  0  0  0  0  0  0  0
    5.0212   51.8164   27.3478 H   0  0  0  0  0  0  0  0  0  0  0  0
   -3.4244   50.5987   29.9242 H   0  0  0  0  0  0  0  0  0  0  0  0
   -5.8940   50.1728   30.0643 H   0  0  0  0  0  0  0  0  0  0  0  0
   -7.1090   49.1196   28.1213 H   0  0  0  0  0  0  0  0  0  0  0  0
   -5.8405   48.4791   26.0382 H   0  0  0  0  0  0  0  0  0  0  0  0
   -3.3627   48.8966   25.8927 H   0  0  0  0  0  0  0  0  0  0  0  0
  1  2  1  0
  1  4  1  0
  2  3  1  0
  3  5  1  0
  4  6  1  0
  4  7  1  0
  5  6  1  0
  7  8  1  0
  8  9  1  0
  9 10  1  0
 10 11  2  0
 10 15  1  0
 11 12  1  0
 12 13  2  0
 13 14  1  0
 13 16  1  0
 14 15  2  0
 16 17  1  0
 16 21  1  0
 17 18  1  0
 17 27  1  0
 18 19  1  0
 19 20  1  0
 20 21  2  0
 20 25  1  0
 21 22  1  0
 22 23  2  0
 23 24  1  0
 24 25  2  0
 24 26  1  0
 27 28  2  0
 27 32  1  0
 28 29  1  0
 29 30  2  0
 30 31  1  0
 31 32  2  0
  1 33  1  0
  1 34  1  0
  2 35  1  0
  2 36  1  0
  3 37  1  0
  3 38  1  0
  5 39  1  0
  5 40  1  0
  6 41  1  0
  6 42  1  0
  7 43  1  0
  7 44  1  0
  8 45  1  0
  8 46  1  0
 11 47  1  0
 12 48  1  0
 14 49  1  0
 15 50  1  0
 16 51  1  0
 18 52  1  0
 18 53  1  0
 19 54  1  0
 19 55  1  0
 22 56  1  0
 23 57  1  0
 25 58  1  0
 26 59  1  0
 28 60  1  0
 29 61  1  0
 30 62  1  0
 31 63  1  0
 32 64  1  0
A    1
C3
A    2
C6
A    3
C9
A    4
N1
A    5
C12
A    6
C15
A    7
C18
A    8
C21
A    9
O24
A   10
C25
A   11
C26
A   12
C28
A   13
C30
A   14
C31
A   15
C33
A   16
C35
A   17
N37
A   18
C38
A   19
C41
A   20
C44
A   21
C45
A   22
C46
A   23
C48
A   24
C50
A   25
C51
A   26
O53
A   27
C55
A   28
C56
A   29
C58
A   30
C60
A   31
C62
A   32
C64
M  END
