1UQS_GMM_A_1283
     RDKit          3D

200200  0  0  0  0  0  0  0  0999 V2000
   -9.6760   32.8650   15.0200 C   0  0  0  0  0  0  0  0  0  0  0  0
   -8.4410   32.5170   14.1200 C   0  0  0  0  0  0  0  0  0  0  0  0
   -8.7860   31.7430   12.8000 C   0  0  0  0  0  0  0  0  0  0  0  0
   -7.5840   30.9710   12.1520 C   0  0  0  0  0  0  0  0  0  0  0  0
   -7.9340   30.0300   10.9440 C   0  0  0  0  0  0  0  0  0  0  0  0
   -6.7710   29.0590   10.5360 C   0  0  0  0  0  0  0  0  0  0  0  0
   -7.0830   28.0800    9.3400 C   0  0  0  0  0  0  0  0  0  0  0  0
   -6.0700   26.8890    9.2360 C   0  0  0  0  0  0  0  0  0  0  0  0
   -5.4600   26.6120    7.8210 C   0  0  0  0  0  0  0  0  0  0  0  0
   -3.9500   26.1870    7.8670 C   0  0  0  0  0  0  0  0  0  0  0  0
   -3.0210   27.3580    8.3160 C   0  0  0  0  0  0  0  0  0  0  0  0
   -1.5870   26.9880    8.7840 C   0  0  0  0  0  0  0  0  0  0  0  0
   -1.0360   28.1150    9.7170 C   0  0  0  0  0  0  0  0  0  0  0  0
    0.2710   27.8140   10.5000 C   0  0  0  0  0  0  0  0  0  0  0  0
    0.6410   28.9430   11.4930 C   0  0  0  0  0  0  0  0  0  0  0  0
    1.8430   28.5760   12.4050 C   0  0  0  0  0  0  0  0  0  0  0  0
    2.1840   29.6040   13.5380 C   0  0  0  0  0  0  0  0  0  0  0  0
    3.2930   29.0950   14.5130 C   0  0  0  0  0  0  0  0  0  0  0  0
    3.7450   30.0840   15.3950 C   0  0  0  0  0  0  0  0  0  0  0  0
    4.4870   29.9290   16.5960 C   0  0  0  0  0  0  0  0  0  0  0  0
    4.9720   28.7750   17.2460 C   0  0  0  0  0  0  0  0  0  0  0  0
    4.3790   28.6650   18.6750 C   0  0  0  0  0  0  0  0  0  0  0  0
    4.9860   27.5940   19.6290 C   0  0  0  0  0  0  0  0  0  0  0  0
    4.0020   27.2490   20.7980 C   0  0  0  0  0  0  0  0  0  0  0  0
    4.5370   26.3200   21.9240 C   0  0  0  0  0  0  0  0  0  0  0  0
    5.6300   27.0260   22.7600 C   0  0  0  0  0  0  0  0  0  0  0  0
    6.0840   26.3110   24.0660 C   0  0  0  0  0  0  0  0  0  0  0  0
    7.0000   27.2610   24.8910 C   0  0  0  0  0  0  0  0  0  0  0  0
    7.2130   26.8630   26.2180 C   0  0  0  0  0  0  0  0  0  0  0  0
    7.5150   27.7310   27.2980 C   0  0  0  0  0  0  0  0  0  0  0  0
    7.6480   29.1300   27.2510 C   0  0  0  0  0  0  0  0  0  0  0  0
    8.5710   29.6190   28.4020 C   0  0  0  0  0  0  0  0  0  0  0  0
    8.8710   31.1530   28.4710 C   0  0  0  0  0  0  0  0  0  0  0  0
    9.6360   31.7580   27.2640 C   0  0  0  0  0  0  0  0  0  0  0  0
    8.7710   32.7600   26.4660 C   0  0  0  0  0  0  0  0  0  0  0  0
    9.5450   33.2270   25.2280 C   0  0  0  0  0  0  0  0  0  0  0  0
    8.6670   33.7070   24.0530 C   0  0  0  0  0  0  0  0  0  0  0  0
    9.4750   33.6840   22.7360 C   0  0  0  0  0  0  0  0  0  0  0  0
    8.6550   34.1760   21.5470 C   0  0  0  0  0  0  0  0  0  0  0  0
    7.6450   33.1610   21.0210 C   0  0  0  0  0  0  0  0  0  0  0  0
    6.5440   33.8310   20.1880 C   0  0  0  0  0  0  0  0  0  0  0  0
    5.7150   32.7740   19.4430 C   0  0  0  0  0  0  0  0  0  0  0  0
    4.3150   33.2230   18.9760 C   0  0  0  0  0  0  0  0  0  0  0  0
    3.2580   32.9630   20.0500 C   0  0  0  0  0  0  0  0  0  0  0  0
    1.8870   33.4410   19.5850 C   0  0  0  0  0  0  0  0  0  0  0  0
    0.9200   33.5100   20.7760 C   0  0  0  0  0  0  0  0  0  0  0  0
   -0.4010   34.1820   20.3880 C   0  0  0  0  0  0  0  0  0  0  0  0
   -1.5540   33.8560   21.3490 C   0  0  0  0  0  0  0  0  0  0  0  0
   -2.8280   33.8420   20.4980 C   0  0  0  0  0  0  0  0  0  0  0  0
   -4.0930   33.2990   21.2030 C   0  0  0  0  0  0  0  0  0  0  0  0
   -4.5180   34.3380   22.1300 O   0  0  0  0  0  0  0  0  0  0  0  0
   -5.2240   32.9490   20.1490 C   0  0  0  0  0  0  0  0  0  0  0  0
   -4.7100   32.0430   18.9560 C   0  0  0  0  0  0  0  0  0  0  0  0
   -5.7560   31.8480   17.8150 C   0  0  0  0  0  0  0  0  0  0  0  0
   -5.3160   30.9400   16.6400 C   0  0  0  0  0  0  0  0  0  0  0  0
   -4.4750   31.5960   15.5180 C   0  0  0  0  0  0  0  0  0  0  0  0
   -2.9680   31.7360   15.8340 C   0  0  0  0  0  0  0  0  0  0  0  0
   -2.2030   32.2570   14.6000 C   0  0  0  0  0  0  0  0  0  0  0  0
   -0.7110   32.5130   14.8390 C   0  0  0  0  0  0  0  0  0  0  0  0
   -0.0890   33.2740   13.6600 C   0  0  0  0  0  0  0  0  0  0  0  0
   -6.4960   32.2800   20.7510 C   0  0  0  0  0  0  0  0  0  0  0  0
   -6.8250   31.1900   20.2850 O   0  0  0  0  0  0  0  0  0  0  0  0
   -7.2990   32.8780   21.7280 O   0  0  0  0  0  0  0  0  0  0  0  0
   -8.5100   32.0640   22.0870 C   0  0  0  0  0  0  0  0  0  0  0  0
   -9.5530   32.6670   23.1070 C   0  0  0  0  0  0  0  0  0  0  0  0
   -9.3670   32.0840   24.4880 O   0  0  0  0  0  0  0  0  0  0  0  0
  -10.4070   32.4890   25.5200 C   0  0  0  0  0  0  0  0  0  0  0  0
  -10.1050   33.8140   26.0860 O   0  0  0  0  0  0  0  0  0  0  0  0
  -11.9160   32.3750   25.0380 C   0  0  0  0  0  0  0  0  0  0  0  0
  -12.3690   31.0000   25.0880 O   0  0  0  0  0  0  0  0  0  0  0  0
  -12.1130   32.8720   23.5710 C   0  0  0  0  0  0  0  0  0  0  0  0
  -12.1240   34.3190   23.4720 O   0  0  0  0  0  0  0  0  0  0  0  0
  -11.0020   32.2360   22.6800 C   0  0  0  0  0  0  0  0  0  0  0  0
  -11.0960   30.8390   22.9450 O   0  0  0  0  0  0  0  0  0  0  0  0
   -9.3917   32.7849   16.0796 H   0  0  0  0  0  0  0  0  0  0  0  0
  -10.0080   33.8917   14.8060 H   0  0  0  0  0  0  0  0  0  0  0  0
  -10.4951   32.1627   14.8060 H   0  0  0  0  0  0  0  0  0  0  0  0
   -7.9424   33.4580   13.8445 H   0  0  0  0  0  0  0  0  0  0  0  0
   -7.8038   31.8460   14.7148 H   0  0  0  0  0  0  0  0  0  0  0  0
   -9.5768   31.0134   13.0287 H   0  0  0  0  0  0  0  0  0  0  0  0
   -9.0934   32.5044   12.0680 H   0  0  0  0  0  0  0  0  0  0  0  0
   -6.8583   31.7174   11.7966 H   0  0  0  0  0  0  0  0  0  0  0  0
   -7.2013   30.3069   12.9410 H   0  0  0  0  0  0  0  0  0  0  0  0
   -8.8101   29.4245   11.2193 H   0  0  0  0  0  0  0  0  0  0  0  0
   -8.1252   30.6805   10.0778 H   0  0  0  0  0  0  0  0  0  0  0  0
   -5.9029   29.6723   10.2526 H   0  0  0  0  0  0  0  0  0  0  0  0
   -6.5974   28.4159   11.4114 H   0  0  0  0  0  0  0  0  0  0  0  0
   -8.0934   27.6682    9.4799 H   0  0  0  0  0  0  0  0  0  0  0  0
   -6.9988   28.6625    8.4107 H   0  0  0  0  0  0  0  0  0  0  0  0
   -5.2373   27.0975    9.9239 H   0  0  0  0  0  0  0  0  0  0  0  0
   -6.6525   25.9892    9.4830 H   0  0  0  0  0  0  0  0  0  0  0  0
   -6.0354   25.8044    7.3450 H   0  0  0  0  0  0  0  0  0  0  0  0
   -5.5161   27.5522    7.2528 H   0  0  0  0  0  0  0  0  0  0  0  0
   -3.8380   25.3540    8.5766 H   0  0  0  0  0  0  0  0  0  0  0  0
   -3.6518   25.8902    6.8506 H   0  0  0  0  0  0  0  0  0  0  0  0
   -2.9234   28.0478    7.4648 H   0  0  0  0  0  0  0  0  0  0  0  0
   -3.5091   27.7812    9.2063 H   0  0  0  0  0  0  0  0  0  0  0  0
   -1.6154   26.0367    9.3355 H   0  0  0  0  0  0  0  0  0  0  0  0
   -0.9306   26.8843    7.9074 H   0  0  0  0  0  0  0  0  0  0  0  0
   -0.8503   29.0007    9.0916 H   0  0  0  0  0  0  0  0  0  0  0  0
   -1.8066   28.2433   10.4914 H   0  0  0  0  0  0  0  0  0  0  0  0
    0.1373   26.8787   11.0633 H   0  0  0  0  0  0  0  0  0  0  0  0
    1.0878   27.7321    9.7678 H   0  0  0  0  0  0  0  0  0  0  0  0
    0.8988   29.8450   10.9186 H   0  0  0  0  0  0  0  0  0  0  0  0
   -0.2296   29.1076   12.1448 H   0  0  0  0  0  0  0  0  0  0  0  0
    1.6208   27.6102   12.8824 H   0  0  0  0  0  0  0  0  0  0  0  0
    2.7225   28.5595   11.7446 H   0  0  0  0  0  0  0  0  0  0  0  0
    2.5300   30.5379   13.0710 H   0  0  0  0  0  0  0  0  0  0  0  0
    1.2697   29.7544   14.1308 H   0  0  0  0  0  0  0  0  0  0  0  0
    2.8851   28.2604   15.1021 H   0  0  0  0  0  0  0  0  0  0  0  0
    4.1519   28.7851   13.8997 H   0  0  0  0  0  0  0  0  0  0  0  0
    3.4917   31.1188   15.1213 H   0  0  0  0  0  0  0  0  0  0  0  0
    4.7248   30.8729   17.1083 H   0  0  0  0  0  0  0  0  0  0  0  0
    4.6851   27.8855   16.6659 H   0  0  0  0  0  0  0  0  0  0  0  0
    6.0674   28.8431   17.3203 H   0  0  0  0  0  0  0  0  0  0  0  0
    4.5037   29.6449   19.1590 H   0  0  0  0  0  0  0  0  0  0  0  0
    3.3386   28.3430   18.5208 H   0  0  0  0  0  0  0  0  0  0  0  0
    5.1943   26.6794   19.0545 H   0  0  0  0  0  0  0  0  0  0  0  0
    5.9114   28.0006   20.0630 H   0  0  0  0  0  0  0  0  0  0  0  0
    3.6991   28.1969   21.2667 H   0  0  0  0  0  0  0  0  0  0  0  0
    3.1865   26.6821   20.3252 H   0  0  0  0  0  0  0  0  0  0  0  0
    3.7034   26.0414   22.5855 H   0  0  0  0  0  0  0  0  0  0  0  0
    4.9780   25.4265   21.4580 H   0  0  0  0  0  0  0  0  0  0  0  0
    6.5162   27.1428   22.1189 H   0  0  0  0  0  0  0  0  0  0  0  0
    5.1743   27.9706   23.0917 H   0  0  0  0  0  0  0  0  0  0  0  0
    5.1998   26.0449   24.6638 H   0  0  0  0  0  0  0  0  0  0  0  0
    6.6424   25.3991   23.8076 H   0  0  0  0  0  0  0  0  0  0  0  0
    7.9771   27.3162   24.3888 H   0  0  0  0  0  0  0  0  0  0  0  0
    6.4815   28.2300   24.9368 H   0  0  0  0  0  0  0  0  0  0  0  0
    7.1398   25.7881   26.4401 H   0  0  0  0  0  0  0  0  0  0  0  0
    7.6613   27.2579   28.2803 H   0  0  0  0  0  0  0  0  0  0  0  0
    8.0860   29.4213   26.2850 H   0  0  0  0  0  0  0  0  0  0  0  0
    6.6553   29.5896   27.3663 H   0  0  0  0  0  0  0  0  0  0  0  0
    8.0973   29.3308   29.3520 H   0  0  0  0  0  0  0  0  0  0  0  0
    9.5450   29.1467   28.2064 H   0  0  0  0  0  0  0  0  0  0  0  0
    7.9089   31.6793   28.5561 H   0  0  0  0  0  0  0  0  0  0  0  0
    9.5375   31.2833   29.3363 H   0  0  0  0  0  0  0  0  0  0  0  0
   10.5295   32.2801   27.6368 H   0  0  0  0  0  0  0  0  0  0  0  0
    9.9064   30.9331   26.5884 H   0  0  0  0  0  0  0  0  0  0  0  0
    7.8374   32.2703   26.1521 H   0  0  0  0  0  0  0  0  0  0  0  0
    8.5338   33.6271   27.0999 H   0  0  0  0  0  0  0  0  0  0  0  0
   10.1985   34.0594   25.5280 H   0  0  0  0  0  0  0  0  0  0  0  0
   10.0969   32.3491   24.8610 H   0  0  0  0  0  0  0  0  0  0  0  0
    7.7957   33.0426   23.9559 H   0  0  0  0  0  0  0  0  0  0  0  0
    8.3351   34.7368   24.2515 H   0  0  0  0  0  0  0  0  0  0  0  0
   10.3568   34.3316   22.8502 H   0  0  0  0  0  0  0  0  0  0  0  0
    9.7660   32.6420   22.5370 H   0  0  0  0  0  0  0  0  0  0  0  0
    8.1079   35.0791   21.8554 H   0  0  0  0  0  0  0  0  0  0  0  0
    9.3662   34.3667   20.7298 H   0  0  0  0  0  0  0  0  0  0  0  0
    8.1714   32.4283   20.3917 H   0  0  0  0  0  0  0  0  0  0  0  0
    7.1704   32.6722   21.8846 H   0  0  0  0  0  0  0  0  0  0  0  0
    5.8838   34.4047   20.8551 H   0  0  0  0  0  0  0  0  0  0  0  0
    7.0125   34.5000   19.4512 H   0  0  0  0  0  0  0  0  0  0  0  0
    6.2839   32.4646   18.5538 H   0  0  0  0  0  0  0  0  0  0  0  0
    5.5420   31.9654   20.1684 H   0  0  0  0  0  0  0  0  0  0  0  0
    4.3406   34.2997   18.7525 H   0  0  0  0  0  0  0  0  0  0  0  0
    4.0472   32.6443   18.0797 H   0  0  0  0  0  0  0  0  0  0  0  0
    3.2126   31.8838   20.2579 H   0  0  0  0  0  0  0  0  0  0  0  0
    3.5351   33.5160   20.9596 H   0  0  0  0  0  0  0  0  0  0  0  0
    1.9832   34.4406   19.1362 H   0  0  0  0  0  0  0  0  0  0  0  0
    1.4922   32.7331   18.8414 H   0  0  0  0  0  0  0  0  0  0  0  0
    0.7119   32.4885   21.1272 H   0  0  0  0  0  0  0  0  0  0  0  0
    1.3917   34.1082   21.5695 H   0  0  0  0  0  0  0  0  0  0  0  0
   -0.2496   35.2715   20.3812 H   0  0  0  0  0  0  0  0  0  0  0  0
   -0.6838   33.7965   19.3973 H   0  0  0  0  0  0  0  0  0  0  0  0
   -1.3957   32.8722   21.8149 H   0  0  0  0  0  0  0  0  0  0  0  0
   -1.6215   34.5960   22.1600 H   0  0  0  0  0  0  0  0  0  0  0  0
   -3.0342   34.8745   20.1794 H   0  0  0  0  0  0  0  0  0  0  0  0
   -2.6272   33.1529   19.6645 H   0  0  0  0  0  0  0  0  0  0  0  0
   -3.8848   32.3620   21.7404 H   0  0  0  0  0  0  0  0  0  0  0  0
   -4.3893   34.0234   23.0598 H   0  0  0  0  0  0  0  0  0  0  0  0
   -5.5061   33.9423   19.7698 H   0  0  0  0  0  0  0  0  0  0  0  0
   -3.8124   32.5120   18.5267 H   0  0  0  0  0  0  0  0  0  0  0  0
   -4.5059   31.0471   19.3761 H   0  0  0  0  0  0  0  0  0  0  0  0
   -6.6612   31.4086   18.2595 H   0  0  0  0  0  0  0  0  0  0  0  0
   -5.9086   32.8460   17.3782 H   0  0  0  0  0  0  0  0  0  0  0  0
   -4.7206   30.1171   17.0622 H   0  0  0  0  0  0  0  0  0  0  0  0
   -6.2526   30.6336   16.1512 H   0  0  0  0  0  0  0  0  0  0  0  0
   -4.5787   30.9835   14.6102 H   0  0  0  0  0  0  0  0  0  0  0  0
   -4.8624   32.6186   15.3986 H   0  0  0  0  0  0  0  0  0  0  0  0
   -2.8369   32.4432   16.6663 H   0  0  0  0  0  0  0  0  0  0  0  0
   -2.5691   30.7484   16.1089 H   0  0  0  0  0  0  0  0  0  0  0  0
   -2.2994   31.5122   13.7962 H   0  0  0  0  0  0  0  0  0  0  0  0
   -2.6498   33.2285   14.3419 H   0  0  0  0  0  0  0  0  0  0  0  0
   -0.5903   33.1087   15.7558 H   0  0  0  0  0  0  0  0  0  0  0  0
   -0.2004   31.5439   14.9399 H   0  0  0  0  0  0  0  0  0  0  0  0
    0.5637   34.0726   14.0424 H   0  0  0  0  0  0  0  0  0  0  0  0
    0.5029   32.5790   13.0463 H   0  0  0  0  0  0  0  0  0  0  0  0
   -0.8879   33.7158   13.0463 H   0  0  0  0  0  0  0  0  0  0  0  0
   -9.0522   31.8603   21.1518 H   0  0  0  0  0  0  0  0  0  0  0  0
   -8.0982   31.1893   22.6116 H   0  0  0  0  0  0  0  0  0  0  0  0
   -9.4081   33.7574   23.1109 H   0  0  0  0  0  0  0  0  0  0  0  0
  -10.3257   31.7378   26.3194 H   0  0  0  0  0  0  0  0  0  0  0  0
  -10.1171   33.7611   27.0745 H   0  0  0  0  0  0  0  0  0  0  0  0
  -12.4973   33.0108   25.7220 H   0  0  0  0  0  0  0  0  0  0  0  0
  -12.4621   30.7174   26.0322 H   0  0  0  0  0  0  0  0  0  0  0  0
  -13.1019   32.5488   23.2139 H   0  0  0  0  0  0  0  0  0  0  0  0
  -12.1270   34.7119   24.3807 H   0  0  0  0  0  0  0  0  0  0  0  0
  -11.1487   32.5394   21.6329 H   0  0  0  0  0  0  0  0  0  0  0  0
  -11.1061   30.6887   23.9235 H   0  0  0  0  0  0  0  0  0  0  0  0
  1  2  1  0
  2  3  1  0
  3  4  1  0
  4  5  1  0
  5  6  1  0
  6  7  1  0
  7  8  1  0
  8  9  1  0
  9 10  1  0
 10 11  1  0
 11 12  1  0
 12 13  1  0
 13 14  1  0
 14 15  1  0
 15 16  1  0
 16 17  1  0
 17 18  1  0
 18 19  1  0
 19 20  2  0
 20 21  1  0
 21 22  1  0
 22 23  1  0
 23 24  1  0
 24 25  1  0
 25 26  1  0
 26 27  1  0
 27 28  1  0
 28 29  1  0
 29 30  2  0
 30 31  1  0
 31 32  1  0
 32 33  1  0
 33 34  1  0
 34 35  1  0
 35 36  1  0
 36 37  1  0
 37 38  1  0
 38 39  1  0
 39 40  1  0
 40 41  1  0
 41 42  1  0
 42 43  1  0
 43 44  1  0
 44 45  1  0
 45 46  1  0
 46 47  1  0
 47 48  1  0
 48 49  1  0
 49 50  1  0
 50 51  1  0
 50 52  1  0
 52 53  1  0
 52 61  1  0
 53 54  1  0
 54 55  1  0
 55 56  1  0
 56 57  1  0
 57 58  1  0
 58 59  1  0
 59 60  1  0
 61 62  2  0
 61 63  1  0
 63 64  1  0
 64 65  1  0
 65 66  1  0
 65 73  1  0
 66 67  1  0
 67 68  1  0
 67 69  1  0
 69 70  1  0
 69 71  1  0
 71 72  1  0
 71 73  1  0
 73 74  1  0
  1 75  1  0
  1 76  1  0
  1 77  1  0
  2 78  1  0
  2 79  1  0
  3 80  1  0
  3 81  1  0
  4 82  1  0
  4 83  1  0
  5 84  1  0
  5 85  1  0
  6 86  1  0
  6 87  1  0
  7 88  1  0
  7 89  1  0
  8 90  1  0
  8 91  1  0
  9 92  1  0
  9 93  1  0
 10 94  1  0
 10 95  1  0
 11 96  1  0
 11 97  1  0
 12 98  1  0
 12 99  1  0
 13100  1  0
 13101  1  0
 14102  1  0
 14103  1  0
 15104  1  0
 15105  1  0
 16106  1  0
 16107  1  0
 17108  1  0
 17109  1  0
 18110  1  0
 18111  1  0
 19112  1  0
 20113  1  0
 21114  1  0
 21115  1  0
 22116  1  0
 22117  1  0
 23118  1  0
 23119  1  0
 24120  1  0
 24121  1  0
 25122  1  0
 25123  1  0
 26124  1  0
 26125  1  0
 27126  1  0
 27127  1  0
 28128  1  0
 28129  1  0
 29130  1  0
 30131  1  0
 31132  1  0
 31133  1  0
 32134  1  0
 32135  1  0
 33136  1  0
 33137  1  0
 34138  1  0
 34139  1  0
 35140  1  0
 35141  1  0
 36142  1  0
 36143  1  0
 37144  1  0
 37145  1  0
 38146  1  0
 38147  1  0
 39148  1  0
 39149  1  0
 40150  1  0
 40151  1  0
 41152  1  0
 41153  1  0
 42154  1  0
 42155  1  0
 43156  1  0
 43157  1  0
 44158  1  0
 44159  1  0
 45160  1  0
 45161  1  0
 46162  1  0
 46163  1  0
 47164  1  0
 47165  1  0
 48166  1  0
 48167  1  0
 49168  1  0
 49169  1  0
 50170  1  0
 51171  1  0
 52172  1  0
 53173  1  0
 53174  1  0
 54175  1  0
 54176  1  0
 55177  1  0
 55178  1  0
 56179  1  0
 56180  1  0
 57181  1  0
 57182  1  0
 58183  1  0
 58184  1  0
 59185  1  0
 59186  1  0
 60187  1  0
 60188  1  0
 60189  1  0
 64190  1  0
 64191  1  0
 65192  1  0
 67193  1  0
 68194  1  0
 69195  1  0
 70196  1  0
 71197  1  0
 72198  1  0
 73199  1  0
 74200  1  0
A    1
CAH
A    2
CAI
A    3
CAJ
A    4
CAK
A    5
CAL
A    6
CAM
A    7
CAN
A    8
CAO
A    9
CAP
A   10
CAQ
A   11
CAR
A   12
CAS
A   13
CAT
A   14
CAU
A   15
CAV
A   16
CAW
A   17
CAX
A   18
CAY
A   19
CAZ
A   20
CBA
A   21
CBB
A   22
CBC
A   23
CBD
A   24
CBE
A   25
CBF
A   26
CBG
A   27
CBH
A   28
CBI
A   29
CBJ
A   30
CBK
A   31
CBL
A   32
CBM
A   33
CBN
A   34
CBO
A   35
CBP
A   36
CBQ
A   37
CBR
A   38
CBS
A   39
CBT
A   40
CBU
A   41
CBV
A   42
CBW
A   43
CBX
A   44
CBY
A   45
CBZ
A   46
CCA
A   47
CCB
A   48
CCC
A   49
CCD
A   50
CCE
A   51
OCF
A   52
CCG
A   53
CCH
A   54
CCI
A   55
CCJ
A   56
CCK
A   57
CCL
A   58
CCM
A   59
CCN
A   60
CCO
A   61
CCQ
A   62
OCR
A   63
OCS
A   64
CCT
A   65
CCU
A   66
OCV
A   67
CCW
A   68
OCX
A   69
CCY
A   70
OCZ
A   71
CDA
A   72
ODB
A   73
CDC
A   74
ODD
M  END
