1UTT_CP8_A_1266
     RDKit          3D

 46 49  0  0  0  0  0  0  0  0999 V2000
  120.0250   37.5110   80.3020 C   0  0  0  0  0  0  0  0  0  0  0  0
  119.6350   36.7030   79.1170 C   0  0  0  0  0  0  0  0  0  0  0  0
  120.5530   38.7440   79.9670 N   0  0  0  0  0  0  0  0  0  0  0  0
  119.8420   36.9650   81.5940 C   0  0  0  0  0  0  0  0  0  0  0  0
  119.0800   35.4200   79.2710 C   0  0  0  0  0  0  0  0  0  0  0  0
  119.9280   37.4420   77.8680 C   0  0  0  0  0  0  0  0  0  0  0  0
  121.0080   38.7540   78.3900 S   0  0  0  0  0  0  0  0  0  0  0  0
  121.0470   39.6920   80.9670 C   0  0  0  0  0  0  0  0  0  0  0  0
  119.2800   35.6620   81.7290 C   0  0  0  0  0  0  0  0  0  0  0  0
  118.8950   34.8820   80.5830 C   0  0  0  0  0  0  0  0  0  0  0  0
  120.6250   40.0090   77.8130 O   0  0  0  0  0  0  0  0  0  0  0  0
  122.3760   38.3450   78.3490 O   0  0  0  0  0  0  0  0  0  0  0  0
  118.2820   33.5010   80.7450 C   0  0  0  0  0  0  0  0  0  0  0  0
  119.2570   32.3960   80.2780 C   0  0  0  0  0  0  0  0  0  0  0  0
  117.9630   33.2610   82.1120 O   0  0  0  0  0  0  0  0  0  0  0  0
  118.8740   31.0270   80.7130 N   0  0  0  0  0  0  0  0  0  0  0  0
  117.3400   32.0110   82.4280 C   0  0  0  0  0  0  0  0  0  0  0  0
  119.5210   29.8940   80.0020 C   0  0  0  0  0  0  0  0  0  0  0  0
  117.9660   30.7770   81.7390 C   0  0  0  0  0  0  0  0  0  0  0  0
  118.6200   29.1080   79.0530 C   0  0  0  0  0  0  0  0  0  0  0  0
  117.6500   29.6550   82.1070 O   0  0  0  0  0  0  0  0  0  0  0  0
  117.4080   29.6540   78.5350 C   0  0  0  0  0  0  0  0  0  0  0  0
  118.9880   27.7930   78.6660 C   0  0  0  0  0  0  0  0  0  0  0  0
  116.5880   28.8980   77.6580 C   0  0  0  0  0  0  0  0  0  0  0  0
  118.1720   27.0370   77.7890 C   0  0  0  0  0  0  0  0  0  0  0  0
  116.9710   27.5900   77.2850 C   0  0  0  0  0  0  0  0  0  0  0  0
  120.1306   37.5404   82.4860 H   0  0  0  0  0  0  0  0  0  0  0  0
  118.7897   34.8334   78.3869 H   0  0  0  0  0  0  0  0  0  0  0  0
  120.4287   36.7908   77.1364 H   0  0  0  0  0  0  0  0  0  0  0  0
  119.0191   37.8131   77.3718 H   0  0  0  0  0  0  0  0  0  0  0  0
  120.8433   39.3012   81.9749 H   0  0  0  0  0  0  0  0  0  0  0  0
  122.1309   39.8286   80.8388 H   0  0  0  0  0  0  0  0  0  0  0  0
  120.5380   40.6587   80.8388 H   0  0  0  0  0  0  0  0  0  0  0  0
  119.1369   35.2419   82.7355 H   0  0  0  0  0  0  0  0  0  0  0  0
  117.3729   33.4724   80.1264 H   0  0  0  0  0  0  0  0  0  0  0  0
  119.2959   32.4113   79.1788 H   0  0  0  0  0  0  0  0  0  0  0  0
  120.2309   32.6155   80.7399 H   0  0  0  0  0  0  0  0  0  0  0  0
  117.4038   31.8633   83.5162 H   0  0  0  0  0  0  0  0  0  0  0  0
  116.3069   32.0796   82.0566 H   0  0  0  0  0  0  0  0  0  0  0  0
  120.3596   30.2975   79.4155 H   0  0  0  0  0  0  0  0  0  0  0  0
  119.8256   29.1833   80.7844 H   0  0  0  0  0  0  0  0  0  0  0  0
  117.1058   30.6729   78.8188 H   0  0  0  0  0  0  0  0  0  0  0  0
  119.9200   27.3548   79.0525 H   0  0  0  0  0  0  0  0  0  0  0  0
  115.6544   29.3300   77.2685 H   0  0  0  0  0  0  0  0  0  0  0  0
  118.4722   26.0191   77.4995 H   0  0  0  0  0  0  0  0  0  0  0  0
  116.3369   27.0030   76.6043 H   0  0  0  0  0  0  0  0  0  0  0  0
  1  2  2  0
  1  3  1  0
  1  4  1  0
  2  5  1  0
  2  6  1  0
  3  7  1  0
  3  8  1  0
  4  9  2  0
  5 10  2  0
  6  7  1  0
  7 11  2  0
  7 12  2  0
  9 10  1  0
 10 13  1  0
 13 14  1  0
 13 15  1  0
 14 16  1  0
 15 17  1  0
 16 18  1  0
 16 19  1  0
 17 19  1  0
 18 20  1  0
 19 21  2  0
 20 22  2  0
 20 23  1  0
 22 24  1  0
 23 25  2  0
 24 26  2  0
 25 26  1  0
  4 27  1  0
  5 28  1  0
  6 29  1  0
  6 30  1  0
  8 31  1  0
  8 32  1  0
  8 33  1  0
  9 34  1  0
 13 35  1  0
 14 36  1  0
 14 37  1  0
 17 38  1  0
 17 39  1  0
 18 40  1  0
 18 41  1  0
 22 42  1  0
 23 43  1  0
 24 44  1  0
 25 45  1  0
 26 46  1  0
A    1
C1
A    2
C2
A    3
N3
A    4
C4
A    5
C5
A    6
C6
A    7
S7
A    8
C8
A    9
C9
A   10
C10
A   11
O11
A   12
O12
A   13
C13
A   14
C14
A   15
O15
A   16
N16
A   17
C17
A   18
C18
A   19
C19
A   20
C20
A   21
O21
A   22
C22
A   23
C23
A   24
C24
A   25
C25
A   26
C26
M  END
