1UTZ_PF3_A_1265
     RDKit          3D

 51 54  0  0  0  0  0  0  0  0999 V2000
   42.5820   53.4910   19.9380 S   0  0  0  0  0  0  0  0  0  0  0  0
   41.4810   54.6540   19.2170 C   0  0  0  0  0  0  0  0  0  0  0  0
   40.1980   54.2890   19.3660 C   0  0  0  0  0  0  0  0  0  0  0  0
   40.0440   53.0170   20.0830 C   0  0  0  0  0  0  0  0  0  0  0  0
   41.2300   52.4950   20.4380 C   0  0  0  0  0  0  0  0  0  0  0  0
   38.7370   52.4390   20.3830 C   0  0  0  0  0  0  0  0  0  0  0  0
   37.7910   52.1620   19.3670 C   0  0  0  0  0  0  0  0  0  0  0  0
   36.5240   51.6360   19.7060 C   0  0  0  0  0  0  0  0  0  0  0  0
   36.1660   51.3730   21.0580 C   0  0  0  0  0  0  0  0  0  0  0  0
   37.1280   51.6480   22.0560 C   0  0  0  0  0  0  0  0  0  0  0  0
   38.3890   52.1710   21.7290 C   0  0  0  0  0  0  0  0  0  0  0  0
   34.7990   50.8340   21.4270 C   0  0  0  0  0  0  0  0  0  0  0  0
   34.2900   50.9980   22.7380 C   0  0  0  0  0  0  0  0  0  0  0  0
   33.0140   50.5000   23.0590 C   0  0  0  0  0  0  0  0  0  0  0  0
   32.2270   49.8540   22.1570 N   0  0  0  0  0  0  0  0  0  0  0  0
   32.7210   49.6980   20.8960 C   0  0  0  0  0  0  0  0  0  0  0  0
   33.9890   50.1700   20.4950 C   0  0  0  0  0  0  0  0  0  0  0  0
   41.9130   55.9150   18.5690 C   0  0  0  0  0  0  0  0  0  0  0  0
   43.0770   56.2570   18.7590 O   0  0  0  0  0  0  0  0  0  0  0  0
   41.0010   56.6360   17.8630 N   0  0  0  0  0  0  0  0  0  0  0  0
   41.2460   57.9580   17.2620 C   0  0  0  0  0  0  0  0  0  0  0  0
   39.8250   58.4840   16.9140 C   0  0  0  0  0  0  0  0  0  0  0  0
   38.8120   58.3910   18.0910 C   0  0  0  0  0  0  0  0  0  0  0  0
   38.9940   59.0840   19.0880 O   0  0  0  0  0  0  0  0  0  0  0  0
   37.8640   57.6130   17.9960 O   0  0  0  0  0  0  0  0  0  0  0  0
   42.1620   58.0270   16.0130 C   0  0  0  0  0  0  0  0  0  0  0  0
   42.4630   59.3120   15.4420 C   0  0  0  0  0  0  0  0  0  0  0  0
   43.3000   59.4390   14.3080 C   0  0  0  0  0  0  0  0  0  0  0  0
   43.8570   58.2820   13.7140 C   0  0  0  0  0  0  0  0  0  0  0  0
   43.5730   57.0120   14.2550 C   0  0  0  0  0  0  0  0  0  0  0  0
   42.7380   56.8860   15.3900 C   0  0  0  0  0  0  0  0  0  0  0  0
   39.3504   54.8810   18.9902 H   0  0  0  0  0  0  0  0  0  0  0  0
   41.3402   51.5459   20.9831 H   0  0  0  0  0  0  0  0  0  0  0  0
   38.0421   52.3562   18.3138 H   0  0  0  0  0  0  0  0  0  0  0  0
   35.7981   51.4251   18.9069 H   0  0  0  0  0  0  0  0  0  0  0  0
   36.8839   51.4483   23.1098 H   0  0  0  0  0  0  0  0  0  0  0  0
   39.1161   52.3752   22.5288 H   0  0  0  0  0  0  0  0  0  0  0  0
   34.8900   51.5129   23.5027 H   0  0  0  0  0  0  0  0  0  0  0  0
   32.6367   50.6389   24.0829 H   0  0  0  0  0  0  0  0  0  0  0  0
   32.0992   49.1774   20.1528 H   0  0  0  0  0  0  0  0  0  0  0  0
   34.3379   50.0187   19.4628 H   0  0  0  0  0  0  0  0  0  0  0  0
   40.0648   56.2248   17.7389 H   0  0  0  0  0  0  0  0  0  0  0  0
   41.8166   58.5580   17.9862 H   0  0  0  0  0  0  0  0  0  0  0  0
   39.9103   59.5386   16.6131 H   0  0  0  0  0  0  0  0  0  0  0  0
   39.4367   57.8445   16.1076 H   0  0  0  0  0  0  0  0  0  0  0  0
   37.4313   57.2579   18.8126 H   0  0  0  0  0  0  0  0  0  0  0  0
   42.0330   60.2165   15.8969 H   0  0  0  0  0  0  0  0  0  0  0  0
   43.5167   60.4332   13.8901 H   0  0  0  0  0  0  0  0  0  0  0  0
   44.5094   58.3734   12.8331 H   0  0  0  0  0  0  0  0  0  0  0  0
   44.0037   56.1122   13.7914 H   0  0  0  0  0  0  0  0  0  0  0  0
   42.5303   55.8860   15.7985 H   0  0  0  0  0  0  0  0  0  0  0  0
  1  2  1  0
  1  5  1  0
  2  3  2  0
  2 18  1  0
  3  4  1  0
  4  5  2  0
  4  6  1  0
  6  7  2  0
  6 11  1  0
  7  8  1  0
  8  9  2  0
  9 10  1  0
  9 12  1  0
 10 11  2  0
 12 13  2  0
 12 17  1  0
 13 14  1  0
 14 15  2  0
 15 16  1  0
 16 17  2  0
 18 19  2  0
 18 20  1  0
 20 21  1  0
 21 22  1  0
 21 26  1  0
 22 23  1  0
 23 24  2  0
 23 25  1  0
 26 27  2  0
 26 31  1  0
 27 28  1  0
 28 29  2  0
 29 30  1  0
 30 31  2  0
  3 32  1  0
  5 33  1  0
  7 34  1  0
  8 35  1  0
 10 36  1  0
 11 37  1  0
 13 38  1  0
 14 39  1  0
 16 40  1  0
 17 41  1  0
 20 42  1  0
 21 43  1  0
 22 44  1  0
 22 45  1  0
 25 46  1  0
 27 47  1  0
 28 48  1  0
 29 49  1  0
 30 50  1  0
 31 51  1  0
A    1
S1
A    2
C1
A    3
C2
A    4
C3
A    5
C4
A    6
C5
A    7
C6
A    8
C7
A    9
C8
A   10
C9
A   11
C10
A   12
C11
A   13
C12
A   14
C13
A   15
N1
A   16
C14
A   17
C15
A   18
C16
A   19
O1
A   20
N2
A   21
C17
A   22
C18
A   23
C19
A   24
O2
A   25
O3
A   26
C20
A   27
C21
A   28
C22
A   29
C23
A   30
C24
A   31
C25
M  END
