1UU9_BI3_A_1370
     RDKit          3D

 49 53  0  0  0  0  0  0  0  0999 V2000
   22.6160   83.3560   28.2110 N   0  0  0  0  0  0  0  0  0  0  0  0
   23.4400   82.3390   27.5390 C   0  0  0  0  0  0  0  0  0  0  0  0
   22.5360   81.3210   26.8390 C   0  0  0  0  0  0  0  0  0  0  0  0
   23.3280   80.3940   25.9120 C   0  0  0  0  0  0  0  0  0  0  0  0
   24.1130   79.3600   26.6060 N   0  0  0  0  0  0  0  0  0  0  0  0
   25.3650   79.5310   27.0370 C   0  0  0  0  0  0  0  0  0  0  0  0
   23.7190   78.0900   26.7040 C   0  0  0  0  0  0  0  0  0  0  0  0
   22.5550   77.4040   26.3670 C   0  0  0  0  0  0  0  0  0  0  0  0
   22.4960   76.0240   26.5390 C   0  0  0  0  0  0  0  0  0  0  0  0
   23.5950   75.3400   27.0540 C   0  0  0  0  0  0  0  0  0  0  0  0
   24.7490   76.0370   27.4000 C   0  0  0  0  0  0  0  0  0  0  0  0
   24.8180   77.4170   27.2240 C   0  0  0  0  0  0  0  0  0  0  0  0
   25.8300   78.3430   27.4250 C   0  0  0  0  0  0  0  0  0  0  0  0
   27.1790   78.1790   27.7460 C   0  0  0  0  0  0  0  0  0  0  0  0
   27.9500   77.1160   27.2840 C   0  0  0  0  0  0  0  0  0  0  0  0
   27.5760   76.1550   26.6150 O   0  0  0  0  0  0  0  0  0  0  0  0
   29.1970   77.3600   27.6830 N   0  0  0  0  0  0  0  0  0  0  0  0
   29.3160   78.4950   28.3720 C   0  0  0  0  0  0  0  0  0  0  0  0
   30.3570   78.9720   28.8250 O   0  0  0  0  0  0  0  0  0  0  0  0
   28.0340   79.0350   28.4340 C   0  0  0  0  0  0  0  0  0  0  0  0
   27.7260   80.2170   29.1110 C   0  0  0  0  0  0  0  0  0  0  0  0
   26.5630   80.7200   29.6780 C   0  0  0  0  0  0  0  0  0  0  0  0
   25.3220   80.1590   29.9710 C   0  0  0  0  0  0  0  0  0  0  0  0
   24.3180   80.9390   30.5390 C   0  0  0  0  0  0  0  0  0  0  0  0
   24.5460   82.2840   30.8200 C   0  0  0  0  0  0  0  0  0  0  0  0
   25.7860   82.8490   30.5360 C   0  0  0  0  0  0  0  0  0  0  0  0
   26.7840   82.0610   29.9710 C   0  0  0  0  0  0  0  0  0  0  0  0
   28.0400   82.3060   29.5940 N   0  0  0  0  0  0  0  0  0  0  0  0
   28.6100   81.2130   29.0800 C   0  0  0  0  0  0  0  0  0  0  0  0
   22.7029   83.2487   29.2317 H   0  0  0  0  0  0  0  0  0  0  0  0
   22.9375   84.2950   27.9359 H   0  0  0  0  0  0  0  0  0  0  0  0
   24.0867   82.8262   26.7944 H   0  0  0  0  0  0  0  0  0  0  0  0
   24.0603   81.8218   28.2858 H   0  0  0  0  0  0  0  0  0  0  0  0
   22.0291   80.7120   27.6021 H   0  0  0  0  0  0  0  0  0  0  0  0
   21.8098   81.8754   26.2264 H   0  0  0  0  0  0  0  0  0  0  0  0
   22.6170   79.8917   25.2396 H   0  0  0  0  0  0  0  0  0  0  0  0
   24.0506   81.0290   25.3784 H   0  0  0  0  0  0  0  0  0  0  0  0
   25.9153   80.4830   27.0668 H   0  0  0  0  0  0  0  0  0  0  0  0
   21.6874   77.9494   25.9673 H   0  0  0  0  0  0  0  0  0  0  0  0
   21.5825   75.4740   26.2686 H   0  0  0  0  0  0  0  0  0  0  0  0
   23.5507   74.2490   27.1872 H   0  0  0  0  0  0  0  0  0  0  0  0
   25.6116   75.4949   27.8149 H   0  0  0  0  0  0  0  0  0  0  0  0
   29.9898   76.7346   27.4797 H   0  0  0  0  0  0  0  0  0  0  0  0
   25.1347   79.0972   29.7531 H   0  0  0  0  0  0  0  0  0  0  0  0
   23.3397   80.4906   30.7670 H   0  0  0  0  0  0  0  0  0  0  0  0
   23.7488   82.8977   31.2649 H   0  0  0  0  0  0  0  0  0  0  0  0
   25.9755   83.9099   30.7564 H   0  0  0  0  0  0  0  0  0  0  0  0
   28.5087   83.2184   29.6871 H   0  0  0  0  0  0  0  0  0  0  0  0
   29.6383   81.1464   28.6951 H   0  0  0  0  0  0  0  0  0  0  0  0
  1  2  1  0
  2  3  1  0
  3  4  1  0
  4  5  1  0
  5  6  1  0
  5  7  1  0
  6 13  2  0
  7  8  2  0
  7 12  1  0
  8  9  1  0
  9 10  2  0
 10 11  1  0
 11 12  2  0
 12 13  1  0
 13 14  1  0
 14 15  1  0
 14 20  2  0
 15 16  2  0
 15 17  1  0
 17 18  1  0
 18 19  2  0
 18 20  1  0
 20 21  1  0
 21 22  1  0
 21 29  2  0
 22 23  2  0
 22 27  1  0
 23 24  1  0
 24 25  2  0
 25 26  1  0
 26 27  2  0
 27 28  1  0
 28 29  1  0
  1 30  1  0
  1 31  1  0
  2 32  1  0
  2 33  1  0
  3 34  1  0
  3 35  1  0
  4 36  1  0
  4 37  1  0
  6 38  1  0
  8 39  1  0
  9 40  1  0
 10 41  1  0
 11 42  1  0
 17 43  1  0
 23 44  1  0
 24 45  1  0
 25 46  1  0
 26 47  1  0
 28 48  1  0
 29 49  1  0
A    1
NBC
A    2
CBB
A    3
CBA
A    4
CAY
A    5
NAH
A    6
CAW
A    7
CAE
A    8
CAF
A    9
CAA
A   10
CAB
A   11
CAC
A   12
CAD
A   13
CAG
A   14
CAI
A   15
CAT
A   16
OAZ
A   17
NAU
A   18
CAV
A   19
OAX
A   20
CAJ
A   21
CAK
A   22
CAM
A   23
CAP
A   24
CAQ
A   25
CAR
A   26
CAS
A   27
CAN
A   28
NAO
A   29
CAL
M  END
