1UUM_AFI_A_400
     RDKit          3D

 45 48  0  0  0  0  0  0  0  0999 V2000
   76.8350   49.3400  135.8670 O   0  0  0  0  0  0  0  0  0  0  0  0
   79.0410   44.5180  134.2140 O   0  0  0  0  0  0  0  0  0  0  0  0
   77.3390   48.2360  135.4910 C   0  0  0  0  0  0  0  0  0  0  0  0
   77.6340   47.0750  136.5080 C   0  0  0  0  0  0  0  0  0  0  0  0
   78.2070   45.8330  136.0220 C   0  0  0  0  0  0  0  0  0  0  0  0
   78.5360   45.6090  134.6190 C   0  0  0  0  0  0  0  0  0  0  0  0
   78.5910   46.5320  132.2320 C   0  0  0  0  0  0  0  0  0  0  0  0
   78.3400   47.5940  131.2880 C   0  0  0  0  0  0  0  0  0  0  0  0
   77.7790   48.8200  131.7200 C   0  0  0  0  0  0  0  0  0  0  0  0
   77.4520   49.0300  133.0860 C   0  0  0  0  0  0  0  0  0  0  0  0
   77.6860   47.9950  134.0640 C   0  0  0  0  0  0  0  0  0  0  0  0
   78.2710   46.7180  133.6200 C   0  0  0  0  0  0  0  0  0  0  0  0
   78.4780   44.7660  136.9390 O   0  0  0  0  0  0  0  0  0  0  0  0
   78.3150   48.4040  138.7930 C   0  0  0  0  0  0  0  0  0  0  0  0
   77.5070   49.0540  139.9470 C   0  0  0  0  0  0  0  0  0  0  0  0
   77.0460   47.9210  140.9040 C   0  0  0  0  0  0  0  0  0  0  0  0
   75.9130   47.1590  140.1580 C   0  0  0  0  0  0  0  0  0  0  0  0
   76.5030   46.4230  138.8970 C   0  0  0  0  0  0  0  0  0  0  0  0
   77.4820   47.3180  137.9920 C   0  0  0  0  0  0  0  0  0  0  0  0
   75.9750   49.8070  146.6490 Cl  0  0  0  0  0  0  0  0  0  0  0  0
   76.7530   48.4030  142.3230 C   0  0  0  0  0  0  0  0  0  0  0  0
   77.4820   47.8390  143.4470 C   0  0  0  0  0  0  0  0  0  0  0  0
   77.2550   48.2600  144.8060 C   0  0  0  0  0  0  0  0  0  0  0  0
   76.2600   49.2800  145.0110 C   0  0  0  0  0  0  0  0  0  0  0  0
   75.4870   49.8900  143.9230 C   0  0  0  0  0  0  0  0  0  0  0  0
   75.7590   49.4290  142.5890 C   0  0  0  0  0  0  0  0  0  0  0  0
   79.3530   43.8439  134.8685 H   0  0  0  0  0  0  0  0  0  0  0  0
   79.0266   45.5818  131.8895 H   0  0  0  0  0  0  0  0  0  0  0  0
   78.5862   47.4501  130.2256 H   0  0  0  0  0  0  0  0  0  0  0  0
   77.5940   49.6202  130.9882 H   0  0  0  0  0  0  0  0  0  0  0  0
   77.0167   49.9898  133.4012 H   0  0  0  0  0  0  0  0  0  0  0  0
   78.4365   44.9292  137.9146 H   0  0  0  0  0  0  0  0  0  0  0  0
   78.6257   49.1941  138.0936 H   0  0  0  0  0  0  0  0  0  0  0  0
   79.1788   47.8922  139.2422 H   0  0  0  0  0  0  0  0  0  0  0  0
   78.1419   49.7682  140.4918 H   0  0  0  0  0  0  0  0  0  0  0  0
   76.6371   49.5961  139.5478 H   0  0  0  0  0  0  0  0  0  0  0  0
   77.8514   47.2033  141.1190 H   0  0  0  0  0  0  0  0  0  0  0  0
   75.4639   46.4182  140.8359 H   0  0  0  0  0  0  0  0  0  0  0  0
   75.1464   47.8776  139.8325 H   0  0  0  0  0  0  0  0  0  0  0  0
   77.0666   45.5451  139.2457 H   0  0  0  0  0  0  0  0  0  0  0  0
   75.6445   46.1627  138.2604 H   0  0  0  0  0  0  0  0  0  0  0  0
   78.2354   47.0614  143.2526 H   0  0  0  0  0  0  0  0  0  0  0  0
   77.8148   47.8233  145.6462 H   0  0  0  0  0  0  0  0  0  0  0  0
   74.7325   50.6660  144.1197 H   0  0  0  0  0  0  0  0  0  0  0  0
   75.2001   49.8643  141.7475 H   0  0  0  0  0  0  0  0  0  0  0  0
  1  3  2  0
  2  6  1  0
  3  4  1  0
  3 11  1  0
  4  5  1  0
  4 19  2  0
  5  6  2  0
  5 13  1  0
  6 12  1  0
  7  8  1  0
  7 12  2  0
  8  9  2  0
  9 10  1  0
 10 11  2  0
 11 12  1  0
 14 15  1  0
 14 19  1  0
 15 16  1  0
 16 17  1  0
 16 21  1  0
 17 18  1  0
 18 19  1  0
 20 24  1  0
 21 22  2  0
 21 26  1  0
 22 23  1  0
 23 24  2  0
 24 25  1  0
 25 26  2  0
  2 27  1  0
  7 28  1  0
  8 29  1  0
  9 30  1  0
 10 31  1  0
 13 32  1  0
 14 33  1  0
 14 34  1  0
 15 35  1  0
 15 36  1  0
 16 37  1  0
 17 38  1  0
 17 39  1  0
 18 40  1  0
 18 41  1  0
 22 42  1  0
 23 43  1  0
 25 44  1  0
 26 45  1  0
A    1
O1
A    2
O2
A    3
C1
A    4
C2
A    5
C3
A    6
C4
A    7
C5
A    8
C6
A    9
C7
A   10
C8
A   11
C9
A   12
C10
A   13
O6
A   14
C11
A   15
C12
A   16
C13
A   17
C14
A   18
C15
A   19
C16
A   20
CL
A   21
C17
A   22
C18
A   23
C19
A   24
C20
A   25
C21
A   26
C22
M  END
