1UV6_CCE_C_1206
     RDKit          3D

 25 24  0  0  0  0  0  0  0  0999 V2000
  138.2390  125.0330   87.5690 N   0  0  0  0  0  0  0  0  0  0  0  0
  138.5130  124.8230   86.1350 C   0  0  0  0  0  0  0  0  0  0  0  0
  138.5250  123.3600   85.6930 C   0  0  0  0  0  0  0  0  0  0  0  0
  138.8370  123.2630   84.2910 O   0  0  0  0  0  0  0  0  0  0  0  0
  137.9650  122.5310   83.3580 C   0  0  0  0  0  0  0  0  0  0  0  0
  138.3260  122.4610   82.2050 O   0  0  0  0  0  0  0  0  0  0  0  0
  137.0350  124.2980   88.0220 C   0  0  0  0  0  0  0  0  0  0  0  0
  139.4300  124.6350   88.3690 C   0  0  0  0  0  0  0  0  0  0  0  0
  137.9670  126.4770   87.7550 C   0  0  0  0  0  0  0  0  0  0  0  0
  136.8360  121.9630   83.7780 N   0  0  0  0  0  0  0  0  0  0  0  0
  137.7380  125.3486   85.5578 H   0  0  0  0  0  0  0  0  0  0  0  0
  139.5265  125.2101   85.9532 H   0  0  0  0  0  0  0  0  0  0  0  0
  139.2833  122.8124   86.2720 H   0  0  0  0  0  0  0  0  0  0  0  0
  137.5298  122.9256   85.8685 H   0  0  0  0  0  0  0  0  0  0  0  0
  137.0077  124.2813   89.1215 H   0  0  0  0  0  0  0  0  0  0  0  0
  136.1337  124.8001   87.6404 H   0  0  0  0  0  0  0  0  0  0  0  0
  137.0697  123.2669   87.6404 H   0  0  0  0  0  0  0  0  0  0  0  0
  139.1948  124.7136   89.4407 H   0  0  0  0  0  0  0  0  0  0  0  0
  139.7029  123.5968   88.1287 H   0  0  0  0  0  0  0  0  0  0  0  0
  140.2722  125.3005   88.1287 H   0  0  0  0  0  0  0  0  0  0  0  0
  137.9238  126.7065   88.8299 H   0  0  0  0  0  0  0  0  0  0  0  0
  138.7702  127.0647   87.2866 H   0  0  0  0  0  0  0  0  0  0  0  0
  137.0050  126.7322   87.2866 H   0  0  0  0  0  0  0  0  0  0  0  0
  136.6507  121.8698   84.7869 H   0  0  0  0  0  0  0  0  0  0  0  0
  136.1481  121.6169   83.0939 H   0  0  0  0  0  0  0  0  0  0  0  0
  1  2  1  0
  1  7  1  0
  1  8  1  0
  1  9  1  0
  2  3  1  0
  3  4  1  0
  4  5  1  0
  5  6  2  0
  5 10  1  0
  2 11  1  0
  2 12  1  0
  3 13  1  0
  3 14  1  0
  7 15  1  0
  7 16  1  0
  7 17  1  0
  8 18  1  0
  8 19  1  0
  8 20  1  0
  9 21  1  0
  9 22  1  0
  9 23  1  0
 10 24  1  0
 10 25  1  0
M  CHG  1   1   1
A    1
N1
A    2
C2
A    3
C3
A    4
O4
A    5
C5
A    6
O7
A    7
C8
A    8
C9
A    9
C10
A   10
N6
M  END
