1UWT_GTL_A_1490
     RDKit          3D

 25 25  0  0  0  0  0  0  0  0999 V2000
  119.3410   38.7040   64.7170 C   0  0  0  0  0  0  0  0  0  0  0  0
  118.7030   38.8310   65.8720 N   0  0  0  0  0  0  0  0  0  0  0  0
  118.8190   37.5970   63.7760 C   0  0  0  0  0  0  0  0  0  0  0  0
  120.3920   39.5900   64.4340 N   0  0  0  0  0  0  0  0  0  0  0  0
  118.8930   40.0260   66.5570 O   0  0  0  0  0  0  0  0  0  0  0  0
  118.7250   36.3890   64.4950 O   0  0  0  0  0  0  0  0  0  0  0  0
  119.8420   37.4220   62.6450 C   0  0  0  0  0  0  0  0  0  0  0  0
  119.2140   36.7030   61.6040 O   0  0  0  0  0  0  0  0  0  0  0  0
  120.4200   38.7570   62.0970 C   0  0  0  0  0  0  0  0  0  0  0  0
  119.3120   39.5740   61.7840 O   0  0  0  0  0  0  0  0  0  0  0  0
  121.2460   39.3860   63.2530 C   0  0  0  0  0  0  0  0  0  0  0  0
  121.9620   40.7360   62.9390 C   0  0  0  0  0  0  0  0  0  0  0  0
  121.0770   41.8230   63.1270 O   0  0  0  0  0  0  0  0  0  0  0  0
  117.8313   37.8649   63.3726 H   0  0  0  0  0  0  0  0  0  0  0  0
  120.5672   40.3902   65.0585 H   0  0  0  0  0  0  0  0  0  0  0  0
  118.8943   40.0343   67.5470 H   0  0  0  0  0  0  0  0  0  0  0  0
  118.7399   36.5810   65.4661 H   0  0  0  0  0  0  0  0  0  0  0  0
  120.7059   36.8801   63.0572 H   0  0  0  0  0  0  0  0  0  0  0  0
  118.6147   36.0169   61.9916 H   0  0  0  0  0  0  0  0  0  0  0  0
  121.0552   38.6302   61.2079 H   0  0  0  0  0  0  0  0  0  0  0  0
  118.8865   39.8878   62.6210 H   0  0  0  0  0  0  0  0  0  0  0  0
  122.0462   38.6517   63.4279 H   0  0  0  0  0  0  0  0  0  0  0  0
  122.8255   40.8522   63.6105 H   0  0  0  0  0  0  0  0  0  0  0  0
  122.2947   40.7261   61.8906 H   0  0  0  0  0  0  0  0  0  0  0  0
  120.9488   41.9804   64.0960 H   0  0  0  0  0  0  0  0  0  0  0  0
  1  2  2  0
  1  3  1  0
  1  4  1  0
  2  5  1  0
  3  6  1  0
  3  7  1  0
  4 11  1  0
  7  8  1  0
  7  9  1  0
  9 10  1  0
  9 11  1  0
 11 12  1  0
 12 13  1  0
  3 14  1  0
  4 15  1  0
  5 16  1  0
  6 17  1  0
  7 18  1  0
  8 19  1  0
  9 20  1  0
 10 21  1  0
 11 22  1  0
 12 23  1  0
 12 24  1  0
 13 25  1  0
A    1
C1
A    2
N1
A    3
C2
A    4
N5
A    5
O7
A    6
O2
A    7
C3
A    8
O3
A    9
C4
A   10
O4
A   11
C5
A   12
C6
A   13
O6
M  END
