1E6S_GOX_M_921
     RDKit          3D

 25 25  0  0  0  0  0  0  0  0999 V2000
   46.8710  119.8910   52.8440 C   0  0  0  0  0  0  0  0  0  0  0  0
   46.1800  119.1010   52.0130 N   0  0  0  0  0  0  0  0  0  0  0  0
   47.7520  119.2200   53.9100 C   0  0  0  0  0  0  0  0  0  0  0  0
   46.7140  121.2240   52.6400 N   0  0  0  0  0  0  0  0  0  0  0  0
   45.5120  119.5680   50.9830 O   0  0  0  0  0  0  0  0  0  0  0  0
   47.1990  118.0540   54.5300 O   0  0  0  0  0  0  0  0  0  0  0  0
   48.2490  120.2590   54.8890 C   0  0  0  0  0  0  0  0  0  0  0  0
   49.3470  119.6490   55.5640 O   0  0  0  0  0  0  0  0  0  0  0  0
   48.6480  121.5070   54.0620 C   0  0  0  0  0  0  0  0  0  0  0  0
   49.2900  122.4630   54.9070 O   0  0  0  0  0  0  0  0  0  0  0  0
   47.3120  122.1730   53.5720 C   0  0  0  0  0  0  0  0  0  0  0  0
   47.4060  123.4560   52.7730 C   0  0  0  0  0  0  0  0  0  0  0  0
   48.1870  123.2780   51.5780 O   0  0  0  0  0  0  0  0  0  0  0  0
   48.6168  118.7956   53.3790 H   0  0  0  0  0  0  0  0  0  0  0  0
   46.1750  121.5635   51.8306 H   0  0  0  0  0  0  0  0  0  0  0  0
   44.7092  120.1292   51.1269 H   0  0  0  0  0  0  0  0  0  0  0  0
   47.2447  118.1505   55.5142 H   0  0  0  0  0  0  0  0  0  0  0  0
   47.5113  120.5859   55.6366 H   0  0  0  0  0  0  0  0  0  0  0  0
   49.2149  119.7224   56.5424 H   0  0  0  0  0  0  0  0  0  0  0  0
   49.3153  121.2154   53.2375 H   0  0  0  0  0  0  0  0  0  0  0  0
   49.1305  122.2255   55.8547 H   0  0  0  0  0  0  0  0  0  0  0  0
   46.7688  122.4189   54.4964 H   0  0  0  0  0  0  0  0  0  0  0  0
   46.3920  123.7773   52.4926 H   0  0  0  0  0  0  0  0  0  0  0  0
   47.8994  124.2155   53.3973 H   0  0  0  0  0  0  0  0  0  0  0  0
   49.1221  123.0649   51.8236 H   0  0  0  0  0  0  0  0  0  0  0  0
  1  2  2  0
  1  3  1  0
  1  4  1  0
  2  5  1  0
  3  6  1  0
  3  7  1  0
  4 11  1  0
  7  8  1  0
  7  9  1  0
  9 10  1  0
  9 11  1  0
 11 12  1  0
 12 13  1  0
  3 14  1  0
  4 15  1  0
  5 16  1  0
  6 17  1  0
  7 18  1  0
  8 19  1  0
  9 20  1  0
 10 21  1  0
 11 22  1  0
 12 23  1  0
 12 24  1  0
 13 25  1  0
A    1
C1
A    2
N1
A    3
C2
A    4
N5
A    5
O7
A    6
O2
A    7
C3
A    8
O3
A    9
C4
A   10
O4
A   11
C5
A   12
C6
A   13
O6
M  END
