1UYD_PU8_A_1224
     RDKit          3D

 52 54  0  0  0  0  0  0  0  0999 V2000
    4.4030   15.5280   26.5790 C   0  0  0  0  0  0  0  0  0  0  0  0
    5.1220   15.0840   25.4530 O   0  0  0  0  0  0  0  0  0  0  0  0
    5.0910   13.7860   24.8460 C   0  0  0  0  0  0  0  0  0  0  0  0
    3.9590   13.1780   24.2910 C   0  0  0  0  0  0  0  0  0  0  0  0
    6.3240   13.1530   24.7740 C   0  0  0  0  0  0  0  0  0  0  0  0
    7.4370   13.8000   25.3630 O   0  0  0  0  0  0  0  0  0  0  0  0
    7.9680   14.9820   24.7400 C   0  0  0  0  0  0  0  0  0  0  0  0
    6.4650   11.9280   24.1660 C   0  0  0  0  0  0  0  0  0  0  0  0
    7.7380   11.2760   24.1460 O   0  0  0  0  0  0  0  0  0  0  0  0
    8.1250   10.3750   23.0920 C   0  0  0  0  0  0  0  0  0  0  0  0
    5.3500   11.3260   23.6130 C   0  0  0  0  0  0  0  0  0  0  0  0
    4.1060   11.9220   23.6560 C   0  0  0  0  0  0  0  0  0  0  0  0
    2.9810   11.1340   22.9970 C   0  0  0  0  0  0  0  0  0  0  0  0
    1.7990   10.8980   23.8970 C   0  0  0  0  0  0  0  0  0  0  0  0
    0.5690   11.3430   23.6650 N   0  0  0  0  0  0  0  0  0  0  0  0
   -0.1860   10.9430   24.6660 C   0  0  0  0  0  0  0  0  0  0  0  0
   -1.5340   11.1210   24.9450 C   0  0  0  0  0  0  0  0  0  0  0  0
   -2.4390   11.8290   24.0330 N   0  0  0  0  0  0  0  0  0  0  0  0
    0.6250   10.2700   25.5670 C   0  0  0  0  0  0  0  0  0  0  0  0
    0.1180    9.7800   26.7170 N   0  0  0  0  0  0  0  0  0  0  0  0
   -1.1950    9.9850   26.9470 C   0  0  0  0  0  0  0  0  0  0  0  0
   -2.0040   10.6440   26.0890 N   0  0  0  0  0  0  0  0  0  0  0  0
    1.8540   10.2510   25.0560 N   0  0  0  0  0  0  0  0  0  0  0  0
    3.0530    9.6350   25.6380 C   0  0  0  0  0  0  0  0  0  0  0  0
    2.9130    8.1310   25.6360 C   0  0  0  0  0  0  0  0  0  0  0  0
    3.6440    7.2660   24.6120 C   0  0  0  0  0  0  0  0  0  0  0  0
    4.6650    7.8940   23.6780 C   0  0  0  0  0  0  0  0  0  0  0  0
    2.4190   14.0030   24.3670 Cl  0  0  0  0  0  0  0  0  0  0  0  0
    4.9215   15.2078   27.4948 H   0  0  0  0  0  0  0  0  0  0  0  0
    4.3348   16.6257   26.5610 H   0  0  0  0  0  0  0  0  0  0  0  0
    3.3910   15.0974   26.5610 H   0  0  0  0  0  0  0  0  0  0  0  0
    8.2876   15.6933   25.5158 H   0  0  0  0  0  0  0  0  0  0  0  0
    8.8306   14.7104   24.1138 H   0  0  0  0  0  0  0  0  0  0  0  0
    7.1921   15.4465   24.1138 H   0  0  0  0  0  0  0  0  0  0  0  0
    8.5232    9.4479   23.5300 H   0  0  0  0  0  0  0  0  0  0  0  0
    7.2485   10.1399   22.4703 H   0  0  0  0  0  0  0  0  0  0  0  0
    8.8990   10.8488   22.4703 H   0  0  0  0  0  0  0  0  0  0  0  0
    5.4573   10.3457   23.1257 H   0  0  0  0  0  0  0  0  0  0  0  0
    2.6382   11.6916   22.1129 H   0  0  0  0  0  0  0  0  0  0  0  0
    3.3898   10.1461   22.7382 H   0  0  0  0  0  0  0  0  0  0  0  0
   -3.1935   12.4192   24.4115 H   0  0  0  0  0  0  0  0  0  0  0  0
   -2.3199   11.7359   23.0142 H   0  0  0  0  0  0  0  0  0  0  0  0
   -1.6289    9.5961   27.8800 H   0  0  0  0  0  0  0  0  0  0  0  0
    3.9339    9.9198   25.0439 H   0  0  0  0  0  0  0  0  0  0  0  0
    3.1728    9.9854   26.6738 H   0  0  0  0  0  0  0  0  0  0  0  0
    3.2440    7.7866   26.6269 H   0  0  0  0  0  0  0  0  0  0  0  0
    1.8585    7.9907   25.3563 H   0  0  0  0  0  0  0  0  0  0  0  0
    4.1699    6.4818   25.1763 H   0  0  0  0  0  0  0  0  0  0  0  0
    2.8411    6.9468   23.9313 H   0  0  0  0  0  0  0  0  0  0  0  0
    5.4543    8.3795   24.2707 H   0  0  0  0  0  0  0  0  0  0  0  0
    5.1104    7.1135   23.0436 H   0  0  0  0  0  0  0  0  0  0  0  0
    4.1693    8.6436   23.0436 H   0  0  0  0  0  0  0  0  0  0  0  0
  1  2  1  0
  2  3  1  0
  3  4  2  0
  3  5  1  0
  4 12  1  0
  4 28  1  0
  5  6  1  0
  5  8  2  0
  6  7  1  0
  8  9  1  0
  8 11  1  0
  9 10  1  0
 11 12  2  0
 12 13  1  0
 13 14  1  0
 14 15  2  0
 14 23  1  0
 15 16  1  0
 16 17  2  0
 16 19  1  0
 17 18  1  0
 17 22  1  0
 19 20  2  0
 19 23  1  0
 20 21  1  0
 21 22  2  0
 23 24  1  0
 24 25  1  0
 25 26  1  0
 26 27  1  0
  1 29  1  0
  1 30  1  0
  1 31  1  0
  7 32  1  0
  7 33  1  0
  7 34  1  0
 10 35  1  0
 10 36  1  0
 10 37  1  0
 11 38  1  0
 13 39  1  0
 13 40  1  0
 18 41  1  0
 18 42  1  0
 21 43  1  0
 24 44  1  0
 24 45  1  0
 25 46  1  0
 25 47  1  0
 26 48  1  0
 26 49  1  0
 27 50  1  0
 27 51  1  0
 27 52  1  0
A    1
C19
A    2
O3
A    3
C5
A    4
C6
A    5
C4
A    6
O1
A    7
C7
A    8
C3
A    9
O2
A   10
C8
A   11
C2
A   12
C1
A   13
C9
A   14
C10
A   15
N1
A   16
C11
A   17
C13
A   18
N5
A   19
C12
A   20
N4
A   21
C14
A   22
N3
A   23
N2
A   24
C15
A   25
C16
A   26
C17
A   27
C18
A   28
CL
M  END
