1UYR_D1L_A_3219
     RDKit          3D

 33 34  0  0  0  0  0  0  0  0999 V2000
   27.3850   42.3230   36.5940 O   0  0  0  0  0  0  0  0  0  0  0  0
   27.9630   43.3730   36.8770 C   0  0  0  0  0  0  0  0  0  0  0  0
   27.4910   44.4510   36.5190 O   0  0  0  0  0  0  0  0  0  0  0  0
   29.2600   43.3440   37.6870 C   0  0  0  0  0  0  0  0  0  0  0  0
   30.4410   43.6900   36.7770 C   0  0  0  0  0  0  0  0  0  0  0  0
   29.1520   44.3360   38.7200 O   0  0  0  0  0  0  0  0  0  0  0  0
   28.9660   43.8390   39.9750 C   0  0  0  0  0  0  0  0  0  0  0  0
   29.3310   44.6300   41.0590 C   0  0  0  0  0  0  0  0  0  0  0  0
   29.0900   44.2010   42.3620 C   0  0  0  0  0  0  0  0  0  0  0  0
   28.3640   42.6030   40.2010 C   0  0  0  0  0  0  0  0  0  0  0  0
   28.1260   42.1690   41.5030 C   0  0  0  0  0  0  0  0  0  0  0  0
   28.4820   42.9690   42.5850 C   0  0  0  0  0  0  0  0  0  0  0  0
   28.1180   42.5920   43.8420 O   0  0  0  0  0  0  0  0  0  0  0  0
   29.0670   42.0050   44.6260 C   0  0  0  0  0  0  0  0  0  0  0  0
   30.1840   41.3580   44.1050 C   0  0  0  0  0  0  0  0  0  0  0  0
   31.0970   40.7310   44.9510 C   0  0  0  0  0  0  0  0  0  0  0  0
   30.8930   40.7500   46.3270 C   0  0  0  0  0  0  0  0  0  0  0  0
   31.9710   39.9190   47.3950 Cl  0  0  0  0  0  0  0  0  0  0  0  0
   29.7840   41.4030   46.8550 C   0  0  0  0  0  0  0  0  0  0  0  0
   28.8770   42.0270   46.0060 C   0  0  0  0  0  0  0  0  0  0  0  0
   27.4850   42.8010   46.6790 Cl  0  0  0  0  0  0  0  0  0  0  0  0
   27.0577   41.7284   37.3147 H   0  0  0  0  0  0  0  0  0  0  0  0
   29.4218   42.3455   38.1191 H   0  0  0  0  0  0  0  0  0  0  0  0
   31.3157   43.9463   37.3929 H   0  0  0  0  0  0  0  0  0  0  0  0
   30.6806   42.8243   36.1421 H   0  0  0  0  0  0  0  0  0  0  0  0
   30.1755   44.5481   36.1421 H   0  0  0  0  0  0  0  0  0  0  0  0
   29.8142   45.6029   40.8859 H   0  0  0  0  0  0  0  0  0  0  0  0
   29.3796   44.8347   43.2132 H   0  0  0  0  0  0  0  0  0  0  0  0
   28.0761   41.9687   39.3496 H   0  0  0  0  0  0  0  0  0  0  0  0
   27.6549   41.1903   41.6768 H   0  0  0  0  0  0  0  0  0  0  0  0
   30.3473   41.3415   43.0173 H   0  0  0  0  0  0  0  0  0  0  0  0
   31.9773   40.2220   44.5315 H   0  0  0  0  0  0  0  0  0  0  0  0
   29.6248   41.4256   47.9432 H   0  0  0  0  0  0  0  0  0  0  0  0
  1  2  1  0
  2  3  2  0
  2  4  1  0
  4  5  1  0
  4  6  1  0
  6  7  1  0
  7  8  2  0
  7 10  1  0
  8  9  1  0
  9 12  2  0
 10 11  2  0
 11 12  1  0
 12 13  1  0
 13 14  1  0
 14 15  2  0
 14 20  1  0
 15 16  1  0
 16 17  2  0
 17 18  1  0
 17 19  1  0
 19 20  2  0
 20 21  1  0
  1 22  1  0
  4 23  1  0
  5 24  1  0
  5 25  1  0
  5 26  1  0
  8 27  1  0
  9 28  1  0
 10 29  1  0
 11 30  1  0
 15 31  1  0
 16 32  1  0
 19 33  1  0
A    1
O1A
A    2
C1
A    3
O1B
A    4
C2
A    5
C2A
A    6
O2
A    7
C3
A    8
C4
A    9
C5
A   10
C6
A   11
C7
A   12
C8
A   13
O8
A   14
C9
A   15
C10
A   16
C11
A   17
C12
A   18
CL12
A   19
C13
A   20
C14
A   21
CL14
M  END
