1UZ1_IFL_A_1446
     RDKit          3D

 22 22  0  0  0  0  0  0  0  0999 V2000
   -1.5610   10.6260    6.7960 O   0  0  0  0  0  0  0  0  0  0  0  0
   -1.1240   10.5480    8.1480 C   0  0  0  0  0  0  0  0  0  0  0  0
   -0.4190   11.8890    8.4310 C   0  0  0  0  0  0  0  0  0  0  0  0
    0.8280   12.0360    7.7460 O   0  0  0  0  0  0  0  0  0  0  0  0
   -0.1070   12.0550    9.9230 C   0  0  0  0  0  0  0  0  0  0  0  0
   -0.6710   11.2010   10.8100 N   0  0  0  0  0  0  0  0  0  0  0  0
   -1.5830   10.0950   10.5180 C   0  0  0  0  0  0  0  0  0  0  0  0
   -2.2760   10.3720    9.1700 C   0  0  0  0  0  0  0  0  0  0  0  0
   -3.2460    9.2490    8.8270 C   0  0  0  0  0  0  0  0  0  0  0  0
   -2.5440    8.0100    8.9160 O   0  0  0  0  0  0  0  0  0  0  0  0
    0.6250   12.9670   10.2500 O   0  0  0  0  0  0  0  0  0  0  0  0
   -2.5353   10.7999    6.7736 H   0  0  0  0  0  0  0  0  0  0  0  0
   -0.4787    9.6649    8.2646 H   0  0  0  0  0  0  0  0  0  0  0  0
   -1.1305   12.6479    8.0734 H   0  0  0  0  0  0  0  0  0  0  0  0
    1.5596   12.1222    8.4073 H   0  0  0  0  0  0  0  0  0  0  0  0
   -0.4310   11.3465   11.8010 H   0  0  0  0  0  0  0  0  0  0  0  0
   -1.0167    9.1540   10.4571 H   0  0  0  0  0  0  0  0  0  0  0  0
   -2.3349   10.0073   11.3161 H   0  0  0  0  0  0  0  0  0  0  0  0
   -2.9019   11.2765    9.1809 H   0  0  0  0  0  0  0  0  0  0  0  0
   -4.0860    9.2528    9.5372 H   0  0  0  0  0  0  0  0  0  0  0  0
   -3.6437    9.3879    7.8109 H   0  0  0  0  0  0  0  0  0  0  0  0
   -2.4103    7.7741    9.8681 H   0  0  0  0  0  0  0  0  0  0  0  0
  1  2  1  0
  2  3  1  0
  2  8  1  0
  3  4  1  0
  3  5  1  0
  5  6  1  0
  5 11  2  0
  6  7  1  0
  7  8  1  0
  8  9  1  0
  9 10  1  0
  1 12  1  0
  2 13  1  0
  3 14  1  0
  4 15  1  0
  6 16  1  0
  7 17  1  0
  7 18  1  0
  8 19  1  0
  9 20  1  0
  9 21  1  0
 10 22  1  0
A    1
O4
A    2
C4
A    3
C3
A    4
O3
A    5
C2
A    6
N
A    7
C7
A    8
C5
A    9
C6
A   10
O6
A   11
O2
M  END
