1JT1_MCO_A_700
     RDKit          3D

 29 29  0  0  0  0  0  0  0  0999 V2000
    5.3330   -5.8560   21.0830 O   0  0  0  0  0  0  0  0  0  0  0  0
    5.5950   -6.0160   19.8710 C   0  0  0  0  0  0  0  0  0  0  0  0
    4.7630   -6.2200   18.9810 O   0  0  0  0  0  0  0  0  0  0  0  0
    7.0410   -6.1420   19.4860 C   0  0  0  0  0  0  0  0  0  0  0  0
    7.2810   -7.4370   18.7230 C   0  0  0  0  0  0  0  0  0  0  0  0
    8.5890   -7.1950   18.0110 C   0  0  0  0  0  0  0  0  0  0  0  0
    8.4920   -5.7250   17.6040 C   0  0  0  0  0  0  0  0  0  0  0  0
    7.8740   -5.0940   18.7700 N   0  0  0  0  0  0  0  0  0  0  0  0
    7.8930   -3.7300   18.9410 C   0  0  0  0  0  0  0  0  0  0  0  0
    6.9850   -3.1660   19.5260 O   0  0  0  0  0  0  0  0  0  0  0  0
    9.0070   -2.9050   18.1980 C   0  0  0  0  0  0  0  0  0  0  0  0
    8.6750   -2.6310   16.7600 C   0  0  0  0  0  0  0  0  0  0  0  0
    9.4530   -1.6280   18.9340 C   0  0  0  0  0  0  0  0  0  0  0  0
   11.1410   -1.0070   18.4700 S   0  0  0  0  0  0  0  0  0  0  0  0
    3.8297   -6.4488   19.2189 H   0  0  0  0  0  0  0  0  0  0  0  0
    7.4100   -6.0319   20.5164 H   0  0  0  0  0  0  0  0  0  0  0  0
    7.3619   -8.2897   19.4131 H   0  0  0  0  0  0  0  0  0  0  0  0
    6.4599   -7.6845   18.0341 H   0  0  0  0  0  0  0  0  0  0  0  0
    9.4426   -7.3634   18.6841 H   0  0  0  0  0  0  0  0  0  0  0  0
    8.7500   -7.8711   17.1584 H   0  0  0  0  0  0  0  0  0  0  0  0
    9.4891   -5.3031   17.4097 H   0  0  0  0  0  0  0  0  0  0  0  0
    7.9198   -5.5714   16.6772 H   0  0  0  0  0  0  0  0  0  0  0  0
    9.8821   -3.5714   18.2084 H   0  0  0  0  0  0  0  0  0  0  0  0
    7.8276   -1.9317   16.7062 H   0  0  0  0  0  0  0  0  0  0  0  0
    9.5487   -2.1876   16.2600 H   0  0  0  0  0  0  0  0  0  0  0  0
    8.4053   -3.5730   16.2600 H   0  0  0  0  0  0  0  0  0  0  0  0
    8.7243   -0.8342   18.7132 H   0  0  0  0  0  0  0  0  0  0  0  0
    9.5029   -1.8887   20.0015 H   0  0  0  0  0  0  0  0  0  0  0  0
   11.8588   -0.7429   19.6066 H   0  0  0  0  0  0  0  0  0  0  0  0
  1  2  2  0
  2  3  1  0
  2  4  1  0
  4  5  1  0
  4  8  1  0
  5  6  1  0
  6  7  1  0
  7  8  1  0
  8  9  1  0
  9 10  2  0
  9 11  1  0
 11 12  1  0
 11 13  1  0
 13 14  1  0
  3 15  1  0
  4 16  1  0
  5 17  1  0
  5 18  1  0
  6 19  1  0
  6 20  1  0
  7 21  1  0
  7 22  1  0
 11 23  1  0
 12 24  1  0
 12 25  1  0
 12 26  1  0
 13 27  1  0
 13 28  1  0
 14 29  1  0
A    1
O2
A    2
C9
A    3
O3
A    4
C8
A    5
C7
A    6
C6
A    7
C5
A    8
N
A    9
C4
A   10
O1
A   11
C2
A   12
C3
A   13
C1
A   14
S
M  END
