1CK6_SHA_A_900
     RDKit          3D

 18 18  0  0  0  0  0  0  0  0999 V2000
   12.0730   21.8900   31.1140 C   0  0  0  0  0  0  0  0  0  0  0  0
   11.0020   22.8220   31.2010 C   0  0  0  0  0  0  0  0  0  0  0  0
    9.7020   22.4720   30.8680 C   0  0  0  0  0  0  0  0  0  0  0  0
    9.4110   21.1590   30.4210 C   0  0  0  0  0  0  0  0  0  0  0  0
   10.4310   20.2100   30.3210 C   0  0  0  0  0  0  0  0  0  0  0  0
   11.7560   20.5560   30.6650 C   0  0  0  0  0  0  0  0  0  0  0  0
   12.7330   19.6040   30.5930 O   0  0  0  0  0  0  0  0  0  0  0  0
   13.4430   22.3780   31.4940 C   0  0  0  0  0  0  0  0  0  0  0  0
   14.3960   21.5660   31.6900 O   0  0  0  0  0  0  0  0  0  0  0  0
   13.7020   23.6680   31.6290 N   0  0  0  0  0  0  0  0  0  0  0  0
   14.9860   24.0650   31.9900 O   0  0  0  0  0  0  0  0  0  0  0  0
   11.2103   23.8471   31.5413 H   0  0  0  0  0  0  0  0  0  0  0  0
    8.8951   23.2150   30.9510 H   0  0  0  0  0  0  0  0  0  0  0  0
    8.3797   20.8867   30.1522 H   0  0  0  0  0  0  0  0  0  0  0  0
   10.2017   19.1917   29.9738 H   0  0  0  0  0  0  0  0  0  0  0  0
   13.1194   19.2275   31.4231 H   0  0  0  0  0  0  0  0  0  0  0  0
   12.9640   24.3686   31.4693 H   0  0  0  0  0  0  0  0  0  0  0  0
   15.0592   24.0876   32.9770 H   0  0  0  0  0  0  0  0  0  0  0  0
  1  2  2  0
  1  6  1  0
  1  8  1  0
  2  3  1  0
  3  4  2  0
  4  5  1  0
  5  6  2  0
  6  7  1  0
  8  9  2  0
  8 10  1  0
 10 11  1  0
  2 12  1  0
  3 13  1  0
  4 14  1  0
  5 15  1  0
  7 16  1  0
 10 17  1  0
 11 18  1  0
A    1
C1
A    2
C2
A    3
C3
A    4
C4
A    5
C5
A    6
C6
A    7
O6
A    8
C7
A    9
O7
A   10
N8
A   11
O9
M  END
