1E9H_INR_A_1298
     RDKit          3D

 34 37  0  0  0  0  0  0  0  0999 V2000
    5.4790   42.2880   49.5910 C   0  0  0  0  0  0  0  0  0  0  0  0
    4.4740   42.6430   50.5070 C   0  0  0  0  0  0  0  0  0  0  0  0
    5.2510   41.3070   48.5890 C   0  0  0  0  0  0  0  0  0  0  0  0
    6.5960   42.9910   49.8150 N   0  0  0  0  0  0  0  0  0  0  0  0
    3.1850   42.0410   50.4880 C   0  0  0  0  0  0  0  0  0  0  0  0
    5.1390   43.6880   51.3530 C   0  0  0  0  0  0  0  0  0  0  0  0
    2.9390   41.0520   49.4890 C   0  0  0  0  0  0  0  0  0  0  0  0
    3.9620   40.6880   48.5490 C   0  0  0  0  0  0  0  0  0  0  0  0
    4.6080   44.2600   52.2820 O   0  0  0  0  0  0  0  0  0  0  0  0
    6.5140   43.8280   50.8300 C   0  0  0  0  0  0  0  0  0  0  0  0
    7.5750   44.6090   51.1860 C   0  0  0  0  0  0  0  0  0  0  0  0
    8.8950   44.5920   50.5140 C   0  0  0  0  0  0  0  0  0  0  0  0
    7.7760   45.6320   52.3030 C   0  0  0  0  0  0  0  0  0  0  0  0
    9.1670   43.8860   49.5430 O   0  0  0  0  0  0  0  0  0  0  0  0
    9.6940   45.4290   51.1040 N   0  0  0  0  0  0  0  0  0  0  0  0
    9.1110   46.0470   52.1340 C   0  0  0  0  0  0  0  0  0  0  0  0
    6.9910   46.1870   53.3550 C   0  0  0  0  0  0  0  0  0  0  0  0
    7.5910   47.1560   54.2230 C   0  0  0  0  0  0  0  0  0  0  0  0
    8.9410   47.5580   54.0400 C   0  0  0  0  0  0  0  0  0  0  0  0
    6.5850   47.8190   55.5250 S   0  0  0  0  0  0  0  0  0  0  0  0
    9.7160   47.0060   52.9840 C   0  0  0  0  0  0  0  0  0  0  0  0
    7.4830   48.7510   56.2540 O   0  0  0  0  0  0  0  0  0  0  0  0
    6.1900   46.7450   56.4090 O   0  0  0  0  0  0  0  0  0  0  0  0
    5.5630   48.6270   54.8910 O   0  0  0  0  0  0  0  0  0  0  0  0
    6.0372   41.0333   47.8700 H   0  0  0  0  0  0  0  0  0  0  0  0
    7.4464   42.8868   49.2433 H   0  0  0  0  0  0  0  0  0  0  0  0
    2.4094   42.3263   51.2140 H   0  0  0  0  0  0  0  0  0  0  0  0
    1.9549   40.5631   49.4384 H   0  0  0  0  0  0  0  0  0  0  0  0
    3.7514   39.9225   47.7876 H   0  0  0  0  0  0  0  0  0  0  0  0
   10.6669   45.5969   50.8106 H   0  0  0  0  0  0  0  0  0  0  0  0
    5.9451   45.8775   53.4977 H   0  0  0  0  0  0  0  0  0  0  0  0
    9.3885   48.2995   54.7182 H   0  0  0  0  0  0  0  0  0  0  0  0
   10.7602   47.3158   52.8303 H   0  0  0  0  0  0  0  0  0  0  0  0
    7.3647   48.6282   57.2292 H   0  0  0  0  0  0  0  0  0  0  0  0
  1  2  1  0
  1  3  2  0
  1  4  1  0
  2  5  2  0
  2  6  1  0
  3  8  1  0
  4 10  1  0
  5  7  1  0
  6  9  2  0
  6 10  1  0
  7  8  2  0
 10 11  2  0
 11 12  1  0
 11 13  1  0
 12 14  2  0
 12 15  1  0
 13 16  2  0
 13 17  1  0
 15 16  1  0
 16 21  1  0
 17 18  2  0
 18 19  1  0
 18 20  1  0
 19 21  2  0
 20 22  1  0
 20 23  2  0
 20 24  2  0
  3 25  1  0
  4 26  1  0
  5 27  1  0
  7 28  1  0
  8 29  1  0
 15 30  1  0
 17 31  1  0
 19 32  1  0
 21 33  1  0
 22 34  1  0
A    1
C1
A    2
C2
A    3
C6
A    4
N7
A    5
C3
A    6
C8
A    7
C4
A    8
C5
A    9
O10
A   10
C9
A   11
C11
A   12
C12
A   13
C15
A   14
O13
A   15
N14
A   16
C16
A   17
C20
A   18
C19
A   19
C18
A   20
S21
A   21
C17
A   22
O24
A   23
O23
A   24
O22
M  END
