1V1J_FA3_A_201
     RDKit          3D

 22 22  0  0  0  0  0  0  0  0999 V2000
   29.3690   51.4460   57.9320 C   0  0  0  0  0  0  0  0  0  0  0  0
   27.7450   50.3240   61.4390 F   0  0  0  0  0  0  0  0  0  0  0  0
   28.5440   50.1920   57.8800 C   0  0  0  0  0  0  0  0  0  0  0  0
   29.2350   49.2520   57.0620 O   0  0  0  0  0  0  0  0  0  0  0  0
   28.4350   49.6720   59.2920 C   0  0  0  0  0  0  0  0  0  0  0  0
   27.4760   48.6360   59.3540 O   0  0  0  0  0  0  0  0  0  0  0  0
   28.1230   50.7020   60.2090 C   0  0  0  0  0  0  0  0  0  0  0  0
   28.1960   52.0540   59.9400 C   0  0  0  0  0  0  0  0  0  0  0  0
   29.4380   53.6990   58.8660 C   0  0  0  0  0  0  0  0  0  0  0  0
   30.7350   53.7170   58.5840 O   0  0  0  0  0  0  0  0  0  0  0  0
   27.5280   52.9540   57.8730 O   0  0  0  0  0  0  0  0  0  0  0  0
   28.8810   54.7930   59.2600 O   0  0  0  0  0  0  0  0  0  0  0  0
   28.5950   52.5100   58.6870 C   0  0  0  0  0  0  0  0  0  0  0  0
   30.3183   51.2427   58.4491 H   0  0  0  0  0  0  0  0  0  0  0  0
   29.5840   51.7943   56.9110 H   0  0  0  0  0  0  0  0  0  0  0  0
   27.5402   50.3688   57.4663 H   0  0  0  0  0  0  0  0  0  0  0  0
   29.7124   48.6025   57.6368 H   0  0  0  0  0  0  0  0  0  0  0  0
   29.4166   49.2684   59.5810 H   0  0  0  0  0  0  0  0  0  0  0  0
   27.2799   48.4241   60.3010 H   0  0  0  0  0  0  0  0  0  0  0  0
   27.9358   52.7793   60.7250 H   0  0  0  0  0  0  0  0  0  0  0  0
   31.4008   53.7262   59.3166 H   0  0  0  0  0  0  0  0  0  0  0  0
   26.7827   53.2641   58.4461 H   0  0  0  0  0  0  0  0  0  0  0  0
  1  3  1  0
  1 13  1  0
  2  7  1  0
  3  4  1  0
  3  5  1  0
  5  6  1  0
  5  7  1  0
  7  8  2  0
  8 13  1  0
  9 10  1  0
  9 12  2  0
  9 13  1  0
 11 13  1  0
  1 14  1  0
  1 15  1  0
  3 16  1  0
  4 17  1  0
  5 18  1  0
  6 19  1  0
  8 20  1  0
 10 21  1  0
 11 22  1  0
A    1
C2
A    2
F1
A    3
C3
A    4
O3
A    5
C4
A    6
O4
A    7
C5
A    8
C6
A    9
C
A   10
O1
A   11
O30
A   12
O2
A   13
C1
M  END
