1V3V_5OP_A_1360
     RDKit          3D

 26 25  0  0  0  0  0  0  0  0999 V2000
  -21.0100   65.6310   -2.9200 C   0  0  0  0  0  0  0  0  0  0  0  0
  -19.6750   65.4140   -3.5840 C   0  0  0  0  0  0  0  0  0  0  0  0
  -18.5530   65.0300   -2.9420 C   0  0  0  0  0  0  0  0  0  0  0  0
  -17.2780   64.8410   -3.6770 C   0  0  0  0  0  0  0  0  0  0  0  0
  -16.0340   64.4130   -2.8930 C   0  0  0  0  0  0  0  0  0  0  0  0
  -16.2240   63.0660   -2.1880 C   0  0  0  0  0  0  0  0  0  0  0  0
  -14.9690   62.6620   -1.4030 C   0  0  0  0  0  0  0  0  0  0  0  0
  -15.1210   61.3210   -0.6830 C   0  0  0  0  0  0  0  0  0  0  0  0
  -13.8580   60.9360    0.0920 C   0  0  0  0  0  0  0  0  0  0  0  0
  -17.2400   65.0310   -4.8500 O   0  0  0  0  0  0  0  0  0  0  0  0
  -20.8838   65.6105   -1.8275 H   0  0  0  0  0  0  0  0  0  0  0  0
  -21.4163   66.6070   -3.2239 H   0  0  0  0  0  0  0  0  0  0  0  0
  -21.7045   64.8340   -3.2239 H   0  0  0  0  0  0  0  0  0  0  0  0
  -19.8499   64.6495   -4.3553 H   0  0  0  0  0  0  0  0  0  0  0  0
  -19.4114   66.4481   -3.8508 H   0  0  0  0  0  0  0  0  0  0  0  0
  -18.3592   65.7892   -2.1700 H   0  0  0  0  0  0  0  0  0  0  0  0
  -18.7983   64.0081   -2.6170 H   0  0  0  0  0  0  0  0  0  0  0  0
  -15.1087   65.0056   -2.8418 H   0  0  0  0  0  0  0  0  0  0  0  0
  -17.1437   62.4647   -2.2382 H   0  0  0  0  0  0  0  0  0  0  0  0
  -14.1248   62.5896   -2.1045 H   0  0  0  0  0  0  0  0  0  0  0  0
  -14.7994   63.4308   -0.6348 H   0  0  0  0  0  0  0  0  0  0  0  0
  -15.9623   61.3906    0.0223 H   0  0  0  0  0  0  0  0  0  0  0  0
  -15.3003   60.5469   -1.4437 H   0  0  0  0  0  0  0  0  0  0  0  0
  -14.0577   60.9969    1.1720 H   0  0  0  0  0  0  0  0  0  0  0  0
  -13.5663   59.9081   -0.1696 H   0  0  0  0  0  0  0  0  0  0  0  0
  -13.0426   61.6264   -0.1696 H   0  0  0  0  0  0  0  0  0  0  0  0
  1  2  1  0
  2  3  1  0
  3  4  1  0
  4  5  1  0
  4 10  2  0
  5  6  2  0
  6  7  1  0
  7  8  1  0
  8  9  1  0
  1 11  1  0
  1 12  1  0
  1 13  1  0
  2 14  1  0
  2 15  1  0
  3 16  1  0
  3 17  1  0
  5 18  1  0
  6 19  1  0
  7 20  1  0
  7 21  1  0
  8 22  1  0
  8 23  1  0
  9 24  1  0
  9 25  1  0
  9 26  1  0
A    1
C3
A    2
C4
A    3
C5
A    4
C6
A    5
C7
A    6
C8
A    7
C9
A    8
C13
A    9
C14
A   10
O4
M  END
