1V3X_D76_A_700
     RDKit          3D

 59 63  0  0  0  0  0  0  0  0999 V2000
    9.7770    0.3270   16.8850 C   0  0  0  0  0  0  0  0  0  0  0  0
    8.8880    1.4080   17.3350 N   0  0  0  0  0  0  0  0  0  0  0  0
    8.1500    1.0110   18.5780 C   0  0  0  0  0  0  0  0  0  0  0  0
    9.5380    2.7670   17.3910 C   0  0  0  0  0  0  0  0  0  0  0  0
    8.5460    3.9030   17.7650 C   0  0  0  0  0  0  0  0  0  0  0  0
    7.5950    3.5130   18.8950 C   0  0  0  0  0  0  0  0  0  0  0  0
    7.4390    2.1940   19.2350 C   0  0  0  0  0  0  0  0  0  0  0  0
    6.8460    4.3850   19.6390 N   0  0  0  0  0  0  0  0  0  0  0  0
    6.1340    3.6760   20.5460 C   0  0  0  0  0  0  0  0  0  0  0  0
    6.3410    1.9780   20.5220 S   0  0  0  0  0  0  0  0  0  0  0  0
    5.1500    4.2030   21.5870 C   0  0  0  0  0  0  0  0  0  0  0  0
    4.6270    3.3610   22.3410 O   0  0  0  0  0  0  0  0  0  0  0  0
    4.8500    5.5250   21.6730 N   0  0  0  0  0  0  0  0  0  0  0  0
    4.0740    6.0250   22.8560 C   0  0  0  0  0  0  0  0  0  0  0  0
    5.0210    6.8520   23.7360 C   0  0  0  0  0  0  0  0  0  0  0  0
    5.5400    6.5710   20.8060 C   0  0  0  0  0  0  0  0  0  0  0  0
    4.5900    7.5120   19.9910 C   0  0  0  0  0  0  0  0  0  0  0  0
    4.9300    8.6030   19.5210 O   0  0  0  0  0  0  0  0  0  0  0  0
    3.3390    7.1600   19.7830 N   0  0  0  0  0  0  0  0  0  0  0  0
    6.4650    7.4040   21.7340 C   0  0  0  0  0  0  0  0  0  0  0  0
    5.6690    7.8790   22.8930 N   0  0  0  0  0  0  0  0  0  0  0  0
    6.1310    9.3630   23.5960 S   0  0  0  0  0  0  0  0  0  0  0  0
    5.3340    9.6380   24.9390 O   0  0  0  0  0  0  0  0  0  0  0  0
    6.0510   10.4380   22.4280 O   0  0  0  0  0  0  0  0  0  0  0  0
    7.8130    9.0440   24.0090 C   0  0  0  0  0  0  0  0  0  0  0  0
    8.8150    9.4950   23.1520 C   0  0  0  0  0  0  0  0  0  0  0  0
   10.1500    9.2170   23.4840 C   0  0  0  0  0  0  0  0  0  0  0  0
   10.4690    8.4910   24.6490 C   0  0  0  0  0  0  0  0  0  0  0  0
   11.7970    8.2070   24.9810 C   0  0  0  0  0  0  0  0  0  0  0  0
    9.4070    7.9940   25.5200 C   0  0  0  0  0  0  0  0  0  0  0  0
    8.0820    8.2960   25.1740 C   0  0  0  0  0  0  0  0  0  0  0  0
    9.7420    7.2870   26.6790 C   0  0  0  0  0  0  0  0  0  0  0  0
   11.0830    7.0300   26.9910 C   0  0  0  0  0  0  0  0  0  0  0  0
   12.1070    7.4830   26.1370 C   0  0  0  0  0  0  0  0  0  0  0  0
   13.8160    7.1700   26.4730 Cl  0  0  0  0  0  0  0  0  0  0  0  0
   10.2004   -0.1878   17.7601 H   0  0  0  0  0  0  0  0  0  0  0  0
    9.2042   -0.3905   16.2791 H   0  0  0  0  0  0  0  0  0  0  0  0
   10.5916    0.7505   16.2791 H   0  0  0  0  0  0  0  0  0  0  0  0
    7.4008    0.2493   18.3162 H   0  0  0  0  0  0  0  0  0  0  0  0
    8.8866    0.6209   19.2959 H   0  0  0  0  0  0  0  0  0  0  0  0
   10.3398    2.7407   18.1436 H   0  0  0  0  0  0  0  0  0  0  0  0
    9.9242    2.9873   16.3848 H   0  0  0  0  0  0  0  0  0  0  0  0
    9.1240    4.7839   18.0809 H   0  0  0  0  0  0  0  0  0  0  0  0
    7.9337    4.1129   16.8756 H   0  0  0  0  0  0  0  0  0  0  0  0
    3.2387    6.6540   22.5145 H   0  0  0  0  0  0  0  0  0  0  0  0
    3.6660    5.1786   23.4280 H   0  0  0  0  0  0  0  0  0  0  0  0
    4.4497    7.3387   24.5402 H   0  0  0  0  0  0  0  0  0  0  0  0
    5.7830    6.1989   24.1864 H   0  0  0  0  0  0  0  0  0  0  0  0
    6.0979    6.0285   20.0286 H   0  0  0  0  0  0  0  0  0  0  0  0
    2.7138    6.9841   20.5824 H   0  0  0  0  0  0  0  0  0  0  0  0
    2.9852    7.0604   18.8208 H   0  0  0  0  0  0  0  0  0  0  0  0
    7.2968    6.7771   22.0877 H   0  0  0  0  0  0  0  0  0  0  0  0
    6.8756    8.2628   21.1827 H   0  0  0  0  0  0  0  0  0  0  0  0
    8.5659   10.0547   22.2384 H   0  0  0  0  0  0  0  0  0  0  0  0
   10.9578    9.5704   22.8263 H   0  0  0  0  0  0  0  0  0  0  0  0
   12.6079    8.5571   24.3253 H   0  0  0  0  0  0  0  0  0  0  0  0
    7.2539    7.9501   25.8101 H   0  0  0  0  0  0  0  0  0  0  0  0
    8.9469    6.9303   27.3503 H   0  0  0  0  0  0  0  0  0  0  0  0
   11.3369    6.4731   27.9050 H   0  0  0  0  0  0  0  0  0  0  0  0
  1  2  1  0
  2  3  1  0
  2  4  1  0
  3  7  1  0
  4  5  1  0
  5  6  1  0
  6  7  2  0
  6  8  1  0
  7 10  1  0
  8  9  2  0
  9 10  1  0
  9 11  1  0
 11 12  2  0
 11 13  1  0
 13 14  1  0
 13 16  1  0
 14 15  1  0
 15 21  1  0
 16 17  1  0
 16 20  1  0
 17 18  2  0
 17 19  1  0
 20 21  1  0
 21 22  1  0
 22 23  2  0
 22 24  2  0
 22 25  1  0
 25 26  2  0
 25 31  1  0
 26 27  1  0
 27 28  2  0
 28 29  1  0
 28 30  1  0
 29 34  2  0
 30 31  2  0
 30 32  1  0
 32 33  2  0
 33 34  1  0
 34 35  1  0
  1 36  1  0
  1 37  1  0
  1 38  1  0
  3 39  1  0
  3 40  1  0
  4 41  1  0
  4 42  1  0
  5 43  1  0
  5 44  1  0
 14 45  1  0
 14 46  1  0
 15 47  1  0
 15 48  1  0
 16 49  1  0
 19 50  1  0
 19 51  1  0
 20 52  1  0
 20 53  1  0
 26 54  1  0
 27 55  1  0
 29 56  1  0
 31 57  1  0
 32 58  1  0
 33 59  1  0
A    1
CZ7
A    2
NZ2
A    3
CZ3
A    4
CZ4
A    5
CZ5
A    6
CZ6
A    7
CZ2
A    8
NZ1
A    9
CZ1
A   10
SZ1
A   11
CC1
A   12
OC1
A   13
NP2
A   14
CP3
A   15
CP4
A   16
CP2
A   17
CC2
A   18
OC2
A   19
NC2
A   20
CP1
A   21
NP1
A   22
S1
A   23
O1
A   24
O2
A   25
CN1
A   26
CN2
A   27
CN3
A   28
CN4
A   29
CN5
A   30
CN9
A   31
C10
A   32
CN8
A   33
CN7
A   34
CN6
A   35
CL1
M  END
