1V41_AZG_E_290
     RDKit          3D

 15 16  0  0  0  0  0  0  0  0999 V2000
   53.2130   47.2580   27.1640 C   0  0  0  0  0  0  0  0  0  0  0  0
   54.3140   46.6660   27.6860 N   0  0  0  0  0  0  0  0  0  0  0  0
   55.4170   46.9960   27.0110 C   0  0  0  0  0  0  0  0  0  0  0  0
   56.5870   46.5030   27.3780 N   0  0  0  0  0  0  0  0  0  0  0  0
   55.4500   47.8230   25.9230 N   0  0  0  0  0  0  0  0  0  0  0  0
   54.3400   48.4560   25.3500 C   0  0  0  0  0  0  0  0  0  0  0  0
   54.4920   49.1930   24.3490 O   0  0  0  0  0  0  0  0  0  0  0  0
   53.1260   48.1130   26.0580 C   0  0  0  0  0  0  0  0  0  0  0  0
   51.7870   48.5190   25.8340 N   0  0  0  0  0  0  0  0  0  0  0  0
   51.0800   47.9060   26.7860 N   0  0  0  0  0  0  0  0  0  0  0  0
   51.8950   47.1160   27.6310 N   0  0  0  0  0  0  0  0  0  0  0  0
   56.8147   46.4071   28.3779 H   0  0  0  0  0  0  0  0  0  0  0  0
   57.2712   46.2147   26.6641 H   0  0  0  0  0  0  0  0  0  0  0  0
   54.6905   50.1555   24.4685 H   0  0  0  0  0  0  0  0  0  0  0  0
   51.4363   49.1487   25.0983 H   0  0  0  0  0  0  0  0  0  0  0  0
  1  2  2  0
  1  8  1  0
  1 11  1  0
  2  3  1  0
  3  4  1  0
  3  5  2  0
  5  6  1  0
  6  7  1  0
  6  8  2  0
  8  9  1  0
  9 10  1  0
 10 11  2  0
  4 12  1  0
  4 13  1  0
  7 14  1  0
  9 15  1  0
A    1
C4
A    2
N3
A    3
C2
A    4
N2
A    5
N1
A    6
C6
A    7
O6
A    8
C5
A    9
N7
A   10
N8
A   11
N9
M  END
