1V4S_MRK_A_501
     RDKit          3D

 35 37  0  0  0  0  0  0  0  0999 V2000
   36.3550   19.0670   60.8670 S   0  0  0  0  0  0  0  0  0  0  0  0
   35.7380   19.4150   59.2920 C   0  0  0  0  0  0  0  0  0  0  0  0
   36.3890   18.6550   58.3640 C   0  0  0  0  0  0  0  0  0  0  0  0
   37.3530   17.8140   58.8620 N   0  0  0  0  0  0  0  0  0  0  0  0
   37.4460   17.9280   60.1940 C   0  0  0  0  0  0  0  0  0  0  0  0
   38.3390   17.1720   60.8990 N   0  0  0  0  0  0  0  0  0  0  0  0
   38.6150   17.2040   62.3110 C   0  0  0  0  0  0  0  0  0  0  0  0
   38.0210   17.9870   63.0650 O   0  0  0  0  0  0  0  0  0  0  0  0
   40.4410   16.3620   64.1070 C   0  0  0  0  0  0  0  0  0  0  0  0
   39.6630   16.2270   62.8870 C   0  0  0  0  0  0  0  0  0  0  0  0
   39.8660   15.0370   62.0990 C   0  0  0  0  0  0  0  0  0  0  0  0
   40.7850   14.0430   62.4920 C   0  0  0  0  0  0  0  0  0  0  0  0
   41.5420   14.1920   63.6880 C   0  0  0  0  0  0  0  0  0  0  0  0
   42.4410   13.2470   64.0960 F   0  0  0  0  0  0  0  0  0  0  0  0
   41.3620   15.3510   64.4840 C   0  0  0  0  0  0  0  0  0  0  0  0
   40.9350   12.6300   61.4450 S   0  0  0  0  0  0  0  0  0  0  0  0
   42.7210   10.8290   62.4010 N   0  0  0  0  0  0  0  0  0  0  0  0
   42.5260   11.8870   61.5220 C   0  0  0  0  0  0  0  0  0  0  0  0
   43.5690   12.3250   60.7380 N   0  0  0  0  0  0  0  0  0  0  0  0
   44.5500   11.4410   61.1650 C   0  0  0  0  0  0  0  0  0  0  0  0
   44.0570   10.5650   62.1370 C   0  0  0  0  0  0  0  0  0  0  0  0
   41.7820   10.1760   63.3410 C   0  0  0  0  0  0  0  0  0  0  0  0
   40.3410   17.4110   64.9280 N   0  0  0  0  0  0  0  0  0  0  0  0
   34.9407   20.1397   59.0703 H   0  0  0  0  0  0  0  0  0  0  0  0
   36.1571   18.7124   57.2903 H   0  0  0  0  0  0  0  0  0  0  0  0
   38.8844   16.4923   60.3499 H   0  0  0  0  0  0  0  0  0  0  0  0
   39.2913   14.9017   61.1709 H   0  0  0  0  0  0  0  0  0  0  0  0
   41.9458   15.4684   65.4089 H   0  0  0  0  0  0  0  0  0  0  0  0
   45.5830   11.4308   60.7872 H   0  0  0  0  0  0  0  0  0  0  0  0
   44.6472    9.7754   62.6250 H   0  0  0  0  0  0  0  0  0  0  0  0
   42.0901   10.3902   64.3750 H   0  0  0  0  0  0  0  0  0  0  0  0
   40.7663   10.5637   63.1732 H   0  0  0  0  0  0  0  0  0  0  0  0
   41.7919    9.0889   63.1732 H   0  0  0  0  0  0  0  0  0  0  0  0
   40.3545   17.2697   65.9482 H   0  0  0  0  0  0  0  0  0  0  0  0
   40.2504   18.3612   64.5409 H   0  0  0  0  0  0  0  0  0  0  0  0
  1  2  1  0
  1  5  1  0
  2  3  2  0
  3  4  1  0
  4  5  2  0
  5  6  1  0
  6  7  1  0
  7  8  2  0
  7 10  1  0
  9 10  2  0
  9 15  1  0
  9 23  1  0
 10 11  1  0
 11 12  2  0
 12 13  1  0
 12 16  1  0
 13 14  1  0
 13 15  2  0
 16 18  1  0
 17 18  1  0
 17 21  1  0
 17 22  1  0
 18 19  2  0
 19 20  1  0
 20 21  2  0
  2 24  1  0
  3 25  1  0
  6 26  1  0
 11 27  1  0
 15 28  1  0
 20 29  1  0
 21 30  1  0
 22 31  1  0
 22 32  1  0
 22 33  1  0
 23 34  1  0
 23 35  1  0
A    1
S1
A    2
C2
A    3
C3
A    4
N4
A    5
C5
A    6
N6
A    7
C7
A    8
O8
A    9
C9
A   10
C10
A   11
C11
A   12
C12
A   13
C13
A   14
F14
A   15
C15
A   16
S16
A   17
N17
A   18
C18
A   19
N19
A   20
C20
A   21
C21
A   22
C22
A   23
N23
M  END
