1FIQ_MTE_C_1333
     RDKit          3D

 38 40  0  0  0  0  0  0  0  0999 V2000
   20.7850   18.7080  100.8620 N   0  0  0  0  0  0  0  0  0  0  0  0
   20.1890   20.0020  100.9250 C   0  0  0  0  0  0  0  0  0  0  0  0
   19.6460   20.4840   99.8180 N   0  0  0  0  0  0  0  0  0  0  0  0
   20.2130   20.6730  102.1180 N   0  0  0  0  0  0  0  0  0  0  0  0
   20.7830   20.1630  103.3000 C   0  0  0  0  0  0  0  0  0  0  0  0
   20.8090   20.7890  104.3960 O   0  0  0  0  0  0  0  0  0  0  0  0
   22.0590   18.0600  104.5060 N   0  0  0  0  0  0  0  0  0  0  0  0
   23.1430   16.9790  104.1420 C   0  0  0  0  0  0  0  0  0  0  0  0
   22.5400   15.9930  102.8970 C   0  0  0  0  0  0  0  0  0  0  0  0
   21.9540   16.7300  101.7630 N   0  0  0  0  0  0  0  0  0  0  0  0
   21.4160   18.8050  103.3290 C   0  0  0  0  0  0  0  0  0  0  0  0
   21.3860   18.0180  101.8640 C   0  0  0  0  0  0  0  0  0  0  0  0
   23.5870   16.2260  105.3120 C   0  0  0  0  0  0  0  0  0  0  0  0
   24.7210   16.9440  106.1680 S   0  0  0  0  0  0  0  0  0  0  0  0
   22.9140   14.9040  105.5870 C   0  0  0  0  0  0  0  0  0  0  0  0
   23.4370   14.0430  106.9630 S   0  0  0  0  0  0  0  0  0  0  0  0
   21.7540   14.3250  104.6310 C   0  0  0  0  0  0  0  0  0  0  0  0
   21.4360   15.2140  103.4930 O   0  0  0  0  0  0  0  0  0  0  0  0
   20.4660   14.4310  105.2150 C   0  0  0  0  0  0  0  0  0  0  0  0
   19.5000   13.4010  104.9780 O   0  0  0  0  0  0  0  0  0  0  0  0
   19.0210   12.3580  104.2260 P   0  0  0  0  0  0  0  0  0  0  0  0
   19.3690   11.3910  105.3530 O   0  0  0  0  0  0  0  0  0  0  0  0
   19.6290   11.9210  102.9850 O   0  0  0  0  0  0  0  0  0  0  0  0
   17.7370   12.2610  104.0310 O   0  0  0  0  0  0  0  0  0  0  0  0
   18.8769   21.1667   99.8766 H   0  0  0  0  0  0  0  0  0  0  0  0
   19.9926   20.1763   98.8981 H   0  0  0  0  0  0  0  0  0  0  0  0
   19.7871   21.6102  102.1531 H   0  0  0  0  0  0  0  0  0  0  0  0
   21.7953   18.2569  105.4820 H   0  0  0  0  0  0  0  0  0  0  0  0
   24.0504   17.4807  103.7746 H   0  0  0  0  0  0  0  0  0  0  0  0
   23.3823   15.4036  102.5057 H   0  0  0  0  0  0  0  0  0  0  0  0
   21.9594   16.2763  100.8383 H   0  0  0  0  0  0  0  0  0  0  0  0
   24.4595   16.7784  107.5026 H   0  0  0  0  0  0  0  0  0  0  0  0
   23.0360   14.7032  108.0945 H   0  0  0  0  0  0  0  0  0  0  0  0
   22.1444   13.3223  104.4028 H   0  0  0  0  0  0  0  0  0  0  0  0
   20.6116   14.4894  106.3038 H   0  0  0  0  0  0  0  0  0  0  0  0
   20.0302   15.3135  104.7238 H   0  0  0  0  0  0  0  0  0  0  0  0
   20.4164   11.3551  103.1846 H   0  0  0  0  0  0  0  0  0  0  0  0
   17.2723   12.2259  104.9044 H   0  0  0  0  0  0  0  0  0  0  0  0
  1  2  2  0
  1 12  1  0
  2  3  1  0
  2  4  1  0
  4  5  1  0
  5  6  2  0
  5 11  1  0
  7  8  1  0
  7 11  1  0
  8  9  1  0
  8 13  1  0
  9 10  1  0
  9 18  1  0
 10 12  1  0
 11 12  2  0
 13 14  1  0
 13 15  2  0
 15 16  1  0
 15 17  1  0
 17 18  1  0
 17 19  1  0
 19 20  1  0
 20 21  1  0
 21 22  2  0
 21 23  1  0
 21 24  1  0
  3 25  1  0
  3 26  1  0
  4 27  1  0
  7 28  1  0
  8 29  1  0
  9 30  1  0
 10 31  1  0
 14 32  1  0
 16 33  1  0
 17 34  1  0
 19 35  1  0
 19 36  1  0
 23 37  1  0
 24 38  1  0
A    1
N1
A    2
C2
A    3
N2
A    4
N3
A    5
C4
A    6
O4
A    7
N5
A    8
C6
A    9
C7
A   10
N8
A   11
C9
A   12
C10
A   13
C1'
A   14
S1'
A   15
C2'
A   16
S2'
A   17
C3'
A   18
O3'
A   19
C4'
A   20
O4'
A   21
P
A   22
O1P
A   23
O2P
A   24
O3P
M  END
