1VAF_ARR_A_902
     RDKit          3D

 45 47  0  0  0  0  0  0  0  0999 V2000
  -55.6370  133.7310   47.2360 S   0  0  0  0  0  0  0  0  0  0  0  0
  -55.0920  132.4130   46.8740 C   0  0  0  0  0  0  0  0  0  0  0  0
  -54.3960  132.4340   45.7450 C   0  0  0  0  0  0  0  0  0  0  0  0
  -54.4030  133.6720   45.2720 C   0  0  0  0  0  0  0  0  0  0  0  0
  -55.1240  134.4950   46.0880 C   0  0  0  0  0  0  0  0  0  0  0  0
  -55.3240  135.8640   45.9360 C   0  0  0  0  0  0  0  0  0  0  0  0
  -55.8340  136.5740   46.9020 N   0  0  0  0  0  0  0  0  0  0  0  0
  -55.1070  136.5210   44.7560 N   0  0  0  0  0  0  0  0  0  0  0  0
  -54.0590  136.3250   43.8650 C   0  0  0  0  0  0  0  0  0  0  0  0
  -52.9240  135.4780   44.1760 C   0  0  0  0  0  0  0  0  0  0  0  0
  -51.8780  135.2900   43.2420 C   0  0  0  0  0  0  0  0  0  0  0  0
  -51.9220  135.9350   41.9800 C   0  0  0  0  0  0  0  0  0  0  0  0
  -53.0440  136.7660   41.6800 C   0  0  0  0  0  0  0  0  0  0  0  0
  -54.1120  136.9730   42.5950 C   0  0  0  0  0  0  0  0  0  0  0  0
  -50.8180  135.7400   40.9760 C   0  0  0  0  0  0  0  0  0  0  0  0
  -50.2690  137.0690   40.4540 C   0  0  0  0  0  0  0  0  0  0  0  0
  -48.9030  136.8790   40.0410 N   0  0  0  0  0  0  0  0  0  0  0  0
  -48.6390  137.3000   38.6810 C   0  0  0  0  0  0  0  0  0  0  0  0
  -47.5020  136.5050   38.0610 C   0  0  0  0  0  0  0  0  0  0  0  0
  -47.3610  135.0970   38.3220 C   0  0  0  0  0  0  0  0  0  0  0  0
  -46.2950  134.3520   37.7360 C   0  0  0  0  0  0  0  0  0  0  0  0
  -45.3580  135.0070   36.8830 C   0  0  0  0  0  0  0  0  0  0  0  0
  -45.4880  136.4030   36.6160 C   0  0  0  0  0  0  0  0  0  0  0  0
  -46.5500  137.1420   37.2010 C   0  0  0  0  0  0  0  0  0  0  0  0
  -46.1380  132.6620   38.0590 Cl  0  0  0  0  0  0  0  0  0  0  0  0
  -55.2456  131.5055   47.4764 H   0  0  0  0  0  0  0  0  0  0  0  0
  -53.8976  131.5705   45.2803 H   0  0  0  0  0  0  0  0  0  0  0  0
  -53.8974  133.9922   44.3490 H   0  0  0  0  0  0  0  0  0  0  0  0
  -55.9770  137.5863   46.7770 H   0  0  0  0  0  0  0  0  0  0  0  0
  -55.7973  137.2411   44.4994 H   0  0  0  0  0  0  0  0  0  0  0  0
  -52.8754  134.9741   45.1526 H   0  0  0  0  0  0  0  0  0  0  0  0
  -51.0271  134.6408   43.4959 H   0  0  0  0  0  0  0  0  0  0  0  0
  -53.0834  137.2662   40.7011 H   0  0  0  0  0  0  0  0  0  0  0  0
  -54.9616  137.6193   42.3294 H   0  0  0  0  0  0  0  0  0  0  0  0
  -49.9993  135.1820   41.4539 H   0  0  0  0  0  0  0  0  0  0  0  0
  -51.2338  135.1875   40.1205 H   0  0  0  0  0  0  0  0  0  0  0  0
  -50.8705  137.4059   39.5969 H   0  0  0  0  0  0  0  0  0  0  0  0
  -50.3162  137.8293   41.2476 H   0  0  0  0  0  0  0  0  0  0  0  0
  -48.2948  137.4200   40.6721 H   0  0  0  0  0  0  0  0  0  0  0  0
  -49.5477  137.1527   38.0788 H   0  0  0  0  0  0  0  0  0  0  0  0
  -48.3479  138.3606   38.6991 H   0  0  0  0  0  0  0  0  0  0  0  0
  -48.0823  134.5902   38.9799 H   0  0  0  0  0  0  0  0  0  0  0  0
  -44.5342  134.4355   36.4304 H   0  0  0  0  0  0  0  0  0  0  0  0
  -44.7654  136.9065   35.9570 H   0  0  0  0  0  0  0  0  0  0  0  0
  -46.6428  138.2178   36.9910 H   0  0  0  0  0  0  0  0  0  0  0  0
  1  2  1  0
  1  5  1  0
  2  3  2  0
  3  4  1  0
  4  5  2  0
  5  6  1  0
  6  7  2  3
  6  8  1  0
  8  9  1  0
  9 10  2  0
  9 14  1  0
 10 11  1  0
 11 12  2  0
 12 13  1  0
 12 15  1  0
 13 14  2  0
 15 16  1  0
 16 17  1  0
 17 18  1  0
 18 19  1  0
 19 20  2  0
 19 24  1  0
 20 21  1  0
 21 22  2  0
 21 25  1  0
 22 23  1  0
 23 24  2  0
  2 26  1  0
  3 27  1  0
  4 28  1  0
  7 29  1  0
  8 30  1  0
 10 31  1  0
 11 32  1  0
 13 33  1  0
 14 34  1  0
 15 35  1  0
 15 36  1  0
 16 37  1  0
 16 38  1  0
 17 39  1  0
 18 40  1  0
 18 41  1  0
 20 42  1  0
 22 43  1  0
 23 44  1  0
 24 45  1  0
A    1
S
A    2
C1
A    3
C2
A    4
C3
A    5
C4
A    6
C5
A    7
N3
A    8
N1
A    9
C6
A   10
C10
A   11
C11
A   12
C9
A   13
C8
A   14
C7
A   15
C12
A   16
C13
A   17
N2
A   18
C14
A   19
C15
A   20
C20
A   21
C19
A   22
C18
A   23
C17
A   24
C16
A   25
CL
M  END
