1VAM_PNA_A_240
     RDKit          3D

 36 37  0  0  0  0  0  0  0  0999 V2000
   37.8120    5.5500   29.9590 C   0  0  0  0  0  0  0  0  0  0  0  0
   37.9760    6.6790   30.9620 C   0  0  0  0  0  0  0  0  0  0  0  0
   36.6000    7.1960   31.3110 C   0  0  0  0  0  0  0  0  0  0  0  0
   35.9370    7.7000   30.0370 C   0  0  0  0  0  0  0  0  0  0  0  0
   35.9050    6.6130   28.9670 C   0  0  0  0  0  0  0  0  0  0  0  0
   35.3990    7.0980   27.6080 C   0  0  0  0  0  0  0  0  0  0  0  0
   36.8110    3.3090   29.9180 C   0  0  0  0  0  0  0  0  0  0  0  0
   36.2550    2.2860   30.6650 C   0  0  0  0  0  0  0  0  0  0  0  0
   36.0700    1.0380   30.1280 C   0  0  0  0  0  0  0  0  0  0  0  0
   36.4390    0.7960   28.8140 C   0  0  0  0  0  0  0  0  0  0  0  0
   37.0030    1.8250   28.0560 C   0  0  0  0  0  0  0  0  0  0  0  0
   37.1800    3.0720   28.6070 C   0  0  0  0  0  0  0  0  0  0  0  0
   36.2660   -0.4400   28.2200 N   0  0  0  0  0  0  0  0  0  0  0  0
   36.9910    4.5770   30.5450 O   0  0  0  0  0  0  0  0  0  0  0  0
   38.7380    7.7370   30.3870 O   0  0  0  0  0  0  0  0  0  0  0  0
   36.7250    8.2600   32.2350 O   0  0  0  0  0  0  0  0  0  0  0  0
   34.6210    8.1190   30.3350 O   0  0  0  0  0  0  0  0  0  0  0  0
   37.2290    6.0740   28.7720 O   0  0  0  0  0  0  0  0  0  0  0  0
   36.4000    7.8070   26.8750 O   0  0  0  0  0  0  0  0  0  0  0  0
   36.5780   -0.6220   27.0650 O   0  0  0  0  0  0  0  0  0  0  0  0
   35.7850   -1.3200   28.8890 O   0  0  0  0  0  0  0  0  0  0  0  0
   38.7781    5.0958   29.6935 H   0  0  0  0  0  0  0  0  0  0  0  0
   38.4970    6.3115   31.8584 H   0  0  0  0  0  0  0  0  0  0  0  0
   35.9918    6.3963   31.7588 H   0  0  0  0  0  0  0  0  0  0  0  0
   36.5217    8.5452   29.6449 H   0  0  0  0  0  0  0  0  0  0  0  0
   35.2018    5.8539   29.3402 H   0  0  0  0  0  0  0  0  0  0  0  0
   35.0804    6.2260   27.0180 H   0  0  0  0  0  0  0  0  0  0  0  0
   34.5630    7.7897   27.7889 H   0  0  0  0  0  0  0  0  0  0  0  0
   35.9565    2.4768   31.7064 H   0  0  0  0  0  0  0  0  0  0  0  0
   35.6313    0.2335   30.7365 H   0  0  0  0  0  0  0  0  0  0  0  0
   37.3063    1.6370   27.0155 H   0  0  0  0  0  0  0  0  0  0  0  0
   37.6158    3.8822   28.0040 H   0  0  0  0  0  0  0  0  0  0  0  0
   39.1346    8.2876   31.1079 H   0  0  0  0  0  0  0  0  0  0  0  0
   36.6830    7.9027   33.1573 H   0  0  0  0  0  0  0  0  0  0  0  0
   34.5012    8.1571   31.3170 H   0  0  0  0  0  0  0  0  0  0  0  0
   37.0219    8.2475   27.5070 H   0  0  0  0  0  0  0  0  0  0  0  0
  1  2  1  0
  1 14  1  0
  1 18  1  0
  2  3  1  0
  2 15  1  0
  3  4  1  0
  3 16  1  0
  4  5  1  0
  4 17  1  0
  5  6  1  0
  5 18  1  0
  6 19  1  0
  7  8  2  0
  7 12  1  0
  7 14  1  0
  8  9  1  0
  9 10  2  0
 10 11  1  0
 10 13  1  0
 11 12  2  0
 13 20  2  0
 13 21  1  0
  1 22  1  0
  2 23  1  0
  3 24  1  0
  4 25  1  0
  5 26  1  0
  6 27  1  0
  6 28  1  0
  8 29  1  0
  9 30  1  0
 11 31  1  0
 12 32  1  0
 15 33  1  0
 16 34  1  0
 17 35  1  0
 19 36  1  0
M  CHG  2  13   1  21  -1
A    1
C1
A    2
C2
A    3
C3
A    4
C4
A    5
C5
A    6
C6
A    7
C7
A    8
C8
A    9
C9
A   10
C10
A   11
C11
A   12
C12
A   13
N1
A   14
O1
A   15
O2
A   16
O3
A   17
O4
A   18
O5
A   19
O6
A   20
O7
A   21
O8
M  END
