1UJA_IBA_?_1
     RDKit          3D

 36 31  0  0  0  0  0  0  0  0999 V2000
   34.1040  -10.6170   65.4910 C   0  0  0  0  0  0  0  0  0  0  0  0
   33.0130  -11.4650   65.7570 C   0  0  0  0  0  0  0  0  0  0  0  0
   31.7220  -11.0950   65.3350 C   0  0  0  0  0  0  0  0  0  0  0  0
   31.5040   -9.8770   64.6320 C   0  0  0  0  0  0  0  0  0  0  0  0
   32.6210   -9.0360   64.3580 C   0  0  0  0  0  0  0  0  0  0  0  0
   33.9140   -9.4170   64.8000 C   0  0  0  0  0  0  0  0  0  0  0  0
   33.2040  -12.7410   66.4500 C   0  0  0  0  0  0  0  0  0  0  0  0
   29.0320  -10.2580   64.2940 C   0  0  0  0  0  0  0  0  0  0  0  0
   27.9150   -9.3170   64.8210 C   0  0  0  0  0  0  0  0  0  0  0  0
   28.7160  -10.8760   62.9100 C   0  0  0  0  0  0  0  0  0  0  0  0
   35.1147  -10.9018   65.8188 H   0  0  0  0  0  0  0  0  0  0  0  0
   33.9462   -9.6693   64.9553 H   0  0  0  0  0  0  0  0  0  0  0  0
   33.1683  -12.4132   66.2925 H   0  0  0  0  0  0  0  0  0  0  0  0
   30.8701  -11.7563   65.5516 H   0  0  0  0  0  0  0  0  0  0  0  0
   30.4931   -9.5905   64.3066 H   0  0  0  0  0  0  0  0  0  0  0  0
   32.6772   -8.9267   63.2649 H   0  0  0  0  0  0  0  0  0  0  0  0
   32.4078   -8.1291   64.9429 H   0  0  0  0  0  0  0  0  0  0  0  0
   33.9382   -9.4241   65.8997 H   0  0  0  0  0  0  0  0  0  0  0  0
   34.1493  -10.4227   64.4215 H   0  0  0  0  0  0  0  0  0  0  0  0
   34.6570   -8.6996   64.4215 H   0  0  0  0  0  0  0  0  0  0  0  0
   33.2040  -12.7410   67.5500 H   0  0  0  0  0  0  0  0  0  0  0  0
   33.2040  -11.7039   66.0833 H   0  0  0  0  0  0  0  0  0  0  0  0
   34.1021  -13.2595   66.0833 H   0  0  0  0  0  0  0  0  0  0  0  0
   32.3059  -13.2595   66.0833 H   0  0  0  0  0  0  0  0  0  0  0  0
   29.0320  -10.2580   65.3940 H   0  0  0  0  0  0  0  0  0  0  0  0
   29.0320   -9.2209   63.9273 H   0  0  0  0  0  0  0  0  0  0  0  0
   29.9301  -10.7765   63.9273 H   0  0  0  0  0  0  0  0  0  0  0  0
   28.1339  -10.7765   63.9273 H   0  0  0  0  0  0  0  0  0  0  0  0
   27.9150   -9.3170   65.9210 H   0  0  0  0  0  0  0  0  0  0  0  0
   27.9150   -8.2799   64.4543 H   0  0  0  0  0  0  0  0  0  0  0  0
   28.8131   -9.8355   64.4543 H   0  0  0  0  0  0  0  0  0  0  0  0
   27.0169   -9.8355   64.4543 H   0  0  0  0  0  0  0  0  0  0  0  0
   28.7160  -10.8760   64.0100 H   0  0  0  0  0  0  0  0  0  0  0  0
   28.7160   -9.8389   62.5433 H   0  0  0  0  0  0  0  0  0  0  0  0
   29.6141  -11.3945   62.5433 H   0  0  0  0  0  0  0  0  0  0  0  0
   27.8179  -11.3945   62.5433 H   0  0  0  0  0  0  0  0  0  0  0  0
  1  2  2  0
  2  3  1  0
  3  4  2  0
  4  5  1  0
  5  6  1  0
  1 11  1  0
  1 12  1  0
  2 13  1  0
  3 14  1  0
  4 15  1  0
  5 16  1  0
  5 17  1  0
  6 18  1  0
  6 19  1  0
  6 20  1  0
  7 21  1  0
  7 22  1  0
  7 23  1  0
  7 24  1  0
  8 25  1  0
  8 26  1  0
  8 27  1  0
  8 28  1  0
  9 29  1  0
  9 30  1  0
  9 31  1  0
  9 32  1  0
 10 33  1  0
 10 34  1  0
 10 35  1  0
 10 36  1  0
A    1
C6
A    2
C5
A    3
C4
A    4
C3
A    5
C2
A    6
C1
A    7
C10
A    8
C15
A    9
C18
A   10
C17
M  END
