1VDV_YSH_A_5101
     RDKit          3D

 39 40  0  0  0  0  0  0  0  0999 V2000
   70.0330   47.3400   39.0340 C   0  0  0  0  0  0  0  0  0  0  0  0
   68.6850   46.3870   39.3700 N   0  0  0  0  0  0  0  0  0  0  0  0
   67.9370   46.1700   38.2810 N   0  0  0  0  0  0  0  0  0  0  0  0
   68.4260   46.7760   37.1250 C   0  0  0  0  0  0  0  0  0  0  0  0
   69.5770   47.4580   37.3940 C   0  0  0  0  0  0  0  0  0  0  0  0
   68.4540   45.8940   40.8140 C   0  0  0  0  0  0  0  0  0  0  0  0
   67.7450   44.6700   40.9570 C   0  0  0  0  0  0  0  0  0  0  0  0
   67.5120   44.1770   42.2470 C   0  0  0  0  0  0  0  0  0  0  0  0
   67.9910   44.9070   43.3930 C   0  0  0  0  0  0  0  0  0  0  0  0
   68.7750   46.2610   43.2710 C   0  0  0  0  0  0  0  0  0  0  0  0
   69.0130   46.7620   42.0620 C   0  0  0  0  0  0  0  0  0  0  0  0
   66.7610   42.8660   42.4780 C   0  0  0  0  0  0  0  0  0  0  0  0
   66.2110   41.8660   42.6460 N   0  0  0  0  0  0  0  0  0  0  0  0
   67.7290   44.3430   44.7050 O   0  0  0  0  0  0  0  0  0  0  0  0
   68.3060   45.1850   45.8470 C   0  0  0  0  0  0  0  0  0  0  0  0
   68.8010   44.2900   47.0280 C   0  0  0  0  0  0  0  0  0  0  0  0
   69.8610   43.2830   46.5970 C   0  0  0  0  0  0  0  0  0  0  0  0
   69.3720   45.1610   48.1220 C   0  0  0  0  0  0  0  0  0  0  0  0
   67.6130   43.4740   47.5170 C   0  0  0  0  0  0  0  0  0  0  0  0
   70.3770   48.2310   36.4430 C   0  0  0  0  0  0  0  0  0  0  0  0
   70.0410   48.3260   35.2720 O   0  0  0  0  0  0  0  0  0  0  0  0
   71.5100   48.8180   37.0010 O   0  0  0  0  0  0  0  0  0  0  0  0
   70.8704   47.7295   39.6316 H   0  0  0  0  0  0  0  0  0  0  0  0
   67.9509   46.7133   36.1349 H   0  0  0  0  0  0  0  0  0  0  0  0
   67.3870   44.1218   40.0731 H   0  0  0  0  0  0  0  0  0  0  0  0
   69.1225   46.7879   44.1719 H   0  0  0  0  0  0  0  0  0  0  0  0
   69.5561   47.7078   41.9186 H   0  0  0  0  0  0  0  0  0  0  0  0
   69.1538   45.7723   45.4645 H   0  0  0  0  0  0  0  0  0  0  0  0
   67.5103   45.8440   46.2247 H   0  0  0  0  0  0  0  0  0  0  0  0
   70.3286   42.8388   47.4881 H   0  0  0  0  0  0  0  0  0  0  0  0
   69.3911   42.4906   45.9959 H   0  0  0  0  0  0  0  0  0  0  0  0
   70.6283   43.7929   45.9959 H   0  0  0  0  0  0  0  0  0  0  0  0
   69.0988   44.7442   49.1026 H   0  0  0  0  0  0  0  0  0  0  0  0
   70.4676   45.1941   48.0300 H   0  0  0  0  0  0  0  0  0  0  0  0
   68.9654   46.1789   48.0300 H   0  0  0  0  0  0  0  0  0  0  0  0
   67.6015   43.4661   48.6169 H   0  0  0  0  0  0  0  0  0  0  0  0
   66.6809   43.9234   47.1438 H   0  0  0  0  0  0  0  0  0  0  0  0
   67.6980   42.4428   47.1438 H   0  0  0  0  0  0  0  0  0  0  0  0
   69.1143   48.5880   35.0426 H   0  0  0  0  0  0  0  0  0  0  0  0
  1  2  1  0
  1  5  2  0
  2  3  1  0
  2  6  1  0
  3  4  2  0
  4  5  1  0
  5 20  1  0
  6  7  2  0
  6 11  1  0
  7  8  1  0
  8  9  2  0
  8 12  1  0
  9 10  1  0
  9 14  1  0
 10 11  2  0
 12 13  3  0
 14 15  1  0
 15 16  1  0
 16 17  1  0
 16 18  1  0
 16 19  1  0
 20 21  1  0
 20 22  2  0
  1 23  1  0
  4 24  1  0
  7 25  1  0
 10 26  1  0
 11 27  1  0
 15 28  1  0
 15 29  1  0
 17 30  1  0
 17 31  1  0
 17 32  1  0
 18 33  1  0
 18 34  1  0
 18 35  1  0
 19 36  1  0
 19 37  1  0
 19 38  1  0
 21 39  1  0
A    1
C1
A    2
N2
A    3
N3
A    4
C4
A    5
C5
A    6
C6
A    7
C7
A    8
C8
A    9
C9
A   10
C10
A   11
C11
A   12
C12
A   13
N13
A   14
O14
A   15
C15
A   16
C16
A   17
C17
A   18
C18
A   19
C19
A   20
C20
A   21
O21
A   22
O22
M  END
