1VZQ_SHY_H_1256
     RDKit          3D

 57 62  0  0  0  0  0  0  0  0999 V2000
   11.2730   -9.8910   24.4230 N   0  0  0  0  0  0  0  0  0  0  0  0
   11.5310  -10.9910   23.6610 C   0  0  0  0  0  0  0  0  0  0  0  0
   10.7380  -12.0870   23.8820 N   0  0  0  0  0  0  0  0  0  0  0  0
   12.6280  -11.0420   22.7280 C   0  0  0  0  0  0  0  0  0  0  0  0
   13.3690   -9.8970   22.4750 C   0  0  0  0  0  0  0  0  0  0  0  0
   14.4520   -9.9450   21.5940 C   0  0  0  0  0  0  0  0  0  0  0  0
   14.8080  -11.1520   20.9470 C   0  0  0  0  0  0  0  0  0  0  0  0
   14.0210  -12.2790   21.1820 C   0  0  0  0  0  0  0  0  0  0  0  0
   12.9520  -12.2380   22.0500 C   0  0  0  0  0  0  0  0  0  0  0  0
   16.0330  -11.1260   20.0470 C   0  0  0  0  0  0  0  0  0  0  0  0
   15.9840  -12.2420   19.0630 N   0  0  0  0  0  0  0  0  0  0  0  0
   15.1070  -11.8710   17.9050 C   0  0  0  0  0  0  0  0  0  0  0  0
   15.9910  -11.7140   16.6510 C   0  0  0  0  0  0  0  0  0  0  0  0
   17.3470  -11.3690   17.2850 C   0  0  0  0  0  0  0  0  0  0  0  0
   17.3700  -12.2570   18.5040 C   0  0  0  0  0  0  0  0  0  0  0  0
   18.3570  -11.6980   19.5540 C   0  0  0  0  0  0  0  0  0  0  0  0
   19.1540  -12.7910   20.1560 C   0  0  0  0  0  0  0  0  0  0  0  0
   18.5860  -13.2780   21.3270 N   0  0  0  0  0  0  0  0  0  0  0  0
   17.4670  -12.4790   21.6720 C   0  0  0  0  0  0  0  0  0  0  0  0
   16.7470  -12.7340   22.6270 O   0  0  0  0  0  0  0  0  0  0  0  0
   17.3990  -11.2870   20.7360 C   0  0  0  0  0  0  0  0  0  0  0  0
   18.9930  -14.4320   22.1400 C   0  0  0  0  0  0  0  0  0  0  0  0
   20.0690  -14.1490   23.1270 C   0  0  0  0  0  0  0  0  0  0  0  0
   19.6810  -13.8530   24.4260 C   0  0  0  0  0  0  0  0  0  0  0  0
   20.5780  -13.5150   25.4190 C   0  0  0  0  0  0  0  0  0  0  0  0
   21.9210  -13.4690   25.0290 C   0  0  0  0  0  0  0  0  0  0  0  0
   22.9690  -13.1850   25.8140 O   0  0  0  0  0  0  0  0  0  0  0  0
   24.1320  -13.2920   24.9510 C   0  0  0  0  0  0  0  0  0  0  0  0
   16.1570  -12.9510   15.9450 O   0  0  0  0  0  0  0  0  0  0  0  0
   23.6860  -13.7380   23.6270 O   0  0  0  0  0  0  0  0  0  0  0  0
   22.3270  -13.7490   23.7400 C   0  0  0  0  0  0  0  0  0  0  0  0
   21.4170  -14.1010   22.7560 C   0  0  0  0  0  0  0  0  0  0  0  0
   20.1560  -13.3290   19.7070 O   0  0  0  0  0  0  0  0  0  0  0  0
   11.8361   -9.0371   24.3020 H   0  0  0  0  0  0  0  0  0  0  0  0
   10.5244  -12.3823   24.8454 H   0  0  0  0  0  0  0  0  0  0  0  0
   10.3558  -12.6153   23.0847 H   0  0  0  0  0  0  0  0  0  0  0  0
   13.1036   -8.9504   22.9685 H   0  0  0  0  0  0  0  0  0  0  0  0
   15.0355   -9.0328   21.4007 H   0  0  0  0  0  0  0  0  0  0  0  0
   14.2586  -13.2198   20.6638 H   0  0  0  0  0  0  0  0  0  0  0  0
   12.3473  -13.1418   22.2160 H   0  0  0  0  0  0  0  0  0  0  0  0
   15.9760  -10.1186   19.6090 H   0  0  0  0  0  0  0  0  0  0  0  0
   14.3611  -12.6617   17.7364 H   0  0  0  0  0  0  0  0  0  0  0  0
   14.5829  -10.9273   18.1168 H   0  0  0  0  0  0  0  0  0  0  0  0
   15.5752  -10.9908   15.9340 H   0  0  0  0  0  0  0  0  0  0  0  0
   18.1770  -11.6071   16.6035 H   0  0  0  0  0  0  0  0  0  0  0  0
   17.4642  -10.3003   17.5175 H   0  0  0  0  0  0  0  0  0  0  0  0
   17.6926  -13.2760   18.2439 H   0  0  0  0  0  0  0  0  0  0  0  0
   19.0076  -10.9271   19.1155 H   0  0  0  0  0  0  0  0  0  0  0  0
   17.6278  -10.3712   21.3008 H   0  0  0  0  0  0  0  0  0  0  0  0
   18.1106  -14.7924   22.6891 H   0  0  0  0  0  0  0  0  0  0  0  0
   19.4014  -15.1761   21.4403 H   0  0  0  0  0  0  0  0  0  0  0  0
   18.6103  -13.8894   24.6756 H   0  0  0  0  0  0  0  0  0  0  0  0
   20.2584  -13.2963   26.4486 H   0  0  0  0  0  0  0  0  0  0  0  0
   24.6236  -12.3116   24.8667 H   0  0  0  0  0  0  0  0  0  0  0  0
   24.8494  -14.0125   25.3709 H   0  0  0  0  0  0  0  0  0  0  0  0
   16.2563  -13.6911   16.5949 H   0  0  0  0  0  0  0  0  0  0  0  0
   21.7398  -14.3321   21.7301 H   0  0  0  0  0  0  0  0  0  0  0  0
  1  2  2  3
  2  3  1  0
  2  4  1  0
  4  5  2  0
  4  9  1  0
  5  6  1  0
  6  7  2  0
  7  8  1  0
  7 10  1  0
  8  9  2  0
 10 11  1  0
 10 21  1  0
 11 12  1  0
 11 15  1  0
 12 13  1  0
 13 14  1  0
 13 29  1  0
 14 15  1  0
 15 16  1  0
 16 17  1  0
 16 21  1  0
 17 18  1  0
 17 33  2  0
 18 19  1  0
 18 22  1  0
 19 20  2  0
 19 21  1  0
 22 23  1  0
 23 24  2  0
 23 32  1  0
 24 25  1  0
 25 26  2  0
 26 27  1  0
 26 31  1  0
 27 28  1  0
 28 30  1  0
 30 31  1  0
 31 32  2  0
  1 34  1  0
  3 35  1  0
  3 36  1  0
  5 37  1  0
  6 38  1  0
  8 39  1  0
  9 40  1  0
 10 41  1  0
 12 42  1  0
 12 43  1  0
 13 44  1  0
 14 45  1  0
 14 46  1  0
 15 47  1  0
 16 48  1  0
 21 49  1  0
 22 50  1  0
 22 51  1  0
 24 52  1  0
 25 53  1  0
 28 54  1  0
 28 55  1  0
 29 56  1  0
 32 57  1  0
A    1
N1
A    2
C3
A    3
N2
A    4
C4
A    5
C9
A    6
C8
A    7
C7
A    8
C6
A    9
C5
A   10
C10
A   11
N11
A   12
C12
A   13
C13
A   14
C14
A   15
C15
A   16
C16
A   17
C17
A   18
N19
A   19
C20
A   20
O21
A   21
C22
A   22
C23
A   23
C24
A   24
C32
A   25
C31
A   26
C30
A   27
O29
A   28
C28
A   29
O20
A   30
O27
A   31
C26
A   32
C25
A   33
O24
M  END
