1W03_HCG_A_1332
     RDKit          3D

 40 39  0  0  0  0  0  0  0  0999 V2000
   17.1260   35.7480    5.6410 C   0  0  0  0  0  0  0  0  0  0  0  0
   15.8080   36.3200    6.1830 C   0  0  0  0  0  0  0  0  0  0  0  0
   15.2100   37.5220    5.4600 C   0  0  0  0  0  0  0  0  0  0  0  0
   13.7750   37.7890    5.9630 C   0  0  0  0  0  0  0  0  0  0  0  0
   13.2420   39.0260    5.2380 C   0  0  0  0  0  0  0  0  0  0  0  0
   11.8660   39.4590    5.6750 C   0  0  0  0  0  0  0  0  0  0  0  0
   10.8720   39.4300    4.8170 N   0  0  0  0  0  0  0  0  0  0  0  0
    9.6170   40.0480    5.3100 C   0  0  0  0  0  0  0  0  0  0  0  0
    8.5010   39.0460    5.6620 C   0  0  0  0  0  0  0  0  0  0  0  0
   15.9820   36.5190    7.6400 N   0  0  0  0  0  0  0  0  0  0  0  0
   11.6880   39.8420    6.8190 O   0  0  0  0  0  0  0  0  0  0  0  0
    9.1020   40.6930    3.9650 C   0  0  0  0  0  0  0  0  0  0  0  0
    9.3390   39.6940    2.3670 S   0  0  0  0  0  0  0  0  0  0  0  0
    8.5590   38.1610    4.7780 O   0  0  0  0  0  0  0  0  0  0  0  0
   18.2340   36.1940    6.4040 O   0  0  0  0  0  0  0  0  0  0  0  0
   17.4180   35.9890    4.3100 O   0  0  0  0  0  0  0  0  0  0  0  0
    7.3940   39.6390    6.4820 N   0  0  0  0  0  0  0  0  0  0  0  0
    6.2030   38.9300    6.4320 C   0  0  0  0  0  0  0  0  0  0  0  0
    5.4810   38.2600    5.5410 C   0  0  0  0  0  0  0  0  0  0  0  0
    5.9950   38.3900    4.5270 O   0  0  0  0  0  0  0  0  0  0  0  0
    4.3970   37.6120    5.7040 O   0  0  0  0  0  0  0  0  0  0  0  0
   15.0225   35.5795    5.9719 H   0  0  0  0  0  0  0  0  0  0  0  0
   15.8328   38.4081    5.6522 H   0  0  0  0  0  0  0  0  0  0  0  0
   15.1780   37.3114    4.3808 H   0  0  0  0  0  0  0  0  0  0  0  0
   13.1348   36.9222    5.7422 H   0  0  0  0  0  0  0  0  0  0  0  0
   13.7761   37.9545    7.0505 H   0  0  0  0  0  0  0  0  0  0  0  0
   13.9383   39.8579    5.4196 H   0  0  0  0  0  0  0  0  0  0  0  0
   13.1635   38.7570    4.1743 H   0  0  0  0  0  0  0  0  0  0  0  0
   10.9570   39.0126    3.8792 H   0  0  0  0  0  0  0  0  0  0  0  0
    9.8080   40.6623    6.2023 H   0  0  0  0  0  0  0  0  0  0  0  0
   15.3934   35.8458    8.1512 H   0  0  0  0  0  0  0  0  0  0  0  0
   16.9699   36.3712    7.8911 H   0  0  0  0  0  0  0  0  0  0  0  0
    8.0241   40.8793    4.0804 H   0  0  0  0  0  0  0  0  0  0  0  0
    9.7225   41.5910    3.8290 H   0  0  0  0  0  0  0  0  0  0  0  0
    9.6468   38.3965    2.6810 H   0  0  0  0  0  0  0  0  0  0  0  0
   18.1928   36.1774    7.3930 H   0  0  0  0  0  0  0  0  0  0  0  0
    7.5086   40.5000    7.0355 H   0  0  0  0  0  0  0  0  0  0  0  0
    6.3607   38.1698    7.2113 H   0  0  0  0  0  0  0  0  0  0  0  0
    5.5931   39.8402    6.3340 H   0  0  0  0  0  0  0  0  0  0  0  0
    4.0698   37.4164    6.6177 H   0  0  0  0  0  0  0  0  0  0  0  0
  1  2  1  0
  1 15  1  0
  1 16  2  0
  2  3  1  0
  2 10  1  0
  3  4  1  0
  4  5  1  0
  5  6  1  0
  6  7  1  0
  6 11  2  0
  7  8  1  0
  8  9  1  0
  8 12  1  0
  9 14  2  0
  9 17  1  0
 12 13  1  0
 17 18  1  0
 18 19  1  0
 19 20  2  0
 19 21  1  0
  2 22  1  0
  3 23  1  0
  3 24  1  0
  4 25  1  0
  4 26  1  0
  5 27  1  0
  5 28  1  0
  7 29  1  0
  8 30  1  0
 10 31  1  0
 10 32  1  0
 12 33  1  0
 12 34  1  0
 13 35  1  0
 15 36  1  0
 17 37  1  0
 18 38  1  0
 18 39  1  0
 21 40  1  0
A    1
C1
A    2
C2
A    3
C3
A    4
C4
A    5
C7
A    6
C10
A    7
N11
A    8
C12
A    9
C13
A   10
N14
A   11
O15
A   12
C16
A   13
S17
A   14
O18
A   15
O19
A   16
O20
A   17
N29
A   18
C30
A   19
C31
A   20
O42
A   21
O43
M  END
