1W0C_TAQ_A_301
     RDKit          3D

 22 23  0  0  0  0  0  0  0  0999 V2000
   -5.9530  -12.6990   29.8280 C   0  0  0  0  0  0  0  0  0  0  0  0
   -6.7340  -11.7450   30.3600 N   0  0  0  0  0  0  0  0  0  0  0  0
   -6.5170  -13.7380   29.0900 C   0  0  0  0  0  0  0  0  0  0  0  0
   -5.7050  -14.7350   28.5430 C   0  0  0  0  0  0  0  0  0  0  0  0
   -4.3240  -14.6890   28.7390 C   0  0  0  0  0  0  0  0  0  0  0  0
   -3.5400  -15.6400   28.2310 N   0  0  0  0  0  0  0  0  0  0  0  0
   -2.2050  -15.6050   28.4040 C   0  0  0  0  0  0  0  0  0  0  0  0
   -1.4440  -16.5560   27.8780 N   0  0  0  0  0  0  0  0  0  0  0  0
   -1.6130  -14.6200   29.0940 N   0  0  0  0  0  0  0  0  0  0  0  0
   -2.3580  -13.6530   29.6460 C   0  0  0  0  0  0  0  0  0  0  0  0
   -3.7500  -13.6590   29.4740 C   0  0  0  0  0  0  0  0  0  0  0  0
   -4.5680  -12.6680   30.0090 C   0  0  0  0  0  0  0  0  0  0  0  0
   -1.7280  -12.7020   30.3300 N   0  0  0  0  0  0  0  0  0  0  0  0
   -6.8097  -11.6526   31.3830 H   0  0  0  0  0  0  0  0  0  0  0  0
   -7.2574  -11.1057   29.7450 H   0  0  0  0  0  0  0  0  0  0  0  0
   -7.6058  -13.7734   28.9375 H   0  0  0  0  0  0  0  0  0  0  0  0
   -6.1527  -15.5533   27.9599 H   0  0  0  0  0  0  0  0  0  0  0  0
   -0.9276  -17.2013   28.4927 H   0  0  0  0  0  0  0  0  0  0  0  0
   -1.3696  -16.6490   26.8549 H   0  0  0  0  0  0  0  0  0  0  0  0
   -4.1162  -11.8463   30.5842 H   0  0  0  0  0  0  0  0  0  0  0  0
   -1.7374  -12.7162   31.3599 H   0  0  0  0  0  0  0  0  0  0  0  0
   -1.2307  -11.9514   29.8298 H   0  0  0  0  0  0  0  0  0  0  0  0
  1  2  1  0
  1  3  2  0
  1 12  1  0
  3  4  1  0
  4  5  2  0
  5  6  1  0
  5 11  1  0
  6  7  2  0
  7  8  1  0
  7  9  1  0
  9 10  2  0
 10 11  1  0
 10 13  1  0
 11 12  2  0
  2 14  1  0
  2 15  1  0
  3 16  1  0
  4 17  1  0
  8 18  1  0
  8 19  1  0
 12 20  1  0
 13 21  1  0
 13 22  1  0
A    1
C6
A    2
N4
A    3
C1
A    4
C2
A    5
C3
A    6
N3
A    7
C8
A    8
N2
A    9
N1
A   10
C7
A   11
C4
A   12
C5
A   13
NAA
M  END
