1W13_SM1_U_1245
     RDKit          3D

 61 62  0  0  0  0  0  0  0  0999 V2000
   35.2150    4.5230   27.3340 N   0  0  0  0  0  0  0  0  0  0  0  0
   33.8740    4.5620   27.5210 C   0  0  0  0  0  0  0  0  0  0  0  0
   33.2280    3.3910   27.5790 N   0  0  0  0  0  0  0  0  0  0  0  0
   33.2140    5.7360   27.6500 N   0  0  0  0  0  0  0  0  0  0  0  0
   31.9150    6.0040   27.9610 C   0  0  0  0  0  0  0  0  0  0  0  0
   31.2870    7.0540   27.2660 C   0  0  0  0  0  0  0  0  0  0  0  0
   30.0050    7.4920   27.6570 C   0  0  0  0  0  0  0  0  0  0  0  0
   29.3460    6.8600   28.7290 C   0  0  0  0  0  0  0  0  0  0  0  0
   29.9450    5.7410   29.3510 C   0  0  0  0  0  0  0  0  0  0  0  0
   31.2040    5.2770   28.9450 C   0  0  0  0  0  0  0  0  0  0  0  0
   28.0340    7.3360   29.2240 C   0  0  0  0  0  0  0  0  0  0  0  0
   28.1660    8.2190   30.3150 N   0  0  0  0  0  0  0  0  0  0  0  0
   28.4450    9.5010   30.1970 C   0  0  0  0  0  0  0  0  0  0  0  0
   28.5460   10.0700   29.1000 O   0  0  0  0  0  0  0  0  0  0  0  0
   28.6590   10.3160   31.3940 C   0  0  0  0  0  0  0  0  0  0  0  0
   27.4340   11.2240   31.6640 C   0  0  0  0  0  0  0  0  0  0  0  0
   29.7590   11.1820   31.2470 N   0  0  0  0  0  0  0  0  0  0  0  0
   31.0080   10.8900   30.9890 C   0  0  0  0  0  0  0  0  0  0  0  0
   32.0080   11.9490   30.8560 C   0  0  0  0  0  0  0  0  0  0  0  0
   32.7220   12.2720   32.1990 C   0  0  0  0  0  0  0  0  0  0  0  0
   31.7500   12.5830   33.2100 O   0  0  0  0  0  0  0  0  0  0  0  0
   33.1030   11.5940   29.9160 N   0  0  0  0  0  0  0  0  0  0  0  0
   31.3520    9.7150   30.8480 O   0  0  0  0  0  0  0  0  0  0  0  0
   32.3880   13.3910   28.0760 O   0  0  0  0  0  0  0  0  0  0  0  0
   32.8660   11.9360   28.2830 S   0  0  0  0  0  0  0  0  0  0  0  0
   34.2430   11.6550   27.6120 O   0  0  0  0  0  0  0  0  0  0  0  0
   31.6480   10.8760   27.6040 C   0  0  0  0  0  0  0  0  0  0  0  0
   31.4700   11.0880   26.1490 C   0  0  0  0  0  0  0  0  0  0  0  0
   32.2100   10.3160   25.2160 C   0  0  0  0  0  0  0  0  0  0  0  0
   32.0930   10.5360   23.8260 C   0  0  0  0  0  0  0  0  0  0  0  0
   31.1900   11.5140   23.3590 C   0  0  0  0  0  0  0  0  0  0  0  0
   30.4040   12.2470   24.2780 C   0  0  0  0  0  0  0  0  0  0  0  0
   30.5650   12.0620   25.6730 C   0  0  0  0  0  0  0  0  0  0  0  0
   35.8479    4.5046   28.1464 H   0  0  0  0  0  0  0  0  0  0  0  0
   35.6018    4.5118   26.3794 H   0  0  0  0  0  0  0  0  0  0  0  0
   32.2079    3.3720   27.7199 H   0  0  0  0  0  0  0  0  0  0  0  0
   33.7936    6.5712   27.4845 H   0  0  0  0  0  0  0  0  0  0  0  0
   31.7965    7.5334   26.4171 H   0  0  0  0  0  0  0  0  0  0  0  0
   29.5210    8.3250   27.1261 H   0  0  0  0  0  0  0  0  0  0  0  0
   29.4152    5.2264   30.1661 H   0  0  0  0  0  0  0  0  0  0  0  0
   31.6318    4.3635   29.3838 H   0  0  0  0  0  0  0  0  0  0  0  0
   27.5148    7.8577   28.4065 H   0  0  0  0  0  0  0  0  0  0  0  0
   27.4632    6.4598   29.5653 H   0  0  0  0  0  0  0  0  0  0  0  0
   28.0362    7.8381   31.2632 H   0  0  0  0  0  0  0  0  0  0  0  0
   28.8305    9.6064   32.2169 H   0  0  0  0  0  0  0  0  0  0  0  0
   27.2892   11.3313   32.7491 H   0  0  0  0  0  0  0  0  0  0  0  0
   27.6061   12.2144   31.2173 H   0  0  0  0  0  0  0  0  0  0  0  0
   26.5365   10.7713   31.2173 H   0  0  0  0  0  0  0  0  0  0  0  0
   29.5518   12.1848   31.3580 H   0  0  0  0  0  0  0  0  0  0  0  0
   31.4257   12.8074   30.4898 H   0  0  0  0  0  0  0  0  0  0  0  0
   33.3119   11.3997   32.5169 H   0  0  0  0  0  0  0  0  0  0  0  0
   33.3844   13.1385   32.0564 H   0  0  0  0  0  0  0  0  0  0  0  0
   32.1524   12.4543   34.1053 H   0  0  0  0  0  0  0  0  0  0  0  0
   33.9465   12.1019   30.2186 H   0  0  0  0  0  0  0  0  0  0  0  0
   31.9510    9.8326   27.7755 H   0  0  0  0  0  0  0  0  0  0  0  0
   30.6911   11.1013   28.0976 H   0  0  0  0  0  0  0  0  0  0  0  0
   32.8878    9.5311   25.5827 H   0  0  0  0  0  0  0  0  0  0  0  0
   32.6981    9.9523   23.1166 H   0  0  0  0  0  0  0  0  0  0  0  0
   31.0973   11.7064   22.2799 H   0  0  0  0  0  0  0  0  0  0  0  0
   29.6607   12.9675   23.9061 H   0  0  0  0  0  0  0  0  0  0  0  0
   29.9880   12.6739   26.3820 H   0  0  0  0  0  0  0  0  0  0  0  0
  1  2  1  0
  2  3  2  3
  2  4  1  0
  4  5  1  0
  5  6  2  0
  5 10  1  0
  6  7  1  0
  7  8  2  0
  8  9  1  0
  8 11  1  0
  9 10  2  0
 11 12  1  0
 12 13  1  0
 13 14  2  0
 13 15  1  0
 15 16  1  0
 15 17  1  0
 17 18  1  0
 18 19  1  0
 18 23  2  0
 19 20  1  0
 19 22  1  0
 20 21  1  0
 22 25  1  0
 24 25  2  0
 25 26  2  0
 25 27  1  0
 27 28  1  0
 28 29  2  0
 28 33  1  0
 29 30  1  0
 30 31  2  0
 31 32  1  0
 32 33  2  0
  1 34  1  0
  1 35  1  0
  3 36  1  0
  4 37  1  0
  6 38  1  0
  7 39  1  0
  9 40  1  0
 10 41  1  0
 11 42  1  0
 11 43  1  0
 12 44  1  0
 15 45  1  0
 16 46  1  0
 16 47  1  0
 16 48  1  0
 17 49  1  0
 19 50  1  0
 20 51  1  0
 20 52  1  0
 21 53  1  0
 22 54  1  0
 27 55  1  0
 27 56  1  0
 29 57  1  0
 30 58  1  0
 31 59  1  0
 32 60  1  0
 33 61  1  0
A    1
N6
A    2
C18
A    3
N5
A    4
N4
A    5
C14
A    6
C13
A    7
C12
A    8
C17
A    9
C16
A   10
C15
A   11
C11
A   12
N3
A   13
C10
A   14
O5
A   15
C8
A   16
C22
A   17
N2
A   18
C7
A   19
C5
A   20
C6
A   21
O3
A   22
N1
A   23
O4
A   24
O2
A   25
S1
A   26
O1
A   27
C1
A   28
C4
A   29
C19
A   30
C20
A   31
C21
A   32
C2
A   33
C3
M  END
