1W19_T2P_B_1163
     RDKit          3D

 50 51  0  0  0  0  0  0  0  0999 V2000
   -5.3910   13.3380    9.0510 O   0  0  0  0  0  0  0  0  0  0  0  0
   -6.1490   14.6280    9.1500 P   0  0  0  0  0  0  0  0  0  0  0  0
   -5.5940   15.6030   10.1380 O   0  0  0  0  0  0  0  0  0  0  0  0
   -6.4760   15.2520    7.8360 O   0  0  0  0  0  0  0  0  0  0  0  0
   -7.5950   14.2590    9.7900 O   0  0  0  0  0  0  0  0  0  0  0  0
   -8.4940   13.3480    9.1460 C   0  0  0  0  0  0  0  0  0  0  0  0
   -9.6890   13.0570   10.0490 C   0  0  0  0  0  0  0  0  0  0  0  0
  -10.4030   14.3740   10.1910 C   0  0  0  0  0  0  0  0  0  0  0  0
  -11.4140   14.4610   11.2280 N   0  0  0  0  0  0  0  0  0  0  0  0
  -11.2530   14.8350   12.5080 C   0  0  0  0  0  0  0  0  0  0  0  0
  -10.0900   15.0880   12.9990 O   0  0  0  0  0  0  0  0  0  0  0  0
  -12.7320   14.3020   11.1080 C   0  0  0  0  0  0  0  0  0  0  0  0
  -13.7170   13.9420   10.0630 C   0  0  0  0  0  0  0  0  0  0  0  0
  -13.3170   13.6820    8.9090 O   0  0  0  0  0  0  0  0  0  0  0  0
  -15.0230   13.8930   10.3760 N   0  0  0  0  0  0  0  0  0  0  0  0
  -15.5080   14.1440   11.6150 C   0  0  0  0  0  0  0  0  0  0  0  0
  -16.7360   14.0690   11.8150 O   0  0  0  0  0  0  0  0  0  0  0  0
  -13.3090   14.5760   12.4160 C   0  0  0  0  0  0  0  0  0  0  0  0
  -14.7210   14.4880   12.6410 N   0  0  0  0  0  0  0  0  0  0  0  0
  -12.3530   14.8790   13.2720 N   0  0  0  0  0  0  0  0  0  0  0  0
  -12.3840   15.3160   14.6440 C   0  0  0  0  0  0  0  0  0  0  0  0
  -13.1800   14.6380   15.7510 C   0  0  0  0  0  0  0  0  0  0  0  0
  -14.4500   14.1160   15.3720 O   0  0  0  0  0  0  0  0  0  0  0  0
  -13.1840   15.8560   16.6870 C   0  0  0  0  0  0  0  0  0  0  0  0
  -14.4980   16.3200   16.9600 O   0  0  0  0  0  0  0  0  0  0  0  0
  -12.2490   15.7260   17.8920 C   0  0  0  0  0  0  0  0  0  0  0  0
  -11.1490   14.8730   17.6020 O   0  0  0  0  0  0  0  0  0  0  0  0
  -12.9630   15.1780   19.1060 C   0  0  0  0  0  0  0  0  0  0  0  0
  -12.9750   16.1670   20.0970 O   0  0  0  0  0  0  0  0  0  0  0  0
   -5.1930   13.0010    9.9606 H   0  0  0  0  0  0  0  0  0  0  0  0
   -5.7767   15.2821   11.0566 H   0  0  0  0  0  0  0  0  0  0  0  0
   -8.8499   13.7933    8.2052 H   0  0  0  0  0  0  0  0  0  0  0  0
   -7.9633   12.4068    8.9400 H   0  0  0  0  0  0  0  0  0  0  0  0
  -10.3488   12.3079    9.5870 H   0  0  0  0  0  0  0  0  0  0  0  0
   -9.3801   12.6486   11.0225 H   0  0  0  0  0  0  0  0  0  0  0  0
   -9.6447   15.1429   10.4001 H   0  0  0  0  0  0  0  0  0  0  0  0
  -10.9481   14.5096    9.2452 H   0  0  0  0  0  0  0  0  0  0  0  0
  -15.6925   13.6509    9.6317 H   0  0  0  0  0  0  0  0  0  0  0  0
  -15.1206   14.6847   13.5697 H   0  0  0  0  0  0  0  0  0  0  0  0
  -11.3373   15.3013   14.9819 H   0  0  0  0  0  0  0  0  0  0  0  0
  -12.9413   16.2590   14.5430 H   0  0  0  0  0  0  0  0  0  0  0  0
  -12.7803   13.7000   16.1639 H   0  0  0  0  0  0  0  0  0  0  0  0
  -14.9739   13.9007   16.1839 H   0  0  0  0  0  0  0  0  0  0  0  0
  -12.7162   16.6825   16.1319 H   0  0  0  0  0  0  0  0  0  0  0  0
  -14.6342   16.3681   17.9394 H   0  0  0  0  0  0  0  0  0  0  0  0
  -11.8902   16.7428   18.1097 H   0  0  0  0  0  0  0  0  0  0  0  0
  -10.7433   14.5584   18.4485 H   0  0  0  0  0  0  0  0  0  0  0  0
  -13.9952   14.9074   18.8390 H   0  0  0  0  0  0  0  0  0  0  0  0
  -12.4454   14.2803   19.4750 H   0  0  0  0  0  0  0  0  0  0  0  0
  -12.9698   15.7395   20.9899 H   0  0  0  0  0  0  0  0  0  0  0  0
  1  2  1  0
  2  3  1  0
  2  4  2  0
  2  5  1  0
  5  6  1  0
  6  7  1  0
  7  8  1  0
  8  9  1  0
  9 10  1  0
  9 12  1  0
 10 11  2  0
 10 20  1  0
 12 13  1  0
 12 18  2  0
 13 14  2  0
 13 15  1  0
 15 16  1  0
 16 17  2  0
 16 19  1  0
 18 19  1  0
 18 20  1  0
 20 21  1  0
 21 22  1  0
 22 23  1  0
 22 24  1  0
 24 25  1  0
 24 26  1  0
 26 27  1  0
 26 28  1  0
 28 29  1  0
  1 30  1  0
  3 31  1  0
  6 32  1  0
  6 33  1  0
  7 34  1  0
  7 35  1  0
  8 36  1  0
  8 37  1  0
 15 38  1  0
 19 39  1  0
 21 40  1  0
 21 41  1  0
 22 42  1  0
 23 43  1  0
 24 44  1  0
 25 45  1  0
 26 46  1  0
 27 47  1  0
 28 48  1  0
 28 49  1  0
 29 50  1  0
A    1
O33
A    2
P
A    3
O31
A    4
O32
A    5
O27
A    6
C17
A    7
C16
A    8
C15
A    9
N5
A   10
C6
A   11
O6
A   12
C9
A   13
C4
A   14
O4
A   15
N3
A   16
C2
A   17
O2
A   18
C8
A   19
N1
A   20
N7
A   21
C10
A   22
C11
A   23
O19
A   24
C12
A   25
O21
A   26
C13
A   27
O23
A   28
C14
A   29
O26
M  END
