1W1P_GIO_A_1518
     RDKit          3D

 21 22  0  0  0  0  0  0  0  0999 V2000
   15.9870   43.6500  101.1850 O   0  0  0  0  0  0  0  0  0  0  0  0
   16.9460   43.5230  101.9460 C   0  0  0  0  0  0  0  0  0  0  0  0
   17.3080   44.6340  102.9360 C   0  0  0  0  0  0  0  0  0  0  0  0
   17.0650   46.0150  102.3230 C   0  0  0  0  0  0  0  0  0  0  0  0
   17.8910   46.8710  103.2870 C   0  0  0  0  0  0  0  0  0  0  0  0
   19.2180   46.1080  103.3300 C   0  0  0  0  0  0  0  0  0  0  0  0
   18.7570   44.7080  103.1820 N   0  0  0  0  0  0  0  0  0  0  0  0
   19.5130   43.5290  103.1500 C   0  0  0  0  0  0  0  0  0  0  0  0
   20.7240   43.5790  103.3540 O   0  0  0  0  0  0  0  0  0  0  0  0
   18.8510   42.1780  102.8620 C   0  0  0  0  0  0  0  0  0  0  0  0
   17.7320   42.3640  101.9090 N   0  0  0  0  0  0  0  0  0  0  0  0
   16.7093   44.4032  103.8295 H   0  0  0  0  0  0  0  0  0  0  0  0
   17.4430   46.0781  101.2919 H   0  0  0  0  0  0  0  0  0  0  0  0
   16.0081   46.3051  102.2288 H   0  0  0  0  0  0  0  0  0  0  0  0
   18.0285   47.8910  102.8988 H   0  0  0  0  0  0  0  0  0  0  0  0
   17.4237   47.0055  104.2737 H   0  0  0  0  0  0  0  0  0  0  0  0
   19.8787   46.4034  102.5016 H   0  0  0  0  0  0  0  0  0  0  0  0
   19.8123   46.2915  104.2373 H   0  0  0  0  0  0  0  0  0  0  0  0
   19.5928   41.4928  102.4259 H   0  0  0  0  0  0  0  0  0  0  0  0
   18.4640   41.7543  103.8004 H   0  0  0  0  0  0  0  0  0  0  0  0
   17.5298   41.6333  101.2118 H   0  0  0  0  0  0  0  0  0  0  0  0
  1  2  2  0
  2  3  1  0
  2 11  1  0
  3  4  1  0
  3  7  1  0
  4  5  1  0
  5  6  1  0
  6  7  1  0
  7  8  1  0
  8  9  2  0
  8 10  1  0
 10 11  1  0
  3 12  1  0
  4 13  1  0
  4 14  1  0
  5 15  1  0
  5 16  1  0
  6 17  1  0
  6 18  1  0
 10 19  1  0
 10 20  1  0
 11 21  1  0
A    1
OP
A    2
CP
A    3
CAP
A    4
CBP
A    5
CGP
A    6
CDP
A    7
NP
A    8
C
A    9
O
A   10
CA
A   11
N
M  END
