1W22_NHB_A_1378
     RDKit          3D

 41 43  0  0  0  0  0  0  0  0999 V2000
    0.0760   16.7330   26.0190 C   0  0  0  0  0  0  0  0  0  0  0  0
   -0.5380   17.4090   24.9680 C   0  0  0  0  0  0  0  0  0  0  0  0
    0.2230   17.6680   23.8330 C   0  0  0  0  0  0  0  0  0  0  0  0
    1.5680   17.2580   23.7770 C   0  0  0  0  0  0  0  0  0  0  0  0
    2.1420   16.6230   24.7980 N   0  0  0  0  0  0  0  0  0  0  0  0
    1.4250   16.3410   25.9190 C   0  0  0  0  0  0  0  0  0  0  0  0
    2.0230   15.6770   26.9930 C   0  0  0  0  0  0  0  0  0  0  0  0
    1.5490   15.9510   28.5730 S   0  0  0  0  0  0  0  0  0  0  0  0
    3.0260   14.7700   27.0280 C   0  0  0  0  0  0  0  0  0  0  0  0
    3.3760   14.3300   28.2650 C   0  0  0  0  0  0  0  0  0  0  0  0
    2.6550   14.8870   29.2430 C   0  0  0  0  0  0  0  0  0  0  0  0
    2.8020   14.5870   30.9670 S   0  0  0  0  0  0  0  0  0  0  0  0
    2.5870   15.8440   31.7380 O   0  0  0  0  0  0  0  0  0  0  0  0
    4.1650   14.0270   31.3020 O   0  0  0  0  0  0  0  0  0  0  0  0
    1.5790   13.5120   31.1630 N   0  0  0  0  0  0  0  0  0  0  0  0
    0.2250   14.0170   31.3970 C   0  0  0  0  0  0  0  0  0  0  0  0
    1.7900   12.1950   31.0620 C   0  0  0  0  0  0  0  0  0  0  0  0
    1.9010   11.4010   32.1890 C   0  0  0  0  0  0  0  0  0  0  0  0
    2.1070   10.0300   32.0740 C   0  0  0  0  0  0  0  0  0  0  0  0
    1.8930   11.5980   29.8170 C   0  0  0  0  0  0  0  0  0  0  0  0
    2.0970   10.2230   29.7070 C   0  0  0  0  0  0  0  0  0  0  0  0
    2.2150    9.4130   30.8330 C   0  0  0  0  0  0  0  0  0  0  0  0
    2.4840    7.8900   30.7090 C   0  0  0  0  0  0  0  0  0  0  0  0
    2.6220    7.3530   29.6230 O   0  0  0  0  0  0  0  0  0  0  0  0
    2.6130    7.2120   31.8290 N   0  0  0  0  0  0  0  0  0  0  0  0
    3.0030    5.9130   31.8090 O   0  0  0  0  0  0  0  0  0  0  0  0
   -0.4948   16.5042   26.9310 H   0  0  0  0  0  0  0  0  0  0  0  0
   -1.5889   17.7273   25.0331 H   0  0  0  0  0  0  0  0  0  0  0  0
   -0.2270   18.1940   22.9781 H   0  0  0  0  0  0  0  0  0  0  0  0
    2.1575   17.4660   22.8719 H   0  0  0  0  0  0  0  0  0  0  0  0
    3.5252   14.4123   26.1154 H   0  0  0  0  0  0  0  0  0  0  0  0
    4.1712   13.5911   28.4433 H   0  0  0  0  0  0  0  0  0  0  0  0
    0.0412   14.0856   32.4794 H   0  0  0  0  0  0  0  0  0  0  0  0
    0.1221   15.0140   30.9437 H   0  0  0  0  0  0  0  0  0  0  0  0
   -0.5057   13.3309   30.9437 H   0  0  0  0  0  0  0  0  0  0  0  0
    1.8256   11.8583   33.1866 H   0  0  0  0  0  0  0  0  0  0  0  0
    2.1862    9.4201   32.9860 H   0  0  0  0  0  0  0  0  0  0  0  0
    1.8133   12.2127   28.9083 H   0  0  0  0  0  0  0  0  0  0  0  0
    2.1663    9.7681   28.7079 H   0  0  0  0  0  0  0  0  0  0  0  0
    2.4160    7.6718   32.7294 H   0  0  0  0  0  0  0  0  0  0  0  0
    3.1018    5.5838   32.7374 H   0  0  0  0  0  0  0  0  0  0  0  0
  1  2  2  0
  1  6  1  0
  2  3  1  0
  3  4  2  0
  4  5  1  0
  5  6  2  0
  6  7  1  0
  7  8  1  0
  7  9  2  0
  8 11  1  0
  9 10  1  0
 10 11  2  0
 11 12  1  0
 12 13  2  0
 12 14  2  0
 12 15  1  0
 15 16  1  0
 15 17  1  0
 17 18  2  0
 17 20  1  0
 18 19  1  0
 19 22  2  0
 20 21  2  0
 21 22  1  0
 22 23  1  0
 23 24  2  0
 23 25  1  0
 25 26  1  0
  1 27  1  0
  2 28  1  0
  3 29  1  0
  4 30  1  0
  9 31  1  0
 10 32  1  0
 16 33  1  0
 16 34  1  0
 16 35  1  0
 18 36  1  0
 19 37  1  0
 20 38  1  0
 21 39  1  0
 25 40  1  0
 26 41  1  0
A    1
C7
A    2
C8
A    3
C9
A    4
C10
A    5
N11
A    6
C6
A    7
C4
A    8
S5
A    9
C3
A   10
C2
A   11
C1
A   12
S12
A   13
O13
A   14
O14
A   15
N15
A   16
C16
A   17
C17
A   18
C18
A   19
C19
A   20
C22
A   21
C21
A   22
C20
A   23
C23
A   24
O25
A   25
N24
A   26
O26
M  END
