1W2K_380_H_1258
     RDKit          3D

 57 59  0  0  0  0  0  0  0  0999 V2000
   30.3400    6.7100   15.0520 C   0  0  0  0  0  0  0  0  0  0  0  0
   29.3360    7.3050   15.7410 N   0  0  0  0  0  0  0  0  0  0  0  0
   31.0110    5.8030   15.7980 N   0  0  0  0  0  0  0  0  0  0  0  0
   30.5660    6.8970   13.6060 C   0  0  0  0  0  0  0  0  0  0  0  0
   29.7360    7.7560   12.8270 C   0  0  0  0  0  0  0  0  0  0  0  0
   29.7840    7.7520   11.4310 C   0  0  0  0  0  0  0  0  0  0  0  0
   30.6720    6.8820   10.7800 C   0  0  0  0  0  0  0  0  0  0  0  0
   30.9540    6.9830    9.3970 N   0  0  0  0  0  0  0  0  0  0  0  0
   32.1720    6.2720    8.8890 C   0  0  0  0  0  0  0  0  0  0  0  0
   32.0320    5.8400    7.4840 C   0  0  0  0  0  0  0  0  0  0  0  0
   31.6530    6.7080    6.5150 N   0  0  0  0  0  0  0  0  0  0  0  0
   31.8630    6.0460    5.1950 C   0  0  0  0  0  0  0  0  0  0  0  0
   33.0760    6.6070    4.5110 C   0  0  0  0  0  0  0  0  0  0  0  0
   32.8430    7.7450    3.7500 C   0  0  0  0  0  0  0  0  0  0  0  0
   33.8150    8.7260    3.6590 C   0  0  0  0  0  0  0  0  0  0  0  0
   35.0290    8.5640    4.3200 C   0  0  0  0  0  0  0  0  0  0  0  0
   35.2950    7.3990    5.0330 C   0  0  0  0  0  0  0  0  0  0  0  0
   34.3150    6.4170    5.1120 C   0  0  0  0  0  0  0  0  0  0  0  0
   32.3920    4.7420    7.0860 O   0  0  0  0  0  0  0  0  0  0  0  0
   33.5420    6.9460    9.1030 C   0  0  0  0  0  0  0  0  0  0  0  0
   33.8560    8.2680    8.7430 C   0  0  0  0  0  0  0  0  0  0  0  0
   35.1750    8.7390    8.8960 C   0  0  0  0  0  0  0  0  0  0  0  0
   35.5840    9.9840    8.4470 O   0  0  0  0  0  0  0  0  0  0  0  0
   34.6260   10.8800    7.8900 C   0  0  0  0  0  0  0  0  0  0  0  0
   36.1770    7.9160    9.4180 C   0  0  0  0  0  0  0  0  0  0  0  0
   37.3910    8.5160    9.7640 O   0  0  0  0  0  0  0  0  0  0  0  0
   38.3870    7.8460   10.5560 C   0  0  0  0  0  0  0  0  0  0  0  0
   34.5650    6.1410    9.6010 C   0  0  0  0  0  0  0  0  0  0  0  0
   35.8680    6.6030    9.7650 C   0  0  0  0  0  0  0  0  0  0  0  0
   31.5080    6.0460   11.5460 C   0  0  0  0  0  0  0  0  0  0  0  0
   31.4620    6.0530   12.9360 C   0  0  0  0  0  0  0  0  0  0  0  0
   29.3446    7.2999   16.7710 H   0  0  0  0  0  0  0  0  0  0  0  0
   28.5644    7.7623   15.2347 H   0  0  0  0  0  0  0  0  0  0  0  0
   31.7987    5.2809   15.3884 H   0  0  0  0  0  0  0  0  0  0  0  0
   29.0409    8.4385   13.3380 H   0  0  0  0  0  0  0  0  0  0  0  0
   29.1340    8.4223   10.8494 H   0  0  0  0  0  0  0  0  0  0  0  0
   30.3466    7.5235    8.7646 H   0  0  0  0  0  0  0  0  0  0  0  0
   32.1984    5.3988    9.5575 H   0  0  0  0  0  0  0  0  0  0  0  0
   31.2845    7.6583    6.6638 H   0  0  0  0  0  0  0  0  0  0  0  0
   32.0022    4.9659    5.3501 H   0  0  0  0  0  0  0  0  0  0  0  0
   30.9821    6.2284    4.5620 H   0  0  0  0  0  0  0  0  0  0  0  0
   31.8868    7.8666    3.2200 H   0  0  0  0  0  0  0  0  0  0  0  0
   33.6282    9.6327    3.0649 H   0  0  0  0  0  0  0  0  0  0  0  0
   35.7840    9.3629    4.2785 H   0  0  0  0  0  0  0  0  0  0  0  0
   36.2675    7.2574    5.5272 H   0  0  0  0  0  0  0  0  0  0  0  0
   34.5212    5.4824    5.6541 H   0  0  0  0  0  0  0  0  0  0  0  0
   33.0752    8.9320    8.3435 H   0  0  0  0  0  0  0  0  0  0  0  0
   34.0835   11.3874    8.7013 H   0  0  0  0  0  0  0  0  0  0  0  0
   35.1410   11.6281    7.2694 H   0  0  0  0  0  0  0  0  0  0  0  0
   33.9140   10.3161    7.2694 H   0  0  0  0  0  0  0  0  0  0  0  0
   38.1670    7.9940   11.6236 H   0  0  0  0  0  0  0  0  0  0  0  0
   38.3766    6.7706   10.3251 H   0  0  0  0  0  0  0  0  0  0  0  0
   39.3792    8.2610   10.3251 H   0  0  0  0  0  0  0  0  0  0  0  0
   34.3340    5.1010    9.8749 H   0  0  0  0  0  0  0  0  0  0  0  0
   36.6466    5.9369   10.1651 H   0  0  0  0  0  0  0  0  0  0  0  0
   32.2120    5.3735   11.0340 H   0  0  0  0  0  0  0  0  0  0  0  0
   32.1302    5.3948   13.5106 H   0  0  0  0  0  0  0  0  0  0  0  0
  1  2  1  0
  1  3  2  3
  1  4  1  0
  4  5  2  0
  4 31  1  0
  5  6  1  0
  6  7  2  0
  7  8  1  0
  7 30  1  0
  8  9  1  0
  9 10  1  0
  9 20  1  0
 10 11  1  0
 10 19  2  0
 11 12  1  0
 12 13  1  0
 13 14  2  0
 13 18  1  0
 14 15  1  0
 15 16  2  0
 16 17  1  0
 17 18  2  0
 20 21  2  0
 20 28  1  0
 21 22  1  0
 22 23  1  0
 22 25  2  0
 23 24  1  0
 25 26  1  0
 25 29  1  0
 26 27  1  0
 28 29  2  0
 30 31  2  0
  2 32  1  0
  2 33  1  0
  3 34  1  0
  5 35  1  0
  6 36  1  0
  8 37  1  0
  9 38  1  0
 11 39  1  0
 12 40  1  0
 12 41  1  0
 14 42  1  0
 15 43  1  0
 16 44  1  0
 17 45  1  0
 18 46  1  0
 21 47  1  0
 24 48  1  0
 24 49  1  0
 24 50  1  0
 27 51  1  0
 27 52  1  0
 27 53  1  0
 28 54  1  0
 29 55  1  0
 30 56  1  0
 31 57  1  0
A    1
C1
A    2
N1
A    3
N2
A    4
C2
A    5
C3
A    6
C4
A    7
C5
A    8
N3
A    9
C11
A   10
C22
A   11
N24
A   12
C25
A   13
C26
A   14
C27
A   15
C28
A   16
C29
A   17
C30
A   18
C31
A   19
O23
A   20
C12
A   21
C17
A   22
C19
A   23
O2
A   24
C24
A   25
C20
A   26
O3
A   27
C32
A   28
C16
A   29
C18
A   30
C6
A   31
C7
M  END
