1UOG_P1C_A_1311
     RDKit          3D

 43 44  0  0  0  0  0  0  0  0999 V2000
    0.6870    9.3320   50.3460 C   0  0  0  0  0  0  0  0  0  0  0  0
    0.3770    9.9960   51.6920 C   0  0  0  0  0  0  0  0  0  0  0  0
    0.9420   11.4410   51.8020 C   0  0  0  0  0  0  0  0  0  0  0  0
    0.9020   11.9960   53.2560 C   0  0  0  0  0  0  0  0  0  0  0  0
    2.1140   12.8300   53.7410 C   0  0  0  0  0  0  0  0  0  0  0  0
    1.9210   14.3250   54.0770 C   0  0  0  0  0  0  0  0  0  0  0  0
    3.0920   14.9980   54.3830 N   0  0  0  0  0  0  0  0  0  0  0  0
    4.0300   14.1940   55.2720 C   0  0  0  0  0  0  0  0  0  0  0  0
    4.5910   14.7250   56.5510 C   0  0  0  0  0  0  0  0  0  0  0  0
   -1.0560   10.1020   51.9410 N   0  0  0  0  0  0  0  0  0  0  0  0
    0.7790   14.7900   54.0620 O   0  0  0  0  0  0  0  0  0  0  0  0
    5.5280   14.0490   54.9520 C   0  0  0  0  0  0  0  0  0  0  0  0
    4.0120   15.1740   57.5390 O   0  0  0  0  0  0  0  0  0  0  0  0
    0.0290    9.4970   49.3690 O   0  0  0  0  0  0  0  0  0  0  0  0
    1.8120    8.7330   50.0970 O   0  0  0  0  0  0  0  0  0  0  0  0
    5.9890   14.5070   56.3040 N   0  0  0  0  0  0  0  0  0  0  0  0
    6.7190   15.7150   56.4010 C   0  0  0  0  0  0  0  0  0  0  0  0
    6.6890   16.2440   57.6180 C   0  0  0  0  0  0  0  0  0  0  0  0
    7.3830   16.3030   55.3880 C   0  0  0  0  0  0  0  0  0  0  0  0
    8.1210   17.5910   55.4870 C   0  0  0  0  0  0  0  0  0  0  0  0
    7.5540   15.8100   53.9910 C   0  0  0  0  0  0  0  0  0  0  0  0
    6.0220   15.6240   58.5890 O   0  0  0  0  0  0  0  0  0  0  0  0
    7.2400   17.2970   57.8690 O   0  0  0  0  0  0  0  0  0  0  0  0
    6.1490   14.8830   53.4570 S   0  0  0  0  0  0  0  0  0  0  0  0
    0.8599    9.3379   52.4293 H   0  0  0  0  0  0  0  0  0  0  0  0
    1.9861   11.4373   51.4560 H   0  0  0  0  0  0  0  0  0  0  0  0
    0.3085   12.0921   51.1817 H   0  0  0  0  0  0  0  0  0  0  0  0
    0.0095   12.6335   53.3401 H   0  0  0  0  0  0  0  0  0  0  0  0
    0.9058   11.1012   53.8958 H   0  0  0  0  0  0  0  0  0  0  0  0
    2.4936   12.3435   54.6516 H   0  0  0  0  0  0  0  0  0  0  0  0
    2.7838   12.8450   52.8686 H   0  0  0  0  0  0  0  0  0  0  0  0
    3.3064   15.9465   54.0434 H   0  0  0  0  0  0  0  0  0  0  0  0
    3.2829   13.3892   55.2068 H   0  0  0  0  0  0  0  0  0  0  0  0
   -1.2280   10.1147   52.9565 H   0  0  0  0  0  0  0  0  0  0  0  0
   -1.4140   10.9718   51.5212 H   0  0  0  0  0  0  0  0  0  0  0  0
    5.9001   13.0678   54.6221 H   0  0  0  0  0  0  0  0  0  0  0  0
    2.3859    8.4274   50.8435 H   0  0  0  0  0  0  0  0  0  0  0  0
    8.2686   17.8486   56.5462 H   0  0  0  0  0  0  0  0  0  0  0  0
    9.0993   17.4919   54.9940 H   0  0  0  0  0  0  0  0  0  0  0  0
    7.5408   18.3849   54.9940 H   0  0  0  0  0  0  0  0  0  0  0  0
    7.6892   16.6722   53.3214 H   0  0  0  0  0  0  0  0  0  0  0  0
    8.4343   15.1510   53.9623 H   0  0  0  0  0  0  0  0  0  0  0  0
    6.2320   15.8192   59.5366 H   0  0  0  0  0  0  0  0  0  0  0  0
  1  2  1  0
  1 14  2  0
  1 15  1  0
  2  3  1  0
  2 10  1  0
  3  4  1  0
  4  5  1  0
  5  6  1  0
  6  7  1  0
  6 11  2  0
  7  8  1  0
  8  9  1  0
  8 12  1  0
  9 13  2  0
  9 16  1  0
 12 16  1  0
 12 24  1  0
 16 17  1  0
 17 18  1  0
 17 19  2  0
 18 22  1  0
 18 23  2  0
 19 20  1  0
 19 21  1  0
 21 24  1  0
  2 25  1  0
  3 26  1  0
  3 27  1  0
  4 28  1  0
  4 29  1  0
  5 30  1  0
  5 31  1  0
  7 32  1  0
  8 33  1  0
 10 34  1  0
 10 35  1  0
 12 36  1  0
 15 37  1  0
 20 38  1  0
 20 39  1  0
 20 40  1  0
 21 41  1  0
 21 42  1  0
 22 43  1  0
A    1
C1
A    2
C2
A    3
C3
A    4
C4
A    5
C7
A    6
C10
A    7
N11
A    8
C12
A    9
C13
A   10
N14
A   11
O15
A   12
C16
A   13
O18
A   14
O19
A   15
O20
A   16
N29
A   17
C30
A   18
C31
A   19
C32
A   20
C33
A   21
C37
A   22
O42
A   23
O43
A   24
S
M  END
