1W4L_GL8_A_1540
     RDKit          3D

 76 81  0  0  0  0  0  0  0  0999 V2000
    2.5360   67.5520   63.2280 C   0  0  0  0  0  0  0  0  0  0  0  0
    2.7100   68.0920   62.0010 C   0  0  0  0  0  0  0  0  0  0  0  0
    4.1320   68.3020   61.4100 C   0  0  0  0  0  0  0  0  0  0  0  0
    5.2970   68.3180   62.5910 C   0  0  0  0  0  0  0  0  0  0  0  0
    5.0440   67.0660   63.5100 C   0  0  0  0  0  0  0  0  0  0  0  0
    3.6920   67.1980   64.2430 C   0  0  0  0  0  0  0  0  0  0  0  0
    4.4880   63.6460   63.6910 C   0  0  0  0  0  0  0  0  0  0  0  0
    3.6700   62.9440   64.6380 C   0  0  0  0  0  0  0  0  0  0  0  0
    2.8550   63.6770   65.5220 C   0  0  0  0  0  0  0  0  0  0  0  0
    1.9870   65.7690   66.5040 C   0  0  0  0  0  0  0  0  0  0  0  0
    2.2390   68.2480   66.1490 C   0  0  0  0  0  0  0  0  0  0  0  0
    3.6250   68.2300   65.4320 C   0  0  0  0  0  0  0  0  0  0  0  0
    4.4060   65.0350   63.6680 C   0  0  0  0  0  0  0  0  0  0  0  0
    3.5790   65.7690   64.5550 C   0  0  0  0  0  0  0  0  0  0  0  0
    2.8100   65.1200   65.4940 C   0  0  0  0  0  0  0  0  0  0  0  0
    5.7100   61.6650   63.0940 C   0  0  0  0  0  0  0  0  0  0  0  0
    1.0430   67.1130   68.1070 C   0  0  0  0  0  0  0  0  0  0  0  0
    2.0370   67.4500   69.2870 C   0  0  0  0  0  0  0  0  0  0  0  0
    3.3170   66.5040   69.3880 C   0  0  0  0  0  0  0  0  0  0  0  0
    2.8790   65.0570   69.6490 C   0  0  0  0  0  0  0  0  0  0  0  0
    4.1040   64.1260   69.7210 C   0  0  0  0  0  0  0  0  0  0  0  0
    3.6160   62.6360   69.6090 C   0  0  0  0  0  0  0  0  0  0  0  0
    3.0940   62.1600   71.0020 C   0  0  0  0  0  0  0  0  0  0  0  0
    1.7820   61.6910   70.6310 C   0  0  0  0  0  0  0  0  0  0  0  0
   -0.1760   61.7490   72.0520 C   0  0  0  0  0  0  0  0  0  0  0  0
   -0.9030   60.8300   72.7950 C   0  0  0  0  0  0  0  0  0  0  0  0
   -2.1520   60.9480   73.4290 C   0  0  0  0  0  0  0  0  0  0  0  0
   -2.6640   59.7760   74.0900 C   0  0  0  0  0  0  0  0  0  0  0  0
   -1.9120   58.5710   74.0890 C   0  0  0  0  0  0  0  0  0  0  0  0
   -0.6410   58.4900   73.4420 C   0  0  0  0  0  0  0  0  0  0  0  0
   -0.1780   59.6540   72.7990 C   0  0  0  0  0  0  0  0  0  0  0  0
    0.9650   59.8740   72.0410 C   0  0  0  0  0  0  0  0  0  0  0  0
    5.1150   65.8430   62.7910 O   0  0  0  0  0  0  0  0  0  0  0  0
    5.4730   63.0580   62.8690 O   0  0  0  0  0  0  0  0  0  0  0  0
    4.1590   67.1110   60.5120 O   0  0  0  0  0  0  0  0  0  0  0  0
   -0.4610   62.9940   71.8990 O   0  0  0  0  0  0  0  0  0  0  0  0
    1.9030   59.0260   71.8380 O   0  0  0  0  0  0  0  0  0  0  0  0
    1.7570   66.9850   66.8270 N   0  0  0  0  0  0  0  0  0  0  0  0
    0.9000   61.1240   71.6040 N   0  0  0  0  0  0  0  0  0  0  0  0
    1.5039   67.3420   63.5453 H   0  0  0  0  0  0  0  0  0  0  0  0
    1.8301   68.3878   61.4108 H   0  0  0  0  0  0  0  0  0  0  0  0
    4.3332   69.2573   60.9031 H   0  0  0  0  0  0  0  0  0  0  0  0
    6.2964   68.2556   62.1356 H   0  0  0  0  0  0  0  0  0  0  0  0
    5.2479   69.2484   63.1758 H   0  0  0  0  0  0  0  0  0  0  0  0
    5.8513   67.0415   64.2568 H   0  0  0  0  0  0  0  0  0  0  0  0
    3.6794   61.8446   64.6731 H   0  0  0  0  0  0  0  0  0  0  0  0
    2.2363   63.1360   66.2532 H   0  0  0  0  0  0  0  0  0  0  0  0
    1.4387   65.0511   67.1316 H   0  0  0  0  0  0  0  0  0  0  0  0
    2.2826   69.0326   66.9188 H   0  0  0  0  0  0  0  0  0  0  0  0
    1.5178   68.4060   65.3335 H   0  0  0  0  0  0  0  0  0  0  0  0
    4.3973   67.9654   66.1693 H   0  0  0  0  0  0  0  0  0  0  0  0
    3.7877   69.2314   65.0069 H   0  0  0  0  0  0  0  0  0  0  0  0
    5.7434   61.4688   64.1758 H   0  0  0  0  0  0  0  0  0  0  0  0
    4.8990   61.0770   62.6396 H   0  0  0  0  0  0  0  0  0  0  0  0
    6.6698   61.3783   62.6396 H   0  0  0  0  0  0  0  0  0  0  0  0
    0.5320   66.1645   68.3287 H   0  0  0  0  0  0  0  0  0  0  0  0
    0.3170   67.9347   68.0191 H   0  0  0  0  0  0  0  0  0  0  0  0
    2.3877   68.4838   69.1517 H   0  0  0  0  0  0  0  0  0  0  0  0
    1.4699   67.2964   70.2170 H   0  0  0  0  0  0  0  0  0  0  0  0
    3.8796   66.5499   68.4439 H   0  0  0  0  0  0  0  0  0  0  0  0
    3.9537   66.8444   70.2179 H   0  0  0  0  0  0  0  0  0  0  0  0
    2.3329   65.0107   70.6027 H   0  0  0  0  0  0  0  0  0  0  0  0
    2.2305   64.7277   68.8237 H   0  0  0  0  0  0  0  0  0  0  0  0
    4.7903   64.3534   68.8920 H   0  0  0  0  0  0  0  0  0  0  0  0
    4.6312   64.2756   70.6748 H   0  0  0  0  0  0  0  0  0  0  0  0
    2.8043   62.5694   68.8696 H   0  0  0  0  0  0  0  0  0  0  0  0
    4.4521   61.9965   69.2896 H   0  0  0  0  0  0  0  0  0  0  0  0
    3.7145   61.3516   71.4160 H   0  0  0  0  0  0  0  0  0  0  0  0
    3.1058   62.9289   71.7886 H   0  0  0  0  0  0  0  0  0  0  0  0
    1.2542   62.5516   70.1942 H   0  0  0  0  0  0  0  0  0  0  0  0
    2.0068   60.8337   69.9795 H   0  0  0  0  0  0  0  0  0  0  0  0
   -2.7134   61.8939   73.4205 H   0  0  0  0  0  0  0  0  0  0  0  0
   -3.6395   59.8138   74.5968 H   0  0  0  0  0  0  0  0  0  0  0  0
   -2.3163   57.6827   74.5964 H   0  0  0  0  0  0  0  0  0  0  0  0
   -0.0513   57.5614   73.4459 H   0  0  0  0  0  0  0  0  0  0  0  0
    4.1777   66.2859   61.0587 H   0  0  0  0  0  0  0  0  0  0  0  0
  1  2  2  0
  1  6  1  0
  2  3  1  0
  3  4  1  0
  3 35  1  0
  4  5  1  0
  5  6  1  0
  5 33  1  0
  6 12  1  0
  6 14  1  0
  7  8  2  0
  7 13  1  0
  7 34  1  0
  8  9  1  0
  9 15  2  0
 10 15  1  0
 10 38  2  0
 11 12  1  0
 11 38  1  0
 13 14  2  0
 13 33  1  0
 14 15  1  0
 16 34  1  0
 17 18  1  0
 17 38  1  0
 18 19  1  0
 19 20  1  0
 20 21  1  0
 21 22  1  0
 22 23  1  0
 23 24  1  0
 24 39  1  0
 25 26  1  0
 25 36  2  0
 25 39  1  0
 26 27  2  0
 26 31  1  0
 27 28  1  0
 28 29  2  0
 29 30  1  0
 30 31  2  0
 31 32  1  0
 32 37  2  0
 32 39  1  0
  1 40  1  0
  2 41  1  0
  3 42  1  0
  4 43  1  0
  4 44  1  0
  5 45  1  0
  8 46  1  0
  9 47  1  0
 10 48  1  0
 11 49  1  0
 11 50  1  0
 12 51  1  0
 12 52  1  0
 16 53  1  0
 16 54  1  0
 16 55  1  0
 17 56  1  0
 17 57  1  0
 18 58  1  0
 18 59  1  0
 19 60  1  0
 19 61  1  0
 20 62  1  0
 20 63  1  0
 21 64  1  0
 21 65  1  0
 22 66  1  0
 22 67  1  0
 23 68  1  0
 23 69  1  0
 24 70  1  0
 24 71  1  0
 27 72  1  0
 28 73  1  0
 29 74  1  0
 30 75  1  0
 35 76  1  0
M  CHG  1  38   1
A    1
C1
A    2
C2
A    3
C3
A    4
C4
A    5
C5
A    6
C6
A    7
C7
A    8
C8
A    9
C9
A   10
C10
A   11
C11
A   12
C12
A   13
C13
A   14
C14
A   15
C15
A   16
C16
A   17
C17
A   18
C18
A   19
C19
A   20
C20
A   21
C21
A   22
C22
A   23
C23
A   24
C24
A   25
C25
A   26
C26
A   27
C27
A   28
C28
A   29
C29
A   30
C30
A   31
C31
A   32
C32
A   33
O1
A   34
O2
A   35
O3
A   36
O25
A   37
O32
A   38
N1
A   39
N2
M  END
