1W4Q_UMF_A_1125
     RDKit          3D

 33 34  0  0  0  0  0  0  0  0999 V2000
   36.2250   -2.3660   12.1580 N   0  0  0  0  0  0  0  0  0  0  0  0
   35.0290   -2.5550   11.4210 C   0  0  0  0  0  0  0  0  0  0  0  0
   34.7000   -1.7980   10.5870 O   0  0  0  0  0  0  0  0  0  0  0  0
   34.3270   -3.7120   11.7940 N   0  0  0  0  0  0  0  0  0  0  0  0
   34.6750   -4.6670   12.7960 C   0  0  0  0  0  0  0  0  0  0  0  0
   33.9250   -5.6050   12.9580 O   0  0  0  0  0  0  0  0  0  0  0  0
   35.9240   -4.3900   13.5180 C   0  0  0  0  0  0  0  0  0  0  0  0
   36.6450   -3.2830   13.1940 C   0  0  0  0  0  0  0  0  0  0  0  0
   39.2530   -0.4990   15.5460 O   0  0  0  0  0  0  0  0  0  0  0  0
   40.0020   -0.1650   14.2100 C   0  0  0  0  0  0  0  0  0  0  0  0
   38.7750    0.1200   13.3080 C   0  0  0  0  0  0  0  0  0  0  0  0
   38.4020   -1.1420   12.9600 O   0  0  0  0  0  0  0  0  0  0  0  0
   37.6410    1.0610   13.2010 C   0  0  0  0  0  0  0  0  0  0  0  0
   37.5420    2.5320   12.9110 O   0  0  0  0  0  0  0  0  0  0  0  0
   36.5030    0.3120   12.3010 C   0  0  0  0  0  0  0  0  0  0  0  0
   36.2460    1.3130   11.5430 F   0  0  0  0  0  0  0  0  0  0  0  0
   37.1740   -1.1150   11.8700 C   0  0  0  0  0  0  0  0  0  0  0  0
   35.4680    3.1250   13.5200 O   0  0  0  0  0  0  0  0  0  0  0  0
   37.0160    3.5030   13.6300 P   0  0  0  0  0  0  0  0  0  0  0  0
   37.3410    3.6810   15.0910 O   0  0  0  0  0  0  0  0  0  0  0  0
   37.4710    4.6660   12.8340 O   0  0  0  0  0  0  0  0  0  0  0  0
   33.4526   -3.8943   11.2811 H   0  0  0  0  0  0  0  0  0  0  0  0
   36.2717   -5.0691   14.3105 H   0  0  0  0  0  0  0  0  0  0  0  0
   37.5788   -3.0786   13.7383 H   0  0  0  0  0  0  0  0  0  0  0  0
   39.8218   -0.2453   16.3155 H   0  0  0  0  0  0  0  0  0  0  0  0
   40.6528    0.7160   14.3113 H   0  0  0  0  0  0  0  0  0  0  0  0
   40.6867   -0.9444   13.8443 H   0  0  0  0  0  0  0  0  0  0  0  0
   39.2379    0.9995   12.8367 H   0  0  0  0  0  0  0  0  0  0  0  0
   37.6334    1.2492   14.2848 H   0  0  0  0  0  0  0  0  0  0  0  0
   35.5292   -0.0819   12.6273 H   0  0  0  0  0  0  0  0  0  0  0  0
   37.4222   -1.1853   10.8007 H   0  0  0  0  0  0  0  0  0  0  0  0
   35.0857    3.0317   14.4284 H   0  0  0  0  0  0  0  0  0  0  0  0
   36.6186    3.2854   15.6403 H   0  0  0  0  0  0  0  0  0  0  0  0
  1  2  1  0
  1  8  1  0
  1 17  1  0
  2  3  2  0
  2  4  1  0
  4  5  1  0
  5  6  2  0
  5  7  1  0
  7  8  2  0
  9 10  1  0
 10 11  1  0
 11 12  1  0
 11 13  1  0
 12 17  1  0
 13 14  1  0
 13 15  1  0
 14 19  1  0
 15 16  1  0
 15 17  1  0
 18 19  1  0
 19 20  1  0
 19 21  2  0
  4 22  1  0
  7 23  1  0
  8 24  1  0
  9 25  1  0
 10 26  1  0
 10 27  1  0
 11 28  1  0
 13 29  1  0
 15 30  1  0
 17 31  1  0
 18 32  1  0
 20 33  1  0
A    1
N1
A    2
C2
A    3
O2
A    4
N3
A    5
C4
A    6
O4
A    7
C5
A    8
C6
A    9
O5'
A   10
C5'
A   11
C4'
A   12
O4'
A   13
C3'
A   14
O3'
A   15
C2'
A   16
F2'
A   17
C1'
A   18
O3P
A   19
P
A   20
O1P
A   21
O2P
M  END
