1W6H_TIT_A_1330
     RDKit          3D

 91 92  0  0  0  0  0  0  0  0999 V2000
   14.2640    6.8750   19.9020 C   0  0  0  0  0  0  0  0  0  0  0  0
   13.7890    8.2290   19.9480 C   0  0  0  0  0  0  0  0  0  0  0  0
   14.0280    9.1180   18.8510 C   0  0  0  0  0  0  0  0  0  0  0  0
   14.7430    8.6620   17.6970 C   0  0  0  0  0  0  0  0  0  0  0  0
   15.2170    7.3120   17.6370 C   0  0  0  0  0  0  0  0  0  0  0  0
   14.9730    6.4280   18.7380 C   0  0  0  0  0  0  0  0  0  0  0  0
   14.1040    5.9980   21.0050 C   0  0  0  0  0  0  0  0  0  0  0  0
   12.5740    5.4380   22.8140 C   0  0  0  0  0  0  0  0  0  0  0  0
   12.8720    6.1410   21.6480 O   0  0  0  0  0  0  0  0  0  0  0  0
   15.0000    9.6050   16.5400 Br  0  0  0  0  0  0  0  0  0  0  0  0
   12.2500    6.3350   23.8870 C   0  0  0  0  0  0  0  0  0  0  0  0
   11.4420    5.6770   24.8960 C   0  0  0  0  0  0  0  0  0  0  0  0
   10.9070    6.5970   25.8690 C   0  0  0  0  0  0  0  0  0  0  0  0
    9.7050    7.2010   25.4400 C   0  0  0  0  0  0  0  0  0  0  0  0
    9.7560    8.4300   24.8620 O   0  0  0  0  0  0  0  0  0  0  0  0
   12.2070    4.7630   25.5740 O   0  0  0  0  0  0  0  0  0  0  0  0
    3.7740   10.0710   28.1230 N   0  0  0  0  0  0  0  0  0  0  0  0
   13.3970    6.8510   24.4110 N   0  0  0  0  0  0  0  0  0  0  0  0
    6.0460    9.0780   25.7220 N   0  0  0  0  0  0  0  0  0  0  0  0
    5.5330   10.0410   26.5260 C   0  0  0  0  0  0  0  0  0  0  0  0
    5.4980   11.2590   25.8510 C   0  0  0  0  0  0  0  0  0  0  0  0
    6.4320   12.1360   26.4170 C   0  0  0  0  0  0  0  0  0  0  0  0
    7.2770   12.6290   25.4230 C   0  0  0  0  0  0  0  0  0  0  0  0
    5.7760   13.2050   27.0540 C   0  0  0  0  0  0  0  0  0  0  0  0
    4.2390    9.6740   26.9320 C   0  0  0  0  0  0  0  0  0  0  0  0
    3.4520    8.9040   26.1080 O   0  0  0  0  0  0  0  0  0  0  0  0
    8.5090    6.5850   25.6400 N   0  0  0  0  0  0  0  0  0  0  0  0
    7.3150    7.1340   25.2760 C   0  0  0  0  0  0  0  0  0  0  0  0
    6.3240    6.1300   25.1810 C   0  0  0  0  0  0  0  0  0  0  0  0
    6.8750    8.1260   26.1710 C   0  0  0  0  0  0  0  0  0  0  0  0
    7.2510    8.1040   27.4860 O   0  0  0  0  0  0  0  0  0  0  0  0
   15.7150    9.1100   23.7350 N   0  0  0  0  0  0  0  0  0  0  0  0
   14.9870    8.6100   24.7720 C   0  0  0  0  0  0  0  0  0  0  0  0
   14.7300    9.6360   25.7780 C   0  0  0  0  0  0  0  0  0  0  0  0
   14.1080    9.1060   26.9140 C   0  0  0  0  0  0  0  0  0  0  0  0
   15.9100   10.2630   26.2060 C   0  0  0  0  0  0  0  0  0  0  0  0
   13.7750    8.1310   24.2140 C   0  0  0  0  0  0  0  0  0  0  0  0
   13.0020    8.9670   23.4720 O   0  0  0  0  0  0  0  0  0  0  0  0
   17.4720    8.8050   22.0370 C   0  0  0  0  0  0  0  0  0  0  0  0
   17.5300   10.1250   20.0540 C   0  0  0  0  0  0  0  0  0  0  0  0
   18.5230    9.2800   19.4950 C   0  0  0  0  0  0  0  0  0  0  0  0
   18.4650    7.9480   21.4990 C   0  0  0  0  0  0  0  0  0  0  0  0
   18.9740    8.2150   20.2090 C   0  0  0  0  0  0  0  0  0  0  0  0
   16.8870    8.5860   23.2980 C   0  0  0  0  0  0  0  0  0  0  0  0
   17.4320    7.4850   23.9110 O   0  0  0  0  0  0  0  0  0  0  0  0
   17.0340    9.8710   21.3010 N   0  0  0  0  0  0  0  0  0  0  0  0
   13.2383    8.5856   20.8309 H   0  0  0  0  0  0  0  0  0  0  0  0
   13.6613   10.1542   18.8949 H   0  0  0  0  0  0  0  0  0  0  0  0
   15.7646    6.9561   16.7519 H   0  0  0  0  0  0  0  0  0  0  0  0
   15.3351    5.3904   18.6898 H   0  0  0  0  0  0  0  0  0  0  0  0
   14.1918    4.9627   20.6440 H   0  0  0  0  0  0  0  0  0  0  0  0
   14.8858    6.2481   21.7373 H   0  0  0  0  0  0  0  0  0  0  0  0
   11.7151    4.7770   22.6259 H   0  0  0  0  0  0  0  0  0  0  0  0
   13.4570    4.8495   23.1037 H   0  0  0  0  0  0  0  0  0  0  0  0
   11.6449    7.1646   23.4925 H   0  0  0  0  0  0  0  0  0  0  0  0
   10.6061    5.1994   24.3639 H   0  0  0  0  0  0  0  0  0  0  0  0
   10.7125    6.0489   26.8027 H   0  0  0  0  0  0  0  0  0  0  0  0
   11.6484    7.3963   26.0154 H   0  0  0  0  0  0  0  0  0  0  0  0
   12.0949    4.8969   26.5485 H   0  0  0  0  0  0  0  0  0  0  0  0
    4.1986    9.7085   28.9885 H   0  0  0  0  0  0  0  0  0  0  0  0
    2.9916   10.7390   28.1738 H   0  0  0  0  0  0  0  0  0  0  0  0
   13.9995    6.2395   24.9802 H   0  0  0  0  0  0  0  0  0  0  0  0
    5.7880    9.0780   24.7248 H   0  0  0  0  0  0  0  0  0  0  0  0
    6.1723   10.1506   27.4144 H   0  0  0  0  0  0  0  0  0  0  0  0
    5.7430   11.0974   24.7909 H   0  0  0  0  0  0  0  0  0  0  0  0
    4.4911   11.6940   25.9337 H   0  0  0  0  0  0  0  0  0  0  0  0
    7.0251   11.5879   27.1639 H   0  0  0  0  0  0  0  0  0  0  0  0
    8.1376   13.1311   25.8891 H   0  0  0  0  0  0  0  0  0  0  0  0
    7.6325   11.7966   24.7979 H   0  0  0  0  0  0  0  0  0  0  0  0
    6.7273   13.3481   24.7979 H   0  0  0  0  0  0  0  0  0  0  0  0
    5.8506   13.0834   28.1447 H   0  0  0  0  0  0  0  0  0  0  0  0
    6.2477   14.1535   26.7577 H   0  0  0  0  0  0  0  0  0  0  0  0
    4.7167   13.2140   26.7577 H   0  0  0  0  0  0  0  0  0  0  0  0
    8.5049    5.6579   26.0886 H   0  0  0  0  0  0  0  0  0  0  0  0
    7.4766    7.6107   24.2979 H   0  0  0  0  0  0  0  0  0  0  0  0
    6.0181    5.8200   26.1911 H   0  0  0  0  0  0  0  0  0  0  0  0
    5.4523    6.5254   24.6390 H   0  0  0  0  0  0  0  0  0  0  0  0
    6.7307    5.2635   24.6390 H   0  0  0  0  0  0  0  0  0  0  0  0
   15.3507    9.9424   23.2499 H   0  0  0  0  0  0  0  0  0  0  0  0
   15.5333    7.8045   25.2845 H   0  0  0  0  0  0  0  0  0  0  0  0
   14.0711   10.3665   25.2859 H   0  0  0  0  0  0  0  0  0  0  0  0
   14.5858    9.5132   27.8173 H   0  0  0  0  0  0  0  0  0  0  0  0
   13.0421    9.3777   26.9088 H   0  0  0  0  0  0  0  0  0  0  0  0
   14.2071    8.0105   26.9088 H   0  0  0  0  0  0  0  0  0  0  0  0
   15.9390   10.2784   27.3055 H   0  0  0  0  0  0  0  0  0  0  0  0
   16.7795    9.7079   25.8240 H   0  0  0  0  0  0  0  0  0  0  0  0
   15.9366   11.2942   25.8240 H   0  0  0  0  0  0  0  0  0  0  0  0
   17.1583   10.9875   19.4813 H   0  0  0  0  0  0  0  0  0  0  0  0
   18.9248    9.4851   18.4917 H   0  0  0  0  0  0  0  0  0  0  0  0
   18.8334    7.0881   22.0776 H   0  0  0  0  0  0  0  0  0  0  0  0
   19.7419    7.5555   19.7784 H   0  0  0  0  0  0  0  0  0  0  0  0
  1  2  2  0
  1  6  1  0
  1  7  1  0
  2  3  1  0
  3  4  2  0
  4  5  1  0
  4 10  1  0
  5  6  2  0
  7  9  1  0
  8  9  1  0
  8 11  1  0
 11 12  1  0
 11 18  1  0
 12 13  1  0
 12 16  1  0
 13 14  1  0
 14 15  2  0
 14 27  1  0
 17 25  1  0
 18 37  1  0
 19 20  1  0
 19 30  1  0
 20 21  1  0
 20 25  1  0
 21 22  1  0
 22 23  1  0
 22 24  1  0
 25 26  2  0
 27 28  1  0
 28 29  1  0
 28 30  1  0
 30 31  2  0
 32 33  1  0
 32 44  1  0
 33 34  1  0
 33 37  1  0
 34 35  1  0
 34 36  1  0
 37 38  2  0
 39 42  1  0
 39 44  1  0
 39 46  2  0
 40 41  2  0
 40 46  1  0
 41 43  1  0
 42 43  2  0
 44 45  2  0
  2 47  1  0
  3 48  1  0
  5 49  1  0
  6 50  1  0
  7 51  1  0
  7 52  1  0
  8 53  1  0
  8 54  1  0
 11 55  1  0
 12 56  1  0
 13 57  1  0
 13 58  1  0
 16 59  1  0
 17 60  1  0
 17 61  1  0
 18 62  1  0
 19 63  1  0
 20 64  1  0
 21 65  1  0
 21 66  1  0
 22 67  1  0
 23 68  1  0
 23 69  1  0
 23 70  1  0
 24 71  1  0
 24 72  1  0
 24 73  1  0
 27 74  1  0
 28 75  1  0
 29 76  1  0
 29 77  1  0
 29 78  1  0
 32 79  1  0
 33 80  1  0
 34 81  1  0
 35 82  1  0
 35 83  1  0
 35 84  1  0
 36 85  1  0
 36 86  1  0
 36 87  1  0
 40 88  1  0
 41 89  1  0
 42 90  1  0
 43 91  1  0
A    1
C22
A    2
C23
A    3
C24
A    4
C25
A    5
C26
A    6
C27
A    7
C21
A    8
C20
A    9
O07
A   10
BR
A   11
C08
A   12
C07
A   13
C06
A   14
C05
A   15
O03
A   16
O04
A   17
N01
A   18
N04
A   19
N02
A   20
C02
A   21
C29
A   22
C30
A   23
C31
A   24
C32
A   25
C01
A   26
O01
A   27
N03
A   28
C04
A   29
C28
A   30
C03
A   31
O02
A   32
N05
A   33
C10
A   34
C17
A   35
C18
A   36
C19
A   37
C09
A   38
O05
A   39
C12
A   40
C16
A   41
C15
A   42
C13
A   43
C14
A   44
C11
A   45
O06
A   46
N06
M  END
