1W78_PD8_A_1421
     RDKit          3D

 40 42  0  0  0  0  0  0  0  0999 V2000
   -8.6850   16.0140   23.9100 O   0  0  0  0  0  0  0  0  0  0  0  0
   -7.4900   16.2110   23.7080 C   0  0  0  0  0  0  0  0  0  0  0  0
   -7.0690   17.0500   22.6580 N   0  0  0  0  0  0  0  0  0  0  0  0
   -5.7520   17.2930   22.3780 C   0  0  0  0  0  0  0  0  0  0  0  0
   -5.5500   18.1250   21.3150 N   0  0  0  0  0  0  0  0  0  0  0  0
   -4.7550   16.7740   23.0430 N   0  0  0  0  0  0  0  0  0  0  0  0
   -5.0470   15.9510   24.0830 C   0  0  0  0  0  0  0  0  0  0  0  0
   -4.0660   15.3420   24.8360 N   0  0  0  0  0  0  0  0  0  0  0  0
   -4.3740   14.5200   25.9130 C   0  0  0  0  0  0  0  0  0  0  0  0
   -5.7150   14.2930   26.2600 C   0  0  0  0  0  0  0  0  0  0  0  0
   -6.1440   13.4220   27.4320 C   0  0  0  0  0  0  0  0  0  0  0  0
   -5.4190   13.6970   28.6760 N   0  0  0  0  0  0  0  0  0  0  0  0
   -4.3650   12.7920   29.0490 C   0  0  0  0  0  0  0  0  0  0  0  0
   -3.4830   13.0520   30.1310 C   0  0  0  0  0  0  0  0  0  0  0  0
   -2.4890   12.1270   30.4380 C   0  0  0  0  0  0  0  0  0  0  0  0
   -2.3370   10.9290   29.7090 C   0  0  0  0  0  0  0  0  0  0  0  0
   -1.2370   10.0190   30.0970 C   0  0  0  0  0  0  0  0  0  0  0  0
   -1.1310    8.9000   29.6360 O   0  0  0  0  0  0  0  0  0  0  0  0
   -3.2030   10.6440   28.6230 C   0  0  0  0  0  0  0  0  0  0  0  0
   -4.2020   11.5610   28.3070 C   0  0  0  0  0  0  0  0  0  0  0  0
   -6.6630   14.8470   25.5150 N   0  0  0  0  0  0  0  0  0  0  0  0
   -6.3560   15.6410   24.4720 C   0  0  0  0  0  0  0  0  0  0  0  0
    1.0400    9.9270   31.4120 P   0  0  0  0  0  0  0  0  0  0  0  0
    1.6250    9.1140   30.2670 O   0  0  0  0  0  0  0  0  0  0  0  0
    0.7940    9.0550   32.6050 O   0  0  0  0  0  0  0  0  0  0  0  0
    2.0510   11.0990   31.8140 O   0  0  0  0  0  0  0  0  0  0  0  0
   -0.3430   10.6510   31.0050 O   0  0  0  0  0  0  0  0  0  0  0  0
   -7.7865   17.5020   22.0733 H   0  0  0  0  0  0  0  0  0  0  0  0
   -5.3099   19.1140   21.4734 H   0  0  0  0  0  0  0  0  0  0  0  0
   -5.6377   17.7638   20.3544 H   0  0  0  0  0  0  0  0  0  0  0  0
   -3.5677   14.0475   26.4932 H   0  0  0  0  0  0  0  0  0  0  0  0
   -7.2162   13.5886   27.6125 H   0  0  0  0  0  0  0  0  0  0  0  0
   -5.9177   12.3818   27.1550 H   0  0  0  0  0  0  0  0  0  0  0  0
   -5.6560   14.5099   29.2625 H   0  0  0  0  0  0  0  0  0  0  0  0
   -3.5842   13.9751   30.7207 H   0  0  0  0  0  0  0  0  0  0  0  0
   -1.8031   12.3361   31.2722 H   0  0  0  0  0  0  0  0  0  0  0  0
   -3.0879    9.7172   28.0419 H   0  0  0  0  0  0  0  0  0  0  0  0
   -4.8845   11.3439   27.4721 H   0  0  0  0  0  0  0  0  0  0  0  0
    2.1622    8.3674   30.6332 H   0  0  0  0  0  0  0  0  0  0  0  0
    2.1064   11.1632   32.8004 H   0  0  0  0  0  0  0  0  0  0  0  0
  1  2  2  0
  2  3  1  0
  2 22  1  0
  3  4  1  0
  4  5  1  0
  4  6  2  0
  6  7  1  0
  7  8  1  0
  7 22  2  0
  8  9  2  0
  9 10  1  0
 10 11  1  0
 10 21  2  0
 11 12  1  0
 12 13  1  0
 13 14  2  0
 13 20  1  0
 14 15  1  0
 15 16  2  0
 16 17  1  0
 16 19  1  0
 17 18  2  0
 17 27  1  0
 19 20  2  0
 21 22  1  0
 23 24  1  0
 23 25  2  0
 23 26  1  0
 23 27  1  0
  3 28  1  0
  5 29  1  0
  5 30  1  0
  9 31  1  0
 11 32  1  0
 11 33  1  0
 12 34  1  0
 14 35  1  0
 15 36  1  0
 19 37  1  0
 20 38  1  0
 24 39  1  0
 26 40  1  0
A    1
O1
A    2
C2
A    3
N3
A    4
C4
A    5
N5
A    6
N6
A    7
C7
A    8
N8
A    9
C9
A   10
C10
A   11
C11
A   12
N12
A   13
C13
A   14
C14
A   15
C15
A   16
C16
A   17
C17
A   18
O19
A   19
C20
A   20
C21
A   21
N22
A   22
C23
A   23
P23
A   24
O24
A   25
O25
A   26
O26
A   27
O27
M  END
