1AI3_ICT_A_418
     RDKit          3D

 21 20  0  0  0  0  0  0  0  0999 V2000
  -83.7780  -65.3300    3.5890 C   0  0  0  0  0  0  0  0  0  0  0  0
  -84.2850  -64.3660    4.2030 O   0  0  0  0  0  0  0  0  0  0  0  0
  -83.4750  -66.4080    4.1000 O   0  0  0  0  0  0  0  0  0  0  0  0
  -83.4690  -65.1300    2.1360 C   0  0  0  0  0  0  0  0  0  0  0  0
  -82.7520  -66.2410    1.5660 O   0  0  0  0  0  0  0  0  0  0  0  0
  -82.7370  -63.8800    1.9840 C   0  0  0  0  0  0  0  0  0  0  0  0
  -83.0070  -63.4410    0.5800 C   0  0  0  0  0  0  0  0  0  0  0  0
  -83.1610  -61.9450    0.5680 C   0  0  0  0  0  0  0  0  0  0  0  0
  -84.1990  -61.4430    0.1080 O   0  0  0  0  0  0  0  0  0  0  0  0
  -82.2990  -61.2370    1.0520 O   0  0  0  0  0  0  0  0  0  0  0  0
  -81.2030  -64.0860    2.2650 C   0  0  0  0  0  0  0  0  0  0  0  0
  -80.8130  -64.0160    3.4430 O   0  0  0  0  0  0  0  0  0  0  0  0
  -80.4490  -64.2260    1.2550 O   0  0  0  0  0  0  0  0  0  0  0  0
  -83.4495  -66.4989    5.0855 H   0  0  0  0  0  0  0  0  0  0  0  0
  -84.4149  -65.0743    1.5773 H   0  0  0  0  0  0  0  0  0  0  0  0
  -82.3873  -66.8061    2.2925 H   0  0  0  0  0  0  0  0  0  0  0  0
  -83.0584  -63.1145    2.7056 H   0  0  0  0  0  0  0  0  0  0  0  0
  -82.1671  -63.7326   -0.0678 H   0  0  0  0  0  0  0  0  0  0  0  0
  -83.9257  -63.9171    0.2068 H   0  0  0  0  0  0  0  0  0  0  0  0
  -82.2118  -61.1654    2.0355 H   0  0  0  0  0  0  0  0  0  0  0  0
  -79.4833  -64.4053    1.3792 H   0  0  0  0  0  0  0  0  0  0  0  0
  1  2  2  0
  1  3  1  0
  1  4  1  0
  4  5  1  0
  4  6  1  0
  6  7  1  0
  6 11  1  0
  7  8  1  0
  8  9  2  0
  8 10  1  0
 11 12  2  0
 11 13  1  0
  3 14  1  0
  4 15  1  0
  5 16  1  0
  6 17  1  0
  7 18  1  0
  7 19  1  0
 10 20  1  0
 13 21  1  0
A    1
C1
A    2
O1
A    3
O2
A    4
C2
A    5
O7
A    6
C3
A    7
C4
A    8
C5
A    9
O3
A   10
O4
A   11
C6
A   12
O5
A   13
O6
M  END
