1W8M_E1P_A_1166
     RDKit          3D

 28 28  0  0  0  0  0  0  0  0999 V2000
    5.9000   58.8910   51.3070 C   0  0  0  0  0  0  0  0  0  0  0  0
    6.6180   58.1530   50.1670 C   0  0  0  0  0  0  0  0  0  0  0  0
    5.8080   56.9570   49.6620 C   0  0  0  0  0  0  0  0  0  0  0  0
    5.4160   55.9920   50.7780 C   0  0  0  0  0  0  0  0  0  0  0  0
    4.7370   56.7190   51.9240 C   0  0  0  0  0  0  0  0  0  0  0  0
    5.5710   57.8750   52.3330 N   0  0  0  0  0  0  0  0  0  0  0  0
    6.0070   57.9710   53.5800 C   0  0  0  0  0  0  0  0  0  0  0  0
    6.7210   58.8830   54.0070 O   0  0  0  0  0  0  0  0  0  0  0  0
    5.6060   56.8390   54.5000 C   0  0  0  0  0  0  0  0  0  0  0  0
    6.3060   55.8410   54.5470 O   0  0  0  0  0  0  0  0  0  0  0  0
    4.4840   57.0390   55.2400 O   0  0  0  0  0  0  0  0  0  0  0  0
    4.1710   56.0540   56.2450 C   0  0  0  0  0  0  0  0  0  0  0  0
    2.7710   56.2860   56.8140 C   0  0  0  0  0  0  0  0  0  0  0  0
    6.5592   59.6611   51.7341 H   0  0  0  0  0  0  0  0  0  0  0  0
    4.9915   59.3927   50.9423 H   0  0  0  0  0  0  0  0  0  0  0  0
    6.7753   58.8534   49.3335 H   0  0  0  0  0  0  0  0  0  0  0  0
    7.5760   57.7765   50.5549 H   0  0  0  0  0  0  0  0  0  0  0  0
    4.8911   57.3310   49.1831 H   0  0  0  0  0  0  0  0  0  0  0  0
    6.4426   56.4034   48.9543 H   0  0  0  0  0  0  0  0  0  0  0  0
    4.7253   55.2378   50.3730 H   0  0  0  0  0  0  0  0  0  0  0  0
    6.3305   55.5166   51.1623 H   0  0  0  0  0  0  0  0  0  0  0  0
    3.7485   57.0757   51.5988 H   0  0  0  0  0  0  0  0  0  0  0  0
    4.6148   56.0330   52.7751 H   0  0  0  0  0  0  0  0  0  0  0  0
    4.2156   55.0517   55.7940 H   0  0  0  0  0  0  0  0  0  0  0  0
    4.9026   56.1387   57.0621 H   0  0  0  0  0  0  0  0  0  0  0  0
    2.8160   56.2785   57.9131 H   0  0  0  0  0  0  0  0  0  0  0  0
    2.3917   57.2592   56.4692 H   0  0  0  0  0  0  0  0  0  0  0  0
    2.0980   55.4871   56.4692 H   0  0  0  0  0  0  0  0  0  0  0  0
  1  2  1  0
  1  6  1  0
  2  3  1  0
  3  4  1  0
  4  5  1  0
  5  6  1  0
  6  7  1  0
  7  8  2  0
  7  9  1  0
  9 10  2  0
  9 11  1  0
 11 12  1  0
 12 13  1  0
  1 14  1  0
  1 15  1  0
  2 16  1  0
  2 17  1  0
  3 18  1  0
  3 19  1  0
  4 20  1  0
  4 21  1  0
  5 22  1  0
  5 23  1  0
 12 24  1  0
 12 25  1  0
 13 26  1  0
 13 27  1  0
 13 28  1  0
A    1
C3
A    2
C2
A    3
C1
A    4
C5
A    5
C4
A    6
N1
A    7
C6
A    8
O2
A    9
C7
A   10
O3
A   11
O4
A   12
C8
A   13
C9
M  END
