1WAX_LO1_A_1300
     RDKit          3D

 24 24  0  0  0  0  0  0  0  0999 V2000
   42.4890   16.7100   64.1080 C   0  0  0  0  0  0  0  0  0  0  0  0
   43.6980   17.1380   64.1070 O   0  0  0  0  0  0  0  0  0  0  0  0
   41.4680   17.3540   63.6650 O   0  0  0  0  0  0  0  0  0  0  0  0
   42.2500   15.3770   64.6800 C   0  0  0  0  0  0  0  0  0  0  0  0
   41.7020   14.5610   63.9600 O   0  0  0  0  0  0  0  0  0  0  0  0
   42.6030   14.0600   66.7720 C   0  0  0  0  0  0  0  0  0  0  0  0
   43.5000   13.9710   67.8270 C   0  0  0  0  0  0  0  0  0  0  0  0
   43.4860   12.8690   68.6610 C   0  0  0  0  0  0  0  0  0  0  0  0
   42.5770   11.8590   68.4510 C   0  0  0  0  0  0  0  0  0  0  0  0
   41.6690   11.9400   67.4130 C   0  0  0  0  0  0  0  0  0  0  0  0
   41.6730   13.0350   66.5680 C   0  0  0  0  0  0  0  0  0  0  0  0
   42.5730   10.6750   69.3680 C   0  0  0  0  0  0  0  0  0  0  0  0
   41.5260   10.9510   70.3490 N   0  0  0  0  0  0  0  0  0  0  0  0
   42.6730   15.2070   65.9650 N   0  0  0  0  0  0  0  0  0  0  0  0
   40.8251   17.7595   64.2993 H   0  0  0  0  0  0  0  0  0  0  0  0
   44.2247   14.7803   68.0001 H   0  0  0  0  0  0  0  0  0  0  0  0
   44.2023   12.7999   69.4930 H   0  0  0  0  0  0  0  0  0  0  0  0
   40.9402   11.1308   67.2580 H   0  0  0  0  0  0  0  0  0  0  0  0
   40.9501   13.0994   65.7414 H   0  0  0  0  0  0  0  0  0  0  0  0
   42.3447    9.7555   68.8091 H   0  0  0  0  0  0  0  0  0  0  0  0
   43.5523   10.5224   69.8452 H   0  0  0  0  0  0  0  0  0  0  0  0
   41.9104   10.8497   71.2992 H   0  0  0  0  0  0  0  0  0  0  0  0
   41.1791   11.9122   70.2197 H   0  0  0  0  0  0  0  0  0  0  0  0
   43.1030   16.0335   66.4041 H   0  0  0  0  0  0  0  0  0  0  0  0
  1  2  2  0
  1  3  1  0
  1  4  1  0
  4  5  2  0
  4 14  1  0
  6  7  2  0
  6 11  1  0
  6 14  1  0
  7  8  1  0
  8  9  2  0
  9 10  1  0
  9 12  1  0
 10 11  2  0
 12 13  1  0
  3 15  1  0
  7 16  1  0
  8 17  1  0
 10 18  1  0
 11 19  1  0
 12 20  1  0
 12 21  1  0
 13 22  1  0
 13 23  1  0
 14 24  1  0
A    1
C1
A    2
O1
A    3
OXT
A    4
C2
A    5
O2
A    6
C1'
A    7
C2'
A    8
C3'
A    9
C4'
A   10
C5'
A   11
C6'
A   12
C
A   13
N1
A   14
N7
M  END
