1WBN_L09_A_1355
     RDKit          3D

 50 52  0  0  0  0  0  0  0  0999 V2000
    4.6140   14.2610   41.5920 C   0  0  0  0  0  0  0  0  0  0  0  0
    5.8450   15.1930   41.5340 C   0  0  0  0  0  0  0  0  0  0  0  0
    5.6740   16.3200   42.5570 C   0  0  0  0  0  0  0  0  0  0  0  0
    7.1040   14.3520   41.9250 C   0  0  0  0  0  0  0  0  0  0  0  0
    6.0560   15.7640   40.1200 C   0  0  0  0  0  0  0  0  0  0  0  0
    6.0610   15.0720   38.9340 C   0  0  0  0  0  0  0  0  0  0  0  0
    6.3100   15.9840   37.9150 C   0  0  0  0  0  0  0  0  0  0  0  0
    6.3900   15.7740   36.5020 N   0  0  0  0  0  0  0  0  0  0  0  0
    6.1000   14.6060   35.8160 C   0  0  0  0  0  0  0  0  0  0  0  0
    5.5610   13.6520   36.3430 O   0  0  0  0  0  0  0  0  0  0  0  0
    6.4220   14.5830   34.4770 N   0  0  0  0  0  0  0  0  0  0  0  0
    6.2570   13.5100   33.5470 C   0  0  0  0  0  0  0  0  0  0  0  0
    7.3000   13.3640   32.5670 C   0  0  0  0  0  0  0  0  0  0  0  0
    7.2450   12.3610   31.5820 C   0  0  0  0  0  0  0  0  0  0  0  0
    6.1150   11.4670   31.5390 C   0  0  0  0  0  0  0  0  0  0  0  0
    6.1290   10.2730   30.2850 Cl  0  0  0  0  0  0  0  0  0  0  0  0
    5.0540   11.5830   32.5100 C   0  0  0  0  0  0  0  0  0  0  0  0
    3.8350   10.6570   32.4930 C   0  0  0  0  0  0  0  0  0  0  0  0
    3.0610   10.9960   31.3230 O   0  0  0  0  0  0  0  0  0  0  0  0
    2.0590   10.0990   30.9970 C   0  0  0  0  0  0  0  0  0  0  0  0
    1.1460   10.4820   29.9550 C   0  0  0  0  0  0  0  0  0  0  0  0
    0.0820    9.6050   29.5550 C   0  0  0  0  0  0  0  0  0  0  0  0
   -0.0400    8.3630   30.2040 C   0  0  0  0  0  0  0  0  0  0  0  0
    0.8350    8.0040   31.1960 N   0  0  0  0  0  0  0  0  0  0  0  0
    1.8600    8.7960   31.6140 C   0  0  0  0  0  0  0  0  0  0  0  0
    5.1170   12.6090   33.5070 C   0  0  0  0  0  0  0  0  0  0  0  0
    6.4480   17.1660   38.4640 N   0  0  0  0  0  0  0  0  0  0  0  0
    6.2940   17.0560   39.8300 N   0  0  0  0  0  0  0  0  0  0  0  0
    4.3529   14.0633   42.6421 H   0  0  0  0  0  0  0  0  0  0  0  0
    3.7642   14.7441   41.0876 H   0  0  0  0  0  0  0  0  0  0  0  0
    4.8485   13.3120   41.0876 H   0  0  0  0  0  0  0  0  0  0  0  0
    5.7370   15.9049   43.5737 H   0  0  0  0  0  0  0  0  0  0  0  0
    6.4691   17.0670   42.4160 H   0  0  0  0  0  0  0  0  0  0  0  0
    4.6931   16.7975   42.4160 H   0  0  0  0  0  0  0  0  0  0  0  0
    7.1836   14.2988   43.0208 H   0  0  0  0  0  0  0  0  0  0  0  0
    7.0081   13.3359   41.5146 H   0  0  0  0  0  0  0  0  0  0  0  0
    8.0059   14.8296   41.5146 H   0  0  0  0  0  0  0  0  0  0  0  0
    5.8975   13.9911   38.8123 H   0  0  0  0  0  0  0  0  0  0  0  0
    6.6959   16.5771   35.9342 H   0  0  0  0  0  0  0  0  0  0  0  0
    6.8335   15.4479   34.0981 H   0  0  0  0  0  0  0  0  0  0  0  0
    8.1587   14.0511   32.5883 H   0  0  0  0  0  0  0  0  0  0  0  0
    8.0591   12.2596   30.8493 H   0  0  0  0  0  0  0  0  0  0  0  0
    4.1593    9.6072   32.4398 H   0  0  0  0  0  0  0  0  0  0  0  0
    3.2366   10.7806   33.4077 H   0  0  0  0  0  0  0  0  0  0  0  0
    1.2637   11.4568   29.4591 H   0  0  0  0  0  0  0  0  0  0  0  0
   -0.6205    9.8971   28.7606 H   0  0  0  0  0  0  0  0  0  0  0  0
   -0.8456    7.6731   29.9125 H   0  0  0  0  0  0  0  0  0  0  0  0
    2.5338    8.4534   32.4132 H   0  0  0  0  0  0  0  0  0  0  0  0
    4.3045   12.7151   34.2409 H   0  0  0  0  0  0  0  0  0  0  0  0
    6.6412   18.0403   37.9549 H   0  0  0  0  0  0  0  0  0  0  0  0
  1  2  1  0
  2  3  1  0
  2  4  1  0
  2  5  1  0
  5  6  1  0
  5 28  2  0
  6  7  2  0
  7  8  1  0
  7 27  1  0
  8  9  1  0
  9 10  2  0
  9 11  1  0
 11 12  1  0
 12 13  2  0
 12 26  1  0
 13 14  1  0
 14 15  2  0
 15 16  1  0
 15 17  1  0
 17 18  1  0
 17 26  2  0
 18 19  1  0
 19 20  1  0
 20 21  2  0
 20 25  1  0
 21 22  1  0
 22 23  2  0
 23 24  1  0
 24 25  2  0
 27 28  1  0
  1 29  1  0
  1 30  1  0
  1 31  1  0
  3 32  1  0
  3 33  1  0
  3 34  1  0
  4 35  1  0
  4 36  1  0
  4 37  1  0
  6 38  1  0
  8 39  1  0
 11 40  1  0
 13 41  1  0
 14 42  1  0
 18 43  1  0
 18 44  1  0
 21 45  1  0
 22 46  1  0
 23 47  1  0
 25 48  1  0
 26 49  1  0
 27 50  1  0
A    1
C1
A    2
C2
A    3
C3
A    4
C4
A    5
C5
A    6
C6
A    7
C7
A    8
N8
A    9
C9
A   10
O10
A   11
N11
A   12
C12
A   13
C13
A   14
C14
A   15
C15
A   16
CL16
A   17
C17
A   18
C18
A   19
O19
A   20
C20
A   21
C21
A   22
C22
A   23
C23
A   24
N24
A   25
C25
A   26
C26
A   27
N27
A   28
N28
M  END
