1WBS_LI2_A_1355
     RDKit          3D

 58 62  0  0  0  0  0  0  0  0999 V2000
    8.3180   17.9930   37.4450 F   0  0  0  0  0  0  0  0  0  0  0  0
    7.6970   16.8470   37.7910 C   0  0  0  0  0  0  0  0  0  0  0  0
    7.4690   16.5540   39.1310 C   0  0  0  0  0  0  0  0  0  0  0  0
    6.8000   15.3920   39.5290 C   0  0  0  0  0  0  0  0  0  0  0  0
    6.4230   14.5080   38.5100 C   0  0  0  0  0  0  0  0  0  0  0  0
    6.6510   14.7930   37.1560 C   0  0  0  0  0  0  0  0  0  0  0  0
    7.2950   15.9760   36.7940 C   0  0  0  0  0  0  0  0  0  0  0  0
    6.2270   13.8110   36.1220 C   0  0  0  0  0  0  0  0  0  0  0  0
    5.2390   13.1310   36.3430 O   0  0  0  0  0  0  0  0  0  0  0  0
    7.0090   13.6810   35.0110 N   0  0  0  0  0  0  0  0  0  0  0  0
    6.8070   12.7690   33.9560 C   0  0  0  0  0  0  0  0  0  0  0  0
    7.8600   11.9170   33.5820 C   0  0  0  0  0  0  0  0  0  0  0  0
    7.7290   11.0010   32.5530 C   0  0  0  0  0  0  0  0  0  0  0  0
    6.5350   10.9230   31.8540 C   0  0  0  0  0  0  0  0  0  0  0  0
    6.1000   10.1270   30.8130 N   0  0  0  0  0  0  0  0  0  0  0  0
    4.8030   10.4600   30.5020 C   0  0  0  0  0  0  0  0  0  0  0  0
    4.3710   11.4520   31.3070 C   0  0  0  0  0  0  0  0  0  0  0  0
    3.0110   12.1060   31.3050 C   0  0  0  0  0  0  0  0  0  0  0  0
    2.2040   11.6290   32.5140 C   0  0  0  0  0  0  0  0  0  0  0  0
    1.7530   10.1990   32.3490 C   0  0  0  0  0  0  0  0  0  0  0  0
    0.6990    9.8620   31.5030 C   0  0  0  0  0  0  0  0  0  0  0  0
    0.3190    8.5320   31.3850 C   0  0  0  0  0  0  0  0  0  0  0  0
    0.9390    7.5840   32.0770 N   0  0  0  0  0  0  0  0  0  0  0  0
    1.9410    7.8700   32.8890 C   0  0  0  0  0  0  0  0  0  0  0  0
    2.3770    9.1750   33.0560 C   0  0  0  0  0  0  0  0  0  0  0  0
    5.4710   11.7790   32.2170 C   0  0  0  0  0  0  0  0  0  0  0  0
    5.6130   12.7130   33.2620 C   0  0  0  0  0  0  0  0  0  0  0  0
    6.5920   15.0760   40.9080 N   0  0  0  0  0  0  0  0  0  0  0  0
    5.6800   13.9520   41.1820 C   0  0  0  0  0  0  0  0  0  0  0  0
    5.8330   13.5300   42.6410 C   0  0  0  0  0  0  0  0  0  0  0  0
    5.4740   14.6290   43.4950 O   0  0  0  0  0  0  0  0  0  0  0  0
    6.3890   15.7080   43.2810 C   0  0  0  0  0  0  0  0  0  0  0  0
    6.3200   16.2010   41.8310 C   0  0  0  0  0  0  0  0  0  0  0  0
    7.8248   17.2558   39.8997 H   0  0  0  0  0  0  0  0  0  0  0  0
    5.9330   13.5610   38.7802 H   0  0  0  0  0  0  0  0  0  0  0  0
    7.4798   16.2121   35.7357 H   0  0  0  0  0  0  0  0  0  0  0  0
    7.8228   14.3081   34.9368 H   0  0  0  0  0  0  0  0  0  0  0  0
    8.8159   11.9800   34.1227 H   0  0  0  0  0  0  0  0  0  0  0  0
    8.5676   10.3388   32.2915 H   0  0  0  0  0  0  0  0  0  0  0  0
    6.6584    9.3995   30.3441 H   0  0  0  0  0  0  0  0  0  0  0  0
    4.2039    9.9857   29.7107 H   0  0  0  0  0  0  0  0  0  0  0  0
    3.1311   13.1983   31.3542 H   0  0  0  0  0  0  0  0  0  0  0  0
    2.4782   11.8326   30.3823 H   0  0  0  0  0  0  0  0  0  0  0  0
    2.8312   11.7042   33.4145 H   0  0  0  0  0  0  0  0  0  0  0  0
    1.3105   12.2642   32.6046 H   0  0  0  0  0  0  0  0  0  0  0  0
    0.1727   10.6424   30.9338 H   0  0  0  0  0  0  0  0  0  0  0  0
   -0.5059    8.2605   30.7099 H   0  0  0  0  0  0  0  0  0  0  0  0
    2.4376    7.0589   33.4418 H   0  0  0  0  0  0  0  0  0  0  0  0
    3.2082    9.3994   33.7407 H   0  0  0  0  0  0  0  0  0  0  0  0
    4.7848   13.3886   33.5221 H   0  0  0  0  0  0  0  0  0  0  0  0
    4.6422   14.2657   40.9960 H   0  0  0  0  0  0  0  0  0  0  0  0
    5.9257   13.1059   40.5234 H   0  0  0  0  0  0  0  0  0  0  0  0
    5.1732   12.6743   42.8468 H   0  0  0  0  0  0  0  0  0  0  0  0
    6.8768   13.2408   42.8328 H   0  0  0  0  0  0  0  0  0  0  0  0
    6.1327   16.5375   43.9565 H   0  0  0  0  0  0  0  0  0  0  0  0
    7.4093   15.3504   43.4836 H   0  0  0  0  0  0  0  0  0  0  0  0
    7.0708   16.9901   41.6770 H   0  0  0  0  0  0  0  0  0  0  0  0
    5.3157   16.6024   41.6301 H   0  0  0  0  0  0  0  0  0  0  0  0
  1  2  1  0
  2  3  2  0
  2  7  1  0
  3  4  1  0
  4  5  2  0
  4 28  1  0
  5  6  1  0
  6  7  2  0
  6  8  1  0
  8  9  2  0
  8 10  1  0
 10 11  1  0
 11 12  2  0
 11 27  1  0
 12 13  1  0
 13 14  2  0
 14 15  1  0
 14 26  1  0
 15 16  1  0
 16 17  2  0
 17 18  1  0
 17 26  1  0
 18 19  1  0
 19 20  1  0
 20 21  2  0
 20 25  1  0
 21 22  1  0
 22 23  2  0
 23 24  1  0
 24 25  2  0
 26 27  2  0
 28 29  1  0
 28 33  1  0
 29 30  1  0
 30 31  1  0
 31 32  1  0
 32 33  1  0
  3 34  1  0
  5 35  1  0
  7 36  1  0
 10 37  1  0
 12 38  1  0
 13 39  1  0
 15 40  1  0
 16 41  1  0
 18 42  1  0
 18 43  1  0
 19 44  1  0
 19 45  1  0
 21 46  1  0
 22 47  1  0
 24 48  1  0
 25 49  1  0
 27 50  1  0
 29 51  1  0
 29 52  1  0
 30 53  1  0
 30 54  1  0
 32 55  1  0
 32 56  1  0
 33 57  1  0
 33 58  1  0
A    1
F1
A    2
C2
A    3
C3
A    4
C4
A    5
C5
A    6
C6
A    7
C7
A    8
C8
A    9
O9
A   10
N10
A   11
C11
A   12
C12
A   13
C13
A   14
C14
A   15
N15
A   16
C17
A   17
C18
A   18
C19
A   19
C20
A   20
C21
A   21
C22
A   22
C23
A   23
N24
A   24
C25
A   25
C26
A   26
C27
A   27
C28
A   28
N29
A   29
C30
A   30
C31
A   31
O32
A   32
C33
A   33
C34
M  END
