1WDA_BAG_A_801
     RDKit          3D

 39 39  0  0  0  0  0  0  0  0999 V2000
   24.1320   51.6220   21.7290 O   0  0  0  0  0  0  0  0  0  0  0  0
   24.2880   51.1790   22.8490 C   0  0  0  0  0  0  0  0  0  0  0  0
   24.6870   52.1690   23.9140 C   0  0  0  0  0  0  0  0  0  0  0  0
   24.7690   53.6160   23.4240 C   0  0  0  0  0  0  0  0  0  0  0  0
   25.1240   54.7280   24.4060 C   0  0  0  0  0  0  0  0  0  0  0  0
   25.3650   54.4120   25.8780 C   0  0  0  0  0  0  0  0  0  0  0  0
   25.2570   52.9860   26.3740 C   0  0  0  0  0  0  0  0  0  0  0  0
   24.9030   51.8780   25.3920 C   0  0  0  0  0  0  0  0  0  0  0  0
   24.1830   49.8650   23.0640 N   0  0  0  0  0  0  0  0  0  0  0  0
   23.8410   49.0090   21.9220 C   0  0  0  0  0  0  0  0  0  0  0  0
   22.4530   49.2020   21.4250 C   0  0  0  0  0  0  0  0  0  0  0  0
   21.5070   49.4900   22.3060 N   0  0  0  0  0  0  0  0  0  0  0  0
   22.2380   49.0830   20.2360 O   0  0  0  0  0  0  0  0  0  0  0  0
   23.9870   47.5510   22.3310 C   0  0  0  0  0  0  0  0  0  0  0  0
   24.1410   46.6650   21.0990 C   0  0  0  0  0  0  0  0  0  0  0  0
   23.9040   45.2000   21.4050 C   0  0  0  0  0  0  0  0  0  0  0  0
   23.9720   44.4370   20.1860 N   0  0  0  0  0  0  0  0  0  0  0  0
   23.8390   43.0300   20.1660 C   0  0  0  0  0  0  0  0  0  0  0  0
   23.9260   42.4120   18.8780 N   0  0  0  0  0  0  0  0  0  0  0  0
   23.5460   42.2980   21.3820 N   0  0  0  0  0  0  0  0  0  0  0  0
   24.5728   53.8535   22.3680 H   0  0  0  0  0  0  0  0  0  0  0  0
   25.2067   55.7654   24.0496 H   0  0  0  0  0  0  0  0  0  0  0  0
   25.6174   55.2206   26.5798 H   0  0  0  0  0  0  0  0  0  0  0  0
   25.4327   52.7525   27.4345 H   0  0  0  0  0  0  0  0  0  0  0  0
   24.8012   50.8458   25.7583 H   0  0  0  0  0  0  0  0  0  0  0  0
   24.3370   49.4654   24.0008 H   0  0  0  0  0  0  0  0  0  0  0  0
   21.7068   49.4292   23.3146 H   0  0  0  0  0  0  0  0  0  0  0  0
   20.5715   49.7748   21.9826 H   0  0  0  0  0  0  0  0  0  0  0  0
   21.4157   48.6279   19.9248 H   0  0  0  0  0  0  0  0  0  0  0  0
   24.8759   47.4412   22.9696 H   0  0  0  0  0  0  0  0  0  0  0  0
   23.0855   47.2431   22.8810 H   0  0  0  0  0  0  0  0  0  0  0  0
   23.4149   46.9886   20.3387 H   0  0  0  0  0  0  0  0  0  0  0  0
   25.1756   46.7685   20.7399 H   0  0  0  0  0  0  0  0  0  0  0  0
   24.6740   44.8425   22.1045 H   0  0  0  0  0  0  0  0  0  0  0  0
   22.9097   45.0769   21.8591 H   0  0  0  0  0  0  0  0  0  0  0  0
   24.1230   44.9342   19.2967 H   0  0  0  0  0  0  0  0  0  0  0  0
   24.0692   41.3947   18.8035 H   0  0  0  0  0  0  0  0  0  0  0  0
   23.8454   42.9845   18.0256 H   0  0  0  0  0  0  0  0  0  0  0  0
   23.4512   41.2727   21.3557 H   0  0  0  0  0  0  0  0  0  0  0  0
  1  2  2  0
  2  3  1  0
  2  9  1  0
  3  4  2  0
  3  8  1  0
  4  5  1  0
  5  6  2  0
  6  7  1  0
  7  8  2  0
  9 10  1  0
 10 11  2  0
 10 14  1  0
 11 12  1  0
 11 13  1  0
 14 15  1  0
 15 16  1  0
 16 17  1  0
 17 18  1  0
 18 19  1  0
 18 20  2  3
  4 21  1  0
  5 22  1  0
  6 23  1  0
  7 24  1  0
  8 25  1  0
  9 26  1  0
 12 27  1  0
 12 28  1  0
 13 29  1  0
 14 30  1  0
 14 31  1  0
 15 32  1  0
 15 33  1  0
 16 34  1  0
 16 35  1  0
 17 36  1  0
 19 37  1  0
 19 38  1  0
 20 39  1  0
A    1
O9
A    2
C8
A    3
C10
A    4
C11
A    5
C13
A    6
C15
A    7
C14
A    8
C12
A    9
N16
A   10
C17
A   11
C1
A   12
N18
A   13
O2
A   14
C3
A   15
C4
A   16
CD
A   17
NE
A   18
CZ
A   19
NH2
A   20
NH1
M  END
