1CBX_BZS_A_500
     RDKit          3D

 27 27  0  0  0  0  0  0  0  0999 V2000
   -3.1400   29.2320   -6.2390 C   0  0  0  0  0  0  0  0  0  0  0  0
   -2.9080   30.4600   -7.1040 C   0  0  0  0  0  0  0  0  0  0  0  0
   -2.4310   29.9480   -8.4960 C   0  0  0  0  0  0  0  0  0  0  0  0
   -0.8810   29.5390   -8.4040 C   0  0  0  0  0  0  0  0  0  0  0  0
   -2.4990   31.1490   -9.4890 C   0  0  0  0  0  0  0  0  0  0  0  0
   -2.3840   30.3750  -10.8520 C   0  0  0  0  0  0  0  0  0  0  0  0
   -1.1270   30.1830  -11.4430 C   0  0  0  0  0  0  0  0  0  0  0  0
   -3.5270   29.9620  -11.5680 C   0  0  0  0  0  0  0  0  0  0  0  0
   -1.0840   29.5700  -12.7240 C   0  0  0  0  0  0  0  0  0  0  0  0
   -3.4510   29.3590  -12.7630 C   0  0  0  0  0  0  0  0  0  0  0  0
   -2.2380   29.2010  -13.3510 C   0  0  0  0  0  0  0  0  0  0  0  0
   -2.1330   28.7490   -5.8540 O   0  0  0  0  0  0  0  0  0  0  0  0
   -4.2260   28.7800   -5.9400 O   0  0  0  0  0  0  0  0  0  0  0  0
   -0.4790   28.3510   -8.8140 O   0  0  0  0  0  0  0  0  0  0  0  0
   -0.1130   30.3680   -7.8260 O   0  0  0  0  0  0  0  0  0  0  0  0
   -3.8427   31.0301   -7.2104 H   0  0  0  0  0  0  0  0  0  0  0  0
   -2.1586   31.1256   -6.6508 H   0  0  0  0  0  0  0  0  0  0  0  0
   -3.0518   29.0970   -8.8128 H   0  0  0  0  0  0  0  0  0  0  0  0
   -3.4508   31.6943   -9.4071 H   0  0  0  0  0  0  0  0  0  0  0  0
   -1.7386   31.9279   -9.3303 H   0  0  0  0  0  0  0  0  0  0  0  0
   -0.2048   30.4966  -10.9318 H   0  0  0  0  0  0  0  0  0  0  0  0
   -4.5194   30.1417  -11.1288 H   0  0  0  0  0  0  0  0  0  0  0  0
   -0.1148   29.3920  -13.2129 H   0  0  0  0  0  0  0  0  0  0  0  0
   -4.3619   28.9962  -13.2616 H   0  0  0  0  0  0  0  0  0  0  0  0
   -2.1840   28.7642  -14.3591 H   0  0  0  0  0  0  0  0  0  0  0  0
   -4.4739   28.6768   -4.9871 H   0  0  0  0  0  0  0  0  0  0  0  0
   -0.0788   30.4049   -6.8373 H   0  0  0  0  0  0  0  0  0  0  0  0
  1  2  1  0
  1 12  2  0
  1 13  1  0
  2  3  1  0
  3  4  1  0
  3  5  1  0
  4 14  2  0
  4 15  1  0
  5  6  1  0
  6  7  2  0
  6  8  1  0
  7  9  1  0
  8 10  2  0
  9 11  2  0
 10 11  1  0
  2 16  1  0
  2 17  1  0
  3 18  1  0
  5 19  1  0
  5 20  1  0
  7 21  1  0
  8 22  1  0
  9 23  1  0
 10 24  1  0
 11 25  1  0
 13 26  1  0
 15 27  1  0
A    1
C1
A    2
C2
A    3
CA
A    4
C
A    5
CB
A    6
CG
A    7
CD1
A    8
CD2
A    9
CE1
A   10
CE2
A   11
CZ
A   12
O1
A   13
O2
A   14
O3
A   15
O4
M  END
