1WM1_PTB_A_401
     RDKit          3D

 33 34  0  0  0  0  0  0  0  0999 V2000
   18.6800   -0.4760   -9.3240 N   0  0  0  0  0  0  0  0  0  0  0  0
   19.2460    0.2360   -8.1280 C   0  0  0  0  0  0  0  0  0  0  0  0
   20.7360   -0.0180   -7.9670 C   0  0  0  0  0  0  0  0  0  0  0  0
   21.1800   -1.1050   -7.6480 O   0  0  0  0  0  0  0  0  0  0  0  0
   18.4130   -0.1730   -6.9120 C   0  0  0  0  0  0  0  0  0  0  0  0
   17.0900   -0.6470   -7.4630 C   0  0  0  0  0  0  0  0  0  0  0  0
   17.3560   -1.0600   -8.9040 C   0  0  0  0  0  0  0  0  0  0  0  0
   21.5840    1.1390   -8.1950 C   0  0  0  0  0  0  0  0  0  0  0  0
   21.2760    2.3710   -8.6440 N   0  0  0  0  0  0  0  0  0  0  0  0
   22.3680    3.1040   -8.6820 N   0  0  0  0  0  0  0  0  0  0  0  0
   23.4300    2.3720   -8.2560 C   0  0  0  0  0  0  0  0  0  0  0  0
   22.9740    1.0760   -7.9250 O   0  0  0  0  0  0  0  0  0  0  0  0
   24.8840    2.7160   -8.1010 C   0  0  0  0  0  0  0  0  0  0  0  0
   25.0010    4.0230   -7.3180 C   0  0  0  0  0  0  0  0  0  0  0  0
   25.5060    2.8940   -9.4810 C   0  0  0  0  0  0  0  0  0  0  0  0
   25.6000    1.5920   -7.3540 C   0  0  0  0  0  0  0  0  0  0  0  0
   18.5435    0.1884  -10.0992 H   0  0  0  0  0  0  0  0  0  0  0  0
   19.1752    1.3265   -8.2539 H   0  0  0  0  0  0  0  0  0  0  0  0
   18.9116   -0.9841   -6.3610 H   0  0  0  0  0  0  0  0  0  0  0  0
   18.2836    0.6632   -6.2091 H   0  0  0  0  0  0  0  0  0  0  0  0
   16.7199   -1.5047   -6.8822 H   0  0  0  0  0  0  0  0  0  0  0  0
   16.3253    0.1416   -7.4058 H   0  0  0  0  0  0  0  0  0  0  0  0
   16.5565   -0.6765   -9.5550 H   0  0  0  0  0  0  0  0  0  0  0  0
   17.3809   -2.1566   -8.9867 H   0  0  0  0  0  0  0  0  0  0  0  0
   24.9817    3.8073   -6.2395 H   0  0  0  0  0  0  0  0  0  0  0  0
   25.9473    4.5212   -7.5754 H   0  0  0  0  0  0  0  0  0  0  0  0
   24.1582    4.6813   -7.5754 H   0  0  0  0  0  0  0  0  0  0  0  0
   26.5584    3.1952   -9.3728 H   0  0  0  0  0  0  0  0  0  0  0  0
   25.4514    1.9442  -10.0331 H   0  0  0  0  0  0  0  0  0  0  0  0
   24.9571    3.6711  -10.0331 H   0  0  0  0  0  0  0  0  0  0  0  0
   25.4994    1.7499   -6.2701 H   0  0  0  0  0  0  0  0  0  0  0  0
   25.1506    0.6259   -7.6270 H   0  0  0  0  0  0  0  0  0  0  0  0
   26.6656    1.5909   -7.6270 H   0  0  0  0  0  0  0  0  0  0  0  0
  1  2  1  0
  1  7  1  0
  2  3  1  0
  2  5  1  0
  3  4  2  0
  3  8  1  0
  5  6  1  0
  6  7  1  0
  8  9  2  0
  8 12  1  0
  9 10  1  0
 10 11  2  0
 11 12  1  0
 11 13  1  0
 13 14  1  0
 13 15  1  0
 13 16  1  0
  1 17  1  0
  2 18  1  0
  5 19  1  0
  5 20  1  0
  6 21  1  0
  6 22  1  0
  7 23  1  0
  7 24  1  0
 14 25  1  0
 14 26  1  0
 14 27  1  0
 15 28  1  0
 15 29  1  0
 15 30  1  0
 16 31  1  0
 16 32  1  0
 16 33  1  0
A    1
N
A    2
CA
A    3
C
A    4
O
A    5
CB
A    6
CG
A    7
CD
A    8
C2
A    9
N3
A   10
N4
A   11
C5
A   12
O1
A   13
C6
A   14
C7
A   15
C8
A   16
C9
M  END
