1DXM_RED_A_163
     RDKit          3D

 27 26  0  0  0  0  0  0  0  0999 V2000
   21.4780   -9.1140    8.8580 C   0  0  0  0  0  0  0  0  0  0  0  0
   21.6170   -7.9790    8.3860 O   0  0  0  0  0  0  0  0  0  0  0  0
   22.4740   -9.6060    9.8940 C   0  0  0  0  0  0  0  0  0  0  0  0
   23.9000   -9.1320    9.5920 C   0  0  0  0  0  0  0  0  0  0  0  0
   24.5280   -9.9200    8.4400 C   0  0  0  0  0  0  0  0  0  0  0  0
   25.9760   -9.5110    8.1850 C   0  0  0  0  0  0  0  0  0  0  0  0
   26.8240  -10.5950    7.5080 C   0  0  0  0  0  0  0  0  0  0  0  0
   26.8390  -11.8760    8.3460 C   0  0  0  0  0  0  0  0  0  0  0  0
   27.8010  -12.9260    7.8220 C   0  0  0  0  0  0  0  0  0  0  0  0
   27.6520  -14.5290    8.6190 S   0  0  0  0  0  0  0  0  0  0  0  0
   28.4670  -10.0710    7.0120 S   0  0  0  0  0  0  0  0  0  0  0  0
   20.6466   -9.7566    8.5327 H   0  0  0  0  0  0  0  0  0  0  0  0
   22.1754   -9.2257   10.8820 H   0  0  0  0  0  0  0  0  0  0  0  0
   22.4704  -10.7058    9.8725 H   0  0  0  0  0  0  0  0  0  0  0  0
   23.8712   -8.0664    9.3206 H   0  0  0  0  0  0  0  0  0  0  0  0
   24.5122   -9.2941   10.4914 H   0  0  0  0  0  0  0  0  0  0  0  0
   24.5006  -10.9915    8.6872 H   0  0  0  0  0  0  0  0  0  0  0  0
   23.9504   -9.7050    7.5289 H   0  0  0  0  0  0  0  0  0  0  0  0
   25.9746   -8.6204    7.5394 H   0  0  0  0  0  0  0  0  0  0  0  0
   26.4299   -9.3224    9.1691 H   0  0  0  0  0  0  0  0  0  0  0  0
   26.3243  -10.8122    6.5524 H   0  0  0  0  0  0  0  0  0  0  0  0
   27.1315  -11.6169    9.3743 H   0  0  0  0  0  0  0  0  0  0  0  0
   25.8284  -12.3079    8.2983 H   0  0  0  0  0  0  0  0  0  0  0  0
   27.6145  -13.0577    6.7460 H   0  0  0  0  0  0  0  0  0  0  0  0
   28.8154  -12.5598    8.0385 H   0  0  0  0  0  0  0  0  0  0  0  0
   27.6672  -14.3659    9.9792 H   0  0  0  0  0  0  0  0  0  0  0  0
   29.2253   -9.8292    8.1271 H   0  0  0  0  0  0  0  0  0  0  0  0
  1  2  2  0
  1  3  1  0
  3  4  1  0
  4  5  1  0
  5  6  1  0
  6  7  1  0
  7  8  1  0
  7 11  1  0
  8  9  1  0
  9 10  1  0
  1 12  1  0
  3 13  1  0
  3 14  1  0
  4 15  1  0
  4 16  1  0
  5 17  1  0
  5 18  1  0
  6 19  1  0
  6 20  1  0
  7 21  1  0
  8 22  1  0
  8 23  1  0
  9 24  1  0
  9 25  1  0
 10 26  1  0
 11 27  1  0
A    1
C1
A    2
O1
A    3
C2
A    4
C3
A    5
C4
A    6
C5
A    7
C6
A    8
C7
A    9
C8
A   10
S8
A   11
S6
M  END
