1WRR_UNC_A_999
     RDKit          3D

 16 16  0  0  0  0  0  0  0  0999 V2000
   31.6380   25.6270   41.0620 O   0  0  0  0  0  0  0  0  0  0  0  0
   32.1940   25.7730   39.9730 N   0  0  0  0  0  0  0  0  0  0  0  0
   33.3800   25.4290   39.7550 O   0  0  0  0  0  0  0  0  0  0  0  0
   31.4840   26.4430   38.9710 C   0  0  0  0  0  0  0  0  0  0  0  0
   30.2150   26.8910   39.0900 N   0  0  0  0  0  0  0  0  0  0  0  0
   29.6610   27.5560   37.9980 C   0  0  0  0  0  0  0  0  0  0  0  0
   28.4860   27.9640   38.0580 O   0  0  0  0  0  0  0  0  0  0  0  0
   32.2450   26.6700   37.7600 C   0  0  0  0  0  0  0  0  0  0  0  0
   33.4690   26.2390   37.6510 N   0  0  0  0  0  0  0  0  0  0  0  0
   31.6020   27.3790   36.6550 C   0  0  0  0  0  0  0  0  0  0  0  0
   32.2700   27.5930   35.6350 O   0  0  0  0  0  0  0  0  0  0  0  0
   30.3390   27.7900   36.8430 N   0  0  0  0  0  0  0  0  0  0  0  0
   29.6768   26.7463   39.9562 H   0  0  0  0  0  0  0  0  0  0  0  0
   34.0235   26.0438   38.4968 H   0  0  0  0  0  0  0  0  0  0  0  0
   33.8826   26.0933   36.7190 H   0  0  0  0  0  0  0  0  0  0  0  0
   29.8656   28.3015   36.0846 H   0  0  0  0  0  0  0  0  0  0  0  0
  1  2  2  0
  2  3  1  0
  2  4  1  0
  4  5  1  0
  4  8  2  0
  5  6  1  0
  6  7  2  0
  6 12  1  0
  8  9  1  0
  8 10  1  0
 10 11  2  0
 10 12  1  0
  5 13  1  0
  9 14  1  0
  9 15  1  0
 12 16  1  0
M  CHG  2   2   1   3  -1
A    1
OD2
A    2
N4
A    3
OD1
A    4
C4
A    5
N3
A    6
C2
A    7
O2
A    8
C5
A    9
N5
A   10
C6
A   11
O6
A   12
N1
M  END
