1WSS_3CB_H_2001
     RDKit          3D

 78 79  0  0  0  0  0  0  0  0999 V2000
   35.6350    6.9440    9.8530 C   0  0  0  0  0  0  0  0  0  0  0  0
   34.8950    7.3560   10.7500 O   0  0  0  0  0  0  0  0  0  0  0  0
   35.4600    7.2150    8.5260 N   0  0  0  0  0  0  0  0  0  0  0  0
   34.3770    8.1620    8.2570 C   0  0  0  0  0  0  0  0  0  0  0  0
   34.3420    8.7070    6.8330 C   0  0  0  0  0  0  0  0  0  0  0  0
   35.7170    9.1260    6.3340 C   0  0  0  0  0  0  0  0  0  0  0  0
   33.0670    7.4660    8.6220 C   0  0  0  0  0  0  0  0  0  0  0  0
   32.9150    6.2610    8.4110 O   0  0  0  0  0  0  0  0  0  0  0  0
   32.1530    8.2830    9.1740 N   0  0  0  0  0  0  0  0  0  0  0  0
   30.7850    7.8120    9.3680 C   0  0  0  0  0  0  0  0  0  0  0  0
   31.2230    6.5300   11.4540 C   0  0  0  0  0  0  0  0  0  0  0  0
   31.0710    6.3040   12.8190 C   0  0  0  0  0  0  0  0  0  0  0  0
   30.1680    7.0620   13.5950 C   0  0  0  0  0  0  0  0  0  0  0  0
   29.3760    8.0410   12.9440 C   0  0  0  0  0  0  0  0  0  0  0  0
   29.5480    8.2900   11.5610 C   0  0  0  0  0  0  0  0  0  0  0  0
   30.4880    7.5400   10.8150 C   0  0  0  0  0  0  0  0  0  0  0  0
   30.0880    6.8150   15.0720 C   0  0  0  0  0  0  0  0  0  0  0  0
   30.7370    5.7890   15.6480 N   0  0  0  0  0  0  0  0  0  0  0  0
   35.7020    9.6530    4.9350 C   0  0  0  0  0  0  0  0  0  0  0  0
   35.5980    8.8570    3.8740 N   0  0  0  0  0  0  0  0  0  0  0  0
   35.8490   10.9690    4.7870 N   0  0  0  0  0  0  0  0  0  0  0  0
   37.9540    7.0460   10.7650 C   0  0  0  0  0  0  0  0  0  0  0  0
   39.1810    6.3040   11.2910 C   0  0  0  0  0  0  0  0  0  0  0  0
   36.5420    5.0920   11.2670 N   0  0  0  0  0  0  0  0  0  0  0  0
   36.8590    6.0720   10.2120 C   0  0  0  0  0  0  0  0  0  0  0  0
   38.3460    8.1880    9.7960 C   0  0  0  0  0  0  0  0  0  0  0  0
   35.6830    3.6380   10.8750 S   0  0  0  0  0  0  0  0  0  0  0  0
   35.8400    2.8040   12.0080 O   0  0  0  0  0  0  0  0  0  0  0  0
   36.2380    3.2460    9.6320 O   0  0  0  0  0  0  0  0  0  0  0  0
   33.9860    4.0530   10.6240 C   0  0  0  0  0  0  0  0  0  0  0  0
   39.8250    5.4620   10.1910 C   0  0  0  0  0  0  0  0  0  0  0  0
   33.1190    2.9000   10.2910 C   0  0  0  0  0  0  0  0  0  0  0  0
   33.1420    2.3650    8.9960 C   0  0  0  0  0  0  0  0  0  0  0  0
   32.3720    1.2360    8.6800 C   0  0  0  0  0  0  0  0  0  0  0  0
   31.5960    0.6220    9.6860 C   0  0  0  0  0  0  0  0  0  0  0  0
   31.5630    1.1520   10.9870 C   0  0  0  0  0  0  0  0  0  0  0  0
   32.3150    2.3060   11.2810 C   0  0  0  0  0  0  0  0  0  0  0  0
   29.3430    7.5940   15.8580 N   0  0  0  0  0  0  0  0  0  0  0  0
   32.3730    0.7070    7.3180 C   0  0  0  0  0  0  0  0  0  0  0  0
   31.7120   -0.3020    7.0750 O   0  0  0  0  0  0  0  0  0  0  0  0
   33.0290    1.2970    6.4610 O   0  0  0  0  0  0  0  0  0  0  0  0
   36.0361    6.7926    7.7840 H   0  0  0  0  0  0  0  0  0  0  0  0
   34.5460    9.0585    8.8716 H   0  0  0  0  0  0  0  0  0  0  0  0
   33.9480    7.9259    6.1662 H   0  0  0  0  0  0  0  0  0  0  0  0
   33.7007    9.6007    6.8335 H   0  0  0  0  0  0  0  0  0  0  0  0
   36.1056    9.9114    6.9990 H   0  0  0  0  0  0  0  0  0  0  0  0
   36.3529    8.2284    6.3377 H   0  0  0  0  0  0  0  0  0  0  0  0
   32.4169    9.2370    9.4587 H   0  0  0  0  0  0  0  0  0  0  0  0
   30.0886    8.5798    8.9999 H   0  0  0  0  0  0  0  0  0  0  0  0
   30.6658    6.8704    8.8119 H   0  0  0  0  0  0  0  0  0  0  0  0
   31.9238    5.9129   10.8726 H   0  0  0  0  0  0  0  0  0  0  0  0
   31.6678    5.5173   13.3037 H   0  0  0  0  0  0  0  0  0  0  0  0
   28.6261    8.6085   13.5147 H   0  0  0  0  0  0  0  0  0  0  0  0
   28.9495    9.0684   11.0651 H   0  0  0  0  0  0  0  0  0  0  0  0
   30.6662    5.6405   16.6648 H   0  0  0  0  0  0  0  0  0  0  0  0
   35.4656    7.8435    4.0015 H   0  0  0  0  0  0  0  0  0  0  0  0
   35.6499    9.2542    2.9251 H   0  0  0  0  0  0  0  0  0  0  0  0
   35.8461   11.3848    3.8447 H   0  0  0  0  0  0  0  0  0  0  0  0
   37.4726    7.5442   11.6195 H   0  0  0  0  0  0  0  0  0  0  0  0
   39.9142    7.0369   11.6588 H   0  0  0  0  0  0  0  0  0  0  0  0
   38.8638    5.6347   12.1042 H   0  0  0  0  0  0  0  0  0  0  0  0
   37.4389    4.8036   11.6833 H   0  0  0  0  0  0  0  0  0  0  0  0
   37.1872    5.5164    9.3211 H   0  0  0  0  0  0  0  0  0  0  0  0
   38.6496    9.0724   10.3753 H   0  0  0  0  0  0  0  0  0  0  0  0
   39.1830    7.8599    9.1621 H   0  0  0  0  0  0  0  0  0  0  0  0
   37.4840    8.4431    9.1621 H   0  0  0  0  0  0  0  0  0  0  0  0
   33.6046    4.5157   11.5462 H   0  0  0  0  0  0  0  0  0  0  0  0
   33.9526    4.7320    9.7592 H   0  0  0  0  0  0  0  0  0  0  0  0
   40.4332    4.6667   10.6466 H   0  0  0  0  0  0  0  0  0  0  0  0
   39.0393    5.0108    9.5672 H   0  0  0  0  0  0  0  0  0  0  0  0
   40.4661    6.1021    9.5672 H   0  0  0  0  0  0  0  0  0  0  0  0
   33.7680    2.8335    8.2223 H   0  0  0  0  0  0  0  0  0  0  0  0
   31.0117   -0.2795    9.4497 H   0  0  0  0  0  0  0  0  0  0  0  0
   30.9560    0.6705   11.7679 H   0  0  0  0  0  0  0  0  0  0  0  0
   32.2735    2.7447   12.2889 H   0  0  0  0  0  0  0  0  0  0  0  0
   29.4186    7.5149   16.8822 H   0  0  0  0  0  0  0  0  0  0  0  0
   28.6922    8.2746   15.4407 H   0  0  0  0  0  0  0  0  0  0  0  0
   31.3533   -0.8495    7.8177 H   0  0  0  0  0  0  0  0  0  0  0  0
  1  2  2  0
  1  3  1  0
  1 25  1  0
  3  4  1  0
  4  5  1  0
  4  7  1  0
  5  6  1  0
  6 19  1  0
  7  8  2  0
  7  9  1  0
  9 10  1  0
 10 16  1  0
 11 12  2  0
 11 16  1  0
 12 13  1  0
 13 14  2  0
 13 17  1  0
 14 15  1  0
 15 16  2  0
 17 18  2  3
 17 38  1  0
 19 20  1  0
 19 21  2  3
 22 23  1  0
 22 25  1  0
 22 26  1  0
 23 31  1  0
 24 25  1  0
 24 27  1  0
 27 28  2  0
 27 29  2  0
 27 30  1  0
 30 32  1  0
 32 33  2  0
 32 37  1  0
 33 34  1  0
 34 35  2  0
 34 39  1  0
 35 36  1  0
 36 37  2  0
 39 40  1  0
 39 41  2  0
  3 42  1  0
  4 43  1  0
  5 44  1  0
  5 45  1  0
  6 46  1  0
  6 47  1  0
  9 48  1  0
 10 49  1  0
 10 50  1  0
 11 51  1  0
 12 52  1  0
 14 53  1  0
 15 54  1  0
 18 55  1  0
 20 56  1  0
 20 57  1  0
 21 58  1  0
 22 59  1  0
 23 60  1  0
 23 61  1  0
 24 62  1  0
 25 63  1  0
 26 64  1  0
 26 65  1  0
 26 66  1  0
 30 67  1  0
 30 68  1  0
 31 69  1  0
 31 70  1  0
 31 71  1  0
 33 72  1  0
 35 73  1  0
 36 74  1  0
 37 75  1  0
 38 76  1  0
 38 77  1  0
 40 78  1  0
A    1
C15
A    2
O1
A    3
N17
A    4
C18
A    5
C19
A    6
C20
A    7
C28
A    8
O30
A    9
N31
A   10
C32
A   11
C16
A   12
C17
A   13
C22
A   14
C23
A   15
C24
A   16
C25
A   17
C26
A   18
N1
A   19
C2
A   20
N5
A   21
N3
A   22
C1
A   23
C4
A   24
N4
A   25
C5
A   26
C3
A   27
S1
A   28
O4
A   29
O3
A   30
C9
A   31
C6
A   32
C8
A   33
C7
A   34
C12
A   35
C10
A   36
C11
A   37
C13
A   38
N2
A   39
C14
A   40
O2
A   41
O5
M  END
