1WUT_BN2_A_930
     RDKit          3D

 52 53  0  0  0  0  0  0  0  0999 V2000
   23.5090    6.1810   53.7970 C   0  0  0  0  0  0  0  0  0  0  0  0
   23.8640    4.7950   53.7570 C   0  0  0  0  0  0  0  0  0  0  0  0
   23.7760    4.0660   52.5200 C   0  0  0  0  0  0  0  0  0  0  0  0
   23.3390    4.7050   51.3360 C   0  0  0  0  0  0  0  0  0  0  0  0
   23.2680    3.8320   49.8330 Cl  0  0  0  0  0  0  0  0  0  0  0  0
   22.9540    6.0870   51.3620 C   0  0  0  0  0  0  0  0  0  0  0  0
   23.0170    6.8150   52.6080 C   0  0  0  0  0  0  0  0  0  0  0  0
   23.4710    1.8650   53.4180 N   0  0  0  0  0  0  0  0  0  0  0  0
   24.1790    2.6580   52.5310 C   0  0  0  0  0  0  0  0  0  0  0  0
   25.0980    2.2840   51.7870 O   0  0  0  0  0  0  0  0  0  0  0  0
   24.6440   -0.1020   52.9190 N   0  0  0  0  0  0  0  0  0  0  0  0
   25.0340   -1.4710   52.9800 C   0  0  0  0  0  0  0  0  0  0  0  0
   24.2650   -2.5200   53.5860 C   0  0  0  0  0  0  0  0  0  0  0  0
   24.7760   -3.8400   53.5670 C   0  0  0  0  0  0  0  0  0  0  0  0
   23.8100   -4.9970   54.3740 Cl  0  0  0  0  0  0  0  0  0  0  0  0
   26.0190   -4.1430   52.9640 C   0  0  0  0  0  0  0  0  0  0  0  0
   26.5110   -5.4320   52.9180 O   0  0  0  0  0  0  0  0  0  0  0  0
   26.9930   -5.8830   54.2730 C   0  0  0  0  0  0  0  0  0  0  0  0
   28.4490   -6.3100   54.1200 C   0  0  0  0  0  0  0  0  0  0  0  0
   29.0200   -7.0730   55.3190 C   0  0  0  0  0  0  0  0  0  0  0  0
   29.0170   -6.2040   56.6290 C   0  0  0  0  0  0  0  0  0  0  0  0
   27.7940   -6.5780   57.5130 C   0  0  0  0  0  0  0  0  0  0  0  0
   27.9010   -5.7770   58.7860 C   0  0  0  0  0  0  0  0  0  0  0  0
   26.7610   -6.1870   59.7180 C   0  0  0  0  0  0  0  0  0  0  0  0
   26.6890   -6.8230   60.7310 O   0  0  0  0  0  0  0  0  0  0  0  0
   25.7030   -5.7530   59.3720 O   0  0  0  0  0  0  0  0  0  0  0  0
   26.7470   -3.1010   52.3610 C   0  0  0  0  0  0  0  0  0  0  0  0
   28.2380   -3.3650   51.6440 Cl  0  0  0  0  0  0  0  0  0  0  0  0
   26.3030   -1.7820   52.3750 C   0  0  0  0  0  0  0  0  0  0  0  0
   23.6350    0.5030   53.6620 C   0  0  0  0  0  0  0  0  0  0  0  0
   22.9050   -0.0710   54.5390 O   0  0  0  0  0  0  0  0  0  0  0  0
   23.6124    6.7542   54.7301 H   0  0  0  0  0  0  0  0  0  0  0  0
   24.2040    4.2875   54.6718 H   0  0  0  0  0  0  0  0  0  0  0  0
   22.6145    6.5868   50.4428 H   0  0  0  0  0  0  0  0  0  0  0  0
   22.6853    7.8631   52.6454 H   0  0  0  0  0  0  0  0  0  0  0  0
   22.7356    2.3381   53.9622 H   0  0  0  0  0  0  0  0  0  0  0  0
   25.1596    0.4989   52.2602 H   0  0  0  0  0  0  0  0  0  0  0  0
   23.2952   -2.3022   54.0572 H   0  0  0  0  0  0  0  0  0  0  0  0
   26.9176   -5.0553   54.9936 H   0  0  0  0  0  0  0  0  0  0  0  0
   26.3805   -6.7174   54.6453 H   0  0  0  0  0  0  0  0  0  0  0  0
   28.5253   -6.9572   53.2338 H   0  0  0  0  0  0  0  0  0  0  0  0
   29.0371   -5.3847   54.0311 H   0  0  0  0  0  0  0  0  0  0  0  0
   28.4112   -7.9732   55.4892 H   0  0  0  0  0  0  0  0  0  0  0  0
   30.0633   -7.3344   55.0884 H   0  0  0  0  0  0  0  0  0  0  0  0
   29.9436   -6.3903   57.1917 H   0  0  0  0  0  0  0  0  0  0  0  0
   28.9533   -5.1403   56.3563 H   0  0  0  0  0  0  0  0  0  0  0  0
   26.8598   -6.3287   56.9885 H   0  0  0  0  0  0  0  0  0  0  0  0
   27.7850   -7.6563   57.7303 H   0  0  0  0  0  0  0  0  0  0  0  0
   28.8672   -5.9796   59.2711 H   0  0  0  0  0  0  0  0  0  0  0  0
   27.8337   -4.7025   58.5604 H   0  0  0  0  0  0  0  0  0  0  0  0
   26.7408   -6.3655   61.6074 H   0  0  0  0  0  0  0  0  0  0  0  0
   26.9155   -0.9850   51.9283 H   0  0  0  0  0  0  0  0  0  0  0  0
  1  2  2  0
  1  7  1  0
  2  3  1  0
  3  4  2  0
  3  9  1  0
  4  5  1  0
  4  6  1  0
  6  7  2  0
  8  9  1  0
  8 30  1  0
  9 10  2  0
 11 12  1  0
 11 30  1  0
 12 13  2  0
 12 29  1  0
 13 14  1  0
 14 15  1  0
 14 16  2  0
 16 17  1  0
 16 27  1  0
 17 18  1  0
 18 19  1  0
 19 20  1  0
 20 21  1  0
 21 22  1  0
 22 23  1  0
 23 24  1  0
 24 25  1  0
 24 26  2  0
 27 28  1  0
 27 29  2  0
 30 31  2  0
  1 32  1  0
  2 33  1  0
  6 34  1  0
  7 35  1  0
  8 36  1  0
 11 37  1  0
 13 38  1  0
 18 39  1  0
 18 40  1  0
 19 41  1  0
 19 42  1  0
 20 43  1  0
 20 44  1  0
 21 45  1  0
 21 46  1  0
 22 47  1  0
 22 48  1  0
 23 49  1  0
 23 50  1  0
 25 51  1  0
 29 52  1  0
A    1
C4
A    2
C5
A    3
C6
A    4
C1
A    5
CL1
A    6
C2
A    7
C3
A    8
N1
A    9
C7
A   10
O1
A   11
N2
A   12
C9
A   13
C10
A   14
C11
A   15
CL2
A   16
C12
A   17
O3
A   18
C15
A   19
C16
A   20
C17
A   21
C18
A   22
C19
A   23
C20
A   24
C21
A   25
O5
A   26
O4
A   27
C13
A   28
CL3
A   29
C14
A   30
C8
A   31
O2
M  END
