1WV0_BN4_A_930
     RDKit          3D

 49 50  0  0  0  0  0  0  0  0999 V2000
   23.7250    5.9510   53.8140 C   0  0  0  0  0  0  0  0  0  0  0  0
   24.0080    4.5630   53.8180 C   0  0  0  0  0  0  0  0  0  0  0  0
   23.8490    3.7620   52.5370 C   0  0  0  0  0  0  0  0  0  0  0  0
   23.4030    4.3660   51.2890 C   0  0  0  0  0  0  0  0  0  0  0  0
   23.2210    3.4280   49.8630 Cl  0  0  0  0  0  0  0  0  0  0  0  0
   23.1130    5.8100   51.3280 C   0  0  0  0  0  0  0  0  0  0  0  0
   23.2830    6.5710   52.5860 C   0  0  0  0  0  0  0  0  0  0  0  0
   23.3970    1.7000   53.4840 N   0  0  0  0  0  0  0  0  0  0  0  0
   24.1660    2.3530   52.6290 C   0  0  0  0  0  0  0  0  0  0  0  0
   25.0650    1.8770   51.9430 O   0  0  0  0  0  0  0  0  0  0  0  0
   24.4460   -0.3440   53.1100 N   0  0  0  0  0  0  0  0  0  0  0  0
   24.7410   -1.6260   53.2470 C   0  0  0  0  0  0  0  0  0  0  0  0
   23.8360   -2.5290   53.9450 C   0  0  0  0  0  0  0  0  0  0  0  0
   24.1420   -3.9340   54.1210 C   0  0  0  0  0  0  0  0  0  0  0  0
   25.4030   -4.4980   53.6000 C   0  0  0  0  0  0  0  0  0  0  0  0
   25.7370   -5.9050   53.7760 O   0  0  0  0  0  0  0  0  0  0  0  0
   26.1830   -6.2590   55.1410 C   0  0  0  0  0  0  0  0  0  0  0  0
   26.5430   -7.7430   55.2750 C   0  0  0  0  0  0  0  0  0  0  0  0
   27.0090   -8.0770   56.7220 C   0  0  0  0  0  0  0  0  0  0  0  0
   26.3550   -3.5910   52.8890 C   0  0  0  0  0  0  0  0  0  0  0  0
   26.0210   -2.1670   52.7300 C   0  0  0  0  0  0  0  0  0  0  0  0
   23.4360    0.4290   53.7970 C   0  0  0  0  0  0  0  0  0  0  0  0
   22.6130    0.1000   54.6350 O   0  0  0  0  0  0  0  0  0  0  0  0
   22.9820    8.2050   52.6710 Cl  0  0  0  0  0  0  0  0  0  0  0  0
   27.0000   -1.2490   52.0110 C   0  0  0  0  0  0  0  0  0  0  0  0
   28.3660   -7.3870   57.1810 C   0  0  0  0  0  0  0  0  0  0  0  0
   28.2240   -6.3450   57.9080 O   0  0  0  0  0  0  0  0  0  0  0  0
   29.4390   -7.9420   56.7800 O   0  0  0  0  0  0  0  0  0  0  0  0
   27.6630   -4.1670   52.3520 C   0  0  0  0  0  0  0  0  0  0  0  0
   23.8399    6.5473   54.7312 H   0  0  0  0  0  0  0  0  0  0  0  0
   24.3407    4.0685   54.7425 H   0  0  0  0  0  0  0  0  0  0  0  0
   22.7688    6.3245   50.4187 H   0  0  0  0  0  0  0  0  0  0  0  0
   22.6781    2.2607   53.9633 H   0  0  0  0  0  0  0  0  0  0  0  0
   25.0117    0.1728   52.4216 H   0  0  0  0  0  0  0  0  0  0  0  0
   22.8932   -2.1327   54.3501 H   0  0  0  0  0  0  0  0  0  0  0  0
   23.4291   -4.5859   54.6471 H   0  0  0  0  0  0  0  0  0  0  0  0
   27.0696   -5.6572   55.3895 H   0  0  0  0  0  0  0  0  0  0  0  0
   25.3491   -6.0541   55.8285 H   0  0  0  0  0  0  0  0  0  0  0  0
   25.6586   -8.3507   55.0329 H   0  0  0  0  0  0  0  0  0  0  0  0
   27.3670   -7.9671   54.5816 H   0  0  0  0  0  0  0  0  0  0  0  0
   26.2161   -7.7594   57.4151 H   0  0  0  0  0  0  0  0  0  0  0  0
   27.2017   -9.1599   56.7346 H   0  0  0  0  0  0  0  0  0  0  0  0
   27.5930   -0.6929   52.7520 H   0  0  0  0  0  0  0  0  0  0  0  0
   27.6715   -1.8506   51.3808 H   0  0  0  0  0  0  0  0  0  0  0  0
   26.4428   -0.5403   51.3808 H   0  0  0  0  0  0  0  0  0  0  0  0
   28.2349   -6.4246   58.8947 H   0  0  0  0  0  0  0  0  0  0  0  0
   28.3110   -4.4523   53.1939 H   0  0  0  0  0  0  0  0  0  0  0  0
   27.4482   -5.0538   51.7376 H   0  0  0  0  0  0  0  0  0  0  0  0
   28.1722   -3.4099   51.7376 H   0  0  0  0  0  0  0  0  0  0  0  0
  1  2  2  0
  1  7  1  0
  2  3  1  0
  3  4  2  0
  3  9  1  0
  4  5  1  0
  4  6  1  0
  6  7  2  0
  7 24  1  0
  8  9  1  0
  8 22  1  0
  9 10  2  0
 11 12  1  0
 11 22  1  0
 12 13  2  0
 12 21  1  0
 13 14  1  0
 14 15  2  0
 15 16  1  0
 15 20  1  0
 16 17  1  0
 17 18  1  0
 18 19  1  0
 19 26  1  0
 20 21  2  0
 20 29  1  0
 21 25  1  0
 22 23  2  0
 26 27  1  0
 26 28  2  0
  1 30  1  0
  2 31  1  0
  6 32  1  0
  8 33  1  0
 11 34  1  0
 13 35  1  0
 14 36  1  0
 17 37  1  0
 17 38  1  0
 18 39  1  0
 18 40  1  0
 19 41  1  0
 19 42  1  0
 25 43  1  0
 25 44  1  0
 25 45  1  0
 27 46  1  0
 29 47  1  0
 29 48  1  0
 29 49  1  0
A    1
C4
A    2
C5
A    3
C6
A    4
C1
A    5
CL1
A    6
C2
A    7
C3
A    8
N1
A    9
C7
A   10
O1
A   11
N2
A   12
C9
A   13
C10
A   14
C11
A   15
C12
A   16
O3
A   17
C15
A   18
C16
A   19
C17
A   20
C13
A   21
C14
A   22
C8
A   23
O2
A   24
CL2
A   25
C19
A   26
C18
A   27
O4
A   28
O5
A   29
C20
M  END
