1WVX_BD4_A_1001
     RDKit          3D

 43 46  0  0  0  0  0  0  0  0999 V2000
   24.1580   42.0070   11.6060 O   0  0  0  0  0  0  0  0  0  0  0  0
   25.0400   41.7910   10.7770 C   0  0  0  0  0  0  0  0  0  0  0  0
   25.3820   42.5600    9.7420 N   0  0  0  0  0  0  0  0  0  0  0  0
   26.4200   42.0970    9.0450 C   0  0  0  0  0  0  0  0  0  0  0  0
   26.9120   42.6050    8.0390 O   0  0  0  0  0  0  0  0  0  0  0  0
   26.7790   40.9230    9.6950 C   0  0  0  0  0  0  0  0  0  0  0  0
   25.9220   40.7160   10.7670 C   0  0  0  0  0  0  0  0  0  0  0  0
   26.0880   39.5980   11.5820 C   0  0  0  0  0  0  0  0  0  0  0  0
   25.1450   39.3570   12.7640 C   0  0  0  0  0  0  0  0  0  0  0  0
   27.1170   38.6930   11.3270 C   0  0  0  0  0  0  0  0  0  0  0  0
   27.9830   38.9150   10.2600 C   0  0  0  0  0  0  0  0  0  0  0  0
   27.8160   40.0260    9.4410 C   0  0  0  0  0  0  0  0  0  0  0  0
   28.8320   40.0300    8.5000 C   0  0  0  0  0  0  0  0  0  0  0  0
   29.1070   40.9460    7.4870 C   0  0  0  0  0  0  0  0  0  0  0  0
   30.2310   40.7290    6.6940 C   0  0  0  0  0  0  0  0  0  0  0  0
   30.5740   41.7040    5.5640 C   0  0  0  0  0  0  0  0  0  0  0  0
   31.0530   39.6260    6.9140 C   0  0  0  0  0  0  0  0  0  0  0  0
   30.7690   38.7110    7.9270 C   0  0  0  0  0  0  0  0  0  0  0  0
   29.6480   38.9250    8.7190 C   0  0  0  0  0  0  0  0  0  0  0  0
   29.0730   38.3250    9.7650 N   0  0  0  0  0  0  0  0  0  0  0  0
   29.6110   37.0780   10.3310 C   0  0  0  0  0  0  0  0  0  0  0  0
   30.9230   37.3100   11.0870 C   0  0  0  0  0  0  0  0  0  0  0  0
   30.7410   38.1820   12.3300 C   0  0  0  0  0  0  0  0  0  0  0  0
   32.0210   38.2730   13.0490 N   0  0  0  0  0  0  0  0  0  0  0  0
   24.8890   43.4322    9.5030 H   0  0  0  0  0  0  0  0  0  0  0  0
   25.6948   39.4975   13.7063 H   0  0  0  0  0  0  0  0  0  0  0  0
   24.3090   40.0703   12.7174 H   0  0  0  0  0  0  0  0  0  0  0  0
   24.7537   38.3300   12.7174 H   0  0  0  0  0  0  0  0  0  0  0  0
   27.2442   37.8070   11.9663 H   0  0  0  0  0  0  0  0  0  0  0  0
   28.4550   41.8157    7.3184 H   0  0  0  0  0  0  0  0  0  0  0  0
   30.9101   42.6593    5.9934 H   0  0  0  0  0  0  0  0  0  0  0  0
   31.3764   41.2784    4.9435 H   0  0  0  0  0  0  0  0  0  0  0  0
   29.6819   41.8746    4.9435 H   0  0  0  0  0  0  0  0  0  0  0  0
   31.9387   39.4748    6.2795 H   0  0  0  0  0  0  0  0  0  0  0  0
   31.4182   37.8391    8.0953 H   0  0  0  0  0  0  0  0  0  0  0  0
   28.8707   36.6550   11.0260 H   0  0  0  0  0  0  0  0  0  0  0  0
   29.8156   36.3879    9.4992 H   0  0  0  0  0  0  0  0  0  0  0  0
   31.3277   36.3353   11.3970 H   0  0  0  0  0  0  0  0  0  0  0  0
   31.6090   37.8378   10.4082 H   0  0  0  0  0  0  0  0  0  0  0  0
   30.4160   39.1888   12.0287 H   0  0  0  0  0  0  0  0  0  0  0  0
   29.9796   37.7354   12.9863 H   0  0  0  0  0  0  0  0  0  0  0  0
   31.8463   38.2606   14.0640 H   0  0  0  0  0  0  0  0  0  0  0  0
   32.6161   37.4722   12.7932 H   0  0  0  0  0  0  0  0  0  0  0  0
  1  2  2  0
  2  3  1  0
  2  7  1  0
  3  4  1  0
  4  5  2  0
  4  6  1  0
  6  7  2  0
  6 12  1  0
  7  8  1  0
  8  9  1  0
  8 10  2  0
 10 11  1  0
 11 12  2  0
 11 20  1  0
 12 13  1  0
 13 14  2  0
 13 19  1  0
 14 15  1  0
 15 16  1  0
 15 17  2  0
 17 18  1  0
 18 19  2  0
 19 20  1  0
 20 21  1  0
 21 22  1  0
 22 23  1  0
 23 24  1  0
  3 25  1  0
  9 26  1  0
  9 27  1  0
  9 28  1  0
 10 29  1  0
 14 30  1  0
 16 31  1  0
 16 32  1  0
 16 33  1  0
 17 34  1  0
 18 35  1  0
 21 36  1  0
 21 37  1  0
 22 38  1  0
 22 39  1  0
 23 40  1  0
 23 41  1  0
 24 42  1  0
 24 43  1  0
A    1
O23
A    2
C20
A    3
N21
A    4
C22
A    5
O24
A    6
C13
A    7
C12
A    8
C11
A    9
C15
A   10
C10
A   11
C8
A   12
C9
A   13
C5
A   14
C6
A   15
C1
A   16
C14
A   17
C2
A   18
C3
A   19
C4
A   20
N7
A   21
C16
A   22
C17
A   23
C18
A   24
N19
M  END
