1BEU_IPL_A_273
     RDKit          3D

 31 32  0  0  0  0  0  0  0  0999 V2000
   51.8200   27.9470   15.3430 N   0  0  0  0  0  0  0  0  0  0  0  0
   50.4830   28.4430   15.3960 C   0  0  0  0  0  0  0  0  0  0  0  0
   49.6480   27.4090   15.1490 C   0  0  0  0  0  0  0  0  0  0  0  0
   50.1550   24.8390   14.8360 C   0  0  0  0  0  0  0  0  0  0  0  0
   51.2770   23.9300   14.8980 C   0  0  0  0  0  0  0  0  0  0  0  0
   52.6070   24.3950   15.0260 C   0  0  0  0  0  0  0  0  0  0  0  0
   52.8930   25.7800   15.1170 C   0  0  0  0  0  0  0  0  0  0  0  0
   51.8110   26.6750   15.0680 C   0  0  0  0  0  0  0  0  0  0  0  0
   50.4300   26.2550   14.9290 C   0  0  0  0  0  0  0  0  0  0  0  0
   47.8360   27.8670   12.4390 C   0  0  0  0  0  0  0  0  0  0  0  0
   47.5620   27.9700   13.9020 C   0  0  0  0  0  0  0  0  0  0  0  0
   48.1310   27.4420   15.1800 C   0  0  0  0  0  0  0  0  0  0  0  0
   48.2040   29.3060   10.2800 P   0  0  0  0  0  0  0  0  0  0  0  0
   48.1040   28.1190    9.3880 O   0  0  0  0  0  0  0  0  0  0  0  0
   47.0310   30.2680    9.8710 O   0  0  0  0  0  0  0  0  0  0  0  0
   49.5100   29.9800   10.3240 O   0  0  0  0  0  0  0  0  0  0  0  0
   47.9770   28.9360   11.7420 O   0  0  0  0  0  0  0  0  0  0  0  0
   52.6668   28.5121   15.4993 H   0  0  0  0  0  0  0  0  0  0  0  0
   50.1849   29.4818   15.6013 H   0  0  0  0  0  0  0  0  0  0  0  0
   49.1265   24.4658   14.7219 H   0  0  0  0  0  0  0  0  0  0  0  0
   51.0917   22.8470   14.8442 H   0  0  0  0  0  0  0  0  0  0  0  0
   53.4331   23.6692   15.0554 H   0  0  0  0  0  0  0  0  0  0  0  0
   53.9264   26.1419   15.2224 H   0  0  0  0  0  0  0  0  0  0  0  0
   48.7653   27.2890   12.3283 H   0  0  0  0  0  0  0  0  0  0  0  0
   46.9159   27.4181   12.0367 H   0  0  0  0  0  0  0  0  0  0  0  0
   47.6060   29.0569   14.0655 H   0  0  0  0  0  0  0  0  0  0  0  0
   46.7595   27.2183   13.8717 H   0  0  0  0  0  0  0  0  0  0  0  0
   47.7557   26.4208   15.3421 H   0  0  0  0  0  0  0  0  0  0  0  0
   47.8196   28.1111   15.9957 H   0  0  0  0  0  0  0  0  0  0  0  0
   46.5968   30.6241   10.6863 H   0  0  0  0  0  0  0  0  0  0  0  0
   49.7783   30.1185   11.2668 H   0  0  0  0  0  0  0  0  0  0  0  0
  1  2  1  0
  1  8  1  0
  2  3  2  0
  3  9  1  0
  3 12  1  0
  4  5  1  0
  4  9  2  0
  5  6  2  0
  6  7  1  0
  7  8  2  0
  8  9  1  0
 10 11  1  0
 10 17  1  0
 11 12  1  0
 13 14  2  0
 13 15  1  0
 13 16  1  0
 13 17  1  0
  1 18  1  0
  2 19  1  0
  4 20  1  0
  5 21  1  0
  6 22  1  0
  7 23  1  0
 10 24  1  0
 10 25  1  0
 11 26  1  0
 11 27  1  0
 12 28  1  0
 12 29  1  0
 15 30  1  0
 16 31  1  0
A    1
N1
A    2
C2
A    3
C3
A    4
C4
A    5
C5
A    6
C6
A    7
C7
A    8
C8
A    9
C9
A   10
C1'
A   11
C2'
A   12
C3'
A   13
P
A   14
O1P
A   15
O2P
A   16
O3P
A   17
O4P
M  END
