1FIQ_SAL_C_1335
     RDKit          3D

 16 16  0  0  0  0  0  0  0  0999 V2000
   27.4390    9.3380  112.0700 C   0  0  0  0  0  0  0  0  0  0  0  0
   27.9670    8.2690  112.3630 O   0  0  0  0  0  0  0  0  0  0  0  0
   27.6160    9.6980  110.9120 O   0  0  0  0  0  0  0  0  0  0  0  0
   26.6820   10.1210  112.9920 C   0  0  0  0  0  0  0  0  0  0  0  0
   26.4540    9.7500  114.3460 C   0  0  0  0  0  0  0  0  0  0  0  0
   25.7080   10.5450  115.2640 C   0  0  0  0  0  0  0  0  0  0  0  0
   25.1700   11.7510  114.8010 C   0  0  0  0  0  0  0  0  0  0  0  0
   25.3490   12.1860  113.4630 C   0  0  0  0  0  0  0  0  0  0  0  0
   26.1050   11.3600  112.5710 C   0  0  0  0  0  0  0  0  0  0  0  0
   26.9460    8.6000  114.8630 O   0  0  0  0  0  0  0  0  0  0  0  0
   28.0449   10.5704  110.7249 H   0  0  0  0  0  0  0  0  0  0  0  0
   25.5597   10.2205  116.3045 H   0  0  0  0  0  0  0  0  0  0  0  0
   24.5919   12.3794  115.4944 H   0  0  0  0  0  0  0  0  0  0  0  0
   24.9166   13.1369  113.1183 H   0  0  0  0  0  0  0  0  0  0  0  0
   26.2463   11.6881  111.5306 H   0  0  0  0  0  0  0  0  0  0  0  0
   26.9971    8.4805  115.8444 H   0  0  0  0  0  0  0  0  0  0  0  0
  1  2  2  0
  1  3  1  0
  1  4  1  0
  4  5  2  0
  4  9  1  0
  5  6  1  0
  5 10  1  0
  6  7  2  0
  7  8  1  0
  8  9  2  0
  3 11  1  0
  6 12  1  0
  7 13  1  0
  8 14  1  0
  9 15  1  0
 10 16  1  0
A    1
C1'
A    2
O1'
A    3
O2'
A    4
C1
A    5
C2
A    6
C3
A    7
C4
A    8
C5
A    9
C6
A   10
O2
M  END
