1WZD_YOK_A_901
     RDKit          3D

 48 53  0  0  0  0  0  0  0  0999 V2000
   -4.5000   13.7820   44.5270 O   0  0  0  0  0  0  0  0  0  0  0  0
   -3.4390   13.0960   44.2340 C   0  0  0  0  0  0  0  0  0  0  0  0
   -2.5130   13.0410   45.0570 O   0  0  0  0  0  0  0  0  0  0  0  0
   -3.3290   12.4270   42.9850 C   0  0  0  0  0  0  0  0  0  0  0  0
   -4.5300   12.4870   41.9940 C   0  0  0  0  0  0  0  0  0  0  0  0
   -3.9710   11.9380   40.7010 C   0  0  0  0  0  0  0  0  0  0  0  0
   -3.2650   10.6970   40.6630 C   0  0  0  0  0  0  0  0  0  0  0  0
   -2.7570   10.2420   39.4200 C   0  0  0  0  0  0  0  0  0  0  0  0
   -2.9940   11.0440   38.2800 C   0  0  0  0  0  0  0  0  0  0  0  0
   -2.5070   10.6600   37.0100 N   0  0  0  0  0  0  0  0  0  0  0  0
   -2.2590   12.3910   35.7190 Fe  0  0  0  0  0  4  0  0  0  0  0  0
   -1.0970   11.2770   34.5980 O   0  0  0  0  0  0  0  0  0  0  0  0
   -1.0300    9.9250   34.4530 C   0  0  0  0  0  0  0  0  0  0  0  0
   -1.6010    9.0280   35.4300 C   0  0  0  0  0  0  0  0  0  0  0  0
   -1.4900    7.6470   35.2320 C   0  0  0  0  0  0  0  0  0  0  0  0
   -0.8550    7.1650   34.0980 C   0  0  0  0  0  0  0  0  0  0  0  0
   -0.2960    8.0300   33.1450 C   0  0  0  0  0  0  0  0  0  0  0  0
   -0.3800    9.4210   33.3050 C   0  0  0  0  0  0  0  0  0  0  0  0
   -2.2590    9.4690   36.6110 C   0  0  0  0  0  0  0  0  0  0  0  0
   -3.5430   12.7140   34.3820 O   0  0  0  0  0  0  0  0  0  0  0  0
   -4.5830   13.5880   34.2900 C   0  0  0  0  0  0  0  0  0  0  0  0
   -5.0320   13.9920   32.9900 C   0  0  0  0  0  0  0  0  0  0  0  0
   -6.1150   14.9160   32.9280 C   0  0  0  0  0  0  0  0  0  0  0  0
   -6.7470   15.4400   34.0860 C   0  0  0  0  0  0  0  0  0  0  0  0
   -6.2840   15.0210   35.3740 C   0  0  0  0  0  0  0  0  0  0  0  0
   -5.2040   14.0990   35.5040 C   0  0  0  0  0  0  0  0  0  0  0  0
   -4.7830   13.7040   36.8180 C   0  0  0  0  0  0  0  0  0  0  0  0
   -3.8080   12.8870   37.0820 N   0  0  0  0  0  0  0  0  0  0  0  0
   -3.7050   12.2600   38.3440 C   0  0  0  0  0  0  0  0  0  0  0  0
   -4.2000   12.7250   39.5680 C   0  0  0  0  0  0  0  0  0  0  0  0
   -4.7423   13.9387   45.4740 H   0  0  0  0  0  0  0  0  0  0  0  0
   -2.4588   12.8539   42.4649 H   0  0  0  0  0  0  0  0  0  0  0  0
   -3.2614   11.3634   43.2575 H   0  0  0  0  0  0  0  0  0  0  0  0
   -5.3639   11.8661   42.3534 H   0  0  0  0  0  0  0  0  0  0  0  0
   -4.9327   13.5044   41.8808 H   0  0  0  0  0  0  0  0  0  0  0  0
   -3.1184   10.1064   41.5793 H   0  0  0  0  0  0  0  0  0  0  0  0
   -2.1978    9.2977   39.3451 H   0  0  0  0  0  0  0  0  0  0  0  0
   -1.9047    6.9474   35.9727 H   0  0  0  0  0  0  0  0  0  0  0  0
   -0.7877    6.0783   33.9414 H   0  0  0  0  0  0  0  0  0  0  0  0
    0.2132    7.6131   32.2636 H   0  0  0  0  0  0  0  0  0  0  0  0
    0.0495   10.1019   32.5554 H   0  0  0  0  0  0  0  0  0  0  0  0
   -2.6063    8.6685   37.2808 H   0  0  0  0  0  0  0  0  0  0  0  0
   -4.5590   13.6039   32.0759 H   0  0  0  0  0  0  0  0  0  0  0  0
   -6.4769   15.2371   31.9401 H   0  0  0  0  0  0  0  0  0  0  0  0
   -7.5777   16.1553   33.9952 H   0  0  0  0  0  0  0  0  0  0  0  0
   -6.7693   15.4167   36.2784 H   0  0  0  0  0  0  0  0  0  0  0  0
   -5.3312   14.1281   37.6722 H   0  0  0  0  0  0  0  0  0  0  0  0
   -4.7495   13.6755   39.6362 H   0  0  0  0  0  0  0  0  0  0  0  0
  1  2  1  0
  2  3  2  0
  2  4  1  0
  4  5  1  0
  5  6  1  0
  6  7  2  0
  6 30  1  0
  7  8  1  0
  8  9  2  0
  9 10  1  0
  9 29  1  0
 10 11  1  0
 10 19  2  0
 11 12  1  0
 11 20  1  0
 11 28  1  0
 12 13  1  0
 13 14  2  0
 13 18  1  0
 14 15  1  0
 14 19  1  0
 15 16  2  0
 16 17  1  0
 17 18  2  0
 20 21  1  0
 21 22  2  0
 21 26  1  0
 22 23  1  0
 23 24  2  0
 24 25  1  0
 25 26  2  0
 26 27  1  0
 27 28  2  0
 28 29  1  0
 29 30  2  0
  1 31  1  0
  4 32  1  0
  4 33  1  0
  5 34  1  0
  5 35  1  0
  7 36  1  0
  8 37  1  0
 15 38  1  0
 16 39  1  0
 17 40  1  0
 18 41  1  0
 19 42  1  0
 22 43  1  0
 23 44  1  0
 24 45  1  0
 25 46  1  0
 27 47  1  0
 30 48  1  0
M  CHG  2  10   1  28   1
A    1
O1A
A    2
CGA
A    3
O2A
A    4
CBA
A    5
CAA
A    6
CC5
A    7
CC4
A    8
CC3
A    9
CC2
A   10
NB
A   11
FE
A   12
OB
A   13
CB2
A   14
CB1
A   15
CB6
A   16
CB5
A   17
CB4
A   18
CB3
A   19
CB
A   20
OA
A   21
CA2
A   22
CA3
A   23
CA4
A   24
CA5
A   25
CA6
A   26
CA1
A   27
CA
A   28
NA
A   29
CC1
A   30
CC6
M  END
