1X1J_46D_A_2001
     RDKit          3D

 50 52  0  0  0  0  0  0  0  0999 V2000
   20.7370   56.2480   80.0810 O   0  0  0  0  0  0  0  0  0  0  0  0
   19.6590   56.6160   79.5660 C   0  0  0  0  0  0  0  0  0  0  0  0
   18.7780   55.8310   79.1540 O   0  0  0  0  0  0  0  0  0  0  0  0
   19.4170   58.1200   79.4240 C   0  0  0  0  0  0  0  0  0  0  0  0
   20.0490   58.5660   78.2110 O   0  0  0  0  0  0  0  0  0  0  0  0
   19.9480   59.9900   78.0430 C   0  0  0  0  0  0  0  0  0  0  0  0
   18.4720   60.3750   77.9130 C   0  0  0  0  0  0  0  0  0  0  0  0
   18.3640   61.7960   77.7880 O   0  0  0  0  0  0  0  0  0  0  0  0
   17.6990   59.9080   79.1490 C   0  0  0  0  0  0  0  0  0  0  0  0
   16.3060   60.1460   78.9330 O   0  0  0  0  0  0  0  0  0  0  0  0
   17.9220   58.4150   79.4090 C   0  0  0  0  0  0  0  0  0  0  0  0
   17.3580   58.0400   80.6770 O   0  0  0  0  0  0  0  0  0  0  0  0
   16.1010   57.3590   80.5310 C   0  0  0  0  0  0  0  0  0  0  0  0
   15.0620   58.2920   80.1870 O   0  0  0  0  0  0  0  0  0  0  0  0
   13.8000   57.6310   79.9940 C   0  0  0  0  0  0  0  0  0  0  0  0
   12.7180   58.6170   79.5860 C   0  0  0  0  0  0  0  0  0  0  0  0
   11.4700   57.9220   79.4230 O   0  0  0  0  0  0  0  0  0  0  0  0
   11.0400   57.2010   80.5860 C   0  0  0  0  0  0  0  0  0  0  0  0
   10.5820   58.1520   81.6960 C   0  0  0  0  0  0  0  0  0  0  0  0
   10.6310   57.7220   82.8680 O   0  0  0  0  0  0  0  0  0  0  0  0
   10.1910   59.2880   81.3490 O   0  0  0  0  0  0  0  0  0  0  0  0
    9.8470   56.3350   80.1770 C   0  0  0  0  0  0  0  0  0  0  0  0
   12.0730   56.3230   81.0550 O   0  0  0  0  0  0  0  0  0  0  0  0
   13.3260   56.9880   81.2870 C   0  0  0  0  0  0  0  0  0  0  0  0
   14.3850   55.9770   81.7310 C   0  0  0  0  0  0  0  0  0  0  0  0
   14.0150   55.4420   83.0050 O   0  0  0  0  0  0  0  0  0  0  0  0
   15.7550   56.6510   81.8450 C   0  0  0  0  0  0  0  0  0  0  0  0
   15.7130   57.6140   82.9010 O   0  0  0  0  0  0  0  0  0  0  0  0
   20.8296   56.2164   81.0662 H   0  0  0  0  0  0  0  0  0  0  0  0
   19.8488   58.6597   80.2797 H   0  0  0  0  0  0  0  0  0  0  0  0
   20.3852   60.4960   78.9164 H   0  0  0  0  0  0  0  0  0  0  0  0
   20.4922   60.2961   77.1374 H   0  0  0  0  0  0  0  0  0  0  0  0
   18.0470   59.8912   77.0212 H   0  0  0  0  0  0  0  0  0  0  0  0
   18.3329   62.2051   78.6890 H   0  0  0  0  0  0  0  0  0  0  0  0
   18.0588   60.4670   80.0254 H   0  0  0  0  0  0  0  0  0  0  0  0
   15.8454   60.2247   79.8058 H   0  0  0  0  0  0  0  0  0  0  0  0
   17.4317   57.8394   78.6100 H   0  0  0  0  0  0  0  0  0  0  0  0
   16.1836   56.6175   79.7227 H   0  0  0  0  0  0  0  0  0  0  0  0
   13.9603   56.8787   79.2077 H   0  0  0  0  0  0  0  0  0  0  0  0
   12.6101   59.3856   80.3655 H   0  0  0  0  0  0  0  0  0  0  0  0
   12.9977   59.0942   78.6352 H   0  0  0  0  0  0  0  0  0  0  0  0
    9.9588   59.9626   82.0353 H   0  0  0  0  0  0  0  0  0  0  0  0
    9.3367   55.9646   81.0783 H   0  0  0  0  0  0  0  0  0  0  0  0
    9.1456   56.9357   79.5793 H   0  0  0  0  0  0  0  0  0  0  0  0
   10.2009   55.4820   79.5793 H   0  0  0  0  0  0  0  0  0  0  0  0
   13.1825   57.7474   82.0698 H   0  0  0  0  0  0  0  0  0  0  0  0
   14.4470   55.1721   80.9838 H   0  0  0  0  0  0  0  0  0  0  0  0
   14.4025   56.0023   83.7233 H   0  0  0  0  0  0  0  0  0  0  0  0
   16.5199   55.8894   82.0569 H   0  0  0  0  0  0  0  0  0  0  0  0
   15.7333   57.1475   83.7740 H   0  0  0  0  0  0  0  0  0  0  0  0
  1  2  1  0
  2  3  2  0
  2  4  1  0
  4  5  1  0
  4 11  1  0
  5  6  1  0
  6  7  1  0
  7  8  1  0
  7  9  1  0
  9 10  1  0
  9 11  1  0
 11 12  1  0
 12 13  1  0
 13 14  1  0
 13 27  1  0
 14 15  1  0
 15 16  1  0
 15 24  1  0
 16 17  1  0
 17 18  1  0
 18 19  1  0
 18 22  1  0
 18 23  1  0
 19 20  2  0
 19 21  1  0
 23 24  1  0
 24 25  1  0
 25 26  1  0
 25 27  1  0
 27 28  1  0
  1 29  1  0
  4 30  1  0
  6 31  1  0
  6 32  1  0
  7 33  1  0
  8 34  1  0
  9 35  1  0
 10 36  1  0
 11 37  1  0
 13 38  1  0
 15 39  1  0
 16 40  1  0
 16 41  1  0
 21 42  1  0
 22 43  1  0
 22 44  1  0
 22 45  1  0
 24 46  1  0
 25 47  1  0
 26 48  1  0
 27 49  1  0
 28 50  1  0
A    1
O6A
A    2
C6
A    3
O6B
A    4
C5
A    5
O5
A    6
C1
A    7
C2
A    8
O2
A    9
C3
A   10
O3
A   11
C4
A   12
OP1
A   13
CP1
A   14
OP5
A   15
CP5
A   16
CP6
A   17
OP6
A   18
CP7
A   19
CP9
A   20
OP7
A   21
OP8
A   22
CP8
A   23
OP4
A   24
CP4
A   25
CP3
A   26
OP3
A   27
CP2
A   28
OP2
M  END
