1X29_PMG_A_413
     RDKit          3D

 47 47  0  0  0  0  0  0  0  0999 V2000
   31.8220   77.0030    1.0280 N   0  0  0  0  0  0  0  0  0  0  0  0
   32.0590   75.5690    0.9530 C   0  0  0  0  0  0  0  0  0  0  0  0
   31.5920   74.8970    2.2420 C   0  0  0  0  0  0  0  0  0  0  0  0
   32.6850   75.0710   -0.3200 C   0  0  0  0  0  0  0  0  0  0  0  0
   32.8620   73.7460   -0.2900 O   0  0  0  0  0  0  0  0  0  0  0  0
   33.0450   75.9670   -1.4430 C   0  0  0  0  0  0  0  0  0  0  0  0
   33.6870   75.4520   -2.7690 C   0  0  0  0  0  0  0  0  0  0  0  0
   32.7230   77.4160   -1.1740 C   0  0  0  0  0  0  0  0  0  0  0  0
   32.1280   77.9300    0.0260 C   0  0  0  0  0  0  0  0  0  0  0  0
   32.9940   78.5320   -2.1670 C   0  0  0  0  0  0  0  0  0  0  0  0
   32.6370   78.2930   -3.4670 O   0  0  0  0  0  0  0  0  0  0  0  0
   32.8120   79.2900   -4.7000 P   0  0  0  0  0  0  0  0  0  0  0  0
   31.5340   79.5970   -5.3090 O   0  0  0  0  0  0  0  0  0  0  0  0
   33.8020   78.5450   -5.5370 O   0  0  0  0  0  0  0  0  0  0  0  0
   33.4390   80.5970   -4.1770 O   0  0  0  0  0  0  0  0  0  0  0  0
   34.4930   74.0990   -2.5380 N   0  0  0  0  0  0  0  0  0  0  0  0
   35.2260   73.2710   -3.5110 C   0  0  0  0  0  0  0  0  0  0  0  0
   34.1970   72.3460   -4.2070 C   0  0  0  0  0  0  0  0  0  0  0  0
   35.9230   74.2160   -4.5600 C   0  0  0  0  0  0  0  0  0  0  0  0
   37.3950   74.5640   -4.4460 C   0  0  0  0  0  0  0  0  0  0  0  0
   37.6500   75.4600   -3.2770 C   0  0  0  0  0  0  0  0  0  0  0  0
   37.2600   76.6480   -3.3600 O   0  0  0  0  0  0  0  0  0  0  0  0
   38.2380   74.9550   -2.2810 O   0  0  0  0  0  0  0  0  0  0  0  0
   36.2140   72.3500   -2.7030 C   0  0  0  0  0  0  0  0  0  0  0  0
   37.0740   71.6950   -3.3190 O   0  0  0  0  0  0  0  0  0  0  0  0
   36.0740   72.3190   -1.4500 O   0  0  0  0  0  0  0  0  0  0  0  0
   31.9795   75.4546    3.1074 H   0  0  0  0  0  0  0  0  0  0  0  0
   30.4925   74.8887    2.2736 H   0  0  0  0  0  0  0  0  0  0  0  0
   31.9676   73.8636    2.2736 H   0  0  0  0  0  0  0  0  0  0  0  0
   32.9250   73.2745    0.5783 H   0  0  0  0  0  0  0  0  0  0  0  0
   32.8904   75.2724   -3.5060 H   0  0  0  0  0  0  0  0  0  0  0  0
   34.3904   76.2158   -3.1321 H   0  0  0  0  0  0  0  0  0  0  0  0
   31.9220   79.0031    0.1523 H   0  0  0  0  0  0  0  0  0  0  0  0
   32.4440   79.4222   -1.8276 H   0  0  0  0  0  0  0  0  0  0  0  0
   34.0877   78.6489   -2.1822 H   0  0  0  0  0  0  0  0  0  0  0  0
   34.4380   78.0664   -4.9483 H   0  0  0  0  0  0  0  0  0  0  0  0
   33.4363   80.5913   -3.1870 H   0  0  0  0  0  0  0  0  0  0  0  0
   35.1984   74.3412   -1.8276 H   0  0  0  0  0  0  0  0  0  0  0  0
   33.6068   71.8155   -3.4453 H   0  0  0  0  0  0  0  0  0  0  0  0
   33.5263   72.9507   -4.8350 H   0  0  0  0  0  0  0  0  0  0  0  0
   34.7271   71.6149   -4.8350 H   0  0  0  0  0  0  0  0  0  0  0  0
   35.7896   73.7423   -5.5438 H   0  0  0  0  0  0  0  0  0  0  0  0
   35.4324   75.1831   -4.3754 H   0  0  0  0  0  0  0  0  0  0  0  0
   37.9741   73.6372   -4.3207 H   0  0  0  0  0  0  0  0  0  0  0  0
   37.7001   75.0913   -5.3619 H   0  0  0  0  0  0  0  0  0  0  0  0
   37.0882   77.1712   -2.5373 H   0  0  0  0  0  0  0  0  0  0  0  0
   36.8507   72.4910   -0.8607 H   0  0  0  0  0  0  0  0  0  0  0  0
  1  2  2  0
  1  9  1  0
  2  3  1  0
  2  4  1  0
  4  5  1  0
  4  6  2  0
  6  7  1  0
  6  8  1  0
  7 16  1  0
  8  9  2  0
  8 10  1  0
 10 11  1  0
 11 12  1  0
 12 13  2  0
 12 14  1  0
 12 15  1  0
 16 17  1  0
 17 18  1  0
 17 19  1  0
 17 24  1  0
 19 20  1  0
 20 21  1  0
 21 22  1  0
 21 23  2  0
 24 25  2  0
 24 26  1  0
  3 27  1  0
  3 28  1  0
  3 29  1  0
  5 30  1  0
  7 31  1  0
  7 32  1  0
  9 33  1  0
 10 34  1  0
 10 35  1  0
 14 36  1  0
 15 37  1  0
 16 38  1  0
 18 39  1  0
 18 40  1  0
 18 41  1  0
 19 42  1  0
 19 43  1  0
 20 44  1  0
 20 45  1  0
 22 46  1  0
 26 47  1  0
A    1
N1
A    2
C2
A    3
C2A
A    4
C3
A    5
O3
A    6
C4
A    7
C4A
A    8
C5
A    9
C6
A   10
C5A
A   11
OP4
A   12
P
A   13
OP1
A   14
OP2
A   15
OP3
A   16
N
A   17
CA
A   18
CB2
A   19
CB1
A   20
CG
A   21
CD
A   22
OE1
A   23
OE2
A   24
C
A   25
O
A   26
OXT
M  END
