1X2B_STX_A_401
     RDKit          3D

 29 29  0  0  0  0  0  0  0  0999 V2000
   18.4240   -0.3340   -9.0280 N   0  0  0  0  0  0  0  0  0  0  0  0
   19.2580    0.3830   -7.9900 C   0  0  0  0  0  0  0  0  0  0  0  0
   20.7310   -0.0430   -8.0460 C   0  0  0  0  0  0  0  0  0  0  0  0
   21.0870   -1.1610   -7.7090 O   0  0  0  0  0  0  0  0  0  0  0  0
   17.0950   -0.6440   -8.3970 C   0  0  0  0  0  0  0  0  0  0  0  0
   21.6890    0.9680   -8.5010 C   0  0  0  0  0  0  0  0  0  0  0  0
   21.6680    1.7970   -9.5720 N   0  0  0  0  0  0  0  0  0  0  0  0
   22.7540    2.5370   -9.5680 N   0  0  0  0  0  0  0  0  0  0  0  0
   23.5220    2.2190   -8.5000 C   0  0  0  0  0  0  0  0  0  0  0  0
   22.8750    1.2010   -7.7710 O   0  0  0  0  0  0  0  0  0  0  0  0
   24.8470    2.7390   -8.0060 C   0  0  0  0  0  0  0  0  0  0  0  0
   25.6590    3.2950   -9.1820 C   0  0  0  0  0  0  0  0  0  0  0  0
   25.6400    1.6120   -7.3320 C   0  0  0  0  0  0  0  0  0  0  0  0
   24.5580    3.8600   -7.0170 C   0  0  0  0  0  0  0  0  0  0  0  0
   18.2909    0.2698   -9.8517 H   0  0  0  0  0  0  0  0  0  0  0  0
   19.1941    1.4665   -8.1688 H   0  0  0  0  0  0  0  0  0  0  0  0
   18.8649    0.1213   -6.9965 H   0  0  0  0  0  0  0  0  0  0  0  0
   17.1948   -0.6207   -7.3018 H   0  0  0  0  0  0  0  0  0  0  0  0
   16.3549    0.1056   -8.7138 H   0  0  0  0  0  0  0  0  0  0  0  0
   16.7630   -1.6437   -8.7138 H   0  0  0  0  0  0  0  0  0  0  0  0
   26.5094    3.8773   -8.7976 H   0  0  0  0  0  0  0  0  0  0  0  0
   26.0325    2.4622   -9.7960 H   0  0  0  0  0  0  0  0  0  0  0  0
   25.0176    3.9443   -9.7960 H   0  0  0  0  0  0  0  0  0  0  0  0
   25.5673    1.7153   -6.2393 H   0  0  0  0  0  0  0  0  0  0  0  0
   25.2261    0.6394   -7.6367 H   0  0  0  0  0  0  0  0  0  0  0  0
   26.6952    1.6731   -7.6367 H   0  0  0  0  0  0  0  0  0  0  0  0
   24.6566    3.4776   -5.9903 H   0  0  0  0  0  0  0  0  0  0  0  0
   25.2740    4.6803   -7.1731 H   0  0  0  0  0  0  0  0  0  0  0  0
   23.5346    4.2319   -7.1731 H   0  0  0  0  0  0  0  0  0  0  0  0
  1  2  1  0
  1  5  1  0
  2  3  1  0
  3  4  2  0
  3  6  1  0
  6  7  2  0
  6 10  1  0
  7  8  1  0
  8  9  2  0
  9 10  1  0
  9 11  1  0
 11 12  1  0
 11 13  1  0
 11 14  1  0
  1 15  1  0
  2 16  1  0
  2 17  1  0
  5 18  1  0
  5 19  1  0
  5 20  1  0
 12 21  1  0
 12 22  1  0
 12 23  1  0
 13 24  1  0
 13 25  1  0
 13 26  1  0
 14 27  1  0
 14 28  1  0
 14 29  1  0
A    1
N
A    2
CA
A    3
C
A    4
O
A    5
CD
A    6
C5
A    7
N4
A    8
N3
A    9
C2
A   10
O1
A   11
C6
A   12
C7
A   13
C8
A   14
C9
M  END
