1X6U_DO8_A_2634
     RDKit          3D

 35 35  0  0  0  0  0  0  0  0999 V2000
    7.1600  -12.3990   42.0860 C   0  0  0  0  0  0  0  0  0  0  0  0
    6.2080  -12.8690   42.7410 O   0  0  0  0  0  0  0  0  0  0  0  0
    8.2210  -12.0410   42.7120 O   0  0  0  0  0  0  0  0  0  0  0  0
    7.0020  -12.2480   40.5790 C   0  0  0  0  0  0  0  0  0  0  0  0
    5.9940  -13.3600   40.0880 C   0  0  0  0  0  0  0  0  0  0  0  0
    5.5880  -13.0450   38.6500 C   0  0  0  0  0  0  0  0  0  0  0  0
    4.6350  -14.0970   38.3050 O   0  0  0  0  0  0  0  0  0  0  0  0
    4.9280  -11.6690   38.5650 C   0  0  0  0  0  0  0  0  0  0  0  0
    3.7310  -11.6210   39.3890 O   0  0  0  0  0  0  0  0  0  0  0  0
    6.0020  -10.5650   38.9960 C   0  0  0  0  0  0  0  0  0  0  0  0
    6.5500  -10.8280   40.3720 O   0  0  0  0  0  0  0  0  0  0  0  0
    5.4810   -9.0040   39.1090 C   0  0  0  0  0  0  0  0  0  0  0  0
    5.0100   -7.9130   39.9760 O   0  0  0  0  0  0  0  0  0  0  0  0
    4.9200   -8.8600   37.6280 C   0  0  0  0  0  0  0  0  0  0  0  0
    5.0230   -6.0150   38.1070 P   0  0  0  0  0  0  0  0  0  0  0  0
    3.6990   -6.2530   39.1620 O   0  0  0  0  0  0  0  0  0  0  0  0
    6.4510   -5.7360   38.9410 O   0  0  0  0  0  0  0  0  0  0  0  0
    5.2480   -7.4650   37.1590 O   0  0  0  0  0  0  0  0  0  0  0  0
    4.6130   -4.6690   37.1830 O   0  0  0  0  0  0  0  0  0  0  0  0
    8.3360  -12.4810   39.8950 O   0  0  0  0  0  0  0  0  0  0  0  0
    6.2339  -12.8562   43.7306 H   0  0  0  0  0  0  0  0  0  0  0  0
    6.4803  -14.3458   40.1288 H   0  0  0  0  0  0  0  0  0  0  0  0
    5.1051  -13.3756   40.7358 H   0  0  0  0  0  0  0  0  0  0  0  0
    6.4491  -13.0174   37.9661 H   0  0  0  0  0  0  0  0  0  0  0  0
    4.2717  -14.4980   39.1340 H   0  0  0  0  0  0  0  0  0  0  0  0
    4.6042  -11.4644   37.5339 H   0  0  0  0  0  0  0  0  0  0  0  0
    3.9879  -11.6313   40.3450 H   0  0  0  0  0  0  0  0  0  0  0  0
    6.7227  -10.6590   38.1703 H   0  0  0  0  0  0  0  0  0  0  0  0
    6.1877   -8.7782   39.9212 H   0  0  0  0  0  0  0  0  0  0  0  0
    5.1224   -8.1733   40.9245 H   0  0  0  0  0  0  0  0  0  0  0  0
    5.3985   -9.6007   36.9704 H   0  0  0  0  0  0  0  0  0  0  0  0
    3.8342   -9.0342   37.6038 H   0  0  0  0  0  0  0  0  0  0  0  0
    4.0103   -6.1970   40.1001 H   0  0  0  0  0  0  0  0  0  0  0  0
    6.2764   -5.7701   39.9149 H   0  0  0  0  0  0  0  0  0  0  0  0
    9.0407  -12.6041   40.5794 H   0  0  0  0  0  0  0  0  0  0  0  0
  1  2  1  0
  1  3  2  0
  1  4  1  0
  4  5  1  0
  4 11  1  0
  4 20  1  0
  5  6  1  0
  6  7  1  0
  6  8  1  0
  8  9  1  0
  8 10  1  0
 10 11  1  0
 10 12  1  0
 12 13  1  0
 12 14  1  0
 14 18  1  0
 15 16  1  0
 15 17  1  0
 15 18  1  0
 15 19  2  0
  2 21  1  0
  5 22  1  0
  5 23  1  0
  6 24  1  0
  7 25  1  0
  8 26  1  0
  9 27  1  0
 10 28  1  0
 12 29  1  0
 13 30  1  0
 14 31  1  0
 14 32  1  0
 16 33  1  0
 17 34  1  0
 20 35  1  0
A    1
C1
A    2
O1A
A    3
O1B
A    4
C2
A    5
C3
A    6
C4
A    7
O4
A    8
C5
A    9
O5
A   10
C6
A   11
O6
A   12
C7
A   13
O7
A   14
C8
A   15
P1
A   16
O2P
A   17
O3P
A   18
O
A   19
O1P
A   20
O2
M  END
