1X70_715_A_801
     RDKit          3D

 43 45  0  0  0  0  0  0  0  0999 V2000
   34.5880   50.5400   36.7400 C   0  0  0  0  0  0  0  0  0  0  0  0
   35.9160   51.0580   36.8040 C   0  0  0  0  0  0  0  0  0  0  0  0
   37.0810   50.2570   36.5150 C   0  0  0  0  0  0  0  0  0  0  0  0
   36.8900   48.8840   36.1400 C   0  0  0  0  0  0  0  0  0  0  0  0
   35.5560   48.3630   36.0770 C   0  0  0  0  0  0  0  0  0  0  0  0
   34.4320   49.1800   36.3660 C   0  0  0  0  0  0  0  0  0  0  0  0
   35.3810   47.1130   35.7320 F   0  0  0  0  0  0  0  0  0  0  0  0
   36.0680   52.3270   37.1540 F   0  0  0  0  0  0  0  0  0  0  0  0
   38.4290   50.9030   36.6040 C   0  0  0  0  0  0  0  0  0  0  0  0
   39.0930   51.0760   35.2230 C   0  0  0  0  0  0  0  0  0  0  0  0
   40.3800   51.8310   35.4450 C   0  0  0  0  0  0  0  0  0  0  0  0
   41.5760   51.0710   36.1670 C   0  0  0  0  0  0  0  0  0  0  0  0
   42.7630   51.8390   36.4340 N   0  0  0  0  0  0  0  0  0  0  0  0
   38.2030   51.8460   34.3530 N   0  0  0  0  0  0  0  0  0  0  0  0
   41.4170   49.8850   36.5130 O   0  0  0  0  0  0  0  0  0  0  0  0
   42.9990   52.7410   35.2820 C   0  0  0  0  0  0  0  0  0  0  0  0
   44.1670   52.4110   34.3740 C   0  0  0  0  0  0  0  0  0  0  0  0
   45.3490   51.8910   35.1230 N   0  0  0  0  0  0  0  0  0  0  0  0
   45.3110   51.1800   36.2900 C   0  0  0  0  0  0  0  0  0  0  0  0
   43.9160   50.8910   36.8830 C   0  0  0  0  0  0  0  0  0  0  0  0
   46.6690   51.9620   34.8650 C   0  0  0  0  0  0  0  0  0  0  0  0
   47.3490   51.3310   35.8410 N   0  0  0  0  0  0  0  0  0  0  0  0
   46.5370   50.8670   36.6880 N   0  0  0  0  0  0  0  0  0  0  0  0
   47.3330   52.6430   33.6640 C   0  0  0  0  0  0  0  0  0  0  0  0
   48.6230   52.4720   33.7700 F   0  0  0  0  0  0  0  0  0  0  0  0
   47.0130   53.9300   33.7260 F   0  0  0  0  0  0  0  0  0  0  0  0
   46.8880   52.0850   32.5320 F   0  0  0  0  0  0  0  0  0  0  0  0
   33.2290   48.6840   36.2980 F   0  0  0  0  0  0  0  0  0  0  0  0
   33.7176   51.1713   36.9719 H   0  0  0  0  0  0  0  0  0  0  0  0
   37.7526   48.2431   35.9051 H   0  0  0  0  0  0  0  0  0  0  0  0
   38.3154   51.8941   37.0675 H   0  0  0  0  0  0  0  0  0  0  0  0
   39.0751   50.2469   37.2058 H   0  0  0  0  0  0  0  0  0  0  0  0
   39.2902   50.1043   34.7467 H   0  0  0  0  0  0  0  0  0  0  0  0
   40.7449   52.1527   34.4584 H   0  0  0  0  0  0  0  0  0  0  0  0
   40.1083   52.6390   36.1401 H   0  0  0  0  0  0  0  0  0  0  0  0
   37.5577   52.4043   34.9298 H   0  0  0  0  0  0  0  0  0  0  0  0
   38.7627   52.4738   33.7585 H   0  0  0  0  0  0  0  0  0  0  0  0
   42.0882   52.7359   34.6652 H   0  0  0  0  0  0  0  0  0  0  0  0
   43.2526   53.7134   35.7295 H   0  0  0  0  0  0  0  0  0  0  0  0
   43.8454   51.6479   33.6500 H   0  0  0  0  0  0  0  0  0  0  0  0
   44.4731   53.3419   33.8743 H   0  0  0  0  0  0  0  0  0  0  0  0
   43.9972   50.9579   37.9780 H   0  0  0  0  0  0  0  0  0  0  0  0
   43.6390   49.8950   36.5072 H   0  0  0  0  0  0  0  0  0  0  0  0
  1  2  2  0
  1  6  1  0
  2  3  1  0
  2  8  1  0
  3  4  2  0
  3  9  1  0
  4  5  1  0
  5  6  2  0
  5  7  1  0
  6 28  1  0
  9 10  1  0
 10 11  1  0
 10 14  1  0
 11 12  1  0
 12 13  1  0
 12 15  2  0
 13 16  1  0
 13 20  1  0
 16 17  1  0
 17 18  1  0
 18 19  1  0
 18 21  1  0
 19 20  1  0
 19 23  2  0
 21 22  2  0
 21 24  1  0
 22 23  1  0
 24 25  1  0
 24 26  1  0
 24 27  1  0
  1 29  1  0
  4 30  1  0
  9 31  1  0
  9 32  1  0
 10 33  1  0
 11 34  1  0
 11 35  1  0
 14 36  1  0
 14 37  1  0
 16 38  1  0
 16 39  1  0
 17 40  1  0
 17 41  1  0
 20 42  1  0
 20 43  1  0
A    1
C1
A    2
C2
A    3
C3
A    4
C4
A    5
C5
A    6
C6
A    7
F9
A    8
F10
A    9
C11
A   10
C12
A   11
C15
A   12
C16
A   13
N19
A   14
N20
A   15
O22
A   16
C25
A   17
C26
A   18
N27
A   19
C28
A   20
C29
A   21
C39
A   22
N40
A   23
N41
A   24
C42
A   25
F43
A   26
F44
A   27
F45
A   28
F46
M  END
