1X7B_041_A_201
     RDKit          3D

 30 32  0  0  0  0  0  0  0  0999 V2000
   32.6400   37.6170   35.8010 C   0  0  0  0  0  0  0  0  0  0  0  0
   31.3210   37.9160   36.2740 C   0  0  0  0  0  0  0  0  0  0  0  0
   30.8000   37.1700   37.3600 C   0  0  0  0  0  0  0  0  0  0  0  0
   31.5580   36.1150   38.0040 C   0  0  0  0  0  0  0  0  0  0  0  0
   32.8680   35.8300   37.5210 C   0  0  0  0  0  0  0  0  0  0  0  0
   33.4090   36.5770   36.4230 C   0  0  0  0  0  0  0  0  0  0  0  0
   29.6100   37.2450   37.9950 O   0  0  0  0  0  0  0  0  0  0  0  0
   29.5810   36.3170   38.9840 C   0  0  0  0  0  0  0  0  0  0  0  0
   30.7540   35.6090   39.0150 N   0  0  0  0  0  0  0  0  0  0  0  0
   28.4060   36.1630   39.8870 C   0  0  0  0  0  0  0  0  0  0  0  0
   28.5480   35.5620   41.1890 C   0  0  0  0  0  0  0  0  0  0  0  0
   27.4280   35.4370   42.0620 C   0  0  0  0  0  0  0  0  0  0  0  0
   26.1530   35.9250   41.6190 C   0  0  0  0  0  0  0  0  0  0  0  0
   26.0230   36.5210   40.3230 C   0  0  0  0  0  0  0  0  0  0  0  0
   27.1300   36.6450   39.4540 C   0  0  0  0  0  0  0  0  0  0  0  0
   34.6790   36.3130   35.9550 O   0  0  0  0  0  0  0  0  0  0  0  0
   24.8090   36.9640   39.9610 F   0  0  0  0  0  0  0  0  0  0  0  0
   25.0730   35.8110   42.4620 O   0  0  0  0  0  0  0  0  0  0  0  0
   30.5070   38.9990   35.6340 C   0  0  0  0  0  0  0  0  0  0  0  0
   29.6480   39.8330   36.2750 C   0  0  0  0  0  0  0  0  0  0  0  0
   33.0638   38.1853   34.9600 H   0  0  0  0  0  0  0  0  0  0  0  0
   33.4655   35.0352   37.9915 H   0  0  0  0  0  0  0  0  0  0  0  0
   29.5330   35.1951   41.5133 H   0  0  0  0  0  0  0  0  0  0  0  0
   27.5386   34.9761   43.0546 H   0  0  0  0  0  0  0  0  0  0  0  0
   27.0131   37.1043   38.4613 H   0  0  0  0  0  0  0  0  0  0  0  0
   35.4198   36.1590   36.5935 H   0  0  0  0  0  0  0  0  0  0  0  0
   25.2070   35.8251   43.4428 H   0  0  0  0  0  0  0  0  0  0  0  0
   30.6149   39.1304   34.5472 H   0  0  0  0  0  0  0  0  0  0  0  0
   29.0971   40.5975   35.7074 H   0  0  0  0  0  0  0  0  0  0  0  0
   29.5031   39.7441   37.3618 H   0  0  0  0  0  0  0  0  0  0  0  0
  1  2  2  0
  1  6  1  0
  2  3  1  0
  2 19  1  0
  3  4  2  0
  3  7  1  0
  4  5  1  0
  4  9  1  0
  5  6  2  0
  6 16  1  0
  7  8  1  0
  8  9  2  0
  8 10  1  0
 10 11  2  0
 10 15  1  0
 11 12  1  0
 12 13  2  0
 13 14  1  0
 13 18  1  0
 14 15  2  0
 14 17  1  0
 19 20  2  3
  1 21  1  0
  5 22  1  0
 11 23  1  0
 12 24  1  0
 15 25  1  0
 16 26  1  0
 18 27  1  0
 19 28  1  0
 20 29  1  0
 20 30  1  0
A    1
C1
A    2
C2
A    3
C3
A    4
C4
A    5
C5
A    6
C6
A    7
O9
A    8
C10
A    9
N11
A   10
C12
A   11
C13
A   12
C14
A   13
C15
A   14
C16
A   15
C17
A   16
O21
A   17
F22
A   18
O23
A   19
C24
A   20
C25
M  END
