1Q0B_NAT_A_604
     RDKit          3D

 36 37  0  0  0  0  0  0  0  0999 V2000
   18.9440   14.0740  112.2220 C   0  0  0  0  0  0  0  0  0  0  0  0
   17.9470   13.4400  111.3640 C   0  0  0  0  0  0  0  0  0  0  0  0
   16.9050   12.6140  111.9150 C   0  0  0  0  0  0  0  0  0  0  0  0
   16.8720   12.4480  113.3610 C   0  0  0  0  0  0  0  0  0  0  0  0
   17.8400   13.1070  114.2080 C   0  0  0  0  0  0  0  0  0  0  0  0
   18.9120   13.9210  113.6650 C   0  0  0  0  0  0  0  0  0  0  0  0
   18.0230   13.6040  109.8900 C   0  0  0  0  0  0  0  0  0  0  0  0
   19.3220   13.1940  109.3440 N   0  0  0  0  0  0  0  0  0  0  0  0
   20.2140   14.0440  108.7860 C   0  0  0  0  0  0  0  0  0  0  0  0
   19.8820   15.3390  108.6480 N   0  0  0  0  0  0  0  0  0  0  0  0
   18.5380   15.8290  108.9490 C   0  0  0  0  0  0  0  0  0  0  0  0
   17.6030   14.9940  109.4580 C   0  0  0  0  0  0  0  0  0  0  0  0
   15.9420   11.6470  113.9240 O   0  0  0  0  0  0  0  0  0  0  0  0
   16.1700   15.3890  109.6840 C   0  0  0  0  0  0  0  0  0  0  0  0
   15.8650   16.7060  109.6070 O   0  0  0  0  0  0  0  0  0  0  0  0
   14.5240   17.3280  109.7240 C   0  0  0  0  0  0  0  0  0  0  0  0
   14.6040   18.8410  109.4300 C   0  0  0  0  0  0  0  0  0  0  0  0
   18.3510   17.2970  108.6310 C   0  0  0  0  0  0  0  0  0  0  0  0
   15.3490   14.5470  109.9340 O   0  0  0  0  0  0  0  0  0  0  0  0
   21.6940   13.5190  108.2240 S   0  0  0  0  0  0  0  0  0  0  0  0
   19.7381   14.6819  111.7639 H   0  0  0  0  0  0  0  0  0  0  0  0
   16.1613   12.1263  111.2677 H   0  0  0  0  0  0  0  0  0  0  0  0
   17.7618   12.9879  115.2987 H   0  0  0  0  0  0  0  0  0  0  0  0
   19.6617   14.3975  114.3138 H   0  0  0  0  0  0  0  0  0  0  0  0
   17.2915   12.9107  109.4494 H   0  0  0  0  0  0  0  0  0  0  0  0
   19.5703   12.1954  109.3885 H   0  0  0  0  0  0  0  0  0  0  0  0
   20.5955   16.0058  108.3205 H   0  0  0  0  0  0  0  0  0  0  0  0
   15.8719   11.5867  114.9097 H   0  0  0  0  0  0  0  0  0  0  0  0
   13.8410   16.8546  109.0034 H   0  0  0  0  0  0  0  0  0  0  0  0
   14.1523   17.1833  110.7491 H   0  0  0  0  0  0  0  0  0  0  0  0
   14.6334   19.3977  110.3783 H   0  0  0  0  0  0  0  0  0  0  0  0
   15.5147   19.0544  108.8511 H   0  0  0  0  0  0  0  0  0  0  0  0
   13.7209   19.1492  108.8511 H   0  0  0  0  0  0  0  0  0  0  0  0
   18.2782   17.8687  109.5679 H   0  0  0  0  0  0  0  0  0  0  0  0
   19.2104   17.6580  108.0470 H   0  0  0  0  0  0  0  0  0  0  0  0
   17.4285   17.4311  108.0470 H   0  0  0  0  0  0  0  0  0  0  0  0
  1  2  2  0
  1  6  1  0
  2  3  1  0
  2  7  1  0
  3  4  2  0
  4  5  1  0
  4 13  1  0
  5  6  2  0
  7  8  1  0
  7 12  1  0
  8  9  1  0
  9 10  1  0
  9 20  2  0
 10 11  1  0
 11 12  2  0
 11 18  1  0
 12 14  1  0
 14 15  1  0
 14 19  2  0
 15 16  1  0
 16 17  1  0
  1 21  1  0
  3 22  1  0
  5 23  1  0
  6 24  1  0
  7 25  1  0
  8 26  1  0
 10 27  1  0
 13 28  1  0
 16 29  1  0
 16 30  1  0
 17 31  1  0
 17 32  1  0
 17 33  1  0
 18 34  1  0
 18 35  1  0
 18 36  1  0
A    1
C1
A    2
C2
A    3
C3
A    4
C4
A    5
C5
A    6
C6
A    7
C7
A    8
N8
A    9
C9
A   10
N10
A   11
C11
A   12
C12
A   13
O13
A   14
C14
A   15
O15
A   16
C16
A   17
C17
A   18
C18
A   19
O19
A   20
S20
M  END
