1X8I_BMH_A_2
     RDKit          3D

 47 49  0  0  0  0  0  0  0  0999 V2000
   13.6770   48.6440   70.4120 O   0  0  0  0  0  0  0  0  0  0  0  0
   14.8300   49.0200   70.5890 C   0  0  0  0  0  0  0  0  0  0  0  0
   15.1040   50.3040   70.5470 O   0  0  0  0  0  0  0  0  0  0  0  0
   15.9360   48.0350   70.8940 C   0  0  0  0  0  0  0  0  0  0  0  0
   17.3240   48.6480   71.1510 C   0  0  0  0  0  0  0  0  0  0  0  0
   18.3830   47.6730   71.1840 O   0  0  0  0  0  0  0  0  0  0  0  0
   17.4570   49.3700   72.4840 C   0  0  0  0  0  0  0  0  0  0  0  0
   16.0160   46.9370   69.8230 C   0  0  0  0  0  0  0  0  0  0  0  0
   17.0380   46.0210   70.3500 N   0  0  0  0  0  0  0  0  0  0  0  0
   18.3130   46.6410   70.1470 C   0  0  0  0  0  0  0  0  0  0  0  0
   19.4670   45.6930   70.3050 C   0  0  0  0  0  0  0  0  0  0  0  0
   20.6870   46.2310   70.3150 O   0  0  0  0  0  0  0  0  0  0  0  0
   19.3130   44.4630   70.4670 O   0  0  0  0  0  0  0  0  0  0  0  0
   16.6500   47.3230   68.4820 C   0  0  0  0  0  0  0  0  0  0  0  0
   16.1190   48.5890   67.7960 C   0  0  0  0  0  0  0  0  0  0  0  0
   18.1670   47.2910   68.7460 C   0  0  0  0  0  0  0  0  0  0  0  0
   18.8830   46.3510   67.3440 S   0  0  0  0  0  0  0  0  0  0  0  0
   20.5510   46.9810   67.1480 C   0  0  0  0  0  0  0  0  0  0  0  0
   20.5290   48.4300   66.7080 C   0  0  0  0  0  0  0  0  0  0  0  0
   21.1450   48.4430   65.3860 N   0  0  0  0  0  0  0  0  0  0  0  0
   20.4620   49.0330   64.2370 C   0  0  0  0  0  0  0  0  0  0  0  0
   21.5110   47.1420   64.9690 N   0  0  0  0  0  0  0  0  0  0  0  0
   21.1600   46.1640   66.0080 C   0  0  0  0  0  0  0  0  0  0  0  0
   21.0550   47.0360   63.5860 C   0  0  0  0  0  0  0  0  0  0  0  0
   20.5000   48.1940   63.1790 N   0  0  0  0  0  0  0  0  0  0  0  0
   13.0936   48.4538   71.1889 H   0  0  0  0  0  0  0  0  0  0  0  0
   15.6428   47.5940   71.8581 H   0  0  0  0  0  0  0  0  0  0  0  0
   17.4155   49.3437   70.3039 H   0  0  0  0  0  0  0  0  0  0  0  0
   18.6100   47.4640   72.1247 H   0  0  0  0  0  0  0  0  0  0  0  0
   17.3245   48.6506   73.3055 H   0  0  0  0  0  0  0  0  0  0  0  0
   18.4546   49.8280   72.5550 H   0  0  0  0  0  0  0  0  0  0  0  0
   16.6880   50.1534   72.5550 H   0  0  0  0  0  0  0  0  0  0  0  0
   14.9835   46.6012   69.6463 H   0  0  0  0  0  0  0  0  0  0  0  0
   16.8684   45.1029   70.7849 H   0  0  0  0  0  0  0  0  0  0  0  0
   19.5251   45.5816   69.2122 H   0  0  0  0  0  0  0  0  0  0  0  0
   19.2874   44.2583   71.4353 H   0  0  0  0  0  0  0  0  0  0  0  0
   16.3569   46.6045   67.7023 H   0  0  0  0  0  0  0  0  0  0  0  0
   15.8128   49.3190   68.5598 H   0  0  0  0  0  0  0  0  0  0  0  0
   16.9100   49.0251   67.1682 H   0  0  0  0  0  0  0  0  0  0  0  0
   15.2535   48.3303   67.1682 H   0  0  0  0  0  0  0  0  0  0  0  0
   21.1082   46.9083   68.0936 H   0  0  0  0  0  0  0  0  0  0  0  0
   19.4945   48.8002   66.6542 H   0  0  0  0  0  0  0  0  0  0  0  0
   21.0647   49.0803   67.4152 H   0  0  0  0  0  0  0  0  0  0  0  0
   19.9831   50.0233   64.2339 H   0  0  0  0  0  0  0  0  0  0  0  0
   22.0581   45.6312   66.3538 H   0  0  0  0  0  0  0  0  0  0  0  0
   20.4607   45.4024   65.6325 H   0  0  0  0  0  0  0  0  0  0  0  0
   21.1514   46.1349   62.9625 H   0  0  0  0  0  0  0  0  0  0  0  0
  1  2  1  0
  2  3  2  0
  2  4  1  0
  4  5  1  0
  4  8  1  0
  5  6  1  0
  5  7  1  0
  8  9  1  0
  8 14  1  0
  9 10  1  0
 10 11  1  0
 10 16  2  0
 11 12  1  0
 11 13  1  0
 14 15  1  0
 14 16  1  0
 16 17  1  0
 17 18  1  0
 18 19  1  0
 18 23  1  0
 19 20  1  0
 20 21  2  0
 20 22  1  0
 21 25  1  0
 22 23  1  0
 22 24  1  0
 24 25  2  0
  1 26  1  0
  4 27  1  0
  5 28  1  0
  6 29  1  0
  7 30  1  0
  7 31  1  0
  7 32  1  0
  8 33  1  0
  9 34  1  0
 11 35  1  0
 13 36  1  0
 14 37  1  0
 15 38  1  0
 15 39  1  0
 15 40  1  0
 18 41  1  0
 19 42  1  0
 19 43  1  0
 21 44  1  0
 23 45  1  0
 23 46  1  0
 24 47  1  0
M  CHG  2  12  -1  20   1
A    1
O71
A    2
C7
A    3
O72
A    4
C6
A    5
C61
A    6
O62
A    7
C62
A    8
C5
A    9
N4
A   10
C3
A   11
C31
A   12
O31
A   13
O32
A   14
C1
A   15
C11
A   16
C2
A   17
S21
A   18
C22
A   19
C23
A   20
N24
A   21
C25
A   22
N28
A   23
C27
A   24
C29
A   25
N26
M  END
