1X8R_SC1_A_601
     RDKit          3D

 41 41  0  0  0  0  0  0  0  0999 V2000
   56.2860   12.1770   27.9070 C   0  0  0  0  0  0  0  0  0  0  0  0
   55.1440   11.3880   28.2520 C   0  0  0  0  0  0  0  0  0  0  0  0
   55.3160   10.1140   29.0520 C   0  0  0  0  0  0  0  0  0  0  0  0
   56.7150   10.0620   29.8670 C   0  0  0  0  0  0  0  0  0  0  0  0
   57.8740   10.2840   28.8460 C   0  0  0  0  0  0  0  0  0  0  0  0
   57.6980   11.7780   28.3270 C   0  0  0  0  0  0  0  0  0  0  0  0
   56.1070   13.4350   27.1360 C   0  0  0  0  0  0  0  0  0  0  0  0
   55.1400    8.8710   28.0560 O   0  0  0  0  0  0  0  0  0  0  0  0
   56.7200    8.7810   30.5050 O   0  0  0  0  0  0  0  0  0  0  0  0
   59.1440   10.1660   29.4990 O   0  0  0  0  0  0  0  0  0  0  0  0
   55.2130   13.4830   26.3050 O   0  0  0  0  0  0  0  0  0  0  0  0
   56.8630   14.3300   27.3980 O   0  0  0  0  0  0  0  0  0  0  0  0
   53.7310    7.9660   27.8310 P   0  0  0  0  0  0  0  0  0  0  0  0
   52.7100    8.9450   27.2190 O   0  0  0  0  0  0  0  0  0  0  0  0
   53.3550    7.4670   29.2770 O   0  0  0  0  0  0  0  0  0  0  0  0
   54.2470    6.9310   26.8210 O   0  0  0  0  0  0  0  0  0  0  0  0
   60.0980    9.0840   29.1230 C   0  0  0  0  0  0  0  0  0  0  0  0
   59.5270    7.5800   29.0190 C   0  0  0  0  0  0  0  0  0  0  0  0
   61.3260    9.1880   30.0280 C   0  0  0  0  0  0  0  0  0  0  0  0
   61.7740   10.3270   30.3930 O   0  0  0  0  0  0  0  0  0  0  0  0
   61.7160    8.0690   30.4590 O   0  0  0  0  0  0  0  0  0  0  0  0
   60.5300    9.3660   27.2920 P   0  0  0  0  0  0  0  0  0  0  0  0
   61.8580    8.6100   27.0230 O   0  0  0  0  0  0  0  0  0  0  0  0
   60.7630   10.8400   27.0870 O   0  0  0  0  0  0  0  0  0  0  0  0
   59.4030    8.7680   26.3880 O   0  0  0  0  0  0  0  0  0  0  0  0
   54.1399   11.7070   27.9359 H   0  0  0  0  0  0  0  0  0  0  0  0
   54.5427   10.0734   29.8332 H   0  0  0  0  0  0  0  0  0  0  0  0
   56.8417   10.8396   30.6347 H   0  0  0  0  0  0  0  0  0  0  0  0
   57.8398    9.5435   28.0333 H   0  0  0  0  0  0  0  0  0  0  0  0
   58.3586   11.9126   27.4578 H   0  0  0  0  0  0  0  0  0  0  0  0
   57.9461   12.4214   29.1840 H   0  0  0  0  0  0  0  0  0  0  0  0
   56.7195    8.9017   31.4876 H   0  0  0  0  0  0  0  0  0  0  0  0
   57.0540   14.5561   28.3427 H   0  0  0  0  0  0  0  0  0  0  0  0
   53.7919    8.0468   29.9501 H   0  0  0  0  0  0  0  0  0  0  0  0
   54.6318    6.1591   27.3070 H   0  0  0  0  0  0  0  0  0  0  0  0
   59.3734    7.1754   30.0303 H   0  0  0  0  0  0  0  0  0  0  0  0
   58.5693    7.5880   28.4779 H   0  0  0  0  0  0  0  0  0  0  0  0
   60.2487    6.9504   28.4779 H   0  0  0  0  0  0  0  0  0  0  0  0
   61.7727    7.9065   31.4339 H   0  0  0  0  0  0  0  0  0  0  0  0
   62.2811    8.3692   27.8850 H   0  0  0  0  0  0  0  0  0  0  0  0
   58.6885    8.3889   26.9588 H   0  0  0  0  0  0  0  0  0  0  0  0
  1  2  2  0
  1  6  1  0
  1  7  1  0
  2  3  1  0
  3  4  1  0
  3  8  1  0
  4  5  1  0
  4  9  1  0
  5  6  1  0
  5 10  1  0
  7 11  2  0
  7 12  1  0
  8 13  1  0
 10 17  1  0
 13 14  2  0
 13 15  1  0
 13 16  1  0
 17 18  1  0
 17 19  1  0
 17 22  1  0
 19 20  2  0
 19 21  1  0
 22 23  1  0
 22 24  2  0
 22 25  1  0
  2 26  1  0
  3 27  1  0
  4 28  1  0
  5 29  1  0
  6 30  1  0
  6 31  1  0
  9 32  1  0
 12 33  1  0
 15 34  1  0
 16 35  1  0
 18 36  1  0
 18 37  1  0
 18 38  1  0
 21 39  1  0
 23 40  1  0
 25 41  1  0
A    1
C1
A    2
C2
A    3
C3
A    4
C4
A    5
C5
A    6
C6
A    7
C7
A    8
O1
A    9
O2
A   10
O3
A   11
O4
A   12
O5
A   13
P1
A   14
O6
A   15
O7
A   16
O8
A   17
C8
A   18
C9
A   19
C10
A   20
O9
A   21
O10
A   22
P2
A   23
O11
A   24
O12
A   25
O13
M  END
