1DQS_CRB_A_401
     RDKit          3D

 32 32  0  0  0  0  0  0  0  0999 V2000
   42.8020   33.0050   47.7110 C   0  0  0  0  0  0  0  0  0  0  0  0
   43.3220   33.4090   46.6160 O   0  0  0  0  0  0  0  0  0  0  0  0
   41.7640   33.4550   48.2030 O   0  0  0  0  0  0  0  0  0  0  0  0
   43.4720   31.7400   48.3030 C   0  0  0  0  0  0  0  0  0  0  0  0
   44.8320   31.7500   47.8060 O   0  0  0  0  0  0  0  0  0  0  0  0
   43.5130   31.6460   49.8220 C   0  0  0  0  0  0  0  0  0  0  0  0
   43.8690   30.2510   50.3240 C   0  0  0  0  0  0  0  0  0  0  0  0
   43.8830   30.2070   51.7610 O   0  0  0  0  0  0  0  0  0  0  0  0
   42.9990   29.1750   49.6720 C   0  0  0  0  0  0  0  0  0  0  0  0
   43.2770   27.8840   50.2170 O   0  0  0  0  0  0  0  0  0  0  0  0
   43.2160   29.2070   48.1740 C   0  0  0  0  0  0  0  0  0  0  0  0
   42.4980   28.0930   47.3630 C   0  0  0  0  0  0  0  0  0  0  0  0
   42.7140   30.5660   47.6320 C   0  0  0  0  0  0  0  0  0  0  0  0
   43.1390   27.8610   45.6630 P   0  0  0  0  0  0  0  0  0  0  0  0
   42.8190   29.0770   44.8270 O   0  0  0  0  0  0  0  0  0  0  0  0
   42.4430   26.6080   45.1500 O   0  0  0  0  0  0  0  0  0  0  0  0
   44.6550   27.5810   45.7710 O   0  0  0  0  0  0  0  0  0  0  0  0
   44.1037   34.0163   46.6336 H   0  0  0  0  0  0  0  0  0  0  0  0
   45.4623   31.7546   48.5694 H   0  0  0  0  0  0  0  0  0  0  0  0
   44.2652   32.3558   50.1968 H   0  0  0  0  0  0  0  0  0  0  0  0
   42.5047   31.8815   50.1932 H   0  0  0  0  0  0  0  0  0  0  0  0
   44.8961   30.0166   50.0078 H   0  0  0  0  0  0  0  0  0  0  0  0
   43.6034   31.0859   52.1208 H   0  0  0  0  0  0  0  0  0  0  0  0
   41.9401   29.3841   49.8842 H   0  0  0  0  0  0  0  0  0  0  0  0
   43.2663   27.9339   51.2057 H   0  0  0  0  0  0  0  0  0  0  0  0
   44.2953   29.0440   48.0381 H   0  0  0  0  0  0  0  0  0  0  0  0
   42.6130   27.1436   47.9065 H   0  0  0  0  0  0  0  0  0  0  0  0
   41.4481   28.4055   47.2624 H   0  0  0  0  0  0  0  0  0  0  0  0
   41.6388   30.6634   47.8429 H   0  0  0  0  0  0  0  0  0  0  0  0
   42.8963   30.6023   46.5478 H   0  0  0  0  0  0  0  0  0  0  0  0
   42.1394   26.0614   45.9176 H   0  0  0  0  0  0  0  0  0  0  0  0
   44.9146   27.5331   46.7252 H   0  0  0  0  0  0  0  0  0  0  0  0
  1  2  1  0
  1  3  2  0
  1  4  1  0
  4  5  1  0
  4  6  1  0
  4 13  1  0
  6  7  1  0
  7  8  1  0
  7  9  1  0
  9 10  1  0
  9 11  1  0
 11 12  1  0
 11 13  1  0
 12 14  1  0
 14 15  2  0
 14 16  1  0
 14 17  1  0
  2 18  1  0
  5 19  1  0
  6 20  1  0
  6 21  1  0
  7 22  1  0
  8 23  1  0
  9 24  1  0
 10 25  1  0
 11 26  1  0
 12 27  1  0
 12 28  1  0
 13 29  1  0
 13 30  1  0
 16 31  1  0
 17 32  1  0
A    1
C1
A    2
O11
A    3
O12
A    4
C2
A    5
O2
A    6
C3
A    7
C4
A    8
O4
A    9
C5
A   10
O5
A   11
C6
A   12
C7
A   13
C8
A   14
P1
A   15
O91
A   16
O92
A   17
O93
M  END
