1XAN_HXP_A_1024
     RDKit          3D

 35 37  0  0  0  0  0  0  0  0999 V2000
   84.2800   -5.4750   35.2470 C   0  0  0  0  0  0  0  0  0  0  0  0
   85.4170   -6.2340   34.8760 C   0  0  0  0  0  0  0  0  0  0  0  0
   85.4270   -7.6090   35.0140 C   0  0  0  0  0  0  0  0  0  0  0  0
   86.6080   -8.1910   34.6130 O   0  0  0  0  0  0  0  0  0  0  0  0
   84.3210   -8.2690   35.4940 C   0  0  0  0  0  0  0  0  0  0  0  0
   83.1560   -7.5700   35.8550 C   0  0  0  0  0  0  0  0  0  0  0  0
   82.0390   -8.2980   36.3490 O   0  0  0  0  0  0  0  0  0  0  0  0
   80.9570   -7.5020   36.6680 C   0  0  0  0  0  0  0  0  0  0  0  0
   79.8680   -8.2180   37.1460 C   0  0  0  0  0  0  0  0  0  0  0  0
   78.6600   -7.5940   37.5350 C   0  0  0  0  0  0  0  0  0  0  0  0
   77.5440   -8.2850   38.0170 O   0  0  0  0  0  0  0  0  0  0  0  0
   78.5890   -6.2100   37.4450 C   0  0  0  0  0  0  0  0  0  0  0  0
   79.6970   -5.4870   36.9720 C   0  0  0  0  0  0  0  0  0  0  0  0
   80.8970   -6.1200   36.5860 C   0  0  0  0  0  0  0  0  0  0  0  0
   81.9710   -5.4070   36.1200 C   0  0  0  0  0  0  0  0  0  0  0  0
   83.1090   -6.1410   35.7530 C   0  0  0  0  0  0  0  0  0  0  0  0
   81.8880   -3.9140   36.0290 C   0  0  0  0  0  0  0  0  0  0  0  0
   83.0270   -2.9220   35.7080 C   0  0  0  0  0  0  0  0  0  0  0  0
   82.7660   -1.3670   35.8950 C   0  0  0  0  0  0  0  0  0  0  0  0
   83.1190   -0.6160   34.9740 O   0  0  0  0  0  0  0  0  0  0  0  0
   82.2340   -0.9470   36.9380 O   0  0  0  0  0  0  0  0  0  0  0  0
   84.2921   -4.3795   35.1486 H   0  0  0  0  0  0  0  0  0  0  0  0
   86.3034   -5.7224   34.4729 H   0  0  0  0  0  0  0  0  0  0  0  0
   87.2568   -8.5107   35.2889 H   0  0  0  0  0  0  0  0  0  0  0  0
   84.3480   -9.3638   35.5975 H   0  0  0  0  0  0  0  0  0  0  0  0
   79.9477   -9.3122   37.2252 H   0  0  0  0  0  0  0  0  0  0  0  0
   77.4002   -8.3740   38.9924 H   0  0  0  0  0  0  0  0  0  0  0  0
   77.6705   -5.6828   37.7423 H   0  0  0  0  0  0  0  0  0  0  0  0
   79.6264   -4.3916   36.9004 H   0  0  0  0  0  0  0  0  0  0  0  0
   82.3582   -5.3197   37.1459 H   0  0  0  0  0  0  0  0  0  0  0  0
   81.1253   -3.7226   35.2598 H   0  0  0  0  0  0  0  0  0  0  0  0
   81.7621   -3.6864   37.0978 H   0  0  0  0  0  0  0  0  0  0  0  0
   83.8771   -3.1866   36.3540 H   0  0  0  0  0  0  0  0  0  0  0  0
   83.1803   -3.0364   34.6248 H   0  0  0  0  0  0  0  0  0  0  0  0
   82.5865   -1.2253   37.8202 H   0  0  0  0  0  0  0  0  0  0  0  0
  1  2  2  0
  1 16  1  0
  2  3  1  0
  3  4  1  0
  3  5  2  0
  5  6  1  0
  6  7  1  0
  6 16  2  0
  7  8  1  0
  8  9  2  0
  8 14  1  0
  9 10  1  0
 10 11  1  0
 10 12  2  0
 12 13  1  0
 13 14  2  0
 14 15  1  0
 15 16  1  0
 15 17  1  0
 17 18  1  0
 18 19  1  0
 19 20  2  0
 19 21  1  0
  1 22  1  0
  2 23  1  0
  4 24  1  0
  5 25  1  0
  9 26  1  0
 11 27  1  0
 12 28  1  0
 13 29  1  0
 15 30  1  0
 17 31  1  0
 17 32  1  0
 18 33  1  0
 18 34  1  0
 21 35  1  0
A    1
C1
A    2
C2
A    3
C3
A    4
O3
A    5
C4
A    6
C4A
A    7
O10
A    8
C5A
A    9
C5
A   10
C6
A   11
O6
A   12
C7
A   13
C8
A   14
C8A
A   15
C9
A   16
C9A
A   17
C1'
A   18
C2'
A   19
C3'
A   20
O1'
A   21
O2'
M  END
