1XBX_HMS_A_501
     RDKit          3D

 25 24  0  0  0  0  0  0  0  0999 V2000
   65.3170   24.2810   22.9420 O   0  0  0  0  0  0  0  0  0  0  0  0
   65.1650   23.2700   24.0500 P   0  0  0  0  0  0  0  0  0  0  0  0
   66.3650   23.0060   24.9370 O   0  0  0  0  0  0  0  0  0  0  0  0
   63.9010   23.5480   24.8020 O   0  0  0  0  0  0  0  0  0  0  0  0
   64.8780   21.8870   23.2420 O   0  0  0  0  0  0  0  0  0  0  0  0
   64.7160   20.6280   23.8500 C   0  0  0  0  0  0  0  0  0  0  0  0
   63.2370   20.2960   23.9640 C   0  0  0  0  0  0  0  0  0  0  0  0
   62.5480   21.1870   24.8500 O   0  0  0  0  0  0  0  0  0  0  0  0
   62.6050   20.3440   22.5860 C   0  0  0  0  0  0  0  0  0  0  0  0
   63.2790   19.4590   21.6880 O   0  0  0  0  0  0  0  0  0  0  0  0
   61.1650   19.8750   22.6470 C   0  0  0  0  0  0  0  0  0  0  0  0
   60.1080   20.7620   22.9400 C   0  0  0  0  0  0  0  0  0  0  0  0
   66.0927   23.0659   25.8869 H   0  0  0  0  0  0  0  0  0  0  0  0
   64.0803   23.5086   25.7748 H   0  0  0  0  0  0  0  0  0  0  0  0
   65.2162   19.8612   23.2402 H   0  0  0  0  0  0  0  0  0  0  0  0
   65.1609   20.6511   24.8557 H   0  0  0  0  0  0  0  0  0  0  0  0
   63.1494   19.2847   24.3877 H   0  0  0  0  0  0  0  0  0  0  0  0
   62.7424   20.9357   25.7876 H   0  0  0  0  0  0  0  0  0  0  0  0
   62.6722   21.3854   22.2382 H   0  0  0  0  0  0  0  0  0  0  0  0
   63.7898   18.7883   22.2070 H   0  0  0  0  0  0  0  0  0  0  0  0
   60.9395   19.4397   21.6623 H   0  0  0  0  0  0  0  0  0  0  0  0
   61.1701   19.2176   23.5289 H   0  0  0  0  0  0  0  0  0  0  0  0
   59.9983   20.8541   24.0306 H   0  0  0  0  0  0  0  0  0  0  0  0
   60.3281   21.7498   22.5089 H   0  0  0  0  0  0  0  0  0  0  0  0
   59.1734   20.3738   22.5089 H   0  0  0  0  0  0  0  0  0  0  0  0
  1  2  2  0
  2  3  1  0
  2  4  1  0
  2  5  1  0
  5  6  1  0
  6  7  1  0
  7  8  1  0
  7  9  1  0
  9 10  1  0
  9 11  1  0
 11 12  1  0
  3 13  1  0
  4 14  1  0
  6 15  1  0
  6 16  1  0
  7 17  1  0
  8 18  1  0
  9 19  1  0
 10 20  1  0
 11 21  1  0
 11 22  1  0
 12 23  1  0
 12 24  1  0
 12 25  1  0
A    1
O1
A    2
P1
A    3
O2
A    4
O3
A    5
O4
A    6
C1
A    7
C2
A    8
O5
A    9
C3
A   10
O6
A   11
C4
A   12
C5
M  END
