1XCX_IAB_A_501
     RDKit          3D

 87 90  0  0  0  0  0  0  0  0999 V2000
    1.5200   15.1980   39.8630 C   0  0  0  0  0  0  0  0  0  0  0  0
    1.8220   14.4200   41.1780 C   0  0  0  0  0  0  0  0  0  0  0  0
    2.9270   15.0910   41.9910 C   0  0  0  0  0  0  0  0  0  0  0  0
    4.2060   15.1670   41.1430 C   0  0  0  0  0  0  0  0  0  0  0  0
    3.8660   16.0200   39.8440 C   0  0  0  0  0  0  0  0  0  0  0  0
    5.0860   16.1570   38.8840 C   0  0  0  0  0  0  0  0  0  0  0  0
    0.9020   16.4610   40.1910 O   0  0  0  0  0  0  0  0  0  0  0  0
    0.6400   14.3220   41.9580 O   0  0  0  0  0  0  0  0  0  0  0  0
    3.1540   14.3280   43.1650 O   0  0  0  0  0  0  0  0  0  0  0  0
    5.2290   15.7900   41.9140 O   0  0  0  0  0  0  0  0  0  0  0  0
    2.7730   15.3630   39.1140 O   0  0  0  0  0  0  0  0  0  0  0  0
    5.6740   14.8990   38.6010 O   0  0  0  0  0  0  0  0  0  0  0  0
    6.4390   15.0700   41.9770 C   0  0  0  0  0  0  0  0  0  0  0  0
    6.8620   14.7870   43.4430 C   0  0  0  0  0  0  0  0  0  0  0  0
    7.3640   16.0640   44.1620 C   0  0  0  0  0  0  0  0  0  0  0  0
    8.5220   16.7040   43.3180 C   0  0  0  0  0  0  0  0  0  0  0  0
    7.9040   17.0800   41.9170 C   0  0  0  0  0  0  0  0  0  0  0  0
    8.9460   17.7480   41.0090 C   0  0  0  0  0  0  0  0  0  0  0  0
    5.7740   14.2330   44.1610 O   0  0  0  0  0  0  0  0  0  0  0  0
    7.8670   15.6900   45.4280 O   0  0  0  0  0  0  0  0  0  0  0  0
    9.0280   17.9340   43.9850 N   0  0  0  0  0  0  0  0  0  0  0  0
    7.4320   15.8490   41.2750 O   0  0  0  0  0  0  0  0  0  0  0  0
   10.2280   17.8720   44.9900 C   0  0  0  0  0  0  0  0  0  0  0  0
   11.0610   19.1190   44.9730 C   0  0  0  0  0  0  0  0  0  0  0  0
   10.2460   20.2360   45.1340 O   0  0  0  0  0  0  0  0  0  0  0  0
   11.8650   19.2020   43.6010 C   0  0  0  0  0  0  0  0  0  0  0  0
   12.6250   20.3810   43.5390 O   0  0  0  0  0  0  0  0  0  0  0  0
   12.8620   17.9910   43.4300 C   0  0  0  0  0  0  0  0  0  0  0  0
   13.2440   17.8010   42.1020 O   0  0  0  0  0  0  0  0  0  0  0  0
   12.3880   16.6470   44.1220 C   0  0  0  0  0  0  0  0  0  0  0  0
   11.1990   16.6860   44.7970 C   0  0  0  0  0  0  0  0  0  0  0  0
   13.1870   15.4140   44.0640 C   0  0  0  0  0  0  0  0  0  0  0  0
   14.0930   15.5740   45.1860 O   0  0  0  0  0  0  0  0  0  0  0  0
   -2.6800   17.0490   37.0050 C   0  0  0  0  0  0  0  0  0  0  0  0
   -3.5380   16.1020   37.9040 C   0  0  0  0  0  0  0  0  0  0  0  0
   -3.3450   16.4650   39.4120 C   0  0  0  0  0  0  0  0  0  0  0  0
   -1.8530   16.3310   39.7530 C   0  0  0  0  0  0  0  0  0  0  0  0
   -1.0290   17.3510   38.8390 C   0  0  0  0  0  0  0  0  0  0  0  0
    0.5220   17.3020   39.0660 C   0  0  0  0  0  0  0  0  0  0  0  0
   -4.9150   16.2420   37.5730 O   0  0  0  0  0  0  0  0  0  0  0  0
   -4.1200   15.5710   40.2090 O   0  0  0  0  0  0  0  0  0  0  0  0
   -1.6480   16.6330   41.1360 O   0  0  0  0  0  0  0  0  0  0  0  0
   -1.2820   17.0520   37.4340 O   0  0  0  0  0  0  0  0  0  0  0  0
   -2.8230   16.5560   35.6800 O   0  0  0  0  0  0  0  0  0  0  0  0
    0.8165   14.6437   39.2244 H   0  0  0  0  0  0  0  0  0  0  0  0
    2.1724   13.4141   40.9034 H   0  0  0  0  0  0  0  0  0  0  0  0
    2.6311   16.1121   42.2734 H   0  0  0  0  0  0  0  0  0  0  0  0
    4.5601   14.1693   40.8444 H   0  0  0  0  0  0  0  0  0  0  0  0
    3.5813   17.0288   40.1777 H   0  0  0  0  0  0  0  0  0  0  0  0
    4.7486   16.6129   37.9415 H   0  0  0  0  0  0  0  0  0  0  0  0
    5.8418   16.7856   39.3775 H   0  0  0  0  0  0  0  0  0  0  0  0
    0.8763   14.3416   42.9192 H   0  0  0  0  0  0  0  0  0  0  0  0
    2.9865   14.8909   43.9620 H   0  0  0  0  0  0  0  0  0  0  0  0
    5.8898   14.4372   39.4497 H   0  0  0  0  0  0  0  0  0  0  0  0
    6.3234   14.0826   41.5061 H   0  0  0  0  0  0  0  0  0  0  0  0
    7.6961   14.0705   43.4123 H   0  0  0  0  0  0  0  0  0  0  0  0
    6.5446   16.7891   44.2746 H   0  0  0  0  0  0  0  0  0  0  0  0
    9.3637   16.0034   43.2140 H   0  0  0  0  0  0  0  0  0  0  0  0
    7.0777   17.7893   42.0723 H   0  0  0  0  0  0  0  0  0  0  0  0
    9.7113   18.2386   41.6283 H   0  0  0  0  0  0  0  0  0  0  0  0
    9.4214   16.9859   40.3740 H   0  0  0  0  0  0  0  0  0  0  0  0
    8.4520   18.4981   40.3740 H   0  0  0  0  0  0  0  0  0  0  0  0
    5.9422   14.3186   45.1329 H   0  0  0  0  0  0  0  0  0  0  0  0
    7.3132   16.1017   46.1379 H   0  0  0  0  0  0  0  0  0  0  0  0
    9.3086   18.5802   43.2336 H   0  0  0  0  0  0  0  0  0  0  0  0
    9.7109   17.7441   45.9524 H   0  0  0  0  0  0  0  0  0  0  0  0
   11.7808   19.0929   45.8044 H   0  0  0  0  0  0  0  0  0  0  0  0
   10.1164   20.4136   46.0993 H   0  0  0  0  0  0  0  0  0  0  0  0
   11.1107   19.1793   42.8006 H   0  0  0  0  0  0  0  0  0  0  0  0
   12.8259   20.6927   44.4569 H   0  0  0  0  0  0  0  0  0  0  0  0
   13.7624   18.2884   43.9875 H   0  0  0  0  0  0  0  0  0  0  0  0
   14.1300   17.3603   42.0733 H   0  0  0  0  0  0  0  0  0  0  0  0
   10.8912   15.7409   45.2682 H   0  0  0  0  0  0  0  0  0  0  0  0
   12.5534   14.5235   44.1885 H   0  0  0  0  0  0  0  0  0  0  0  0
   13.7011   15.2694   43.1023 H   0  0  0  0  0  0  0  0  0  0  0  0
   13.5883   15.4849   46.0330 H   0  0  0  0  0  0  0  0  0  0  0  0
   -3.0165   18.0939   37.0750 H   0  0  0  0  0  0  0  0  0  0  0  0
   -3.2117   15.0659   37.7306 H   0  0  0  0  0  0  0  0  0  0  0  0
   -3.6763   17.4946   39.6124 H   0  0  0  0  0  0  0  0  0  0  0  0
   -1.5102   15.3032   39.5630 H   0  0  0  0  0  0  0  0  0  0  0  0
   -1.3739   18.3563   39.1226 H   0  0  0  0  0  0  0  0  0  0  0  0
    0.8819   18.3243   39.2543 H   0  0  0  0  0  0  0  0  0  0  0  0
    0.9751   16.8694   38.1618 H   0  0  0  0  0  0  0  0  0  0  0  0
   -5.4503   16.2964   38.4040 H   0  0  0  0  0  0  0  0  0  0  0  0
   -3.9577   15.7582   41.1675 H   0  0  0  0  0  0  0  0  0  0  0  0
   -2.1076   15.9560   41.6933 H   0  0  0  0  0  0  0  0  0  0  0  0
   -3.0987   15.6056   35.7095 H   0  0  0  0  0  0  0  0  0  0  0  0
  1  2  1  0
  1  7  1  0
  1 11  1  0
  2  3  1  0
  2  8  1  0
  3  4  1  0
  3  9  1  0
  4  5  1  0
  4 10  1  0
  5  6  1  0
  5 11  1  0
  6 12  1  0
  7 39  1  0
 10 13  1  0
 13 14  1  0
 13 22  1  0
 14 15  1  0
 14 19  1  0
 15 16  1  0
 15 20  1  0
 16 17  1  0
 16 21  1  0
 17 18  1  0
 17 22  1  0
 21 23  1  0
 23 24  1  0
 23 31  1  0
 24 25  1  0
 24 26  1  0
 26 27  1  0
 26 28  1  0
 28 29  1  0
 28 30  1  0
 30 31  2  0
 30 32  1  0
 32 33  1  0
 34 35  1  0
 34 43  1  0
 34 44  1  0
 35 36  1  0
 35 40  1  0
 36 37  1  0
 36 41  1  0
 37 38  1  0
 37 42  1  0
 38 39  1  0
 38 43  1  0
  1 45  1  0
  2 46  1  0
  3 47  1  0
  4 48  1  0
  5 49  1  0
  6 50  1  0
  6 51  1  0
  8 52  1  0
  9 53  1  0
 12 54  1  0
 13 55  1  0
 14 56  1  0
 15 57  1  0
 16 58  1  0
 17 59  1  0
 18 60  1  0
 18 61  1  0
 18 62  1  0
 19 63  1  0
 20 64  1  0
 21 65  1  0
 23 66  1  0
 24 67  1  0
 25 68  1  0
 26 69  1  0
 27 70  1  0
 28 71  1  0
 29 72  1  0
 31 73  1  0
 32 74  1  0
 32 75  1  0
 33 76  1  0
 34 77  1  0
 35 78  1  0
 36 79  1  0
 37 80  1  0
 38 81  1  0
 39 82  1  0
 39 83  1  0
 40 84  1  0
 41 85  1  0
 42 86  1  0
 44 87  1  0
A    1
C1X
A    2
C2X
A    3
C3X
A    4
C4X
A    5
C5X
A    6
C6X
A    7
O1X
A    8
O2X
A    9
O3X
A   10
O4X
A   11
O5X
A   12
O6X
A   13
C1Y
A   14
C2Y
A   15
C3Y
A   16
C4Y
A   17
C5Y
A   18
C6Y
A   19
O2Y
A   20
O3Y
A   21
N4Y
A   22
O5Y
A   23
C1Z
A   24
C2Z
A   25
O2Z
A   26
C3Z
A   27
O3Z
A   28
C4Z
A   29
O4Z
A   30
C5Z
A   31
C6Z
A   32
C7Z
A   33
O7Z
A   34
C1W
A   35
C2W
A   36
C3W
A   37
C4W
A   38
C5W
A   39
C6W
A   40
O2W
A   41
O3W
A   42
O4W
A   43
O5W
A   44
O1W
M  END
