1XDD_AAY_A_401
     RDKit          3D

 93 97  0  0  0  0  0  0  0  0999 V2000
   29.1670   85.3540   38.8860 O   0  0  0  0  0  0  0  0  0  0  0  0
   29.7230   86.2550   38.2960 C   0  0  0  0  0  0  0  0  0  0  0  0
   29.1350   86.9140   37.0540 C   0  0  0  0  0  0  0  0  0  0  0  0
   28.7540   85.8550   36.0080 C   0  0  0  0  0  0  0  0  0  0  0  0
   27.8940   87.7040   37.4450 C   0  0  0  0  0  0  0  0  0  0  0  0
   28.2410   88.7810   38.4910 C   0  0  0  0  0  0  0  0  0  0  0  0
   30.8820   86.8020   38.6570 O   0  0  0  0  0  0  0  0  0  0  0  0
   31.6430   86.1280   39.6900 C   0  0  0  0  0  0  0  0  0  0  0  0
   32.2890   84.8370   39.1730 C   0  0  0  0  0  0  0  0  0  0  0  0
   33.3240   85.1000   38.0670 C   0  0  0  0  0  0  0  0  0  0  0  0
   32.7270   84.9580   36.6380 C   0  0  0  0  0  0  0  0  0  0  0  0
   33.9480   86.4520   38.0870 C   0  0  0  0  0  0  0  0  0  0  0  0
   33.7310   87.3600   39.0360 C   0  0  0  0  0  0  0  0  0  0  0  0
   32.7210   87.1360   40.1510 C   0  0  0  0  0  0  0  0  0  0  0  0
   34.4430   88.5050   38.9530 C   0  0  0  0  0  0  0  0  0  0  0  0
   34.3460   89.4710   39.8620 C   0  0  0  0  0  0  0  0  0  0  0  0
   33.2230   89.5060   40.8810 C   0  0  0  0  0  0  0  0  0  0  0  0
   33.8410   89.2000   42.2700 C   0  0  0  0  0  0  0  0  0  0  0  0
   32.1100   88.5150   40.5100 C   0  0  0  0  0  0  0  0  0  0  0  0
   30.9840   88.3680   41.6010 C   0  0  0  0  0  0  0  0  0  0  0  0
   30.4750   89.7330   42.1220 C   0  0  0  0  0  0  0  0  0  0  0  0
   29.3430   89.6190   43.1780 C   0  0  0  0  0  0  0  0  0  0  0  0
   29.7070   88.9010   44.4010 N   0  0  0  0  0  0  0  0  0  0  0  0
   28.8580   88.0190   44.9870 C   0  0  0  0  0  0  0  0  0  0  0  0
   29.1390   87.4550   46.0250 O   0  0  0  0  0  0  0  0  0  0  0  0
   27.5150   87.6950   44.4260 C   0  0  0  0  0  0  0  0  0  0  0  0
   26.9890   88.8510   43.5730 C   0  0  0  0  0  0  0  0  0  0  0  0
   25.7750   88.4650   42.9330 O   0  0  0  0  0  0  0  0  0  0  0  0
   28.0770   89.0560   42.5080 C   0  0  0  0  0  0  0  0  0  0  0  0
   30.9690   89.1450   45.0580 C   0  0  0  0  0  0  0  0  0  0  0  0
   30.8210   90.4090   45.8560 C   0  0  0  0  0  0  0  0  0  0  0  0
   31.2340   91.6260   45.3320 C   0  0  0  0  0  0  0  0  0  0  0  0
   31.0940   92.8040   46.0580 C   0  0  0  0  0  0  0  0  0  0  0  0
   30.5330   92.7450   47.3400 C   0  0  0  0  0  0  0  0  0  0  0  0
   30.3700   93.9040   48.1170 C   0  0  0  0  0  0  0  0  0  0  0  0
   30.8120   95.2890   47.6190 C   0  0  0  0  0  0  0  0  0  0  0  0
   30.0640   95.6950   46.4720 O   0  0  0  0  0  0  0  0  0  0  0  0
   29.7900   93.7890   49.3850 C   0  0  0  0  0  0  0  0  0  0  0  0
   29.6220   94.9180   50.1740 O   0  0  0  0  0  0  0  0  0  0  0  0
   28.2370   95.3000   50.3360 C   0  0  0  0  0  0  0  0  0  0  0  0
   29.3730   92.5510   49.8860 C   0  0  0  0  0  0  0  0  0  0  0  0
   29.5440   91.4070   49.1180 C   0  0  0  0  0  0  0  0  0  0  0  0
   30.1190   91.5080   47.8540 C   0  0  0  0  0  0  0  0  0  0  0  0
   30.2530   90.3390   47.1130 C   0  0  0  0  0  0  0  0  0  0  0  0
   29.8896   87.5854   36.6184 H   0  0  0  0  0  0  0  0  0  0  0  0
   28.4241   84.9379   36.5180 H   0  0  0  0  0  0  0  0  0  0  0  0
   27.9375   86.2385   35.3786 H   0  0  0  0  0  0  0  0  0  0  0  0
   29.6277   85.6304   35.3786 H   0  0  0  0  0  0  0  0  0  0  0  0
   27.4788   88.1904   36.5500 H   0  0  0  0  0  0  0  0  0  0  0  0
   27.1573   87.0127   37.8802 H   0  0  0  0  0  0  0  0  0  0  0  0
   28.1077   88.3672   39.5014 H   0  0  0  0  0  0  0  0  0  0  0  0
   29.2864   89.0969   38.3591 H   0  0  0  0  0  0  0  0  0  0  0  0
   27.5766   89.6477   38.3591 H   0  0  0  0  0  0  0  0  0  0  0  0
   30.9879   85.8244   40.5199 H   0  0  0  0  0  0  0  0  0  0  0  0
   32.7898   84.3322   40.0123 H   0  0  0  0  0  0  0  0  0  0  0  0
   31.4918   84.2124   38.7438 H   0  0  0  0  0  0  0  0  0  0  0  0
   34.0815   84.3336   38.2879 H   0  0  0  0  0  0  0  0  0  0  0  0
   31.6592   84.7040   36.7103 H   0  0  0  0  0  0  0  0  0  0  0  0
   32.8420   85.9085   36.0965 H   0  0  0  0  0  0  0  0  0  0  0  0
   33.2576   84.1610   36.0965 H   0  0  0  0  0  0  0  0  0  0  0  0
   34.6309   86.7169   37.2663 H   0  0  0  0  0  0  0  0  0  0  0  0
   33.1982   86.7063   41.0441 H   0  0  0  0  0  0  0  0  0  0  0  0
   35.1275   88.6434   38.1031 H   0  0  0  0  0  0  0  0  0  0  0  0
   35.1032   90.2688   39.8752 H   0  0  0  0  0  0  0  0  0  0  0  0
   32.7484   90.4981   40.9013 H   0  0  0  0  0  0  0  0  0  0  0  0
   33.1547   89.5398   43.0596 H   0  0  0  0  0  0  0  0  0  0  0  0
   34.0048   88.1167   42.3678 H   0  0  0  0  0  0  0  0  0  0  0  0
   34.8019   89.7264   42.3678 H   0  0  0  0  0  0  0  0  0  0  0  0
   31.6041   88.9378   39.6295 H   0  0  0  0  0  0  0  0  0  0  0  0
   30.1370   87.8213   41.1609 H   0  0  0  0  0  0  0  0  0  0  0  0
   31.4178   87.8273   42.4551 H   0  0  0  0  0  0  0  0  0  0  0  0
   31.3215   90.2676   42.5776 H   0  0  0  0  0  0  0  0  0  0  0  0
   30.0540   90.2684   41.2582 H   0  0  0  0  0  0  0  0  0  0  0  0
   29.1411   90.6370   43.5426 H   0  0  0  0  0  0  0  0  0  0  0  0
   27.5931   86.7927   43.8017 H   0  0  0  0  0  0  0  0  0  0  0  0
   26.8167   87.5253   45.2588 H   0  0  0  0  0  0  0  0  0  0  0  0
   26.7859   89.7555   44.1652 H   0  0  0  0  0  0  0  0  0  0  0  0
   25.0947   88.2487   43.6189 H   0  0  0  0  0  0  0  0  0  0  0  0
   27.7178   89.7644   41.7470 H   0  0  0  0  0  0  0  0  0  0  0  0
   28.3100   88.0938   42.0285 H   0  0  0  0  0  0  0  0  0  0  0  0
   31.2145   88.3055   45.7250 H   0  0  0  0  0  0  0  0  0  0  0  0
   31.7791   89.2431   44.3204 H   0  0  0  0  0  0  0  0  0  0  0  0
   31.6791   91.6594   44.3266 H   0  0  0  0  0  0  0  0  0  0  0  0
   31.4182   93.7653   45.6328 H   0  0  0  0  0  0  0  0  0  0  0  0
   30.6600   96.0236   48.4235 H   0  0  0  0  0  0  0  0  0  0  0  0
   31.8737   95.2322   47.3368 H   0  0  0  0  0  0  0  0  0  0  0  0
   29.2324   96.1464   46.7632 H   0  0  0  0  0  0  0  0  0  0  0  0
   27.9978   95.3660   51.4076 H   0  0  0  0  0  0  0  0  0  0  0  0
   28.0685   96.2781   49.8618 H   0  0  0  0  0  0  0  0  0  0  0  0
   27.5909   94.5465   49.8618 H   0  0  0  0  0  0  0  0  0  0  0  0
   28.9123   92.4844   50.8827 H   0  0  0  0  0  0  0  0  0  0  0  0
   29.2273   90.4275   49.5056 H   0  0  0  0  0  0  0  0  0  0  0  0
   29.9127   89.3757   47.5207 H   0  0  0  0  0  0  0  0  0  0  0  0
  1  2  2  0
  2  3  1  0
  2  7  1  0
  3  4  1  0
  3  5  1  0
  5  6  1  0
  7  8  1  0
  8  9  1  0
  8 14  1  0
  9 10  1  0
 10 11  1  0
 10 12  1  0
 12 13  2  0
 13 14  1  0
 13 15  1  0
 14 19  1  0
 15 16  2  0
 16 17  1  0
 17 18  1  0
 17 19  1  0
 19 20  1  0
 20 21  1  0
 21 22  1  0
 22 23  1  0
 22 29  1  0
 23 24  1  0
 23 30  1  0
 24 25  2  0
 24 26  1  0
 26 27  1  0
 27 28  1  0
 27 29  1  0
 30 31  1  0
 31 32  2  0
 31 44  1  0
 32 33  1  0
 33 34  2  0
 34 35  1  0
 34 43  1  0
 35 36  1  0
 35 38  2  0
 36 37  1  0
 38 39  1  0
 38 41  1  0
 39 40  1  0
 41 42  2  0
 42 43  1  0
 43 44  2  0
  3 45  1  0
  4 46  1  0
  4 47  1  0
  4 48  1  0
  5 49  1  0
  5 50  1  0
  6 51  1  0
  6 52  1  0
  6 53  1  0
  8 54  1  0
  9 55  1  0
  9 56  1  0
 10 57  1  0
 11 58  1  0
 11 59  1  0
 11 60  1  0
 12 61  1  0
 14 62  1  0
 15 63  1  0
 16 64  1  0
 17 65  1  0
 18 66  1  0
 18 67  1  0
 18 68  1  0
 19 69  1  0
 20 70  1  0
 20 71  1  0
 21 72  1  0
 21 73  1  0
 22 74  1  0
 26 75  1  0
 26 76  1  0
 27 77  1  0
 28 78  1  0
 29 79  1  0
 29 80  1  0
 30 81  1  0
 30 82  1  0
 32 83  1  0
 33 84  1  0
 36 85  1  0
 36 86  1  0
 37 87  1  0
 40 88  1  0
 40 89  1  0
 40 90  1  0
 41 91  1  0
 42 92  1  0
 44 93  1  0
A    1
O52
A    2
C51
A    3
C53
A    4
C62
A    5
C55
A    6
C58
A    7
O50
A    8
C26
A    9
C28
A   10
C31
A   11
C46
A   12
C33
A   13
C35
A   14
C24
A   15
C36
A   16
C38
A   17
C40
A   18
C42
A   19
C22
A   20
C19
A   21
C16
A   22
C2
A   23
N1
A   24
C12
A   25
O13
A   26
C9
A   27
C7
A   28
O14
A   29
C4
A   30
C66
A   31
C69
A   32
C92
A   33
C90
A   34
C73
A   35
C74
A   36
C85
A   37
O88
A   38
C75
A   39
O80
A   40
C81
A   41
C76
A   42
C78
A   43
C72
A   44
C70
M  END
