1XDG_AB8_A_401
     RDKit          3D

 91 94  0  0  0  0  0  0  0  0999 V2000
   52.3630   28.6250   15.9210 C   0  0  0  0  0  0  0  0  0  0  0  0
   52.5730   27.3410   15.3170 O   0  0  0  0  0  0  0  0  0  0  0  0
   51.8920   26.2280   15.8440 C   0  0  0  0  0  0  0  0  0  0  0  0
   52.4520   24.9700   15.6120 C   0  0  0  0  0  0  0  0  0  0  0  0
   53.6390   24.8870   14.8940 O   0  0  0  0  0  0  0  0  0  0  0  0
   51.8460   23.8140   16.0970 C   0  0  0  0  0  0  0  0  0  0  0  0
   50.6520   23.9320   16.8020 C   0  0  0  0  0  0  0  0  0  0  0  0
   50.6960   26.3310   16.5530 C   0  0  0  0  0  0  0  0  0  0  0  0
   50.0780   25.1760   17.0270 C   0  0  0  0  0  0  0  0  0  0  0  0
   48.7890   25.2370   17.8210 C   0  0  0  0  0  0  0  0  0  0  0  0
   49.1770   24.9150   19.1820 N   0  0  0  0  0  0  0  0  0  0  0  0
   50.0450   25.8080   19.9570 C   0  0  0  0  0  0  0  0  0  0  0  0
   49.4100   27.2390   20.0940 C   0  0  0  0  0  0  0  0  0  0  0  0
   50.2460   28.2340   20.8980 C   0  0  0  0  0  0  0  0  0  0  0  0
   49.6660   28.8840   21.9410 N   0  0  0  0  0  0  0  0  0  0  0  0
   50.2230   30.1400   22.4440 C   0  0  0  0  0  0  0  0  0  0  0  0
   51.4270   28.3480   20.6040 O   0  0  0  0  0  0  0  0  0  0  0  0
   50.3930   25.2780   21.3610 C   0  0  0  0  0  0  0  0  0  0  0  0
   50.2810   23.7130   21.3480 C   0  0  0  0  0  0  0  0  0  0  0  0
   48.9460   23.4010   20.9540 O   0  0  0  0  0  0  0  0  0  0  0  0
   48.6170   23.8250   19.7410 C   0  0  0  0  0  0  0  0  0  0  0  0
   47.7690   23.1620   19.1460 O   0  0  0  0  0  0  0  0  0  0  0  0
   50.4940   23.1640   22.7740 C   0  0  0  0  0  0  0  0  0  0  0  0
   50.4640   21.6040   22.8590 C   0  0  0  0  0  0  0  0  0  0  0  0
   50.5260   21.1490   24.3320 C   0  0  0  0  0  0  0  0  0  0  0  0
   50.4130   19.6130   24.2710 C   0  0  0  0  0  0  0  0  0  0  0  0
   50.3750   19.0710   25.6630 C   0  0  0  0  0  0  0  0  0  0  0  0
   49.7220   19.8650   26.7270 C   0  0  0  0  0  0  0  0  0  0  0  0
   49.2360   21.0690   26.4890 C   0  0  0  0  0  0  0  0  0  0  0  0
   49.3550   21.7450   25.1440 C   0  0  0  0  0  0  0  0  0  0  0  0
   48.0080   21.5930   24.3960 C   0  0  0  0  0  0  0  0  0  0  0  0
   50.9060   17.8810   25.9450 C   0  0  0  0  0  0  0  0  0  0  0  0
   51.5800   16.9720   24.9510 C   0  0  0  0  0  0  0  0  0  0  0  0
   53.0570   16.7870   25.3610 C   0  0  0  0  0  0  0  0  0  0  0  0
   51.4730   17.4780   23.4940 C   0  0  0  0  0  0  0  0  0  0  0  0
   51.5830   19.0300   23.4400 C   0  0  0  0  0  0  0  0  0  0  0  0
   52.8050   19.4970   24.0220 O   0  0  0  0  0  0  0  0  0  0  0  0
   53.8870   19.4220   23.2590 C   0  0  0  0  0  0  0  0  0  0  0  0
   53.8590   19.0910   22.0770 O   0  0  0  0  0  0  0  0  0  0  0  0
   55.1550   19.7600   24.0160 C   0  0  0  0  0  0  0  0  0  0  0  0
   56.1400   18.5710   23.9800 C   0  0  0  0  0  0  0  0  0  0  0  0
   55.8090   20.9630   23.3690 C   0  0  0  0  0  0  0  0  0  0  0  0
   54.8630   22.1630   23.5780 C   0  0  0  0  0  0  0  0  0  0  0  0
   52.3798   28.5222   17.0161 H   0  0  0  0  0  0  0  0  0  0  0  0
   53.1604   29.3137   15.6051 H   0  0  0  0  0  0  0  0  0  0  0  0
   51.3877   29.0237   15.6051 H   0  0  0  0  0  0  0  0  0  0  0  0
   54.5037   24.8265   15.3723 H   0  0  0  0  0  0  0  0  0  0  0  0
   52.3018   22.8275   15.9263 H   0  0  0  0  0  0  0  0  0  0  0  0
   50.1566   23.0280   17.1859 H   0  0  0  0  0  0  0  0  0  0  0  0
   50.2438   27.3168   16.7367 H   0  0  0  0  0  0  0  0  0  0  0  0
   48.3503   26.2445   17.7711 H   0  0  0  0  0  0  0  0  0  0  0  0
   48.0278   24.5451   17.4312 H   0  0  0  0  0  0  0  0  0  0  0  0
   50.9828   25.8595   19.3843 H   0  0  0  0  0  0  0  0  0  0  0  0
   49.2677   27.6490   19.0832 H   0  0  0  0  0  0  0  0  0  0  0  0
   48.4668   27.1090   20.6449 H   0  0  0  0  0  0  0  0  0  0  0  0
   48.8242   28.4877   22.3828 H   0  0  0  0  0  0  0  0  0  0  0  0
   50.2180   30.1288   23.5439 H   0  0  0  0  0  0  0  0  0  0  0  0
   51.2559   30.2536   22.0831 H   0  0  0  0  0  0  0  0  0  0  0  0
   49.6138   30.9818   22.0831 H   0  0  0  0  0  0  0  0  0  0  0  0
   51.4191   25.5738   21.6248 H   0  0  0  0  0  0  0  0  0  0  0  0
   49.6987   25.6980   22.1037 H   0  0  0  0  0  0  0  0  0  0  0  0
   51.0303   23.2769   20.6710 H   0  0  0  0  0  0  0  0  0  0  0  0
   51.4719   23.5126   23.1376 H   0  0  0  0  0  0  0  0  0  0  0  0
   49.6604   23.5349   23.3884 H   0  0  0  0  0  0  0  0  0  0  0  0
   49.5342   21.2331   22.4030 H   0  0  0  0  0  0  0  0  0  0  0  0
   51.3338   21.1986   22.3214 H   0  0  0  0  0  0  0  0  0  0  0  0
   51.4490   21.4834   24.8282 H   0  0  0  0  0  0  0  0  0  0  0  0
   49.4818   19.3146   23.7671 H   0  0  0  0  0  0  0  0  0  0  0  0
   49.6396   19.4425   27.7393 H   0  0  0  0  0  0  0  0  0  0  0  0
   48.7234   21.6016   27.3036 H   0  0  0  0  0  0  0  0  0  0  0  0
   49.5739   22.8144   25.2796 H   0  0  0  0  0  0  0  0  0  0  0  0
   47.1911   21.5008   25.1269 H   0  0  0  0  0  0  0  0  0  0  0  0
   47.8372   22.4776   23.7648 H   0  0  0  0  0  0  0  0  0  0  0  0
   48.0386   20.6926   23.7648 H   0  0  0  0  0  0  0  0  0  0  0  0
   50.8471   17.5352   26.9876 H   0  0  0  0  0  0  0  0  0  0  0  0
   51.0556   16.0053   24.9711 H   0  0  0  0  0  0  0  0  0  0  0  0
   53.1345   16.7773   26.4582 H   0  0  0  0  0  0  0  0  0  0  0  0
   53.4328   15.8348   24.9584 H   0  0  0  0  0  0  0  0  0  0  0  0
   53.6560   17.6171   24.9584 H   0  0  0  0  0  0  0  0  0  0  0  0
   52.2862   17.0376   22.8983 H   0  0  0  0  0  0  0  0  0  0  0  0
   50.4959   17.1787   23.0870 H   0  0  0  0  0  0  0  0  0  0  0  0
   51.5534   19.3470   22.3871 H   0  0  0  0  0  0  0  0  0  0  0  0
   54.8986   19.9789   25.0631 H   0  0  0  0  0  0  0  0  0  0  0  0
   56.3893   18.2701   25.0083 H   0  0  0  0  0  0  0  0  0  0  0  0
   55.6745   17.7250   23.4530 H   0  0  0  0  0  0  0  0  0  0  0  0
   57.0578   18.8710   23.4530 H   0  0  0  0  0  0  0  0  0  0  0  0
   56.7818   21.1630   23.8419 H   0  0  0  0  0  0  0  0  0  0  0  0
   55.9826   20.7843   22.2976 H   0  0  0  0  0  0  0  0  0  0  0  0
   54.7251   22.3379   24.6552 H   0  0  0  0  0  0  0  0  0  0  0  0
   55.2999   23.0595   23.1139 H   0  0  0  0  0  0  0  0  0  0  0  0
   53.8893   21.9474   23.1139 H   0  0  0  0  0  0  0  0  0  0  0  0
  1  2  1  0
  2  3  1  0
  3  4  2  0
  3  8  1  0
  4  5  1  0
  4  6  1  0
  6  7  2  0
  7  9  1  0
  8  9  2  0
  9 10  1  0
 10 11  1  0
 11 12  1  0
 11 21  1  0
 12 13  1  0
 12 18  1  0
 13 14  1  0
 14 15  1  0
 14 17  2  0
 15 16  1  0
 18 19  1  0
 19 20  1  0
 19 23  1  0
 20 21  1  0
 21 22  2  0
 23 24  1  0
 24 25  1  0
 25 26  1  0
 25 30  1  0
 26 27  1  0
 26 36  1  0
 27 28  1  0
 27 32  2  0
 28 29  2  0
 29 30  1  0
 30 31  1  0
 32 33  1  0
 33 34  1  0
 33 35  1  0
 35 36  1  0
 36 37  1  0
 37 38  1  0
 38 39  2  0
 38 40  1  0
 40 41  1  0
 40 42  1  0
 42 43  1  0
  1 44  1  0
  1 45  1  0
  1 46  1  0
  5 47  1  0
  6 48  1  0
  7 49  1  0
  8 50  1  0
 10 51  1  0
 10 52  1  0
 12 53  1  0
 13 54  1  0
 13 55  1  0
 15 56  1  0
 16 57  1  0
 16 58  1  0
 16 59  1  0
 18 60  1  0
 18 61  1  0
 19 62  1  0
 23 63  1  0
 23 64  1  0
 24 65  1  0
 24 66  1  0
 25 67  1  0
 26 68  1  0
 28 69  1  0
 29 70  1  0
 30 71  1  0
 31 72  1  0
 31 73  1  0
 31 74  1  0
 32 75  1  0
 33 76  1  0
 34 77  1  0
 34 78  1  0
 34 79  1  0
 35 80  1  0
 35 81  1  0
 36 82  1  0
 40 83  1  0
 41 84  1  0
 41 85  1  0
 41 86  1  0
 42 87  1  0
 42 88  1  0
 43 89  1  0
 43 90  1  0
 43 91  1  0
A    1
C88
A    2
O87
A    3
C79
A    4
C80
A    5
O85
A    6
C81
A    7
C83
A    8
C77
A    9
C76
A   10
C73
A   11
N1
A   12
C2
A   13
C62
A   14
C65
A   15
N67
A   16
C69
A   17
O66
A   18
C4
A   19
C7
A   20
O9
A   21
C10
A   22
O11
A   23
C12
A   24
C15
A   25
C18
A   26
C20
A   27
C31
A   28
C32
A   29
C34
A   30
C36
A   31
C38
A   32
C29
A   33
C27
A   34
C42
A   35
C24
A   36
C22
A   37
O46
A   38
C47
A   39
O48
A   40
C49
A   41
C58
A   42
C51
A   43
C54
M  END
