1XFG_HGA_A_5300
     RDKit          3D

 21 20  0  0  0  0  0  0  0  0999 V2000
    6.4330   30.7810   29.7370 N   0  0  0  0  0  0  0  0  0  0  0  0
    5.5960   30.5710   28.5270 C   0  0  0  0  0  0  0  0  0  0  0  0
    6.3820   30.8330   27.2490 C   0  0  0  0  0  0  0  0  0  0  0  0
    7.6460   29.9750   27.2620 C   0  0  0  0  0  0  0  0  0  0  0  0
    8.5740   30.1840   26.0890 C   0  0  0  0  0  0  0  0  0  0  0  0
    9.1390   31.2480   25.8470 O   0  0  0  0  0  0  0  0  0  0  0  0
    8.7920   29.1290   25.3310 N   0  0  0  0  0  0  0  0  0  0  0  0
    9.6880   29.2780   24.2720 O   0  0  0  0  0  0  0  0  0  0  0  0
    5.0350   29.1820   28.4960 C   0  0  0  0  0  0  0  0  0  0  0  0
    4.1110   28.9260   27.7080 O   0  0  0  0  0  0  0  0  0  0  0  0
    5.4720   28.2990   29.2620 O   0  0  0  0  0  0  0  0  0  0  0  0
    5.8595   30.6371   30.5804 H   0  0  0  0  0  0  0  0  0  0  0  0
    7.2144   30.1100   29.7346 H   0  0  0  0  0  0  0  0  0  0  0  0
    4.7674   31.2925   28.5806 H   0  0  0  0  0  0  0  0  0  0  0  0
    5.7662   30.5704   26.3762 H   0  0  0  0  0  0  0  0  0  0  0  0
    6.6540   31.8972   27.1898 H   0  0  0  0  0  0  0  0  0  0  0  0
    8.2034   30.2033   28.1824 H   0  0  0  0  0  0  0  0  0  0  0  0
    7.3076   28.9300   27.2026 H   0  0  0  0  0  0  0  0  0  0  0  0
    8.3206   28.2314   25.5126 H   0  0  0  0  0  0  0  0  0  0  0  0
   10.5988   29.4295   24.6292 H   0  0  0  0  0  0  0  0  0  0  0  0
    5.4119   28.4204   30.2427 H   0  0  0  0  0  0  0  0  0  0  0  0
  1  2  1  0
  2  3  1  0
  2  9  1  0
  3  4  1  0
  4  5  1  0
  5  6  2  0
  5  7  1  0
  7  8  1  0
  9 10  2  0
  9 11  1  0
  1 12  1  0
  1 13  1  0
  2 14  1  0
  3 15  1  0
  3 16  1  0
  4 17  1  0
  4 18  1  0
  7 19  1  0
  8 20  1  0
 11 21  1  0
A    1
N
A    2
CA
A    3
CB
A    4
CG
A    5
CD
A    6
OE1
A    7
NE2
A    8
OZ2
A    9
C
A   10
O
A   11
OXT
M  END
