1XH5_R68_A_1001
     RDKit          3D

 81 85  0  0  0  0  0  0  0  0999 V2000
    7.3900    9.4140    1.5240 O   0  0  0  0  0  0  0  0  0  0  0  0
    7.2020    9.3580    2.7540 C   0  0  0  0  0  0  0  0  0  0  0  0
    5.8510    9.4950    3.3630 C   0  0  0  0  0  0  0  0  0  0  0  0
    4.7130    9.5200    2.5260 C   0  0  0  0  0  0  0  0  0  0  0  0
    3.4350    9.6350    3.0840 C   0  0  0  0  0  0  0  0  0  0  0  0
    3.2650    9.6370    4.4110 N   0  0  0  0  0  0  0  0  0  0  0  0
    4.3100    9.5980    5.2250 C   0  0  0  0  0  0  0  0  0  0  0  0
    5.6310    9.5570    4.7490 C   0  0  0  0  0  0  0  0  0  0  0  0
    8.3090    9.1380    3.5610 N   0  0  0  0  0  0  0  0  0  0  0  0
    9.6570    8.8670    3.0180 C   0  0  0  0  0  0  0  0  0  0  0  0
    9.9700    7.4310    3.4550 C   0  0  0  0  0  0  0  0  0  0  0  0
   11.2460    6.9640    2.9110 N   0  0  0  0  0  0  0  0  0  0  0  0
   12.4100    7.1760    3.8330 C   0  0  0  0  0  0  0  0  0  0  0  0
   12.8210    8.6380    3.8300 C   0  0  0  0  0  0  0  0  0  0  0  0
   11.7480    9.5740    4.4550 C   0  0  0  0  0  0  0  0  0  0  0  0
   10.6490    9.9820    3.4450 C   0  0  0  0  0  0  0  0  0  0  0  0
   11.2460   10.6180    2.2920 N   0  0  0  0  0  0  0  0  0  0  0  0
   11.8060   11.8770    2.2920 C   0  0  0  0  0  0  0  0  0  0  0  0
   11.6770   12.5820    3.3050 O   0  0  0  0  0  0  0  0  0  0  0  0
   12.7170   12.2980    1.2290 C   0  0  0  0  0  0  0  0  0  0  0  0
   13.1010   13.6530    1.1370 C   0  0  0  0  0  0  0  0  0  0  0  0
   14.0410   14.0660    0.2030 C   0  0  0  0  0  0  0  0  0  0  0  0
   13.3430   11.3620    0.3890 C   0  0  0  0  0  0  0  0  0  0  0  0
   14.2970   11.7750   -0.5250 C   0  0  0  0  0  0  0  0  0  0  0  0
   14.6260   13.1290   -0.6580 C   0  0  0  0  0  0  0  0  0  0  0  0
   15.7030   13.5010   -1.5770 C   0  0  0  0  0  0  0  0  0  0  0  0
   16.2950   14.5900   -1.3850 O   0  0  0  0  0  0  0  0  0  0  0  0
   16.2360   12.5360   -2.5400 C   0  0  0  0  0  0  0  0  0  0  0  0
   15.5330   12.1720   -3.6690 C   0  0  0  0  0  0  0  0  0  0  0  0
   14.3630   12.7960   -3.8180 O   0  0  0  0  0  0  0  0  0  0  0  0
   16.0100   11.2560   -4.5970 C   0  0  0  0  0  0  0  0  0  0  0  0
   17.2520   10.6560   -4.3780 C   0  0  0  0  0  0  0  0  0  0  0  0
   17.9960   10.9600   -3.2200 C   0  0  0  0  0  0  0  0  0  0  0  0
   17.4550   11.9040   -2.3500 C   0  0  0  0  0  0  0  0  0  0  0  0
   18.1180   12.2450   -1.2520 F   0  0  0  0  0  0  0  0  0  0  0  0
   19.3580   10.3270   -2.9820 C   0  0  0  0  0  0  0  0  0  0  0  0
   20.5590   11.1930   -3.5230 C   0  0  0  0  0  0  0  0  0  0  0  0
   20.6750   12.5880   -2.8390 C   0  0  0  0  0  0  0  0  0  0  0  0
   20.4400   11.3800   -5.0260 C   0  0  0  0  0  0  0  0  0  0  0  0
   21.8990   10.4480   -3.2650 C   0  0  0  0  0  0  0  0  0  0  0  0
   22.0320    9.9580   -1.7980 C   0  0  0  0  0  0  0  0  0  0  0  0
   20.7710    9.1690   -1.3510 C   0  0  0  0  0  0  0  0  0  0  0  0
   19.5140    9.9650   -1.5440 N   0  0  0  0  0  0  0  0  0  0  0  0
    4.8318    9.4490    1.4347 H   0  0  0  0  0  0  0  0  0  0  0  0
    2.5598    9.7248    2.4238 H   0  0  0  0  0  0  0  0  0  0  0  0
    4.1370    9.5977    6.3113 H   0  0  0  0  0  0  0  0  0  0  0  0
    6.4788    9.5732    5.4497 H   0  0  0  0  0  0  0  0  0  0  0  0
    8.1862    9.1647    4.5833 H   0  0  0  0  0  0  0  0  0  0  0  0
    9.7382    8.9083    1.9218 H   0  0  0  0  0  0  0  0  0  0  0  0
   10.0166    7.3951    4.5534 H   0  0  0  0  0  0  0  0  0  0  0  0
    9.1741    6.7755    3.0718 H   0  0  0  0  0  0  0  0  0  0  0  0
   11.1662    5.9560    2.7150 H   0  0  0  0  0  0  0  0  0  0  0  0
   12.1239    6.8809    4.8533 H   0  0  0  0  0  0  0  0  0  0  0  0
   13.2569    6.5641    3.4890 H   0  0  0  0  0  0  0  0  0  0  0  0
   13.7531    8.7409    4.4049 H   0  0  0  0  0  0  0  0  0  0  0  0
   12.9493    8.9407    2.7803 H   0  0  0  0  0  0  0  0  0  0  0  0
   11.2738    9.0513    5.2988 H   0  0  0  0  0  0  0  0  0  0  0  0
   12.2579   10.4930    4.7799 H   0  0  0  0  0  0  0  0  0  0  0  0
   10.0145   10.6924    3.9952 H   0  0  0  0  0  0  0  0  0  0  0  0
   11.2532   10.0919    1.4065 H   0  0  0  0  0  0  0  0  0  0  0  0
   12.6490   14.3920    1.8149 H   0  0  0  0  0  0  0  0  0  0  0  0
   14.3258   15.1266    0.1392 H   0  0  0  0  0  0  0  0  0  0  0  0
   13.0742   10.2976    0.4578 H   0  0  0  0  0  0  0  0  0  0  0  0
   14.8034   11.0291   -1.1553 H   0  0  0  0  0  0  0  0  0  0  0  0
   13.8445   13.0725   -3.0213 H   0  0  0  0  0  0  0  0  0  0  0  0
   15.4190   11.0068   -5.4906 H   0  0  0  0  0  0  0  0  0  0  0  0
   17.6519    9.9422   -5.1133 H   0  0  0  0  0  0  0  0  0  0  0  0
   19.3953    9.4023   -3.5765 H   0  0  0  0  0  0  0  0  0  0  0  0
   20.6646   12.4626   -1.7462 H   0  0  0  0  0  0  0  0  0  0  0  0
   21.6162   13.0688   -3.1439 H   0  0  0  0  0  0  0  0  0  0  0  0
   19.8261   13.2176   -3.1439 H   0  0  0  0  0  0  0  0  0  0  0  0
   19.8604   12.2907   -5.2374 H   0  0  0  0  0  0  0  0  0  0  0  0
   21.4444   11.4745   -5.4644 H   0  0  0  0  0  0  0  0  0  0  0  0
   19.9290   10.5101   -5.4644 H   0  0  0  0  0  0  0  0  0  0  0  0
   21.9532    9.5769   -3.9345 H   0  0  0  0  0  0  0  0  0  0  0  0
   22.7184   11.1563   -3.4571 H   0  0  0  0  0  0  0  0  0  0  0  0
   22.9120    9.3030   -1.7172 H   0  0  0  0  0  0  0  0  0  0  0  0
   22.1409   10.8375   -1.1463 H   0  0  0  0  0  0  0  0  0  0  0  0
   20.7012    8.2451   -1.9439 H   0  0  0  0  0  0  0  0  0  0  0  0
   20.8714    8.9460   -0.2785 H   0  0  0  0  0  0  0  0  0  0  0  0
   19.5641   10.8247   -0.9789 H   0  0  0  0  0  0  0  0  0  0  0  0
  1  2  2  0
  2  3  1  0
  2  9  1  0
  3  4  2  0
  3  8  1  0
  4  5  1  0
  5  6  2  0
  6  7  1  0
  7  8  2  0
  9 10  1  0
 10 11  1  0
 10 16  1  0
 11 12  1  0
 12 13  1  0
 13 14  1  0
 14 15  1  0
 15 16  1  0
 16 17  1  0
 17 18  1  0
 18 19  2  0
 18 20  1  0
 20 21  2  0
 20 23  1  0
 21 22  1  0
 22 25  2  0
 23 24  2  0
 24 25  1  0
 25 26  1  0
 26 27  2  0
 26 28  1  0
 28 29  2  0
 28 34  1  0
 29 30  1  0
 29 31  1  0
 31 32  2  0
 32 33  1  0
 33 34  2  0
 33 36  1  0
 34 35  1  0
 36 37  1  0
 36 43  1  0
 37 38  1  0
 37 39  1  0
 37 40  1  0
 40 41  1  0
 41 42  1  0
 42 43  1  0
  4 44  1  0
  5 45  1  0
  7 46  1  0
  8 47  1  0
  9 48  1  0
 10 49  1  0
 11 50  1  0
 11 51  1  0
 12 52  1  0
 13 53  1  0
 13 54  1  0
 14 55  1  0
 14 56  1  0
 15 57  1  0
 15 58  1  0
 16 59  1  0
 17 60  1  0
 21 61  1  0
 22 62  1  0
 23 63  1  0
 24 64  1  0
 30 65  1  0
 31 66  1  0
 32 67  1  0
 36 68  1  0
 38 69  1  0
 38 70  1  0
 38 71  1  0
 39 72  1  0
 39 73  1  0
 39 74  1  0
 40 75  1  0
 40 76  1  0
 41 77  1  0
 41 78  1  0
 42 79  1  0
 42 80  1  0
 43 81  1  0
A    1
O22
A    2
C21
A    3
C14
A    4
C13
A    5
C12
A    6
N11
A    7
C16
A    8
C15
A    9
N23
A   10
C31
A   11
C32
A   12
N33
A   13
C34
A   14
C35
A   15
C36
A   16
C37
A   17
N41
A   18
C42
A   19
O43
A   20
C51
A   21
C52
A   22
C53
A   23
C56
A   24
C55
A   25
C54
A   26
C61
A   27
O62
A   28
C71
A   29
C72
A   30
O82
A   31
C73
A   32
C74
A   33
C75
A   34
C76
A   35
F89
A   36
C91
A   37
C92
A   38
C97
A   39
C98
A   40
C93
A   41
C94
A   42
C95
A   43
N96
M  END
