1XIJ_THE_A_389
     RDKit          3D

 16 15  0  0  0  0  0  0  0  0999 V2000
   32.4760   31.8650   57.6300 C   0  0  0  0  0  0  0  0  0  0  0  0
   33.4920   33.0420   57.5080 C   0  0  0  0  0  0  0  0  0  0  0  0
   34.9860   32.4760   57.5390 C   0  0  0  0  0  0  0  0  0  0  0  0
   35.8340   33.6130   57.0790 C   0  0  0  0  0  0  0  0  0  0  0  0
   32.5980   31.0880   56.4420 O   0  0  0  0  0  0  0  0  0  0  0  0
   33.1870   33.7970   58.7600 O   0  0  0  0  0  0  0  0  0  0  0  0
   35.3910   31.8410   58.7920 O   0  0  0  0  0  0  0  0  0  0  0  0
   35.7150   34.7270   57.5090 O   0  0  0  0  0  0  0  0  0  0  0  0
   36.8740   33.6740   56.4410 O   0  0  0  0  0  0  0  0  0  0  0  0
   32.7137   31.2498   58.5104 H   0  0  0  0  0  0  0  0  0  0  0  0
   31.4496   32.2418   57.7503 H   0  0  0  0  0  0  0  0  0  0  0  0
   33.4138   33.6365   56.5858 H   0  0  0  0  0  0  0  0  0  0  0  0
   35.0991   31.6114   56.8685 H   0  0  0  0  0  0  0  0  0  0  0  0
   32.7470   30.1392   56.6821 H   0  0  0  0  0  0  0  0  0  0  0  0
   33.4127   33.2383   59.5455 H   0  0  0  0  0  0  0  0  0  0  0  0
   35.0522   32.3721   59.5557 H   0  0  0  0  0  0  0  0  0  0  0  0
  1  2  1  0
  1  5  1  0
  2  3  1  0
  2  6  1  0
  3  4  1  0
  3  7  1  0
  4  8  2  0
  4  9  1  0
  1 10  1  0
  1 11  1  0
  2 12  1  0
  3 13  1  0
  5 14  1  0
  6 15  1  0
  7 16  1  0
M  CHG  1   9  -1
A    1
C1
A    2
C2
A    3
C3
A    4
C4
A    5
O1
A    6
O2
A    7
O3
A    8
O4
A    9
O5
M  END
