1XIV_RB2_A_500
     RDKit          3D

 37 37  0  0  0  0  0  0  0  0999 V2000
   33.7370    9.0130   20.8370 O   0  0  0  0  0  0  0  0  0  0  0  0
   34.4470    9.2880   19.8300 C   0  0  0  0  0  0  0  0  0  0  0  0
   34.6870    8.4440   18.9310 O   0  0  0  0  0  0  0  0  0  0  0  0
   35.0030   10.6440   19.7210 C   0  0  0  0  0  0  0  0  0  0  0  0
   35.1740   11.2650   20.7570 O   0  0  0  0  0  0  0  0  0  0  0  0
   35.2690   11.1190   18.4930 N   0  0  0  0  0  0  0  0  0  0  0  0
   35.7680   12.3550   18.1380 C   0  0  0  0  0  0  0  0  0  0  0  0
   35.9740   12.6230   16.7870 C   0  0  0  0  0  0  0  0  0  0  0  0
   35.6520   11.6410   15.7010 C   0  0  0  0  0  0  0  0  0  0  0  0
   35.7520   11.9750   14.5260 O   0  0  0  0  0  0  0  0  0  0  0  0
   35.1960   10.3000   16.0070 O   0  0  0  0  0  0  0  0  0  0  0  0
   34.4790    9.6090   14.9820 C   0  0  0  0  0  0  0  0  0  0  0  0
   36.4960   13.8400   16.3600 C   0  0  0  0  0  0  0  0  0  0  0  0
   36.8200   14.8120   17.2830 C   0  0  0  0  0  0  0  0  0  0  0  0
   37.4870   16.3500   16.6620 Cl  0  0  0  0  0  0  0  0  0  0  0  0
   36.6230   14.5840   18.6280 C   0  0  0  0  0  0  0  0  0  0  0  0
   36.1160   13.3560   19.0660 C   0  0  0  0  0  0  0  0  0  0  0  0
   34.2457    9.2100   21.6632 H   0  0  0  0  0  0  0  0  0  0  0  0
   35.3456    8.9631   20.3749 H   0  0  0  0  0  0  0  0  0  0  0  0
   34.9327    7.5798   19.3468 H   0  0  0  0  0  0  0  0  0  0  0  0
   33.9856   11.0549   19.6427 H   0  0  0  0  0  0  0  0  0  0  0  0
   35.0098   10.6688   21.5301 H   0  0  0  0  0  0  0  0  0  0  0  0
   35.9402   10.4461   18.0960 H   0  0  0  0  0  0  0  0  0  0  0  0
   36.7931   11.9638   18.2167 H   0  0  0  0  0  0  0  0  0  0  0  0
   36.9905   12.2091   16.8599 H   0  0  0  0  0  0  0  0  0  0  0  0
   34.6047   11.9773   15.7075 H   0  0  0  0  0  0  0  0  0  0  0  0
   36.0356   12.9222   14.4752 H   0  0  0  0  0  0  0  0  0  0  0  0
   33.7594    8.9155   15.4417 H   0  0  0  0  0  0  0  0  0  0  0  0
   33.9396   10.3365   14.3577 H   0  0  0  0  0  0  0  0  0  0  0  0
   35.1861    9.0431   14.3577 H   0  0  0  0  0  0  0  0  0  0  0  0
   37.4161   13.6127   15.8016 H   0  0  0  0  0  0  0  0  0  0  0  0
   35.6634   14.2902   15.7996 H   0  0  0  0  0  0  0  0  0  0  0  0
   37.8376   14.4012   17.3585 H   0  0  0  0  0  0  0  0  0  0  0  0
   37.5989   14.7167   19.1180 H   0  0  0  0  0  0  0  0  0  0  0  0
   35.8232   15.2929   18.8882 H   0  0  0  0  0  0  0  0  0  0  0  0
   35.2077   13.5784   19.6453 H   0  0  0  0  0  0  0  0  0  0  0  0
   36.9689   12.9124   19.6007 H   0  0  0  0  0  0  0  0  0  0  0  0
  1  2  1  0
  2  3  1  0
  2  4  1  0
  4  5  1  0
  4  6  1  0
  6  7  1  0
  7  8  1  0
  7 17  1  0
  8  9  1  0
  8 13  1  0
  9 10  1  0
  9 11  1  0
 11 12  1  0
 13 14  1  0
 14 15  1  0
 14 16  1  0
 16 17  1  0
  1 18  1  0
  2 19  1  0
  3 20  1  0
  4 21  1  0
  5 22  1  0
  6 23  1  0
  7 24  1  0
  8 25  1  0
  9 26  1  0
 10 27  1  0
 12 28  1  0
 12 29  1  0
 12 30  1  0
 13 31  1  0
 13 32  1  0
 14 33  1  0
 16 34  1  0
 16 35  1  0
 17 36  1  0
 17 37  1  0
A    1
O17
A    2
C15
A    3
O16
A    4
C13
A    5
O14
A    6
N12
A    7
C6
A    8
C5
A    9
C8
A   10
O10
A   11
O9
A   12
C11
A   13
C4
A   14
C3
A   15
CL
A   16
C2
A   17
C1
M  END
