1XLS_TCD_E_805
     RDKit          3D

 32 34  0  0  0  0  0  0  0  0999 V2000
    3.2120  -11.5140   42.9520 C   0  0  0  0  0  0  0  0  0  0  0  0
    4.3680  -12.1860   43.2740 O   0  0  0  0  0  0  0  0  0  0  0  0
    2.6260  -10.5580   43.8100 C   0  0  0  0  0  0  0  0  0  0  0  0
    1.4540   -9.9350   43.4460 C   0  0  0  0  0  0  0  0  0  0  0  0
    0.8610  -10.1680   42.1890 C   0  0  0  0  0  0  0  0  0  0  0  0
   -0.2700   -9.4790   41.9570 O   0  0  0  0  0  0  0  0  0  0  0  0
    1.4400  -11.1190   41.3140 C   0  0  0  0  0  0  0  0  0  0  0  0
    2.6250  -11.7440   41.6960 C   0  0  0  0  0  0  0  0  0  0  0  0
    4.2240  -13.1130   44.2940 C   0  0  0  0  0  0  0  0  0  0  0  0
    2.9140  -13.3800   44.6600 N   0  0  0  0  0  0  0  0  0  0  0  0
    2.6000  -14.2520   45.6340 C   0  0  0  0  0  0  0  0  0  0  0  0
    3.5270  -14.9640   46.3610 C   0  0  0  0  0  0  0  0  0  0  0  0
    3.0350  -16.0810   47.6240 Cl  0  0  0  0  0  0  0  0  0  0  0  0
    4.8680  -14.7610   46.0610 C   0  0  0  0  0  0  0  0  0  0  0  0
    5.3030  -13.7790   44.9590 C   0  0  0  0  0  0  0  0  0  0  0  0
    7.0020  -13.5270   44.5760 Cl  0  0  0  0  0  0  0  0  0  0  0  0
   -1.5260  -10.0550   41.7990 C   0  0  0  0  0  0  0  0  0  0  0  0
   -1.7380  -11.3470   42.1320 N   0  0  0  0  0  0  0  0  0  0  0  0
   -2.9680  -11.9050   41.9850 C   0  0  0  0  0  0  0  0  0  0  0  0
   -4.0850  -11.1790   41.4900 C   0  0  0  0  0  0  0  0  0  0  0  0
   -5.6790  -11.9150   41.3320 Cl  0  0  0  0  0  0  0  0  0  0  0  0
   -3.8420   -9.8280   41.1590 C   0  0  0  0  0  0  0  0  0  0  0  0
   -2.5920   -9.2520   41.2980 C   0  0  0  0  0  0  0  0  0  0  0  0
   -2.3450   -7.5640   40.8410 Cl  0  0  0  0  0  0  0  0  0  0  0  0
    3.1058  -10.3113   44.7686 H   0  0  0  0  0  0  0  0  0  0  0  0
    0.9707   -9.2416   44.1500 H   0  0  0  0  0  0  0  0  0  0  0  0
    0.9637  -11.3594   40.3521 H   0  0  0  0  0  0  0  0  0  0  0  0
    3.1146  -12.4364   40.9954 H   0  0  0  0  0  0  0  0  0  0  0  0
    1.5355  -14.4061   45.8644 H   0  0  0  0  0  0  0  0  0  0  0  0
    5.6351  -15.3139   46.6230 H   0  0  0  0  0  0  0  0  0  0  0  0
   -3.1048  -12.9612   42.2602 H   0  0  0  0  0  0  0  0  0  0  0  0
   -4.6723   -9.2147   40.7789 H   0  0  0  0  0  0  0  0  0  0  0  0
  1  2  1  0
  1  3  2  0
  1  8  1  0
  2  9  1  0
  3  4  1  0
  4  5  2  0
  5  6  1  0
  5  7  1  0
  6 17  1  0
  7  8  2  0
  9 10  2  0
  9 15  1  0
 10 11  1  0
 11 12  2  0
 12 13  1  0
 12 14  1  0
 14 15  2  0
 15 16  1  0
 17 18  2  0
 17 23  1  0
 18 19  1  0
 19 20  2  0
 20 21  1  0
 20 22  1  0
 22 23  2  0
 23 24  1  0
  3 25  1  0
  4 26  1  0
  7 27  1  0
  8 28  1  0
 11 29  1  0
 14 30  1  0
 19 31  1  0
 22 32  1  0
A    1
C1
A    2
O21
A    3
C2
A    4
C3
A    5
C4
A    6
O31
A    7
C5
A    8
C6
A    9
C22
A   10
N23
A   11
C24
A   12
C25
A   13
CL25
A   14
C26
A   15
C27
A   16
CL27
A   17
C32
A   18
N33
A   19
C34
A   20
C35
A   21
CL35
A   22
C36
A   23
C37
A   24
CL37
M  END
