1GMH_ISP_G_290
     RDKit          3D

 16 15  0  0  0  0  0  0  0  0999 V2000
   27.4560    4.0940   39.3340 C   0  0  0  0  0  0  0  0  0  0  0  0
   26.8410    2.6770   38.9850 C   0  0  0  0  0  0  0  0  0  0  0  0
   26.7730    1.8390   40.1650 C   0  0  0  0  0  0  0  0  0  0  0  0
   27.4680    1.7600   36.5680 P   0  0  0  0  0  0  0  0  0  0  0  0
   27.6190    2.1270   38.0370 O   0  0  0  0  0  0  0  0  0  0  0  0
   28.8060    1.0830   36.1620 O   0  0  0  0  0  0  0  0  0  0  0  0
   26.3410    0.8900   36.4040 O   0  0  0  0  0  0  0  0  0  0  0  0
   27.5074    4.2124   40.4264 H   0  0  0  0  0  0  0  0  0  0  0  0
   28.4678    4.1693   38.9090 H   0  0  0  0  0  0  0  0  0  0  0  0
   26.8200    4.8845   38.9090 H   0  0  0  0  0  0  0  0  0  0  0  0
   25.8100    2.7810   38.6159 H   0  0  0  0  0  0  0  0  0  0  0  0
   26.8241    2.4688   41.0654 H   0  0  0  0  0  0  0  0  0  0  0  0
   25.8264    1.2786   40.1627 H   0  0  0  0  0  0  0  0  0  0  0  0
   27.6168    1.1334   40.1627 H   0  0  0  0  0  0  0  0  0  0  0  0
   29.3079    0.8291   36.9767 H   0  0  0  0  0  0  0  0  0  0  0  0
   25.9969    0.6244   37.2935 H   0  0  0  0  0  0  0  0  0  0  0  0
  1  2  1  0
  2  3  1  0
  2  5  1  0
  4  5  1  0
  4  6  1  0
  4  7  1  0
  1  8  1  0
  1  9  1  0
  1 10  1  0
  2 11  1  0
  3 12  1  0
  3 13  1  0
  3 14  1  0
  6 15  1  0
  7 16  1  0
A    1
C1
A    2
C2
A    3
C3
A    4
P
A    5
O1P
A    6
O2P
A    7
O3P
M  END
