1XM6_5RM_A_1003
     RDKit          3D

 38 39  0  0  0  0  0  0  0  0999 V2000
   50.7850    2.2010  -10.0540 O   0  0  0  0  0  0  0  0  0  0  0  0
   49.7650    2.4050   -9.3980 C   0  0  0  0  0  0  0  0  0  0  0  0
   48.9710    1.2920   -8.9670 O   0  0  0  0  0  0  0  0  0  0  0  0
   49.5030    3.4380   -8.5800 N   0  0  0  0  0  0  0  0  0  0  0  0
   48.4580    3.1390   -7.6190 C   0  0  0  0  0  0  0  0  0  0  0  0
   47.9970    1.7310   -8.0280 C   0  0  0  0  0  0  0  0  0  0  0  0
   48.0490    0.7240   -6.8730 C   0  0  0  0  0  0  0  0  0  0  0  0
   46.6100    1.7270   -8.6360 C   0  0  0  0  0  0  0  0  0  0  0  0
   45.5100    2.1740   -7.8950 C   0  0  0  0  0  0  0  0  0  0  0  0
   44.2280    2.1600   -8.4410 C   0  0  0  0  0  0  0  0  0  0  0  0
   44.0260    1.6590   -9.7300 C   0  0  0  0  0  0  0  0  0  0  0  0
   42.7850    1.6190  -10.3080 O   0  0  0  0  0  0  0  0  0  0  0  0
   41.5840    2.1170   -9.7040 C   0  0  0  0  0  0  0  0  0  0  0  0
   45.1160    1.2070  -10.4870 C   0  0  0  0  0  0  0  0  0  0  0  0
   46.3930    1.2410   -9.9260 C   0  0  0  0  0  0  0  0  0  0  0  0
   44.8880    0.7470  -11.7810 O   0  0  0  0  0  0  0  0  0  0  0  0
   45.9050    0.1950  -12.6180 C   0  0  0  0  0  0  0  0  0  0  0  0
   45.3630    0.0630  -14.0400 C   0  0  0  0  0  0  0  0  0  0  0  0
   45.1150    1.4450  -14.5960 C   0  0  0  0  0  0  0  0  0  0  0  0
   49.9909    4.3437   -8.6297 H   0  0  0  0  0  0  0  0  0  0  0  0
   48.8535    3.1419   -6.5926 H   0  0  0  0  0  0  0  0  0  0  0  0
   47.6432    3.8780   -7.6239 H   0  0  0  0  0  0  0  0  0  0  0  0
   48.0211    1.2634   -5.9147 H   0  0  0  0  0  0  0  0  0  0  0  0
   47.1846    0.0468   -6.9378 H   0  0  0  0  0  0  0  0  0  0  0  0
   48.9785    0.1394   -6.9378 H   0  0  0  0  0  0  0  0  0  0  0  0
   45.6593    2.5409   -6.8688 H   0  0  0  0  0  0  0  0  0  0  0  0
   43.3768    2.5425   -7.8587 H   0  0  0  0  0  0  0  0  0  0  0  0
   41.6804    2.0770   -8.6090 H   0  0  0  0  0  0  0  0  0  0  0  0
   41.4190    3.1577  -10.0198 H   0  0  0  0  0  0  0  0  0  0  0  0
   40.7310    1.4984  -10.0198 H   0  0  0  0  0  0  0  0  0  0  0  0
   47.2482    0.8764  -10.5139 H   0  0  0  0  0  0  0  0  0  0  0  0
   46.7825    0.8583  -12.6181 H   0  0  0  0  0  0  0  0  0  0  0  0
   46.2001   -0.7949  -12.2399 H   0  0  0  0  0  0  0  0  0  0  0  0
   46.0974   -0.4621  -14.6684 H   0  0  0  0  0  0  0  0  0  0  0  0
   44.4243   -0.5103  -14.0307 H   0  0  0  0  0  0  0  0  0  0  0  0
   44.9873    2.1564  -13.7668 H   0  0  0  0  0  0  0  0  0  0  0  0
   45.9725    1.7513  -15.2131 H   0  0  0  0  0  0  0  0  0  0  0  0
   44.2045    1.4340  -15.2131 H   0  0  0  0  0  0  0  0  0  0  0  0
  1  2  2  0
  2  3  1  0
  2  4  1  0
  3  6  1  0
  4  5  1  0
  5  6  1  0
  6  7  1  0
  6  8  1  0
  8  9  2  0
  8 15  1  0
  9 10  1  0
 10 11  2  0
 11 12  1  0
 11 14  1  0
 12 13  1  0
 14 15  2  0
 14 16  1  0
 16 17  1  0
 17 18  1  0
 18 19  1  0
  4 20  1  0
  5 21  1  0
  5 22  1  0
  7 23  1  0
  7 24  1  0
  7 25  1  0
  9 26  1  0
 10 27  1  0
 13 28  1  0
 13 29  1  0
 13 30  1  0
 15 31  1  0
 17 32  1  0
 17 33  1  0
 18 34  1  0
 18 35  1  0
 19 36  1  0
 19 37  1  0
 19 38  1  0
A    1
O19
A    2
C4
A    3
O5
A    4
N3
A    5
C2
A    6
C1
A    7
C18
A    8
C6
A    9
C7
A   10
C8
A   11
C9
A   12
O10
A   13
C11
A   14
C12
A   15
C17
A   16
O13
A   17
C14
A   18
C15
A   19
C16
M  END
