1XMU_ROF_A_101
     RDKit          3D

 40 42  0  0  0  0  0  0  0  0999 V2000
    4.4280    0.3650   41.8850 O   0  0  0  0  0  0  0  0  0  0  0  0
    2.3910   -0.5140   35.5470 C   0  0  0  0  0  0  0  0  0  0  0  0
    1.0160    0.1900   35.6830 C   0  0  0  0  0  0  0  0  0  0  0  0
    1.4290   -0.8940   36.6280 C   0  0  0  0  0  0  0  0  0  0  0  0
    3.5200    0.7620   42.5870 C   0  0  0  0  0  0  0  0  0  0  0  0
    2.1230    0.7120   42.0010 C   0  0  0  0  0  0  0  0  0  0  0  0
    0.9830    1.0520   42.7430 C   0  0  0  0  0  0  0  0  0  0  0  0
   -0.2920    1.0000   42.1920 C   0  0  0  0  0  0  0  0  0  0  0  0
   -0.4750    0.5980   40.8680 C   0  0  0  0  0  0  0  0  0  0  0  0
   -1.7080    0.5380   40.2430 O   0  0  0  0  0  0  0  0  0  0  0  0
   -2.9620    0.7270   40.8870 C   0  0  0  0  0  0  0  0  0  0  0  0
   -3.0240   -0.1500   41.9380 F   0  0  0  0  0  0  0  0  0  0  0  0
   -3.0500    2.0240   41.3060 F   0  0  0  0  0  0  0  0  0  0  0  0
    0.7300    0.2320   40.0710 C   0  0  0  0  0  0  0  0  0  0  0  0
    0.5840   -0.1420   38.7530 O   0  0  0  0  0  0  0  0  0  0  0  0
    1.4790   -1.0570   38.1150 C   0  0  0  0  0  0  0  0  0  0  0  0
    1.9840    0.3080   40.6860 C   0  0  0  0  0  0  0  0  0  0  0  0
    3.7290    1.2440   43.8220 N   0  0  0  0  0  0  0  0  0  0  0  0
    4.9740    1.3930   44.3390 C   0  0  0  0  0  0  0  0  0  0  0  0
    6.0470    2.2670   43.7880 C   0  0  0  0  0  0  0  0  0  0  0  0
    5.7890    3.2470   42.4060 Cl  0  0  0  0  0  0  0  0  0  0  0  0
    7.2800    2.3210   44.4270 C   0  0  0  0  0  0  0  0  0  0  0  0
    7.5270    1.6060   45.5450 N   0  0  0  0  0  0  0  0  0  0  0  0
    6.6240    0.7910   46.1170 C   0  0  0  0  0  0  0  0  0  0  0  0
    5.3540    0.6450   45.5710 C   0  0  0  0  0  0  0  0  0  0  0  0
    4.2390   -0.4060   46.3360 Cl  0  0  0  0  0  0  0  0  0  0  0  0
    2.5807   -1.2004   34.7087 H   0  0  0  0  0  0  0  0  0  0  0  0
    3.4403   -0.1862   35.5098 H   0  0  0  0  0  0  0  0  0  0  0  0
    0.9601    1.2331   36.0278 H   0  0  0  0  0  0  0  0  0  0  0  0
    0.1564    0.3680   35.0202 H   0  0  0  0  0  0  0  0  0  0  0  0
    0.9985   -1.8290   37.0158 H   0  0  0  0  0  0  0  0  0  0  0  0
    1.1009    1.3686   43.7898 H   0  0  0  0  0  0  0  0  0  0  0  0
   -1.1630    1.2776   42.8038 H   0  0  0  0  0  0  0  0  0  0  0  0
   -3.8058    0.5339   40.2082 H   0  0  0  0  0  0  0  0  0  0  0  0
    1.1902   -2.0859   38.3756 H   0  0  0  0  0  0  0  0  0  0  0  0
    2.5028   -0.8497   38.4598 H   0  0  0  0  0  0  0  0  0  0  0  0
    2.8815    0.0398   40.1094 H   0  0  0  0  0  0  0  0  0  0  0  0
    2.9165    1.5097   44.3966 H   0  0  0  0  0  0  0  0  0  0  0  0
    8.0727    2.9610   44.0122 H   0  0  0  0  0  0  0  0  0  0  0  0
    6.8928    0.2338   47.0266 H   0  0  0  0  0  0  0  0  0  0  0  0
  1  5  2  0
  2  3  1  0
  2  4  1  0
  3  4  1  0
  4 16  1  0
  5  6  1  0
  5 18  1  0
  6  7  2  0
  6 17  1  0
  7  8  1  0
  8  9  2  0
  9 10  1  0
  9 14  1  0
 10 11  1  0
 11 12  1  0
 11 13  1  0
 14 15  1  0
 14 17  2  0
 15 16  1  0
 18 19  1  0
 19 20  2  0
 19 25  1  0
 20 21  1  0
 20 22  1  0
 22 23  2  0
 23 24  1  0
 24 25  2  0
 25 26  1  0
  2 27  1  0
  2 28  1  0
  3 29  1  0
  3 30  1  0
  4 31  1  0
  7 32  1  0
  8 33  1  0
 11 34  1  0
 16 35  1  0
 16 36  1  0
 17 37  1  0
 18 38  1  0
 22 39  1  0
 24 40  1  0
A    1
O24
A    2
C23
A    3
C22
A    4
C21
A    5
C8
A    6
C9
A    7
C10
A    8
C11
A    9
C12
A   10
O15
A   11
C16
A   12
F18
A   13
F17
A   14
C13
A   15
O19
A   16
C20
A   17
C14
A   18
N7
A   19
C6
A   20
C5
A   21
CL26
A   22
C4
A   23
N3
A   24
C2
A   25
C1
A   26
CL25
M  END
