1XM4_PIL_A_1003
     RDKit          3D

 43 45  0  0  0  0  0  0  0  0999 V2000
   84.2230    4.1420   62.1940 Cl  0  0  0  0  0  0  0  0  0  0  0  0
   83.7590    3.1500   60.8640 C   0  0  0  0  0  0  0  0  0  0  0  0
   82.4610    3.2340   60.4140 C   0  0  0  0  0  0  0  0  0  0  0  0
   82.1200    2.4890   59.3530 N   0  0  0  0  0  0  0  0  0  0  0  0
   83.0170    1.6920   58.7430 C   0  0  0  0  0  0  0  0  0  0  0  0
   84.3220    1.6080   59.2090 C   0  0  0  0  0  0  0  0  0  0  0  0
   85.4620    0.5040   58.4430 Cl  0  0  0  0  0  0  0  0  0  0  0  0
   84.7170    2.3150   60.3070 C   0  0  0  0  0  0  0  0  0  0  0  0
   86.0210    2.2750   60.8080 N   0  0  0  0  0  0  0  0  0  0  0  0
   86.2890    1.8620   62.0590 C   0  0  0  0  0  0  0  0  0  0  0  0
   85.4190    1.5040   62.8300 O   0  0  0  0  0  0  0  0  0  0  0  0
   87.6950    1.9120   62.5860 C   0  0  0  0  0  0  0  0  0  0  0  0
   88.7810    2.2920   61.7990 C   0  0  0  0  0  0  0  0  0  0  0  0
   90.0540    2.3500   62.3450 C   0  0  0  0  0  0  0  0  0  0  0  0
   90.2810    2.0350   63.6840 C   0  0  0  0  0  0  0  0  0  0  0  0
   91.5310    2.0800   64.3100 O   0  0  0  0  0  0  0  0  0  0  0  0
   92.7290    2.3910   63.5910 C   0  0  0  0  0  0  0  0  0  0  0  0
   89.2070    1.6580   64.4510 C   0  0  0  0  0  0  0  0  0  0  0  0
   87.9190    1.5910   63.9060 C   0  0  0  0  0  0  0  0  0  0  0  0
   89.4720    1.3550   65.7500 O   0  0  0  0  0  0  0  0  0  0  0  0
   88.4730    0.7980   66.6020 C   0  0  0  0  0  0  0  0  0  0  0  0
   87.4590    1.8730   66.9680 C   0  0  0  0  0  0  0  0  0  0  0  0
   87.9550    2.4290   68.2830 C   0  0  0  0  0  0  0  0  0  0  0  0
   88.6440    1.2750   68.9620 C   0  0  0  0  0  0  0  0  0  0  0  0
   89.1190    0.3490   67.8870 C   0  0  0  0  0  0  0  0  0  0  0  0
   81.7288    3.8897   60.9079 H   0  0  0  0  0  0  0  0  0  0  0  0
   82.7129    1.1012   57.8663 H   0  0  0  0  0  0  0  0  0  0  0  0
   86.7992    2.5704   60.2013 H   0  0  0  0  0  0  0  0  0  0  0  0
   88.6272    2.5470   60.7401 H   0  0  0  0  0  0  0  0  0  0  0  0
   90.9006    2.6501   61.7100 H   0  0  0  0  0  0  0  0  0  0  0  0
   93.5401    2.6016   64.3036 H   0  0  0  0  0  0  0  0  0  0  0  0
   93.0094    1.5359   62.9584 H   0  0  0  0  0  0  0  0  0  0  0  0
   92.5581    3.2745   62.9584 H   0  0  0  0  0  0  0  0  0  0  0  0
   87.0762    1.2782   64.5399 H   0  0  0  0  0  0  0  0  0  0  0  0
   87.9869   -0.0403   66.0815 H   0  0  0  0  0  0  0  0  0  0  0  0
   87.4312    2.6592   66.1992 H   0  0  0  0  0  0  0  0  0  0  0  0
   86.4359    1.4755   67.0412 H   0  0  0  0  0  0  0  0  0  0  0  0
   88.6620    3.2540   68.1113 H   0  0  0  0  0  0  0  0  0  0  0  0
   87.1357    2.8367   68.8933 H   0  0  0  0  0  0  0  0  0  0  0  0
   89.4990    1.6397   69.5502 H   0  0  0  0  0  0  0  0  0  0  0  0
   87.9562    0.7578   69.6471 H   0  0  0  0  0  0  0  0  0  0  0  0
   88.8205   -0.6840   68.1191 H   0  0  0  0  0  0  0  0  0  0  0  0
   90.2156    0.3729   67.8044 H   0  0  0  0  0  0  0  0  0  0  0  0
  1  2  1  0
  2  3  2  0
  2  8  1  0
  3  4  1  0
  4  5  2  0
  5  6  1  0
  6  7  1  0
  6  8  2  0
  8  9  1  0
  9 10  1  0
 10 11  2  0
 10 12  1  0
 12 13  2  0
 12 19  1  0
 13 14  1  0
 14 15  2  0
 15 16  1  0
 15 18  1  0
 16 17  1  0
 18 19  2  0
 18 20  1  0
 20 21  1  0
 21 22  1  0
 21 25  1  0
 22 23  1  0
 23 24  1  0
 24 25  1  0
  3 26  1  0
  5 27  1  0
  9 28  1  0
 13 29  1  0
 14 30  1  0
 17 31  1  0
 17 32  1  0
 17 33  1  0
 19 34  1  0
 21 35  1  0
 22 36  1  0
 22 37  1  0
 23 38  1  0
 23 39  1  0
 24 40  1  0
 24 41  1  0
 25 42  1  0
 25 43  1  0
A    1
CL25
A    2
C24
A    3
C23
A    4
N22
A    5
C21
A    6
C19
A    7
CL20
A    8
C18
A    9
N16
A   10
C15
A   11
O17
A   12
C14
A   13
C13
A   14
C12
A   15
C9
A   16
O10
A   17
C11
A   18
C2
A   19
C1
A   20
O3
A   21
C4
A   22
C5
A   23
C6
A   24
C7
A   25
C8
M  END
