1MKD_ZAR_A_3001
     RDKit          3D

 29 30  0  0  0  0  0  0  0  0999 V2000
   44.2410    5.3070  116.0970 O   0  0  0  0  0  0  0  0  0  0  0  0
   44.3400    5.5750  117.2810 C   0  0  0  0  0  0  0  0  0  0  0  0
   44.4200    4.5560  118.2300 N   0  0  0  0  0  0  0  0  0  0  0  0
   44.5350    4.8710  119.5950 N   0  0  0  0  0  0  0  0  0  0  0  0
   44.5750    6.0820  120.0540 C   0  0  0  0  0  0  0  0  0  0  0  0
   44.4910    7.2210  119.0520 C   0  0  0  0  0  0  0  0  0  0  0  0
   44.3770    7.0080  117.7210 C   0  0  0  0  0  0  0  0  0  0  0  0
   44.6910    6.2460  121.4060 C   0  0  0  0  0  0  0  0  0  0  0  0
   44.7530    5.1070  122.2860 C   0  0  0  0  0  0  0  0  0  0  0  0
   44.8750    5.2540  123.7050 C   0  0  0  0  0  0  0  0  0  0  0  0
   44.9380    6.5610  124.2820 C   0  0  0  0  0  0  0  0  0  0  0  0
   44.8770    7.7010  123.4130 C   0  0  0  0  0  0  0  0  0  0  0  0
   44.7530    7.5400  122.0140 C   0  0  0  0  0  0  0  0  0  0  0  0
   45.1660    7.7870  126.5070 C   0  0  0  0  0  0  0  0  0  0  0  0
   45.0640    6.6480  125.6510 O   0  0  0  0  0  0  0  0  0  0  0  0
   46.3110    8.5220  126.1970 F   0  0  0  0  0  0  0  0  0  0  0  0
   44.0770    8.6300  126.3890 F   0  0  0  0  0  0  0  0  0  0  0  0
   44.9340    4.1790  124.5490 O   0  0  0  0  0  0  0  0  0  0  0  0
   44.8910    2.7960  124.2100 C   0  0  0  0  0  0  0  0  0  0  0  0
   44.3948    3.5710  117.9300 H   0  0  0  0  0  0  0  0  0  0  0  0
   44.5241    8.2563  119.4223 H   0  0  0  0  0  0  0  0  0  0  0  0
   44.3150    7.8386  117.0025 H   0  0  0  0  0  0  0  0  0  0  0  0
   44.7053    4.0958  121.8556 H   0  0  0  0  0  0  0  0  0  0  0  0
   44.9274    8.7132  123.8408 H   0  0  0  0  0  0  0  0  0  0  0  0
   44.7028    8.4341  121.3751 H   0  0  0  0  0  0  0  0  0  0  0  0
   45.2100    7.4019  127.5364 H   0  0  0  0  0  0  0  0  0  0  0  0
   44.8723    2.1934  125.1300 H   0  0  0  0  0  0  0  0  0  0  0  0
   43.9861    2.5913  123.6191 H   0  0  0  0  0  0  0  0  0  0  0  0
   45.7815    2.5355  123.6191 H   0  0  0  0  0  0  0  0  0  0  0  0
  1  2  2  0
  2  3  1  0
  2  7  1  0
  3  4  1  0
  4  5  2  0
  5  6  1  0
  5  8  1  0
  6  7  2  0
  8  9  2  0
  8 13  1  0
  9 10  1  0
 10 11  2  0
 10 18  1  0
 11 12  1  0
 11 15  1  0
 12 13  2  0
 14 15  1  0
 14 16  1  0
 14 17  1  0
 18 19  1  0
  3 20  1  0
  6 21  1  0
  7 22  1  0
  9 23  1  0
 12 24  1  0
 13 25  1  0
 14 26  1  0
 19 27  1  0
 19 28  1  0
 19 29  1  0
A    1
O1
A    2
C2
A    3
N3
A    4
N4
A    5
C5
A    6
C6
A    7
C7
A    8
C8
A    9
C9
A   10
C10
A   11
C11
A   12
C12
A   13
C13
A   14
C14
A   15
O15
A   16
F16
A   17
F17
A   18
O18
A   19
C19
M  END
