1XPR_FB_B_2701
     RDKit          3D

 41 42  0  0  0  0  0  0  0  0999 V2000
   -2.4090   -8.0280   33.4120 O   0  0  0  0  0  0  0  0  0  0  0  0
   -3.6100   -8.4360   33.5100 C   0  0  0  0  0  0  0  0  0  0  0  0
   -4.8260   -8.2430   33.3440 C   0  0  0  0  0  0  0  0  0  0  0  0
   -5.9510   -7.6890   33.2500 C   0  0  0  0  0  0  0  0  0  0  0  0
   -5.9300   -6.2010   32.9960 C   0  0  0  0  0  0  0  0  0  0  0  0
   -4.6750   -5.6180   33.3760 O   0  0  0  0  0  0  0  0  0  0  0  0
   -7.0460   -5.7340   33.7970 N   0  0  0  0  0  0  0  0  0  0  0  0
   -8.2670   -5.5590   33.3220 C   0  0  0  0  0  0  0  0  0  0  0  0
   -9.1880   -5.3080   34.0770 O   0  0  0  0  0  0  0  0  0  0  0  0
   -7.2950   -8.4290   33.3140 C   0  0  0  0  0  0  0  0  0  0  0  0
   -8.1100   -8.2600   32.0050 C   0  0  0  0  0  0  0  0  0  0  0  0
   -9.0710   -7.1660   31.9370 O   0  0  0  0  0  0  0  0  0  0  0  0
   -8.4970   -5.8460   31.8470 C   0  0  0  0  0  0  0  0  0  0  0  0
   -7.3240   -6.0990   31.0310 N   0  0  0  0  0  0  0  0  0  0  0  0
   -6.1020   -6.2560   31.4990 C   0  0  0  0  0  0  0  0  0  0  0  0
   -5.1710   -6.5920   30.7810 O   0  0  0  0  0  0  0  0  0  0  0  0
   -9.3680   -4.8490   31.0590 C   0  0  0  0  0  0  0  0  0  0  0  0
   -9.3720   -5.2580   29.6920 O   0  0  0  0  0  0  0  0  0  0  0  0
  -10.8070   -4.6040   31.5390 C   0  0  0  0  0  0  0  0  0  0  0  0
  -11.7980   -4.8330   30.4130 C   0  0  0  0  0  0  0  0  0  0  0  0
  -11.1930   -5.5080   32.5750 O   0  0  0  0  0  0  0  0  0  0  0  0
  -10.9460   -3.1750   32.0500 C   0  0  0  0  0  0  0  0  0  0  0  0
  -11.0400   -2.2660   30.9580 O   0  0  0  0  0  0  0  0  0  0  0  0
   -3.5368   -9.4397   33.9541 H   0  0  0  0  0  0  0  0  0  0  0  0
   -5.1314   -9.2779   33.1304 H   0  0  0  0  0  0  0  0  0  0  0  0
   -4.6106   -5.5881   34.3634 H   0  0  0  0  0  0  0  0  0  0  0  0
   -6.8773   -5.5272   34.7918 H   0  0  0  0  0  0  0  0  0  0  0  0
   -7.1042   -9.4997   33.4786 H   0  0  0  0  0  0  0  0  0  0  0  0
   -7.8820   -7.9999   34.1394 H   0  0  0  0  0  0  0  0  0  0  0  0
   -7.3894   -8.1145   31.1868 H   0  0  0  0  0  0  0  0  0  0  0  0
   -8.7236   -9.1708   31.9422 H   0  0  0  0  0  0  0  0  0  0  0  0
   -7.4561   -6.1604   30.0114 H   0  0  0  0  0  0  0  0  0  0  0  0
   -8.8954   -3.8703   31.2286 H   0  0  0  0  0  0  0  0  0  0  0  0
   -9.3817   -6.2468   29.6434 H   0  0  0  0  0  0  0  0  0  0  0  0
  -12.7873   -5.0616   30.8361 H   0  0  0  0  0  0  0  0  0  0  0  0
  -11.8648   -3.9266   29.7933 H   0  0  0  0  0  0  0  0  0  0  0  0
  -11.4603   -5.6768   29.7933 H   0  0  0  0  0  0  0  0  0  0  0  0
  -11.0163   -5.0942   33.4568 H   0  0  0  0  0  0  0  0  0  0  0  0
  -11.8538   -3.0968   32.6663 H   0  0  0  0  0  0  0  0  0  0  0  0
  -10.0597   -2.9222   32.6504 H   0  0  0  0  0  0  0  0  0  0  0  0
  -11.1354   -1.3433   31.3040 H   0  0  0  0  0  0  0  0  0  0  0  0
  1  2  2  0
  2  3  1  0
  3  4  2  0
  4  5  1  0
  4 10  1  0
  5  6  1  0
  5  7  1  0
  5 15  1  0
  7  8  1  0
  8  9  2  0
  8 13  1  0
 10 11  1  0
 11 12  1  0
 12 13  1  0
 13 14  1  0
 13 17  1  0
 14 15  1  0
 15 16  2  0
 17 18  1  0
 17 19  1  0
 19 20  1  0
 19 21  1  0
 19 22  1  0
 22 23  1  0
  2 24  1  0
  3 25  1  0
  6 26  1  0
  7 27  1  0
 10 28  1  0
 10 29  1  0
 11 30  1  0
 11 31  1  0
 14 32  1  0
 17 33  1  0
 18 34  1  0
 20 35  1  0
 20 36  1  0
 20 37  1  0
 21 38  1  0
 22 39  1  0
 22 40  1  0
 23 41  1  0
A    1
O12
A    2
C12
A    3
C5A
A    4
C5
A    5
C6
A    6
O6
A    7
N10
A    8
C9
A    9
O9
A   10
C4
A   11
C3
A   12
O2
A   13
C1
A   14
N8
A   15
C7
A   16
O7
A   17
C1A
A   18
O1A
A   19
C2A
A   20
C2B
A   21
O2A
A   22
C3A
A   23
O3A
M  END
