1XQC_AEJ_A_1001
     RDKit          3D

 66 71  0  0  0  0  0  0  0  0999 V2000
   18.8540   -0.1960   39.2410 O   0  0  0  0  0  0  0  0  0  0  0  0
   17.6290    0.0460   38.5970 C   0  0  0  0  0  0  0  0  0  0  0  0
   16.5280    0.5650   39.2780 C   0  0  0  0  0  0  0  0  0  0  0  0
   15.3320    0.8090   38.5640 C   0  0  0  0  0  0  0  0  0  0  0  0
   15.2680    0.5430   37.2000 C   0  0  0  0  0  0  0  0  0  0  0  0
   16.3690    0.0200   36.5750 C   0  0  0  0  0  0  0  0  0  0  0  0
   17.5450   -0.2360   37.2650 C   0  0  0  0  0  0  0  0  0  0  0  0
   14.0460    0.7780   36.3970 C   0  0  0  0  0  0  0  0  0  0  0  0
   14.0520    0.5680   34.9440 N   0  0  0  0  0  0  0  0  0  0  0  0
   12.8780    0.7390   34.1870 C   0  0  0  0  0  0  0  0  0  0  0  0
   11.6290    0.3610   34.6890 C   0  0  0  0  0  0  0  0  0  0  0  0
   10.4470    0.5970   33.9230 C   0  0  0  0  0  0  0  0  0  0  0  0
   10.5000    1.2140   32.6800 C   0  0  0  0  0  0  0  0  0  0  0  0
   11.7330    1.6120   32.1640 C   0  0  0  0  0  0  0  0  0  0  0  0
   12.8990    1.3850   32.9160 C   0  0  0  0  0  0  0  0  0  0  0  0
   15.0810   -0.2110   34.3390 C   0  0  0  0  0  0  0  0  0  0  0  0
   16.3700   -0.3080   35.1340 C   0  0  0  0  0  0  0  0  0  0  0  0
   13.9360    2.2900   36.5180 C   0  0  0  0  0  0  0  0  0  0  0  0
   14.9480    3.1820   36.1900 C   0  0  0  0  0  0  0  0  0  0  0  0
   14.7820    4.5700   36.3210 C   0  0  0  0  0  0  0  0  0  0  0  0
   13.5790    5.1390   36.7930 C   0  0  0  0  0  0  0  0  0  0  0  0
   12.6020    4.2140   37.1090 C   0  0  0  0  0  0  0  0  0  0  0  0
   12.7650    2.8330   36.9690 C   0  0  0  0  0  0  0  0  0  0  0  0
   13.3830    6.4520   36.9550 N   0  0  0  0  0  0  0  0  0  0  0  0
   12.0810    6.9150   37.4730 C   0  0  0  0  0  0  0  0  0  0  0  0
   11.8740    8.4370   37.4610 C   0  0  0  0  0  0  0  0  0  0  0  0
   13.0200    9.2050   37.9430 N   0  0  0  0  0  0  0  0  0  0  0  0
   14.2240    8.7620   37.2280 C   0  0  0  0  0  0  0  0  0  0  0  0
   14.4790    7.2890   37.4700 C   0  0  0  0  0  0  0  0  0  0  0  0
   15.3990    9.6160   37.7570 C   0  0  0  0  0  0  0  0  0  0  0  0
   15.0860   11.1190   37.6320 C   0  0  0  0  0  0  0  0  0  0  0  0
   13.7650   11.5030   38.3340 C   0  0  0  0  0  0  0  0  0  0  0  0
   12.7280   10.6250   37.6050 C   0  0  0  0  0  0  0  0  0  0  0  0
   18.9001   -0.2051   40.2299 H   0  0  0  0  0  0  0  0  0  0  0  0
   16.5891    0.7814   40.3548 H   0  0  0  0  0  0  0  0  0  0  0  0
   14.4514    1.2095   39.0876 H   0  0  0  0  0  0  0  0  0  0  0  0
   18.4095   -0.6663   36.7382 H   0  0  0  0  0  0  0  0  0  0  0  0
   13.2821    0.0791   36.7684 H   0  0  0  0  0  0  0  0  0  0  0  0
   11.5566   -0.1192   35.6760 H   0  0  0  0  0  0  0  0  0  0  0  0
    9.4730    0.2831   34.3265 H   0  0  0  0  0  0  0  0  0  0  0  0
    9.5771    1.3874   32.1072 H   0  0  0  0  0  0  0  0  0  0  0  0
   11.7926    2.0983   31.1792 H   0  0  0  0  0  0  0  0  0  0  0  0
   13.8646    1.7186   32.5082 H   0  0  0  0  0  0  0  0  0  0  0  0
   14.6943   -1.2303   34.1920 H   0  0  0  0  0  0  0  0  0  0  0  0
   15.3392    0.3007   33.4001 H   0  0  0  0  0  0  0  0  0  0  0  0
   17.0925    0.3682   34.6536 H   0  0  0  0  0  0  0  0  0  0  0  0
   16.6008   -1.3834   35.1167 H   0  0  0  0  0  0  0  0  0  0  0  0
   15.9061    2.7906   35.8173 H   0  0  0  0  0  0  0  0  0  0  0  0
   15.6147    5.2346   36.0475 H   0  0  0  0  0  0  0  0  0  0  0  0
   11.6407    4.5861   37.4928 H   0  0  0  0  0  0  0  0  0  0  0  0
   11.9298    2.1658   37.2283 H   0  0  0  0  0  0  0  0  0  0  0  0
   11.2897    6.4595   36.8596 H   0  0  0  0  0  0  0  0  0  0  0  0
   12.0486    6.6117   38.5299 H   0  0  0  0  0  0  0  0  0  0  0  0
   11.6619    8.7474   36.4272 H   0  0  0  0  0  0  0  0  0  0  0  0
   11.0428    8.6466   38.1503 H   0  0  0  0  0  0  0  0  0  0  0  0
   14.1047    8.8922   36.1423 H   0  0  0  0  0  0  0  0  0  0  0  0
   14.5791    7.1182   38.5520 H   0  0  0  0  0  0  0  0  0  0  0  0
   15.4007    7.0100   36.9384 H   0  0  0  0  0  0  0  0  0  0  0  0
   15.5743    9.3714   38.8150 H   0  0  0  0  0  0  0  0  0  0  0  0
   16.2938    9.3923   37.1576 H   0  0  0  0  0  0  0  0  0  0  0  0
   15.9079   11.6906   38.0878 H   0  0  0  0  0  0  0  0  0  0  0  0
   14.9790   11.3526   36.5624 H   0  0  0  0  0  0  0  0  0  0  0  0
   13.8021   11.2651   39.4073 H   0  0  0  0  0  0  0  0  0  0  0  0
   13.5398   12.5785   38.2836 H   0  0  0  0  0  0  0  0  0  0  0  0
   12.8075   10.7754   36.5182 H   0  0  0  0  0  0  0  0  0  0  0  0
   11.7080   10.8936   37.9173 H   0  0  0  0  0  0  0  0  0  0  0  0
  1  2  1  0
  2  3  2  0
  2  7  1  0
  3  4  1  0
  4  5  2  0
  5  6  1  0
  5  8  1  0
  6  7  2  0
  6 17  1  0
  8  9  1  0
  8 18  1  0
  9 10  1  0
  9 16  1  0
 10 11  2  0
 10 15  1  0
 11 12  1  0
 12 13  2  0
 13 14  1  0
 14 15  2  0
 16 17  1  0
 18 19  2  0
 18 23  1  0
 19 20  1  0
 20 21  2  0
 21 22  1  0
 21 24  1  0
 22 23  2  0
 24 25  1  0
 24 29  1  0
 25 26  1  0
 26 27  1  0
 27 28  1  0
 27 33  1  0
 28 29  1  0
 28 30  1  0
 30 31  1  0
 31 32  1  0
 32 33  1  0
  1 34  1  0
  3 35  1  0
  4 36  1  0
  7 37  1  0
  8 38  1  0
 11 39  1  0
 12 40  1  0
 13 41  1  0
 14 42  1  0
 15 43  1  0
 16 44  1  0
 16 45  1  0
 17 46  1  0
 17 47  1  0
 19 48  1  0
 20 49  1  0
 22 50  1  0
 23 51  1  0
 25 52  1  0
 25 53  1  0
 26 54  1  0
 26 55  1  0
 28 56  1  0
 29 57  1  0
 29 58  1  0
 30 59  1  0
 30 60  1  0
 31 61  1  0
 31 62  1  0
 32 63  1  0
 32 64  1  0
 33 65  1  0
 33 66  1  0
A    1
O42
A    2
C39
A    3
C37
A    4
C35
A    5
C34
A    6
C33
A    7
C40
A    8
C24
A    9
N26
A   10
C44
A   11
C45
A   12
C47
A   13
C49
A   14
C51
A   15
C53
A   16
C27
A   17
C30
A   18
C19
A   19
C20
A   20
C22
A   21
C14
A   22
C15
A   23
C17
A   24
N7
A   25
C8
A   26
C11
A   27
N1
A   28
C2
A   29
C4
A   30
C55
A   31
C58
A   32
C61
A   33
C64
M  END
