1AER_AMP_B_701
     RDKit          3D

 37 39  0  0  0  0  0  0  0  0999 V2000
   23.9570   82.7410    8.5490 P   0  0  0  0  0  0  0  0  0  0  0  0
   24.6280   81.7810    9.5350 O   0  0  0  0  0  0  0  0  0  0  0  0
   23.6460   82.2170    7.1140 O   0  0  0  0  0  0  0  0  0  0  0  0
   22.7340   83.7980    9.2860 O   0  0  0  0  0  0  0  0  0  0  0  0
   25.2210   83.7700    8.0620 O   0  0  0  0  0  0  0  0  0  0  0  0
   25.2280   84.5420    6.7740 C   0  0  0  0  0  0  0  0  0  0  0  0
   24.8790   86.0410    6.8770 C   0  0  0  0  0  0  0  0  0  0  0  0
   25.8440   86.7530    7.7200 O   0  0  0  0  0  0  0  0  0  0  0  0
   25.1160   86.7560    5.5640 C   0  0  0  0  0  0  0  0  0  0  0  0
   24.5550   88.1190    5.5730 O   0  0  0  0  0  0  0  0  0  0  0  0
   26.6520   86.9040    5.5980 C   0  0  0  0  0  0  0  0  0  0  0  0
   26.8650   87.9120    4.5980 O   0  0  0  0  0  0  0  0  0  0  0  0
   26.8700   87.5030    6.9660 C   0  0  0  0  0  0  0  0  0  0  0  0
   28.2710   87.3920    7.4950 N   0  0  0  0  0  0  0  0  0  0  0  0
   28.9090   88.2510    8.2880 C   0  0  0  0  0  0  0  0  0  0  0  0
   30.1070   87.7870    8.5600 N   0  0  0  0  0  0  0  0  0  0  0  0
   30.1710   86.5890    7.9220 C   0  0  0  0  0  0  0  0  0  0  0  0
   31.2570   85.6910    7.7920 C   0  0  0  0  0  0  0  0  0  0  0  0
   32.4110   85.9170    8.4540 N   0  0  0  0  0  0  0  0  0  0  0  0
   31.1110   84.5610    7.0560 N   0  0  0  0  0  0  0  0  0  0  0  0
   29.9640   84.2410    6.4780 C   0  0  0  0  0  0  0  0  0  0  0  0
   28.9510   85.1190    6.5450 N   0  0  0  0  0  0  0  0  0  0  0  0
   29.0310   86.3080    7.2450 C   0  0  0  0  0  0  0  0  0  0  0  0
   23.1417   81.3673    7.1751 H   0  0  0  0  0  0  0  0  0  0  0  0
   22.7998   83.7411   10.2722 H   0  0  0  0  0  0  0  0  0  0  0  0
   26.2353   84.4610    6.3395 H   0  0  0  0  0  0  0  0  0  0  0  0
   24.4325   84.0960    6.1589 H   0  0  0  0  0  0  0  0  0  0  0  0
   23.8392   86.0547    7.2356 H   0  0  0  0  0  0  0  0  0  0  0  0
   24.6762   86.2295    4.7041 H   0  0  0  0  0  0  0  0  0  0  0  0
   24.4316   88.4189    6.5084 H   0  0  0  0  0  0  0  0  0  0  0  0
   27.2756   86.0134    5.4312 H   0  0  0  0  0  0  0  0  0  0  0  0
   27.0484   88.7797    5.0379 H   0  0  0  0  0  0  0  0  0  0  0  0
   26.7647   88.5968    7.0151 H   0  0  0  0  0  0  0  0  0  0  0  0
   28.4966   89.2014    8.6577 H   0  0  0  0  0  0  0  0  0  0  0  0
   32.4220   85.9191    9.4839 H   0  0  0  0  0  0  0  0  0  0  0  0
   33.2808   86.0873    7.9293 H   0  0  0  0  0  0  0  0  0  0  0  0
   29.8441   83.2801    5.9561 H   0  0  0  0  0  0  0  0  0  0  0  0
  1  2  2  0
  1  3  1  0
  1  4  1  0
  1  5  1  0
  5  6  1  0
  6  7  1  0
  7  8  1  0
  7  9  1  0
  8 13  1  0
  9 10  1  0
  9 11  1  0
 11 12  1  0
 11 13  1  0
 13 14  1  0
 14 15  1  0
 14 23  1  0
 15 16  2  0
 16 17  1  0
 17 18  1  0
 17 23  2  0
 18 19  1  0
 18 20  2  0
 20 21  1  0
 21 22  2  0
 22 23  1  0
  3 24  1  0
  4 25  1  0
  6 26  1  0
  6 27  1  0
  7 28  1  0
  9 29  1  0
 10 30  1  0
 11 31  1  0
 12 32  1  0
 13 33  1  0
 15 34  1  0
 19 35  1  0
 19 36  1  0
 21 37  1  0
A    1
P
A    2
O1P
A    3
O2P
A    4
O3P
A    5
O5'
A    6
C5'
A    7
C4'
A    8
O4'
A    9
C3'
A   10
O3'
A   11
C2'
A   12
O2'
A   13
C1'
A   14
N9
A   15
C8
A   16
N7
A   17
C5
A   18
C6
A   19
N6
A   20
N1
A   21
C2
A   22
N3
A   23
C4
M  END
