1XQX_PCS_A_300
     RDKit          3D

 25 25  0  0  0  0  0  0  0  0999 V2000
   15.1170    9.2400    9.5640 N   0  0  0  0  0  0  0  0  0  0  0  0
   14.5130    8.0570    8.8860 C   0  0  0  0  0  0  0  0  0  0  0  0
   14.6940    6.7840    9.7000 C   0  0  0  0  0  0  0  0  0  0  0  0
   15.1460    7.8840    7.5150 C   0  0  0  0  0  0  0  0  0  0  0  0
   15.7860    6.2190    9.6700 O   0  0  0  0  0  0  0  0  0  0  0  0
   17.5560    7.5530    8.1210 C   0  0  0  0  0  0  0  0  0  0  0  0
   16.5790    8.3030    7.4710 C   0  0  0  0  0  0  0  0  0  0  0  0
   16.9440    9.4830    6.8330 C   0  0  0  0  0  0  0  0  0  0  0  0
   18.2690    9.9140    6.8520 C   0  0  0  0  0  0  0  0  0  0  0  0
   19.2440    9.1550    7.5130 C   0  0  0  0  0  0  0  0  0  0  0  0
   18.8860    7.9760    8.1460 C   0  0  0  0  0  0  0  0  0  0  0  0
   13.4230    6.9880   10.5020 C   0  0  0  0  0  0  0  0  0  0  0  0
   11.7910    6.3500   10.2290 Cl  0  0  0  0  0  0  0  0  0  0  0  0
   15.0553    9.1191   10.5850 H   0  0  0  0  0  0  0  0  0  0  0  0
   16.1054    9.3265    9.2876 H   0  0  0  0  0  0  0  0  0  0  0  0
   13.4326    8.2374    8.7854 H   0  0  0  0  0  0  0  0  0  0  0  0
   15.0833    6.8228    7.2325 H   0  0  0  0  0  0  0  0  0  0  0  0
   14.5948    8.5310    6.8167 H   0  0  0  0  0  0  0  0  0  0  0  0
   17.2758    6.6144    8.6216 H   0  0  0  0  0  0  0  0  0  0  0  0
   16.1823   10.0800    6.3101 H   0  0  0  0  0  0  0  0  0  0  0  0
   18.5497   10.8505    6.3479 H   0  0  0  0  0  0  0  0  0  0  0  0
   20.2902    9.4943    7.5292 H   0  0  0  0  0  0  0  0  0  0  0  0
   19.6468    7.3755    8.6663 H   0  0  0  0  0  0  0  0  0  0  0  0
   13.6831    6.6380   11.5118 H   0  0  0  0  0  0  0  0  0  0  0  0
   13.2257    8.0274   10.2010 H   0  0  0  0  0  0  0  0  0  0  0  0
  1  2  1  0
  2  3  1  0
  2  4  1  0
  3  5  2  0
  3 12  1  0
  4  7  1  0
  6  7  2  0
  6 11  1  0
  7  8  1  0
  8  9  2  0
  9 10  1  0
 10 11  2  0
 12 13  1  0
  1 14  1  0
  1 15  1  0
  2 16  1  0
  4 17  1  0
  4 18  1  0
  6 19  1  0
  8 20  1  0
  9 21  1  0
 10 22  1  0
 11 23  1  0
 12 24  1  0
 12 25  1  0
A    1
N
A    2
CA
A    3
C
A    4
CB
A    5
O
A    6
CD1
A    7
CG
A    8
CD2
A    9
CE2
A   10
CZ
A   11
CE1
A   12
CT
A   13
CL1
M  END
