1XUD_PB4_A_2001
     RDKit          3D

 50 52  0  0  0  0  0  0  0  0999 V2000
  -11.6020   27.3320   44.8470 C   0  0  0  0  0  0  0  0  0  0  0  0
  -11.0420   27.9400   45.9640 C   0  0  0  0  0  0  0  0  0  0  0  0
   -9.6600   27.9910   46.0580 C   0  0  0  0  0  0  0  0  0  0  0  0
   -5.8050   27.9660   53.4540 C   0  0  0  0  0  0  0  0  0  0  0  0
  -18.2930   22.1760   44.2470 C   0  0  0  0  0  0  0  0  0  0  0  0
   -9.0580   28.6100   47.2290 C   0  0  0  0  0  0  0  0  0  0  0  0
   -6.9290   28.8230   48.5460 C   0  0  0  0  0  0  0  0  0  0  0  0
   -7.0870   28.0030   49.8160 C   0  0  0  0  0  0  0  0  0  0  0  0
  -13.0640   27.2600   44.7390 C   0  0  0  0  0  0  0  0  0  0  0  0
  -15.0110   26.0620   43.6260 C   0  0  0  0  0  0  0  0  0  0  0  0
  -15.6040   24.9540   44.5050 C   0  0  0  0  0  0  0  0  0  0  0  0
  -16.6340   24.1120   43.9820 C   0  0  0  0  0  0  0  0  0  0  0  0
  -16.7340   22.8610   46.1670 C   0  0  0  0  0  0  0  0  0  0  0  0
   -7.9500   26.8380   49.8460 C   0  0  0  0  0  0  0  0  0  0  0  0
   -8.1200   26.0570   51.0140 C   0  0  0  0  0  0  0  0  0  0  0  0
   -7.4200   26.4240   52.1900 C   0  0  0  0  0  0  0  0  0  0  0  0
   -6.3860   28.3680   51.0050 C   0  0  0  0  0  0  0  0  0  0  0  0
   -8.8310   27.4410   45.0490 N   0  0  0  0  0  0  0  0  0  0  0  0
   -9.3880   26.8280   43.9210 C   0  0  0  0  0  0  0  0  0  0  0  0
  -10.7790   26.7810   43.8380 N   0  0  0  0  0  0  0  0  0  0  0  0
   -7.7200   28.3150   47.3890 N   0  0  0  0  0  0  0  0  0  0  0  0
  -13.5610   26.2960   43.8550 N   0  0  0  0  0  0  0  0  0  0  0  0
  -17.1890   23.0740   44.8160 C   0  0  0  0  0  0  0  0  0  0  0  0
  -15.7070   23.6950   46.6970 C   0  0  0  0  0  0  0  0  0  0  0  0
  -15.1530   24.7270   45.8700 C   0  0  0  0  0  0  0  0  0  0  0  0
   -6.5590   27.5750   52.1790 C   0  0  0  0  0  0  0  0  0  0  0  0
  -13.8830   27.9540   45.3680 O   0  0  0  0  0  0  0  0  0  0  0  0
   -9.6150   29.3170   48.0770 O   0  0  0  0  0  0  0  0  0  0  0  0
   -7.5890   25.5950   53.4450 F   0  0  0  0  0  0  0  0  0  0  0  0
  -17.2980   21.8280   46.9770 F   0  0  0  0  0  0  0  0  0  0  0  0
  -11.6781   28.3691   46.7522 H   0  0  0  0  0  0  0  0  0  0  0  0
   -6.3908   27.6622   54.3341 H   0  0  0  0  0  0  0  0  0  0  0  0
   -4.8280   27.4609   53.4717 H   0  0  0  0  0  0  0  0  0  0  0  0
   -5.6549   29.0556   53.4717 H   0  0  0  0  0  0  0  0  0  0  0  0
  -18.8558   21.7182   45.0738 H   0  0  0  0  0  0  0  0  0  0  0  0
  -18.9745   22.7794   43.6294 H   0  0  0  0  0  0  0  0  0  0  0  0
  -17.8410   21.3859   43.6294 H   0  0  0  0  0  0  0  0  0  0  0  0
   -7.2507   29.8533   48.7582 H   0  0  0  0  0  0  0  0  0  0  0  0
   -5.8694   28.7586   48.2576 H   0  0  0  0  0  0  0  0  0  0  0  0
  -15.1554   25.7833   42.5717 H   0  0  0  0  0  0  0  0  0  0  0  0
  -15.5322   26.9942   43.8894 H   0  0  0  0  0  0  0  0  0  0  0  0
  -16.9996   24.2541   42.9543 H   0  0  0  0  0  0  0  0  0  0  0  0
   -8.4900   26.5520   48.9313 H   0  0  0  0  0  0  0  0  0  0  0  0
   -8.7841   25.1801   51.0089 H   0  0  0  0  0  0  0  0  0  0  0  0
   -5.7234   29.2460   51.0161 H   0  0  0  0  0  0  0  0  0  0  0  0
   -8.7534   26.4001   43.1310 H   0  0  0  0  0  0  0  0  0  0  0  0
   -7.2523   27.7247   46.6864 H   0  0  0  0  0  0  0  0  0  0  0  0
  -12.8859   25.7174   43.3350 H   0  0  0  0  0  0  0  0  0  0  0  0
  -15.3447   23.5491   47.7253 H   0  0  0  0  0  0  0  0  0  0  0  0
  -14.3601   25.3690   46.2812 H   0  0  0  0  0  0  0  0  0  0  0  0
  1  2  2  0
  1  9  1  0
  1 20  1  0
  2  3  1  0
  3  6  1  0
  3 18  2  0
  4 26  1  0
  5 23  1  0
  6 21  1  0
  6 28  2  0
  7  8  1  0
  7 21  1  0
  8 14  2  0
  8 17  1  0
  9 22  1  0
  9 27  2  0
 10 11  1  0
 10 22  1  0
 11 12  2  0
 11 25  1  0
 12 23  1  0
 13 23  2  0
 13 24  1  0
 13 30  1  0
 14 15  1  0
 15 16  2  0
 16 26  1  0
 16 29  1  0
 17 26  2  0
 18 19  1  0
 19 20  2  0
 24 25  2  0
  2 31  1  0
  4 32  1  0
  4 33  1  0
  4 34  1  0
  5 35  1  0
  5 36  1  0
  5 37  1  0
  7 38  1  0
  7 39  1  0
 10 40  1  0
 10 41  1  0
 12 42  1  0
 14 43  1  0
 15 44  1  0
 17 45  1  0
 19 46  1  0
 21 47  1  0
 22 48  1  0
 24 49  1  0
 25 50  1  0
A    1
C1
A    2
C2
A    3
C3
A    4
C7
A    5
C8
A    6
C9
A    7
C10
A    8
C11
A    9
C12
A   10
C13
A   11
C14
A   12
C15
A   13
C16
A   14
C19
A   15
C20
A   16
C21
A   17
C22
A   18
N1
A   19
C5
A   20
N2
A   21
N3
A   22
N4
A   23
C6
A   24
C17
A   25
C18
A   26
C4
A   27
O1
A   28
O2
A   29
F1
A   30
F2
M  END
