1XUH_BAO_A_369
     RDKit          3D

 40 43  0  0  0  0  0  0  0  0999 V2000
   45.5050   19.6130   52.9510 C   0  0  0  0  0  0  0  0  0  0  0  0
   44.9090   19.1900   51.7320 C   0  0  0  0  0  0  0  0  0  0  0  0
   44.4860   20.0970   50.7320 C   0  0  0  0  0  0  0  0  0  0  0  0
   44.6730   21.4520   50.9860 C   0  0  0  0  0  0  0  0  0  0  0  0
   45.2340   21.9160   52.1320 C   0  0  0  0  0  0  0  0  0  0  0  0
   45.6550   21.0210   53.1180 C   0  0  0  0  0  0  0  0  0  0  0  0
   45.7680   18.7050   54.0010 C   0  0  0  0  0  0  0  0  0  0  0  0
   46.6030   19.0400   54.9590 N   0  0  0  0  0  0  0  0  0  0  0  0
   45.2010   17.4900   54.1070 N   0  0  0  0  0  0  0  0  0  0  0  0
   44.3480   22.4700   50.1830 N   0  0  0  0  0  0  0  0  0  0  0  0
   45.2860   23.2520   52.0880 N   0  0  0  0  0  0  0  0  0  0  0  0
   44.7340   23.5190   50.8950 C   0  0  0  0  0  0  0  0  0  0  0  0
   43.5780   27.2460   45.1180 C   0  0  0  0  0  0  0  0  0  0  0  0
   43.0980   25.9350   44.8530 C   0  0  0  0  0  0  0  0  0  0  0  0
   43.1240   24.9230   45.8450 C   0  0  0  0  0  0  0  0  0  0  0  0
   43.6380   25.2420   47.1100 C   0  0  0  0  0  0  0  0  0  0  0  0
   44.1080   26.4820   47.4040 C   0  0  0  0  0  0  0  0  0  0  0  0
   44.0890   27.4940   46.4320 C   0  0  0  0  0  0  0  0  0  0  0  0
   43.4350   28.2890   44.1640 C   0  0  0  0  0  0  0  0  0  0  0  0
   44.1900   29.3920   44.2970 N   0  0  0  0  0  0  0  0  0  0  0  0
   42.5670   28.2470   43.1270 N   0  0  0  0  0  0  0  0  0  0  0  0
   43.7470   24.4390   48.1790 N   0  0  0  0  0  0  0  0  0  0  0  0
   44.5330   26.4890   48.6740 N   0  0  0  0  0  0  0  0  0  0  0  0
   44.2840   25.2480   49.0840 C   0  0  0  0  0  0  0  0  0  0  0  0
   44.5460   24.8560   50.4320 C   0  0  0  0  0  0  0  0  0  0  0  0
   44.4370   25.7410   51.3000 O   0  0  0  0  0  0  0  0  0  0  0  0
   44.7709   18.1125   51.5589 H   0  0  0  0  0  0  0  0  0  0  0  0
   44.0293   19.7462   49.7948 H   0  0  0  0  0  0  0  0  0  0  0  0
   46.1108   21.4096   54.0406 H   0  0  0  0  0  0  0  0  0  0  0  0
   46.7976   18.3810   55.7263 H   0  0  0  0  0  0  0  0  0  0  0  0
   45.0136   17.0885   55.0368 H   0  0  0  0  0  0  0  0  0  0  0  0
   44.9542   16.9611   53.2584 H   0  0  0  0  0  0  0  0  0  0  0  0
   45.6555   23.9081   52.7908 H   0  0  0  0  0  0  0  0  0  0  0  0
   42.6973   25.7004   43.8558 H   0  0  0  0  0  0  0  0  0  0  0  0
   42.7499   23.9116   45.6277 H   0  0  0  0  0  0  0  0  0  0  0  0
   44.4728   28.4936   46.6838 H   0  0  0  0  0  0  0  0  0  0  0  0
   44.1030   30.1607   43.6170 H   0  0  0  0  0  0  0  0  0  0  0  0
   41.5537   28.1980   43.3052 H   0  0  0  0  0  0  0  0  0  0  0  0
   42.9195   28.2641   42.1593 H   0  0  0  0  0  0  0  0  0  0  0  0
   44.9512   27.2665   49.2046 H   0  0  0  0  0  0  0  0  0  0  0  0
  1  2  2  0
  1  6  1  0
  1  7  1  0
  2  3  1  0
  3  4  2  0
  4  5  1  0
  4 10  1  0
  5  6  2  0
  5 11  1  0
  7  8  2  3
  7  9  1  0
 10 12  2  0
 11 12  1  0
 12 25  1  0
 13 14  2  0
 13 18  1  0
 13 19  1  0
 14 15  1  0
 15 16  2  0
 16 17  1  0
 16 22  1  0
 17 18  2  0
 17 23  1  0
 19 20  2  3
 19 21  1  0
 22 24  2  0
 23 24  1  0
 24 25  1  0
 25 26  2  0
  2 27  1  0
  3 28  1  0
  6 29  1  0
  8 30  1  0
  9 31  1  0
  9 32  1  0
 11 33  1  0
 14 34  1  0
 15 35  1  0
 18 36  1  0
 20 37  1  0
 21 38  1  0
 21 39  1  0
 23 40  1  0
A    1
C1
A    2
C2
A    3
C3
A    4
C4
A    5
C5
A    6
C6
A    7
C7
A    8
N1
A    9
N2
A   10
N3
A   11
N4
A   12
C8
A   13
C1'
A   14
C2'
A   15
C3'
A   16
C4'
A   17
C5'
A   18
C6'
A   19
C7'
A   20
N1'
A   21
N2'
A   22
N3'
A   23
N4'
A   24
C8'
A   25
C9
A   26
O9
M  END
