1XUR_PB5_A_2001
     RDKit          3D

 42 44  0  0  0  0  0  0  0  0999 V2000
  -11.8390   27.3620   44.9950 C   0  0  0  0  0  0  0  0  0  0  0  0
  -11.2640   27.9440   46.1050 C   0  0  0  0  0  0  0  0  0  0  0  0
   -9.8910   28.0020   46.1830 C   0  0  0  0  0  0  0  0  0  0  0  0
  -11.0400   26.8450   43.9760 N   0  0  0  0  0  0  0  0  0  0  0  0
   -9.2680   28.5980   47.3590 C   0  0  0  0  0  0  0  0  0  0  0  0
   -7.2040   28.8140   48.6930 C   0  0  0  0  0  0  0  0  0  0  0  0
   -7.3710   28.0130   49.9660 C   0  0  0  0  0  0  0  0  0  0  0  0
  -13.2980   27.2780   44.9040 C   0  0  0  0  0  0  0  0  0  0  0  0
  -16.5660   23.9480   44.0130 C   0  0  0  0  0  0  0  0  0  0  0  0
  -15.9670   23.6480   46.7810 C   0  0  0  0  0  0  0  0  0  0  0  0
   -8.1990   26.8560   49.9990 C   0  0  0  0  0  0  0  0  0  0  0  0
   -8.3730   26.1020   51.1730 C   0  0  0  0  0  0  0  0  0  0  0  0
   -7.7090   26.5020   52.3400 C   0  0  0  0  0  0  0  0  0  0  0  0
   -6.7090   28.4050   51.1400 C   0  0  0  0  0  0  0  0  0  0  0  0
   -9.0910   27.4840   45.1630 N   0  0  0  0  0  0  0  0  0  0  0  0
   -9.6630   26.9010   44.0460 C   0  0  0  0  0  0  0  0  0  0  0  0
   -7.9450   28.2920   47.5220 N   0  0  0  0  0  0  0  0  0  0  0  0
  -13.8020   26.3210   44.0370 N   0  0  0  0  0  0  0  0  0  0  0  0
  -15.2520   26.1090   43.8640 C   0  0  0  0  0  0  0  0  0  0  0  0
  -15.7770   24.9150   44.6530 C   0  0  0  0  0  0  0  0  0  0  0  0
  -17.0470   22.8440   44.7570 N   0  0  0  0  0  0  0  0  0  0  0  0
  -16.7560   22.6860   46.1310 C   0  0  0  0  0  0  0  0  0  0  0  0
  -15.4860   24.7510   46.0390 C   0  0  0  0  0  0  0  0  0  0  0  0
   -6.8860   27.6440   52.3100 N   0  0  0  0  0  0  0  0  0  0  0  0
  -14.1120   27.9570   45.5400 O   0  0  0  0  0  0  0  0  0  0  0  0
   -9.8000   29.3030   48.2140 O   0  0  0  0  0  0  0  0  0  0  0  0
  -11.8898   28.3535   46.9116 H   0  0  0  0  0  0  0  0  0  0  0  0
   -7.5518   29.8394   48.8872 H   0  0  0  0  0  0  0  0  0  0  0  0
   -6.1371   28.7561   48.4317 H   0  0  0  0  0  0  0  0  0  0  0  0
  -16.8084   24.0464   42.9446 H   0  0  0  0  0  0  0  0  0  0  0  0
  -15.7271   23.5453   47.8496 H   0  0  0  0  0  0  0  0  0  0  0  0
   -8.7172   26.5429   49.0806 H   0  0  0  0  0  0  0  0  0  0  0  0
   -9.0200   25.2124   51.1751 H   0  0  0  0  0  0  0  0  0  0  0  0
   -7.8295   25.9291   53.2712 H   0  0  0  0  0  0  0  0  0  0  0  0
   -6.0613   29.2941   51.1452 H   0  0  0  0  0  0  0  0  0  0  0  0
   -9.0382   26.4940   43.2373 H   0  0  0  0  0  0  0  0  0  0  0  0
   -7.4643   27.6988   46.8306 H   0  0  0  0  0  0  0  0  0  0  0  0
  -13.1445   25.7403   43.4972 H   0  0  0  0  0  0  0  0  0  0  0  0
  -15.7812   27.0124   44.2015 H   0  0  0  0  0  0  0  0  0  0  0  0
  -15.4299   25.9034   42.7981 H   0  0  0  0  0  0  0  0  0  0  0  0
  -17.1437   21.8184   46.6851 H   0  0  0  0  0  0  0  0  0  0  0  0
  -14.8680   25.5062   46.5468 H   0  0  0  0  0  0  0  0  0  0  0  0
  1  2  2  0
  1  4  1  0
  1  8  1  0
  2  3  1  0
  3  5  1  0
  3 15  2  0
  4 16  2  0
  5 17  1  0
  5 26  2  0
  6  7  1  0
  6 17  1  0
  7 11  2  0
  7 14  1  0
  8 18  1  0
  8 25  2  0
  9 20  2  0
  9 21  1  0
 10 22  1  0
 10 23  2  0
 11 12  1  0
 12 13  2  0
 13 24  1  0
 14 24  2  0
 15 16  1  0
 18 19  1  0
 19 20  1  0
 20 23  1  0
 21 22  2  0
  2 27  1  0
  6 28  1  0
  6 29  1  0
  9 30  1  0
 10 31  1  0
 11 32  1  0
 12 33  1  0
 13 34  1  0
 14 35  1  0
 16 36  1  0
 17 37  1  0
 18 38  1  0
 19 39  1  0
 19 40  1  0
 22 41  1  0
 23 42  1  0
A    1
C1
A    2
C2
A    3
C3
A    4
N6
A    5
C9
A    6
C11
A    7
C12
A    8
C15
A    9
C21
A   10
C24
A   11
C30
A   12
C31
A   13
C32
A   14
C34
A   15
N4
A   16
C5
A   17
N10
A   18
N16
A   19
C17
A   20
C18
A   21
N22
A   22
C23
A   23
C25
A   24
N33
A   25
O41
A   26
O42
M  END
