1XZ0_JH0_A_601
     RDKit          3D

127129  0  0  0  0  0  0  0  0999 V2000
   22.2990   -8.1010   70.2690 O   0  0  0  0  0  0  0  0  0  0  0  0
   23.1780   -8.5730   69.5480 C   0  0  0  0  0  0  0  0  0  0  0  0
   24.4630   -9.1260   70.1730 C   0  0  0  0  0  0  0  0  0  0  0  0
   24.5470   -8.9710   71.6980 C   0  0  0  0  0  0  0  0  0  0  0  0
   25.8690   -9.5650   72.2180 C   0  0  0  0  0  0  0  0  0  0  0  0
   26.2450   -9.0850   73.6330 C   0  0  0  0  0  0  0  0  0  0  0  0
   27.5720   -8.3080   73.7150 C   0  0  0  0  0  0  0  0  0  0  0  0
   27.6990   -7.4730   75.0070 C   0  0  0  0  0  0  0  0  0  0  0  0
   29.0070   -6.6550   75.1160 C   0  0  0  0  0  0  0  0  0  0  0  0
   28.8130   -5.1560   74.8610 C   0  0  0  0  0  0  0  0  0  0  0  0
   30.0680   -4.2940   75.0330 C   0  0  0  0  0  0  0  0  0  0  0  0
   29.7050   -2.8130   75.2470 C   0  0  0  0  0  0  0  0  0  0  0  0
   29.4030   -2.0510   73.9480 C   0  0  0  0  0  0  0  0  0  0  0  0
   28.0010   -1.4420   73.8440 C   0  0  0  0  0  0  0  0  0  0  0  0
   27.3890   -1.4920   72.4220 C   0  0  0  0  0  0  0  0  0  0  0  0
   25.9390   -0.9680   72.4120 C   0  0  0  0  0  0  0  0  0  0  0  0
   25.2220   -0.9180   71.0570 C   0  0  0  0  0  0  0  0  0  0  0  0
   23.0350   -8.6090   68.1970 N   0  0  0  0  0  0  0  0  0  0  0  0
   21.8790   -8.0250   67.6620 O   0  0  0  0  0  0  0  0  0  0  0  0
   23.9320   -9.1830   67.1880 C   0  0  0  0  0  0  0  0  0  0  0  0
   23.0950  -10.0730   66.2470 C   0  0  0  0  0  0  0  0  0  0  0  0
   22.8450  -11.5270   66.6800 C   0  0  0  0  0  0  0  0  0  0  0  0
   22.9120  -11.8230   68.1840 C   0  0  0  0  0  0  0  0  0  0  0  0
   23.1010  -13.3020   68.5980 C   0  0  0  0  0  0  0  0  0  0  0  0
   24.4460  -13.8690   68.4790 N   0  0  0  0  0  0  0  0  0  0  0  0
   25.5280  -13.3710   67.8560 C   0  0  0  0  0  0  0  0  0  0  0  0
   25.6600  -12.2010   67.5220 O   0  0  0  0  0  0  0  0  0  0  0  0
   26.6200  -14.3450   67.4380 C   0  0  0  0  0  0  0  0  0  0  0  0
   26.8380  -14.3410   65.9790 N   0  0  0  0  0  0  0  0  0  0  0  0
   26.8210  -15.4920   65.4570 C   0  0  0  0  0  0  0  0  0  0  0  0
   26.5990  -16.5110   66.4530 O   0  0  0  0  0  0  0  0  0  0  0  0
   26.4430  -15.8640   67.7150 C   0  0  0  0  0  0  0  0  0  0  0  0
   27.0580  -15.7870   64.0010 C   0  0  0  0  0  0  0  0  0  0  0  0
   27.6430  -17.0240   63.6680 C   0  0  0  0  0  0  0  0  0  0  0  0
   27.9140  -17.3480   62.3360 C   0  0  0  0  0  0  0  0  0  0  0  0
   27.6020  -16.4250   61.3350 C   0  0  0  0  0  0  0  0  0  0  0  0
   27.0260  -15.1870   61.6650 C   0  0  0  0  0  0  0  0  0  0  0  0
   26.7470  -14.8600   62.9990 C   0  0  0  0  0  0  0  0  0  0  0  0
   26.1900  -13.6780   63.2880 O   0  0  0  0  0  0  0  0  0  0  0  0
   22.1690  -14.2590   67.8790 C   0  0  0  0  0  0  0  0  0  0  0  0
   21.0180  -13.9540   67.6130 O   0  0  0  0  0  0  0  0  0  0  0  0
   22.6250  -15.6130   67.5500 O   0  0  0  0  0  0  0  0  0  0  0  0
   22.8090  -16.0300   66.1830 C   0  0  0  0  0  0  0  0  0  0  0  0
   23.5540  -15.0270   65.3110 C   0  0  0  0  0  0  0  0  0  0  0  0
   21.4460  -16.3630   65.5960 C   0  0  0  0  0  0  0  0  0  0  0  0
   21.4560  -16.4590   64.0900 C   0  0  0  0  0  0  0  0  0  0  0  0
   21.0090  -15.5120   63.4830 O   0  0  0  0  0  0  0  0  0  0  0  0
   21.8650  -17.6050   63.5280 N   0  0  0  0  0  0  0  0  0  0  0  0
   21.5980  -17.9930   62.1380 C   0  0  0  0  0  0  0  0  0  0  0  0
   22.3530  -19.2110   61.6420 C   0  0  0  0  0  0  0  0  0  0  0  0
   21.7220  -20.2260   61.3800 O   0  0  0  0  0  0  0  0  0  0  0  0
   21.7320  -16.8870   61.0790 C   0  0  0  0  0  0  0  0  0  0  0  0
   23.0620  -16.7300   60.3370 C   0  0  0  0  0  0  0  0  0  0  0  0
   24.2640  -16.7220   61.2670 C   0  0  0  0  0  0  0  0  0  0  0  0
   24.5490  -18.0550   61.9840 C   0  0  0  0  0  0  0  0  0  0  0  0
   23.6810  -19.1220   61.4650 N   0  0  0  0  0  0  0  0  0  0  0  0
   24.2800  -20.1130   60.7470 O   0  0  0  0  0  0  0  0  0  0  0  0
   25.2740  -19.7220   59.3130 Si  0  0  0  0  0  4  0  0  0  0  0  0
   24.5286  -10.1974   69.9324 H   0  0  0  0  0  0  0  0  0  0  0  0
   25.2930   -8.5392   69.7527 H   0  0  0  0  0  0  0  0  0  0  0  0
   24.5006   -7.9033   71.9583 H   0  0  0  0  0  0  0  0  0  0  0  0
   23.7049   -9.5061   72.1613 H   0  0  0  0  0  0  0  0  0  0  0  0
   25.7750  -10.6608   72.2358 H   0  0  0  0  0  0  0  0  0  0  0  0
   26.6651   -9.2251   71.5393 H   0  0  0  0  0  0  0  0  0  0  0  0
   25.4405   -8.4295   73.9980 H   0  0  0  0  0  0  0  0  0  0  0  0
   26.3753   -9.9899   74.2447 H   0  0  0  0  0  0  0  0  0  0  0  0
   28.4032   -9.0276   73.6788 H   0  0  0  0  0  0  0  0  0  0  0  0
   27.5990   -7.6093   72.8658 H   0  0  0  0  0  0  0  0  0  0  0  0
   26.8515   -6.7729   75.0483 H   0  0  0  0  0  0  0  0  0  0  0  0
   27.7070   -8.1886   75.8424 H   0  0  0  0  0  0  0  0  0  0  0  0
   29.4163   -6.7859   76.1286 H   0  0  0  0  0  0  0  0  0  0  0  0
   29.6892   -7.0301   74.3389 H   0  0  0  0  0  0  0  0  0  0  0  0
   28.4537   -5.0307   73.8289 H   0  0  0  0  0  0  0  0  0  0  0  0
   28.0989   -4.8083   75.6220 H   0  0  0  0  0  0  0  0  0  0  0  0
   30.6331   -4.6540   75.9054 H   0  0  0  0  0  0  0  0  0  0  0  0
   30.6723   -4.3744   74.1174 H   0  0  0  0  0  0  0  0  0  0  0  0
   28.8150   -2.7644   75.8917 H   0  0  0  0  0  0  0  0  0  0  0  0
   30.5835   -2.3320   75.7018 H   0  0  0  0  0  0  0  0  0  0  0  0
   30.1337   -1.2337   73.8583 H   0  0  0  0  0  0  0  0  0  0  0  0
   29.4657   -2.7970   73.1420 H   0  0  0  0  0  0  0  0  0  0  0  0
   27.3350   -1.9918   74.5253 H   0  0  0  0  0  0  0  0  0  0  0  0
   28.0987   -0.3786   74.1080 H   0  0  0  0  0  0  0  0  0  0  0  0
   27.9981   -0.8710   71.7487 H   0  0  0  0  0  0  0  0  0  0  0  0
   27.3796   -2.5397   72.0870 H   0  0  0  0  0  0  0  0  0  0  0  0
   25.3480   -1.6164   73.0756 H   0  0  0  0  0  0  0  0  0  0  0  0
   26.0142    0.0816   72.7324 H   0  0  0  0  0  0  0  0  0  0  0  0
   24.1366   -0.8423   71.2191 H   0  0  0  0  0  0  0  0  0  0  0  0
   25.5701   -0.0419   70.4901 H   0  0  0  0  0  0  0  0  0  0  0  0
   25.4451   -1.8339   70.4901 H   0  0  0  0  0  0  0  0  0  0  0  0
   21.2887   -7.7268   68.3987 H   0  0  0  0  0  0  0  0  0  0  0  0
   24.4080   -8.3763   66.6113 H   0  0  0  0  0  0  0  0  0  0  0  0
   24.7179   -9.7794   67.6746 H   0  0  0  0  0  0  0  0  0  0  0  0
   22.1132   -9.5920   66.1257 H   0  0  0  0  0  0  0  0  0  0  0  0
   23.6965  -10.1537   65.3296 H   0  0  0  0  0  0  0  0  0  0  0  0
   21.8416  -11.8106   66.3296 H   0  0  0  0  0  0  0  0  0  0  0  0
   23.6692  -12.1048   66.2363 H   0  0  0  0  0  0  0  0  0  0  0  0
   23.7557  -11.2515   68.5980 H   0  0  0  0  0  0  0  0  0  0  0  0
   21.9246  -11.5389   68.5768 H   0  0  0  0  0  0  0  0  0  0  0  0
   22.8641  -13.2210   69.6691 H   0  0  0  0  0  0  0  0  0  0  0  0
   24.5825  -14.7805   68.9388 H   0  0  0  0  0  0  0  0  0  0  0  0
   27.4278  -13.9496   68.0714 H   0  0  0  0  0  0  0  0  0  0  0  0
   27.2080  -16.2158   68.4228 H   0  0  0  0  0  0  0  0  0  0  0  0
   25.4621  -16.0819   68.1627 H   0  0  0  0  0  0  0  0  0  0  0  0
   27.8890  -17.7421   64.4641 H   0  0  0  0  0  0  0  0  0  0  0  0
   28.3670  -18.3169   62.0791 H   0  0  0  0  0  0  0  0  0  0  0  0
   27.8085  -16.6690   60.2825 H   0  0  0  0  0  0  0  0  0  0  0  0
   26.7914  -14.4664   60.8677 H   0  0  0  0  0  0  0  0  0  0  0  0
   26.0629  -13.4083   64.2320 H   0  0  0  0  0  0  0  0  0  0  0  0
   23.4598  -16.9167   66.1947 H   0  0  0  0  0  0  0  0  0  0  0  0
   24.0872  -14.3091   65.9516 H   0  0  0  0  0  0  0  0  0  0  0  0
   24.2773  -15.5594   64.6759 H   0  0  0  0  0  0  0  0  0  0  0  0
   22.8353  -14.4883   64.6759 H   0  0  0  0  0  0  0  0  0  0  0  0
   21.1150  -17.3286   66.0059 H   0  0  0  0  0  0  0  0  0  0  0  0
   20.7637  -15.5440   65.8673 H   0  0  0  0  0  0  0  0  0  0  0  0
   22.4045  -18.2592   64.1126 H   0  0  0  0  0  0  0  0  0  0  0  0
   20.5314  -18.2443   62.2339 H   0  0  0  0  0  0  0  0  0  0  0  0
   20.9584  -17.0722   60.3192 H   0  0  0  0  0  0  0  0  0  0  0  0
   21.6392  -15.9552   61.6561 H   0  0  0  0  0  0  0  0  0  0  0  0
   23.1705  -17.5668   59.6313 H   0  0  0  0  0  0  0  0  0  0  0  0
   23.0384  -15.7584   59.8218 H   0  0  0  0  0  0  0  0  0  0  0  0
   25.1517  -16.4588   60.6731 H   0  0  0  0  0  0  0  0  0  0  0  0
   24.0321  -15.9940   62.0583 H   0  0  0  0  0  0  0  0  0  0  0  0
   25.6005  -18.3343   61.8217 H   0  0  0  0  0  0  0  0  0  0  0  0
   24.3484  -17.9280   63.0581 H   0  0  0  0  0  0  0  0  0  0  0  0
   26.4003  -19.2790   59.6879 H   0  0  0  0  0  0  0  0  0  0  0  0
   25.4417  -20.7677   58.6175 H   0  0  0  0  0  0  0  0  0  0  0  0
   24.6843  -18.8423   58.6175 H   0  0  0  0  0  0  0  0  0  0  0  0
  1  2  2  0
  2  3  1  0
  2 18  1  0
  3  4  1  0
  4  5  1  0
  5  6  1  0
  6  7  1  0
  7  8  1  0
  8  9  1  0
  9 10  1  0
 10 11  1  0
 11 12  1  0
 12 13  1  0
 13 14  1  0
 14 15  1  0
 15 16  1  0
 16 17  1  0
 18 19  1  0
 18 20  1  0
 20 21  1  0
 21 22  1  0
 22 23  1  0
 23 24  1  0
 24 25  1  0
 24 40  1  0
 25 26  1  0
 26 27  2  0
 26 28  1  0
 28 29  1  0
 28 32  1  0
 29 30  2  0
 30 31  1  0
 30 33  1  0
 31 32  1  0
 33 34  2  0
 33 38  1  0
 34 35  1  0
 35 36  2  0
 36 37  1  0
 37 38  2  0
 38 39  1  0
 40 41  2  0
 40 42  1  0
 42 43  1  0
 43 44  1  0
 43 45  1  0
 45 46  1  0
 46 47  2  0
 46 48  1  0
 48 49  1  0
 49 50  1  0
 49 52  1  0
 50 51  2  0
 50 56  1  0
 52 53  1  0
 53 54  1  0
 54 55  1  0
 55 56  1  0
 56 57  1  0
 57 58  1  0
  3 59  1  0
  3 60  1  0
  4 61  1  0
  4 62  1  0
  5 63  1  0
  5 64  1  0
  6 65  1  0
  6 66  1  0
  7 67  1  0
  7 68  1  0
  8 69  1  0
  8 70  1  0
  9 71  1  0
  9 72  1  0
 10 73  1  0
 10 74  1  0
 11 75  1  0
 11 76  1  0
 12 77  1  0
 12 78  1  0
 13 79  1  0
 13 80  1  0
 14 81  1  0
 14 82  1  0
 15 83  1  0
 15 84  1  0
 16 85  1  0
 16 86  1  0
 17 87  1  0
 17 88  1  0
 17 89  1  0
 19 90  1  0
 20 91  1  0
 20 92  1  0
 21 93  1  0
 21 94  1  0
 22 95  1  0
 22 96  1  0
 23 97  1  0
 23 98  1  0
 24 99  1  0
 25100  1  0
 28101  1  0
 32102  1  0
 32103  1  0
 34104  1  0
 35105  1  0
 36106  1  0
 37107  1  0
 39108  1  0
 43109  1  0
 44110  1  0
 44111  1  0
 44112  1  0
 45113  1  0
 45114  1  0
 48115  1  0
 49116  1  0
 52117  1  0
 52118  1  0
 53119  1  0
 53120  1  0
 54121  1  0
 54122  1  0
 55123  1  0
 55124  1  0
 58125  1  0
 58126  1  0
 58127  1  0
A    1
O4
A    2
C
A    3
C12
A    4
C13
A    5
C14
A    6
C15
A    7
C16
A    8
C17
A    9
C18
A   10
C19
A   11
C20
A   12
C21
A   13
C22
A   14
C23
A   15
C24
A   16
C25
A   17
C26
A   18
N
A   19
ON1
A   20
C1
A   21
C2
A   22
C3
A   23
C4
A   24
C5
A   25
N2
A   26
C11
A   27
O3
A   28
C39
A   29
N4
A   30
C38
A   31
O6
A   32
C37
A   33
C45
A   34
C44
A   35
C43
A   36
C42
A   37
C41
A   38
C40
A   39
O7
A   40
C6
A   41
O
A   42
O1
A   43
C7
A   44
C9
A   45
C8
A   46
C10
A   47
O2
A   48
N1
A   49
C35
A   50
C36
A   51
O5
A   52
C34
A   53
C33
A   54
C32
A   55
C31
A   56
N3
A   57
ON2
A   58
SI70
M  END
