1Y1D_FHI_A_2000
     RDKit          3D

 26 27  0  0  0  0  0  0  0  0999 V2000
   -0.0640    2.5910    8.8900 F   0  0  0  0  0  0  0  0  0  0  0  0
    0.0850    1.3150    9.2870 C   0  0  0  0  0  0  0  0  0  0  0  0
   -0.1960    0.9740   10.5990 C   0  0  0  0  0  0  0  0  0  0  0  0
   -0.0490   -0.3370   11.0180 C   0  0  0  0  0  0  0  0  0  0  0  0
   -0.3230   -0.6530   12.2950 F   0  0  0  0  0  0  0  0  0  0  0  0
    0.3790   -1.3120   10.1240 C   0  0  0  0  0  0  0  0  0  0  0  0
    0.6610   -0.9700    8.8050 C   0  0  0  0  0  0  0  0  0  0  0  0
    0.5030    0.3470    8.3890 C   0  0  0  0  0  0  0  0  0  0  0  0
    0.7920    0.7240    7.0900 C   0  0  0  0  0  0  0  0  0  0  0  0
    0.2320    0.0860    5.9910 C   0  0  0  0  0  0  0  0  0  0  0  0
    0.5700    0.5190    4.7100 C   0  0  0  0  0  0  0  0  0  0  0  0
   -0.0140   -0.1410    3.4960 C   0  0  0  0  0  0  0  0  0  0  0  0
    0.3460    0.2700    2.3720 O   0  0  0  0  0  0  0  0  0  0  0  0
   -0.8380   -1.0740    3.6240 O   0  0  0  0  0  0  0  0  0  0  0  0
    1.6780    1.7790    6.9080 C   0  0  0  0  0  0  0  0  0  0  0  0
    2.0090    2.2060    5.6330 C   0  0  0  0  0  0  0  0  0  0  0  0
    3.3420    3.7990    5.3820 I   0  0  0  0  0  0  0  0  0  0  0  0
    1.4540    1.5740    4.5360 C   0  0  0  0  0  0  0  0  0  0  0  0
    1.7690    1.9830    3.3120 O   0  0  0  0  0  0  0  0  0  0  0  0
   -0.5356    1.7439   11.3075 H   0  0  0  0  0  0  0  0  0  0  0  0
    0.4946   -2.3533   10.4592 H   0  0  0  0  0  0  0  0  0  0  0  0
    1.0067   -1.7368    8.0961 H   0  0  0  0  0  0  0  0  0  0  0  0
   -0.4692   -0.7502    6.1296 H   0  0  0  0  0  0  0  0  0  0  0  0
    0.9967    1.0128    2.3016 H   0  0  0  0  0  0  0  0  0  0  0  0
    2.1195    2.2785    7.7830 H   0  0  0  0  0  0  0  0  0  0  0  0
    2.3684    2.7613    3.1891 H   0  0  0  0  0  0  0  0  0  0  0  0
  1  2  1  0
  2  3  2  0
  2  8  1  0
  3  4  1  0
  4  5  1  0
  4  6  2  0
  6  7  1  0
  7  8  2  0
  8  9  1  0
  9 10  2  0
  9 15  1  0
 10 11  1  0
 11 12  1  0
 11 18  2  0
 12 13  1  0
 12 14  2  0
 15 16  2  0
 16 17  1  0
 16 18  1  0
 18 19  1  0
  3 20  1  0
  6 21  1  0
  7 22  1  0
 10 23  1  0
 13 24  1  0
 15 25  1  0
 19 26  1  0
A    1
FAT
A    2
CAN
A    3
CAM
A    4
CAF
A    5
FAE
A    6
CAG
A    7
CAH
A    8
CAO
A    9
CAP
A   10
CAI
A   11
CAJ
A   12
CAC
A   13
OAD
A   14
OAB
A   15
CAQ
A   16
CAR
A   17
IAS
A   18
CAK
A   19
OAL
M  END
