1Y2C_3DE_A_1003
     RDKit          3D

 35 36  0  0  0  0  0  0  0  0999 V2000
   14.6490    6.2990    9.9730 C   0  0  0  0  0  0  0  0  0  0  0  0
   13.5220    6.0870    9.2700 O   0  0  0  0  0  0  0  0  0  0  0  0
   13.5320    6.1430    7.8330 C   0  0  0  0  0  0  0  0  0  0  0  0
   12.1140    6.3670    7.3450 C   0  0  0  0  0  0  0  0  0  0  0  0
   14.5900    6.1160   11.4350 C   0  0  0  0  0  0  0  0  0  0  0  0
   15.7760    6.0350   12.3110 C   0  0  0  0  0  0  0  0  0  0  0  0
   15.3120    5.8250   13.5150 N   0  0  0  0  0  0  0  0  0  0  0  0
   17.2280    5.9230   11.9280 C   0  0  0  0  0  0  0  0  0  0  0  0
   13.4890    6.0910   12.2260 C   0  0  0  0  0  0  0  0  0  0  0  0
   12.0490    6.2220   11.7990 C   0  0  0  0  0  0  0  0  0  0  0  0
   13.8870    5.9290   13.5250 N   0  0  0  0  0  0  0  0  0  0  0  0
   13.1040    5.8140   14.6890 C   0  0  0  0  0  0  0  0  0  0  0  0
   13.1990    6.7770   15.7030 C   0  0  0  0  0  0  0  0  0  0  0  0
   12.4240    6.6300   16.8640 C   0  0  0  0  0  0  0  0  0  0  0  0
   11.5790    5.5170   17.0150 C   0  0  0  0  0  0  0  0  0  0  0  0
   11.5050    4.5500   16.0080 C   0  0  0  0  0  0  0  0  0  0  0  0
   12.2750    4.6980   14.8450 C   0  0  0  0  0  0  0  0  0  0  0  0
   15.7210    6.3190    9.4340 O   0  0  0  0  0  0  0  0  0  0  0  0
   14.1735    6.9720    7.4994 H   0  0  0  0  0  0  0  0  0  0  0  0
   13.9244    5.2003    7.4241 H   0  0  0  0  0  0  0  0  0  0  0  0
   11.4414    6.4732    8.2089 H   0  0  0  0  0  0  0  0  0  0  0  0
   12.0761    7.2823    6.7360 H   0  0  0  0  0  0  0  0  0  0  0  0
   11.7958    5.5080    6.7360 H   0  0  0  0  0  0  0  0  0  0  0  0
   15.8918    5.6143   14.3399 H   0  0  0  0  0  0  0  0  0  0  0  0
   17.8446    5.8754   12.8377 H   0  0  0  0  0  0  0  0  0  0  0  0
   17.3810    5.0104   11.3332 H   0  0  0  0  0  0  0  0  0  0  0  0
   17.5191    6.8014   11.3332 H   0  0  0  0  0  0  0  0  0  0  0  0
   11.4063    6.2805   12.6898 H   0  0  0  0  0  0  0  0  0  0  0  0
   11.9264    7.1350   11.1978 H   0  0  0  0  0  0  0  0  0  0  0  0
   11.7637    5.3461   11.1978 H   0  0  0  0  0  0  0  0  0  0  0  0
   13.8735    7.6385   15.5902 H   0  0  0  0  0  0  0  0  0  0  0  0
   12.4781    7.3887   17.6587 H   0  0  0  0  0  0  0  0  0  0  0  0
   10.9746    5.4066   17.9274 H   0  0  0  0  0  0  0  0  0  0  0  0
   10.8461    3.6773   16.1272 H   0  0  0  0  0  0  0  0  0  0  0  0
   12.2269    3.9351   14.0540 H   0  0  0  0  0  0  0  0  0  0  0  0
  1  2  1  0
  1  5  1  0
  1 18  2  0
  2  3  1  0
  3  4  1  0
  5  6  1  0
  5  9  2  0
  6  7  2  0
  6  8  1  0
  7 11  1  0
  9 10  1  0
  9 11  1  0
 11 12  1  0
 12 13  2  0
 12 17  1  0
 13 14  1  0
 14 15  2  0
 15 16  1  0
 16 17  2  0
  3 19  1  0
  3 20  1  0
  4 21  1  0
  4 22  1  0
  4 23  1  0
  7 24  1  0
  8 25  1  0
  8 26  1  0
  8 27  1  0
 10 28  1  0
 10 29  1  0
 10 30  1  0
 13 31  1  0
 14 32  1  0
 15 33  1  0
 16 34  1  0
 17 35  1  0
M  CHG  1   7   1
A    1
C14
A    2
O15
A    3
C16
A    4
C17
A    5
C10
A    6
C11
A    7
N13
A    8
C12
A    9
C8
A   10
C9
A   11
N1
A   12
C2
A   13
C3
A   14
C4
A   15
C5
A   16
C6
A   17
C7
A   18
O1
M  END
