1Y2J_7DE_A_101
     RDKit          3D

 36 37  0  0  0  0  0  0  0  0999 V2000
   40.5100    1.5730   58.0170 O   0  0  0  0  0  0  0  0  0  0  0  0
   39.4690    1.4350   58.6870 N   0  0  0  0  0  0  0  0  0  0  0  0
   38.3310    1.5290   58.2130 O   0  0  0  0  0  0  0  0  0  0  0  0
   39.5810    1.9410   59.9600 C   0  0  0  0  0  0  0  0  0  0  0  0
   38.7710    3.0400   60.3140 C   0  0  0  0  0  0  0  0  0  0  0  0
   40.5230    1.4150   60.8710 C   0  0  0  0  0  0  0  0  0  0  0  0
   40.6190    2.0070   62.1120 C   0  0  0  0  0  0  0  0  0  0  0  0
   39.8070    3.0930   62.4330 C   0  0  0  0  0  0  0  0  0  0  0  0
   38.9030    3.6280   61.5470 C   0  0  0  0  0  0  0  0  0  0  0  0
   41.4210    1.6080   63.1290 N   0  0  0  0  0  0  0  0  0  0  0  0
   42.7150    1.7970   63.2960 C   0  0  0  0  0  0  0  0  0  0  0  0
   43.6570    2.4760   62.2900 C   0  0  0  0  0  0  0  0  0  0  0  0
   43.0610    1.2830   64.4920 C   0  0  0  0  0  0  0  0  0  0  0  0
   41.8130    0.7510   65.0610 C   0  0  0  0  0  0  0  0  0  0  0  0
   40.9010    0.9900   64.2090 N   0  0  0  0  0  0  0  0  0  0  0  0
   41.5330    0.0570   66.3610 C   0  0  0  0  0  0  0  0  0  0  0  0
   44.3980    1.2460   65.0920 C   0  0  0  0  0  0  0  0  0  0  0  0
   44.4900    0.8220   66.2330 O   0  0  0  0  0  0  0  0  0  0  0  0
   45.4470    1.2680   64.2470 O   0  0  0  0  0  0  0  0  0  0  0  0
   46.7720    1.2960   64.8090 C   0  0  0  0  0  0  0  0  0  0  0  0
   47.7820    1.7950   63.7440 C   0  0  0  0  0  0  0  0  0  0  0  0
   38.0304    3.4274   59.5989 H   0  0  0  0  0  0  0  0  0  0  0  0
   41.1597    0.5603   60.5990 H   0  0  0  0  0  0  0  0  0  0  0  0
   39.8930    3.5394   63.4347 H   0  0  0  0  0  0  0  0  0  0  0  0
   38.2997    4.5065   61.8195 H   0  0  0  0  0  0  0  0  0  0  0  0
   44.4327    3.0351   62.8338 H   0  0  0  0  0  0  0  0  0  0  0  0
   44.1316    1.7109   61.6580 H   0  0  0  0  0  0  0  0  0  0  0  0
   43.0812    3.1681   61.6580 H   0  0  0  0  0  0  0  0  0  0  0  0
   41.8008    0.7209   67.1962 H   0  0  0  0  0  0  0  0  0  0  0  0
   40.4635   -0.1934   66.4201 H   0  0  0  0  0  0  0  0  0  0  0  0
   42.1293   -0.8654   66.4201 H   0  0  0  0  0  0  0  0  0  0  0  0
   46.7877    1.9752   65.6741 H   0  0  0  0  0  0  0  0  0  0  0  0
   47.0527    0.2819   65.1297 H   0  0  0  0  0  0  0  0  0  0  0  0
   48.6596    2.2286   64.2457 H   0  0  0  0  0  0  0  0  0  0  0  0
   48.0993    0.9500   63.1153 H   0  0  0  0  0  0  0  0  0  0  0  0
   47.3037    2.5605   63.1153 H   0  0  0  0  0  0  0  0  0  0  0  0
  1  2  2  0
  2  3  1  0
  2  4  1  0
  4  5  2  0
  4  6  1  0
  5  9  1  0
  6  7  2  0
  7  8  1  0
  7 10  1  0
  8  9  2  0
 10 11  1  0
 10 15  1  0
 11 12  1  0
 11 13  2  0
 13 14  1  0
 13 17  1  0
 14 15  2  0
 14 16  1  0
 17 18  2  0
 17 19  1  0
 19 20  1  0
 20 21  1  0
  5 22  1  0
  6 23  1  0
  8 24  1  0
  9 25  1  0
 12 26  1  0
 12 27  1  0
 12 28  1  0
 16 29  1  0
 16 30  1  0
 16 31  1  0
 20 32  1  0
 20 33  1  0
 21 34  1  0
 21 35  1  0
 21 36  1  0
M  CHG  2   2   1   3  -1
A    1
O21
A    2
N19
A    3
O20
A    4
C12
A    5
C13
A    6
C11
A    7
C3
A    8
C2
A    9
C1
A   10
N4
A   11
C5
A   12
C6
A   13
C7
A   14
C8
A   15
N10
A   16
C9
A   17
C14
A   18
O18
A   19
O15
A   20
C16
A   21
C17
M  END
