1Y3V_UIR_A_1994
     RDKit          3D

 64 70  0  0  0  0  0  0  0  0999 V2000
   -5.0050    9.5760   19.7650 N   0  0  0  0  0  0  0  0  0  0  0  0
   -3.7030    9.3060   19.6770 C   0  0  0  0  0  0  0  0  0  0  0  0
   -3.1170    8.0720   20.1150 C   0  0  0  0  0  0  0  0  0  0  0  0
   -3.8920    7.0540   20.7060 C   0  0  0  0  0  0  0  0  0  0  0  0
   -3.2920    5.8550   21.1510 C   0  0  0  0  0  0  0  0  0  0  0  0
   -1.9090    5.6490   21.0040 C   0  0  0  0  0  0  0  0  0  0  0  0
   -1.1910    4.4450   21.5740 C   0  0  0  0  0  0  0  0  0  0  0  0
   -2.1760    3.3050   21.5640 N   0  0  0  0  0  0  0  0  0  0  0  0
   -2.4460    2.8260   20.1660 C   0  0  0  0  0  0  0  0  0  0  0  0
   -1.5110    1.6200   19.9570 C   0  0  0  0  0  0  0  0  0  0  0  0
   -0.7340    1.3720   21.2340 C   0  0  0  0  0  0  0  0  0  0  0  0
   -1.4180    2.2270   22.3140 C   0  0  0  0  0  0  0  0  0  0  0  0
   -0.3090    2.9280   23.1680 C   0  0  0  0  0  0  0  0  0  0  0  0
    0.4940    2.7300   25.7200 C   0  0  0  0  0  0  0  0  0  0  0  0
   -0.6240    2.6950   24.6950 C   0  0  0  0  0  0  0  0  0  0  0  0
    0.2860    1.8040   26.9260 C   0  0  0  0  0  0  0  0  0  0  0  0
    1.2960    1.4090   25.8160 C   0  0  0  0  0  0  0  0  0  0  0  0
   -1.6440    3.6600   24.9970 N   0  0  0  0  0  0  0  0  0  0  0  0
   -1.7000    4.6950   24.0870 C   0  0  0  0  0  0  0  0  0  0  0  0
   -2.5800    5.6260   24.1040 O   0  0  0  0  0  0  0  0  0  0  0  0
   -0.6290    4.4520   23.0030 C   0  0  0  0  0  0  0  0  0  0  0  0
   -2.7190    3.6930   26.0810 C   0  0  0  0  0  0  0  0  0  0  0  0
   -2.5080    4.8160   27.1010 C   0  0  0  0  0  0  0  0  0  0  0  0
   -1.3270    4.8670   27.8580 C   0  0  0  0  0  0  0  0  0  0  0  0
   -1.2080    5.9140   28.8680 C   0  0  0  0  0  0  0  0  0  0  0  0
   -0.1330    6.1430   29.7330 O   0  0  0  0  0  0  0  0  0  0  0  0
   -0.5430    7.3060   30.5080 C   0  0  0  0  0  0  0  0  0  0  0  0
   -1.8750    7.7250   30.0780 O   0  0  0  0  0  0  0  0  0  0  0  0
   -2.2380    6.8470   29.0790 C   0  0  0  0  0  0  0  0  0  0  0  0
   -3.4200    6.7870   28.3330 C   0  0  0  0  0  0  0  0  0  0  0  0
   -3.5400    5.7810   27.3440 C   0  0  0  0  0  0  0  0  0  0  0  0
   -1.1200    6.6400   20.3720 C   0  0  0  0  0  0  0  0  0  0  0  0
   -1.7320    7.8220   19.9390 C   0  0  0  0  0  0  0  0  0  0  0  0
   -2.9870   10.3480   19.1140 N   0  0  0  0  0  0  0  0  0  0  0  0
   -5.4505    9.6684   20.6891 H   0  0  0  0  0  0  0  0  0  0  0  0
   -5.5658    9.6923   18.9089 H   0  0  0  0  0  0  0  0  0  0  0  0
   -4.9768    7.1947   20.8221 H   0  0  0  0  0  0  0  0  0  0  0  0
   -3.9126    5.0753   21.6168 H   0  0  0  0  0  0  0  0  0  0  0  0
   -0.2984    4.3940   20.9331 H   0  0  0  0  0  0  0  0  0  0  0  0
   -3.4974    2.5202   20.0606 H   0  0  0  0  0  0  0  0  0  0  0  0
   -2.2661    3.6159   19.4219 H   0  0  0  0  0  0  0  0  0  0  0  0
   -2.1073    0.7295   19.7091 H   0  0  0  0  0  0  0  0  0  0  0  0
   -0.8139    1.8284   19.1320 H   0  0  0  0  0  0  0  0  0  0  0  0
   -0.7744    0.3070   21.5062 H   0  0  0  0  0  0  0  0  0  0  0  0
    0.3274    1.6374   21.1199 H   0  0  0  0  0  0  0  0  0  0  0  0
   -2.0701    1.6253   22.9642 H   0  0  0  0  0  0  0  0  0  0  0  0
    0.6965    2.5867   22.8809 H   0  0  0  0  0  0  0  0  0  0  0  0
    0.7487    3.7929   25.5963 H   0  0  0  0  0  0  0  0  0  0  0  0
   -0.9083    1.6375   24.7988 H   0  0  0  0  0  0  0  0  0  0  0  0
    0.6510    2.1049   27.9191 H   0  0  0  0  0  0  0  0  0  0  0  0
   -0.5847    1.3194   27.3919 H   0  0  0  0  0  0  0  0  0  0  0  0
    1.0695    0.5752   25.1352 H   0  0  0  0  0  0  0  0  0  0  0  0
    2.3617    1.1379   25.7894 H   0  0  0  0  0  0  0  0  0  0  0  0
    0.1608    5.2092   23.1163 H   0  0  0  0  0  0  0  0  0  0  0  0
   -3.6976    3.8364   25.5996 H   0  0  0  0  0  0  0  0  0  0  0  0
   -2.6647    2.7393   26.6265 H   0  0  0  0  0  0  0  0  0  0  0  0
   -0.5169    4.1409   27.6952 H   0  0  0  0  0  0  0  0  0  0  0  0
   -0.5662    7.0464   31.5767 H   0  0  0  0  0  0  0  0  0  0  0  0
    0.1718    8.1268   30.3487 H   0  0  0  0  0  0  0  0  0  0  0  0
   -4.2356    7.5034   28.5104 H   0  0  0  0  0  0  0  0  0  0  0  0
   -4.4584    5.7383   26.7401 H   0  0  0  0  0  0  0  0  0  0  0  0
   -0.0414    6.4834   20.2233 H   0  0  0  0  0  0  0  0  0  0  0  0
   -1.1153    8.5862   19.4433 H   0  0  0  0  0  0  0  0  0  0  0  0
   -1.9679   10.2647   18.9898 H   0  0  0  0  0  0  0  0  0  0  0  0
  1  2  1  0
  2  3  1  0
  2 34  2  3
  3  4  2  0
  3 33  1  0
  4  5  1  0
  5  6  2  0
  6  7  1  0
  6 32  1  0
  7  8  1  0
  7 21  1  0
  8  9  1  0
  8 12  1  0
  9 10  1  0
 10 11  1  0
 11 12  1  0
 12 13  1  0
 13 15  1  0
 13 21  1  0
 14 15  1  0
 14 16  1  0
 14 17  1  0
 15 18  1  0
 16 17  1  0
 18 19  1  0
 18 22  1  0
 19 20  2  0
 19 21  1  0
 22 23  1  0
 23 24  2  0
 23 31  1  0
 24 25  1  0
 25 26  1  0
 25 29  2  0
 26 27  1  0
 27 28  1  0
 28 29  1  0
 29 30  1  0
 30 31  2  0
 32 33  2  0
  1 35  1  0
  1 36  1  0
  4 37  1  0
  5 38  1  0
  7 39  1  0
  9 40  1  0
  9 41  1  0
 10 42  1  0
 10 43  1  0
 11 44  1  0
 11 45  1  0
 12 46  1  0
 13 47  1  0
 14 48  1  0
 15 49  1  0
 16 50  1  0
 16 51  1  0
 17 52  1  0
 17 53  1  0
 21 54  1  0
 22 55  1  0
 22 56  1  0
 24 57  1  0
 27 58  1  0
 27 59  1  0
 30 60  1  0
 31 61  1  0
 32 62  1  0
 33 63  1  0
 34 64  1  0
A    1
N1
A    2
C3
A    3
C4
A    4
C9
A    5
C8
A    6
C7
A    7
C10
A    8
N11
A    9
C12
A   10
C13
A   11
C14
A   12
C15
A   13
C16
A   14
C18
A   15
C17
A   16
C42
A   17
C41
A   18
N19
A   19
C20
A   20
O21
A   21
C22
A   22
C23
A   23
C24
A   24
C25
A   25
C26
A   26
O27
A   27
C28
A   28
O29
A   29
C30
A   30
C31
A   31
C32
A   32
C6
A   33
C5
A   34
N2
M  END
