1Y57_MPZ_A_600
     RDKit          3D

 65 69  0  0  0  0  0  0  0  0999 V2000
   22.0730   35.1300   38.6680 O   0  0  0  0  0  0  0  0  0  0  0  0
   20.9950   35.3360   39.2450 C   0  0  0  0  0  0  0  0  0  0  0  0
   20.2240   36.5780   38.9100 C   0  0  0  0  0  0  0  0  0  0  0  0
   20.7990   37.4960   38.0020 C   0  0  0  0  0  0  0  0  0  0  0  0
   20.1570   38.7040   37.6790 C   0  0  0  0  0  0  0  0  0  0  0  0
   18.9810   36.9540   39.5290 C   0  0  0  0  0  0  0  0  0  0  0  0
   18.3360   38.1650   39.1950 C   0  0  0  0  0  0  0  0  0  0  0  0
   18.9200   39.0550   38.2640 C   0  0  0  0  0  0  0  0  0  0  0  0
   18.2320   40.3620   37.8870 C   0  0  0  0  0  0  0  0  0  0  0  0
   18.3290   40.5980   36.4350 N   0  0  0  0  0  0  0  0  0  0  0  0
   17.8550   39.4450   35.6280 C   0  0  0  0  0  0  0  0  0  0  0  0
   18.1720   39.6900   34.1490 C   0  0  0  0  0  0  0  0  0  0  0  0
   17.6620   41.8550   36.0030 C   0  0  0  0  0  0  0  0  0  0  0  0
   17.9250   42.1120   34.5100 C   0  0  0  0  0  0  0  0  0  0  0  0
   17.5460   40.9440   33.6630 N   0  0  0  0  0  0  0  0  0  0  0  0
   17.8660   41.1570   32.2290 C   0  0  0  0  0  0  0  0  0  0  0  0
   20.4280   34.5480   40.1960 N   0  0  0  0  0  0  0  0  0  0  0  0
   20.9690   33.4100   40.8000 C   0  0  0  0  0  0  0  0  0  0  0  0
   22.3270   33.0360   40.9050 C   0  0  0  0  0  0  0  0  0  0  0  0
   22.6940   31.8920   41.6330 C   0  0  0  0  0  0  0  0  0  0  0  0
   21.7040   31.1370   42.2990 C   0  0  0  0  0  0  0  0  0  0  0  0
   20.3450   31.5220   42.2140 C   0  0  0  0  0  0  0  0  0  0  0  0
   20.0000   32.6560   41.4790 C   0  0  0  0  0  0  0  0  0  0  0  0
   19.4430   30.7210   42.8950 N   0  0  0  0  0  0  0  0  0  0  0  0
   18.0710   31.0040   43.0680 C   0  0  0  0  0  0  0  0  0  0  0  0
   17.4550   30.1080   43.8240 N   0  0  0  0  0  0  0  0  0  0  0  0
   16.1240   30.2340   44.0800 C   0  0  0  0  0  0  0  0  0  0  0  0
   15.4140   31.2760   43.5880 C   0  0  0  0  0  0  0  0  0  0  0  0
   16.0670   32.1800   42.8390 C   0  0  0  0  0  0  0  0  0  0  0  0
   17.3940   32.0500   42.5690 N   0  0  0  0  0  0  0  0  0  0  0  0
   15.3830   33.3380   42.2130 C   0  0  0  0  0  0  0  0  0  0  0  0
   15.9950   33.9830   41.1340 C   0  0  0  0  0  0  0  0  0  0  0  0
   15.3630   35.0670   40.5210 C   0  0  0  0  0  0  0  0  0  0  0  0
   14.1280   35.4790   40.9920 C   0  0  0  0  0  0  0  0  0  0  0  0
   13.5080   34.8720   42.0230 N   0  0  0  0  0  0  0  0  0  0  0  0
   14.1140   33.8210   42.6190 C   0  0  0  0  0  0  0  0  0  0  0  0
   21.7685   37.2603   37.5388 H   0  0  0  0  0  0  0  0  0  0  0  0
   20.6265   39.3887   36.9574 H   0  0  0  0  0  0  0  0  0  0  0  0
   18.5252   36.2867   40.2753 H   0  0  0  0  0  0  0  0  0  0  0  0
   17.3727   38.4178   39.6622 H   0  0  0  0  0  0  0  0  0  0  0  0
   17.1717   40.3087   38.1748 H   0  0  0  0  0  0  0  0  0  0  0  0
   18.7279   41.1897   38.4153 H   0  0  0  0  0  0  0  0  0  0  0  0
   18.3624   38.5289   35.9646 H   0  0  0  0  0  0  0  0  0  0  0  0
   16.7684   39.3311   35.7554 H   0  0  0  0  0  0  0  0  0  0  0  0
   19.2625   39.7621   34.0237 H   0  0  0  0  0  0  0  0  0  0  0  0
   17.7671   38.8510   33.5640 H   0  0  0  0  0  0  0  0  0  0  0  0
   16.5784   41.7672   36.1708 H   0  0  0  0  0  0  0  0  0  0  0  0
   18.0667   42.6943   36.5876 H   0  0  0  0  0  0  0  0  0  0  0  0
   17.3376   42.9860   34.1919 H   0  0  0  0  0  0  0  0  0  0  0  0
   19.0034   42.2870   34.3818 H   0  0  0  0  0  0  0  0  0  0  0  0
   18.7789   41.7647   32.1434 H   0  0  0  0  0  0  0  0  0  0  0  0
   18.0258   40.1844   31.7406 H   0  0  0  0  0  0  0  0  0  0  0  0
   17.0304   41.6797   31.7406 H   0  0  0  0  0  0  0  0  0  0  0  0
   19.4860   34.8227   40.5093 H   0  0  0  0  0  0  0  0  0  0  0  0
   23.1013   33.6438   40.4141 H   0  0  0  0  0  0  0  0  0  0  0  0
   23.7492   31.5854   41.6840 H   0  0  0  0  0  0  0  0  0  0  0  0
   21.9891   30.2499   42.8837 H   0  0  0  0  0  0  0  0  0  0  0  0
   18.9457   32.9659   41.4306 H   0  0  0  0  0  0  0  0  0  0  0  0
   19.8024   29.8487   43.3084 H   0  0  0  0  0  0  0  0  0  0  0  0
   15.6174   29.4769   44.6966 H   0  0  0  0  0  0  0  0  0  0  0  0
   14.3385   31.3791   43.7945 H   0  0  0  0  0  0  0  0  0  0  0  0
   16.9731   33.6370   40.7684 H   0  0  0  0  0  0  0  0  0  0  0  0
   15.8395   35.5860   39.6762 H   0  0  0  0  0  0  0  0  0  0  0  0
   13.6344   36.3338   40.5065 H   0  0  0  0  0  0  0  0  0  0  0  0
   13.6012   33.3201   43.4533 H   0  0  0  0  0  0  0  0  0  0  0  0
  1  2  2  0
  2  3  1  0
  2 17  1  0
  3  4  2  0
  3  6  1  0
  4  5  1  0
  5  8  2  0
  6  7  2  0
  7  8  1  0
  8  9  1  0
  9 10  1  0
 10 11  1  0
 10 13  1  0
 11 12  1  0
 12 15  1  0
 13 14  1  0
 14 15  1  0
 15 16  1  0
 17 18  1  0
 18 19  2  0
 18 23  1  0
 19 20  1  0
 20 21  2  0
 21 22  1  0
 22 23  2  0
 22 24  1  0
 24 25  1  0
 25 26  2  0
 25 30  1  0
 26 27  1  0
 27 28  2  0
 28 29  1  0
 29 30  2  0
 29 31  1  0
 31 32  2  0
 31 36  1  0
 32 33  1  0
 33 34  2  0
 34 35  1  0
 35 36  2  0
  4 37  1  0
  5 38  1  0
  6 39  1  0
  7 40  1  0
  9 41  1  0
  9 42  1  0
 11 43  1  0
 11 44  1  0
 12 45  1  0
 12 46  1  0
 13 47  1  0
 13 48  1  0
 14 49  1  0
 14 50  1  0
 16 51  1  0
 16 52  1  0
 16 53  1  0
 17 54  1  0
 19 55  1  0
 20 56  1  0
 21 57  1  0
 23 58  1  0
 24 59  1  0
 27 60  1  0
 28 61  1  0
 32 62  1  0
 33 63  1  0
 34 64  1  0
 36 65  1  0
A    1
O16
A    2
C15
A    3
C14
A    4
C13
A    5
C12
A    6
C11
A    7
C10
A    8
C09
A    9
C08
A   10
N07
A   11
C06
A   12
C05
A   13
C04
A   14
C03
A   15
NP2
A   16
C01
A   17
N17
A   18
C18
A   19
C19
A   20
C20
A   21
C21
A   22
C23
A   23
C22
A   24
N24
A   25
C25
A   26
N26
A   27
C27
A   28
C28
A   29
C30
A   30
N29
A   31
C31
A   32
C32
A   33
C36
A   34
C35
A   35
N34
A   36
C33
M  END
