1Y5A_TL2_T_790
     RDKit          3D

 50 53  0  0  0  0  0  0  0  0999 V2000
   12.0820   28.6260   40.7540 N   0  0  0  0  0  0  0  0  0  0  0  0
   11.4590   28.3970   39.5280 C   0  0  0  0  0  0  0  0  0  0  0  0
   12.2660   27.6350   38.4600 C   0  0  0  0  0  0  0  0  0  0  0  0
   11.6660   27.3080   37.2090 C   0  0  0  0  0  0  0  0  0  0  0  0
   12.4190   26.6500   36.2160 C   0  0  0  0  0  0  0  0  0  0  0  0
   13.6410   27.3260   38.6820 C   0  0  0  0  0  0  0  0  0  0  0  0
   14.3870   26.6220   37.7000 C   0  0  0  0  0  0  0  0  0  0  0  0
   13.7780   26.3260   36.4420 C   0  0  0  0  0  0  0  0  0  0  0  0
   14.4320   25.6340   35.3910 O   0  0  0  0  0  0  0  0  0  0  0  0
   15.4690   24.6410   35.7640 C   0  0  0  0  0  0  0  0  0  0  0  0
   15.0140   23.5390   36.7350 C   0  0  0  0  0  0  0  0  0  0  0  0
   14.3190   22.5740   35.8800 O   0  0  0  0  0  0  0  0  0  0  0  0
   15.8470   23.8200   34.5490 C   0  0  0  0  0  0  0  0  0  0  0  0
   14.7450   22.7770   34.5150 C   0  0  0  0  0  0  0  0  0  0  0  0
   15.5000   21.5340   33.9740 C   0  0  0  0  0  0  0  0  0  0  0  0
   14.8630   20.3420   34.5760 O   0  0  0  0  0  0  0  0  0  0  0  0
   17.1070   23.1250   34.6900 O   0  0  0  0  0  0  0  0  0  0  0  0
   13.2060   19.9740   32.7260 C   0  0  0  0  0  0  0  0  0  0  0  0
   16.8970   21.6990   34.6200 C   0  0  0  0  0  0  0  0  0  0  0  0
   13.7240   19.6990   34.0440 C   0  0  0  0  0  0  0  0  0  0  0  0
   13.1530   18.7010   34.8660 C   0  0  0  0  0  0  0  0  0  0  0  0
   11.2300   17.0150   35.3230 C   0  0  0  0  0  0  0  0  0  0  0  0
   11.9670   16.2810   36.2470 N   0  0  0  0  0  0  0  0  0  0  0  0
    9.9720   16.7960   35.2730 N   0  0  0  0  0  0  0  0  0  0  0  0
   12.0540   19.2710   32.3020 C   0  0  0  0  0  0  0  0  0  0  0  0
   11.4250   18.3220   33.1210 C   0  0  0  0  0  0  0  0  0  0  0  0
   11.9380   18.0310   34.4350 C   0  0  0  0  0  0  0  0  0  0  0  0
   10.2890   28.8410   39.3560 N   0  0  0  0  0  0  0  0  0  0  0  0
   11.5820   29.1314   41.4993 H   0  0  0  0  0  0  0  0  0  0  0  0
   10.6146   27.5694   37.0186 H   0  0  0  0  0  0  0  0  0  0  0  0
   11.9469   26.3863   35.2581 H   0  0  0  0  0  0  0  0  0  0  0  0
   14.1262   27.6350   39.6196 H   0  0  0  0  0  0  0  0  0  0  0  0
   15.4211   26.3084   37.9054 H   0  0  0  0  0  0  0  0  0  0  0  0
   16.2574   25.2645   36.2107 H   0  0  0  0  0  0  0  0  0  0  0  0
   15.8790   23.0716   37.2282 H   0  0  0  0  0  0  0  0  0  0  0  0
   14.3743   23.9253   37.5421 H   0  0  0  0  0  0  0  0  0  0  0  0
   15.9529   24.4557   33.6576 H   0  0  0  0  0  0  0  0  0  0  0  0
   13.8562   23.0234   33.9156 H   0  0  0  0  0  0  0  0  0  0  0  0
   15.5137   21.4387   32.8782 H   0  0  0  0  0  0  0  0  0  0  0  0
   13.6931   20.7097   32.0692 H   0  0  0  0  0  0  0  0  0  0  0  0
   16.9129   21.2555   35.6265 H   0  0  0  0  0  0  0  0  0  0  0  0
   17.6835   21.1923   34.0415 H   0  0  0  0  0  0  0  0  0  0  0  0
   13.6243   18.4340   35.8234 H   0  0  0  0  0  0  0  0  0  0  0  0
   12.9843   16.4230   36.3239 H   0  0  0  0  0  0  0  0  0  0  0  0
    9.4306   16.7018   36.1442 H   0  0  0  0  0  0  0  0  0  0  0  0
    9.4994   16.7137   34.3615 H   0  0  0  0  0  0  0  0  0  0  0  0
   11.6404   19.4741   31.3031 H   0  0  0  0  0  0  0  0  0  0  0  0
   10.5311   17.7948   32.7562 H   0  0  0  0  0  0  0  0  0  0  0  0
    9.6984   29.0651   40.1696 H   0  0  0  0  0  0  0  0  0  0  0  0
    9.9255   28.9789   38.4022 H   0  0  0  0  0  0  0  0  0  0  0  0
  1  2  2  3
  2  3  1  0
  2 28  1  0
  3  4  2  0
  3  6  1  0
  4  5  1  0
  5  8  2  0
  6  7  2  0
  7  8  1  0
  8  9  1  0
  9 10  1  0
 10 11  1  0
 10 13  1  0
 11 12  1  0
 12 14  1  0
 13 14  1  0
 13 17  1  0
 14 15  1  0
 15 16  1  0
 15 19  1  0
 16 20  1  0
 17 19  1  0
 18 20  2  0
 18 25  1  0
 20 21  1  0
 21 27  2  0
 22 23  2  3
 22 24  1  0
 22 27  1  0
 25 26  2  0
 26 27  1  0
  1 29  1  0
  4 30  1  0
  5 31  1  0
  6 32  1  0
  7 33  1  0
 10 34  1  0
 11 35  1  0
 11 36  1  0
 13 37  1  0
 14 38  1  0
 15 39  1  0
 18 40  1  0
 19 41  1  0
 19 42  1  0
 21 43  1  0
 23 44  1  0
 24 45  1  0
 24 46  1  0
 25 47  1  0
 26 48  1  0
 28 49  1  0
 28 50  1  0
A    1
N
A    2
C1
A    3
C2
A    4
C3
A    5
C4
A    6
C5
A    7
C6
A    8
C7
A    9
O8
A   10
C9
A   11
C10
A   12
O11
A   13
C11
A   14
C12
A   15
C13
A   16
O14
A   17
O15
A   18
C16
A   19
C17
A   20
C18
A   21
C20
A   22
C21
A   23
N22
A   24
N23
A   25
C24
A   26
C25
A   27
C26
A   28
N27
M  END
