1Y5B_TL3_T_720
     RDKit          3D

 50 53  0  0  0  0  0  0  0  0999 V2000
   12.0620   31.4870   25.1460 N   0  0  0  0  0  0  0  0  0  0  0  0
   12.2280   30.1880   25.2420 C   0  0  0  0  0  0  0  0  0  0  0  0
   12.2110   29.5840   26.4790 N   0  0  0  0  0  0  0  0  0  0  0  0
   12.2690   29.2570   24.0770 C   0  0  0  0  0  0  0  0  0  0  0  0
   13.1390   28.0850   24.1080 C   0  0  0  0  0  0  0  0  0  0  0  0
   13.1320   27.2190   22.9600 C   0  0  0  0  0  0  0  0  0  0  0  0
   12.2810   27.5490   21.8120 C   0  0  0  0  0  0  0  0  0  0  0  0
   12.1870   26.8070   20.6500 O   0  0  0  0  0  0  0  0  0  0  0  0
   12.8830   25.5180   20.5690 C   0  0  0  0  0  0  0  0  0  0  0  0
   12.8120   25.1970   19.0520 C   0  0  0  0  0  0  0  0  0  0  0  0
   11.6590   24.3370   18.8670 O   0  0  0  0  0  0  0  0  0  0  0  0
   11.3600   23.6650   20.1520 C   0  0  0  0  0  0  0  0  0  0  0  0
    9.8610   23.9730   20.4500 C   0  0  0  0  0  0  0  0  0  0  0  0
    9.3090   22.7510   21.0480 O   0  0  0  0  0  0  0  0  0  0  0  0
    9.0600   21.7600   20.0910 C   0  0  0  0  0  0  0  0  0  0  0  0
    9.0290   20.4150   20.5530 C   0  0  0  0  0  0  0  0  0  0  0  0
    8.7470   19.3830   19.6150 C   0  0  0  0  0  0  0  0  0  0  0  0
    8.5350   19.6810   18.2190 C   0  0  0  0  0  0  0  0  0  0  0  0
    8.2570   18.5960   17.2470 C   0  0  0  0  0  0  0  0  0  0  0  0
    8.5150   17.3480   17.5610 N   0  0  0  0  0  0  0  0  0  0  0  0
    7.4230   18.9260   16.1950 N   0  0  0  0  0  0  0  0  0  0  0  0
    8.5650   21.0330   17.7350 C   0  0  0  0  0  0  0  0  0  0  0  0
    8.8900   22.0640   18.6700 C   0  0  0  0  0  0  0  0  0  0  0  0
    9.8270   25.0280   21.5430 C   0  0  0  0  0  0  0  0  0  0  0  0
   11.0840   24.7330   22.2640 O   0  0  0  0  0  0  0  0  0  0  0  0
   12.1340   24.3270   21.2780 C   0  0  0  0  0  0  0  0  0  0  0  0
   11.4410   28.6960   21.8130 C   0  0  0  0  0  0  0  0  0  0  0  0
   11.4290   29.5280   22.9430 C   0  0  0  0  0  0  0  0  0  0  0  0
   12.0744   31.9408   24.2215 H   0  0  0  0  0  0  0  0  0  0  0  0
   12.2272   30.1592   27.3333 H   0  0  0  0  0  0  0  0  0  0  0  0
   12.1821   28.5569   26.5502 H   0  0  0  0  0  0  0  0  0  0  0  0
   13.7770   27.8720   24.9784 H   0  0  0  0  0  0  0  0  0  0  0  0
   13.7600   26.3161   22.9430 H   0  0  0  0  0  0  0  0  0  0  0  0
   13.8740   25.6018   21.0389 H   0  0  0  0  0  0  0  0  0  0  0  0
   12.6915   26.1242   18.4725 H   0  0  0  0  0  0  0  0  0  0  0  0
   13.7337   24.7069   18.7054 H   0  0  0  0  0  0  0  0  0  0  0  0
   11.6058   22.5947   20.0881 H   0  0  0  0  0  0  0  0  0  0  0  0
    9.3187   24.2961   19.5492 H   0  0  0  0  0  0  0  0  0  0  0  0
    9.2186   20.1784   21.6104 H   0  0  0  0  0  0  0  0  0  0  0  0
    8.6896   18.3400   19.9598 H   0  0  0  0  0  0  0  0  0  0  0  0
    8.3211   16.5960   16.8843 H   0  0  0  0  0  0  0  0  0  0  0  0
    6.4811   19.2987   16.3818 H   0  0  0  0  0  0  0  0  0  0  0  0
    7.7435   18.7992   15.2244 H   0  0  0  0  0  0  0  0  0  0  0  0
    8.3458   21.2665   16.6827 H   0  0  0  0  0  0  0  0  0  0  0  0
    9.0138   23.0984   18.3170 H   0  0  0  0  0  0  0  0  0  0  0  0
    9.8321   26.0445   21.1227 H   0  0  0  0  0  0  0  0  0  0  0  0
    8.9262   24.9968   22.1735 H   0  0  0  0  0  0  0  0  0  0  0  0
   12.8809   23.7271   21.8186 H   0  0  0  0  0  0  0  0  0  0  0  0
   10.8105   28.9276   20.9419 H   0  0  0  0  0  0  0  0  0  0  0  0
   10.7641   30.4041   22.9611 H   0  0  0  0  0  0  0  0  0  0  0  0
  1  2  2  3
  2  3  1  0
  2  4  1  0
  4  5  2  0
  4 28  1  0
  5  6  1  0
  6  7  2  0
  7  8  1  0
  7 27  1  0
  8  9  1  0
  9 10  1  0
  9 26  1  0
 10 11  1  0
 11 12  1  0
 12 13  1  0
 12 26  1  0
 13 14  1  0
 13 24  1  0
 14 15  1  0
 15 16  2  0
 15 23  1  0
 16 17  1  0
 17 18  2  0
 18 19  1  0
 18 22  1  0
 19 20  2  3
 19 21  1  0
 22 23  2  0
 24 25  1  0
 25 26  1  0
 27 28  2  0
  1 29  1  0
  3 30  1  0
  3 31  1  0
  5 32  1  0
  6 33  1  0
  9 34  1  0
 10 35  1  0
 10 36  1  0
 12 37  1  0
 13 38  1  0
 16 39  1  0
 17 40  1  0
 20 41  1  0
 21 42  1  0
 21 43  1  0
 22 44  1  0
 23 45  1  0
 24 46  1  0
 24 47  1  0
 26 48  1  0
 27 49  1  0
 28 50  1  0
A    1
N1
A    2
C1
A    3
N2
A    4
C2
A    5
C3
A    6
C4
A    7
C5
A    8
O1
A    9
C6
A   10
C7
A   11
O2
A   12
C8
A   13
C9
A   14
O3
A   15
C10
A   16
C11
A   17
C12
A   18
C13
A   19
C14
A   20
N3
A   21
N4
A   22
C15
A   23
C16
A   24
C17
A   25
O4
A   26
C18
A   27
C19
A   28
C20
M  END
