1Y5W_NEZ_A_500
     RDKit          3D

 41 44  0  0  0  0  0  0  0  0999 V2000
   14.7330   16.1440   19.0610 C   0  0  0  0  0  0  0  0  0  0  0  0
   16.0700   16.6260   19.5240 C   0  0  0  0  0  0  0  0  0  0  0  0
   16.4210   16.7110   20.9230 C   0  0  0  0  0  0  0  0  0  0  0  0
   15.4640   16.4110   21.9110 N   0  0  0  0  0  0  0  0  0  0  0  0
   15.7490   16.4950   23.1670 C   0  0  0  0  0  0  0  0  0  0  0  0
   14.8070   16.1600   24.0500 N   0  0  0  0  0  0  0  0  0  0  0  0
   16.9260   16.9340   23.6970 N   0  0  0  0  0  0  0  0  0  0  0  0
   17.9200   17.2490   22.8520 C   0  0  0  0  0  0  0  0  0  0  0  0
   19.0490   17.6060   23.1840 O   0  0  0  0  0  0  0  0  0  0  0  0
   17.6970   17.1760   21.3290 C   0  0  0  0  0  0  0  0  0  0  0  0
   18.7050   17.5310   20.3690 C   0  0  0  0  0  0  0  0  0  0  0  0
   18.3570   17.4220   19.0010 C   0  0  0  0  0  0  0  0  0  0  0  0
   19.0580   17.7160   17.8700 N   0  0  0  0  0  0  0  0  0  0  0  0
   18.2640   17.4690   16.8750 C   0  0  0  0  0  0  0  0  0  0  0  0
   17.1140   17.0790   17.2520 N   0  0  0  0  0  0  0  0  0  0  0  0
   17.0770   17.0010   18.5920 C   0  0  0  0  0  0  0  0  0  0  0  0
   13.8570   17.2790   18.5770 C   0  0  0  0  0  0  0  0  0  0  0  0
   12.6410   16.6190   17.9110 C   0  0  0  0  0  0  0  0  0  0  0  0
   12.2140   15.2840   18.2620 C   0  0  0  0  0  0  0  0  0  0  0  0
   11.0670   14.8150   17.5630 C   0  0  0  0  0  0  0  0  0  0  0  0
   10.4480   15.6380   16.6050 C   0  0  0  0  0  0  0  0  0  0  0  0
    9.2510   15.1890   15.8300 C   0  0  0  0  0  0  0  0  0  0  0  0
   10.8840   16.9480   16.2670 C   0  0  0  0  0  0  0  0  0  0  0  0
   12.0140   17.4480   16.9450 C   0  0  0  0  0  0  0  0  0  0  0  0
   14.8788   15.4313   18.2359 H   0  0  0  0  0  0  0  0  0  0  0  0
   14.2297   15.6670   19.9149 H   0  0  0  0  0  0  0  0  0  0  0  0
   14.9997   16.2285   25.0595 H   0  0  0  0  0  0  0  0  0  0  0  0
   13.8870   15.8328   23.7223 H   0  0  0  0  0  0  0  0  0  0  0  0
   17.0487   17.0213   24.7159 H   0  0  0  0  0  0  0  0  0  0  0  0
   19.7026   17.8722   20.6827 H   0  0  0  0  0  0  0  0  0  0  0  0
   20.0256   18.0649   17.8162 H   0  0  0  0  0  0  0  0  0  0  0  0
   18.5537   17.5843   15.8201 H   0  0  0  0  0  0  0  0  0  0  0  0
   13.5370   17.9032   19.4243 H   0  0  0  0  0  0  0  0  0  0  0  0
   14.3954   17.9333   17.8756 H   0  0  0  0  0  0  0  0  0  0  0  0
   12.7371   14.6752   19.0141 H   0  0  0  0  0  0  0  0  0  0  0  0
   10.6657   13.8122   17.7711 H   0  0  0  0  0  0  0  0  0  0  0  0
    8.4541   14.8901   16.5268 H   0  0  0  0  0  0  0  0  0  0  0  0
    8.8937   16.0142   15.1965 H   0  0  0  0  0  0  0  0  0  0  0  0
    9.5245   14.3324   15.1965 H   0  0  0  0  0  0  0  0  0  0  0  0
   10.3608   17.5472   15.5072 H   0  0  0  0  0  0  0  0  0  0  0  0
   12.4001   18.4555   16.7307 H   0  0  0  0  0  0  0  0  0  0  0  0
  1  2  1  0
  1 17  1  0
  2  3  2  0
  2 16  1  0
  3  4  1  0
  3 10  1  0
  4  5  2  0
  5  6  1  0
  5  7  1  0
  7  8  1  0
  8  9  2  0
  8 10  1  0
 10 11  2  0
 11 12  1  0
 12 13  1  0
 12 16  2  0
 13 14  1  0
 14 15  2  0
 15 16  1  0
 17 18  1  0
 18 19  2  0
 18 24  1  0
 19 20  1  0
 20 21  2  0
 21 22  1  0
 21 23  1  0
 23 24  2  0
  1 25  1  0
  1 26  1  0
  6 27  1  0
  6 28  1  0
  7 29  1  0
 11 30  1  0
 13 31  1  0
 14 32  1  0
 17 33  1  0
 17 34  1  0
 19 35  1  0
 20 36  1  0
 22 37  1  0
 22 38  1  0
 22 39  1  0
 23 40  1  0
 24 41  1  0
A    1
C14
A    2
C5
A    3
C4
A    4
N10
A    5
C9
A    6
N23
A    7
N8
A    8
C7
A    9
O22
A   10
C3
A   11
C2
A   12
C1
A   13
N11
A   14
C12
A   15
N13
A   16
C6
A   17
C15
A   18
C16
A   19
C17
A   20
C18
A   21
C19
A   22
C24
A   23
C20
A   24
C21
M  END
