1Y8J_STS_A_900
     RDKit          3D

 35 37  0  0  0  0  0  0  0  0999 V2000
  -22.2680   47.0650   12.1570 S   0  0  0  0  0  0  0  0  0  0  0  0
  -23.6700   47.5190   13.2150 C   0  0  0  0  0  0  0  0  0  0  0  0
  -23.3260   48.4650   14.3600 C   0  0  0  0  0  0  0  0  0  0  0  0
  -22.5670   47.7490   15.4130 C   0  0  0  0  0  0  0  0  0  0  0  0
  -22.8850   46.5320   15.8960 N   0  0  0  0  0  0  0  0  0  0  0  0
  -22.0020   46.1810   16.8310 C   0  0  0  0  0  0  0  0  0  0  0  0
  -21.0790   47.3090   16.9230 C   0  0  0  0  0  0  0  0  0  0  0  0
  -21.4740   48.2140   16.0290 N   0  0  0  0  0  0  0  0  0  0  0  0
  -20.0500   47.2190   17.8330 C   0  0  0  0  0  0  0  0  0  0  0  0
  -19.9280   46.0780   18.6180 C   0  0  0  0  0  0  0  0  0  0  0  0
  -20.7930   45.0560   18.5170 N   0  0  0  0  0  0  0  0  0  0  0  0
  -21.8270   45.0820   17.6580 C   0  0  0  0  0  0  0  0  0  0  0  0
  -24.6300   48.9810   14.9580 C   0  0  0  0  0  0  0  0  0  0  0  0
  -24.4000   50.2050   15.8060 C   0  0  0  0  0  0  0  0  0  0  0  0
  -24.6020   50.1580   17.1820 C   0  0  0  0  0  0  0  0  0  0  0  0
  -24.3980   51.2950   17.9590 C   0  0  0  0  0  0  0  0  0  0  0  0
  -23.9770   52.4770   17.3590 C   0  0  0  0  0  0  0  0  0  0  0  0
  -23.7810   52.5260   15.9830 C   0  0  0  0  0  0  0  0  0  0  0  0
  -23.9920   51.3880   15.2080 C   0  0  0  0  0  0  0  0  0  0  0  0
  -21.1984   46.7186   12.9399 H   0  0  0  0  0  0  0  0  0  0  0  0
  -24.4302   48.0051   12.5859 H   0  0  0  0  0  0  0  0  0  0  0  0
  -24.0230   46.5862   13.6790 H   0  0  0  0  0  0  0  0  0  0  0  0
  -22.7101   49.2932   13.9795 H   0  0  0  0  0  0  0  0  0  0  0  0
  -21.0161   49.1178   15.8435 H   0  0  0  0  0  0  0  0  0  0  0  0
  -19.3297   48.0437   17.9383 H   0  0  0  0  0  0  0  0  0  0  0  0
  -19.1014   46.0108   19.3406 H   0  0  0  0  0  0  0  0  0  0  0  0
  -20.6605   44.2279   19.1150 H   0  0  0  0  0  0  0  0  0  0  0  0
  -22.5295   44.2369   17.6116 H   0  0  0  0  0  0  0  0  0  0  0  0
  -25.3218   49.2361   14.1417 H   0  0  0  0  0  0  0  0  0  0  0  0
  -25.0537   48.1921   15.5968 H   0  0  0  0  0  0  0  0  0  0  0  0
  -24.9238   49.2196   17.6572 H   0  0  0  0  0  0  0  0  0  0  0  0
  -24.5694   51.2586   19.0450 H   0  0  0  0  0  0  0  0  0  0  0  0
  -23.7992   53.3726   17.9724 H   0  0  0  0  0  0  0  0  0  0  0  0
  -23.4592   53.4638   15.5065 H   0  0  0  0  0  0  0  0  0  0  0  0
  -23.8348   51.4276   14.1200 H   0  0  0  0  0  0  0  0  0  0  0  0
  1  2  1  0
  2  3  1  0
  3  4  1  0
  3 13  1  0
  4  5  2  0
  4  8  1  0
  5  6  1  0
  6  7  2  0
  6 12  1  0
  7  8  1  0
  7  9  1  0
  9 10  2  0
 10 11  1  0
 11 12  2  0
 13 14  1  0
 14 15  2  0
 14 19  1  0
 15 16  1  0
 16 17  2  0
 17 18  1  0
 18 19  2  0
  1 20  1  0
  2 21  1  0
  2 22  1  0
  3 23  1  0
  8 24  1  0
  9 25  1  0
 10 26  1  0
 11 27  1  0
 12 28  1  0
 13 29  1  0
 13 30  1  0
 15 31  1  0
 16 32  1  0
 17 33  1  0
 18 34  1  0
 19 35  1  0
M  CHG  1  11   1
A    1
S10
A    2
C2
A    3
C1
A    4
C11
A    5
N13
A    6
C15
A    7
C14
A    8
N12
A    9
C16
A   10
C19
A   11
N18
A   12
C17
A   13
C3
A   14
C4
A   15
C5
A   16
C6
A   17
C7
A   18
C8
A   19
C9
M  END
