1Y91_CT9_A_401
     RDKit          3D

 66 69  0  0  0  0  0  0  0  0999 V2000
   -2.6880   61.9650   14.0510 N   0  0  0  0  0  0  0  0  0  0  0  0
    5.7680   58.0480    5.9130 C   0  0  0  0  0  0  0  0  0  0  0  0
    7.0200   60.2790    6.6190 S   0  0  0  0  0  0  0  0  0  0  0  0
    6.2790   58.8860    7.0020 N   0  0  0  0  0  0  0  0  0  0  0  0
    6.1040   58.4520    8.3930 C   0  0  0  0  0  0  0  0  0  0  0  0
    7.6140   60.0770    5.2870 O   0  0  0  0  0  0  0  0  0  0  0  0
   -2.4050   62.2520   12.6290 C   0  0  0  0  0  0  0  0  0  0  0  0
   -1.1140   63.0730   12.5240 C   0  0  0  0  0  0  0  0  0  0  0  0
   -0.7830   63.3330   11.0650 C   0  0  0  0  0  0  0  0  0  0  0  0
   -2.2510   60.9320   11.8630 C   0  0  0  0  0  0  0  0  0  0  0  0
   -1.8910   61.2200   10.4060 C   0  0  0  0  0  0  0  0  0  0  0  0
   -0.5900   62.0090   10.3560 C   0  0  0  0  0  0  0  0  0  0  0  0
   -0.4040   62.3440    8.9680 N   0  0  0  0  0  0  0  0  0  0  0  0
    0.1690   63.4270    8.4180 C   0  0  0  0  0  0  0  0  0  0  0  0
    1.3490   63.3660    7.6900 C   0  0  0  0  0  0  0  0  0  0  0  0
   -0.4940   64.5770    8.5140 N   0  0  0  0  0  0  0  0  0  0  0  0
    0.0090   65.6570    7.9420 C   0  0  0  0  0  0  0  0  0  0  0  0
   -0.5190   66.9200    7.9650 C   0  0  0  0  0  0  0  0  0  0  0  0
   -1.7870   67.3040    8.6150 C   0  0  0  0  0  0  0  0  0  0  0  0
   -1.7940   67.6710   10.0740 C   0  0  0  0  0  0  0  0  0  0  0  0
   -2.9750   66.4940    8.2400 C   0  0  0  0  0  0  0  0  0  0  0  0
    0.3630   67.6870    7.2210 C   0  0  0  0  0  0  0  0  0  0  0  0
    1.1210   65.6480    7.2390 N   0  0  0  0  0  0  0  0  0  0  0  0
    1.3610   66.8780    6.7890 N   0  0  0  0  0  0  0  0  0  0  0  0
    1.8390   64.5330    7.0950 C   0  0  0  0  0  0  0  0  0  0  0  0
    2.9990   64.5790    6.3820 N   0  0  0  0  0  0  0  0  0  0  0  0
    3.9160   63.5980    6.4150 C   0  0  0  0  0  0  0  0  0  0  0  0
    4.2020   62.9750    7.6430 C   0  0  0  0  0  0  0  0  0  0  0  0
    5.1560   61.9770    7.6720 C   0  0  0  0  0  0  0  0  0  0  0  0
    4.5830   63.2140    5.2330 C   0  0  0  0  0  0  0  0  0  0  0  0
    5.5370   62.2000    5.2910 C   0  0  0  0  0  0  0  0  0  0  0  0
    5.8180   61.5930    6.5010 C   0  0  0  0  0  0  0  0  0  0  0  0
    7.9370   60.7000    7.6690 O   0  0  0  0  0  0  0  0  0  0  0  0
   -2.0977   62.5636   14.6461 H   0  0  0  0  0  0  0  0  0  0  0  0
   -3.6806   62.1562   14.2489 H   0  0  0  0  0  0  0  0  0  0  0  0
    5.2391   57.1807    6.3350 H   0  0  0  0  0  0  0  0  0  0  0  0
    5.0739   58.6349    5.2935 H   0  0  0  0  0  0  0  0  0  0  0  0
    6.6076   57.6997    5.2935 H   0  0  0  0  0  0  0  0  0  0  0  0
    6.4279   59.2552    9.0712 H   0  0  0  0  0  0  0  0  0  0  0  0
    5.0435   58.2236    8.5752 H   0  0  0  0  0  0  0  0  0  0  0  0
    6.7095   57.5519    8.5752 H   0  0  0  0  0  0  0  0  0  0  0  0
   -3.2355   62.8265   12.1929 H   0  0  0  0  0  0  0  0  0  0  0  0
   -1.2491   64.0329   13.0438 H   0  0  0  0  0  0  0  0  0  0  0  0
   -0.2895   62.5115   12.9875 H   0  0  0  0  0  0  0  0  0  0  0  0
   -1.6083   63.8864   10.5932 H   0  0  0  0  0  0  0  0  0  0  0  0
    0.1394   63.9282   10.9951 H   0  0  0  0  0  0  0  0  0  0  0  0
   -1.4529   60.3323   12.3250 H   0  0  0  0  0  0  0  0  0  0  0  0
   -3.1998   60.3766   11.9005 H   0  0  0  0  0  0  0  0  0  0  0  0
   -1.7664   60.2711    9.8638 H   0  0  0  0  0  0  0  0  0  0  0  0
   -2.6953   61.8052    9.9363 H   0  0  0  0  0  0  0  0  0  0  0  0
    0.2366   61.4384   10.8046 H   0  0  0  0  0  0  0  0  0  0  0  0
   -0.7638   61.6500    8.2974 H   0  0  0  0  0  0  0  0  0  0  0  0
    1.8905   62.4145    7.5826 H   0  0  0  0  0  0  0  0  0  0  0  0
   -1.8834   68.2867    8.1302 H   0  0  0  0  0  0  0  0  0  0  0  0
   -1.7765   66.7549   10.6826 H   0  0  0  0  0  0  0  0  0  0  0  0
   -0.9073   68.2804   10.3031 H   0  0  0  0  0  0  0  0  0  0  0  0
   -2.7033   68.2461   10.3031 H   0  0  0  0  0  0  0  0  0  0  0  0
   -3.4844   66.1467    9.1510 H   0  0  0  0  0  0  0  0  0  0  0  0
   -3.6660   67.1099    7.6457 H   0  0  0  0  0  0  0  0  0  0  0  0
   -2.6541   65.6258    7.6457 H   0  0  0  0  0  0  0  0  0  0  0  0
    0.2696   68.7638    7.0167 H   0  0  0  0  0  0  0  0  0  0  0  0
    3.1810   65.4029    5.7912 H   0  0  0  0  0  0  0  0  0  0  0  0
    3.6767   63.2764    8.5613 H   0  0  0  0  0  0  0  0  0  0  0  0
    5.3972   61.4801    8.6233 H   0  0  0  0  0  0  0  0  0  0  0  0
    4.3530   63.7086    4.2778 H   0  0  0  0  0  0  0  0  0  0  0  0
    6.0639   61.8840    4.3786 H   0  0  0  0  0  0  0  0  0  0  0  0
  1  7  1  0
  2  4  1  0
  3  4  1  0
  3  6  2  0
  3 32  1  0
  3 33  2  0
  4  5  1  0
  7  8  1  0
  7 10  1  0
  8  9  1  0
  9 12  1  0
 10 11  1  0
 11 12  1  0
 12 13  1  0
 13 14  1  0
 14 15  1  0
 14 16  2  0
 15 25  2  0
 16 17  1  0
 17 18  2  0
 17 23  1  0
 18 19  1  0
 18 22  1  0
 19 20  1  0
 19 21  1  0
 22 24  2  0
 23 24  1  0
 23 25  1  0
 25 26  1  0
 26 27  1  0
 27 28  2  0
 27 30  1  0
 28 29  1  0
 29 32  2  0
 30 31  2  0
 31 32  1  0
  1 34  1  0
  1 35  1  0
  2 36  1  0
  2 37  1  0
  2 38  1  0
  5 39  1  0
  5 40  1  0
  5 41  1  0
  7 42  1  0
  8 43  1  0
  8 44  1  0
  9 45  1  0
  9 46  1  0
 10 47  1  0
 10 48  1  0
 11 49  1  0
 11 50  1  0
 12 51  1  0
 13 52  1  0
 15 53  1  0
 19 54  1  0
 20 55  1  0
 20 56  1  0
 20 57  1  0
 21 58  1  0
 21 59  1  0
 21 60  1  0
 22 61  1  0
 26 62  1  0
 28 63  1  0
 29 64  1  0
 30 65  1  0
 31 66  1  0
A    1
N8
A    2
C61
A    3
S1
A    4
N6
A    5
C62
A    6
O2
A    7
C4
A    8
C5
A    9
C6
A   10
C3
A   11
C2
A   12
C1
A   13
N7
A   14
C7
A   15
C8
A   16
N1
A   17
C10
A   18
C11
A   19
C20
A   20
C21
A   21
C22
A   22
C12
A   23
N2
A   24
N3
A   25
C9
A   26
N5
A   27
C13
A   28
C18
A   29
C17
A   30
C14
A   31
C15
A   32
C16
A   33
O3
M  END
