1YA4_CTX_A_1
     RDKit          3D

 57 59  0  0  0  0  0  0  0  0999 V2000
   -1.5910   38.1990   37.8080 C   0  0  0  0  0  0  0  0  0  0  0  0
   -1.1130   39.6060   37.4220 C   0  0  0  0  0  0  0  0  0  0  0  0
    3.7350   43.7100   43.0990 O   0  0  0  0  0  0  0  0  0  0  0  0
    4.8010   44.6710   42.7510 C   0  0  0  0  0  0  0  0  0  0  0  0
    5.5470   45.1600   43.9930 C   0  0  0  0  0  0  0  0  0  0  0  0
    2.8570   43.1010   42.1950 C   0  0  0  0  0  0  0  0  0  0  0  0
    2.8480   43.3170   40.7510 C   0  0  0  0  0  0  0  0  0  0  0  0
    1.8950   42.6700   39.9440 C   0  0  0  0  0  0  0  0  0  0  0  0
    0.9180   41.5510   41.9310 C   0  0  0  0  0  0  0  0  0  0  0  0
    1.8780   42.1980   42.7790 C   0  0  0  0  0  0  0  0  0  0  0  0
    0.8970   41.7690   40.5050 C   0  0  0  0  0  0  0  0  0  0  0  0
   -0.2010   41.1000   39.5440 C   0  0  0  0  0  0  0  0  0  0  0  0
   -1.5900   41.5210   40.0130 C   0  0  0  0  0  0  0  0  0  0  0  0
   -2.5490   40.5390   40.4890 C   0  0  0  0  0  0  0  0  0  0  0  0
   -3.8390   40.9610   40.9300 C   0  0  0  0  0  0  0  0  0  0  0  0
   -4.1870   42.3410   40.9090 C   0  0  0  0  0  0  0  0  0  0  0  0
   -3.2510   43.3170   40.4440 C   0  0  0  0  0  0  0  0  0  0  0  0
   -1.9840   42.9180   40.0070 C   0  0  0  0  0  0  0  0  0  0  0  0
    3.2090   39.8190   36.2130 C   0  0  0  0  0  0  0  0  0  0  0  0
    4.0430   39.0660   37.0890 C   0  0  0  0  0  0  0  0  0  0  0  0
    3.5750   38.6820   38.3720 C   0  0  0  0  0  0  0  0  0  0  0  0
    2.2720   39.0500   38.7790 C   0  0  0  0  0  0  0  0  0  0  0  0
    1.4230   39.8090   37.9050 C   0  0  0  0  0  0  0  0  0  0  0  0
    1.9060   40.1900   36.6170 C   0  0  0  0  0  0  0  0  0  0  0  0
   -0.0040   40.2130   38.3510 C   0  0  0  0  0  0  0  0  0  0  0  0
    7.0640   45.2840   43.7180 N   0  0  0  0  0  0  0  0  0  0  0  0
    7.7110   44.0090   43.3150 C   0  0  0  0  0  0  0  0  0  0  0  0
    7.3830   46.3560   42.7110 C   0  0  0  0  0  0  0  0  0  0  0  0
   -1.6213   38.1099   38.9040 H   0  0  0  0  0  0  0  0  0  0  0  0
   -2.5975   38.0284   37.3983 H   0  0  0  0  0  0  0  0  0  0  0  0
   -0.8967   37.4506   37.3983 H   0  0  0  0  0  0  0  0  0  0  0  0
   -0.7122   39.5604   36.3986 H   0  0  0  0  0  0  0  0  0  0  0  0
   -1.9888   40.2640   37.5220 H   0  0  0  0  0  0  0  0  0  0  0  0
    5.5168   44.1805   42.0750 H   0  0  0  0  0  0  0  0  0  0  0  0
    4.3343   45.5409   42.2658 H   0  0  0  0  0  0  0  0  0  0  0  0
    5.1529   46.1448   44.2844 H   0  0  0  0  0  0  0  0  0  0  0  0
    5.3969   44.4292   44.8013 H   0  0  0  0  0  0  0  0  0  0  0  0
    3.5892   43.9882   40.2926 H   0  0  0  0  0  0  0  0  0  0  0  0
    1.9034   42.8493   38.8587 H   0  0  0  0  0  0  0  0  0  0  0  0
    0.1789   40.8711   42.3799 H   0  0  0  0  0  0  0  0  0  0  0  0
    1.8734   42.0122   43.8632 H   0  0  0  0  0  0  0  0  0  0  0  0
   -2.2813   39.4723   40.5095 H   0  0  0  0  0  0  0  0  0  0  0  0
   -4.5667   40.2174   41.2873 H   0  0  0  0  0  0  0  0  0  0  0  0
   -5.1824   42.6588   41.2527 H   0  0  0  0  0  0  0  0  0  0  0  0
   -3.5276   44.3816   40.4301 H   0  0  0  0  0  0  0  0  0  0  0  0
   -1.2721   43.6776   39.6518 H   0  0  0  0  0  0  0  0  0  0  0  0
    3.5799   40.1124   35.2198 H   0  0  0  0  0  0  0  0  0  0  0  0
    5.0559   38.7807   36.7686 H   0  0  0  0  0  0  0  0  0  0  0  0
    4.2220   38.1015   39.0461 H   0  0  0  0  0  0  0  0  0  0  0  0
    1.9061   38.7525   39.7728 H   0  0  0  0  0  0  0  0  0  0  0  0
    1.2646   40.7721   35.9390 H   0  0  0  0  0  0  0  0  0  0  0  0
    7.9980   43.4434   44.2137 H   0  0  0  0  0  0  0  0  0  0  0  0
    7.0061   43.4133   42.7164 H   0  0  0  0  0  0  0  0  0  0  0  0
    8.6080   44.2262   42.7164 H   0  0  0  0  0  0  0  0  0  0  0  0
    7.6586   47.2823   43.2364 H   0  0  0  0  0  0  0  0  0  0  0  0
    8.2226   46.0285   42.0803 H   0  0  0  0  0  0  0  0  0  0  0  0
    6.5009   46.5408   42.0803 H   0  0  0  0  0  0  0  0  0  0  0  0
  1  2  1  0
  2 25  1  0
  3  4  1  0
  3  6  1  0
  4  5  1  0
  5 26  1  0
  6  7  2  0
  6 10  1  0
  7  8  1  0
  8 11  2  0
  9 10  2  0
  9 11  1  0
 11 12  1  0
 12 13  1  0
 12 25  2  0
 13 14  2  0
 13 18  1  0
 14 15  1  0
 15 16  2  0
 16 17  1  0
 17 18  2  0
 19 20  2  0
 19 24  1  0
 20 21  1  0
 21 22  2  0
 22 23  1  0
 23 24  2  0
 23 25  1  0
 26 27  1  0
 26 28  1  0
  1 29  1  0
  1 30  1  0
  1 31  1  0
  2 32  1  0
  2 33  1  0
  4 34  1  0
  4 35  1  0
  5 36  1  0
  5 37  1  0
  7 38  1  0
  8 39  1  0
  9 40  1  0
 10 41  1  0
 14 42  1  0
 15 43  1  0
 16 44  1  0
 17 45  1  0
 18 46  1  0
 19 47  1  0
 20 48  1  0
 21 49  1  0
 22 50  1  0
 24 51  1  0
 27 52  1  0
 27 53  1  0
 27 54  1  0
 28 55  1  0
 28 56  1  0
 28 57  1  0
A    1
CA
A    2
CB
A    3
OL
A    4
CA1
A    5
CB1
A    6
C1
A    7
C2
A    8
C3
A    9
C5
A   10
C6
A   11
C4
A   12
C7
A   13
C8
A   14
C9
A   15
C10
A   16
C11
A   17
C12
A   18
C13
A   19
C14
A   20
C15
A   21
C16
A   22
C17
A   23
C18
A   24
C19
A   25
C20
A   26
NI
A   27
C21
A   28
C22
M  END
