1A7Y_EEE_A_104
     RDKit          3D

 14 13  0  0  0  0  0  0  0  0999 V2000
   20.1100    6.5490    6.7480 C   0  0  0  0  0  0  0  0  0  0  0  0
   19.8700    6.4380    5.2980 C   0  0  0  0  0  0  0  0  0  0  0  0
   21.1350    6.8860    7.2920 O   0  0  0  0  0  0  0  0  0  0  0  0
   18.9990    6.2810    7.4450 O   0  0  0  0  0  0  0  0  0  0  0  0
   19.1420    6.3960    8.9130 C   0  0  0  0  0  0  0  0  0  0  0  0
   18.0450    5.7800    9.5280 C   0  0  0  0  0  0  0  0  0  0  0  0
   18.8843    5.9821    5.1233 H   0  0  0  0  0  0  0  0  0  0  0  0
   19.8963    7.4397    4.8443 H   0  0  0  0  0  0  0  0  0  0  0  0
   20.6503    5.8093    4.8443 H   0  0  0  0  0  0  0  0  0  0  0  0
   20.0704    5.9003    9.2330 H   0  0  0  0  0  0  0  0  0  0  0  0
   19.1815    7.4571    9.2004 H   0  0  0  0  0  0  0  0  0  0  0  0
   18.1549    5.8417   10.6208 H   0  0  0  0  0  0  0  0  0  0  0  0
   17.1195    6.2903    9.2232 H   0  0  0  0  0  0  0  0  0  0  0  0
   17.9990    4.7241    9.2232 H   0  0  0  0  0  0  0  0  0  0  0  0
  1  2  1  0
  1  3  2  0
  1  4  1  0
  4  5  1  0
  5  6  1  0
  2  7  1  0
  2  8  1  0
  2  9  1  0
  5 10  1  0
  5 11  1  0
  6 12  1  0
  6 13  1  0
  6 14  1  0
A    1
C1
A    2
C2
A    3
O1
A    4
O2
A    5
C3
A    6
C4
M  END
