1N0H_CIE_A_695
     RDKit          3D

 42 43  0  0  0  0  0  0  0  0999 V2000
  -10.7680  105.9940   54.1380 C   0  0  0  0  0  0  0  0  0  0  0  0
  -11.9590  105.2190   54.5200 C   0  0  0  0  0  0  0  0  0  0  0  0
  -13.0240  105.8100   55.3380 C   0  0  0  0  0  0  0  0  0  0  0  0
  -12.9100  107.1850   55.7860 C   0  0  0  0  0  0  0  0  0  0  0  0
  -11.7530  107.9820   55.4340 C   0  0  0  0  0  0  0  0  0  0  0  0
  -10.6960  107.3960   54.6220 C   0  0  0  0  0  0  0  0  0  0  0  0
   -9.7540  105.2480   53.2840 C   0  0  0  0  0  0  0  0  0  0  0  0
   -9.6690  105.6110   52.1250 O   0  0  0  0  0  0  0  0  0  0  0  0
   -8.5200  105.3170   54.0010 O   0  0  0  0  0  0  0  0  0  0  0  0
   -7.4950  104.4300   53.4960 C   0  0  0  0  0  0  0  0  0  0  0  0
   -6.2380  104.5690   54.3330 C   0  0  0  0  0  0  0  0  0  0  0  0
  -12.4270  103.5200   54.1550 S   0  0  0  0  0  0  0  0  0  0  0  0
  -13.2790  102.9190   55.3740 O   0  0  0  0  0  0  0  0  0  0  0  0
  -12.8210  103.4680   52.7030 O   0  0  0  0  0  0  0  0  0  0  0  0
  -10.9430  102.6530   54.0420 N   0  0  0  0  0  0  0  0  0  0  0  0
  -10.1280  102.4280   55.0730 C   0  0  0  0  0  0  0  0  0  0  0  0
  -10.4100  102.8500   56.2000 O   0  0  0  0  0  0  0  0  0  0  0  0
   -9.0070  101.7580   54.8580 N   0  0  0  0  0  0  0  0  0  0  0  0
   -7.9060  101.6490   56.7800 N   0  0  0  0  0  0  0  0  0  0  0  0
   -7.9350  101.3270   55.4770 C   0  0  0  0  0  0  0  0  0  0  0  0
   -6.9490  100.6170   54.8370 N   0  0  0  0  0  0  0  0  0  0  0  0
   -5.8430  100.2070   55.5850 C   0  0  0  0  0  0  0  0  0  0  0  0
   -4.5550   99.3020   54.7970 Cl  0  0  0  0  0  0  0  0  0  0  0  0
   -5.7270  100.5120   57.0020 C   0  0  0  0  0  0  0  0  0  0  0  0
   -6.8640  101.2790   57.5490 C   0  0  0  0  0  0  0  0  0  0  0  0
   -6.8390  101.6070   58.8740 O   0  0  0  0  0  0  0  0  0  0  0  0
   -6.1270  101.5190   60.0660 C   0  0  0  0  0  0  0  0  0  0  0  0
  -13.9062  105.2123   55.6107 H   0  0  0  0  0  0  0  0  0  0  0  0
  -13.7097  107.6265   56.3988 H   0  0  0  0  0  0  0  0  0  0  0  0
  -11.6733  109.0238   55.7781 H   0  0  0  0  0  0  0  0  0  0  0  0
   -9.8205  108.0083   54.3600 H   0  0  0  0  0  0  0  0  0  0  0  0
   -7.8539  103.3914   53.5456 H   0  0  0  0  0  0  0  0  0  0  0  0
   -7.2678  104.6940   52.4526 H   0  0  0  0  0  0  0  0  0  0  0  0
   -6.5030  104.5397   55.4002 H   0  0  0  0  0  0  0  0  0  0  0  0
   -5.5509  103.7414   54.1030 H   0  0  0  0  0  0  0  0  0  0  0  0
   -5.7483  105.5268   54.1030 H   0  0  0  0  0  0  0  0  0  0  0  0
  -10.6679  102.2852   53.1201 H   0  0  0  0  0  0  0  0  0  0  0  0
   -8.9615  101.4810   53.8670 H   0  0  0  0  0  0  0  0  0  0  0  0
   -4.8675  100.1988   57.6129 H   0  0  0  0  0  0  0  0  0  0  0  0
   -6.8212  101.6048   60.9149 H   0  0  0  0  0  0  0  0  0  0  0  0
   -5.6086  100.5499   60.1128 H   0  0  0  0  0  0  0  0  0  0  0  0
   -5.3883  102.3327   60.1128 H   0  0  0  0  0  0  0  0  0  0  0  0
  1  2  2  0
  1  6  1  0
  1  7  1  0
  2  3  1  0
  2 12  1  0
  3  4  2  0
  4  5  1  0
  5  6  2  0
  7  8  2  0
  7  9  1  0
  9 10  1  0
 10 11  1  0
 12 13  2  0
 12 14  2  0
 12 15  1  0
 15 16  1  0
 16 17  2  0
 16 18  1  0
 18 20  1  0
 19 20  2  0
 19 25  1  0
 20 21  1  0
 21 22  2  0
 22 23  1  0
 22 24  1  0
 24 25  2  0
 25 26  1  0
 26 27  1  0
  3 28  1  0
  4 29  1  0
  5 30  1  0
  6 31  1  0
 10 32  1  0
 10 33  1  0
 11 34  1  0
 11 35  1  0
 11 36  1  0
 15 37  1  0
 18 38  1  0
 24 39  1  0
 27 40  1  0
 27 41  1  0
 27 42  1  0
A    1
C1
A    2
C2
A    3
C3
A    4
C4
A    5
C5
A    6
C6
A    7
C7
A    8
O7
A    9
O8
A   10
C9
A   11
C10
A   12
S11
A   13
OBA
A   14
OBB
A   15
N12
A   16
C13
A   17
O13
A   18
N14
A   19
N1'
A   20
C2'
A   21
N3'
A   22
C4'
A   23
CL4'
A   24
C5'
A   25
C6'
A   26
O7'
A   27
C8'
M  END
