1YBV_BEA_A_285
     RDKit          3D

 21 23  0  0  0  0  0  0  0  0999 V2000
   83.4350   15.9600   14.4960 C   0  0  0  0  0  0  0  0  0  0  0  0
   84.8600   16.4020   14.8470 C   0  0  0  0  0  0  0  0  0  0  0  0
   82.7110   16.6240   13.4800 C   0  0  0  0  0  0  0  0  0  0  0  0
   81.3990   16.2420   13.1290 C   0  0  0  0  0  0  0  0  0  0  0  0
   80.7660   15.1790   13.7850 C   0  0  0  0  0  0  0  0  0  0  0  0
   81.4870   14.5160   14.8020 C   0  0  0  0  0  0  0  0  0  0  0  0
   82.4110   13.1750   16.5650 C   0  0  0  0  0  0  0  0  0  0  0  0
   82.7820   14.8950   15.1460 C   0  0  0  0  0  0  0  0  0  0  0  0
   84.2950   13.9250   16.8390 C   0  0  0  0  0  0  0  0  0  0  0  0
   83.2120   14.0770   16.1410 N   0  0  0  0  0  0  0  0  0  0  0  0
   84.1900   12.9940   17.6960 N   0  0  0  0  0  0  0  0  0  0  0  0
   82.8820   12.4610   17.4900 N   0  0  0  0  0  0  0  0  0  0  0  0
   80.8350   13.1570   15.7340 S   0  0  0  0  0  0  0  0  0  0  0  0
   84.9741   16.4374   15.9405 H   0  0  0  0  0  0  0  0  0  0  0  0
   85.5804   15.6851   14.4262 H   0  0  0  0  0  0  0  0  0  0  0  0
   85.0482   17.4007   14.4262 H   0  0  0  0  0  0  0  0  0  0  0  0
   83.1839   17.4625   12.9477 H   0  0  0  0  0  0  0  0  0  0  0  0
   80.8683   16.7843   12.3326 H   0  0  0  0  0  0  0  0  0  0  0  0
   79.7442   14.8717   13.5177 H   0  0  0  0  0  0  0  0  0  0  0  0
   85.2013   14.5336   16.7037 H   0  0  0  0  0  0  0  0  0  0  0  0
   82.4297   11.6772   17.9818 H   0  0  0  0  0  0  0  0  0  0  0  0
  1  2  1  0
  1  3  2  0
  1  8  1  0
  3  4  1  0
  4  5  2  0
  5  6  1  0
  6  8  2  0
  6 13  1  0
  7 10  1  0
  7 12  2  0
  7 13  1  0
  8 10  1  0
  9 10  1  0
  9 11  2  0
 11 12  1  0
  2 14  1  0
  2 15  1  0
  2 16  1  0
  3 17  1  0
  4 18  1  0
  5 19  1  0
  9 20  1  0
 12 21  1  0
M  CHG  1  12   1
A    1
C1
A    2
C2
A    3
C3
A    4
C4
A    5
C5
A    6
C6
A    7
C7
A    8
C8
A    9
C9
A   10
N1
A   11
N2
A   12
N3
A   13
S
M  END
