1YC1_4BC_A_401
     RDKit          3D

 43 46  0  0  0  0  0  0  0  0999 V2000
    2.2240   35.5070   -4.3740 C   0  0  0  0  0  0  0  0  0  0  0  0
    2.9190   36.2840   -3.4530 C   0  0  0  0  0  0  0  0  0  0  0  0
    4.2550   36.5260   -3.3050 O   0  0  0  0  0  0  0  0  0  0  0  0
    4.3940   37.3790   -2.2370 C   0  0  0  0  0  0  0  0  0  0  0  0
    3.1580   37.6640   -1.7130 O   0  0  0  0  0  0  0  0  0  0  0  0
    2.2370   36.9820   -2.4570 C   0  0  0  0  0  0  0  0  0  0  0  0
    0.8510   36.9120   -2.3570 C   0  0  0  0  0  0  0  0  0  0  0  0
    0.1620   36.1260   -3.2760 C   0  0  0  0  0  0  0  0  0  0  0  0
    0.8380   35.4280   -4.2760 C   0  0  0  0  0  0  0  0  0  0  0  0
    0.1490   34.5980   -5.1600 C   0  0  0  0  0  0  0  0  0  0  0  0
    0.0490   34.6960   -6.5420 C   0  0  0  0  0  0  0  0  0  0  0  0
    0.6670   35.7460   -7.4670 C   0  0  0  0  0  0  0  0  0  0  0  0
    0.7830   35.4750   -8.6620 O   0  0  0  0  0  0  0  0  0  0  0  0
    1.0430   36.8370   -7.0350 O   0  0  0  0  0  0  0  0  0  0  0  0
   -0.7540   33.7190   -6.9620 N   0  0  0  0  0  0  0  0  0  0  0  0
   -0.6350   33.4940   -4.8430 C   0  0  0  0  0  0  0  0  0  0  0  0
   -1.1390   33.0470   -5.9970 N   0  0  0  0  0  0  0  0  0  0  0  0
   -0.7130   32.9160   -3.5760 C   0  0  0  0  0  0  0  0  0  0  0  0
    0.4280   32.7190   -2.7970 C   0  0  0  0  0  0  0  0  0  0  0  0
    0.3370   32.2030   -1.5060 C   0  0  0  0  0  0  0  0  0  0  0  0
    1.6230   31.8700   -0.7440 C   0  0  0  0  0  0  0  0  0  0  0  0
    1.9390   30.3770   -0.8750 C   0  0  0  0  0  0  0  0  0  0  0  0
   -0.9120   31.9090   -0.9690 C   0  0  0  0  0  0  0  0  0  0  0  0
   -1.0080   31.6250    0.3610 O   0  0  0  0  0  0  0  0  0  0  0  0
   -2.0550   32.0720   -1.7480 C   0  0  0  0  0  0  0  0  0  0  0  0
   -1.9510   32.5650   -3.0490 C   0  0  0  0  0  0  0  0  0  0  0  0
   -3.0640   32.6950   -3.8160 O   0  0  0  0  0  0  0  0  0  0  0  0
    2.7607   34.9643   -5.1661 H   0  0  0  0  0  0  0  0  0  0  0  0
    5.0176   36.9024   -1.4663 H   0  0  0  0  0  0  0  0  0  0  0  0
    4.8727   38.3107   -2.5728 H   0  0  0  0  0  0  0  0  0  0  0  0
    0.3135   37.4638   -1.5717 H   0  0  0  0  0  0  0  0  0  0  0  0
   -0.9338   36.0543   -3.2124 H   0  0  0  0  0  0  0  0  0  0  0  0
    1.1572   34.6008   -8.9373 H   0  0  0  0  0  0  0  0  0  0  0  0
   -1.0153   33.5486   -7.9436 H   0  0  0  0  0  0  0  0  0  0  0  0
    1.4152   32.9753   -3.2089 H   0  0  0  0  0  0  0  0  0  0  0  0
    2.4553   32.4563   -1.1607 H   0  0  0  0  0  0  0  0  0  0  0  0
    1.4868   32.1179    0.3190 H   0  0  0  0  0  0  0  0  0  0  0  0
    2.0330   29.9328    0.1269 H   0  0  0  0  0  0  0  0  0  0  0  0
    1.1268   29.8770   -1.4230 H   0  0  0  0  0  0  0  0  0  0  0  0
    2.8841   30.2490   -1.4230 H   0  0  0  0  0  0  0  0  0  0  0  0
   -0.7750   32.3142    1.0324 H   0  0  0  0  0  0  0  0  0  0  0  0
   -3.0414   31.8116   -1.3368 H   0  0  0  0  0  0  0  0  0  0  0  0
   -3.9507   32.7986   -3.3881 H   0  0  0  0  0  0  0  0  0  0  0  0
  1  2  2  0
  1  9  1  0
  2  3  1  0
  2  6  1  0
  3  4  1  0
  4  5  1  0
  5  6  1  0
  6  7  2  0
  7  8  1  0
  8  9  2  0
  9 10  1  0
 10 11  2  0
 10 16  1  0
 11 12  1  0
 11 15  1  0
 12 13  1  0
 12 14  2  0
 15 17  1  0
 16 17  2  0
 16 18  1  0
 18 19  2  0
 18 26  1  0
 19 20  1  0
 20 21  1  0
 20 23  2  0
 21 22  1  0
 23 24  1  0
 23 25  1  0
 25 26  2  0
 26 27  1  0
  1 28  1  0
  4 29  1  0
  4 30  1  0
  7 31  1  0
  8 32  1  0
 13 33  1  0
 15 34  1  0
 19 35  1  0
 21 36  1  0
 21 37  1  0
 22 38  1  0
 22 39  1  0
 22 40  1  0
 24 41  1  0
 25 42  1  0
 27 43  1  0
A    1
C15
A    2
C12
A    3
O17
A    4
C19
A    5
O18
A    6
C16
A    7
C22
A    8
C20
A    9
C8
A   10
C4
A   11
C1
A   12
C7
A   13
O21
A   14
O23
A   15
N5
A   16
C2
A   17
N3
A   18
C6
A   19
C10
A   20
C14
A   21
C26
A   22
C27
A   23
C13
A   24
O25
A   25
C11
A   26
C9
A   27
O24
M  END
