1YDR_IQP_E_351
     RDKit          3D

 37 39  0  0  0  0  0  0  0  0999 V2000
    6.9220    9.9070    3.2590 C   0  0  0  0  0  0  0  0  0  0  0  0
    7.2230    9.9710    1.8620 C   0  0  0  0  0  0  0  0  0  0  0  0
    6.2060   10.0250    0.8770 C   0  0  0  0  0  0  0  0  0  0  0  0
    4.8490   10.0170    1.2990 C   0  0  0  0  0  0  0  0  0  0  0  0
    4.5100    9.9570    2.6830 C   0  0  0  0  0  0  0  0  0  0  0  0
    3.1660    9.9490    3.1070 C   0  0  0  0  0  0  0  0  0  0  0  0
    2.8850    9.8900    4.4240 N   0  0  0  0  0  0  0  0  0  0  0  0
    3.8100    9.8370    5.4060 C   0  0  0  0  0  0  0  0  0  0  0  0
    5.1500    9.8420    5.0600 C   0  0  0  0  0  0  0  0  0  0  0  0
    5.5440    9.9020    3.6810 C   0  0  0  0  0  0  0  0  0  0  0  0
    8.2560    9.8400    4.4310 S   0  0  0  0  0  0  0  0  0  0  0  0
    7.8680    8.9110    5.4940 O   0  0  0  0  0  0  0  0  0  0  0  0
    8.4870   11.2270    4.7360 O   0  0  0  0  0  0  0  0  0  0  0  0
    9.4280    9.1390    3.5960 N   0  0  0  0  0  0  0  0  0  0  0  0
   10.7840    9.7940    3.7670 C   0  0  0  0  0  0  0  0  0  0  0  0
   11.2730    9.6590    5.2290 C   0  0  0  0  0  0  0  0  0  0  0  0
   11.8380    9.0210    2.9300 C   0  0  0  0  0  0  0  0  0  0  0  0
   11.6980    7.5310    3.1900 N   0  0  0  0  0  0  0  0  0  0  0  0
   10.3790    6.9420    2.8730 C   0  0  0  0  0  0  0  0  0  0  0  0
    9.3930    7.6540    3.8060 C   0  0  0  0  0  0  0  0  0  0  0  0
    8.2757    9.9785    1.5429 H   0  0  0  0  0  0  0  0  0  0  0  0
    6.4614   10.0721   -0.1919 H   0  0  0  0  0  0  0  0  0  0  0  0
    4.0477   10.0577    0.5465 H   0  0  0  0  0  0  0  0  0  0  0  0
    2.3520    9.9906    2.3683 H   0  0  0  0  0  0  0  0  0  0  0  0
    3.5042    9.7907    6.4616 H   0  0  0  0  0  0  0  0  0  0  0  0
    5.9178    9.7997    5.8465 H   0  0  0  0  0  0  0  0  0  0  0  0
   10.6802   10.8464    3.4643 H   0  0  0  0  0  0  0  0  0  0  0  0
   10.4444    9.8878    5.9154 H   0  0  0  0  0  0  0  0  0  0  0  0
   11.6221    8.6309    5.4054 H   0  0  0  0  0  0  0  0  0  0  0  0
   12.1001   10.3624    5.4054 H   0  0  0  0  0  0  0  0  0  0  0  0
   11.6771    9.2233    1.8608 H   0  0  0  0  0  0  0  0  0  0  0  0
   12.8474    9.3500    3.2178 H   0  0  0  0  0  0  0  0  0  0  0  0
   12.4061    7.0436    2.6226 H   0  0  0  0  0  0  0  0  0  0  0  0
   10.1166    7.1250    1.8206 H   0  0  0  0  0  0  0  0  0  0  0  0
   10.3684    5.8512    3.0148 H   0  0  0  0  0  0  0  0  0  0  0  0
    9.6615    7.4322    4.8494 H   0  0  0  0  0  0  0  0  0  0  0  0
    8.3780    7.2932    3.5832 H   0  0  0  0  0  0  0  0  0  0  0  0
  1  2  2  0
  1 10  1  0
  1 11  1  0
  2  3  1  0
  3  4  2  0
  4  5  1  0
  5  6  1  0
  5 10  2  0
  6  7  2  0
  7  8  1  0
  8  9  2  0
  9 10  1  0
 11 12  2  0
 11 13  2  0
 11 14  1  0
 14 15  1  0
 14 20  1  0
 15 16  1  0
 15 17  1  0
 17 18  1  0
 18 19  1  0
 19 20  1  0
  2 21  1  0
  3 22  1  0
  4 23  1  0
  6 24  1  0
  8 25  1  0
  9 26  1  0
 15 27  1  0
 16 28  1  0
 16 29  1  0
 16 30  1  0
 17 31  1  0
 17 32  1  0
 18 33  1  0
 19 34  1  0
 19 35  1  0
 20 36  1  0
 20 37  1  0
A    1
C1
A    2
C2
A    3
C3
A    4
C4
A    5
C5
A    6
C6
A    7
N7
A    8
C8
A    9
C9
A   10
C10
A   11
S
A   12
O1
A   13
O2
A   14
N1'
A   15
C2'
A   16
CM2
A   17
C3'
A   18
N4'
A   19
C5'
A   20
C6'
M  END
