1YDS_IQS_E_351
     RDKit          3D

 33 34  0  0  0  0  0  0  0  0999 V2000
    6.9860   10.1780    2.9890 C   0  0  0  0  0  0  0  0  0  0  0  0
    7.1340   10.1760    1.5900 C   0  0  0  0  0  0  0  0  0  0  0  0
    6.0160   10.0210    0.7520 C   0  0  0  0  0  0  0  0  0  0  0  0
    4.7310    9.8660    1.2740 C   0  0  0  0  0  0  0  0  0  0  0  0
    4.5640    9.8650    2.6710 C   0  0  0  0  0  0  0  0  0  0  0  0
    3.2910    9.7100    3.2190 C   0  0  0  0  0  0  0  0  0  0  0  0
    3.1280    9.7070    4.5750 N   0  0  0  0  0  0  0  0  0  0  0  0
    4.1840    9.8510    5.3990 C   0  0  0  0  0  0  0  0  0  0  0  0
    5.4830   10.0090    4.9180 C   0  0  0  0  0  0  0  0  0  0  0  0
    5.6870   10.0190    3.5340 C   0  0  0  0  0  0  0  0  0  0  0  0
    8.4470   10.3740    3.9930 S   0  0  0  0  0  0  0  0  0  0  0  0
    8.1500   11.4220    4.9350 O   0  0  0  0  0  0  0  0  0  0  0  0
    9.5850   10.4810    3.1000 O   0  0  0  0  0  0  0  0  0  0  0  0
    8.4810    9.0070    4.8510 N   0  0  0  0  0  0  0  0  0  0  0  0
    9.0040    7.7420    4.3380 C   0  0  0  0  0  0  0  0  0  0  0  0
    9.9790    7.9390    3.1780 C   0  0  0  0  0  0  0  0  0  0  0  0
   11.1750    7.0990    3.3810 N   0  0  0  0  0  0  0  0  0  0  0  0
   12.3100    7.9960    3.6460 C   0  0  0  0  0  0  0  0  0  0  0  0
    8.1339   10.2969    1.1477 H   0  0  0  0  0  0  0  0  0  0  0  0
    6.1571   10.0219   -0.3389 H   0  0  0  0  0  0  0  0  0  0  0  0
    3.8653    9.7469    0.6059 H   0  0  0  0  0  0  0  0  0  0  0  0
    2.4188    9.5902    2.5596 H   0  0  0  0  0  0  0  0  0  0  0  0
    4.0160    9.8437    6.4861 H   0  0  0  0  0  0  0  0  0  0  0  0
    6.3291   10.1233    5.6116 H   0  0  0  0  0  0  0  0  0  0  0  0
    9.0337    9.2182    5.6941 H   0  0  0  0  0  0  0  0  0  0  0  0
    9.5265    7.2199    5.1531 H   0  0  0  0  0  0  0  0  0  0  0  0
    8.1522    7.1559    3.9626 H   0  0  0  0  0  0  0  0  0  0  0  0
    9.4880    7.6534    2.2360 H   0  0  0  0  0  0  0  0  0  0  0  0
   10.2812    8.9958    3.1335 H   0  0  0  0  0  0  0  0  0  0  0  0
   11.0300    6.4698    4.1835 H   0  0  0  0  0  0  0  0  0  0  0  0
   12.4464    8.1038    4.7322 H   0  0  0  0  0  0  0  0  0  0  0  0
   13.2232    7.5729    3.2020 H   0  0  0  0  0  0  0  0  0  0  0  0
   12.1094    8.9822    3.2020 H   0  0  0  0  0  0  0  0  0  0  0  0
  1  2  2  0
  1 10  1  0
  1 11  1  0
  2  3  1  0
  3  4  2  0
  4  5  1  0
  5  6  1  0
  5 10  2  0
  6  7  2  0
  7  8  1  0
  8  9  2  0
  9 10  1  0
 11 12  2  0
 11 13  2  0
 11 14  1  0
 14 15  1  0
 15 16  1  0
 16 17  1  0
 17 18  1  0
  2 19  1  0
  3 20  1  0
  4 21  1  0
  6 22  1  0
  8 23  1  0
  9 24  1  0
 14 25  1  0
 15 26  1  0
 15 27  1  0
 16 28  1  0
 16 29  1  0
 17 30  1  0
 18 31  1  0
 18 32  1  0
 18 33  1  0
A    1
C1
A    2
C2
A    3
C3
A    4
C4
A    5
C5
A    6
C6
A    7
N7
A    8
C8
A    9
C9
A   10
C10
A   11
S
A   12
O1
A   13
O2
A   14
N1'
A   15
C2'
A   16
C3'
A   17
N4'
A   18
C5'
M  END
