1YFW_4AA_A_401
     RDKit          3D

 18 18  0  0  0  0  0  0  0  0999 V2000
    6.4580   26.0730    5.3120 O   0  0  0  0  0  0  0  0  0  0  0  0
    7.0940   25.3950    6.1170 C   0  0  0  0  0  0  0  0  0  0  0  0
    6.4930   24.8630    7.0480 O   0  0  0  0  0  0  0  0  0  0  0  0
    8.6080   25.2150    5.9680 C   0  0  0  0  0  0  0  0  0  0  0  0
    9.3290   26.0470    5.1160 C   0  0  0  0  0  0  0  0  0  0  0  0
   10.7050   25.8860    4.9730 C   0  0  0  0  0  0  0  0  0  0  0  0
   11.3650   24.8870    5.6830 C   0  0  0  0  0  0  0  0  0  0  0  0
   13.0770   24.6880    5.5310 Cl  0  0  0  0  0  0  0  0  0  0  0  0
   10.6460   24.0520    6.5320 C   0  0  0  0  0  0  0  0  0  0  0  0
   11.2910   23.0560    7.1980 O   0  0  0  0  0  0  0  0  0  0  0  0
    9.2720   24.2180    6.6790 C   0  0  0  0  0  0  0  0  0  0  0  0
    8.6000   23.4260    7.5110 N   0  0  0  0  0  0  0  0  0  0  0  0
    5.8180   26.7553    5.6361 H   0  0  0  0  0  0  0  0  0  0  0  0
    8.8091   26.8359    4.5526 H   0  0  0  0  0  0  0  0  0  0  0  0
   11.2697   26.5476    4.2997 H   0  0  0  0  0  0  0  0  0  0  0  0
   11.2975   23.0459    8.1879 H   0  0  0  0  0  0  0  0  0  0  0  0
    8.7007   23.5447    8.5292 H   0  0  0  0  0  0  0  0  0  0  0  0
    7.9792   22.6943    7.1368 H   0  0  0  0  0  0  0  0  0  0  0  0
  1  2  1  0
  2  3  2  0
  2  4  1  0
  4  5  2  0
  4 11  1  0
  5  6  1  0
  6  7  2  0
  7  8  1  0
  7  9  1  0
  9 10  1  0
  9 11  2  0
 11 12  1  0
  1 13  1  0
  5 14  1  0
  6 15  1  0
 10 16  1  0
 12 17  1  0
 12 18  1  0
A    1
OAB
A    2
CAH
A    3
OAC
A    4
CAL
A    5
CAG
A    6
CAF
A    7
CAJ
A    8
CLAE
A    9
CAK
A   10
OAD
A   11
CAI
A   12
NAA
M  END
