1T9B_P22_A_1702
     RDKit          3D

 19 18  0  0  0  0  0  0  0  0999 V2000
   26.3370   36.0990  132.4090 C   0  0  0  0  0  0  0  0  0  0  0  0
   26.6150   37.1420  131.3280 C   0  0  0  0  0  0  0  0  0  0  0  0
   27.2900   38.1480  130.8480 O   0  0  0  0  0  0  0  0  0  0  0  0
   27.6700   39.3800  131.4560 P   0  0  0  0  0  0  0  0  0  0  0  0
   28.4090   40.1820  130.5530 O   0  0  0  0  0  0  0  0  0  0  0  0
   26.4680   40.1030  131.9130 O   0  0  0  0  0  0  0  0  0  0  0  0
   28.5390   39.0370  132.7850 O   0  0  0  0  0  0  0  0  0  0  0  0
   29.9320   38.2820  133.0130 P   0  0  0  0  0  0  0  0  0  0  0  0
   29.5190   36.8960  133.3910 O   0  0  0  0  0  0  0  0  0  0  0  0
   30.5540   39.1610  134.0410 O   0  0  0  0  0  0  0  0  0  0  0  0
   30.7050   38.3360  131.7560 O   0  0  0  0  0  0  0  0  0  0  0  0
   26.4593   36.5578  133.4013 H   0  0  0  0  0  0  0  0  0  0  0  0
   25.3079   35.7254  132.3021 H   0  0  0  0  0  0  0  0  0  0  0  0
   27.0436   35.2628  132.3021 H   0  0  0  0  0  0  0  0  0  0  0  0
   26.7376   36.4544  130.4781 H   0  0  0  0  0  0  0  0  0  0  0  0
   26.0159   37.8593  131.9081 H   0  0  0  0  0  0  0  0  0  0  0  0
   28.9846   40.8067  131.0615 H   0  0  0  0  0  0  0  0  0  0  0  0
   29.4952   36.8162  134.3775 H   0  0  0  0  0  0  0  0  0  0  0  0
   31.6704   38.4034  131.9649 H   0  0  0  0  0  0  0  0  0  0  0  0
  1  2  1  0
  2  3  1  0
  3  4  1  0
  4  5  1  0
  4  6  2  0
  4  7  1  0
  7  8  1  0
  8  9  1  0
  8 10  2  0
  8 11  1  0
  1 12  1  0
  1 13  1  0
  1 14  1  0
  2 15  1  0
  2 16  1  0
  5 17  1  0
  9 18  1  0
 11 19  1  0
A    1
C6
A    2
C7
A    3
O7
A    4
PA
A    5
O1A
A    6
O2A
A    7
O3A
A    8
PB
A    9
O1B
A   10
O2B
A   11
O3B
M  END
