1YIM_CM4_A_600
     RDKit          3D

 64 68  0  0  0  0  0  0  0  0999 V2000
   31.3460   -0.6100   28.4010 C   0  0  0  0  0  0  0  0  0  0  0  0
   31.5340   -2.0300   27.8620 C   0  0  0  0  0  0  0  0  0  0  0  0
   30.3010   -2.7370   28.1140 O   0  0  0  0  0  0  0  0  0  0  0  0
   29.1000   -2.2340   27.7600 C   0  0  0  0  0  0  0  0  0  0  0  0
   28.0750   -3.1540   27.5580 C   0  0  0  0  0  0  0  0  0  0  0  0
   26.8040   -2.7160   27.1840 C   0  0  0  0  0  0  0  0  0  0  0  0
   26.5410   -1.3560   27.0290 C   0  0  0  0  0  0  0  0  0  0  0  0
   25.2990   -0.9880   26.6280 O   0  0  0  0  0  0  0  0  0  0  0  0
   27.5700   -0.4280   27.2480 C   0  0  0  0  0  0  0  0  0  0  0  0
   28.8790   -0.8580   27.6130 C   0  0  0  0  0  0  0  0  0  0  0  0
   30.0470    0.1100   27.8480 C   0  0  0  0  0  0  0  0  0  0  0  0
   29.5970    1.3180   28.6670 C   0  0  0  0  0  0  0  0  0  0  0  0
   32.6670    0.1540   28.2350 C   0  0  0  0  0  0  0  0  0  0  0  0
   32.8850    1.0110   27.1460 C   0  0  0  0  0  0  0  0  0  0  0  0
   34.1260    1.6730   27.0850 C   0  0  0  0  0  0  0  0  0  0  0  0
   35.1250    1.4780   28.0530 C   0  0  0  0  0  0  0  0  0  0  0  0
   36.3070    2.1470   27.9560 O   0  0  0  0  0  0  0  0  0  0  0  0
   34.9060    0.6090   29.1230 C   0  0  0  0  0  0  0  0  0  0  0  0
   33.6440   -0.0110   29.2310 C   0  0  0  0  0  0  0  0  0  0  0  0
   31.9270   -2.2230   26.4040 C   0  0  0  0  0  0  0  0  0  0  0  0
   32.8980   -3.1820   26.1170 C   0  0  0  0  0  0  0  0  0  0  0  0
   33.2790   -3.4380   24.7830 C   0  0  0  0  0  0  0  0  0  0  0  0
   32.7690   -2.6670   23.7490 C   0  0  0  0  0  0  0  0  0  0  0  0
   31.7900   -1.7100   23.9950 C   0  0  0  0  0  0  0  0  0  0  0  0
   31.3900   -1.5180   25.3250 C   0  0  0  0  0  0  0  0  0  0  0  0
   33.1060   -2.9180   22.4710 O   0  0  0  0  0  0  0  0  0  0  0  0
   33.7120   -4.1590   22.1090 C   0  0  0  0  0  0  0  0  0  0  0  0
   34.0200   -4.1880   20.6120 C   0  0  0  0  0  0  0  0  0  0  0  0
   32.7970   -4.2870   19.8050 N   0  0  0  0  0  0  0  0  0  0  0  0
   33.2080   -4.3320   18.3910 C   0  0  0  0  0  0  0  0  0  0  0  0
   32.0240   -3.8010   17.5810 C   0  0  0  0  0  0  0  0  0  0  0  0
   31.0960   -3.1580   18.6210 C   0  0  0  0  0  0  0  0  0  0  0  0
   31.9200   -3.1100   19.9150 C   0  0  0  0  0  0  0  0  0  0  0  0
   31.1279   -0.6422   29.4787 H   0  0  0  0  0  0  0  0  0  0  0  0
   32.4184   -2.4129   28.3922 H   0  0  0  0  0  0  0  0  0  0  0  0
   28.2674   -4.2285   27.6935 H   0  0  0  0  0  0  0  0  0  0  0  0
   26.0032   -3.4499   27.0101 H   0  0  0  0  0  0  0  0  0  0  0  0
   24.6025   -0.7816   27.3006 H   0  0  0  0  0  0  0  0  0  0  0  0
   27.3637    0.6467   27.1365 H   0  0  0  0  0  0  0  0  0  0  0  0
   30.3621    0.5027   26.8700 H   0  0  0  0  0  0  0  0  0  0  0  0
   29.6831    1.0869   29.7390 H   0  0  0  0  0  0  0  0  0  0  0  0
   30.2335    2.1821   28.4259 H   0  0  0  0  0  0  0  0  0  0  0  0
   28.5502    1.5551   28.4259 H   0  0  0  0  0  0  0  0  0  0  0  0
   32.1180    1.1596   26.3717 H   0  0  0  0  0  0  0  0  0  0  0  0
   34.3196    2.3653   26.2524 H   0  0  0  0  0  0  0  0  0  0  0  0
   36.7898    2.4203   28.7759 H   0  0  0  0  0  0  0  0  0  0  0  0
   35.6966    0.4130   29.8623 H   0  0  0  0  0  0  0  0  0  0  0  0
   33.4209   -0.6341   30.1096 H   0  0  0  0  0  0  0  0  0  0  0  0
   33.3703   -3.7430   26.9369 H   0  0  0  0  0  0  0  0  0  0  0  0
   33.9839   -4.2530   24.5619 H   0  0  0  0  0  0  0  0  0  0  0  0
   31.3459   -1.1252   23.1760 H   0  0  0  0  0  0  0  0  0  0  0  0
   30.6096   -0.7703   25.5298 H   0  0  0  0  0  0  0  0  0  0  0  0
   34.6479   -4.2831   22.6736 H   0  0  0  0  0  0  0  0  0  0  0  0
   33.0155   -4.9771   22.3448 H   0  0  0  0  0  0  0  0  0  0  0  0
   34.5521   -3.2645   20.3401 H   0  0  0  0  0  0  0  0  0  0  0  0
   34.6373   -5.0751   20.4072 H   0  0  0  0  0  0  0  0  0  0  0  0
   34.0930   -3.6984   18.2315 H   0  0  0  0  0  0  0  0  0  0  0  0
   33.4744   -5.3545   18.0851 H   0  0  0  0  0  0  0  0  0  0  0  0
   32.3603   -3.0540   16.8469 H   0  0  0  0  0  0  0  0  0  0  0  0
   31.5212   -4.5955   17.0100 H   0  0  0  0  0  0  0  0  0  0  0  0
   30.8090   -2.1433   18.3078 H   0  0  0  0  0  0  0  0  0  0  0  0
   30.1621   -3.7253   18.7474 H   0  0  0  0  0  0  0  0  0  0  0  0
   31.2695   -3.1851   20.7989 H   0  0  0  0  0  0  0  0  0  0  0  0
   32.4771   -2.1691   20.0346 H   0  0  0  0  0  0  0  0  0  0  0  0
  1  2  1  0
  1 11  1  0
  1 13  1  0
  2  3  1  0
  2 20  1  0
  3  4  1  0
  4  5  2  0
  4 10  1  0
  5  6  1  0
  6  7  2  0
  7  8  1  0
  7  9  1  0
  9 10  2  0
 10 11  1  0
 11 12  1  0
 13 14  2  0
 13 19  1  0
 14 15  1  0
 15 16  2  0
 16 17  1  0
 16 18  1  0
 18 19  2  0
 20 21  2  0
 20 25  1  0
 21 22  1  0
 22 23  2  0
 23 24  1  0
 23 26  1  0
 24 25  2  0
 26 27  1  0
 27 28  1  0
 28 29  1  0
 29 30  1  0
 29 33  1  0
 30 31  1  0
 31 32  1  0
 32 33  1  0
  1 34  1  0
  2 35  1  0
  5 36  1  0
  6 37  1  0
  8 38  1  0
  9 39  1  0
 11 40  1  0
 12 41  1  0
 12 42  1  0
 12 43  1  0
 14 44  1  0
 15 45  1  0
 17 46  1  0
 18 47  1  0
 19 48  1  0
 21 49  1  0
 22 50  1  0
 24 51  1  0
 25 52  1  0
 27 53  1  0
 27 54  1  0
 28 55  1  0
 28 56  1  0
 30 57  1  0
 30 58  1  0
 31 59  1  0
 31 60  1  0
 32 61  1  0
 32 62  1  0
 33 63  1  0
 33 64  1  0
A    1
C1
A    2
C2
A    3
O3
A    4
C4
A    5
C5
A    6
C6
A    7
C7
A    8
O8
A    9
C9
A   10
C10
A   11
C11
A   12
C12
A   13
C13
A   14
C14
A   15
C15
A   16
C16
A   17
O17
A   18
C18
A   19
C19
A   20
C20
A   21
C21
A   22
C22
A   23
C23
A   24
C24
A   25
C25
A   26
O26
A   27
C27
A   28
C28
A   29
N29
A   30
C30
A   31
C31
A   32
C32
A   33
C33
M  END
