1YIN_CM3_A_600
     RDKit          3D

 67 71  0  0  0  0  0  0  0  0999 V2000
   31.6210   -0.6210   28.6400 C   0  0  0  0  0  0  0  0  0  0  0  0
   31.8330   -2.0240   28.0610 C   0  0  0  0  0  0  0  0  0  0  0  0
   30.6400   -2.7870   28.3210 O   0  0  0  0  0  0  0  0  0  0  0  0
   29.4410   -2.2870   27.9800 C   0  0  0  0  0  0  0  0  0  0  0  0
   28.4330   -3.2210   27.7310 C   0  0  0  0  0  0  0  0  0  0  0  0
   27.1510   -2.8180   27.3690 C   0  0  0  0  0  0  0  0  0  0  0  0
   26.8740   -1.4530   27.2950 C   0  0  0  0  0  0  0  0  0  0  0  0
   25.6620   -0.9880   26.9460 O   0  0  0  0  0  0  0  0  0  0  0  0
   27.8990   -0.5180   27.5150 C   0  0  0  0  0  0  0  0  0  0  0  0
   27.5490    0.7480   27.2810 F   0  0  0  0  0  0  0  0  0  0  0  0
   29.1880   -0.8950   27.9400 C   0  0  0  0  0  0  0  0  0  0  0  0
   30.3160    0.0960   28.1990 C   0  0  0  0  0  0  0  0  0  0  0  0
   30.0890    1.2720   29.1370 C   0  0  0  0  0  0  0  0  0  0  0  0
   32.8780    0.1900   28.4110 C   0  0  0  0  0  0  0  0  0  0  0  0
   33.0590    1.0830   27.3400 C   0  0  0  0  0  0  0  0  0  0  0  0
   34.2620    1.7710   27.2220 C   0  0  0  0  0  0  0  0  0  0  0  0
   35.2990    1.6110   28.1500 C   0  0  0  0  0  0  0  0  0  0  0  0
   36.4490    2.2950   28.0270 O   0  0  0  0  0  0  0  0  0  0  0  0
   35.1090    0.7340   29.2160 C   0  0  0  0  0  0  0  0  0  0  0  0
   33.9160    0.0370   29.3330 C   0  0  0  0  0  0  0  0  0  0  0  0
   32.1580   -2.1330   26.5970 C   0  0  0  0  0  0  0  0  0  0  0  0
   33.1300   -3.0690   26.2250 C   0  0  0  0  0  0  0  0  0  0  0  0
   33.4680   -3.2650   24.8800 C   0  0  0  0  0  0  0  0  0  0  0  0
   32.9170   -2.4700   23.8620 C   0  0  0  0  0  0  0  0  0  0  0  0
   31.9340   -1.5420   24.2310 C   0  0  0  0  0  0  0  0  0  0  0  0
   31.5560   -1.4070   25.5560 C   0  0  0  0  0  0  0  0  0  0  0  0
   33.2650   -2.6090   22.5640 O   0  0  0  0  0  0  0  0  0  0  0  0
   33.8820   -3.8390   22.1460 C   0  0  0  0  0  0  0  0  0  0  0  0
   34.1240   -3.9240   20.6370 C   0  0  0  0  0  0  0  0  0  0  0  0
   32.9400   -4.2260   19.8050 N   0  0  0  0  0  0  0  0  0  0  0  0
   33.4730   -4.2610   18.4430 C   0  0  0  0  0  0  0  0  0  0  0  0
   32.3580   -4.7450   17.5420 C   0  0  0  0  0  0  0  0  0  0  0  0
   31.4390   -3.5320   17.3630 C   0  0  0  0  0  0  0  0  0  0  0  0
   30.8770   -3.1910   18.7650 C   0  0  0  0  0  0  0  0  0  0  0  0
   31.9440   -3.1510   19.8850 C   0  0  0  0  0  0  0  0  0  0  0  0
   31.4500   -0.7302   29.7211 H   0  0  0  0  0  0  0  0  0  0  0  0
   32.7372   -2.4011   28.5612 H   0  0  0  0  0  0  0  0  0  0  0  0
   28.6563   -4.2942   27.8226 H   0  0  0  0  0  0  0  0  0  0  0  0
   26.3716   -3.5614   27.1456 H   0  0  0  0  0  0  0  0  0  0  0  0
   25.0079   -0.7370   27.6454 H   0  0  0  0  0  0  0  0  0  0  0  0
   30.3831    0.5582   27.2031 H   0  0  0  0  0  0  0  0  0  0  0  0
   30.1555    0.9276   30.1796 H   0  0  0  0  0  0  0  0  0  0  0  0
   30.8556    2.0396   28.9548 H   0  0  0  0  0  0  0  0  0  0  0  0
   29.0918    1.6991   28.9548 H   0  0  0  0  0  0  0  0  0  0  0  0
   32.2571    1.2359   26.6028 H   0  0  0  0  0  0  0  0  0  0  0  0
   34.4030    2.4601   26.3762 H   0  0  0  0  0  0  0  0  0  0  0  0
   36.9401    2.5871   28.8355 H   0  0  0  0  0  0  0  0  0  0  0  0
   35.9040    0.5948   29.9634 H   0  0  0  0  0  0  0  0  0  0  0  0
   33.7832   -0.6566   30.1764 H   0  0  0  0  0  0  0  0  0  0  0  0
   33.6368   -3.6604   27.0018 H   0  0  0  0  0  0  0  0  0  0  0  0
   34.1811   -4.0596   24.6151 H   0  0  0  0  0  0  0  0  0  0  0  0
   31.4588   -0.9157   23.4616 H   0  0  0  0  0  0  0  0  0  0  0  0
   30.7498   -0.7010   25.8042 H   0  0  0  0  0  0  0  0  0  0  0  0
   34.8505   -3.9336   22.6589 H   0  0  0  0  0  0  0  0  0  0  0  0
   33.1880   -4.6517   22.4066 H   0  0  0  0  0  0  0  0  0  0  0  0
   34.5292   -2.9562   20.3065 H   0  0  0  0  0  0  0  0  0  0  0  0
   34.8096   -4.7724   20.4948 H   0  0  0  0  0  0  0  0  0  0  0  0
   33.7950   -3.2545   18.1377 H   0  0  0  0  0  0  0  0  0  0  0  0
   34.3450   -4.9286   18.3805 H   0  0  0  0  0  0  0  0  0  0  0  0
   32.7595   -5.0726   16.5717 H   0  0  0  0  0  0  0  0  0  0  0  0
   31.8258   -5.6075   17.9696 H   0  0  0  0  0  0  0  0  0  0  0  0
   32.0091   -2.6795   16.9651 H   0  0  0  0  0  0  0  0  0  0  0  0
   30.6276   -3.7508   16.6532 H   0  0  0  0  0  0  0  0  0  0  0  0
   30.3952   -2.2035   18.7124 H   0  0  0  0  0  0  0  0  0  0  0  0
   30.1742   -3.9955   19.0274 H   0  0  0  0  0  0  0  0  0  0  0  0
   31.4298   -3.2284   20.8544 H   0  0  0  0  0  0  0  0  0  0  0  0
   32.4908   -2.2038   19.7673 H   0  0  0  0  0  0  0  0  0  0  0  0
  1  2  1  0
  1 12  1  0
  1 14  1  0
  2  3  1  0
  2 21  1  0
  3  4  1  0
  4  5  2  0
  4 11  1  0
  5  6  1  0
  6  7  2  0
  7  8  1  0
  7  9  1  0
  9 10  1  0
  9 11  2  0
 11 12  1  0
 12 13  1  0
 14 15  2  0
 14 20  1  0
 15 16  1  0
 16 17  2  0
 17 18  1  0
 17 19  1  0
 19 20  2  0
 21 22  2  0
 21 26  1  0
 22 23  1  0
 23 24  2  0
 24 25  1  0
 24 27  1  0
 25 26  2  0
 27 28  1  0
 28 29  1  0
 29 30  1  0
 30 31  1  0
 30 35  1  0
 31 32  1  0
 32 33  1  0
 33 34  1  0
 34 35  1  0
  1 36  1  0
  2 37  1  0
  5 38  1  0
  6 39  1  0
  8 40  1  0
 12 41  1  0
 13 42  1  0
 13 43  1  0
 13 44  1  0
 15 45  1  0
 16 46  1  0
 18 47  1  0
 19 48  1  0
 20 49  1  0
 22 50  1  0
 23 51  1  0
 25 52  1  0
 26 53  1  0
 28 54  1  0
 28 55  1  0
 29 56  1  0
 29 57  1  0
 31 58  1  0
 31 59  1  0
 32 60  1  0
 32 61  1  0
 33 62  1  0
 33 63  1  0
 34 64  1  0
 34 65  1  0
 35 66  1  0
 35 67  1  0
A    1
C1
A    2
C2
A    3
O3
A    4
C4
A    5
C5
A    6
C6
A    7
C7
A    8
O8
A    9
C9
A   10
F10
A   11
C11
A   12
C12
A   13
C13
A   14
C14
A   15
C15
A   16
C16
A   17
C17
A   18
O18
A   19
C19
A   20
C20
A   21
C21
A   22
C22
A   23
C23
A   24
C24
A   25
C25
A   26
C26
A   27
O27
A   28
C28
A   29
C29
A   30
N30
A   31
C31
A   32
C32
A   33
C33
A   34
C34
A   35
C35
M  END
