1YKI_NFZ_A_1219
     RDKit          3D

 20 20  0  0  0  0  0  0  0  0999 V2000
    5.1800    6.7080   49.6260 O   0  0  0  0  0  0  0  0  0  0  0  0
    5.7400    6.9480   48.5860 C   0  0  0  0  0  0  0  0  0  0  0  0
    6.8590    7.6750   48.5100 N   0  0  0  0  0  0  0  0  0  0  0  0
    5.1920    6.4490   47.4950 N   0  0  0  0  0  0  0  0  0  0  0  0
    5.5170    6.8550   46.2980 N   0  0  0  0  0  0  0  0  0  0  0  0
    4.8170    6.4240   45.3340 C   0  0  0  0  0  0  0  0  0  0  0  0
    5.1430    6.9010   44.0030 C   0  0  0  0  0  0  0  0  0  0  0  0
    4.4740    6.6680   42.8640 C   0  0  0  0  0  0  0  0  0  0  0  0
    5.1810    7.3790   41.8180 C   0  0  0  0  0  0  0  0  0  0  0  0
    6.2800    7.7650   43.8140 O   0  0  0  0  0  0  0  0  0  0  0  0
    6.2270    7.9930   42.3980 C   0  0  0  0  0  0  0  0  0  0  0  0
    7.1330    8.7440   41.8060 N   0  0  0  0  0  0  0  0  0  0  0  0
    7.0130    9.0810   40.4640 O   0  0  0  0  0  0  0  0  0  0  0  0
    8.0730    9.1480   42.4760 O   0  0  0  0  0  0  0  0  0  0  0  0
    7.3327    7.9828   49.3713 H   0  0  0  0  0  0  0  0  0  0  0  0
    7.2476    7.9275   47.5902 H   0  0  0  0  0  0  0  0  0  0  0  0
    4.4803    5.7107   47.5914 H   0  0  0  0  0  0  0  0  0  0  0  0
    3.9928    5.7146   45.4999 H   0  0  0  0  0  0  0  0  0  0  0  0
    3.5668    6.0571   42.7470 H   0  0  0  0  0  0  0  0  0  0  0  0
    4.9128    7.4104   40.7517 H   0  0  0  0  0  0  0  0  0  0  0  0
  1  2  2  0
  2  3  1  0
  2  4  1  0
  4  5  1  0
  5  6  2  0
  6  7  1  0
  7  8  2  0
  7 10  1  0
  8  9  1  0
  9 11  2  0
 10 11  1  0
 11 12  1  0
 12 13  2  0
 12 14  1  0
  3 15  1  0
  3 16  1  0
  4 17  1  0
  6 18  1  0
  8 19  1  0
  9 20  1  0
M  CHG  2  12   1  14  -1
A    1
O4
A    2
C6
A    3
N4
A    4
N3
A    5
N2
A    6
C5
A    7
C3
A    8
C4
A    9
C2
A   10
O3
A   11
C1
A   12
N1
A   13
O1
A   14
O2
M  END
