1YNH_SUO_A_1001
     RDKit          3D

 32 31  0  0  0  0  0  0  0  0999 V2000
   11.1160   54.3740   72.8160 N   0  0  0  0  0  0  0  0  0  0  0  0
    9.7000   54.7000   72.8850 C   0  0  0  0  0  0  0  0  0  0  0  0
    9.5150   56.2140   73.0570 C   0  0  0  0  0  0  0  0  0  0  0  0
    8.0710   56.6300   73.3050 C   0  0  0  0  0  0  0  0  0  0  0  0
    7.8980   58.1480   73.3000 C   0  0  0  0  0  0  0  0  0  0  0  0
    6.4620   58.5220   73.5270 N   0  0  0  0  0  0  0  0  0  0  0  0
    8.9690   54.2130   71.6330 C   0  0  0  0  0  0  0  0  0  0  0  0
    9.6260   54.0340   70.5730 O   0  0  0  0  0  0  0  0  0  0  0  0
   10.7630   52.2020   73.2230 O   0  0  0  0  0  0  0  0  0  0  0  0
    7.7450   54.0090   71.7310 O   0  0  0  0  0  0  0  0  0  0  0  0
   13.0320   52.8840   72.8450 C   0  0  0  0  0  0  0  0  0  0  0  0
   13.5280   51.6980   73.6790 C   0  0  0  0  0  0  0  0  0  0  0  0
   14.9430   51.2720   73.3090 C   0  0  0  0  0  0  0  0  0  0  0  0
   15.2720   51.2930   72.1070 O   0  0  0  0  0  0  0  0  0  0  0  0
   15.7280   50.9190   74.2110 O   0  0  0  0  0  0  0  0  0  0  0  0
   11.5350   53.1260   72.9780 C   0  0  0  0  0  0  0  0  0  0  0  0
   11.8019   55.1218   72.6391 H   0  0  0  0  0  0  0  0  0  0  0  0
    9.2667   54.1871   73.7563 H   0  0  0  0  0  0  0  0  0  0  0  0
   10.1231   56.5432   73.9125 H   0  0  0  0  0  0  0  0  0  0  0  0
    9.8279   56.6853   72.1136 H   0  0  0  0  0  0  0  0  0  0  0  0
    7.4377   56.1988   72.5157 H   0  0  0  0  0  0  0  0  0  0  0  0
    7.7794   56.2605   74.2992 H   0  0  0  0  0  0  0  0  0  0  0  0
    8.5149   58.5838   74.0997 H   0  0  0  0  0  0  0  0  0  0  0  0
    8.2123   58.5353   72.3196 H   0  0  0  0  0  0  0  0  0  0  0  0
    6.2757   58.5705   74.5388 H   0  0  0  0  0  0  0  0  0  0  0  0
    6.2745   59.4399   73.0990 H   0  0  0  0  0  0  0  0  0  0  0  0
   10.5801   53.7741   70.6199 H   0  0  0  0  0  0  0  0  0  0  0  0
   13.5631   53.7893   73.1741 H   0  0  0  0  0  0  0  0  0  0  0  0
   13.2326   52.6481   71.7895 H   0  0  0  0  0  0  0  0  0  0  0  0
   13.5125   51.9834   74.7412 H   0  0  0  0  0  0  0  0  0  0  0  0
   12.8607   50.8471   73.4775 H   0  0  0  0  0  0  0  0  0  0  0  0
   16.2278   51.3540   71.8564 H   0  0  0  0  0  0  0  0  0  0  0  0
  1  2  1  0
  1 16  1  0
  2  3  1  0
  2  7  1  0
  3  4  1  0
  4  5  1  0
  5  6  1  0
  7  8  1  0
  7 10  2  0
  9 16  2  0
 11 12  1  0
 11 16  1  0
 12 13  1  0
 13 14  1  0
 13 15  2  0
  1 17  1  0
  2 18  1  0
  3 19  1  0
  3 20  1  0
  4 21  1  0
  4 22  1  0
  5 23  1  0
  5 24  1  0
  6 25  1  0
  6 26  1  0
  8 27  1  0
 11 28  1  0
 11 29  1  0
 12 30  1  0
 12 31  1  0
 14 32  1  0
A    1
N
A    2
CA
A    3
CB
A    4
CG
A    5
CD
A    6
NE
A    7
C
A    8
O
A    9
OXT
A   10
O2
A   11
CW
A   12
CX
A   13
CY
A   14
OD1
A   15
OD2
A   16
CV
M  END
