1YNJ_SRN_C_1120
     RDKit          3D

124128  0  0  0  0  0  0  0  0999 V2000
   46.8710   93.7900   28.6430 O   0  0  0  0  0  0  0  0  0  0  0  0
   47.6540   94.5610   29.2850 C   0  0  0  0  0  0  0  0  0  0  0  0
   47.5810   94.7310   30.5240 O   0  0  0  0  0  0  0  0  0  0  0  0
   48.7530   95.3540   28.5930 C   0  0  0  0  0  0  0  0  0  0  0  0
   49.4320   94.5440   27.4880 C   0  0  0  0  0  0  0  0  0  0  0  0
   49.2190   95.1750   26.1140 C   0  0  0  0  0  0  0  0  0  0  0  0
   49.4700   94.1480   25.0110 C   0  0  0  0  0  0  0  0  0  0  0  0
   50.9090   94.0990   24.4670 C   0  0  0  0  0  0  0  0  0  0  0  0
   51.1170   92.8960   23.5550 C   0  0  0  0  0  0  0  0  0  0  0  0
   51.1770   95.3840   23.7270 C   0  0  0  0  0  0  0  0  0  0  0  0
   51.9260   96.3040   24.3300 C   0  0  0  0  0  0  0  0  0  0  0  0
   52.4690   96.0530   25.7110 C   0  0  0  0  0  0  0  0  0  0  0  0
   52.1780   97.6280   23.6820 C   0  0  0  0  0  0  0  0  0  0  0  0
   53.5990   98.0240   23.2330 C   0  0  0  0  0  0  0  0  0  0  0  0
   53.6090   99.0620   22.1450 C   0  0  0  0  0  0  0  0  0  0  0  0
   52.5100   99.4450   21.5080 C   0  0  0  0  0  0  0  0  0  0  0  0
   54.1620   96.8940   22.5390 O   0  0  0  0  0  0  0  0  0  0  0  0
   51.0360   98.0110   22.9180 O   0  0  0  0  0  0  0  0  0  0  0  0
   51.1220   98.9550   21.8600 C   0  0  0  0  0  0  0  0  0  0  0  0
   50.2190  100.1070   22.2500 C   0  0  0  0  0  0  0  0  0  0  0  0
   48.7920   99.6290   22.4250 C   0  0  0  0  0  0  0  0  0  0  0  0
   48.3590   99.1130   23.5730 C   0  0  0  0  0  0  0  0  0  0  0  0
   46.9170   98.6890   23.6420 C   0  0  0  0  0  0  0  0  0  0  0  0
   46.7870   97.3540   24.3600 C   0  0  0  0  0  0  0  0  0  0  0  0
   45.4530   96.7430   24.0050 C   0  0  0  0  0  0  0  0  0  0  0  0
   44.7230   96.2160   24.9780 C   0  0  0  0  0  0  0  0  0  0  0  0
   43.3780   95.6080   24.6590 C   0  0  0  0  0  0  0  0  0  0  0  0
   42.3430   96.5200   25.0320 O   0  0  0  0  0  0  0  0  0  0  0  0
   43.2100   94.2740   25.3790 C   0  0  0  0  0  0  0  0  0  0  0  0
   42.8030   94.4930   26.7210 O   0  0  0  0  0  0  0  0  0  0  0  0
   44.5050   93.4880   25.3440 C   0  0  0  0  0  0  0  0  0  0  0  0
   44.7480   93.1880   23.9770 O   0  0  0  0  0  0  0  0  0  0  0  0
   44.3980   92.1770   26.1170 C   0  0  0  0  0  0  0  0  0  0  0  0
   45.6250   91.3080   25.8310 C   0  0  0  0  0  0  0  0  0  0  0  0
   46.7990   91.9990   26.2500 O   0  0  0  0  0  0  0  0  0  0  0  0
   45.7640   91.0570   24.3480 C   0  0  0  0  0  0  0  0  0  0  0  0
   44.5670   90.2740   23.8160 C   0  0  0  0  0  0  0  0  0  0  0  0
   45.9250   92.4260   23.7110 C   0  0  0  0  0  0  0  0  0  0  0  0
   46.0730   92.3340   22.2040 C   0  0  0  0  0  0  0  0  0  0  0  0
   47.4940   92.0930   21.7470 C   0  0  0  0  0  0  0  0  0  0  0  0
   47.6890   91.1470   20.8330 C   0  0  0  0  0  0  0  0  0  0  0  0
   49.0830   90.8960   20.3350 C   0  0  0  0  0  0  0  0  0  0  0  0
   49.0270   91.0340   18.8970 O   0  0  0  0  0  0  0  0  0  0  0  0
   50.1040   90.4810   18.1080 C   0  0  0  0  0  0  0  0  0  0  0  0
   50.1450   89.0050   18.4390 C   0  0  0  0  0  0  0  0  0  0  0  0
   50.7760   89.1110   19.8190 C   0  0  0  0  0  0  0  0  0  0  0  0
   49.6490   89.5270   20.7730 C   0  0  0  0  0  0  0  0  0  0  0  0
   50.1360   89.4870   22.2280 C   0  0  0  0  0  0  0  0  0  0  0  0
   51.7760   90.1520   19.7190 O   0  0  0  0  0  0  0  0  0  0  0  0
   51.5020   90.9440   18.5480 C   0  0  0  0  0  0  0  0  0  0  0  0
   51.6150   92.4390   18.7940 C   0  0  0  0  0  0  0  0  0  0  0  0
   52.3450   92.8760   19.8040 C   0  0  0  0  0  0  0  0  0  0  0  0
   52.4690   94.1860   20.0380 C   0  0  0  0  0  0  0  0  0  0  0  0
   53.1850   94.7070   21.0610 C   0  0  0  0  0  0  0  0  0  0  0  0
   53.8660   93.9730   21.9630 C   0  0  0  0  0  0  0  0  0  0  0  0
   54.5750   94.4610   22.9940 C   0  0  0  0  0  0  0  0  0  0  0  0
   54.7600   95.7780   23.3120 C   0  0  0  0  0  0  0  0  0  0  0  0
   55.4570   96.0550   24.2920 O   0  0  0  0  0  0  0  0  0  0  0  0
   47.8867   94.0190   31.1402 H   0  0  0  0  0  0  0  0  0  0  0  0
   48.3130   96.2599   28.1505 H   0  0  0  0  0  0  0  0  0  0  0  0
   49.5141   95.6091   29.3451 H   0  0  0  0  0  0  0  0  0  0  0  0
   50.5114   94.4944   27.6942 H   0  0  0  0  0  0  0  0  0  0  0  0
   48.9865   93.5383   27.4766 H   0  0  0  0  0  0  0  0  0  0  0  0
   48.1843   95.5409   26.0398 H   0  0  0  0  0  0  0  0  0  0  0  0
   49.9250   96.0096   25.9915 H   0  0  0  0  0  0  0  0  0  0  0  0
   49.2251   93.1533   25.4118 H   0  0  0  0  0  0  0  0  0  0  0  0
   48.8371   94.4528   24.1645 H   0  0  0  0  0  0  0  0  0  0  0  0
   51.6146   93.9908   25.3039 H   0  0  0  0  0  0  0  0  0  0  0  0
   51.2728   91.9949   24.1664 H   0  0  0  0  0  0  0  0  0  0  0  0
   50.2292   92.7593   22.9201 H   0  0  0  0  0  0  0  0  0  0  0  0
   51.9992   93.0654   22.9201 H   0  0  0  0  0  0  0  0  0  0  0  0
   50.7668   95.5560   22.7209 H   0  0  0  0  0  0  0  0  0  0  0  0
   51.7375   96.3911   26.4597 H   0  0  0  0  0  0  0  0  0  0  0  0
   52.6564   94.9769   25.8413 H   0  0  0  0  0  0  0  0  0  0  0  0
   53.4101   96.6075   25.8413 H   0  0  0  0  0  0  0  0  0  0  0  0
   52.2758   98.3676   24.4904 H   0  0  0  0  0  0  0  0  0  0  0  0
   54.1181   98.3716   24.1384 H   0  0  0  0  0  0  0  0  0  0  0  0
   54.5678   99.5231   21.8655 H   0  0  0  0  0  0  0  0  0  0  0  0
   52.6134  100.1587   20.6774 H   0  0  0  0  0  0  0  0  0  0  0  0
   50.8087   98.4502   20.9342 H   0  0  0  0  0  0  0  0  0  0  0  0
   50.5740  100.5404   23.1967 H   0  0  0  0  0  0  0  0  0  0  0  0
   50.2446  100.8640   21.4523 H   0  0  0  0  0  0  0  0  0  0  0  0
   48.0937   99.7107   21.5790 H   0  0  0  0  0  0  0  0  0  0  0  0
   49.0294   99.0009   24.4378 H   0  0  0  0  0  0  0  0  0  0  0  0
   46.3415   99.4510   24.1880 H   0  0  0  0  0  0  0  0  0  0  0  0
   46.5289   98.5813   22.6184 H   0  0  0  0  0  0  0  0  0  0  0  0
   47.5983   96.6823   24.0428 H   0  0  0  0  0  0  0  0  0  0  0  0
   46.8533   97.5047   25.4476 H   0  0  0  0  0  0  0  0  0  0  0  0
   45.0956   96.7353   22.9647 H   0  0  0  0  0  0  0  0  0  0  0  0
   45.0953   96.2216   26.0131 H   0  0  0  0  0  0  0  0  0  0  0  0
   43.3136   95.4177   23.5775 H   0  0  0  0  0  0  0  0  0  0  0  0
   42.2868   96.5695   26.0192 H   0  0  0  0  0  0  0  0  0  0  0  0
   42.4336   93.6898   24.8634 H   0  0  0  0  0  0  0  0  0  0  0  0
   43.4855   94.1257   27.3369 H   0  0  0  0  0  0  0  0  0  0  0  0
   45.3104   94.0776   25.8063 H   0  0  0  0  0  0  0  0  0  0  0  0
   44.3448   92.3912   27.1946 H   0  0  0  0  0  0  0  0  0  0  0  0
   43.4906   91.6412   25.8017 H   0  0  0  0  0  0  0  0  0  0  0  0
   45.5026   90.3563   26.3688 H   0  0  0  0  0  0  0  0  0  0  0  0
   46.8343   92.0198   27.2392 H   0  0  0  0  0  0  0  0  0  0  0  0
   46.6349   90.4300   24.1064 H   0  0  0  0  0  0  0  0  0  0  0  0
   43.9768   89.8880   24.6602 H   0  0  0  0  0  0  0  0  0  0  0  0
   43.9390   90.9364   23.2022 H   0  0  0  0  0  0  0  0  0  0  0  0
   44.9223   89.4332   23.2022 H   0  0  0  0  0  0  0  0  0  0  0  0
   46.8290   92.8907   24.1315 H   0  0  0  0  0  0  0  0  0  0  0  0
   45.4467   91.5047   21.8434 H   0  0  0  0  0  0  0  0  0  0  0  0
   45.7623   93.3047   21.7904 H   0  0  0  0  0  0  0  0  0  0  0  0
   48.3327   92.6767   22.1542 H   0  0  0  0  0  0  0  0  0  0  0  0
   46.8432   90.5583   20.4483 H   0  0  0  0  0  0  0  0  0  0  0  0
   49.7820   91.6215   20.7765 H   0  0  0  0  0  0  0  0  0  0  0  0
   49.9139   90.7706   17.0640 H   0  0  0  0  0  0  0  0  0  0  0  0
   49.1403   88.5584   18.4741 H   0  0  0  0  0  0  0  0  0  0  0  0
   50.6720   88.3642   17.7167 H   0  0  0  0  0  0  0  0  0  0  0  0
   51.2394   88.1800   20.1773 H   0  0  0  0  0  0  0  0  0  0  0  0
   48.8156   88.8110   20.7213 H   0  0  0  0  0  0  0  0  0  0  0  0
   49.2725   89.5579   22.9058 H   0  0  0  0  0  0  0  0  0  0  0  0
   50.6687   88.5421   22.4105 H   0  0  0  0  0  0  0  0  0  0  0  0
   50.8158   90.3323   22.4105 H   0  0  0  0  0  0  0  0  0  0  0  0
   52.2465   90.7907   17.7528 H   0  0  0  0  0  0  0  0  0  0  0  0
   51.0937   93.1507   18.1370 H   0  0  0  0  0  0  0  0  0  0  0  0
   52.8559   92.1549   20.4590 H   0  0  0  0  0  0  0  0  0  0  0  0
   51.9579   94.8830   19.3575 H   0  0  0  0  0  0  0  0  0  0  0  0
   53.2131   95.8019   21.1632 H   0  0  0  0  0  0  0  0  0  0  0  0
   53.8388   92.8797   21.8446 H   0  0  0  0  0  0  0  0  0  0  0  0
   55.0578   93.7235   23.6520 H   0  0  0  0  0  0  0  0  0  0  0  0
  1  2  2  0
  2  3  1  0
  2  4  1  0
  4  5  1  0
  5  6  1  0
  6  7  1  0
  7  8  1  0
  8  9  1  0
  8 10  1  0
 10 11  2  0
 11 12  1  0
 11 13  1  0
 13 14  1  0
 13 18  1  0
 14 15  1  0
 14 17  1  0
 15 16  2  0
 16 19  1  0
 17 57  1  0
 18 19  1  0
 19 20  1  0
 20 21  1  0
 21 22  2  0
 22 23  1  0
 23 24  1  0
 24 25  1  0
 25 26  2  0
 26 27  1  0
 27 28  1  0
 27 29  1  0
 29 30  1  0
 29 31  1  0
 31 32  1  0
 31 33  1  0
 32 38  1  0
 33 34  1  0
 34 35  1  0
 34 36  1  0
 36 37  1  0
 36 38  1  0
 38 39  1  0
 39 40  1  0
 40 41  2  0
 41 42  1  0
 42 43  1  0
 42 47  1  0
 43 44  1  0
 44 45  1  0
 44 50  1  0
 45 46  1  0
 46 47  1  0
 46 49  1  0
 47 48  1  0
 49 50  1  0
 50 51  1  0
 51 52  2  0
 52 53  1  0
 53 54  2  0
 54 55  1  0
 55 56  2  0
 56 57  1  0
 57 58  2  0
  3 59  1  0
  4 60  1  0
  4 61  1  0
  5 62  1  0
  5 63  1  0
  6 64  1  0
  6 65  1  0
  7 66  1  0
  7 67  1  0
  8 68  1  0
  9 69  1  0
  9 70  1  0
  9 71  1  0
 10 72  1  0
 12 73  1  0
 12 74  1  0
 12 75  1  0
 13 76  1  0
 14 77  1  0
 15 78  1  0
 16 79  1  0
 19 80  1  0
 20 81  1  0
 20 82  1  0
 21 83  1  0
 22 84  1  0
 23 85  1  0
 23 86  1  0
 24 87  1  0
 24 88  1  0
 25 89  1  0
 26 90  1  0
 27 91  1  0
 28 92  1  0
 29 93  1  0
 30 94  1  0
 31 95  1  0
 33 96  1  0
 33 97  1  0
 34 98  1  0
 35 99  1  0
 36100  1  0
 37101  1  0
 37102  1  0
 37103  1  0
 38104  1  0
 39105  1  0
 39106  1  0
 40107  1  0
 41108  1  0
 42109  1  0
 44110  1  0
 45111  1  0
 45112  1  0
 46113  1  0
 47114  1  0
 48115  1  0
 48116  1  0
 48117  1  0
 50118  1  0
 51119  1  0
 52120  1  0
 53121  1  0
 54122  1  0
 55123  1  0
 56124  1  0
A    1
O11
A    2
C45
A    3
O10
A    4
C44
A    5
C43
A    6
C42
A    7
C41
A    8
C39
A    9
C40
A   10
C38
A   11
C36
A   12
C37
A   13
C32
A   14
C33
A   15
C47
A   16
C46
A   17
O1
A   18
O7
A   19
C31
A   20
C30
A   21
C29
A   22
C28
A   23
C27
A   24
C26
A   25
C25
A   26
C24
A   27
C23
A   28
O6
A   29
C22
A   30
O5
A   31
C21
A   32
O9
A   33
C20
A   34
C19
A   35
O4
A   36
C17
A   37
C18
A   38
C16
A   39
C15
A   40
C14
A   41
C13
A   42
C12
A   43
O8
A   44
C35
A   45
C34
A   46
C9
A   47
C10
A   48
C11
A   49
O3
A   50
C8
A   51
C7
A   52
C6
A   53
C5
A   54
C4
A   55
C3
A   56
C2
A   57
C1
A   58
O2
M  END
