1YOL_S03_A_601
     RDKit          3D

 59 63  0  0  0  0  0  0  0  0999 V2000
    1.4930   27.5650   32.6330 N   0  0  0  0  0  0  0  0  0  0  0  0
    1.0850   26.6070   31.7630 C   0  0  0  0  0  0  0  0  0  0  0  0
   -0.2420   26.4930   31.4910 N   0  0  0  0  0  0  0  0  0  0  0  0
   -0.7240   25.5680   30.6260 C   0  0  0  0  0  0  0  0  0  0  0  0
    1.9620   25.7170   31.1090 C   0  0  0  0  0  0  0  0  0  0  0  0
    3.3420   25.5530   31.1070 C   0  0  0  0  0  0  0  0  0  0  0  0
    4.3370   26.2930   31.9320 C   0  0  0  0  0  0  0  0  0  0  0  0
    5.4830   26.8960   31.4150 C   0  0  0  0  0  0  0  0  0  0  0  0
    6.3810   27.5460   32.2740 C   0  0  0  0  0  0  0  0  0  0  0  0
    6.1380   27.5780   33.6480 C   0  0  0  0  0  0  0  0  0  0  0  0
    4.9990   26.9550   34.1500 C   0  0  0  0  0  0  0  0  0  0  0  0
    4.6580   26.9370   35.4770 O   0  0  0  0  0  0  0  0  0  0  0  0
    5.6190   26.7980   36.5040 C   0  0  0  0  0  0  0  0  0  0  0  0
    4.1200   26.3230   33.2900 C   0  0  0  0  0  0  0  0  0  0  0  0
    3.6990   24.4920   30.2670 C   0  0  0  0  0  0  0  0  0  0  0  0
    1.4910   24.7800   30.2280 C   0  0  0  0  0  0  0  0  0  0  0  0
    0.0740   24.6930   29.9710 N   0  0  0  0  0  0  0  0  0  0  0  0
    2.5200   24.0480   29.7610 N   0  0  0  0  0  0  0  0  0  0  0  0
    2.4510   23.0580   28.8340 C   0  0  0  0  0  0  0  0  0  0  0  0
    3.0410   21.7860   28.9280 C   0  0  0  0  0  0  0  0  0  0  0  0
    2.9480   20.8050   27.9080 C   0  0  0  0  0  0  0  0  0  0  0  0
    1.7950   23.2800   27.6310 C   0  0  0  0  0  0  0  0  0  0  0  0
    1.6960   22.3360   26.6180 C   0  0  0  0  0  0  0  0  0  0  0  0
    2.2660   21.0740   26.7190 C   0  0  0  0  0  0  0  0  0  0  0  0
    2.0540   20.1720   25.5040 C   0  0  0  0  0  0  0  0  0  0  0  0
    2.7260   18.8850   25.3350 N   0  0  0  0  0  0  0  0  0  0  0  0
    4.0050   18.8180   24.6560 C   0  0  0  0  0  0  0  0  0  0  0  0
    3.8330   18.4350   23.1780 C   0  0  0  0  0  0  0  0  0  0  0  0
    1.9350   17.6570   25.2650 C   0  0  0  0  0  0  0  0  0  0  0  0
    1.5390   17.3790   23.8140 C   0  0  0  0  0  0  0  0  0  0  0  0
    2.6780   17.5020   22.7780 C   0  0  0  0  0  0  0  0  0  0  0  0
    3.2070   16.2220   22.4120 O   0  0  0  0  0  0  0  0  0  0  0  0
    1.4238   27.4024   33.6477 H   0  0  0  0  0  0  0  0  0  0  0  0
    1.8720   28.4548   32.2787 H   0  0  0  0  0  0  0  0  0  0  0  0
   -1.8089   25.5266   30.4489 H   0  0  0  0  0  0  0  0  0  0  0  0
    5.6826   26.8619   30.3338 H   0  0  0  0  0  0  0  0  0  0  0  0
    7.2788   28.0317   31.8640 H   0  0  0  0  0  0  0  0  0  0  0  0
    6.8377   28.0891   34.3256 H   0  0  0  0  0  0  0  0  0  0  0  0
    5.1225   26.8698   37.4829 H   0  0  0  0  0  0  0  0  0  0  0  0
    6.1127   25.8191   36.4142 H   0  0  0  0  0  0  0  0  0  0  0  0
    6.3698   27.5969   36.4142 H   0  0  0  0  0  0  0  0  0  0  0  0
    3.2257   25.8324   33.7017 H   0  0  0  0  0  0  0  0  0  0  0  0
    4.7081   24.1048   30.0627 H   0  0  0  0  0  0  0  0  0  0  0  0
    3.6041   21.5384   29.8399 H   0  0  0  0  0  0  0  0  0  0  0  0
    3.4181   19.8214   28.0548 H   0  0  0  0  0  0  0  0  0  0  0  0
    1.3259   24.2620   27.4709 H   0  0  0  0  0  0  0  0  0  0  0  0
    1.1459   22.5973   25.7019 H   0  0  0  0  0  0  0  0  0  0  0  0
    0.9759   19.9561   25.4727 H   0  0  0  0  0  0  0  0  0  0  0  0
    2.5216   20.7680   24.7064 H   0  0  0  0  0  0  0  0  0  0  0  0
    4.4949   19.8010   24.7168 H   0  0  0  0  0  0  0  0  0  0  0  0
    4.6180   18.0468   25.1454 H   0  0  0  0  0  0  0  0  0  0  0  0
    3.7002   19.3712   22.6160 H   0  0  0  0  0  0  0  0  0  0  0  0
    4.7357   17.8487   22.9512 H   0  0  0  0  0  0  0  0  0  0  0  0
    2.5313   16.8160   25.6485 H   0  0  0  0  0  0  0  0  0  0  0  0
    1.0264   17.7746   25.8738 H   0  0  0  0  0  0  0  0  0  0  0  0
    1.1424   16.3543   23.7614 H   0  0  0  0  0  0  0  0  0  0  0  0
    0.8044   18.1533   23.5481 H   0  0  0  0  0  0  0  0  0  0  0  0
    2.1873   17.9715   21.9127 H   0  0  0  0  0  0  0  0  0  0  0  0
    3.4199   15.7068   23.2301 H   0  0  0  0  0  0  0  0  0  0  0  0
  1  2  1  0
  2  3  2  0
  2  5  1  0
  3  4  1  0
  4 17  2  0
  5  6  1  0
  5 16  2  0
  6  7  1  0
  6 15  2  0
  7  8  2  0
  7 14  1  0
  8  9  1  0
  9 10  2  0
 10 11  1  0
 11 12  1  0
 11 14  2  0
 12 13  1  0
 15 18  1  0
 16 17  1  0
 16 18  1  0
 18 19  1  0
 19 20  2  0
 19 22  1  0
 20 21  1  0
 21 24  2  0
 22 23  2  0
 23 24  1  0
 24 25  1  0
 25 26  1  0
 26 27  1  0
 26 29  1  0
 27 28  1  0
 28 31  1  0
 29 30  1  0
 30 31  1  0
 31 32  1  0
  1 33  1  0
  1 34  1  0
  4 35  1  0
  8 36  1  0
  9 37  1  0
 10 38  1  0
 13 39  1  0
 13 40  1  0
 13 41  1  0
 14 42  1  0
 15 43  1  0
 20 44  1  0
 21 45  1  0
 22 46  1  0
 23 47  1  0
 25 48  1  0
 25 49  1  0
 27 50  1  0
 27 51  1  0
 28 52  1  0
 28 53  1  0
 29 54  1  0
 29 55  1  0
 30 56  1  0
 30 57  1  0
 31 58  1  0
 32 59  1  0
A    1
N33
A    2
C1
A    3
N6
A    4
C5
A    5
C2
A    6
C9
A    7
C10
A    8
C11
A    9
C12
A   10
C13
A   11
C14
A   12
O16
A   13
C17
A   14
C15
A   15
C8
A   16
C3
A   17
N4
A   18
N7
A   19
C18
A   20
C19
A   21
C20
A   22
C23
A   23
C22
A   24
C21
A   25
C24
A   26
N26
A   27
C27
A   28
C28
A   29
C31
A   30
C30
A   31
C29
A   32
O32
M  END
