1YOM_P01_A_1
     RDKit          3D

 52 54  0  0  0  0  0  0  0  0999 V2000
    8.9950  -11.5690   -2.9010 Cl  0  0  0  0  0  0  0  0  0  0  0  0
    9.9650  -10.1660   -3.4120 C   0  0  0  0  0  0  0  0  0  0  0  0
    9.2810   -9.1520   -4.0720 C   0  0  0  0  0  0  0  0  0  0  0  0
    9.9690   -8.0280   -4.5130 C   0  0  0  0  0  0  0  0  0  0  0  0
   11.3480   -7.9630   -4.2550 C   0  0  0  0  0  0  0  0  0  0  0  0
   12.0330   -8.9840   -3.5820 C   0  0  0  0  0  0  0  0  0  0  0  0
   11.3350  -10.1030   -3.1570 C   0  0  0  0  0  0  0  0  0  0  0  0
    9.3900   -7.0080   -5.2090 N   0  0  0  0  0  0  0  0  0  0  0  0
    8.0890   -6.9080   -5.6320 C   0  0  0  0  0  0  0  0  0  0  0  0
    7.7540   -5.8320   -6.4620 C   0  0  0  0  0  0  0  0  0  0  0  0
    8.4890   -4.7780   -6.9980 N   0  0  0  0  0  0  0  0  0  0  0  0
    6.4840   -5.6950   -6.8880 C   0  0  0  0  0  0  0  0  0  0  0  0
    6.3540   -4.6380   -7.6610 N   0  0  0  0  0  0  0  0  0  0  0  0
    4.9910   -4.3820   -8.1910 C   0  0  0  0  0  0  0  0  0  0  0  0
    4.9170   -4.7360   -9.6760 C   0  0  0  0  0  0  0  0  0  0  0  0
    4.5100   -2.9660   -7.8640 C   0  0  0  0  0  0  0  0  0  0  0  0
    7.5700   -4.0440   -7.7340 C   0  0  0  0  0  0  0  0  0  0  0  0
    5.4980   -6.5510   -6.5520 N   0  0  0  0  0  0  0  0  0  0  0  0
    5.8250   -7.6020   -5.7510 C   0  0  0  0  0  0  0  0  0  0  0  0
    7.0990   -7.7740   -5.2910 N   0  0  0  0  0  0  0  0  0  0  0  0
    4.8400   -8.4660   -5.4080 N   0  0  0  0  0  0  0  0  0  0  0  0
    4.9900   -9.4210   -4.3150 C   0  0  0  0  0  0  0  0  0  0  0  0
    4.0260  -10.5900   -4.5320 C   0  0  0  0  0  0  0  0  0  0  0  0
    4.2590  -11.2280   -5.9050 C   0  0  0  0  0  0  0  0  0  0  0  0
    4.1250  -11.6100   -3.3990 C   0  0  0  0  0  0  0  0  0  0  0  0
    4.7840   -8.7250   -2.9640 C   0  0  0  0  0  0  0  0  0  0  0  0
    3.4070   -8.6540   -2.6080 O   0  0  0  0  0  0  0  0  0  0  0  0
    8.1981   -9.2389   -4.2448 H   0  0  0  0  0  0  0  0  0  0  0  0
   11.9102   -7.0799   -4.5929 H   0  0  0  0  0  0  0  0  0  0  0  0
   13.1133   -8.8979   -3.3932 H   0  0  0  0  0  0  0  0  0  0  0  0
   11.8486  -10.9215   -2.6314 H   0  0  0  0  0  0  0  0  0  0  0  0
   10.0046   -6.2162   -5.4459 H   0  0  0  0  0  0  0  0  0  0  0  0
    4.2811   -5.0479   -7.6785 H   0  0  0  0  0  0  0  0  0  0  0  0
    4.6931   -5.8072   -9.7869 H   0  0  0  0  0  0  0  0  0  0  0  0
    4.1232   -4.1440  -10.1550 H   0  0  0  0  0  0  0  0  0  0  0  0
    5.8815   -4.5115  -10.1550 H   0  0  0  0  0  0  0  0  0  0  0  0
    4.4660   -2.8366   -6.7725 H   0  0  0  0  0  0  0  0  0  0  0  0
    5.2096   -2.2331   -8.2923 H   0  0  0  0  0  0  0  0  0  0  0  0
    3.5087   -2.8108   -8.2923 H   0  0  0  0  0  0  0  0  0  0  0  0
    7.7938   -3.1222   -8.2909 H   0  0  0  0  0  0  0  0  0  0  0  0
    3.9559   -8.4484   -5.9361 H   0  0  0  0  0  0  0  0  0  0  0  0
    6.0121   -9.8273   -4.3033 H   0  0  0  0  0  0  0  0  0  0  0  0
    2.9973  -10.2007   -4.5163 H   0  0  0  0  0  0  0  0  0  0  0  0
    4.6337  -12.2539   -5.7738 H   0  0  0  0  0  0  0  0  0  0  0  0
    3.3117  -11.2522   -6.4636 H   0  0  0  0  0  0  0  0  0  0  0  0
    4.9990  -10.6360   -6.4636 H   0  0  0  0  0  0  0  0  0  0  0  0
    4.0745  -11.0893   -2.4314 H   0  0  0  0  0  0  0  0  0  0  0  0
    3.2920  -12.3244   -3.4749 H   0  0  0  0  0  0  0  0  0  0  0  0
    5.0799  -12.1508   -3.4749 H   0  0  0  0  0  0  0  0  0  0  0  0
    5.3234   -9.2879   -2.1880 H   0  0  0  0  0  0  0  0  0  0  0  0
    5.1680   -7.6976   -3.0476 H   0  0  0  0  0  0  0  0  0  0  0  0
    3.3209   -8.6496   -1.6218 H   0  0  0  0  0  0  0  0  0  0  0  0
  1  2  1  0
  2  3  2  0
  2  7  1  0
  3  4  1  0
  4  5  2  0
  4  8  1  0
  5  6  1  0
  6  7  2  0
  8  9  1  0
  9 10  2  0
  9 20  1  0
 10 11  1  0
 10 12  1  0
 11 17  2  0
 12 13  1  0
 12 18  2  0
 13 14  1  0
 13 17  1  0
 14 15  1  0
 14 16  1  0
 18 19  1  0
 19 20  2  0
 19 21  1  0
 21 22  1  0
 22 23  1  0
 22 26  1  0
 23 24  1  0
 23 25  1  0
 26 27  1  0
  3 28  1  0
  5 29  1  0
  6 30  1  0
  7 31  1  0
  8 32  1  0
 14 33  1  0
 15 34  1  0
 15 35  1  0
 15 36  1  0
 16 37  1  0
 16 38  1  0
 16 39  1  0
 17 40  1  0
 21 41  1  0
 22 42  1  0
 23 43  1  0
 24 44  1  0
 24 45  1  0
 24 46  1  0
 25 47  1  0
 25 48  1  0
 25 49  1  0
 26 50  1  0
 26 51  1  0
 27 52  1  0
A    1
CL1
A    2
C5A
A    3
C6A
A    4
C1A
A    5
C2A
A    6
C3A
A    7
C4A
A    8
N6
A    9
C6
A   10
C5
A   11
N7
A   12
C4
A   13
N9
A   14
C10
A   15
C11
A   16
C12
A   17
C8
A   18
N3
A   19
C2
A   20
N1
A   21
N21
A   22
C22
A   23
C25
A   24
C26
A   25
C27
A   26
C23
A   27
O24
M  END
