1YRY_MSG_E_290
     RDKit          3D

 36 38  0  0  0  0  0  0  0  0999 V2000
   50.9490   49.2390   29.7760 O   0  0  0  0  0  0  0  0  0  0  0  0
   50.3930   48.7570   31.0360 C   0  0  0  0  0  0  0  0  0  0  0  0
   50.6120   47.2550   31.2720 C   0  0  0  0  0  0  0  0  0  0  0  0
   50.3820   46.7710   29.8970 O   0  0  0  0  0  0  0  0  0  0  0  0
   51.6140   46.2070   29.2440 C   0  0  0  0  0  0  0  0  0  0  0  0
   51.9390   46.9950   28.0520 N   0  0  0  0  0  0  0  0  0  0  0  0
   51.0830   47.8470   27.4170 C   0  0  0  0  0  0  0  0  0  0  0  0
   51.7630   48.4430   26.2810 N   0  0  0  0  0  0  0  0  0  0  0  0
   51.0710   48.1130   25.0340 C   0  0  0  0  0  0  0  0  0  0  0  0
   53.0430   47.8820   26.3100 C   0  0  0  0  0  0  0  0  0  0  0  0
   54.1250   48.1710   25.3600 C   0  0  0  0  0  0  0  0  0  0  0  0
   54.0690   49.3010   23.9540 S   0  0  0  0  0  0  0  0  0  0  0  0
   55.2800   47.4250   25.6990 N   0  0  0  0  0  0  0  0  0  0  0  0
   55.3860   46.5350   26.7740 C   0  0  0  0  0  0  0  0  0  0  0  0
   56.6400   45.8250   27.0050 N   0  0  0  0  0  0  0  0  0  0  0  0
   54.3320   46.3300   27.5980 N   0  0  0  0  0  0  0  0  0  0  0  0
   53.1940   47.0180   27.3340 C   0  0  0  0  0  0  0  0  0  0  0  0
   52.7190   46.1910   30.2950 C   0  0  0  0  0  0  0  0  0  0  0  0
   53.1680   44.8040   30.4380 O   0  0  0  0  0  0  0  0  0  0  0  0
   52.0830   46.7890   31.6330 C   0  0  0  0  0  0  0  0  0  0  0  0
   52.1120   45.7500   32.6990 O   0  0  0  0  0  0  0  0  0  0  0  0
   51.6838   49.8760   29.9617 H   0  0  0  0  0  0  0  0  0  0  0  0
   50.8673   49.3109   31.8596 H   0  0  0  0  0  0  0  0  0  0  0  0
   49.3062   48.9208   30.9918 H   0  0  0  0  0  0  0  0  0  0  0  0
   49.9945   46.9062   32.1128 H   0  0  0  0  0  0  0  0  0  0  0  0
   51.4686   45.1758   28.8898 H   0  0  0  0  0  0  0  0  0  0  0  0
   50.0445   48.0498   27.7175 H   0  0  0  0  0  0  0  0  0  0  0  0
   50.1002   47.6501   25.2648 H   0  0  0  0  0  0  0  0  0  0  0  0
   50.9098   49.0312   24.4501 H   0  0  0  0  0  0  0  0  0  0  0  0
   51.6830   47.4098   24.4501 H   0  0  0  0  0  0  0  0  0  0  0  0
   56.9596   45.6440   27.9673 H   0  0  0  0  0  0  0  0  0  0  0  0
   57.2054   45.5049   26.2058 H   0  0  0  0  0  0  0  0  0  0  0  0
   53.5983   46.7965   30.0300 H   0  0  0  0  0  0  0  0  0  0  0  0
   53.2411   44.5782   31.3991 H   0  0  0  0  0  0  0  0  0  0  0  0
   52.6481   47.6500   32.0195 H   0  0  0  0  0  0  0  0  0  0  0  0
   52.0998   46.1877   33.5869 H   0  0  0  0  0  0  0  0  0  0  0  0
  1  2  1  0
  2  3  1  0
  3  4  1  0
  3 20  1  0
  4  5  1  0
  5  6  1  0
  5 18  1  0
  6  7  1  0
  6 17  1  0
  7  8  2  0
  8  9  1  0
  8 10  1  0
 10 11  1  0
 10 17  2  0
 11 12  1  0
 11 13  2  0
 13 14  1  0
 14 15  1  0
 14 16  2  0
 16 17  1  0
 18 19  1  0
 18 20  1  0
 20 21  1  0
  1 22  1  0
  2 23  1  0
  2 24  1  0
  3 25  1  0
  5 26  1  0
  7 27  1  0
  9 28  1  0
  9 29  1  0
  9 30  1  0
 15 31  1  0
 15 32  1  0
 18 33  1  0
 19 34  1  0
 20 35  1  0
 21 36  1  0
M  CHG  2   8   1  12  -1
A    1
O5'
A    2
C5'
A    3
C4'
A    4
O4'
A    5
C1'
A    6
N9
A    7
C8
A    8
N7
A    9
C1
A   10
C5
A   11
C6
A   12
S6
A   13
N1
A   14
C2
A   15
N2
A   16
N3
A   17
C4
A   18
C2'
A   19
O2'
A   20
C3'
A   21
O3'
M  END
