1YVX_IPC_A_580
     RDKit          3D

 48 50  0  0  0  0  0  0  0  0999 V2000
   27.7900   62.0080    6.3650 N   0  0  0  0  0  0  0  0  0  0  0  0
   28.2940   63.5880    6.3370 C   0  0  0  0  0  0  0  0  0  0  0  0
   27.3210   64.6040    5.8580 C   0  0  0  0  0  0  0  0  0  0  0  0
   29.6770   63.8960    5.5940 C   0  0  0  0  0  0  0  0  0  0  0  0
   27.0760   61.5350    7.5260 C   0  0  0  0  0  0  0  0  0  0  0  0
   26.8030   62.2840    8.5800 O   0  0  0  0  0  0  0  0  0  0  0  0
   26.4790   59.9780    7.7510 C   0  0  0  0  0  0  0  0  0  0  0  0
   26.8240   59.3180    9.0430 C   0  0  0  0  0  0  0  0  0  0  0  0
   26.1980   57.8900    9.0800 C   0  0  0  0  0  0  0  0  0  0  0  0
   25.3680   57.3300    7.9120 C   0  0  0  0  0  0  0  0  0  0  0  0
   25.1720   58.1300    6.7860 C   0  0  0  0  0  0  0  0  0  0  0  0
   25.7130   59.4140    6.7170 C   0  0  0  0  0  0  0  0  0  0  0  0
   24.7540   55.9540    7.9250 C   0  0  0  0  0  0  0  0  0  0  0  0
   28.0680   61.2510    5.3110 C   0  0  0  0  0  0  0  0  0  0  0  0
   29.1490   60.1770    5.3060 C   0  0  0  0  0  0  0  0  0  0  0  0
   29.3020   59.3500    3.8670 S   0  0  0  0  0  0  0  0  0  0  0  0
   28.0420   60.2470    3.1100 C   0  0  0  0  0  0  0  0  0  0  0  0
   27.5040   61.2050    4.0140 C   0  0  0  0  0  0  0  0  0  0  0  0
   30.0690   59.7890    6.4320 C   0  0  0  0  0  0  0  0  0  0  0  0
   30.9970   58.8370    6.3550 O   0  0  0  0  0  0  0  0  0  0  0  0
   29.9740   60.3910    7.5260 O   0  0  0  0  0  0  0  0  0  0  0  0
   27.6430   59.9980    1.7360 C   0  0  0  0  0  0  0  0  0  0  0  0
   28.3150   58.9550    0.9320 C   0  0  0  0  0  0  0  0  0  0  0  0
   27.9130   58.7100   -0.4370 C   0  0  0  0  0  0  0  0  0  0  0  0
   26.8450   59.4860   -1.0370 C   0  0  0  0  0  0  0  0  0  0  0  0
   26.1670   60.5150   -0.2720 C   0  0  0  0  0  0  0  0  0  0  0  0
   26.5160   60.8020    1.0720 C   0  0  0  0  0  0  0  0  0  0  0  0
   28.4269   63.6958    7.4236 H   0  0  0  0  0  0  0  0  0  0  0  0
   26.8497   65.0961    6.7216 H   0  0  0  0  0  0  0  0  0  0  0  0
   27.8452   65.3552    5.2489 H   0  0  0  0  0  0  0  0  0  0  0  0
   26.5479   64.1128    5.2489 H   0  0  0  0  0  0  0  0  0  0  0  0
   30.4641   64.0713    6.3422 H   0  0  0  0  0  0  0  0  0  0  0  0
   29.9541   63.0376    4.9645 H   0  0  0  0  0  0  0  0  0  0  0  0
   29.5637   64.7909    4.9645 H   0  0  0  0  0  0  0  0  0  0  0  0
   27.4266   59.7685    9.8455 H   0  0  0  0  0  0  0  0  0  0  0  0
   26.3550   57.2630    9.9700 H   0  0  0  0  0  0  0  0  0  0  0  0
   24.5830   57.7432    5.9413 H   0  0  0  0  0  0  0  0  0  0  0  0
   25.5316   60.0121    5.8118 H   0  0  0  0  0  0  0  0  0  0  0  0
   24.6082   55.6273    8.9652 H   0  0  0  0  0  0  0  0  0  0  0  0
   23.7826   55.9811    7.4096 H   0  0  0  0  0  0  0  0  0  0  0  0
   25.4230   55.2491    7.4096 H   0  0  0  0  0  0  0  0  0  0  0  0
   26.6868   61.8792    3.7181 H   0  0  0  0  0  0  0  0  0  0  0  0
   31.3765   58.4476    7.1823 H   0  0  0  0  0  0  0  0  0  0  0  0
   29.1265   58.3607    1.3773 H   0  0  0  0  0  0  0  0  0  0  0  0
   28.4204   57.9311   -1.0252 H   0  0  0  0  0  0  0  0  0  0  0  0
   26.5473   59.2932   -2.0783 H   0  0  0  0  0  0  0  0  0  0  0  0
   25.3587   61.0893   -0.7482 H   0  0  0  0  0  0  0  0  0  0  0  0
   25.9874   61.5886    1.6304 H   0  0  0  0  0  0  0  0  0  0  0  0
  1  2  1  0
  1  5  1  0
  1 14  1  0
  2  3  1  0
  2  4  1  0
  5  6  2  0
  5  7  1  0
  7  8  2  0
  7 12  1  0
  8  9  1  0
  9 10  2  0
 10 11  1  0
 10 13  1  0
 11 12  2  0
 14 15  2  0
 14 18  1  0
 15 16  1  0
 15 19  1  0
 16 17  1  0
 17 18  2  0
 17 22  1  0
 19 20  1  0
 19 21  2  0
 22 23  2  0
 22 27  1  0
 23 24  1  0
 24 25  2  0
 25 26  1  0
 26 27  2  0
  2 28  1  0
  3 29  1  0
  3 30  1  0
  3 31  1  0
  4 32  1  0
  4 33  1  0
  4 34  1  0
  8 35  1  0
  9 36  1  0
 11 37  1  0
 12 38  1  0
 13 39  1  0
 13 40  1  0
 13 41  1  0
 18 42  1  0
 20 43  1  0
 23 44  1  0
 24 45  1  0
 25 46  1  0
 26 47  1  0
 27 48  1  0
A    1
N1
A    2
C2
A    3
C3
A    4
C4
A    5
C5
A    6
O6
A    7
C7
A    8
C8
A    9
C9
A   10
C10
A   11
C11
A   12
C12
A   13
C13
A   14
C14
A   15
C15
A   16
S16
A   17
C17
A   18
C18
A   19
C19
A   20
O20
A   21
O21
A   22
C22
A   23
C23
A   24
C24
A   25
C25
A   26
C26
A   27
C27
M  END
