1YW7_A41_A_482
     RDKit          3D

 33 34  0  0  0  0  0  0  0  0999 V2000
   18.3980   27.9220   21.5180 C   0  0  0  0  0  0  0  0  0  0  0  0
   17.9200   29.2550   21.4410 C   0  0  0  0  0  0  0  0  0  0  0  0
   16.8110   29.5640   20.6140 C   0  0  0  0  0  0  0  0  0  0  0  0
   16.1820   28.5390   19.8650 C   0  0  0  0  0  0  0  0  0  0  0  0
   16.6570   27.2050   19.9400 C   0  0  0  0  0  0  0  0  0  0  0  0
   17.7640   26.8990   20.7670 C   0  0  0  0  0  0  0  0  0  0  0  0
   14.7920   28.9280   18.8220 S   0  0  0  0  0  0  0  0  0  0  0  0
   15.4180   29.1300   17.3190 N   0  0  0  0  0  0  0  0  0  0  0  0
   14.2360   30.1930   19.2310 O   0  0  0  0  0  0  0  0  0  0  0  0
   13.9270   27.7770   18.7920 O   0  0  0  0  0  0  0  0  0  0  0  0
   16.1920   30.2060   16.9140 C   0  0  0  0  0  0  0  0  0  0  0  0
   15.5740   31.4630   16.6610 C   0  0  0  0  0  0  0  0  0  0  0  0
   16.3350   32.5830   16.2500 C   0  0  0  0  0  0  0  0  0  0  0  0
   17.7380   32.4800   16.0770 C   0  0  0  0  0  0  0  0  0  0  0  0
   18.3660   31.2360   16.3230 C   0  0  0  0  0  0  0  0  0  0  0  0
   17.6240   30.0910   16.7380 C   0  0  0  0  0  0  0  0  0  0  0  0
   18.3960   28.8410   16.9660 C   0  0  0  0  0  0  0  0  0  0  0  0
   19.3470   28.8430   17.6950 O   0  0  0  0  0  0  0  0  0  0  0  0
   17.8460   27.6820   16.5470 O   0  0  0  0  0  0  0  0  0  0  0  0
   18.5480   33.6740   15.6400 C   0  0  0  0  0  0  0  0  0  0  0  0
   19.2590   27.6817   22.1590 H   0  0  0  0  0  0  0  0  0  0  0  0
   18.4100   30.0493   22.0232 H   0  0  0  0  0  0  0  0  0  0  0  0
   16.4395   30.5976   20.5539 H   0  0  0  0  0  0  0  0  0  0  0  0
   16.1669   26.4109   19.3576 H   0  0  0  0  0  0  0  0  0  0  0  0
   18.1339   25.8648   20.8276 H   0  0  0  0  0  0  0  0  0  0  0  0
   15.2200   28.3990   16.6209 H   0  0  0  0  0  0  0  0  0  0  0  0
   14.4861   31.5656   16.7871 H   0  0  0  0  0  0  0  0  0  0  0  0
   15.8325   33.5435   16.0628 H   0  0  0  0  0  0  0  0  0  0  0  0
   19.4546   31.1499   16.1907 H   0  0  0  0  0  0  0  0  0  0  0  0
   19.2183   28.8427   18.6766 H   0  0  0  0  0  0  0  0  0  0  0  0
   18.9138   34.2132   16.5263 H   0  0  0  0  0  0  0  0  0  0  0  0
   19.4039   33.3358   15.0374 H   0  0  0  0  0  0  0  0  0  0  0  0
   17.9174   34.3442   15.0374 H   0  0  0  0  0  0  0  0  0  0  0  0
  1  2  2  0
  1  6  1  0
  2  3  1  0
  3  4  2  0
  4  5  1  0
  4  7  1  0
  5  6  2  0
  7  8  1  0
  7  9  2  0
  7 10  2  0
  8 11  1  0
 11 12  2  0
 11 16  1  0
 12 13  1  0
 13 14  2  0
 14 15  1  0
 14 20  1  0
 15 16  2  0
 16 17  1  0
 17 18  1  0
 17 19  2  0
  1 21  1  0
  2 22  1  0
  3 23  1  0
  5 24  1  0
  6 25  1  0
  8 26  1  0
 12 27  1  0
 13 28  1  0
 15 29  1  0
 18 30  1  0
 20 31  1  0
 20 32  1  0
 20 33  1  0
A    1
C1
A    2
C2
A    3
C3
A    4
C4
A    5
C5
A    6
C6
A    7
S7
A    8
N8
A    9
O9
A   10
O10
A   11
C11
A   12
C12
A   13
C13
A   14
C14
A   15
C15
A   16
C16
A   17
C17
A   18
O18
A   19
O19
A   20
C20
M  END
