1YW8_A75_A_104
     RDKit          3D

 40 42  0  0  0  0  0  0  0  0999 V2000
   19.9950   33.6860   15.9840 C   0  0  0  0  0  0  0  0  0  0  0  0
   18.4750   33.8110   15.7830 C   0  0  0  0  0  0  0  0  0  0  0  0
   17.6970   32.5680   16.2150 C   0  0  0  0  0  0  0  0  0  0  0  0
   18.3490   31.2780   16.3780 C   0  0  0  0  0  0  0  0  0  0  0  0
   19.8570   31.1110   16.1190 C   0  0  0  0  0  0  0  0  0  0  0  0
   20.5540   32.3390   15.4920 C   0  0  0  0  0  0  0  0  0  0  0  0
   16.3040   32.6770   16.4650 C   0  0  0  0  0  0  0  0  0  0  0  0
   15.5450   31.5600   16.8640 C   0  0  0  0  0  0  0  0  0  0  0  0
   16.1640   30.3100   17.0250 C   0  0  0  0  0  0  0  0  0  0  0  0
   17.5520   30.1590   16.7870 C   0  0  0  0  0  0  0  0  0  0  0  0
   18.2050   28.7390   16.9860 C   0  0  0  0  0  0  0  0  0  0  0  0
   17.8100   27.7650   16.1510 O   0  0  0  0  0  0  0  0  0  0  0  0
   19.0090   28.5400   17.8610 O   0  0  0  0  0  0  0  0  0  0  0  0
   15.3100   29.1880   17.4440 N   0  0  0  0  0  0  0  0  0  0  0  0
   14.6710   28.8650   18.9180 S   0  0  0  0  0  0  0  0  0  0  0  0
   16.0490   28.5550   20.0060 C   0  0  0  0  0  0  0  0  0  0  0  0
   13.9090   27.6410   18.7820 O   0  0  0  0  0  0  0  0  0  0  0  0
   13.9740   30.0600   19.3630 O   0  0  0  0  0  0  0  0  0  0  0  0
   16.6550   29.6490   20.7590 C   0  0  0  0  0  0  0  0  0  0  0  0
   17.7760   29.3800   21.6450 C   0  0  0  0  0  0  0  0  0  0  0  0
   18.2910   28.0260   21.7780 C   0  0  0  0  0  0  0  0  0  0  0  0
   17.6830   26.9370   21.0250 C   0  0  0  0  0  0  0  0  0  0  0  0
   16.5640   27.1980   20.1400 C   0  0  0  0  0  0  0  0  0  0  0  0
   20.4905   34.4959   15.4285 H   0  0  0  0  0  0  0  0  0  0  0  0
   20.1922   33.7512   17.0642 H   0  0  0  0  0  0  0  0  0  0  0  0
   18.1156   34.6682   16.3712 H   0  0  0  0  0  0  0  0  0  0  0  0
   18.3016   33.9419   14.7047 H   0  0  0  0  0  0  0  0  0  0  0  0
   20.3461   30.8955   17.0804 H   0  0  0  0  0  0  0  0  0  0  0  0
   19.9537   30.2964   15.3861 H   0  0  0  0  0  0  0  0  0  0  0  0
   20.4293   32.2892   14.4002 H   0  0  0  0  0  0  0  0  0  0  0  0
   21.6104   32.2991   15.7961 H   0  0  0  0  0  0  0  0  0  0  0  0
   15.8084   33.6517   16.3449 H   0  0  0  0  0  0  0  0  0  0  0  0
   14.4661   31.6668   17.0497 H   0  0  0  0  0  0  0  0  0  0  0  0
   17.4639   26.9116   16.5144 H   0  0  0  0  0  0  0  0  0  0  0  0
   15.0808   28.5080   16.7051 H   0  0  0  0  0  0  0  0  0  0  0  0
   16.2652   30.6725   20.6565 H   0  0  0  0  0  0  0  0  0  0  0  0
   18.2351   30.2010   22.2152 H   0  0  0  0  0  0  0  0  0  0  0  0
   19.1401   27.8242   22.4476 H   0  0  0  0  0  0  0  0  0  0  0  0
   18.0738   25.9139   21.1280 H   0  0  0  0  0  0  0  0  0  0  0  0
   16.1057   26.3750   19.5720 H   0  0  0  0  0  0  0  0  0  0  0  0
  1  2  1  0
  1  6  1  0
  2  3  1  0
  3  4  2  0
  3  7  1  0
  4  5  1  0
  4 10  1  0
  5  6  1  0
  7  8  2  0
  8  9  1  0
  9 10  2  0
  9 14  1  0
 10 11  1  0
 11 12  1  0
 11 13  2  0
 14 15  1  0
 15 16  1  0
 15 17  2  0
 15 18  2  0
 16 19  2  0
 16 23  1  0
 19 20  1  0
 20 21  2  0
 21 22  1  0
 22 23  2  0
  1 24  1  0
  1 25  1  0
  2 26  1  0
  2 27  1  0
  5 28  1  0
  5 29  1  0
  6 30  1  0
  6 31  1  0
  7 32  1  0
  8 33  1  0
 12 34  1  0
 14 35  1  0
 19 36  1  0
 20 37  1  0
 21 38  1  0
 22 39  1  0
 23 40  1  0
A    1
C1
A    2
C2
A    3
C3
A    4
C4
A    5
C5
A    6
C6
A    7
C7
A    8
C8
A    9
C9
A   10
C10
A   11
C11
A   12
O12
A   13
O13
A   14
N14
A   15
S15
A   16
C16
A   17
O17
A   18
O18
A   19
C19
A   20
C20
A   21
C21
A   22
C22
A   23
C23
M  END
