1YY4_4NA_A_201
     RDKit          3D

 30 32  0  0  0  0  0  0  0  0999 V2000
   33.4230   36.2570   36.5760 C   0  0  0  0  0  0  0  0  0  0  0  0
   32.1680   36.8970   36.2850 C   0  0  0  0  0  0  0  0  0  0  0  0
   31.0180   36.6980   37.1690 C   0  0  0  0  0  0  0  0  0  0  0  0
   31.1960   35.8510   38.3850 C   0  0  0  0  0  0  0  0  0  0  0  0
   32.4550   35.2390   38.6280 C   0  0  0  0  0  0  0  0  0  0  0  0
   33.5550   35.4460   37.7440 C   0  0  0  0  0  0  0  0  0  0  0  0
   29.7320   37.3100   36.9460 C   0  0  0  0  0  0  0  0  0  0  0  0
   28.6550   37.0780   37.8610 C   0  0  0  0  0  0  0  0  0  0  0  0
   28.8040   36.2480   39.0450 C   0  0  0  0  0  0  0  0  0  0  0  0
   30.0970   35.6320   39.2830 C   0  0  0  0  0  0  0  0  0  0  0  0
   27.6250   36.0470   39.9980 C   0  0  0  0  0  0  0  0  0  0  0  0
   26.2660   36.1390   39.5170 C   0  0  0  0  0  0  0  0  0  0  0  0
   25.1600   35.9670   40.4020 C   0  0  0  0  0  0  0  0  0  0  0  0
   25.3940   35.7010   41.7850 C   0  0  0  0  0  0  0  0  0  0  0  0
   26.7260   35.6040   42.2980 C   0  0  0  0  0  0  0  0  0  0  0  0
   27.8340   35.7770   41.4080 C   0  0  0  0  0  0  0  0  0  0  0  0
   24.3080   35.5370   42.6310 O   0  0  0  0  0  0  0  0  0  0  0  0
   32.1100   37.8660   34.8330 Cl  0  0  0  0  0  0  0  0  0  0  0  0
   34.5470   36.4020   35.7720 O   0  0  0  0  0  0  0  0  0  0  0  0
   32.5833   34.5959   39.5111 H   0  0  0  0  0  0  0  0  0  0  0  0
   34.5227   34.9723   37.9660 H   0  0  0  0  0  0  0  0  0  0  0  0
   29.5774   37.9573   36.0702 H   0  0  0  0  0  0  0  0  0  0  0  0
   27.6794   37.5449   37.6605 H   0  0  0  0  0  0  0  0  0  0  0  0
   30.2368   34.9882   40.1639 H   0  0  0  0  0  0  0  0  0  0  0  0
   26.0810   36.3448   38.4524 H   0  0  0  0  0  0  0  0  0  0  0  0
   24.1309   36.0391   40.0201 H   0  0  0  0  0  0  0  0  0  0  0  0
   26.8970   35.3987   43.3650 H   0  0  0  0  0  0  0  0  0  0  0  0
   28.8595   35.7041   41.7993 H   0  0  0  0  0  0  0  0  0  0  0  0
   24.4376   35.5566   43.6123 H   0  0  0  0  0  0  0  0  0  0  0  0
   35.4394   36.5171   36.1849 H   0  0  0  0  0  0  0  0  0  0  0  0
  1  2  2  0
  1  6  1  0
  1 19  1  0
  2  3  1  0
  2 18  1  0
  3  4  2  0
  3  7  1  0
  4  5  1  0
  4 10  1  0
  5  6  2  0
  7  8  2  0
  8  9  1  0
  9 10  2  0
  9 11  1  0
 11 12  2  0
 11 16  1  0
 12 13  1  0
 13 14  2  0
 14 15  1  0
 14 17  1  0
 15 16  2  0
  5 20  1  0
  6 21  1  0
  7 22  1  0
  8 23  1  0
 10 24  1  0
 12 25  1  0
 13 26  1  0
 15 27  1  0
 16 28  1  0
 17 29  1  0
 19 30  1  0
A    1
C1
A    2
C2
A    3
C3
A    4
C4
A    5
C5
A    6
C6
A    7
C9
A    8
C10
A    9
C11
A   10
C12
A   11
C16
A   12
C17
A   13
C18
A   14
C19
A   15
C20
A   16
C21
A   17
O26
A   18
CL27
A   19
O28
M  END
