1YYE_196_A_531
     RDKit          3D

 31 33  0  0  0  0  0  0  0  0999 V2000
   26.2360   36.2130   41.8980 C   0  0  0  0  0  0  0  0  0  0  0  0
   26.1850   36.5960   40.5190 C   0  0  0  0  0  0  0  0  0  0  0  0
   27.3570   36.6940   39.7290 C   0  0  0  0  0  0  0  0  0  0  0  0
   28.6380   36.4010   40.3130 C   0  0  0  0  0  0  0  0  0  0  0  0
   28.6880   36.0150   41.7110 C   0  0  0  0  0  0  0  0  0  0  0  0
   27.5000   35.9160   42.5040 C   0  0  0  0  0  0  0  0  0  0  0  0
   25.0840   36.1150   42.6680 O   0  0  0  0  0  0  0  0  0  0  0  0
   24.9920   36.8690   39.9840 F   0  0  0  0  0  0  0  0  0  0  0  0
   29.9010   36.5060   39.4650 C   0  0  0  0  0  0  0  0  0  0  0  0
   31.1260   35.8350   39.8240 C   0  0  0  0  0  0  0  0  0  0  0  0
   32.3060   35.9350   39.0280 C   0  0  0  0  0  0  0  0  0  0  0  0
   32.2740   36.7940   37.8050 C   0  0  0  0  0  0  0  0  0  0  0  0
   31.0360   37.4590   37.4330 C   0  0  0  0  0  0  0  0  0  0  0  0
   29.8930   37.3150   38.2720 C   0  0  0  0  0  0  0  0  0  0  0  0
   33.5020   35.2620   39.4230 C   0  0  0  0  0  0  0  0  0  0  0  0
   34.6740   35.3910   38.6130 C   0  0  0  0  0  0  0  0  0  0  0  0
   34.6630   36.1980   37.4270 C   0  0  0  0  0  0  0  0  0  0  0  0
   33.4820   36.8830   37.0130 C   0  0  0  0  0  0  0  0  0  0  0  0
   30.8940   38.2980   36.2690 C   0  0  0  0  0  0  0  0  0  0  0  0
   30.7900   38.9480   35.3170 N   0  0  0  0  0  0  0  0  0  0  0  0
   35.8180   36.3020   36.6720 O   0  0  0  0  0  0  0  0  0  0  0  0
   27.2873   36.9931   38.6728 H   0  0  0  0  0  0  0  0  0  0  0  0
   29.6616   35.7932   42.1724 H   0  0  0  0  0  0  0  0  0  0  0  0
   27.5567   35.6169   43.5610 H   0  0  0  0  0  0  0  0  0  0  0  0
   25.1470   36.1204   43.6560 H   0  0  0  0  0  0  0  0  0  0  0  0
   31.1515   35.2270   40.7403 H   0  0  0  0  0  0  0  0  0  0  0  0
   28.9674   37.8425   37.9981 H   0  0  0  0  0  0  0  0  0  0  0  0
   33.5218   34.6523   40.3383 H   0  0  0  0  0  0  0  0  0  0  0  0
   35.5953   34.8647   38.9032 H   0  0  0  0  0  0  0  0  0  0  0  0
   33.4896   37.4804   36.0894 H   0  0  0  0  0  0  0  0  0  0  0  0
   36.6971   36.3812   37.1204 H   0  0  0  0  0  0  0  0  0  0  0  0
  1  2  2  0
  1  6  1  0
  1  7  1  0
  2  3  1  0
  2  8  1  0
  3  4  2  0
  4  5  1  0
  4  9  1  0
  5  6  2  0
  9 10  2  0
  9 14  1  0
 10 11  1  0
 11 12  2  0
 11 15  1  0
 12 13  1  0
 12 18  1  0
 13 14  2  0
 13 19  1  0
 15 16  2  0
 16 17  1  0
 17 18  2  0
 17 21  1  0
 19 20  3  0
  3 22  1  0
  5 23  1  0
  6 24  1  0
  7 25  1  0
 10 26  1  0
 14 27  1  0
 15 28  1  0
 16 29  1  0
 18 30  1  0
 21 31  1  0
A    1
C1
A    2
C2
A    3
C3
A    4
C4
A    5
C5
A    6
C6
A    7
O10
A    8
F11
A    9
C12
A   10
C13
A   11
C14
A   12
C15
A   13
C16
A   14
C17
A   15
C20
A   16
C21
A   17
C22
A   18
C23
A   19
C27
A   20
N28
A   21
O29
M  END
