1YZ3_SKA_A_3001
     RDKit          3D

 21 22  0  0  0  0  0  0  0  0999 V2000
   26.6830   41.4430   16.4840 Cl  0  0  0  0  0  0  0  0  0  0  0  0
   27.2580   43.0760   16.4370 C   0  0  0  0  0  0  0  0  0  0  0  0
   27.8860   43.6150   17.5590 C   0  0  0  0  0  0  0  0  0  0  0  0
   28.0740   42.8070   18.8460 C   0  0  0  0  0  0  0  0  0  0  0  0
   29.1060   43.4070   19.7110 N   0  0  0  0  0  0  0  0  0  0  0  0
   28.8180   44.8240   19.9750 C   0  0  0  0  0  0  0  0  0  0  0  0
   29.0420   45.6150   18.6840 C   0  0  0  0  0  0  0  0  0  0  0  0
   28.3320   44.9360   17.5080 C   0  0  0  0  0  0  0  0  0  0  0  0
   28.1520   45.6970   16.3600 C   0  0  0  0  0  0  0  0  0  0  0  0
   27.5240   45.1510   15.2430 C   0  0  0  0  0  0  0  0  0  0  0  0
   27.0760   43.8370   15.2820 C   0  0  0  0  0  0  0  0  0  0  0  0
   26.3020   43.1920   13.8760 Cl  0  0  0  0  0  0  0  0  0  0  0  0
   27.1203   42.7785   19.3934 H   0  0  0  0  0  0  0  0  0  0  0  0
   28.3977   41.7916   18.5735 H   0  0  0  0  0  0  0  0  0  0  0  0
   29.1331   42.8971   20.6055 H   0  0  0  0  0  0  0  0  0  0  0  0
   27.7736   44.9355   20.3018 H   0  0  0  0  0  0  0  0  0  0  0  0
   29.4808   45.2015   20.7676 H   0  0  0  0  0  0  0  0  0  0  0  0
   28.6429   46.6324   18.8091 H   0  0  0  0  0  0  0  0  0  0  0  0
   30.1210   45.6538   18.4735 H   0  0  0  0  0  0  0  0  0  0  0  0
   28.5077   46.7375   16.3328 H   0  0  0  0  0  0  0  0  0  0  0  0
   27.3838   45.7568   14.3356 H   0  0  0  0  0  0  0  0  0  0  0  0
  1  2  1  0
  2  3  2  0
  2 11  1  0
  3  4  1  0
  3  8  1  0
  4  5  1  0
  5  6  1  0
  6  7  1  0
  7  8  1  0
  8  9  2  0
  9 10  1  0
 10 11  2  0
 11 12  1  0
  4 13  1  0
  4 14  1  0
  5 15  1  0
  6 16  1  0
  6 17  1  0
  7 18  1  0
  7 19  1  0
  9 20  1  0
 10 21  1  0
A    1
CL4
A    2
C4
A    3
C5
A    4
C11
A    5
N10
A    6
C9
A    7
C8
A    8
C6
A    9
C1
A   10
C2
A   11
C3
A   12
CL3
M  END
