1YZX_GSF_A_301
     RDKit          3D

 39 38  0  0  0  0  0  0  0  0999 V2000
   16.5110   68.3410    3.5530 C   0  0  0  0  0  0  0  0  0  0  0  0
   16.4590   66.8610    2.9910 C   0  0  0  0  0  0  0  0  0  0  0  0
   15.0300   66.2610    2.9880 C   0  0  0  0  0  0  0  0  0  0  0  0
   14.0660   66.9370    3.4070 O   0  0  0  0  0  0  0  0  0  0  0  0
   18.5890   69.3130    2.3220 C   0  0  0  0  0  0  0  0  0  0  0  0
   18.9750   68.2840    1.7230 O   0  0  0  0  0  0  0  0  0  0  0  0
   18.7700   70.4570    1.9050 O   0  0  0  0  0  0  0  0  0  0  0  0
   17.4770   70.4990    4.2320 N   0  0  0  0  0  0  0  0  0  0  0  0
   17.8420   69.1520    3.6640 C   0  0  0  0  0  0  0  0  0  0  0  0
   14.8750   64.9640    2.5160 N   0  0  0  0  0  0  0  0  0  0  0  0
   13.5060   64.2630    2.4850 C   0  0  0  0  0  0  0  0  0  0  0  0
   13.3800   63.5370    1.1690 C   0  0  0  0  0  0  0  0  0  0  0  0
   13.2120   64.4930   -0.2720 S   0  0  0  0  0  0  0  0  0  0  0  0
   14.4910   64.5320   -1.0580 O   0  0  0  0  0  0  0  0  0  0  0  0
   12.1400   63.7430   -0.9380 O   0  0  0  0  0  0  0  0  0  0  0  0
   13.5890   63.4090    3.7400 C   0  0  0  0  0  0  0  0  0  0  0  0
   13.9790   62.2240    3.7550 O   0  0  0  0  0  0  0  0  0  0  0  0
   13.1530   64.1190    4.8210 N   0  0  0  0  0  0  0  0  0  0  0  0
   13.1120   63.5100    6.1870 C   0  0  0  0  0  0  0  0  0  0  0  0
   12.5840   64.5110    7.1940 C   0  0  0  0  0  0  0  0  0  0  0  0
   12.2840   64.0510    8.3050 O   0  0  0  0  0  0  0  0  0  0  0  0
   12.4650   65.7260    6.8850 O   0  0  0  0  0  0  0  0  0  0  0  0
   15.8443   68.9350    2.9106 H   0  0  0  0  0  0  0  0  0  0  0  0
   16.2514   68.1890    4.6111 H   0  0  0  0  0  0  0  0  0  0  0  0
   16.8390   66.8651    1.9587 H   0  0  0  0  0  0  0  0  0  0  0  0
   17.0752   66.2366    3.6546 H   0  0  0  0  0  0  0  0  0  0  0  0
   19.2718   67.4929    2.2389 H   0  0  0  0  0  0  0  0  0  0  0  0
   17.4896   70.4526    5.2609 H   0  0  0  0  0  0  0  0  0  0  0  0
   18.1577   71.2026    3.9117 H   0  0  0  0  0  0  0  0  0  0  0  0
   18.5423   68.6022    4.3100 H   0  0  0  0  0  0  0  0  0  0  0  0
   15.7033   64.4551    2.1758 H   0  0  0  0  0  0  0  0  0  0  0  0
   12.5976   64.8827    2.5134 H   0  0  0  0  0  0  0  0  0  0  0  0
   14.2812   62.9178    1.0485 H   0  0  0  0  0  0  0  0  0  0  0  0
   12.4315   62.9855    1.2471 H   0  0  0  0  0  0  0  0  0  0  0  0
   11.5521   63.3317   -0.2559 H   0  0  0  0  0  0  0  0  0  0  0  0
   12.8459   65.0939    4.6938 H   0  0  0  0  0  0  0  0  0  0  0  0
   12.4535   62.6290    6.1718 H   0  0  0  0  0  0  0  0  0  0  0  0
   14.1309   63.2143    6.4774 H   0  0  0  0  0  0  0  0  0  0  0  0
   12.5840   64.5111    9.1287 H   0  0  0  0  0  0  0  0  0  0  0  0
  1  2  1  0
  1  9  1  0
  2  3  1  0
  3  4  2  0
  3 10  1  0
  5  6  1  0
  5  7  2  0
  5  9  1  0
  8  9  1  0
 10 11  1  0
 11 12  1  0
 11 16  1  0
 12 13  1  0
 13 14  2  0
 13 15  1  0
 16 17  2  0
 16 18  1  0
 18 19  1  0
 19 20  1  0
 20 21  1  0
 20 22  2  0
  1 23  1  0
  1 24  1  0
  2 25  1  0
  2 26  1  0
  6 27  1  0
  8 28  1  0
  8 29  1  0
  9 30  1  0
 10 31  1  0
 11 32  1  0
 12 33  1  0
 12 34  1  0
 15 35  1  0
 18 36  1  0
 19 37  1  0
 19 38  1  0
 21 39  1  0
A    1
CB1
A    2
CG1
A    3
CD1
A    4
OE1
A    5
C1
A    6
O11
A    7
O12
A    8
N1
A    9
CA1
A   10
N2
A   11
CA2
A   12
CB2
A   13
SG2
A   14
O1S
A   15
O2S
A   16
C2
A   17
O2
A   18
N3
A   19
CA3
A   20
C3
A   21
O31
A   22
O32
M  END
