1Z11_8MO_A_501
     RDKit          3D

 24 26  0  0  0  0  0  0  0  0999 V2000
   55.8450   77.5480   60.3330 C   0  0  0  0  0  0  0  0  0  0  0  0
   52.4250   79.7000   58.2450 C   0  0  0  0  0  0  0  0  0  0  0  0
   52.4480   78.5730   58.9460 C   0  0  0  0  0  0  0  0  0  0  0  0
   57.3380   81.5670   59.3660 C   0  0  0  0  0  0  0  0  0  0  0  0
   58.6620   77.8600   60.7520 C   0  0  0  0  0  0  0  0  0  0  0  0
   57.9470   76.7350   61.2890 C   0  0  0  0  0  0  0  0  0  0  0  0
   56.6190   76.5920   61.0890 C   0  0  0  0  0  0  0  0  0  0  0  0
   54.4670   77.3960   60.1210 C   0  0  0  0  0  0  0  0  0  0  0  0
   53.7910   78.3820   59.3640 C   0  0  0  0  0  0  0  0  0  0  0  0
   54.5190   79.4900   58.8460 C   0  0  0  0  0  0  0  0  0  0  0  0
   55.8760   79.6840   59.0290 C   0  0  0  0  0  0  0  0  0  0  0  0
   56.5430   78.6710   59.7950 C   0  0  0  0  0  0  0  0  0  0  0  0
   57.9290   78.7920   60.0220 O   0  0  0  0  0  0  0  0  0  0  0  0
   53.6760   80.3100   58.1520 O   0  0  0  0  0  0  0  0  0  0  0  0
   56.5600   80.7790   58.5010 O   0  0  0  0  0  0  0  0  0  0  0  0
   59.8310   78.0590   60.8810 O   0  0  0  0  0  0  0  0  0  0  0  0
   51.5139   80.1103   57.7851 H   0  0  0  0  0  0  0  0  0  0  0  0
   51.5929   77.9153   59.1611 H   0  0  0  0  0  0  0  0  0  0  0  0
   57.0925   81.3183   60.4090 H   0  0  0  0  0  0  0  0  0  0  0  0
   58.4044   81.3688   59.1831 H   0  0  0  0  0  0  0  0  0  0  0  0
   57.1262   82.6308   59.1831 H   0  0  0  0  0  0  0  0  0  0  0  0
   58.4905   75.9775   61.8728 H   0  0  0  0  0  0  0  0  0  0  0  0
   56.1091   75.7164   61.5171 H   0  0  0  0  0  0  0  0  0  0  0  0
   53.9252   76.5318   60.5329 H   0  0  0  0  0  0  0  0  0  0  0  0
  1  7  1  0
  1  8  1  0
  1 12  2  0
  2  3  2  0
  2 14  1  0
  3  9  1  0
  4 15  1  0
  5  6  1  0
  5 13  1  0
  5 16  2  0
  6  7  2  0
  8  9  2  0
  9 10  1  0
 10 11  2  0
 10 14  1  0
 11 12  1  0
 11 15  1  0
 12 13  1  0
  2 17  1  0
  3 18  1  0
  4 19  1  0
  4 20  1  0
  4 21  1  0
  6 22  1  0
  7 23  1  0
  8 24  1  0
A    1
C1
A    2
C2
A    3
C3
A    4
C4
A    5
C5
A    6
C6
A    7
C7
A    8
C8
A    9
C9
A   10
C10
A   11
C11
A   12
C12
A   13
O1
A   14
O2
A   15
O3
A   16
O4
M  END
