1Z2L_1AL_B_516
     RDKit          3D

 19 18  0  0  0  0  0  0  0  0999 V2000
   61.3600   33.2870   21.5770 C   0  0  0  0  0  0  0  0  0  0  0  0
   62.4310   33.5760   21.0330 O   0  0  0  0  0  0  0  0  0  0  0  0
   60.1870   33.7130   21.1350 N   0  0  0  0  0  0  0  0  0  0  0  0
   61.4680   32.4530   22.6650 N   0  0  0  0  0  0  0  0  0  0  0  0
   59.3680   31.6350   23.4340 C   0  0  0  0  0  0  0  0  0  0  0  0
   58.9550   31.0500   24.4650 O   0  0  0  0  0  0  0  0  0  0  0  0
   58.6280   32.5140   22.9310 O   0  0  0  0  0  0  0  0  0  0  0  0
   60.7380   31.3070   22.7230 C   0  0  0  0  0  0  0  0  0  0  0  0
   61.5330   29.5030   24.5260 C   0  0  0  0  0  0  0  0  0  0  0  0
   62.3740   28.5940   24.6020 O   0  0  0  0  0  0  0  0  0  0  0  0
   60.6990   29.8020   25.5480 N   0  0  0  0  0  0  0  0  0  0  0  0
   61.6130   30.1790   23.3020 N   0  0  0  0  0  0  0  0  0  0  0  0
   59.4508   33.9804   21.8039 H   0  0  0  0  0  0  0  0  0  0  0  0
   60.0106   33.7771   20.1222 H   0  0  0  0  0  0  0  0  0  0  0  0
   62.1034   32.6969   23.4381 H   0  0  0  0  0  0  0  0  0  0  0  0
   60.4418   30.9084   21.7415 H   0  0  0  0  0  0  0  0  0  0  0  0
   61.0159   29.6884   26.5214 H   0  0  0  0  0  0  0  0  0  0  0  0
   59.7470   30.1433   25.3528 H   0  0  0  0  0  0  0  0  0  0  0  0
   62.3819   29.8720   22.6893 H   0  0  0  0  0  0  0  0  0  0  0  0
  1  2  2  0
  1  3  1  0
  1  4  1  0
  4  8  1  0
  5  6  1  0
  5  7  2  0
  5  8  1  0
  8 12  1  0
  9 10  2  0
  9 11  1  0
  9 12  1  0
  3 13  1  0
  3 14  1  0
  4 15  1  0
  8 16  1  0
 11 17  1  0
 11 18  1  0
 12 19  1  0
M  CHG  1   6  -1
A    1
C1
A    2
O2
A    3
N3
A    4
N4
A    5
C5
A    6
O6
A    7
O7
A    8
C8
A    9
C9
A   10
O10
A   11
N11
A   12
N12
M  END
