1Z4U_PH9_A_600
     RDKit          3D

 60 64  0  0  0  0  0  0  0  0999 V2000
  -10.8320   55.7820   47.6710 C   0  0  0  0  0  0  0  0  0  0  0  0
  -11.8860   56.1380   46.7730 C   0  0  0  0  0  0  0  0  0  0  0  0
  -13.1200   56.6640   47.2650 C   0  0  0  0  0  0  0  0  0  0  0  0
  -13.3020   56.8460   48.6600 C   0  0  0  0  0  0  0  0  0  0  0  0
  -12.2210   56.4890   49.5260 C   0  0  0  0  0  0  0  0  0  0  0  0
  -11.0330   55.9750   49.0310 C   0  0  0  0  0  0  0  0  0  0  0  0
   -8.4160   54.7970   47.8060 C   0  0  0  0  0  0  0  0  0  0  0  0
   -9.5390   55.2420   47.1870 C   0  0  0  0  0  0  0  0  0  0  0  0
   -8.1930   54.7080   49.2050 N   0  0  0  0  0  0  0  0  0  0  0  0
   -7.9010   55.7510   50.0280 C   0  0  0  0  0  0  0  0  0  0  0  0
   -7.2790   54.3120   46.9520 C   0  0  0  0  0  0  0  0  0  0  0  0
   -7.7860   56.9390   49.6670 O   0  0  0  0  0  0  0  0  0  0  0  0
   -7.3810   54.5290   45.7200 O   0  0  0  0  0  0  0  0  0  0  0  0
   -6.3080   53.7140   47.4700 O   0  0  0  0  0  0  0  0  0  0  0  0
  -14.4880   57.3690   49.1480 O   0  0  0  0  0  0  0  0  0  0  0  0
  -14.7360   57.6270   50.4940 C   0  0  0  0  0  0  0  0  0  0  0  0
  -14.6250   58.9820   50.9660 C   0  0  0  0  0  0  0  0  0  0  0  0
  -14.8730   59.2790   52.3570 C   0  0  0  0  0  0  0  0  0  0  0  0
  -15.2180   58.2270   53.2740 C   0  0  0  0  0  0  0  0  0  0  0  0
  -15.3290   56.8760   52.8170 C   0  0  0  0  0  0  0  0  0  0  0  0
  -15.0850   56.5850   51.4410 C   0  0  0  0  0  0  0  0  0  0  0  0
  -14.1610   60.3490   49.7070 Br  0  0  0  0  0  0  0  0  0  0  0  0
   -8.5850   55.4740   54.3960 C   0  0  0  0  0  0  0  0  0  0  0  0
   -7.2410   56.1230   53.9180 C   0  0  0  0  0  0  0  0  0  0  0  0
   -8.9010   54.2060   53.5190 C   0  0  0  0  0  0  0  0  0  0  0  0
   -7.4020   56.5610   52.4290 C   0  0  0  0  0  0  0  0  0  0  0  0
   -9.0480   54.6570   52.0300 C   0  0  0  0  0  0  0  0  0  0  0  0
   -7.7300   55.3330   51.5000 C   0  0  0  0  0  0  0  0  0  0  0  0
   -7.7220   53.1640   53.6250 C   0  0  0  0  0  0  0  0  0  0  0  0
   -6.3920   53.8240   53.1410 C   0  0  0  0  0  0  0  0  0  0  0  0
   -6.0800   55.0760   54.0270 C   0  0  0  0  0  0  0  0  0  0  0  0
   -6.5710   54.2770   51.6570 C   0  0  0  0  0  0  0  0  0  0  0  0
  -11.7452   56.0053   45.6901 H   0  0  0  0  0  0  0  0  0  0  0  0
  -13.9262   56.9269   46.5644 H   0  0  0  0  0  0  0  0  0  0  0  0
  -12.3354   56.6258   50.6114 H   0  0  0  0  0  0  0  0  0  0  0  0
  -10.2284   55.7132   49.7339 H   0  0  0  0  0  0  0  0  0  0  0  0
   -8.0110   55.8197   47.8065 H   0  0  0  0  0  0  0  0  0  0  0  0
   -9.8426   54.3814   46.5728 H   0  0  0  0  0  0  0  0  0  0  0  0
   -9.1200   56.2160   46.8943 H   0  0  0  0  0  0  0  0  0  0  0  0
   -8.2578   53.7737   49.6337 H   0  0  0  0  0  0  0  0  0  0  0  0
   -7.7792   55.3762   45.3979 H   0  0  0  0  0  0  0  0  0  0  0  0
  -14.7976   60.3157   52.7170 H   0  0  0  0  0  0  0  0  0  0  0  0
  -15.3977   58.4623   54.3334 H   0  0  0  0  0  0  0  0  0  0  0  0
  -15.5990   56.0716   53.5171 H   0  0  0  0  0  0  0  0  0  0  0  0
  -15.1635   55.5454   51.0902 H   0  0  0  0  0  0  0  0  0  0  0  0
   -8.4926   55.1757   55.4507 H   0  0  0  0  0  0  0  0  0  0  0  0
   -9.4010   56.2040   54.2896 H   0  0  0  0  0  0  0  0  0  0  0  0
   -6.7878   57.1123   54.0789 H   0  0  0  0  0  0  0  0  0  0  0  0
   -9.8160   53.6181   53.3543 H   0  0  0  0  0  0  0  0  0  0  0  0
   -7.9189   57.5200   52.2767 H   0  0  0  0  0  0  0  0  0  0  0  0
   -6.4862   57.1004   52.7125 H   0  0  0  0  0  0  0  0  0  0  0  0
   -9.1231   53.5607   52.0793 H   0  0  0  0  0  0  0  0  0  0  0  0
  -10.1145   54.7174   51.7674 H   0  0  0  0  0  0  0  0  0  0  0  0
   -7.6111   52.8423   54.6710 H   0  0  0  0  0  0  0  0  0  0  0  0
   -7.9477   52.2926   52.9928 H   0  0  0  0  0  0  0  0  0  0  0  0
   -5.5643   53.1039   53.2210 H   0  0  0  0  0  0  0  0  0  0  0  0
   -5.1419   55.5376   53.6852 H   0  0  0  0  0  0  0  0  0  0  0  0
   -5.9833   54.7571   55.0753 H   0  0  0  0  0  0  0  0  0  0  0  0
   -6.8072   53.3959   51.0424 H   0  0  0  0  0  0  0  0  0  0  0  0
   -5.6331   54.7494   51.3296 H   0  0  0  0  0  0  0  0  0  0  0  0
  1  2  2  0
  1  6  1  0
  1  8  1  0
  2  3  1  0
  3  4  2  0
  4  5  1  0
  4 15  1  0
  5  6  2  0
  7  8  1  0
  7  9  1  0
  7 11  1  0
  9 10  1  0
 10 12  2  0
 10 28  1  0
 11 13  1  0
 11 14  2  0
 15 16  1  0
 16 17  2  0
 16 21  1  0
 17 18  1  0
 17 22  1  0
 18 19  2  0
 19 20  1  0
 20 21  2  0
 23 24  1  0
 23 25  1  0
 24 27  1  0
 24 31  1  0
 25 26  1  0
 25 29  1  0
 26 28  1  0
 27 28  1  0
 28 32  1  0
 29 30  1  0
 30 31  1  0
 30 32  1  0
  2 33  1  0
  3 34  1  0
  5 35  1  0
  6 36  1  0
  7 37  1  0
  8 38  1  0
  8 39  1  0
  9 40  1  0
 13 41  1  0
 18 42  1  0
 19 43  1  0
 20 44  1  0
 21 45  1  0
 23 46  1  0
 23 47  1  0
 24 48  1  0
 25 49  1  0
 26 50  1  0
 26 51  1  0
 27 52  1  0
 27 53  1  0
 29 54  1  0
 29 55  1  0
 30 56  1  0
 31 57  1  0
 31 58  1  0
 32 59  1  0
 32 60  1  0
A    1
CB2
A    2
CB3
A    3
CB4
A    4
CB6
A    5
CB5
A    6
CB1
A    7
C2
A    8
C1
A    9
N
A   10
C
A   11
CO2
A   12
O
A   13
OC1
A   14
OC2
A   15
OAB
A   16
CA1
A   17
CA2
A   18
CA3
A   19
CA4
A   20
CA5
A   21
CA6
A   22
BRA2
A   23
CC4
A   24
CC3
A   25
CC5
A   26
CC2
A   27
CC6
A   28
CC1
A   29
C10
A   30
CC8
A   31
CC9
A   32
CC7
M  END
