1Z6L_DRE_A_804
     RDKit          3D

 44 43  0  0  0  0  0  0  0  0999 V2000
   63.9690  -22.1520   -1.6060 N   0  0  0  0  0  0  0  0  0  0  0  0
   65.2870  -21.9680   -2.2290 C   0  0  0  0  0  0  0  0  0  0  0  0
   66.3530  -22.7130   -1.4220 C   0  0  0  0  0  0  0  0  0  0  0  0
   66.0610  -24.2140   -1.3720 C   0  0  0  0  0  0  0  0  0  0  0  0
   67.1280  -24.9500   -0.5600 C   0  0  0  0  0  0  0  0  0  0  0  0
   66.7710  -26.4290   -0.4040 C   0  0  0  0  0  0  0  0  0  0  0  0
   67.8250  -27.1520    0.4380 C   0  0  0  0  0  0  0  0  0  0  0  0
   67.4490  -28.5650    0.5950 N   0  0  0  0  0  0  0  0  0  0  0  0
   68.5060  -29.3190    1.2870 C   0  0  0  0  0  0  0  0  0  0  0  0
   69.5700  -29.8030    0.2980 C   0  0  0  0  0  0  0  0  0  0  0  0
   70.3540  -28.6380   -0.3100 C   0  0  0  0  0  0  0  0  0  0  0  0
   71.4250  -29.1320   -1.2850 C   0  0  0  0  0  0  0  0  0  0  0  0
   72.2900  -27.9800   -1.8030 C   0  0  0  0  0  0  0  0  0  0  0  0
   73.1130  -27.3440   -0.6800 C   0  0  0  0  0  0  0  0  0  0  0  0
   73.8830  -26.2120   -1.2140 N   0  0  0  0  0  0  0  0  0  0  0  0
   64.0688  -22.1381   -0.5809 H   0  0  0  0  0  0  0  0  0  0  0  0
   63.3409  -21.3905   -1.9002 H   0  0  0  0  0  0  0  0  0  0  0  0
   65.2638  -22.3634   -3.2552 H   0  0  0  0  0  0  0  0  0  0  0  0
   65.5316  -20.8957   -2.2492 H   0  0  0  0  0  0  0  0  0  0  0  0
   67.3348  -22.5540   -1.8918 H   0  0  0  0  0  0  0  0  0  0  0  0
   66.3471  -22.3227   -0.3936 H   0  0  0  0  0  0  0  0  0  0  0  0
   65.0782  -24.3745   -0.9047 H   0  0  0  0  0  0  0  0  0  0  0  0
   66.0666  -24.6079   -2.3990 H   0  0  0  0  0  0  0  0  0  0  0  0
   68.0956  -24.8655   -1.0764 H   0  0  0  0  0  0  0  0  0  0  0  0
   67.1852  -24.4948    0.4397 H   0  0  0  0  0  0  0  0  0  0  0  0
   65.7923  -26.5143    0.0908 H   0  0  0  0  0  0  0  0  0  0  0  0
   66.7351  -26.8921   -1.4011 H   0  0  0  0  0  0  0  0  0  0  0  0
   68.8017  -27.0870   -0.0638 H   0  0  0  0  0  0  0  0  0  0  0  0
   67.8872  -26.6790    1.4291 H   0  0  0  0  0  0  0  0  0  0  0  0
   66.5795  -28.6230    1.1441 H   0  0  0  0  0  0  0  0  0  0  0  0
   68.9805  -28.6685    2.0364 H   0  0  0  0  0  0  0  0  0  0  0  0
   68.0519  -30.1961    1.7713 H   0  0  0  0  0  0  0  0  0  0  0  0
   70.2708  -30.4666    0.8257 H   0  0  0  0  0  0  0  0  0  0  0  0
   69.0602  -30.3348   -0.5189 H   0  0  0  0  0  0  0  0  0  0  0  0
   69.6563  -27.9799   -0.8486 H   0  0  0  0  0  0  0  0  0  0  0  0
   70.8535  -28.0947    0.5057 H   0  0  0  0  0  0  0  0  0  0  0  0
   72.0698  -29.8585   -0.7689 H   0  0  0  0  0  0  0  0  0  0  0  0
   70.9198  -29.5964   -2.1447 H   0  0  0  0  0  0  0  0  0  0  0  0
   72.9746  -28.3658   -2.5727 H   0  0  0  0  0  0  0  0  0  0  0  0
   71.6239  -27.2101   -2.2197 H   0  0  0  0  0  0  0  0  0  0  0  0
   72.4378  -26.9867    0.1115 H   0  0  0  0  0  0  0  0  0  0  0  0
   73.8039  -28.0923   -0.2644 H   0  0  0  0  0  0  0  0  0  0  0  0
   74.2614  -25.6557   -0.4341 H   0  0  0  0  0  0  0  0  0  0  0  0
   74.6590  -26.5664   -1.7911 H   0  0  0  0  0  0  0  0  0  0  0  0
  1  2  1  0
  2  3  1  0
  3  4  1  0
  4  5  1  0
  5  6  1  0
  6  7  1  0
  7  8  1  0
  8  9  1  0
  9 10  1  0
 10 11  1  0
 11 12  1  0
 12 13  1  0
 13 14  1  0
 14 15  1  0
  1 16  1  0
  1 17  1  0
  2 18  1  0
  2 19  1  0
  3 20  1  0
  3 21  1  0
  4 22  1  0
  4 23  1  0
  5 24  1  0
  5 25  1  0
  6 26  1  0
  6 27  1  0
  7 28  1  0
  7 29  1  0
  8 30  1  0
  9 31  1  0
  9 32  1  0
 10 33  1  0
 10 34  1  0
 11 35  1  0
 11 36  1  0
 12 37  1  0
 12 38  1  0
 13 39  1  0
 13 40  1  0
 14 41  1  0
 14 42  1  0
 15 43  1  0
 15 44  1  0
A    1
NAA
A    2
CAB
A    3
CAC
A    4
CAD
A    5
CAE
A    6
CAF
A    7
CAG
A    8
NAH
A    9
CAI
A   10
CAJ
A   11
CAK
A   12
CAL
A   13
CAM
A   14
CAN
A   15
NAO
M  END
