1Z89_62P_A_600
     RDKit          3D

 30 32  0  0  0  0  0  0  0  0999 V2000
   17.5790   -7.2140   17.6100 C   0  0  0  0  0  0  0  0  0  0  0  0
   16.9770   -7.0030   16.2750 C   0  0  0  0  0  0  0  0  0  0  0  0
   17.7480   -7.7880   14.8880 S   0  0  0  0  0  0  0  0  0  0  0  0
   19.1770   -7.5830   15.0680 O   0  0  0  0  0  0  0  0  0  0  0  0
   17.0810   -9.0420   14.6410 O   0  0  0  0  0  0  0  0  0  0  0  0
   17.2540   -6.7130   13.5480 C   0  0  0  0  0  0  0  0  0  0  0  0
   16.0030   -6.8450   13.0790 O   0  0  0  0  0  0  0  0  0  0  0  0
   15.9320   -5.8400   12.1300 C   0  0  0  0  0  0  0  0  0  0  0  0
   14.7660   -5.6200   11.3780 C   0  0  0  0  0  0  0  0  0  0  0  0
   14.8530   -4.5640   10.4580 C   0  0  0  0  0  0  0  0  0  0  0  0
   16.0490   -3.8470   10.3640 C   0  0  0  0  0  0  0  0  0  0  0  0
   16.0790   -2.5510    9.2130 Cl  0  0  0  0  0  0  0  0  0  0  0  0
   17.2110   -4.0680   11.1070 C   0  0  0  0  0  0  0  0  0  0  0  0
   17.0930   -5.1210   12.0150 C   0  0  0  0  0  0  0  0  0  0  0  0
   18.0090   -5.7490   13.0250 C   0  0  0  0  0  0  0  0  0  0  0  0
   19.4300   -5.3450   13.3240 C   0  0  0  0  0  0  0  0  0  0  0  0
   15.8830   -6.4000   16.1140 N   0  0  0  0  0  0  0  0  0  0  0  0
   15.2130   -5.9060   17.1660 N   0  0  0  0  0  0  0  0  0  0  0  0
   15.6270   -6.0260   18.3960 C   0  0  0  0  0  0  0  0  0  0  0  0
   15.0170   -5.5830   19.3620 O   0  0  0  0  0  0  0  0  0  0  0  0
   16.9030   -6.7260   18.6610 C   0  0  0  0  0  0  0  0  0  0  0  0
   18.5342   -7.7451   17.7347 H   0  0  0  0  0  0  0  0  0  0  0  0
   13.8570   -6.2273   11.5006 H   0  0  0  0  0  0  0  0  0  0  0  0
   13.9942   -4.3048    9.8214 H   0  0  0  0  0  0  0  0  0  0  0  0
   18.1276   -3.4715   10.9882 H   0  0  0  0  0  0  0  0  0  0  0  0
   19.5778   -5.3030   14.4132 H   0  0  0  0  0  0  0  0  0  0  0  0
   20.1202   -6.0825   12.8885 H   0  0  0  0  0  0  0  0  0  0  0  0
   19.6290   -4.3547   12.8885 H   0  0  0  0  0  0  0  0  0  0  0  0
   14.3283   -5.4076   16.9933 H   0  0  0  0  0  0  0  0  0  0  0  0
   17.2849   -6.8425   19.6860 H   0  0  0  0  0  0  0  0  0  0  0  0
  1  2  1  0
  1 21  2  0
  2  3  1  0
  2 17  2  0
  3  4  2  0
  3  5  2  0
  3  6  1  0
  6  7  1  0
  6 15  2  0
  7  8  1  0
  8  9  2  0
  8 14  1  0
  9 10  1  0
 10 11  2  0
 11 12  1  0
 11 13  1  0
 13 14  2  0
 14 15  1  0
 15 16  1  0
 17 18  1  0
 18 19  1  0
 19 20  2  0
 19 21  1  0
  1 22  1  0
  9 23  1  0
 10 24  1  0
 13 25  1  0
 16 26  1  0
 16 27  1  0
 16 28  1  0
 18 29  1  0
 21 30  1  0
A    1
C2
A    2
C3
A    3
S8
A    4
O19
A    5
O18
A    6
C9
A    7
O13
A    8
C12
A    9
C17
A   10
C16
A   11
C15
A   12
CL21
A   13
C14
A   14
C11
A   15
C10
A   16
C20
A   17
N4
A   18
N5
A   19
C6
A   20
O7
A   21
C1
M  END
