1Z8N_1IQ_A_694
     RDKit          3D

 40 42  0  0  0  0  0  0  0  0999 V2000
   50.0250   83.9830   44.9360 C   0  0  0  0  0  0  0  0  0  0  0  0
   50.8010   85.0230   45.7100 C   0  0  0  0  0  0  0  0  0  0  0  0
   50.5820   86.3970   45.4360 C   0  0  0  0  0  0  0  0  0  0  0  0
   49.6630   86.7980   44.4630 C   0  0  0  0  0  0  0  0  0  0  0  0
   48.9490   85.8370   43.7470 C   0  0  0  0  0  0  0  0  0  0  0  0
   49.1110   84.4160   43.9700 C   0  0  0  0  0  0  0  0  0  0  0  0
   51.7260   84.5920   46.7020 N   0  0  0  0  0  0  0  0  0  0  0  0
   50.2720   82.6210   45.2450 C   0  0  0  0  0  0  0  0  0  0  0  0
   51.2070   82.2290   46.2390 C   0  0  0  0  0  0  0  0  0  0  0  0
   51.9310   83.2320   46.9670 C   0  0  0  0  0  0  0  0  0  0  0  0
   51.4420   80.7120   46.5450 C   0  0  0  0  0  0  0  0  0  0  0  0
   51.0580   80.1530   47.5550 O   0  0  0  0  0  0  0  0  0  0  0  0
   52.0580   80.0840   45.6920 O   0  0  0  0  0  0  0  0  0  0  0  0
   52.5470   82.9830   49.3170 N   0  0  0  0  0  0  0  0  0  0  0  0
   52.9310   82.9720   48.0370 C   0  0  0  0  0  0  0  0  0  0  0  0
   54.2290   82.7210   47.7480 N   0  0  0  0  0  0  0  0  0  0  0  0
   54.8630   82.5360   48.9610 C   0  0  0  0  0  0  0  0  0  0  0  0
   53.7880   82.6950   49.9960 C   0  0  0  0  0  0  0  0  0  0  0  0
   56.0410   82.2880   49.0670 O   0  0  0  0  0  0  0  0  0  0  0  0
   54.0070   83.8120   51.1140 C   0  0  0  0  0  0  0  0  0  0  0  0
   53.5910   81.4410   50.8820 C   0  0  0  0  0  0  0  0  0  0  0  0
   54.2120   85.2000   50.4870 C   0  0  0  0  0  0  0  0  0  0  0  0
   55.2470   83.5300   52.0010 C   0  0  0  0  0  0  0  0  0  0  0  0
   51.1437   87.1580   45.9976 H   0  0  0  0  0  0  0  0  0  0  0  0
   49.5031   87.8676   44.2623 H   0  0  0  0  0  0  0  0  0  0  0  0
   48.2337   86.1728   42.9817 H   0  0  0  0  0  0  0  0  0  0  0  0
   48.5248   83.6886   43.3892 H   0  0  0  0  0  0  0  0  0  0  0  0
   49.7211   81.8428   44.6965 H   0  0  0  0  0  0  0  0  0  0  0  0
   51.3048   80.5122   48.4439 H   0  0  0  0  0  0  0  0  0  0  0  0
   54.6576   82.6768   46.8124 H   0  0  0  0  0  0  0  0  0  0  0  0
   53.0952   83.7877   51.7288 H   0  0  0  0  0  0  0  0  0  0  0  0
   53.6365   81.7304   51.9423 H   0  0  0  0  0  0  0  0  0  0  0  0
   52.6110   80.9902   50.6667 H   0  0  0  0  0  0  0  0  0  0  0  0
   54.3855   80.7114   50.6667 H   0  0  0  0  0  0  0  0  0  0  0  0
   54.3227   85.9498   51.2843 H   0  0  0  0  0  0  0  0  0  0  0  0
   55.1185   85.1906   49.8640 H   0  0  0  0  0  0  0  0  0  0  0  0
   53.3415   85.4531   49.8640 H   0  0  0  0  0  0  0  0  0  0  0  0
   54.9617   83.5949   53.0614 H   0  0  0  0  0  0  0  0  0  0  0  0
   55.6303   82.5217   51.7855 H   0  0  0  0  0  0  0  0  0  0  0  0
   56.0287   84.2733   51.7855 H   0  0  0  0  0  0  0  0  0  0  0  0
  1  2  1  0
  1  6  2  0
  1  8  1  0
  2  3  2  0
  2  7  1  0
  3  4  1  0
  4  5  2  0
  5  6  1  0
  7 10  2  0
  8  9  2  0
  9 10  1  0
  9 11  1  0
 10 15  1  0
 11 12  1  0
 11 13  2  0
 14 15  2  0
 14 18  1  0
 15 16  1  0
 16 17  1  0
 17 18  1  0
 17 19  2  0
 18 20  1  0
 18 21  1  0
 20 22  1  0
 20 23  1  0
  3 24  1  0
  4 25  1  0
  5 26  1  0
  6 27  1  0
  8 28  1  0
 12 29  1  0
 16 30  1  0
 20 31  1  0
 21 32  1  0
 21 33  1  0
 21 34  1  0
 22 35  1  0
 22 36  1  0
 22 37  1  0
 23 38  1  0
 23 39  1  0
 23 40  1  0
A    1
C5'
A    2
C6'
A    3
C7'
A    4
C8'
A    5
C9'
A    6
CA'
A    7
N1'
A    8
C4'
A    9
C3'
A   10
C2'
A   11
CB'
A   12
OC'
A   13
OD'
A   14
N3
A   15
C2
A   16
N1
A   17
C5
A   18
C4
A   19
O6
A   20
C8
A   21
C7
A   22
C10
A   23
C9
M  END
