1ZAB_URD_A_1001
     RDKit          3D

 30 31  0  0  0  0  0  0  0  0999 V2000
   14.5260    0.9850   63.3200 O   0  0  0  0  0  0  0  0  0  0  0  0
   13.4040    0.4190   63.9900 C   0  0  0  0  0  0  0  0  0  0  0  0
   13.5530    0.5750   65.4860 C   0  0  0  0  0  0  0  0  0  0  0  0
   14.5150   -0.3990   65.9770 O   0  0  0  0  0  0  0  0  0  0  0  0
   15.5330    0.2640   66.7020 C   0  0  0  0  0  0  0  0  0  0  0  0
   16.7950   -0.4670   66.5130 N   0  0  0  0  0  0  0  0  0  0  0  0
   17.1350   -0.9970   65.2770 C   0  0  0  0  0  0  0  0  0  0  0  0
   17.5780   -0.6970   67.6390 C   0  0  0  0  0  0  0  0  0  0  0  0
   17.3500   -0.1850   68.7230 O   0  0  0  0  0  0  0  0  0  0  0  0
   18.7310   -1.4990   67.4070 C   0  0  0  0  0  0  0  0  0  0  0  0
   19.1190   -2.0550   66.1600 C   0  0  0  0  0  0  0  0  0  0  0  0
   19.9630   -2.9510   66.0620 O   0  0  0  0  0  0  0  0  0  0  0  0
   18.2320   -1.7550   65.0720 C   0  0  0  0  0  0  0  0  0  0  0  0
   15.5490    1.6840   66.1480 C   0  0  0  0  0  0  0  0  0  0  0  0
   16.2160    2.5870   67.0110 O   0  0  0  0  0  0  0  0  0  0  0  0
   14.0560    1.9340   65.9630 C   0  0  0  0  0  0  0  0  0  0  0  0
   13.4090    2.2960   67.1800 O   0  0  0  0  0  0  0  0  0  0  0  0
   15.1780    1.3139   63.9884 H   0  0  0  0  0  0  0  0  0  0  0  0
   12.4882    0.9319   63.6611 H   0  0  0  0  0  0  0  0  0  0  0  0
   13.3443   -0.6519   63.7460 H   0  0  0  0  0  0  0  0  0  0  0  0
   12.5326    0.4402   65.8741 H   0  0  0  0  0  0  0  0  0  0  0  0
   15.3716    0.3010   67.7895 H   0  0  0  0  0  0  0  0  0  0  0  0
   16.4768   -0.7887   64.4206 H   0  0  0  0  0  0  0  0  0  0  0  0
   19.5827   -0.8799   67.7251 H   0  0  0  0  0  0  0  0  0  0  0  0
   18.4345   -2.4151   67.9388 H   0  0  0  0  0  0  0  0  0  0  0  0
   18.4478   -2.1450   64.0663 H   0  0  0  0  0  0  0  0  0  0  0  0
   16.1162    1.8261   65.2163 H   0  0  0  0  0  0  0  0  0  0  0  0
   16.0335    2.3399   67.9521 H   0  0  0  0  0  0  0  0  0  0  0  0
   13.8529    2.7669   65.2737 H   0  0  0  0  0  0  0  0  0  0  0  0
   13.9548    1.9906   67.9474 H   0  0  0  0  0  0  0  0  0  0  0  0
  1  2  1  0
  2  3  1  0
  3  4  1  0
  3 16  1  0
  4  5  1  0
  5  6  1  0
  5 14  1  0
  6  7  1  0
  6  8  1  0
  7 13  2  0
  8  9  2  0
  8 10  1  0
 10 11  1  0
 11 12  2  0
 11 13  1  0
 14 15  1  0
 14 16  1  0
 16 17  1  0
  1 18  1  0
  2 19  1  0
  2 20  1  0
  3 21  1  0
  5 22  1  0
  7 23  1  0
 10 24  1  0
 10 25  1  0
 13 26  1  0
 14 27  1  0
 15 28  1  0
 16 29  1  0
 17 30  1  0
A    1
O5'
A    2
C5'
A    3
C4'
A    4
O4'
A    5
C1'
A    6
N1
A    7
C6
A    8
C2
A    9
O2
A   10
C3
A   11
C4
A   12
O4
A   13
C5
A   14
C2'
A   15
O2'
A   16
C3'
A   17
O3'
M  END
