1ZAF_789_A_201
     RDKit          3D

 28 30  0  0  0  0  0  0  0  0999 V2000
   33.4620   36.3160   35.9540 C   0  0  0  0  0  0  0  0  0  0  0  0
   32.8160   35.6350   37.0420 C   0  0  0  0  0  0  0  0  0  0  0  0
   31.5420   36.1300   37.4560 C   0  0  0  0  0  0  0  0  0  0  0  0
   30.9330   37.2250   36.8510 C   0  0  0  0  0  0  0  0  0  0  0  0
   31.5830   37.9080   35.7580 C   0  0  0  0  0  0  0  0  0  0  0  0
   32.8600   37.4450   35.3080 C   0  0  0  0  0  0  0  0  0  0  0  0
   30.6610   35.7020   38.4680 C   0  0  0  0  0  0  0  0  0  0  0  0
   29.4350   36.5800   38.4850 C   0  0  0  0  0  0  0  0  0  0  0  0
   29.6390   37.5550   37.4390 C   0  0  0  0  0  0  0  0  0  0  0  0
   28.2420   36.4590   39.4200 C   0  0  0  0  0  0  0  0  0  0  0  0
   26.9150   36.7450   38.9340 C   0  0  0  0  0  0  0  0  0  0  0  0
   25.7710   36.6530   39.7820 C   0  0  0  0  0  0  0  0  0  0  0  0
   25.9560   36.2660   41.1380 C   0  0  0  0  0  0  0  0  0  0  0  0
   27.2570   35.9680   41.6570 C   0  0  0  0  0  0  0  0  0  0  0  0
   28.4020   36.0650   40.7970 C   0  0  0  0  0  0  0  0  0  0  0  0
   24.8490   36.1830   41.9420 O   0  0  0  0  0  0  0  0  0  0  0  0
   30.8640   34.7500   39.2200 O   0  0  0  0  0  0  0  0  0  0  0  0
   34.6920   35.8860   35.5140 O   0  0  0  0  0  0  0  0  0  0  0  0
   28.5450   38.9880   36.8620 Br  0  0  0  0  0  0  0  0  0  0  0  0
   33.2828   34.7695   37.5349 H   0  0  0  0  0  0  0  0  0  0  0  0
   31.1029   38.7731   35.2773 H   0  0  0  0  0  0  0  0  0  0  0  0
   33.3735   37.9495   34.4763 H   0  0  0  0  0  0  0  0  0  0  0  0
   26.7811   37.0415   37.8832 H   0  0  0  0  0  0  0  0  0  0  0  0
   24.7661   36.8769   39.3946 H   0  0  0  0  0  0  0  0  0  0  0  0
   27.3780   35.6667   42.7080 H   0  0  0  0  0  0  0  0  0  0  0  0
   29.4041   35.8381   41.1899 H   0  0  0  0  0  0  0  0  0  0  0  0
   24.9507   36.1906   42.9267 H   0  0  0  0  0  0  0  0  0  0  0  0
   35.3936   35.6407   36.1679 H   0  0  0  0  0  0  0  0  0  0  0  0
  1  2  2  0
  1  6  1  0
  1 18  1  0
  2  3  1  0
  3  4  2  0
  3  7  1  0
  4  5  1  0
  4  9  1  0
  5  6  2  0
  7  8  1  0
  7 17  2  0
  8  9  2  0
  8 10  1  0
  9 19  1  0
 10 11  2  0
 10 15  1  0
 11 12  1  0
 12 13  2  0
 13 14  1  0
 13 16  1  0
 14 15  2  0
  2 20  1  0
  5 21  1  0
  6 22  1  0
 11 23  1  0
 12 24  1  0
 14 25  1  0
 15 26  1  0
 16 27  1  0
 18 28  1  0
A    1
C1
A    2
C2
A    3
C3
A    4
C4
A    5
C5
A    6
C6
A    7
C10
A    8
C11
A    9
C12
A   10
C13
A   11
C15
A   12
C16
A   13
C17
A   14
C18
A   15
C19
A   16
O24
A   17
O25
A   18
O26
A   19
BR29
M  END
