1ZD2_NC3_P_700
     RDKit          3D

 30 30  0  0  0  0  0  0  0  0999 V2000
  -18.0030   -9.6450   67.3740 C   0  0  0  0  0  0  0  0  0  0  0  0
  -18.1280   -9.0860   65.9770 N   0  0  0  0  0  0  0  0  0  0  0  0
  -17.3100   -8.1030   65.3770 C   0  0  0  0  0  0  0  0  0  0  0  0
  -17.6550   -7.7520   64.0600 N   0  0  0  0  0  0  0  0  0  0  0  0
  -16.9280   -6.7180   63.2580 C   0  0  0  0  0  0  0  0  0  0  0  0
  -17.5550   -6.6490   61.8440 C   0  0  0  0  0  0  0  0  0  0  0  0
  -17.1850   -5.5580   61.1550 O   0  0  0  0  0  0  0  0  0  0  0  0
  -16.3860   -7.5550   65.9610 O   0  0  0  0  0  0  0  0  0  0  0  0
  -18.2950   -7.4810   61.3710 O   0  0  0  0  0  0  0  0  0  0  0  0
  -18.5360  -11.1100   67.4220 C   0  0  0  0  0  0  0  0  0  0  0  0
  -18.4280  -11.7340   68.8430 C   0  0  0  0  0  0  0  0  0  0  0  0
  -16.9710  -11.6530   69.3890 C   0  0  0  0  0  0  0  0  0  0  0  0
  -16.4270  -10.1930   69.3300 C   0  0  0  0  0  0  0  0  0  0  0  0
  -16.5360   -9.6100   67.8950 C   0  0  0  0  0  0  0  0  0  0  0  0
  -18.6099   -9.0041   68.0305 H   0  0  0  0  0  0  0  0  0  0  0  0
  -18.8928   -9.4623   65.3987 H   0  0  0  0  0  0  0  0  0  0  0  0
  -18.4533   -8.2336   63.6222 H   0  0  0  0  0  0  0  0  0  0  0  0
  -17.0178   -5.7383   63.7501 H   0  0  0  0  0  0  0  0  0  0  0  0
  -15.8638   -6.9855   63.1815 H   0  0  0  0  0  0  0  0  0  0  0  0
  -16.9072   -4.7389   61.6367 H   0  0  0  0  0  0  0  0  0  0  0  0
  -19.5922  -11.1119   67.1147 H   0  0  0  0  0  0  0  0  0  0  0  0
  -17.9174  -11.7144   66.7423 H   0  0  0  0  0  0  0  0  0  0  0  0
  -19.0969  -11.1889   69.5252 H   0  0  0  0  0  0  0  0  0  0  0  0
  -18.7158  -12.7938   68.7790 H   0  0  0  0  0  0  0  0  0  0  0  0
  -16.9595  -11.9982   70.4334 H   0  0  0  0  0  0  0  0  0  0  0  0
  -16.3286  -12.2896   68.7629 H   0  0  0  0  0  0  0  0  0  0  0  0
  -17.0115   -9.5644   70.0179 H   0  0  0  0  0  0  0  0  0  0  0  0
  -15.3663  -10.2048   69.6212 H   0  0  0  0  0  0  0  0  0  0  0  0
  -15.9026  -10.2033   67.2192 H   0  0  0  0  0  0  0  0  0  0  0  0
  -16.2048   -8.5614   67.9227 H   0  0  0  0  0  0  0  0  0  0  0  0
  1  2  1  0
  1 10  1  0
  1 14  1  0
  2  3  1  0
  3  4  1  0
  3  8  2  0
  4  5  1  0
  5  6  1  0
  6  7  1  0
  6  9  2  0
 10 11  1  0
 11 12  1  0
 12 13  1  0
 13 14  1  0
  1 15  1  0
  2 16  1  0
  4 17  1  0
  5 18  1  0
  5 19  1  0
  7 20  1  0
 10 21  1  0
 10 22  1  0
 11 23  1  0
 11 24  1  0
 12 25  1  0
 12 26  1  0
 13 27  1  0
 13 28  1  0
 14 29  1  0
 14 30  1  0
A    1
C1
A    2
N2
A    3
C3
A    4
N4
A    5
C5
A    6
C6
A    7
O7
A    8
O8
A    9
O9
A   10
C10
A   11
C11
A   12
C12
A   13
C13
A   14
C14
M  END
