1ZD3_NC4_A_790
     RDKit          3D

 36 36  0  0  0  0  0  0  0  0999 V2000
  -17.6210   -7.3610   63.0660 C   0  0  0  0  0  0  0  0  0  0  0  0
  -18.0200   -7.7600   64.4210 N   0  0  0  0  0  0  0  0  0  0  0  0
  -17.7790   -8.9930   64.9630 C   0  0  0  0  0  0  0  0  0  0  0  0
  -18.2270   -9.1620   66.2440 N   0  0  0  0  0  0  0  0  0  0  0  0
  -18.0320  -10.4100   66.9900 C   0  0  0  0  0  0  0  0  0  0  0  0
  -18.1580  -10.1230   68.4920 C   0  0  0  0  0  0  0  0  0  0  0  0
  -16.9560  -10.6580   69.2970 C   0  0  0  0  0  0  0  0  0  0  0  0
  -17.0630  -10.3930   70.7970 C   0  0  0  0  0  0  0  0  0  0  0  0
  -15.9950  -10.8730   71.4680 O   0  0  0  0  0  0  0  0  0  0  0  0
  -17.2040   -9.8610   64.3660 O   0  0  0  0  0  0  0  0  0  0  0  0
  -17.9610   -9.8310   71.3770 O   0  0  0  0  0  0  0  0  0  0  0  0
  -18.6010   -6.3010   62.4940 C   0  0  0  0  0  0  0  0  0  0  0  0
  -18.1890   -5.8690   61.0700 C   0  0  0  0  0  0  0  0  0  0  0  0
  -16.7410   -5.3230   61.0530 C   0  0  0  0  0  0  0  0  0  0  0  0
  -15.7300   -6.3360   61.6540 C   0  0  0  0  0  0  0  0  0  0  0  0
  -16.1780   -6.7800   63.0760 C   0  0  0  0  0  0  0  0  0  0  0  0
  -17.6491   -8.2553   62.4261 H   0  0  0  0  0  0  0  0  0  0  0  0
  -18.5134   -7.0668   65.0015 H   0  0  0  0  0  0  0  0  0  0  0  0
  -18.7204   -8.3829   66.7028 H   0  0  0  0  0  0  0  0  0  0  0  0
  -18.7963  -11.1418   66.6896 H   0  0  0  0  0  0  0  0  0  0  0  0
  -17.0339  -10.8186   66.7736 H   0  0  0  0  0  0  0  0  0  0  0  0
  -18.2252   -9.0350   68.6391 H   0  0  0  0  0  0  0  0  0  0  0  0
  -19.0601  -10.6362   68.8564 H   0  0  0  0  0  0  0  0  0  0  0  0
  -16.8867  -11.7444   69.1391 H   0  0  0  0  0  0  0  0  0  0  0  0
  -16.0625  -10.1271   68.9369 H   0  0  0  0  0  0  0  0  0  0  0  0
  -15.9921  -10.8743   72.4580 H   0  0  0  0  0  0  0  0  0  0  0  0
  -19.6133   -6.7300   62.4598 H   0  0  0  0  0  0  0  0  0  0  0  0
  -18.5761   -5.4161   63.1469 H   0  0  0  0  0  0  0  0  0  0  0  0
  -18.2539   -6.7373   60.3978 H   0  0  0  0  0  0  0  0  0  0  0  0
  -18.8683   -5.0710   60.7356 H   0  0  0  0  0  0  0  0  0  0  0  0
  -16.4541   -5.1098   60.0127 H   0  0  0  0  0  0  0  0  0  0  0  0
  -16.7146   -4.4114   61.6680 H   0  0  0  0  0  0  0  0  0  0  0  0
  -15.6722   -7.2194   61.0011 H   0  0  0  0  0  0  0  0  0  0  0  0
  -14.7451   -5.8519   61.7280 H   0  0  0  0  0  0  0  0  0  0  0  0
  -16.1483   -5.9095   63.7478 H   0  0  0  0  0  0  0  0  0  0  0  0
  -15.4924   -7.5672   63.4228 H   0  0  0  0  0  0  0  0  0  0  0  0
  1  2  1  0
  1 12  1  0
  1 16  1  0
  2  3  1  0
  3  4  1  0
  3 10  2  0
  4  5  1  0
  5  6  1  0
  6  7  1  0
  7  8  1  0
  8  9  1  0
  8 11  2  0
 12 13  1  0
 13 14  1  0
 14 15  1  0
 15 16  1  0
  1 17  1  0
  2 18  1  0
  4 19  1  0
  5 20  1  0
  5 21  1  0
  6 22  1  0
  6 23  1  0
  7 24  1  0
  7 25  1  0
  9 26  1  0
 12 27  1  0
 12 28  1  0
 13 29  1  0
 13 30  1  0
 14 31  1  0
 14 32  1  0
 15 33  1  0
 15 34  1  0
 16 35  1  0
 16 36  1  0
A    1
C1
A    2
N2
A    3
C3
A    4
N4
A    5
C5
A    6
C6
A    7
C7
A    8
C8
A    9
O9
A   10
O10
A   11
O11
A   12
C12
A   13
C13
A   14
C14
A   15
C15
A   16
C16
M  END
