1ZD5_NC7_A_700
     RDKit          3D

 45 45  0  0  0  0  0  0  0  0999 V2000
  -17.9510  -10.0790   67.0620 C   0  0  0  0  0  0  0  0  0  0  0  0
  -18.4930   -8.9740   66.2480 N   0  0  0  0  0  0  0  0  0  0  0  0
  -17.8940   -8.5860   65.0710 C   0  0  0  0  0  0  0  0  0  0  0  0
  -18.3350   -7.4330   64.4890 N   0  0  0  0  0  0  0  0  0  0  0  0
  -17.4680   -6.9930   63.4290 C   0  0  0  0  0  0  0  0  0  0  0  0
  -17.8250   -7.3860   61.9880 C   0  0  0  0  0  0  0  0  0  0  0  0
  -16.5710   -6.8340   61.3630 C   0  0  0  0  0  0  0  0  0  0  0  0
  -16.2610   -6.8480   59.8890 C   0  0  0  0  0  0  0  0  0  0  0  0
  -14.8580   -6.2520   60.0770 C   0  0  0  0  0  0  0  0  0  0  0  0
  -16.9180   -9.1450   64.6460 O   0  0  0  0  0  0  0  0  0  0  0  0
  -13.9420   -5.9930   58.9100 C   0  0  0  0  0  0  0  0  0  0  0  0
  -12.5890   -5.4870   59.4360 C   0  0  0  0  0  0  0  0  0  0  0  0
  -11.7690   -5.2300   58.4120 O   0  0  0  0  0  0  0  0  0  0  0  0
  -12.2380   -5.3120   60.6100 O   0  0  0  0  0  0  0  0  0  0  0  0
  -17.6440   -9.5840   68.4900 C   0  0  0  0  0  0  0  0  0  0  0  0
  -17.1070  -10.7260   69.3840 C   0  0  0  0  0  0  0  0  0  0  0  0
  -18.0920  -11.9230   69.4270 C   0  0  0  0  0  0  0  0  0  0  0  0
  -18.4540  -12.4130   68.0040 C   0  0  0  0  0  0  0  0  0  0  0  0
  -18.9870  -11.2460   67.1280 C   0  0  0  0  0  0  0  0  0  0  0  0
  -17.0218  -10.4395   66.5965 H   0  0  0  0  0  0  0  0  0  0  0  0
  -19.3392   -8.4816   66.5680 H   0  0  0  0  0  0  0  0  0  0  0  0
  -19.1900   -6.9353   64.7757 H   0  0  0  0  0  0  0  0  0  0  0  0
  -17.4362   -5.8942   63.4688 H   0  0  0  0  0  0  0  0  0  0  0  0
  -16.5163   -7.5090   63.6240 H   0  0  0  0  0  0  0  0  0  0  0  0
  -17.9234   -8.4735   61.8555 H   0  0  0  0  0  0  0  0  0  0  0  0
  -18.7856   -7.0255   61.5914 H   0  0  0  0  0  0  0  0  0  0  0  0
  -16.5373   -5.7753   61.6595 H   0  0  0  0  0  0  0  0  0  0  0  0
  -15.8312   -7.5618   61.7277 H   0  0  0  0  0  0  0  0  0  0  0  0
  -16.2489   -7.8597   59.4573 H   0  0  0  0  0  0  0  0  0  0  0  0
  -16.9567   -6.3424   59.2032 H   0  0  0  0  0  0  0  0  0  0  0  0
  -14.9987   -5.2838   60.5798 H   0  0  0  0  0  0  0  0  0  0  0  0
  -14.3326   -7.0575   60.6110 H   0  0  0  0  0  0  0  0  0  0  0  0
  -13.7925   -6.9249   58.3450 H   0  0  0  0  0  0  0  0  0  0  0  0
  -14.3891   -5.2365   58.2484 H   0  0  0  0  0  0  0  0  0  0  0  0
  -10.8387   -4.9384   58.5840 H   0  0  0  0  0  0  0  0  0  0  0  0
  -16.8882   -8.7865   68.4368 H   0  0  0  0  0  0  0  0  0  0  0  0
  -18.5786   -9.2098   68.9333 H   0  0  0  0  0  0  0  0  0  0  0  0
  -16.1424  -11.0707   68.9831 H   0  0  0  0  0  0  0  0  0  0  0  0
  -16.9891  -10.3383   70.4066 H   0  0  0  0  0  0  0  0  0  0  0  0
  -17.6249  -12.7502   69.9815 H   0  0  0  0  0  0  0  0  0  0  0  0
  -19.0162  -11.5910   69.9226 H   0  0  0  0  0  0  0  0  0  0  0  0
  -17.5557  -12.8360   67.5306 H   0  0  0  0  0  0  0  0  0  0  0  0
  -19.2429  -13.1750   68.0876 H   0  0  0  0  0  0  0  0  0  0  0  0
  -19.9255  -10.8701   67.5615 H   0  0  0  0  0  0  0  0  0  0  0  0
  -19.1576  -11.6220   66.1084 H   0  0  0  0  0  0  0  0  0  0  0  0
  1  2  1  0
  1 15  1  0
  1 19  1  0
  2  3  1  0
  3  4  1  0
  3 10  2  0
  4  5  1  0
  5  6  1  0
  6  7  1  0
  7  8  1  0
  8  9  1  0
  9 11  1  0
 11 12  1  0
 12 13  1  0
 12 14  2  0
 15 16  1  0
 16 17  1  0
 17 18  1  0
 18 19  1  0
  1 20  1  0
  2 21  1  0
  4 22  1  0
  5 23  1  0
  5 24  1  0
  6 25  1  0
  6 26  1  0
  7 27  1  0
  7 28  1  0
  8 29  1  0
  8 30  1  0
  9 31  1  0
  9 32  1  0
 11 33  1  0
 11 34  1  0
 13 35  1  0
 15 36  1  0
 15 37  1  0
 16 38  1  0
 16 39  1  0
 17 40  1  0
 17 41  1  0
 18 42  1  0
 18 43  1  0
 19 44  1  0
 19 45  1  0
A    1
C1
A    2
N2
A    3
C3
A    4
N4
A    5
C5
A    6
C6
A    7
C7
A    8
C8
A    9
C9
A   10
O10
A   11
C11
A   12
C12
A   13
O13
A   14
O14
A   15
C15
A   16
C16
A   17
C17
A   18
C18
A   19
C19
M  END
