1EV3_CRS_A_22
     RDKit          3D

 16 16  0  0  0  0  0  0  0  0999 V2000
  -10.8280   -0.2590   10.3950 C   0  0  0  0  0  0  0  0  0  0  0  0
  -11.2730   -0.9610    9.2970 C   0  0  0  0  0  0  0  0  0  0  0  0
  -10.5340   -0.9870    8.1270 C   0  0  0  0  0  0  0  0  0  0  0  0
   -9.3300   -0.2850    8.0780 C   0  0  0  0  0  0  0  0  0  0  0  0
   -8.8600    0.4240    9.1800 C   0  0  0  0  0  0  0  0  0  0  0  0
   -9.6150    0.4340   10.3550 C   0  0  0  0  0  0  0  0  0  0  0  0
  -11.0460   -1.8070    6.9760 C   0  0  0  0  0  0  0  0  0  0  0  0
  -11.6380   -0.2310   11.5140 O   0  0  0  0  0  0  0  0  0  0  0  0
  -12.2264   -1.5071    9.3504 H   0  0  0  0  0  0  0  0  0  0  0  0
   -8.7397   -0.2916    7.1498 H   0  0  0  0  0  0  0  0  0  0  0  0
   -7.9062    0.9694    9.1261 H   0  0  0  0  0  0  0  0  0  0  0  0
   -9.2585    0.9817   11.2398 H   0  0  0  0  0  0  0  0  0  0  0  0
  -11.5915   -2.6806    7.3622 H   0  0  0  0  0  0  0  0  0  0  0  0
  -11.7224   -1.1945    6.3617 H   0  0  0  0  0  0  0  0  0  0  0  0
  -10.1988   -2.1459    6.3617 H   0  0  0  0  0  0  0  0  0  0  0  0
  -11.2342   -0.2450   12.4178 H   0  0  0  0  0  0  0  0  0  0  0  0
  1  2  2  0
  1  6  1  0
  1  8  1  0
  2  3  1  0
  3  4  2  0
  3  7  1  0
  4  5  1  0
  5  6  2  0
  2  9  1  0
  4 10  1  0
  5 11  1  0
  6 12  1  0
  7 13  1  0
  7 14  1  0
  7 15  1  0
  8 16  1  0
A    1
C1
A    2
C2
A    3
C3
A    4
C4
A    5
C5
A    6
C6
A    7
C7
A    8
O1
M  END
