1ZFK_NR2_A_1400
     RDKit          3D

 39 40  0  0  0  0  0  0  0  0999 V2000
   15.3260    2.6930   16.8080 S   0  0  0  0  0  0  0  0  0  0  0  0
   15.8140    1.4320   16.1690 N   0  0  0  0  0  0  0  0  0  0  0  0
   13.8840    2.7660   16.6740 O   0  0  0  0  0  0  0  0  0  0  0  0
   15.8670    2.8480   18.1570 O   0  0  0  0  0  0  0  0  0  0  0  0
   16.0050    4.0270   15.8870 C   0  0  0  0  0  0  0  0  0  0  0  0
   15.0780    5.0080   15.4720 C   0  0  0  0  0  0  0  0  0  0  0  0
   15.4930    6.1140   14.7390 C   0  0  0  0  0  0  0  0  0  0  0  0
   16.8410    6.2730   14.3990 C   0  0  0  0  0  0  0  0  0  0  0  0
   17.1920    7.4120   13.6450 N   0  0  0  0  0  0  0  0  0  0  0  0
   18.4190    7.7630   13.2110 C   0  0  0  0  0  0  0  0  0  0  0  0
   19.4390    7.1170   13.4110 O   0  0  0  0  0  0  0  0  0  0  0  0
   18.4470    8.9120   12.5130 N   0  0  0  0  0  0  0  0  0  0  0  0
   19.5890    9.4400   11.6970 S   0  0  0  0  0  0  0  0  0  0  0  0
   20.5580    8.4430   11.3160 O   0  0  0  0  0  0  0  0  0  0  0  0
   19.0170   10.2960   10.6640 O   0  0  0  0  0  0  0  0  0  0  0  0
   20.3370   10.4740   12.9200 C   0  0  0  0  0  0  0  0  0  0  0  0
   21.7280   10.4020   13.0850 C   0  0  0  0  0  0  0  0  0  0  0  0
   22.3430   11.2100   14.0450 C   0  0  0  0  0  0  0  0  0  0  0  0
   21.5680   12.0710   14.8240 C   0  0  0  0  0  0  0  0  0  0  0  0
   22.2280   12.9570   15.8690 C   0  0  0  0  0  0  0  0  0  0  0  0
   20.1890   12.1340   14.6520 C   0  0  0  0  0  0  0  0  0  0  0  0
   19.5730   11.3310   13.6950 C   0  0  0  0  0  0  0  0  0  0  0  0
   17.7530    5.2980   14.8040 C   0  0  0  0  0  0  0  0  0  0  0  0
   17.3440    4.1790   15.5490 C   0  0  0  0  0  0  0  0  0  0  0  0
   16.0758    0.7556   16.9003 H   0  0  0  0  0  0  0  0  0  0  0  0
   15.0668    1.0325   15.5833 H   0  0  0  0  0  0  0  0  0  0  0  0
   14.0150    4.8958   15.7317 H   0  0  0  0  0  0  0  0  0  0  0  0
   14.7572    6.8687   14.4244 H   0  0  0  0  0  0  0  0  0  0  0  0
   16.4217    8.0493   13.3973 H   0  0  0  0  0  0  0  0  0  0  0  0
   17.5949    9.4899   12.5418 H   0  0  0  0  0  0  0  0  0  0  0  0
   22.3274    9.7179   12.4663 H   0  0  0  0  0  0  0  0  0  0  0  0
   23.4331   11.1678   14.1863 H   0  0  0  0  0  0  0  0  0  0  0  0
   21.9614   12.5991   16.8744 H   0  0  0  0  0  0  0  0  0  0  0  0
   23.3203   12.9198   15.7442 H   0  0  0  0  0  0  0  0  0  0  0  0
   21.8797   13.9929   15.7442 H   0  0  0  0  0  0  0  0  0  0  0  0
   19.5867   12.8161   15.2701 H   0  0  0  0  0  0  0  0  0  0  0  0
   18.4829   11.3773   13.5551 H   0  0  0  0  0  0  0  0  0  0  0  0
   18.8139    5.4075   14.5346 H   0  0  0  0  0  0  0  0  0  0  0  0
   18.0815    3.4259   15.8635 H   0  0  0  0  0  0  0  0  0  0  0  0
  1  2  1  0
  1  3  2  0
  1  4  2  0
  1  5  1  0
  5  6  2  0
  5 24  1  0
  6  7  1  0
  7  8  2  0
  8  9  1  0
  8 23  1  0
  9 10  1  0
 10 11  2  0
 10 12  1  0
 12 13  1  0
 13 14  2  0
 13 15  2  0
 13 16  1  0
 16 17  2  0
 16 22  1  0
 17 18  1  0
 18 19  2  0
 19 20  1  0
 19 21  1  0
 21 22  2  0
 23 24  2  0
  2 25  1  0
  2 26  1  0
  6 27  1  0
  7 28  1  0
  9 29  1  0
 12 30  1  0
 17 31  1  0
 18 32  1  0
 20 33  1  0
 20 34  1  0
 20 35  1  0
 21 36  1  0
 22 37  1  0
 23 38  1  0
 24 39  1  0
A    1
S1
A    2
N24
A    3
O23
A    4
O22
A    5
C2
A    6
C7
A    7
C6
A    8
C5
A    9
N8
A   10
C9
A   11
O13
A   12
N10
A   13
S11
A   14
O15
A   15
O14
A   16
C12
A   17
C20
A   18
C19
A   19
C18
A   20
C21
A   21
C17
A   22
C16
A   23
C4
A   24
C3
M  END
