1ZG3_2HI_A_365
     RDKit          3D

 32 34  0  0  0  0  0  0  0  0999 V2000
  100.5790   78.7410   34.1360 C   0  0  0  0  0  0  0  0  0  0  0  0
  101.8750   78.4070   33.7060 C   0  0  0  0  0  0  0  0  0  0  0  0
  102.2900   77.0560   33.7330 C   0  0  0  0  0  0  0  0  0  0  0  0
  101.4150   76.0120   34.2140 C   0  0  0  0  0  0  0  0  0  0  0  0
  100.1220   76.3880   34.6430 C   0  0  0  0  0  0  0  0  0  0  0  0
   99.6910   77.7470   34.6020 C   0  0  0  0  0  0  0  0  0  0  0  0
  101.8160   74.6720   34.2640 O   0  0  0  0  0  0  0  0  0  0  0  0
  103.6580   76.7150   33.2410 C   0  0  0  0  0  0  0  0  0  0  0  0
  104.4420   77.5680   32.8360 O   0  0  0  0  0  0  0  0  0  0  0  0
  104.0120   75.2200   33.2040 C   0  0  0  0  0  0  0  0  0  0  0  0
  103.2510   74.4330   34.2800 C   0  0  0  0  0  0  0  0  0  0  0  0
  103.6170   74.8180   35.6010 O   0  0  0  0  0  0  0  0  0  0  0  0
  103.6600   74.7960   31.7560 C   0  0  0  0  0  0  0  0  0  0  0  0
  102.3250   74.4020   31.3630 C   0  0  0  0  0  0  0  0  0  0  0  0
  102.0250   74.0510   30.0230 C   0  0  0  0  0  0  0  0  0  0  0  0
  103.0300   74.0780   29.0310 C   0  0  0  0  0  0  0  0  0  0  0  0
  104.3520   74.4620   29.4060 C   0  0  0  0  0  0  0  0  0  0  0  0
  104.6640   74.8180   30.7510 C   0  0  0  0  0  0  0  0  0  0  0  0
  102.7420   73.7480   27.7510 O   0  0  0  0  0  0  0  0  0  0  0  0
   98.4550   78.0890   35.0030 O   0  0  0  0  0  0  0  0  0  0  0  0
  100.2522   79.7910   34.1091 H   0  0  0  0  0  0  0  0  0  0  0  0
  102.5607   79.1906   33.3514 H   0  0  0  0  0  0  0  0  0  0  0  0
   99.4332   75.6160   35.0166 H   0  0  0  0  0  0  0  0  0  0  0  0
  105.0673   75.0136   33.4360 H   0  0  0  0  0  0  0  0  0  0  0  0
  103.5081   73.3902   34.0424 H   0  0  0  0  0  0  0  0  0  0  0  0
  103.1052   74.2796   36.2554 H   0  0  0  0  0  0  0  0  0  0  0  0
  101.5266   74.3742   32.1192 H   0  0  0  0  0  0  0  0  0  0  0  0
  101.0005   73.7550   29.7533 H   0  0  0  0  0  0  0  0  0  0  0  0
  105.1448   74.4838   28.6438 H   0  0  0  0  0  0  0  0  0  0  0  0
  105.6911   75.1123   31.0128 H   0  0  0  0  0  0  0  0  0  0  0  0
  102.1032   73.0161   27.5602 H   0  0  0  0  0  0  0  0  0  0  0  0
   98.2463   78.1468   35.9690 H   0  0  0  0  0  0  0  0  0  0  0  0
  1  2  2  0
  1  6  1  0
  2  3  1  0
  3  4  2  0
  3  8  1  0
  4  5  1  0
  4  7  1  0
  5  6  2  0
  6 20  1  0
  7 11  1  0
  8  9  2  0
  8 10  1  0
 10 11  1  0
 10 13  1  0
 11 12  1  0
 13 14  2  0
 13 18  1  0
 14 15  1  0
 15 16  2  0
 16 17  1  0
 16 19  1  0
 17 18  2  0
  1 21  1  0
  2 22  1  0
  5 23  1  0
 10 24  1  0
 11 25  1  0
 12 26  1  0
 14 27  1  0
 15 28  1  0
 17 29  1  0
 18 30  1  0
 19 31  1  0
 20 32  1  0
A    1
C1
A    2
C2
A    3
C3
A    4
C4
A    5
C5
A    6
C6
A    7
O1
A    8
C7
A    9
O2
A   10
C8
A   11
C9
A   12
O3
A   13
C10
A   14
C11
A   15
C12
A   16
C13
A   17
C14
A   18
C15
A   19
O4
A   20
O5
M  END
