1ZGB_A1E_A_1001
     RDKit          3D

 81 85  0  0  0  0  0  0  0  0999 V2000
   -3.1010   59.6420   74.6460 C   0  0  0  0  0  0  0  0  0  0  0  0
   -2.0300   60.6480   74.2690 C   0  0  0  0  0  0  0  0  0  0  0  0
   -1.0720   60.0800   73.1650 C   0  0  0  0  0  0  0  0  0  0  0  0
   -0.5640   58.6720   73.5430 C   0  0  0  0  0  0  0  0  0  0  0  0
   -1.2260   57.9290   74.5080 C   0  0  0  0  0  0  0  0  0  0  0  0
   -2.4440   58.4090   75.2790 C   0  0  0  0  0  0  0  0  0  0  0  0
    0.6260   58.0220   72.8830 C   0  0  0  0  0  0  0  0  0  0  0  0
    1.0540   56.7480   73.2200 C   0  0  0  0  0  0  0  0  0  0  0  0
    0.2850   56.0030   74.2960 C   0  0  0  0  0  0  0  0  0  0  0  0
   -0.7790   56.6730   74.8270 N   0  0  0  0  0  0  0  0  0  0  0  0
    0.5390   54.9060   74.6920 O   0  0  0  0  0  0  0  0  0  0  0  0
    0.0400   61.0700   73.2430 N   0  0  0  0  0  0  0  0  0  0  0  0
   -0.0680   62.2860   72.3830 C   0  0  0  0  0  0  0  0  0  0  0  0
    0.9870   62.0150   71.3460 C   0  0  0  0  0  0  0  0  0  0  0  0
    0.6380   62.6540   70.0350 C   0  0  0  0  0  0  0  0  0  0  0  0
    1.6990   62.3090   68.9910 C   0  0  0  0  0  0  0  0  0  0  0  0
    3.1210   62.4740   69.5480 C   0  0  0  0  0  0  0  0  0  0  0  0
    3.6790   63.7740   69.0100 C   0  0  0  0  0  0  0  0  0  0  0  0
    3.2800   65.0280   69.8120 C   0  0  0  0  0  0  0  0  0  0  0  0
    2.2410   65.8630   69.0450 C   0  0  0  0  0  0  0  0  0  0  0  0
    2.7180   66.3770   67.6860 C   0  0  0  0  0  0  0  0  0  0  0  0
    1.7260   67.4350   67.2000 C   0  0  0  0  0  0  0  0  0  0  0  0
    2.2130   68.4110   66.2220 N   0  0  0  0  0  0  0  0  0  0  0  0
    3.5210   68.6620   65.7320 C   0  0  0  0  0  0  0  0  0  0  0  0
    4.5280   69.2680   66.6260 C   0  0  0  0  0  0  0  0  0  0  0  0
    5.7970   69.5770   66.0220 C   0  0  0  0  0  0  0  0  0  0  0  0
    6.0700   69.3050   64.6510 N   0  0  0  0  0  0  0  0  0  0  0  0
    5.1550   68.7420   63.8630 C   0  0  0  0  0  0  0  0  0  0  0  0
    3.8300   68.3860   64.3510 C   0  0  0  0  0  0  0  0  0  0  0  0
    4.4250   69.6100   68.0480 C   0  0  0  0  0  0  0  0  0  0  0  0
    5.4660   70.1970   68.7720 C   0  0  0  0  0  0  0  0  0  0  0  0
    6.7110   70.4990   68.1320 C   0  0  0  0  0  0  0  0  0  0  0  0
    6.8660   70.1920   66.7800 C   0  0  0  0  0  0  0  0  0  0  0  0
    5.6230   68.5170   62.4010 C   0  0  0  0  0  0  0  0  0  0  0  0
    4.4170   68.2910   61.4350 C   0  0  0  0  0  0  0  0  0  0  0  0
    3.4630   67.2460   62.0080 C   0  0  0  0  0  0  0  0  0  0  0  0
    2.8360   67.7540   63.3560 C   0  0  0  0  0  0  0  0  0  0  0  0
   -3.7953   60.0983   75.3669 H   0  0  0  0  0  0  0  0  0  0  0  0
   -3.6545   59.3404   73.7445 H   0  0  0  0  0  0  0  0  0  0  0  0
   -2.5138   61.5595   73.8881 H   0  0  0  0  0  0  0  0  0  0  0  0
   -1.4318   60.8680   75.1655 H   0  0  0  0  0  0  0  0  0  0  0  0
   -1.5321   59.9667   72.1723 H   0  0  0  0  0  0  0  0  0  0  0  0
   -2.1337   58.6631   76.3033 H   0  0  0  0  0  0  0  0  0  0  0  0
   -3.1850   57.5961   75.2665 H   0  0  0  0  0  0  0  0  0  0  0  0
    1.1729   58.5783   72.1075 H   0  0  0  0  0  0  0  0  0  0  0  0
    1.9230   56.2912   72.7238 H   0  0  0  0  0  0  0  0  0  0  0  0
   -1.3102   56.1747   75.5553 H   0  0  0  0  0  0  0  0  0  0  0  0
    0.1050   61.3868   74.2209 H   0  0  0  0  0  0  0  0  0  0  0  0
   -1.0662   62.3692   71.9284 H   0  0  0  0  0  0  0  0  0  0  0  0
    0.0697   63.2327   72.9259 H   0  0  0  0  0  0  0  0  0  0  0  0
    1.9476   62.4196   71.6976 H   0  0  0  0  0  0  0  0  0  0  0  0
    1.0551   60.9275   71.1954 H   0  0  0  0  0  0  0  0  0  0  0  0
   -0.3408   62.2827   69.6971 H   0  0  0  0  0  0  0  0  0  0  0  0
    0.5968   63.7457   70.1632 H   0  0  0  0  0  0  0  0  0  0  0  0
    1.5598   61.2652   68.6732 H   0  0  0  0  0  0  0  0  0  0  0  0
    1.5815   62.9992   68.1426 H   0  0  0  0  0  0  0  0  0  0  0  0
    3.0913   62.5056   70.6471 H   0  0  0  0  0  0  0  0  0  0  0  0
    3.7543   61.6279   69.2431 H   0  0  0  0  0  0  0  0  0  0  0  0
    4.7766   63.7019   69.0108 H   0  0  0  0  0  0  0  0  0  0  0  0
    3.2538   63.9012   68.0035 H   0  0  0  0  0  0  0  0  0  0  0  0
    2.8515   64.7174   70.7763 H   0  0  0  0  0  0  0  0  0  0  0  0
    4.1776   65.6438   69.9707 H   0  0  0  0  0  0  0  0  0  0  0  0
    1.3504   65.2382   68.8826 H   0  0  0  0  0  0  0  0  0  0  0  0
    2.0371   66.7511   69.6612 H   0  0  0  0  0  0  0  0  0  0  0  0
    3.7184   66.8231   67.7869 H   0  0  0  0  0  0  0  0  0  0  0  0
    2.7735   65.5484   66.9646 H   0  0  0  0  0  0  0  0  0  0  0  0
    0.8754   66.9066   66.7447 H   0  0  0  0  0  0  0  0  0  0  0  0
    1.4828   68.0274   68.0944 H   0  0  0  0  0  0  0  0  0  0  0  0
    1.4826   69.0175   65.8225 H   0  0  0  0  0  0  0  0  0  0  0  0
    3.4816   69.3938   68.5707 H   0  0  0  0  0  0  0  0  0  0  0  0
    5.3286   70.4282   69.8386 H   0  0  0  0  0  0  0  0  0  0  0  0
    7.5315   70.9653   68.6971 H   0  0  0  0  0  0  0  0  0  0  0  0
    7.8187   70.4216   66.2804 H   0  0  0  0  0  0  0  0  0  0  0  0
    6.1859   69.4011   62.0672 H   0  0  0  0  0  0  0  0  0  0  0  0
    6.2532   67.6157   62.3783 H   0  0  0  0  0  0  0  0  0  0  0  0
    3.8770   69.2400   61.3016 H   0  0  0  0  0  0  0  0  0  0  0  0
    4.7980   67.9329   60.4672 H   0  0  0  0  0  0  0  0  0  0  0  0
    2.6577   67.0550   61.2834 H   0  0  0  0  0  0  0  0  0  0  0  0
    4.0246   66.3205   62.2033 H   0  0  0  0  0  0  0  0  0  0  0  0
    2.3580   66.8966   63.8523 H   0  0  0  0  0  0  0  0  0  0  0  0
    2.1328   68.5539   63.0807 H   0  0  0  0  0  0  0  0  0  0  0  0
  1  2  1  0
  1  6  1  0
  2  3  1  0
  3  4  1  0
  3 12  1  0
  4  5  2  0
  4  7  1  0
  5  6  1  0
  5 10  1  0
  7  8  2  0
  8  9  1  0
  9 10  1  0
  9 11  2  0
 12 13  1  0
 13 14  1  0
 14 15  1  0
 15 16  1  0
 16 17  1  0
 17 18  1  0
 18 19  1  0
 19 20  1  0
 20 21  1  0
 21 22  1  0
 22 23  1  0
 23 24  1  0
 24 25  2  0
 24 29  1  0
 25 26  1  0
 25 30  1  0
 26 27  2  0
 26 33  1  0
 27 28  1  0
 28 29  2  0
 28 34  1  0
 29 37  1  0
 30 31  2  0
 31 32  1  0
 32 33  2  0
 34 35  1  0
 35 36  1  0
 36 37  1  0
  1 38  1  0
  1 39  1  0
  2 40  1  0
  2 41  1  0
  3 42  1  0
  6 43  1  0
  6 44  1  0
  7 45  1  0
  8 46  1  0
 10 47  1  0
 12 48  1  0
 13 49  1  0
 13 50  1  0
 14 51  1  0
 14 52  1  0
 15 53  1  0
 15 54  1  0
 16 55  1  0
 16 56  1  0
 17 57  1  0
 17 58  1  0
 18 59  1  0
 18 60  1  0
 19 61  1  0
 19 62  1  0
 20 63  1  0
 20 64  1  0
 21 65  1  0
 21 66  1  0
 22 67  1  0
 22 68  1  0
 23 69  1  0
 30 70  1  0
 31 71  1  0
 32 72  1  0
 33 73  1  0
 34 74  1  0
 34 75  1  0
 35 76  1  0
 35 77  1  0
 36 78  1  0
 36 79  1  0
 37 80  1  0
 37 81  1  0
A    1
C1
A    2
C2
A    3
C3
A    4
C4
A    5
C5
A    6
C6
A    7
C7
A    8
C8
A    9
C9
A   10
N10
A   11
O11
A   12
N12
A   13
C13
A   14
C14
A   15
C15
A   16
C16
A   17
C17
A   18
C18
A   19
C19
A   20
C20
A   21
C21
A   22
C22
A   23
N23
A   24
C24
A   25
C25
A   26
C26
A   27
N27
A   28
C28
A   29
C29
A   30
C30
A   31
C31
A   32
C32
A   33
C33
A   34
C34
A   35
C35
A   36
C36
A   37
C37
M  END
