1ZGJ_P1S_A_0
     RDKit          3D

 37 41  0  0  0  0  0  0  0  0999 V2000
   30.5660   73.5600   33.0000 C   0  0  0  0  0  0  0  0  0  0  0  0
   30.1440   73.8170   31.6610 O   0  0  0  0  0  0  0  0  0  0  0  0
   31.0300   74.6630   30.9810 C   0  0  0  0  0  0  0  0  0  0  0  0
   31.6650   75.7890   31.6690 C   0  0  0  0  0  0  0  0  0  0  0  0
   31.3470   76.0560   33.1590 C   0  0  0  0  0  0  0  0  0  0  0  0
   30.5590   74.8520   33.8250 C   0  0  0  0  0  0  0  0  0  0  0  0
   31.3400   74.4580   29.5920 C   0  0  0  0  0  0  0  0  0  0  0  0
   32.2400   75.3240   28.8830 C   0  0  0  0  0  0  0  0  0  0  0  0
   32.8450   76.4200   29.5830 C   0  0  0  0  0  0  0  0  0  0  0  0
   32.5610   76.6500   30.9580 C   0  0  0  0  0  0  0  0  0  0  0  0
   30.4690   77.1870   33.1100 O   0  0  0  0  0  0  0  0  0  0  0  0
   29.2290   76.8580   33.6240 C   0  0  0  0  0  0  0  0  0  0  0  0
   29.2030   75.4950   34.0630 C   0  0  0  0  0  0  0  0  0  0  0  0
   28.1000   77.7250   33.7210 C   0  0  0  0  0  0  0  0  0  0  0  0
   26.9320   77.1530   34.2830 C   0  0  0  0  0  0  0  0  0  0  0  0
   26.8910   75.7980   34.7270 C   0  0  0  0  0  0  0  0  0  0  0  0
   28.0280   74.9230   34.6330 C   0  0  0  0  0  0  0  0  0  0  0  0
   25.6950   77.7440   34.4980 O   0  0  0  0  0  0  0  0  0  0  0  0
   24.8390   76.7490   35.0920 C   0  0  0  0  0  0  0  0  0  0  0  0
   25.6180   75.5340   35.2250 O   0  0  0  0  0  0  0  0  0  0  0  0
   31.0570   74.5480   35.1450 O   0  0  0  0  0  0  0  0  0  0  0  0
   32.5650   75.1030   27.4220 C   0  0  0  0  0  0  0  0  0  0  0  0
   33.7770   74.3200   27.3350 O   0  0  0  0  0  0  0  0  0  0  0  0
   29.8818   72.8327   33.4614 H   0  0  0  0  0  0  0  0  0  0  0  0
   31.5899   73.1585   32.9784 H   0  0  0  0  0  0  0  0  0  0  0  0
   32.2660   76.2008   33.7459 H   0  0  0  0  0  0  0  0  0  0  0  0
   30.8756   73.6157   29.0583 H   0  0  0  0  0  0  0  0  0  0  0  0
   33.5362   77.0901   29.0509 H   0  0  0  0  0  0  0  0  0  0  0  0
   33.0335   77.4959   31.4788 H   0  0  0  0  0  0  0  0  0  0  0  0
   28.1342   78.7706   33.3812 H   0  0  0  0  0  0  0  0  0  0  0  0
   27.9935   73.8793   34.9787 H   0  0  0  0  0  0  0  0  0  0  0  0
   24.4982   77.0879   36.0815 H   0  0  0  0  0  0  0  0  0  0  0  0
   23.9510   76.5757   34.4664 H   0  0  0  0  0  0  0  0  0  0  0  0
   30.4422   74.9233   35.8242 H   0  0  0  0  0  0  0  0  0  0  0  0
   31.7390   74.5634   26.9356 H   0  0  0  0  0  0  0  0  0  0  0  0
   32.7039   76.0700   26.9164 H   0  0  0  0  0  0  0  0  0  0  0  0
   34.1009   74.1108   28.2468 H   0  0  0  0  0  0  0  0  0  0  0  0
  1  2  1  0
  1  6  1  0
  2  3  1  0
  3  4  2  0
  3  7  1  0
  4  5  1  0
  4 10  1  0
  5  6  1  0
  5 11  1  0
  6 13  1  0
  6 21  1  0
  7  8  2  0
  8  9  1  0
  8 22  1  0
  9 10  2  0
 11 12  1  0
 12 13  2  0
 12 14  1  0
 13 17  1  0
 14 15  2  0
 15 16  1  0
 15 18  1  0
 16 17  2  0
 16 20  1  0
 18 19  1  0
 19 20  1  0
 22 23  1  0
  1 24  1  0
  1 25  1  0
  5 26  1  0
  7 27  1  0
  9 28  1  0
 10 29  1  0
 14 30  1  0
 17 31  1  0
 19 32  1  0
 19 33  1  0
 21 34  1  0
 22 35  1  0
 22 36  1  0
 23 37  1  0
A    1
C1
A    2
O1
A    3
C2
A    4
C3
A    5
C4
A    6
C5
A    7
C6
A    8
C7
A    9
C8
A   10
C9
A   11
O2
A   12
C10
A   13
C11
A   14
C12
A   15
C13
A   16
C14
A   17
C15
A   18
O3
A   19
C16
A   20
O4
A   21
O5
A   22
C17
A   23
O6
M  END
