1ZH6_4AF_A_315
     RDKit          3D

 28 28  0  0  0  0  0  0  0  0999 V2000
   75.0640   44.4720   -7.5650 C   0  0  0  0  0  0  0  0  0  0  0  0
   74.1700   43.2740   -7.2440 C   0  0  0  0  0  0  0  0  0  0  0  0
   73.1780   43.0220   -7.9230 O   0  0  0  0  0  0  0  0  0  0  0  0
   74.4850   42.3380   -6.1080 C   0  0  0  0  0  0  0  0  0  0  0  0
   73.5530   41.3370   -5.8950 C   0  0  0  0  0  0  0  0  0  0  0  0
   73.7570   40.4210   -4.9000 C   0  0  0  0  0  0  0  0  0  0  0  0
   75.6440   42.4320   -5.3400 C   0  0  0  0  0  0  0  0  0  0  0  0
   75.8410   41.4900   -4.3440 C   0  0  0  0  0  0  0  0  0  0  0  0
   74.9030   40.4890   -4.1350 C   0  0  0  0  0  0  0  0  0  0  0  0
   75.0410   39.4570   -3.0370 C   0  0  0  0  0  0  0  0  0  0  0  0
   76.3400   38.7350   -3.0820 C   0  0  0  0  0  0  0  0  0  0  0  0
   76.3240   37.7280   -1.9170 C   0  0  0  0  0  0  0  0  0  0  0  0
   76.9540   36.6810   -2.0030 O   0  0  0  0  0  0  0  0  0  0  0  0
   75.6840   37.9530   -0.8770 O   0  0  0  0  0  0  0  0  0  0  0  0
   76.4490   38.0630   -4.3800 N   0  0  0  0  0  0  0  0  0  0  0  0
   75.4086   44.9338   -6.6280 H   0  0  0  0  0  0  0  0  0  0  0  0
   75.9331   44.1349   -8.1490 H   0  0  0  0  0  0  0  0  0  0  0  0
   74.4935   45.2092   -8.1490 H   0  0  0  0  0  0  0  0  0  0  0  0
   72.6520   41.2785   -6.5233 H   0  0  0  0  0  0  0  0  0  0  0  0
   73.0115   39.6346   -4.7108 H   0  0  0  0  0  0  0  0  0  0  0  0
   76.3798   43.2298   -5.5193 H   0  0  0  0  0  0  0  0  0  0  0  0
   76.7436   41.5355   -3.7169 H   0  0  0  0  0  0  0  0  0  0  0  0
   74.9551   39.9649   -2.0651 H   0  0  0  0  0  0  0  0  0  0  0  0
   74.2442   38.7125   -3.1814 H   0  0  0  0  0  0  0  0  0  0  0  0
   77.2058   39.4052   -2.9763 H   0  0  0  0  0  0  0  0  0  0  0  0
   77.2396   36.2063   -1.1825 H   0  0  0  0  0  0  0  0  0  0  0  0
   76.6122   37.0567   -4.2330 H   0  0  0  0  0  0  0  0  0  0  0  0
   75.5755   38.1954   -4.9096 H   0  0  0  0  0  0  0  0  0  0  0  0
  1  2  1  0
  2  3  2  0
  2  4  1  0
  4  5  2  0
  4  7  1  0
  5  6  1  0
  6  9  2  0
  7  8  2  0
  8  9  1  0
  9 10  1  0
 10 11  1  0
 11 12  1  0
 11 15  1  0
 12 13  1  0
 12 14  2  0
  1 16  1  0
  1 17  1  0
  1 18  1  0
  5 19  1  0
  6 20  1  0
  7 21  1  0
  8 22  1  0
 10 23  1  0
 10 24  1  0
 11 25  1  0
 13 26  1  0
 15 27  1  0
 15 28  1  0
A    1
C11
A    2
C8
A    3
O2
A    4
C7
A    5
C9
A    6
C10
A    7
C6
A    8
C5
A    9
C4
A   10
C3
A   11
C1
A   12
C2
A   13
OX1
A   14
O
A   15
N
M  END
