1ZI5_DR3_A_2
     RDKit          3D

 71 73  0  0  0  0  0  0  0  0999 V2000
   13.1610   62.1510   47.6060 O   0  0  0  0  0  0  0  0  0  0  0  0
   13.2010   62.6430   46.2640 C   0  0  0  0  0  0  0  0  0  0  0  0
   12.8140   64.1240   46.2340 C   0  0  0  0  0  0  0  0  0  0  0  0
   11.4600   64.2750   46.6700 O   0  0  0  0  0  0  0  0  0  0  0  0
   12.9620   64.6820   44.8170 C   0  0  0  0  0  0  0  0  0  0  0  0
   11.9930   64.0740   43.9590 O   0  0  0  0  0  0  0  0  0  0  0  0
   14.3740   64.3950   44.2960 C   0  0  0  0  0  0  0  0  0  0  0  0
   14.5300   64.9150   42.8660 C   0  0  0  0  0  0  0  0  0  0  0  0
   14.6340   62.9810   44.3320 O   0  0  0  0  0  0  0  0  0  0  0  0
   14.5970   62.4430   45.6670 C   0  0  0  0  0  0  0  0  0  0  0  0
   15.5660   63.1060   46.4940 O   0  0  0  0  0  0  0  0  0  0  0  0
   16.9070   62.8370   46.0540 C   0  0  0  0  0  0  0  0  0  0  0  0
   17.4500   61.5720   46.7240 C   0  0  0  0  0  0  0  0  0  0  0  0
   16.6830   60.4400   46.3070 O   0  0  0  0  0  0  0  0  0  0  0  0
   18.9220   61.3570   46.3620 C   0  0  0  0  0  0  0  0  0  0  0  0
   19.0370   61.1020   44.9590 O   0  0  0  0  0  0  0  0  0  0  0  0
   19.7210   62.6120   46.7250 C   0  0  0  0  0  0  0  0  0  0  0  0
   21.1880   62.4470   46.3220 C   0  0  0  0  0  0  0  0  0  0  0  0
   21.9130   63.6290   46.6720 O   0  0  0  0  0  0  0  0  0  0  0  0
   19.1580   63.7460   46.0460 O   0  0  0  0  0  0  0  0  0  0  0  0
   17.8010   64.0020   46.4510 C   0  0  0  0  0  0  0  0  0  0  0  0
   17.3260   65.1880   45.7960 O   0  0  0  0  0  0  0  0  0  0  0  0
   17.9460   66.3490   46.3670 C   0  0  0  0  0  0  0  0  0  0  0  0
   18.4230   67.3080   45.2730 C   0  0  0  0  0  0  0  0  0  0  0  0
   19.4270   66.6640   44.4830 O   0  0  0  0  0  0  0  0  0  0  0  0
   18.9990   68.5800   45.9010 C   0  0  0  0  0  0  0  0  0  0  0  0
   19.4130   69.5610   44.8020 C   0  0  0  0  0  0  0  0  0  0  0  0
   18.2730   69.9070   44.0120 O   0  0  0  0  0  0  0  0  0  0  0  0
   18.0160   69.2010   46.7470 O   0  0  0  0  0  0  0  0  0  0  0  0
   17.6330   68.3560   47.8450 C   0  0  0  0  0  0  0  0  0  0  0  0
   16.7060   69.0470   48.6860 O   0  0  0  0  0  0  0  0  0  0  0  0
   16.9830   67.0780   47.3080 C   0  0  0  0  0  0  0  0  0  0  0  0
   16.5940   66.1970   48.4200 N   0  0  0  0  0  0  0  0  0  0  0  0
   15.3380   65.8360   48.6740 C   0  0  0  0  0  0  0  0  0  0  0  0
   14.2520   66.8260   48.2440 C   0  0  0  0  0  0  0  0  0  0  0  0
   15.0910   65.0100   49.7250 O   0  0  0  0  0  0  0  0  0  0  0  0
   13.2228   62.9106   48.2379 H   0  0  0  0  0  0  0  0  0  0  0  0
   12.4778   62.0782   45.6574 H   0  0  0  0  0  0  0  0  0  0  0  0
   13.4824   64.6804   46.9076 H   0  0  0  0  0  0  0  0  0  0  0  0
   11.4304   64.2783   47.6596 H   0  0  0  0  0  0  0  0  0  0  0  0
   12.7982   65.7696   44.8325 H   0  0  0  0  0  0  0  0  0  0  0  0
   11.2950   63.6360   44.5077 H   0  0  0  0  0  0  0  0  0  0  0  0
   15.0985   64.9121   44.9423 H   0  0  0  0  0  0  0  0  0  0  0  0
   14.8460   65.9683   42.8913 H   0  0  0  0  0  0  0  0  0  0  0  0
   15.2884   64.3172   42.3392 H   0  0  0  0  0  0  0  0  0  0  0  0
   13.5678   64.8334   42.3392 H   0  0  0  0  0  0  0  0  0  0  0  0
   14.8317   61.3692   45.6242 H   0  0  0  0  0  0  0  0  0  0  0  0
   16.8972   62.6993   44.9627 H   0  0  0  0  0  0  0  0  0  0  0  0
   17.3707   61.6917   47.8146 H   0  0  0  0  0  0  0  0  0  0  0  0
   16.3532   59.9533   47.1035 H   0  0  0  0  0  0  0  0  0  0  0  0
   19.3178   60.4960   46.9207 H   0  0  0  0  0  0  0  0  0  0  0  0
   19.4398   60.2087   44.8179 H   0  0  0  0  0  0  0  0  0  0  0  0
   19.6707   62.7663   47.8130 H   0  0  0  0  0  0  0  0  0  0  0  0
   21.6184   61.5829   46.8493 H   0  0  0  0  0  0  0  0  0  0  0  0
   21.2544   62.2834   45.2363 H   0  0  0  0  0  0  0  0  0  0  0  0
   21.9609   63.7070   47.6578 H   0  0  0  0  0  0  0  0  0  0  0  0
   17.7743   64.1307   47.5431 H   0  0  0  0  0  0  0  0  0  0  0  0
   18.8171   66.0082   46.9457 H   0  0  0  0  0  0  0  0  0  0  0  0
   17.5695   67.5816   44.6354 H   0  0  0  0  0  0  0  0  0  0  0  0
   20.0924   66.2372   45.0790 H   0  0  0  0  0  0  0  0  0  0  0  0
   19.8791   68.3100   46.5031 H   0  0  0  0  0  0  0  0  0  0  0  0
   19.8296   70.4698   45.2608 H   0  0  0  0  0  0  0  0  0  0  0  0
   20.1723   69.0904   44.1601 H   0  0  0  0  0  0  0  0  0  0  0  0
   17.5162   70.1367   44.6075 H   0  0  0  0  0  0  0  0  0  0  0  0
   18.5276   68.0937   48.4289 H   0  0  0  0  0  0  0  0  0  0  0  0
   16.9322   68.8784   49.6349 H   0  0  0  0  0  0  0  0  0  0  0  0
   16.0793   67.3532   46.7444 H   0  0  0  0  0  0  0  0  0  0  0  0
   17.3362   65.8388   49.0378 H   0  0  0  0  0  0  0  0  0  0  0  0
   13.7767   67.2593   49.1364 H   0  0  0  0  0  0  0  0  0  0  0  0
   14.7046   67.6287   47.6433 H   0  0  0  0  0  0  0  0  0  0  0  0
   13.4945   66.3012   47.6433 H   0  0  0  0  0  0  0  0  0  0  0  0
  1  2  1  0
  2  3  1  0
  2 10  1  0
  3  4  1  0
  3  5  1  0
  5  6  1  0
  5  7  1  0
  7  8  1  0
  7  9  1  0
  9 10  1  0
 10 11  1  0
 11 12  1  0
 12 13  1  0
 12 21  1  0
 13 14  1  0
 13 15  1  0
 15 16  1  0
 15 17  1  0
 17 18  1  0
 17 20  1  0
 18 19  1  0
 20 21  1  0
 21 22  1  0
 22 23  1  0
 23 24  1  0
 23 32  1  0
 24 25  1  0
 24 26  1  0
 26 27  1  0
 26 29  1  0
 27 28  1  0
 29 30  1  0
 30 31  1  0
 30 32  1  0
 32 33  1  0
 33 34  1  0
 34 35  1  0
 34 36  2  0
  1 37  1  0
  2 38  1  0
  3 39  1  0
  4 40  1  0
  5 41  1  0
  6 42  1  0
  7 43  1  0
  8 44  1  0
  8 45  1  0
  8 46  1  0
 10 47  1  0
 12 48  1  0
 13 49  1  0
 14 50  1  0
 15 51  1  0
 16 52  1  0
 17 53  1  0
 18 54  1  0
 18 55  1  0
 19 56  1  0
 21 57  1  0
 23 58  1  0
 24 59  1  0
 25 60  1  0
 26 61  1  0
 27 62  1  0
 27 63  1  0
 28 64  1  0
 30 65  1  0
 31 66  1  0
 32 67  1  0
 33 68  1  0
 35 69  1  0
 35 70  1  0
 35 71  1  0
A    1
OAL
A    2
CBO
A    3
CBN
A    4
OAK
A    5
CBL
A    6
OAI
A    7
CBH
A    8
CAC
A    9
OBB
A   10
CBQ
A   11
O2'
A   12
C2'
A   13
C3'
A   14
O3'
A   15
C4'
A   16
O4'
A   17
C5'
A   18
C6'
A   19
O6'
A   20
O5'
A   21
C1'
A   22
O1'
A   23
CBV
A   24
CBU
A   25
OAE
A   26
CBK
A   27
CAV
A   28
OAG
A   29
OBA
A   30
CBI
A   31
OAH
A   32
CBS
A   33
NAX
A   34
CBF
A   35
CAB
A   36
OAD
M  END
