1ZJO_DR4_A_1
     RDKit          3D

 54 54  0  0  0  0  0  0  0  0999 V2000
   15.6990   61.8250   42.6250 C   0  0  0  0  0  0  0  0  0  0  0  0
   15.4440   63.1340   43.1430 O   0  0  0  0  0  0  0  0  0  0  0  0
   14.4160   63.7440   42.4930 C   0  0  0  0  0  0  0  0  0  0  0  0
   13.8260   63.1730   41.5760 O   0  0  0  0  0  0  0  0  0  0  0  0
   13.9930   65.1510   42.9200 C   0  0  0  0  0  0  0  0  0  0  0  0
   15.1400   66.1540   42.7810 C   0  0  0  0  0  0  0  0  0  0  0  0
   14.6890   67.5470   43.2230 C   0  0  0  0  0  0  0  0  0  0  0  0
   15.7920   68.6040   43.1030 C   0  0  0  0  0  0  0  0  0  0  0  0
   16.9370   68.4040   44.1000 C   0  0  0  0  0  0  0  0  0  0  0  0
   17.8380   67.2270   43.7210 C   0  0  0  0  0  0  0  0  0  0  0  0
   18.9060   66.9590   44.7850 C   0  0  0  0  0  0  0  0  0  0  0  0
   18.2810   66.4810   46.0980 C   0  0  0  0  0  0  0  0  0  0  0  0
   17.4770   65.3230   45.8290 O   0  0  0  0  0  0  0  0  0  0  0  0
   18.0360   64.1480   46.4360 C   0  0  0  0  0  0  0  0  0  0  0  0
   19.3600   63.8930   45.9340 O   0  0  0  0  0  0  0  0  0  0  0  0
   19.9530   62.7500   46.5740 C   0  0  0  0  0  0  0  0  0  0  0  0
   21.4120   62.5920   46.1400 C   0  0  0  0  0  0  0  0  0  0  0  0
   22.1520   63.7520   46.5310 O   0  0  0  0  0  0  0  0  0  0  0  0
   19.1480   61.4930   46.2330 C   0  0  0  0  0  0  0  0  0  0  0  0
   19.1670   61.2720   44.8200 O   0  0  0  0  0  0  0  0  0  0  0  0
   17.7020   61.6700   46.7040 C   0  0  0  0  0  0  0  0  0  0  0  0
   16.9150   60.5600   46.2650 O   0  0  0  0  0  0  0  0  0  0  0  0
   17.1140   62.9640   46.1350 C   0  0  0  0  0  0  0  0  0  0  0  0
   15.8200   63.1950   46.6980 O   0  0  0  0  0  0  0  0  0  0  0  0
   15.8362   61.1210   43.4590 H   0  0  0  0  0  0  0  0  0  0  0  0
   14.8469   61.5021   42.0089 H   0  0  0  0  0  0  0  0  0  0  0  0
   16.6100   61.8455   42.0089 H   0  0  0  0  0  0  0  0  0  0  0  0
   13.1547   65.4784   42.2876 H   0  0  0  0  0  0  0  0  0  0  0  0
   13.6972   65.1133   43.9788 H   0  0  0  0  0  0  0  0  0  0  0  0
   15.9827   65.8298   43.4094 H   0  0  0  0  0  0  0  0  0  0  0  0
   15.4489   66.1978   41.7262 H   0  0  0  0  0  0  0  0  0  0  0  0
   13.8396   67.8551   42.5957 H   0  0  0  0  0  0  0  0  0  0  0  0
   14.4141   67.4800   44.2860 H   0  0  0  0  0  0  0  0  0  0  0  0
   16.2053   68.5626   42.0844 H   0  0  0  0  0  0  0  0  0  0  0  0
   15.3335   69.5786   43.3263 H   0  0  0  0  0  0  0  0  0  0  0  0
   17.5452   69.3201   44.1287 H   0  0  0  0  0  0  0  0  0  0  0  0
   16.4933   68.1854   45.0825 H   0  0  0  0  0  0  0  0  0  0  0  0
   17.2169   66.3264   43.6060 H   0  0  0  0  0  0  0  0  0  0  0  0
   18.3498   67.4789   42.7805 H   0  0  0  0  0  0  0  0  0  0  0  0
   19.5941   66.1852   44.4140 H   0  0  0  0  0  0  0  0  0  0  0  0
   19.4429   67.8990   44.9800 H   0  0  0  0  0  0  0  0  0  0  0  0
   19.0753   66.2223   46.8136 H   0  0  0  0  0  0  0  0  0  0  0  0
   17.6580   67.2784   46.5292 H   0  0  0  0  0  0  0  0  0  0  0  0
   18.1162   64.2967   47.5229 H   0  0  0  0  0  0  0  0  0  0  0  0
   19.9356   62.8981   47.6638 H   0  0  0  0  0  0  0  0  0  0  0  0
   21.8437   61.7019   46.6210 H   0  0  0  0  0  0  0  0  0  0  0  0
   21.4599   62.4766   45.0471 H   0  0  0  0  0  0  0  0  0  0  0  0
   22.1855   63.8045   47.5190 H   0  0  0  0  0  0  0  0  0  0  0  0
   19.5973   60.6264   46.7400 H   0  0  0  0  0  0  0  0  0  0  0  0
   19.2504   60.3023   44.6387 H   0  0  0  0  0  0  0  0  0  0  0  0
   17.6909   61.7221   47.8027 H   0  0  0  0  0  0  0  0  0  0  0  0
   16.5676   60.0700   47.0520 H   0  0  0  0  0  0  0  0  0  0  0  0
   17.0215   62.8620   45.0437 H   0  0  0  0  0  0  0  0  0  0  0  0
   15.8831   63.1837   47.6859 H   0  0  0  0  0  0  0  0  0  0  0  0
  1  2  1  0
  2  3  1  0
  3  4  2  0
  3  5  1  0
  5  6  1  0
  6  7  1  0
  7  8  1  0
  8  9  1  0
  9 10  1  0
 10 11  1  0
 11 12  1  0
 12 13  1  0
 13 14  1  0
 14 15  1  0
 14 23  1  0
 15 16  1  0
 16 17  1  0
 16 19  1  0
 17 18  1  0
 19 20  1  0
 19 21  1  0
 21 22  1  0
 21 23  1  0
 23 24  1  0
  1 25  1  0
  1 26  1  0
  1 27  1  0
  5 28  1  0
  5 29  1  0
  6 30  1  0
  6 31  1  0
  7 32  1  0
  7 33  1  0
  8 34  1  0
  8 35  1  0
  9 36  1  0
  9 37  1  0
 10 38  1  0
 10 39  1  0
 11 40  1  0
 11 41  1  0
 12 42  1  0
 12 43  1  0
 14 44  1  0
 16 45  1  0
 17 46  1  0
 17 47  1  0
 18 48  1  0
 19 49  1  0
 20 50  1  0
 21 51  1  0
 22 52  1  0
 23 53  1  0
 24 54  1  0
A    1
CAA
A    2
OAP
A    3
CAS
A    4
OAB
A    5
CAO
A    6
CAL
A    7
CAJ
A    8
CAH
A    9
CAG
A   10
CAI
A   11
CAK
A   12
CAM
A   13
O1
A   14
C1
A   15
O5
A   16
C5
A   17
C6
A   18
O6
A   19
C4
A   20
O4
A   21
C3
A   22
O3
A   23
C2
A   24
O2
M  END
