1CR1_TTP_A_600
     RDKit          3D

 46 47  0  0  0  0  0  0  0  0999 V2000
   -9.9630   29.5060   42.7830 P   0  0  0  0  0  0  0  0  0  0  0  0
   -8.8340   30.4540   42.9670 O   0  0  0  0  0  0  0  0  0  0  0  0
  -11.0840   29.9030   41.8890 O   0  0  0  0  0  0  0  0  0  0  0  0
   -9.4040   28.1300   42.2570 O   0  0  0  0  0  0  0  0  0  0  0  0
   -9.2080   27.6530   40.7450 P   0  0  0  0  0  0  0  0  0  0  0  0
   -8.9550   28.8790   39.9780 O   0  0  0  0  0  0  0  0  0  0  0  0
   -8.2020   26.5730   40.7080 O   0  0  0  0  0  0  0  0  0  0  0  0
  -10.6860   27.1130   40.3790 O   0  0  0  0  0  0  0  0  0  0  0  0
  -11.6310   26.8410   39.0160 P   0  0  0  0  0  0  0  0  0  0  0  0
  -11.3270   27.8600   37.9960 O   0  0  0  0  0  0  0  0  0  0  0  0
  -11.5230   25.4270   38.5920 O   0  0  0  0  0  0  0  0  0  0  0  0
  -13.1040   27.0860   39.5430 O   0  0  0  0  0  0  0  0  0  0  0  0
  -10.6210   29.1550   44.1890 O   0  0  0  0  0  0  0  0  0  0  0  0
  -11.9270   28.4920   44.1090 C   0  0  0  0  0  0  0  0  0  0  0  0
  -12.7340   28.6490   45.4220 C   0  0  0  0  0  0  0  0  0  0  0  0
  -12.0610   27.9780   46.4780 O   0  0  0  0  0  0  0  0  0  0  0  0
  -12.9260   30.0950   45.8800 C   0  0  0  0  0  0  0  0  0  0  0  0
  -14.2800   30.3210   46.2590 O   0  0  0  0  0  0  0  0  0  0  0  0
  -11.9240   30.2500   47.0350 C   0  0  0  0  0  0  0  0  0  0  0  0
  -11.8750   28.8220   47.5590 C   0  0  0  0  0  0  0  0  0  0  0  0
  -10.5540   28.4700   48.2250 N   0  0  0  0  0  0  0  0  0  0  0  0
  -10.7550   28.2170   49.6140 C   0  0  0  0  0  0  0  0  0  0  0  0
  -11.8850   28.2950   50.1250 O   0  0  0  0  0  0  0  0  0  0  0  0
   -9.6670   27.8740   50.3670 N   0  0  0  0  0  0  0  0  0  0  0  0
   -8.4590   27.7900   49.8230 C   0  0  0  0  0  0  0  0  0  0  0  0
   -7.4470   27.4500   50.6420 O   0  0  0  0  0  0  0  0  0  0  0  0
   -8.2430   28.0490   48.4130 C   0  0  0  0  0  0  0  0  0  0  0  0
   -6.8720   27.9430   47.8180 C   0  0  0  0  0  0  0  0  0  0  0  0
   -9.3240   28.3760   47.6860 C   0  0  0  0  0  0  0  0  0  0  0  0
  -11.8613   30.1783   42.4368 H   0  0  0  0  0  0  0  0  0  0  0  0
   -7.9612   26.3145   41.6328 H   0  0  0  0  0  0  0  0  0  0  0  0
  -11.4786   24.8452   39.3917 H   0  0  0  0  0  0  0  0  0  0  0  0
  -13.1045   27.0861   40.5330 H   0  0  0  0  0  0  0  0  0  0  0  0
  -12.5016   28.9361   43.2828 H   0  0  0  0  0  0  0  0  0  0  0  0
  -11.7555   27.4187   43.9397 H   0  0  0  0  0  0  0  0  0  0  0  0
  -13.7243   28.2250   45.1994 H   0  0  0  0  0  0  0  0  0  0  0  0
  -12.7370   30.8437   45.0966 H   0  0  0  0  0  0  0  0  0  0  0  0
  -14.3487   30.3325   47.2465 H   0  0  0  0  0  0  0  0  0  0  0  0
  -10.9395   30.5839   46.6755 H   0  0  0  0  0  0  0  0  0  0  0  0
  -12.2056   31.0027   47.7861 H   0  0  0  0  0  0  0  0  0  0  0  0
  -12.6572   28.7139   48.3248 H   0  0  0  0  0  0  0  0  0  0  0  0
   -9.7862   27.6779   51.3711 H   0  0  0  0  0  0  0  0  0  0  0  0
   -6.1259   27.8853   48.6242 H   0  0  0  0  0  0  0  0  0  0  0  0
   -6.8110   27.0375   47.1965 H   0  0  0  0  0  0  0  0  0  0  0  0
   -6.6726   28.8284   47.1965 H   0  0  0  0  0  0  0  0  0  0  0  0
   -9.1998   28.5742   46.6112 H   0  0  0  0  0  0  0  0  0  0  0  0
  1  2  2  0
  1  3  1  0
  1  4  1  0
  1 13  1  0
  4  5  1  0
  5  6  2  0
  5  7  1  0
  5  8  1  0
  8  9  1  0
  9 10  2  0
  9 11  1  0
  9 12  1  0
 13 14  1  0
 14 15  1  0
 15 16  1  0
 15 17  1  0
 16 20  1  0
 17 18  1  0
 17 19  1  0
 19 20  1  0
 20 21  1  0
 21 22  1  0
 21 29  1  0
 22 23  2  0
 22 24  1  0
 24 25  1  0
 25 26  2  0
 25 27  1  0
 27 28  1  0
 27 29  2  0
  3 30  1  0
  7 31  1  0
 11 32  1  0
 12 33  1  0
 14 34  1  0
 14 35  1  0
 15 36  1  0
 17 37  1  0
 18 38  1  0
 19 39  1  0
 19 40  1  0
 20 41  1  0
 24 42  1  0
 28 43  1  0
 28 44  1  0
 28 45  1  0
 29 46  1  0
A    1
PA
A    2
O1A
A    3
O2A
A    4
O3A
A    5
PB
A    6
O1B
A    7
O2B
A    8
O3B
A    9
PG
A   10
O1G
A   11
O2G
A   12
O3G
A   13
O5'
A   14
C5'
A   15
C4'
A   16
O4'
A   17
C3'
A   18
O3'
A   19
C2'
A   20
C1'
A   21
N1
A   22
C2
A   23
O2
A   24
N3
A   25
C4
A   26
O4
A   27
C5
A   28
C5M
A   29
C6
M  END
