1ZNE_HE2_A_500
     RDKit          3D

 21 20  0  0  0  0  0  0  0  0999 V2000
   52.4970   24.0770   37.3880 C   0  0  0  0  0  0  0  0  0  0  0  0
   52.4250   22.9490   38.4200 C   0  0  0  0  0  0  0  0  0  0  0  0
   51.5580   23.3620   39.6110 C   0  0  0  0  0  0  0  0  0  0  0  0
   51.6320   22.3460   40.7550 C   0  0  0  0  0  0  0  0  0  0  0  0
   50.9240   22.8990   41.9930 C   0  0  0  0  0  0  0  0  0  0  0  0
   51.1310   21.9980   43.2130 C   0  0  0  0  0  0  0  0  0  0  0  0
   50.5800   22.6390   44.3690 O   0  0  0  0  0  0  0  0  0  0  0  0
   52.5588   25.0451   37.9067 H   0  0  0  0  0  0  0  0  0  0  0  0
   53.3883   23.9411   36.7578 H   0  0  0  0  0  0  0  0  0  0  0  0
   51.5957   24.0555   36.7578 H   0  0  0  0  0  0  0  0  0  0  0  0
   51.9897   22.0554   37.9488 H   0  0  0  0  0  0  0  0  0  0  0  0
   53.4417   22.7329   38.7800 H   0  0  0  0  0  0  0  0  0  0  0  0
   51.9042   24.3385   39.9805 H   0  0  0  0  0  0  0  0  0  0  0  0
   50.5137   23.4131   39.2692 H   0  0  0  0  0  0  0  0  0  0  0  0
   51.1438   21.4107   40.4436 H   0  0  0  0  0  0  0  0  0  0  0  0
   52.6872   22.1531   40.9987 H   0  0  0  0  0  0  0  0  0  0  0  0
   51.3247   23.8988   42.2161 H   0  0  0  0  0  0  0  0  0  0  0  0
   49.8459   22.9452   41.7796 H   0  0  0  0  0  0  0  0  0  0  0  0
   50.6249   21.0351   43.0496 H   0  0  0  0  0  0  0  0  0  0  0  0
   52.2061   21.8216   43.3647 H   0  0  0  0  0  0  0  0  0  0  0  0
   50.9442   22.2153   45.1863 H   0  0  0  0  0  0  0  0  0  0  0  0
  1  2  1  0
  2  3  1  0
  3  4  1  0
  4  5  1  0
  5  6  1  0
  6  7  1  0
  1  8  1  0
  1  9  1  0
  1 10  1  0
  2 11  1  0
  2 12  1  0
  3 13  1  0
  3 14  1  0
  4 15  1  0
  4 16  1  0
  5 17  1  0
  5 18  1  0
  6 19  1  0
  6 20  1  0
  7 21  1  0
A    1
CAA
A    2
CAC
A    3
CAE
A    4
CAG
A    5
CAF
A    6
CAD
A    7
OAB
M  END
