1ZNG_HE4_A_202
     RDKit          3D

 24 23  0  0  0  0  0  0  0  0999 V2000
   46.0490   28.8460   41.4310 C   0  0  0  0  0  0  0  0  0  0  0  0
   46.1130   27.3360   41.6760 C   0  0  0  0  0  0  0  0  0  0  0  0
   47.4770   26.7660   41.2860 C   0  0  0  0  0  0  0  0  0  0  0  0
   47.3100   25.5420   40.3820 C   0  0  0  0  0  0  0  0  0  0  0  0
   48.2380   24.4040   40.8090 C   0  0  0  0  0  0  0  0  0  0  0  0
   47.7920   23.0740   40.1990 C   0  0  0  0  0  0  0  0  0  0  0  0
   47.1110   22.1880   41.2450 C   0  0  0  0  0  0  0  0  0  0  0  0
   48.0980   21.4200   41.9390 O   0  0  0  0  0  0  0  0  0  0  0  0
   46.0266   29.3734   42.3961 H   0  0  0  0  0  0  0  0  0  0  0  0
   46.9345   29.1628   40.8605 H   0  0  0  0  0  0  0  0  0  0  0  0
   45.1398   29.0867   40.8605 H   0  0  0  0  0  0  0  0  0  0  0  0
   45.9342   27.1385   42.7433 H   0  0  0  0  0  0  0  0  0  0  0  0
   45.3446   26.8513   41.0558 H   0  0  0  0  0  0  0  0  0  0  0  0
   48.0509   27.5361   40.7497 H   0  0  0  0  0  0  0  0  0  0  0  0
   48.0093   26.4626   42.1996 H   0  0  0  0  0  0  0  0  0  0  0  0
   46.2678   25.1946   40.4384 H   0  0  0  0  0  0  0  0  0  0  0  0
   47.5686   25.8329   39.3531 H   0  0  0  0  0  0  0  0  0  0  0  0
   49.2609   24.6288   40.4728 H   0  0  0  0  0  0  0  0  0  0  0  0
   48.2028   24.3159   41.9049 H   0  0  0  0  0  0  0  0  0  0  0  0
   47.0837   23.2735   39.3813 H   0  0  0  0  0  0  0  0  0  0  0  0
   48.6810   22.5477   39.8212 H   0  0  0  0  0  0  0  0  0  0  0  0
   46.5679   22.8203   41.9627 H   0  0  0  0  0  0  0  0  0  0  0  0
   46.4049   21.5089   40.7447 H   0  0  0  0  0  0  0  0  0  0  0  0
   47.9683   21.5209   42.9153 H   0  0  0  0  0  0  0  0  0  0  0  0
  1  2  1  0
  2  3  1  0
  3  4  1  0
  4  5  1  0
  5  6  1  0
  6  7  1  0
  7  8  1  0
  1  9  1  0
  1 10  1  0
  1 11  1  0
  2 12  1  0
  2 13  1  0
  3 14  1  0
  3 15  1  0
  4 16  1  0
  4 17  1  0
  5 18  1  0
  5 19  1  0
  6 20  1  0
  6 21  1  0
  7 22  1  0
  7 23  1  0
  8 24  1  0
A    1
CAA
A    2
CAC
A    3
CAE
A    4
CAG
A    5
CAH
A    6
CAF
A    7
CAD
A    8
OAB
M  END
