1ZO9_EPM_A_1470
     RDKit          3D

 67 66  0  0  0  0  0  0  0  0999 V2000
   19.8650    8.4260   26.8110 C   0  0  0  0  0  0  0  0  0  0  0  0
   19.9990    7.2230   26.5520 O   0  0  0  0  0  0  0  0  0  0  0  0
   20.8330    9.1670   26.9900 O   0  0  0  0  0  0  0  0  0  0  0  0
   18.3780    9.0110   26.8990 C   0  0  0  0  0  0  0  0  0  0  0  0
   18.0840    9.3970   28.3490 C   0  0  0  0  0  0  0  0  0  0  0  0
   18.9460   10.5360   28.8580 C   0  0  0  0  0  0  0  0  0  0  0  0
   18.5870   10.9560   30.5790 S   0  0  0  0  0  0  0  0  0  0  0  0
   19.6230    9.7540   31.4260 C   0  0  0  0  0  0  0  0  0  0  0  0
   17.4310    7.9410   26.5940 N   0  0  0  0  0  0  0  0  0  0  0  0
   16.3150    8.1740   25.9420 C   0  0  0  0  0  0  0  0  0  0  0  0
   15.9750    9.3110   25.5730 O   0  0  0  0  0  0  0  0  0  0  0  0
   15.4290    6.9590   25.5840 C   0  0  0  0  0  0  0  0  0  0  0  0
   16.2110    5.8700   24.7940 C   0  0  0  0  0  0  0  0  0  0  0  0
   16.1690    6.0310   23.2800 C   0  0  0  0  0  0  0  0  0  0  0  0
   16.9620    4.9250   22.6180 C   0  0  0  0  0  0  0  0  0  0  0  0
   16.8910    5.0990   21.1550 C   0  0  0  0  0  0  0  0  0  0  0  0
   16.8420    3.8140   20.4250 C   0  0  0  0  0  0  0  0  0  0  0  0
   18.1430    3.6500   19.7630 C   0  0  0  0  0  0  0  0  0  0  0  0
   18.3210    2.3960   18.9390 C   0  0  0  0  0  0  0  0  0  0  0  0
   19.4020    1.4760   19.3920 C   0  0  0  0  0  0  0  0  0  0  0  0
   19.7670    0.1950   18.6910 C   0  0  0  0  0  0  0  0  0  0  0  0
   20.8810   -0.4820   19.4030 C   0  0  0  0  0  0  0  0  0  0  0  0
   21.4650   -1.6140   18.5750 C   0  0  0  0  0  0  0  0  0  0  0  0
   22.9400   -1.5020   18.5820 C   0  0  0  0  0  0  0  0  0  0  0  0
   23.5750   -2.5980   17.8040 C   0  0  0  0  0  0  0  0  0  0  0  0
   25.0340   -2.5070   17.8380 C   0  0  0  0  0  0  0  0  0  0  0  0
   21.1230    9.3890   27.9102 H   0  0  0  0  0  0  0  0  0  0  0  0
   18.2886    9.8631   26.2091 H   0  0  0  0  0  0  0  0  0  0  0  0
   17.0289    9.6994   28.4218 H   0  0  0  0  0  0  0  0  0  0  0  0
   18.3096    8.5177   28.9702 H   0  0  0  0  0  0  0  0  0  0  0  0
   20.0029   10.2416   28.7793 H   0  0  0  0  0  0  0  0  0  0  0  0
   18.7276   11.4222   28.2440 H   0  0  0  0  0  0  0  0  0  0  0  0
   19.5154    9.8789   32.5136 H   0  0  0  0  0  0  0  0  0  0  0  0
   19.3133    8.7377   31.1412 H   0  0  0  0  0  0  0  0  0  0  0  0
   20.6739    9.9104   31.1412 H   0  0  0  0  0  0  0  0  0  0  0  0
   17.6439    6.9801   26.8979 H   0  0  0  0  0  0  0  0  0  0  0  0
   15.0457    6.5144   26.5143 H   0  0  0  0  0  0  0  0  0  0  0  0
   14.6102    7.3170   24.9427 H   0  0  0  0  0  0  0  0  0  0  0  0
   17.2631    5.9037   25.1134 H   0  0  0  0  0  0  0  0  0  0  0  0
   15.7219    4.9107   25.0188 H   0  0  0  0  0  0  0  0  0  0  0  0
   15.1246    5.9849   22.9379 H   0  0  0  0  0  0  0  0  0  0  0  0
   16.6089    7.0020   23.0085 H   0  0  0  0  0  0  0  0  0  0  0  0
   18.0108    4.9750   22.9457 H   0  0  0  0  0  0  0  0  0  0  0  0
   16.5448    3.9466   22.8986 H   0  0  0  0  0  0  0  0  0  0  0  0
   15.9854    5.6748   20.9134 H   0  0  0  0  0  0  0  0  0  0  0  0
   17.8052    5.6233   20.8399 H   0  0  0  0  0  0  0  0  0  0  0  0
   16.6681    2.9859   21.1279 H   0  0  0  0  0  0  0  0  0  0  0  0
   16.0230    3.8091   19.6907 H   0  0  0  0  0  0  0  0  0  0  0  0
   18.2913    4.5127   19.0969 H   0  0  0  0  0  0  0  0  0  0  0  0
   18.8789    3.5733   20.5770 H   0  0  0  0  0  0  0  0  0  0  0  0
   17.3723    1.8397   18.9601 H   0  0  0  0  0  0  0  0  0  0  0  0
   18.6156    2.7351   17.9349 H   0  0  0  0  0  0  0  0  0  0  0  0
   20.3211    2.0803   19.4061 H   0  0  0  0  0  0  0  0  0  0  0  0
   18.9676    1.0870   20.3247 H   0  0  0  0  0  0  0  0  0  0  0  0
   18.8912   -0.4703   18.6713 H   0  0  0  0  0  0  0  0  0  0  0  0
   20.0866    0.4270   17.6644 H   0  0  0  0  0  0  0  0  0  0  0  0
   21.6719    0.2538   19.6107 H   0  0  0  0  0  0  0  0  0  0  0  0
   20.4857   -0.9065   20.3376 H   0  0  0  0  0  0  0  0  0  0  0  0
   21.1661   -2.5801   19.0077 H   0  0  0  0  0  0  0  0  0  0  0  0
   21.0916   -1.5511   17.5422 H   0  0  0  0  0  0  0  0  0  0  0  0
   23.2270   -0.5369   18.1390 H   0  0  0  0  0  0  0  0  0  0  0  0
   23.2859   -1.5740   19.6237 H   0  0  0  0  0  0  0  0  0  0  0  0
   23.2675   -3.5638   18.2315 H   0  0  0  0  0  0  0  0  0  0  0  0
   23.2491   -2.5102   16.7570 H   0  0  0  0  0  0  0  0  0  0  0  0
   25.3758   -2.4857   18.8833 H   0  0  0  0  0  0  0  0  0  0  0  0
   25.4678   -3.3798   17.3281 H   0  0  0  0  0  0  0  0  0  0  0  0
   25.3560   -1.5870   17.3281 H   0  0  0  0  0  0  0  0  0  0  0  0
  1  2  2  0
  1  3  1  0
  1  4  1  0
  4  5  1  0
  4  9  1  0
  5  6  1  0
  6  7  1  0
  7  8  1  0
  9 10  1  0
 10 11  2  0
 10 12  1  0
 12 13  1  0
 13 14  1  0
 14 15  1  0
 15 16  1  0
 16 17  1  0
 17 18  1  0
 18 19  1  0
 19 20  1  0
 20 21  1  0
 21 22  1  0
 22 23  1  0
 23 24  1  0
 24 25  1  0
 25 26  1  0
  3 27  1  0
  4 28  1  0
  5 29  1  0
  5 30  1  0
  6 31  1  0
  6 32  1  0
  8 33  1  0
  8 34  1  0
  8 35  1  0
  9 36  1  0
 12 37  1  0
 12 38  1  0
 13 39  1  0
 13 40  1  0
 14 41  1  0
 14 42  1  0
 15 43  1  0
 15 44  1  0
 16 45  1  0
 16 46  1  0
 17 47  1  0
 17 48  1  0
 18 49  1  0
 18 50  1  0
 19 51  1  0
 19 52  1  0
 20 53  1  0
 20 54  1  0
 21 55  1  0
 21 56  1  0
 22 57  1  0
 22 58  1  0
 23 59  1  0
 23 60  1  0
 24 61  1  0
 24 62  1  0
 25 63  1  0
 25 64  1  0
 26 65  1  0
 26 66  1  0
 26 67  1  0
A    1
C1
A    2
O1
A    3
O2
A    4
C2
A    5
C3
A    6
C4
A    7
S1
A    8
C5
A    9
N
A   10
C6
A   11
O3
A   12
C7
A   13
C8
A   14
C9
A   15
C10
A   16
C11
A   17
C12
A   18
C13
A   19
C14
A   20
C15
A   21
C16
A   22
C17
A   23
C18
A   24
C19
A   25
C20
A   26
C21
M  END
