1FWU_MAG_A_2002
     RDKit          3D

 28 28  0  0  0  0  0  0  0  0999 V2000
   -1.3110    1.4150    7.4750 C   0  0  0  0  0  0  0  0  0  0  0  0
   -1.8380    1.8570    8.8690 C   0  0  0  0  0  0  0  0  0  0  0  0
   -1.8480    3.4050    8.9600 C   0  0  0  0  0  0  0  0  0  0  0  0
   -0.3550    3.8850    8.7740 C   0  0  0  0  0  0  0  0  0  0  0  0
    0.1320    3.4030    7.3480 C   0  0  0  0  0  0  0  0  0  0  0  0
    1.5780    3.7970    7.0740 C   0  0  0  0  0  0  0  0  0  0  0  0
   -3.1530    0.2000    8.3020 C   0  0  0  0  0  0  0  0  0  0  0  0
   -3.9690    0.2460    7.0460 C   0  0  0  0  0  0  0  0  0  0  0  0
   -3.1860    1.3250    9.0670 N   0  0  0  0  0  0  0  0  0  0  0  0
   -1.2810    0.0650    7.3590 O   0  0  0  0  0  0  0  0  0  0  0  0
    0.0510    1.9570    7.2490 O   0  0  0  0  0  0  0  0  0  0  0  0
    2.0250    3.3630    5.7800 O   0  0  0  0  0  0  0  0  0  0  0  0
   -2.4950   -0.8420    8.5840 O   0  0  0  0  0  0  0  0  0  0  0  0
   -2.0023    1.8131    6.7177 H   0  0  0  0  0  0  0  0  0  0  0  0
   -1.1779    1.4645    9.6565 H   0  0  0  0  0  0  0  0  0  0  0  0
   -2.4825    3.8265    8.1664 H   0  0  0  0  0  0  0  0  0  0  0  0
   -2.2518    3.7400    9.9268 H   0  0  0  0  0  0  0  0  0  0  0  0
   -0.3038    4.9821    8.8361 H   0  0  0  0  0  0  0  0  0  0  0  0
    0.2859    3.4635    9.5624 H   0  0  0  0  0  0  0  0  0  0  0  0
   -0.5264    3.8897    6.6134 H   0  0  0  0  0  0  0  0  0  0  0  0
    1.6626    4.8924    7.1285 H   0  0  0  0  0  0  0  0  0  0  0  0
    2.2094    3.3073    7.8300 H   0  0  0  0  0  0  0  0  0  0  0  0
   -5.0365    0.3062    7.3043 H   0  0  0  0  0  0  0  0  0  0  0  0
   -3.6842    1.1295    6.4558 H   0  0  0  0  0  0  0  0  0  0  0  0
   -3.7853   -0.6639    6.4558 H   0  0  0  0  0  0  0  0  0  0  0  0
   -3.9573    1.7025    9.6358 H   0  0  0  0  0  0  0  0  0  0  0  0
   -1.2719   -0.3436    8.2607 H   0  0  0  0  0  0  0  0  0  0  0  0
    2.7311    2.6775    5.8876 H   0  0  0  0  0  0  0  0  0  0  0  0
  1  2  1  0
  1 10  1  0
  1 11  1  0
  2  3  1  0
  2  9  1  0
  3  4  1  0
  4  5  1  0
  5  6  1  0
  5 11  1  0
  6 12  1  0
  7  8  1  0
  7  9  1  0
  7 13  2  0
  1 14  1  0
  2 15  1  0
  3 16  1  0
  3 17  1  0
  4 18  1  0
  4 19  1  0
  5 20  1  0
  6 21  1  0
  6 22  1  0
  8 23  1  0
  8 24  1  0
  8 25  1  0
  9 26  1  0
 10 27  1  0
 12 28  1  0
A    1
C1
A    2
C2
A    3
C3
A    4
C4
A    5
C5
A    6
C6
A    7
C7
A    8
C8
A    9
N2
A   10
O1
A   11
O5
A   12
O6
A   13
O7
M  END
