1ZS0_EIN_A_994
     RDKit          3D

 48 49  0  0  0  0  0  0  0  0999 V2000
    9.3810   20.2040   12.2520 C   0  0  0  0  0  0  0  0  0  0  0  0
    9.8320   18.8310   12.5710 C   0  0  0  0  0  0  0  0  0  0  0  0
    9.1750   17.6940   11.9930 C   0  0  0  0  0  0  0  0  0  0  0  0
    8.0190   17.8930   11.0560 C   0  0  0  0  0  0  0  0  0  0  0  0
    7.5750   19.2460   10.7490 C   0  0  0  0  0  0  0  0  0  0  0  0
    8.2470   20.3860   11.3380 C   0  0  0  0  0  0  0  0  0  0  0  0
    7.3090   16.7590   10.4310 O   0  0  0  0  0  0  0  0  0  0  0  0
    7.9010   15.4780   10.7120 C   0  0  0  0  0  0  0  0  0  0  0  0
   10.0730   21.3840   12.8490 C   0  0  0  0  0  0  0  0  0  0  0  0
   11.5340   21.3730   13.0190 C   0  0  0  0  0  0  0  0  0  0  0  0
   12.2160   22.4970   13.5860 C   0  0  0  0  0  0  0  0  0  0  0  0
   11.4830   23.6710   13.9950 C   0  0  0  0  0  0  0  0  0  0  0  0
   10.0240   23.7240   13.8420 C   0  0  0  0  0  0  0  0  0  0  0  0
    9.3220   22.5910   13.2700 C   0  0  0  0  0  0  0  0  0  0  0  0
   12.3610   25.0310   14.6790 S   0  0  0  0  0  0  0  0  0  0  0  0
   11.7340   26.3390   14.2180 O   0  0  0  0  0  0  0  0  0  0  0  0
   13.8480   24.9630   14.2270 O   0  0  0  0  0  0  0  0  0  0  0  0
   12.2630   24.9070   16.3990 N   0  0  0  0  0  0  0  0  0  0  0  0
   11.2240   25.4890   17.2430 C   0  0  0  0  0  0  0  0  0  0  0  0
   11.8600   26.2510   18.4860 C   0  0  0  0  0  0  0  0  0  0  0  0
   10.8970   27.2370   19.2020 C   0  0  0  0  0  0  0  0  0  0  0  0
   12.9090   27.2370   18.0080 C   0  0  0  0  0  0  0  0  0  0  0  0
   10.1710   24.1750   17.8760 P   0  0  0  0  0  0  0  0  0  0  0  0
    8.5150   24.5160   17.7600 O   0  0  0  0  0  0  0  0  0  0  0  0
   10.3310   23.7220   19.5260 O   0  0  0  0  0  0  0  0  0  0  0  0
   10.2490   22.7860   17.0030 O   0  0  0  0  0  0  0  0  0  0  0  0
   10.6784   18.6809   13.2573 H   0  0  0  0  0  0  0  0  0  0  0  0
    9.5179   16.6775   12.2361 H   0  0  0  0  0  0  0  0  0  0  0  0
    6.7261   19.4026   10.0672 H   0  0  0  0  0  0  0  0  0  0  0  0
    7.9026   21.4025   11.0969 H   0  0  0  0  0  0  0  0  0  0  0  0
    7.9669   15.3354   11.8007 H   0  0  0  0  0  0  0  0  0  0  0  0
    7.2790   14.6829   10.2750 H   0  0  0  0  0  0  0  0  0  0  0  0
    8.9096   15.4364   10.2750 H   0  0  0  0  0  0  0  0  0  0  0  0
   12.1102   20.4897   12.7064 H   0  0  0  0  0  0  0  0  0  0  0  0
   13.3084   22.4654   13.7110 H   0  0  0  0  0  0  0  0  0  0  0  0
    9.4665   24.6176   14.1592 H   0  0  0  0  0  0  0  0  0  0  0  0
    8.2294   22.6273   13.1482 H   0  0  0  0  0  0  0  0  0  0  0  0
   12.2361   23.8963   16.5958 H   0  0  0  0  0  0  0  0  0  0  0  0
   10.6473   26.2014   16.6348 H   0  0  0  0  0  0  0  0  0  0  0  0
   12.1952   25.4284   19.1348 H   0  0  0  0  0  0  0  0  0  0  0  0
   11.0037   27.1277   20.2913 H   0  0  0  0  0  0  0  0  0  0  0  0
   11.1452   28.2683   18.9109 H   0  0  0  0  0  0  0  0  0  0  0  0
    9.8601   27.0132   18.9109 H   0  0  0  0  0  0  0  0  0  0  0  0
   13.4007   27.6991   18.8767 H   0  0  0  0  0  0  0  0  0  0  0  0
   13.6586   26.7090   17.4003 H   0  0  0  0  0  0  0  0  0  0  0  0
   12.4284   28.0179   17.4003 H   0  0  0  0  0  0  0  0  0  0  0  0
   10.0633   24.4800   20.1038 H   0  0  0  0  0  0  0  0  0  0  0  0
   10.2925   22.0116   17.6182 H   0  0  0  0  0  0  0  0  0  0  0  0
  1  2  2  0
  1  6  1  0
  1  9  1  0
  2  3  1  0
  3  4  2  0
  4  5  1  0
  4  7  1  0
  5  6  2  0
  7  8  1  0
  9 10  2  0
  9 14  1  0
 10 11  1  0
 11 12  2  0
 12 13  1  0
 12 15  1  0
 13 14  2  0
 15 16  2  0
 15 17  2  0
 15 18  1  0
 18 19  1  0
 19 20  1  0
 19 23  1  0
 20 21  1  0
 20 22  1  0
 23 24  2  0
 23 25  1  0
 23 26  1  0
  2 27  1  0
  3 28  1  0
  5 29  1  0
  6 30  1  0
  8 31  1  0
  8 32  1  0
  8 33  1  0
 10 34  1  0
 11 35  1  0
 13 36  1  0
 14 37  1  0
 18 38  1  0
 19 39  1  0
 20 40  1  0
 21 41  1  0
 21 42  1  0
 21 43  1  0
 22 44  1  0
 22 45  1  0
 22 46  1  0
 25 47  1  0
 26 48  1  0
A    1
C14
A    2
C15
A    3
C16
A    4
C17
A    5
C1
A    6
C2
A    7
O1
A    8
C3
A    9
C4
A   10
C5
A   11
C6
A   12
C7
A   13
C8
A   14
C9
A   15
S1
A   16
O2
A   17
O3
A   18
N1
A   19
C10
A   20
C11
A   21
C12
A   22
C13
A   23
P1
A   24
O4
A   25
O5
A   26
O6
M  END
