1ZSK_421_A_301
     RDKit          3D

 47 49  0  0  0  0  0  0  0  0999 V2000
    9.7320   72.7990   82.6140 C   0  0  0  0  0  0  0  0  0  0  0  0
   11.1100   72.3490   82.8610 C   0  0  0  0  0  0  0  0  0  0  0  0
   11.9540   72.0900   81.7980 C   0  0  0  0  0  0  0  0  0  0  0  0
   11.5260   72.2530   80.3580 C   0  0  0  0  0  0  0  0  0  0  0  0
   10.2220   72.6830   80.0520 C   0  0  0  0  0  0  0  0  0  0  0  0
    9.2470   72.9870   81.1310 C   0  0  0  0  0  0  0  0  0  0  0  0
    7.8560   73.4630   80.8690 C   0  0  0  0  0  0  0  0  0  0  0  0
    7.0220   73.7000   82.0160 C   0  0  0  0  0  0  0  0  0  0  0  0
    7.4960   73.5090   83.4260 C   0  0  0  0  0  0  0  0  0  0  0  0
    8.7900   73.0780   83.7060 C   0  0  0  0  0  0  0  0  0  0  0  0
   12.4720   71.9520   79.2610 C   0  0  0  0  0  0  0  0  0  0  0  0
   13.8610   71.9740   79.4640 N   0  0  0  0  0  0  0  0  0  0  0  0
   12.0270   71.6600   78.0770 N   0  0  0  0  0  0  0  0  0  0  0  0
    7.4800   73.6280   79.4570 N   0  0  0  0  0  0  0  0  0  0  0  0
    6.3390   73.2250   78.8350 C   0  0  0  0  0  0  0  0  0  0  0  0
    5.4200   72.1390   79.4300 C   0  0  0  0  0  0  0  0  0  0  0  0
    6.0410   73.7710   77.7540 O   0  0  0  0  0  0  0  0  0  0  0  0
    5.8680   70.7030   79.4920 C   0  0  0  0  0  0  0  0  0  0  0  0
    4.9820   69.6850   80.0650 C   0  0  0  0  0  0  0  0  0  0  0  0
    3.6790   70.0570   80.5490 C   0  0  0  0  0  0  0  0  0  0  0  0
    3.2000   71.4370   80.5150 C   0  0  0  0  0  0  0  0  0  0  0  0
    4.0490   72.5120   79.9440 C   0  0  0  0  0  0  0  0  0  0  0  0
    3.4900   74.0240   79.9250 C   0  0  0  0  0  0  0  0  0  0  0  0
    1.9400   71.6970   81.0000 O   0  0  0  0  0  0  0  0  0  0  0  0
    6.5320   73.7980   84.4960 C   0  0  0  0  0  0  0  0  0  0  0  0
    5.3820   74.1550   84.2880 O   0  0  0  0  0  0  0  0  0  0  0  0
    7.1140   73.6190   85.7100 O   0  0  0  0  0  0  0  0  0  0  0  0
    6.2920   73.2420   86.8270 C   0  0  0  0  0  0  0  0  0  0  0  0
   11.4691   72.2185   83.8925 H   0  0  0  0  0  0  0  0  0  0  0  0
   12.9792   71.7514   82.0086 H   0  0  0  0  0  0  0  0  0  0  0  0
    9.9203   72.7956   79.0002 H   0  0  0  0  0  0  0  0  0  0  0  0
    5.9879   74.0372   81.8516 H   0  0  0  0  0  0  0  0  0  0  0  0
    9.1086   72.9457   84.7505 H   0  0  0  0  0  0  0  0  0  0  0  0
   14.2416   71.9800   80.4211 H   0  0  0  0  0  0  0  0  0  0  0  0
   14.4995   71.9841   78.6558 H   0  0  0  0  0  0  0  0  0  0  0  0
   12.6882   71.4509   77.3154 H   0  0  0  0  0  0  0  0  0  0  0  0
    8.1689   74.1106   78.8625 H   0  0  0  0  0  0  0  0  0  0  0  0
    6.8586   70.4180   79.1080 H   0  0  0  0  0  0  0  0  0  0  0  0
    5.3131   68.6377   80.1248 H   0  0  0  0  0  0  0  0  0  0  0  0
    3.0213   69.2761   80.9584 H   0  0  0  0  0  0  0  0  0  0  0  0
    3.3586   74.3794   80.9577 H   0  0  0  0  0  0  0  0  0  0  0  0
    4.2074   74.6736   79.4022 H   0  0  0  0  0  0  0  0  0  0  0  0
    2.5226   74.0507   79.4022 H   0  0  0  0  0  0  0  0  0  0  0  0
    1.7826   71.7295   81.9769 H   0  0  0  0  0  0  0  0  0  0  0  0
    6.8149   73.4818   87.7646 H   0  0  0  0  0  0  0  0  0  0  0  0
    5.3415   73.7942   86.7857 H   0  0  0  0  0  0  0  0  0  0  0  0
    6.0904   72.1614   86.7857 H   0  0  0  0  0  0  0  0  0  0  0  0
  1  2  2  0
  1  6  1  0
  1 10  1  0
  2  3  1  0
  3  4  2  0
  4  5  1  0
  4 11  1  0
  5  6  2  0
  6  7  1  0
  7  8  2  0
  7 14  1  0
  8  9  1  0
  9 10  2  0
  9 25  1  0
 11 12  1  0
 11 13  2  3
 14 15  1  0
 15 16  1  0
 15 17  2  0
 16 18  2  0
 16 22  1  0
 18 19  1  0
 19 20  2  0
 20 21  1  0
 21 22  2  0
 21 24  1  0
 22 23  1  0
 25 26  2  0
 25 27  1  0
 27 28  1  0
  2 29  1  0
  3 30  1  0
  5 31  1  0
  8 32  1  0
 10 33  1  0
 12 34  1  0
 12 35  1  0
 13 36  1  0
 14 37  1  0
 18 38  1  0
 19 39  1  0
 20 40  1  0
 23 41  1  0
 23 42  1  0
 23 43  1  0
 24 44  1  0
 28 45  1  0
 28 46  1  0
 28 47  1  0
A    1
C1
A    2
C2
A    3
C3
A    4
C4
A    5
C5
A    6
C6
A    7
C7
A    8
C8
A    9
C9
A   10
C10
A   11
C11
A   12
N12
A   13
N13
A   14
N14
A   15
C15
A   16
C16
A   17
O17
A   18
C18
A   19
C19
A   20
C20
A   21
C21
A   22
C22
A   23
C23
A   24
O24
A   25
C25
A   26
O26
A   27
O27
A   28
C28
M  END
