1AE4_TOL_A_600
     RDKit          3D

 38 39  0  0  0  0  0  0  0  0999 V2000
  -34.1780   28.5420   -1.3880 C   0  0  0  0  0  0  0  0  0  0  0  0
  -35.2350   27.7150   -1.6060 F   0  0  0  0  0  0  0  0  0  0  0  0
  -33.1540   27.7960   -0.9010 F   0  0  0  0  0  0  0  0  0  0  0  0
  -33.7800   29.0170   -2.5980 F   0  0  0  0  0  0  0  0  0  0  0  0
  -34.5640   29.6790   -0.4170 C   0  0  0  0  0  0  0  0  0  0  0  0
  -34.2490   31.0460   -0.6350 C   0  0  0  0  0  0  0  0  0  0  0  0
  -33.5870   31.3980   -1.7210 O   0  0  0  0  0  0  0  0  0  0  0  0
  -32.9060   32.6340   -1.5780 C   0  0  0  0  0  0  0  0  0  0  0  0
  -34.6460   32.0090    0.3200 C   0  0  0  0  0  0  0  0  0  0  0  0
  -35.3440   31.6300    1.4710 C   0  0  0  0  0  0  0  0  0  0  0  0
  -35.6570   30.2740    1.6920 C   0  0  0  0  0  0  0  0  0  0  0  0
  -36.3630   29.9050    2.8610 C   0  0  0  0  0  0  0  0  0  0  0  0
  -36.6760   28.5530    3.0800 C   0  0  0  0  0  0  0  0  0  0  0  0
  -36.2930   27.5800    2.1540 C   0  0  0  0  0  0  0  0  0  0  0  0
  -35.5950   27.9510    0.9980 C   0  0  0  0  0  0  0  0  0  0  0  0
  -35.2700   29.2980    0.7540 C   0  0  0  0  0  0  0  0  0  0  0  0
  -36.8140   30.8890    3.9140 C   0  0  0  0  0  0  0  0  0  0  0  0
  -38.4300   31.4580    3.8980 S   0  0  0  0  0  0  0  0  0  0  0  0
  -35.9550   31.2920    4.8510 N   0  0  0  0  0  0  0  0  0  0  0  0
  -34.6180   30.7120    4.9060 C   0  0  0  0  0  0  0  0  0  0  0  0
  -36.3220   32.2940    5.8470 C   0  0  0  0  0  0  0  0  0  0  0  0
  -36.3930   33.7030    5.2310 C   0  0  0  0  0  0  0  0  0  0  0  0
  -36.8650   34.6380    5.8230 O   0  0  0  0  0  0  0  0  0  0  0  0
  -35.8890   33.8170    3.9980 O   0  0  0  0  0  0  0  0  0  0  0  0
  -32.7804   32.8619   -0.5092 H   0  0  0  0  0  0  0  0  0  0  0  0
  -31.9181   32.5659   -2.0569 H   0  0  0  0  0  0  0  0  0  0  0  0
  -33.4914   33.4327   -2.0569 H   0  0  0  0  0  0  0  0  0  0  0  0
  -34.4031   33.0693    0.1561 H   0  0  0  0  0  0  0  0  0  0  0  0
  -35.6489   32.3910    2.2044 H   0  0  0  0  0  0  0  0  0  0  0  0
  -37.2260   28.2590    3.9861 H   0  0  0  0  0  0  0  0  0  0  0  0
  -36.5395   26.5230    2.3326 H   0  0  0  0  0  0  0  0  0  0  0  0
  -35.2973   27.1801    0.2721 H   0  0  0  0  0  0  0  0  0  0  0  0
  -34.3177   30.5817    5.9562 H   0  0  0  0  0  0  0  0  0  0  0  0
  -34.6214   29.7344    4.4017 H   0  0  0  0  0  0  0  0  0  0  0  0
  -33.9065   31.3824    4.4017 H   0  0  0  0  0  0  0  0  0  0  0  0
  -37.3060   32.0373    6.2663 H   0  0  0  0  0  0  0  0  0  0  0  0
  -35.5509   32.2990    6.6315 H   0  0  0  0  0  0  0  0  0  0  0  0
  -34.9311   34.0337    3.8729 H   0  0  0  0  0  0  0  0  0  0  0  0
  1  2  1  0
  1  3  1  0
  1  4  1  0
  1  5  1  0
  5  6  2  0
  5 16  1  0
  6  7  1  0
  6  9  1  0
  7  8  1  0
  9 10  2  0
 10 11  1  0
 11 12  1  0
 11 16  2  0
 12 13  2  0
 12 17  1  0
 13 14  1  0
 14 15  2  0
 15 16  1  0
 17 18  2  0
 17 19  1  0
 19 20  1  0
 19 21  1  0
 21 22  1  0
 22 23  2  0
 22 24  1  0
  8 25  1  0
  8 26  1  0
  8 27  1  0
  9 28  1  0
 10 29  1  0
 13 30  1  0
 14 31  1  0
 15 32  1  0
 20 33  1  0
 20 34  1  0
 20 35  1  0
 21 36  1  0
 21 37  1  0
 24 38  1  0
A    1
C1
A    2
F1
A    3
F2
A    4
F3
A    5
C2
A    6
C3
A    7
O1
A    8
C4
A    9
C5
A   10
C6
A   11
C7
A   12
C8
A   13
C9
A   14
C10
A   15
C11
A   16
C12
A   17
C13
A   18
S1
A   19
N1
A   20
C14
A   21
C15
A   22
C16
A   23
O2
A   24
O3
M  END
