1ZUC_T98_B_202
     RDKit          3D

 36 38  0  0  0  0  0  0  0  0999 V2000
   13.9170   16.3870   23.1170 C   0  0  0  0  0  0  0  0  0  0  0  0
   14.1570   14.9140   23.5410 C   0  0  0  0  0  0  0  0  0  0  0  0
   14.4320   14.8910   25.0270 C   0  0  0  0  0  0  0  0  0  0  0  0
   13.4220   15.0410   26.0090 C   0  0  0  0  0  0  0  0  0  0  0  0
   13.7220   15.0260   27.3760 C   0  0  0  0  0  0  0  0  0  0  0  0
   15.0530   14.9410   27.7950 C   0  0  0  0  0  0  0  0  0  0  0  0
   16.0760   14.8050   26.8570 C   0  0  0  0  0  0  0  0  0  0  0  0
   15.7540   14.7770   25.4950 C   0  0  0  0  0  0  0  0  0  0  0  0
   16.8000   14.6390   24.6000 N   0  0  0  0  0  0  0  0  0  0  0  0
   16.5790   14.6080   23.2480 C   0  0  0  0  0  0  0  0  0  0  0  0
   17.7710   14.4990   22.1450 S   0  0  0  0  0  0  0  0  0  0  0  0
   15.3490   14.6660   22.7250 O   0  0  0  0  0  0  0  0  0  0  0  0
   12.6120   15.2640   28.2980 C   0  0  0  0  0  0  0  0  0  0  0  0
   11.2380   14.9770   28.1640 C   0  0  0  0  0  0  0  0  0  0  0  0
   10.5960   15.5690   29.2830 C   0  0  0  0  0  0  0  0  0  0  0  0
   11.5500   16.1990   30.0470 C   0  0  0  0  0  0  0  0  0  0  0  0
   12.7780   16.0510   29.4440 N   0  0  0  0  0  0  0  0  0  0  0  0
   14.0210   16.6250   30.0040 C   0  0  0  0  0  0  0  0  0  0  0  0
   11.3960   16.9050   31.2610 C   0  0  0  0  0  0  0  0  0  0  0  0
   11.3320   17.5040   32.2390 N   0  0  0  0  0  0  0  0  0  0  0  0
   13.0610   13.9700   23.0370 C   0  0  0  0  0  0  0  0  0  0  0  0
   13.8147   17.0148   24.0144 H   0  0  0  0  0  0  0  0  0  0  0  0
   14.7695   16.7397   22.5180 H   0  0  0  0  0  0  0  0  0  0  0  0
   12.9966   16.4508   22.5180 H   0  0  0  0  0  0  0  0  0  0  0  0
   12.3776   15.1723   25.6897 H   0  0  0  0  0  0  0  0  0  0  0  0
   15.2941   14.9815   28.8675 H   0  0  0  0  0  0  0  0  0  0  0  0
   17.1231   14.7208   27.1834 H   0  0  0  0  0  0  0  0  0  0  0  0
   17.7629   14.5580   24.9566 H   0  0  0  0  0  0  0  0  0  0  0  0
   10.7591   14.4077   27.3537 H   0  0  0  0  0  0  0  0  0  0  0  0
    9.5187   15.5304   29.5018 H   0  0  0  0  0  0  0  0  0  0  0  0
   13.9727   16.6027   31.1027 H   0  0  0  0  0  0  0  0  0  0  0  0
   14.8839   16.0342   29.6629 H   0  0  0  0  0  0  0  0  0  0  0  0
   14.1308   17.6650   29.6629 H   0  0  0  0  0  0  0  0  0  0  0  0
   12.5401   13.5213   23.8957 H   0  0  0  0  0  0  0  0  0  0  0  0
   12.3418   14.5359   22.4267 H   0  0  0  0  0  0  0  0  0  0  0  0
   13.5141   13.1749   22.4267 H   0  0  0  0  0  0  0  0  0  0  0  0
  1  2  1  0
  2  3  1  0
  2 12  1  0
  2 21  1  0
  3  4  1  0
  3  8  2  0
  4  5  2  0
  5  6  1  0
  5 13  1  0
  6  7  2  0
  7  8  1  0
  8  9  1  0
  9 10  1  0
 10 11  2  0
 10 12  1  0
 13 14  2  0
 13 17  1  0
 14 15  1  0
 15 16  2  0
 16 17  1  0
 16 19  1  0
 17 18  1  0
 19 20  3  0
  1 22  1  0
  1 23  1  0
  1 24  1  0
  4 25  1  0
  6 26  1  0
  7 27  1  0
  9 28  1  0
 14 29  1  0
 15 30  1  0
 18 31  1  0
 18 32  1  0
 18 33  1  0
 21 34  1  0
 21 35  1  0
 21 36  1  0
A    1
C1
A    2
C2
A    3
C3
A    4
C4
A    5
C5
A    6
C6
A    7
C7
A    8
C8
A    9
N1
A   10
C9
A   11
S1
A   12
O1
A   13
C10
A   14
C11
A   15
C12
A   16
C13
A   17
N2
A   18
C14
A   19
C15
A   20
N3
A   21
C16
M  END
