1ZVX_FIN_A_994
     RDKit          3D

 48 49  0  0  0  0  0  0  0  0999 V2000
   -1.1900   22.3760    5.5780 C   0  0  0  0  0  0  0  0  0  0  0  0
   -0.2200   21.2840    5.5370 C   0  0  0  0  0  0  0  0  0  0  0  0
    0.1980   20.7060    4.2360 C   0  0  0  0  0  0  0  0  0  0  0  0
   -0.3690   21.2300    2.9850 C   0  0  0  0  0  0  0  0  0  0  0  0
   -1.3300   22.3140    3.0300 C   0  0  0  0  0  0  0  0  0  0  0  0
   -1.7470   22.8920    4.3240 C   0  0  0  0  0  0  0  0  0  0  0  0
    0.0160   20.6800    1.6880 O   0  0  0  0  0  0  0  0  0  0  0  0
    0.6930   19.4200    1.5690 C   0  0  0  0  0  0  0  0  0  0  0  0
   -1.6310   22.9410    6.8970 C   0  0  0  0  0  0  0  0  0  0  0  0
   -0.8140   22.7560    8.1060 C   0  0  0  0  0  0  0  0  0  0  0  0
   -1.2770   23.2820    9.3780 C   0  0  0  0  0  0  0  0  0  0  0  0
   -2.5740   24.0070    9.4550 C   0  0  0  0  0  0  0  0  0  0  0  0
   -3.3680   24.2050    8.2630 C   0  0  0  0  0  0  0  0  0  0  0  0
   -2.9180   23.6810    6.9950 C   0  0  0  0  0  0  0  0  0  0  0  0
   -3.1450   24.6220   11.0000 S   0  0  0  0  0  0  0  0  0  0  0  0
   -4.5850   24.6930   10.8850 O   0  0  0  0  0  0  0  0  0  0  0  0
   -2.6490   23.6950   11.9740 O   0  0  0  0  0  0  0  0  0  0  0  0
   -2.6120   26.1290   11.3960 N   0  0  0  0  0  0  0  0  0  0  0  0
   -3.1340   27.2710   10.8750 C   0  0  0  0  0  0  0  0  0  0  0  0
   -3.7190   28.1300   12.0500 C   0  0  0  0  0  0  0  0  0  0  0  0
   -4.9370   27.5370   12.6770 C   0  0  0  0  0  0  0  0  0  0  0  0
   -2.7510   28.4510   13.2100 C   0  0  0  0  0  0  0  0  0  0  0  0
   -1.8220   28.0970   10.0800 P   0  0  0  0  0  0  0  0  0  0  0  0
   -2.1310   29.5680    9.9040 O   0  0  0  0  0  0  0  0  0  0  0  0
   -0.5650   27.9580   10.8700 O   0  0  0  0  0  0  0  0  0  0  0  0
   -1.6540   27.4670    8.8220 O   0  0  0  0  0  0  0  0  0  0  0  0
    0.2015   20.8894    6.4733 H   0  0  0  0  0  0  0  0  0  0  0  0
    0.9312   19.8865    4.2076 H   0  0  0  0  0  0  0  0  0  0  0  0
   -1.7518   22.7091    2.0941 H   0  0  0  0  0  0  0  0  0  0  0  0
   -2.4786   23.7131    4.3467 H   0  0  0  0  0  0  0  0  0  0  0  0
    0.9066   19.0224    2.5721 H   0  0  0  0  0  0  0  0  0  0  0  0
    0.0544   18.7109    1.0218 H   0  0  0  0  0  0  0  0  0  0  0  0
    1.6368   19.5611    1.0218 H   0  0  0  0  0  0  0  0  0  0  0  0
    0.1451   22.2207    8.0469 H   0  0  0  0  0  0  0  0  0  0  0  0
   -0.6690   23.1445   10.2843 H   0  0  0  0  0  0  0  0  0  0  0  0
   -4.3179   24.7566    8.3223 H   0  0  0  0  0  0  0  0  0  0  0  0
   -3.5316   23.8301    6.0943 H   0  0  0  0  0  0  0  0  0  0  0  0
   -2.7249   26.2082   12.4167 H   0  0  0  0  0  0  0  0  0  0  0  0
   -3.9451   27.0782   10.1574 H   0  0  0  0  0  0  0  0  0  0  0  0
   -3.9515   29.0630   11.5158 H   0  0  0  0  0  0  0  0  0  0  0  0
   -4.8445   27.5820   13.7722 H   0  0  0  0  0  0  0  0  0  0  0  0
   -5.8252   28.1035   12.3604 H   0  0  0  0  0  0  0  0  0  0  0  0
   -5.0389   26.4885   12.3604 H   0  0  0  0  0  0  0  0  0  0  0  0
   -3.2605   28.2820   14.1701 H   0  0  0  0  0  0  0  0  0  0  0  0
   -1.8689   27.7973   13.1430 H   0  0  0  0  0  0  0  0  0  0  0  0
   -2.4343   29.5023   13.1430 H   0  0  0  0  0  0  0  0  0  0  0  0
   -2.2207   29.9950   10.7927 H   0  0  0  0  0  0  0  0  0  0  0  0
   -1.4014   26.5196    8.9585 H   0  0  0  0  0  0  0  0  0  0  0  0
  1  2  2  0
  1  6  1  0
  1  9  1  0
  2  3  1  0
  3  4  2  0
  4  5  1  0
  4  7  1  0
  5  6  2  0
  7  8  1  0
  9 10  2  0
  9 14  1  0
 10 11  1  0
 11 12  2  0
 12 13  1  0
 12 15  1  0
 13 14  2  0
 15 16  2  0
 15 17  2  0
 15 18  1  0
 18 19  1  0
 19 20  1  0
 19 23  1  0
 20 21  1  0
 20 22  1  0
 23 24  1  0
 23 25  2  0
 23 26  1  0
  2 27  1  0
  3 28  1  0
  5 29  1  0
  6 30  1  0
  8 31  1  0
  8 32  1  0
  8 33  1  0
 10 34  1  0
 11 35  1  0
 13 36  1  0
 14 37  1  0
 18 38  1  0
 19 39  1  0
 20 40  1  0
 21 41  1  0
 21 42  1  0
 21 43  1  0
 22 44  1  0
 22 45  1  0
 22 46  1  0
 24 47  1  0
 26 48  1  0
A    1
C14
A    2
C15
A    3
C16
A    4
C17
A    5
C1
A    6
C2
A    7
O1
A    8
C3
A    9
C4
A   10
C5
A   11
C6
A   12
C7
A   13
C8
A   14
C9
A   15
S1
A   16
O2
A   17
O3
A   18
N1
A   19
C10
A   20
C11
A   21
C12
A   22
C13
A   23
P1
A   24
O4
A   25
O5
A   26
O6
M  END
