1ZXC_IH6_A_478
     RDKit          3D

 48 49  0  0  0  0  0  0  0  0999 V2000
   -2.0730    9.4130  119.8650 C   0  0  0  0  0  0  0  0  0  0  0  0
   -2.2670    9.0230  118.4700 C   0  0  0  0  0  0  0  0  0  0  0  0
   -2.3500    8.6810  117.3190 C   0  0  0  0  0  0  0  0  0  0  0  0
   -2.4220    8.3100  115.8970 C   0  0  0  0  0  0  0  0  0  0  0  0
   -2.1250    9.4240  115.0330 O   0  0  0  0  0  0  0  0  0  0  0  0
   -2.9450   10.5160  114.8820 C   0  0  0  0  0  0  0  0  0  0  0  0
   -4.2890   10.3680  115.2640 C   0  0  0  0  0  0  0  0  0  0  0  0
   -5.1850   11.4320  115.1670 C   0  0  0  0  0  0  0  0  0  0  0  0
   -4.7310   12.6350  114.6410 C   0  0  0  0  0  0  0  0  0  0  0  0
   -3.3920   12.8190  114.2720 C   0  0  0  0  0  0  0  0  0  0  0  0
   -2.5030   11.7470  114.3770 C   0  0  0  0  0  0  0  0  0  0  0  0
   -5.8070   14.0280  114.5540 S   0  0  0  0  0  0  0  0  0  0  0  0
   -4.9460   15.1790  114.5730 O   0  0  0  0  0  0  0  0  0  0  0  0
   -6.6660   13.8100  115.7130 O   0  0  0  0  0  0  0  0  0  0  0  0
   -6.8700   14.1090  113.1720 N   0  0  0  0  0  0  0  0  0  0  0  0
   -7.9780   13.0970  113.0900 C   0  0  0  0  0  0  0  0  0  0  0  0
   -9.1880   13.6760  112.3470 C   0  0  0  0  0  0  0  0  0  0  0  0
   -8.7490   14.2060  110.6630 S   0  0  0  0  0  0  0  0  0  0  0  0
   -7.3930   15.3960  111.0520 C   0  0  0  0  0  0  0  0  0  0  0  0
   -6.2940   14.6780  111.8940 C   0  0  0  0  0  0  0  0  0  0  0  0
   -5.5190   13.6030  111.1310 C   0  0  0  0  0  0  0  0  0  0  0  0
   -5.9900   12.5150  110.8490 O   0  0  0  0  0  0  0  0  0  0  0  0
   -4.2430   13.9760  110.7830 N   0  0  0  0  0  0  0  0  0  0  0  0
   -3.5240   13.0310  110.0660 O   0  0  0  0  0  0  0  0  0  0  0  0
   -8.0160   16.6260  111.7470 C   0  0  0  0  0  0  0  0  0  0  0  0
   -6.7780   15.8940  109.7250 C   0  0  0  0  0  0  0  0  0  0  0  0
   -2.4652    8.6245  120.5241 H   0  0  0  0  0  0  0  0  0  0  0  0
   -0.9997    9.5540  120.0604 H   0  0  0  0  0  0  0  0  0  0  0  0
   -2.6080   10.3540  120.0604 H   0  0  0  0  0  0  0  0  0  0  0  0
   -1.6965    7.5064  115.7024 H   0  0  0  0  0  0  0  0  0  0  0  0
   -3.4491    7.9790  115.6838 H   0  0  0  0  0  0  0  0  0  0  0  0
   -4.6398    9.3977  115.6455 H   0  0  0  0  0  0  0  0  0  0  0  0
   -6.2277   11.3213  115.4994 H   0  0  0  0  0  0  0  0  0  0  0  0
   -3.0451   13.7959  113.9041 H   0  0  0  0  0  0  0  0  0  0  0  0
   -1.4557   11.8685  114.0634 H   0  0  0  0  0  0  0  0  0  0  0  0
   -7.6159   12.2081  112.5526 H   0  0  0  0  0  0  0  0  0  0  0  0
   -8.2862   12.8270  114.1108 H   0  0  0  0  0  0  0  0  0  0  0  0
   -9.9714   12.9062  112.2861 H   0  0  0  0  0  0  0  0  0  0  0  0
   -9.5442   14.5559  112.9027 H   0  0  0  0  0  0  0  0  0  0  0  0
   -5.5616   15.4611  112.1397 H   0  0  0  0  0  0  0  0  0  0  0  0
   -3.8482   14.8929  111.0367 H   0  0  0  0  0  0  0  0  0  0  0  0
   -3.0608   12.4222  110.6944 H   0  0  0  0  0  0  0  0  0  0  0  0
   -7.9530   16.5016  112.8381 H   0  0  0  0  0  0  0  0  0  0  0  0
   -7.4682   17.5321  111.4490 H   0  0  0  0  0  0  0  0  0  0  0  0
   -9.0706   16.7205  111.4490 H   0  0  0  0  0  0  0  0  0  0  0  0
   -5.9398   16.5727  109.9413 H   0  0  0  0  0  0  0  0  0  0  0  0
   -6.4130   15.0339  109.1445 H   0  0  0  0  0  0  0  0  0  0  0  0
   -7.5434   16.4299  109.1445 H   0  0  0  0  0  0  0  0  0  0  0  0
  1  2  1  0
  2  3  3  0
  3  4  1  0
  4  5  1  0
  5  6  1  0
  6  7  2  0
  6 11  1  0
  7  8  1  0
  8  9  2  0
  9 10  1  0
  9 12  1  0
 10 11  2  0
 12 13  2  0
 12 14  2  0
 12 15  1  0
 15 16  1  0
 15 20  1  0
 16 17  1  0
 17 18  1  0
 18 19  1  0
 19 20  1  0
 19 25  1  0
 19 26  1  0
 20 21  1  0
 21 22  2  0
 21 23  1  0
 23 24  1  0
  1 27  1  0
  1 28  1  0
  1 29  1  0
  4 30  1  0
  4 31  1  0
  7 32  1  0
  8 33  1  0
 10 34  1  0
 11 35  1  0
 16 36  1  0
 16 37  1  0
 17 38  1  0
 17 39  1  0
 20 40  1  0
 23 41  1  0
 24 42  1  0
 25 43  1  0
 25 44  1  0
 25 45  1  0
 26 46  1  0
 26 47  1  0
 26 48  1  0
A    1
C1
A    2
C2
A    3
C3
A    4
C4
A    5
O1
A    6
C5
A    7
C6
A    8
C7
A    9
C8
A   10
C9
A   11
C10
A   12
S1
A   13
O2
A   14
O3
A   15
N1
A   16
C11
A   17
C12
A   18
S2
A   19
C13
A   20
C14
A   21
C15
A   22
O4
A   23
N2
A   24
O5
A   25
C16
A   26
C17
M  END
