1ZYS_199_A_400
     RDKit          3D

 55 59  0  0  0  0  0  0  0  0999 V2000
    3.6270    8.0470   18.5730 C   0  0  0  0  0  0  0  0  0  0  0  0
    2.5040    8.5650   19.3130 C   0  0  0  0  0  0  0  0  0  0  0  0
    2.6940    9.7180   20.1250 C   0  0  0  0  0  0  0  0  0  0  0  0
    3.8470   10.4040   20.2550 N   0  0  0  0  0  0  0  0  0  0  0  0
    4.8930    9.9050   19.5610 C   0  0  0  0  0  0  0  0  0  0  0  0
    6.1820   10.3830   19.5070 N   0  0  0  0  0  0  0  0  0  0  0  0
    6.9620    9.5690   18.6710 C   0  0  0  0  0  0  0  0  0  0  0  0
    6.1730    8.5690   18.1860 C   0  0  0  0  0  0  0  0  0  0  0  0
    4.8440    8.7630   18.7390 C   0  0  0  0  0  0  0  0  0  0  0  0
    6.4820    7.5170   17.3200 N   0  0  0  0  0  0  0  0  0  0  0  0
   -0.4180    6.3580   18.2690 C   0  0  0  0  0  0  0  0  0  0  0  0
   -1.4970    6.8440   19.1130 C   0  0  0  0  0  0  0  0  0  0  0  0
   -1.2060    7.9030   20.0270 C   0  0  0  0  0  0  0  0  0  0  0  0
    0.0880    8.4680   20.0910 C   0  0  0  0  0  0  0  0  0  0  0  0
    1.1500    7.9620   19.2480 C   0  0  0  0  0  0  0  0  0  0  0  0
    0.8690    6.8860   18.3410 C   0  0  0  0  0  0  0  0  0  0  0  0
    7.7100    7.3850   16.7800 C   0  0  0  0  0  0  0  0  0  0  0  0
    8.6160    8.1740   16.9380 O   0  0  0  0  0  0  0  0  0  0  0  0
    7.3360    4.0160   14.8950 C   0  0  0  0  0  0  0  0  0  0  0  0
    8.6840    3.8970   14.4630 C   0  0  0  0  0  0  0  0  0  0  0  0
    9.6580    4.8340   14.7300 N   0  0  0  0  0  0  0  0  0  0  0  0
    9.2980    5.9370   15.4530 C   0  0  0  0  0  0  0  0  0  0  0  0
    7.9860    6.1720   15.9600 C   0  0  0  0  0  0  0  0  0  0  0  0
    6.9750    5.1940   15.6810 C   0  0  0  0  0  0  0  0  0  0  0  0
   -3.6970    6.4530   20.1980 C   0  0  0  0  0  0  0  0  0  0  0  0
   -5.1540    6.0400   19.8730 C   0  0  0  0  0  0  0  0  0  0  0  0
   -5.1960    4.6300   19.3760 N   0  0  0  0  0  0  0  0  0  0  0  0
   -4.2720    4.3620   18.2270 C   0  0  0  0  0  0  0  0  0  0  0  0
   -2.8220    4.8680   18.5640 C   0  0  0  0  0  0  0  0  0  0  0  0
   -2.8200    6.2800   19.0220 N   0  0  0  0  0  0  0  0  0  0  0  0
   -6.6140    4.3130   18.9640 C   0  0  0  0  0  0  0  0  0  0  0  0
    3.5482    7.1609   17.9260 H   0  0  0  0  0  0  0  0  0  0  0  0
    1.8259   10.0804   20.6952 H   0  0  0  0  0  0  0  0  0  0  0  0
    6.5244   11.2160   20.0068 H   0  0  0  0  0  0  0  0  0  0  0  0
    8.0289    9.7135   18.4455 H   0  0  0  0  0  0  0  0  0  0  0  0
    5.7541    6.8259   17.0887 H   0  0  0  0  0  0  0  0  0  0  0  0
   -0.6238    5.5494   17.5522 H   0  0  0  0  0  0  0  0  0  0  0  0
   -1.9984    8.2830   20.6886 H   0  0  0  0  0  0  0  0  0  0  0  0
    0.2890    9.2970   20.7855 H   0  0  0  0  0  0  0  0  0  0  0  0
    1.6682    6.4791   17.7040 H   0  0  0  0  0  0  0  0  0  0  0  0
    6.5892    3.2476   14.6464 H   0  0  0  0  0  0  0  0  0  0  0  0
    8.9661    3.0063   13.8824 H   0  0  0  0  0  0  0  0  0  0  0  0
   10.0709    6.6926   15.6570 H   0  0  0  0  0  0  0  0  0  0  0  0
    5.9479    5.3278   16.0513 H   0  0  0  0  0  0  0  0  0  0  0  0
   -3.6829    7.5094   20.5043 H   0  0  0  0  0  0  0  0  0  0  0  0
   -3.3244    5.8101   21.0091 H   0  0  0  0  0  0  0  0  0  0  0  0
   -5.7660    6.1221   20.7834 H   0  0  0  0  0  0  0  0  0  0  0  0
   -5.5487    6.7063   19.0918 H   0  0  0  0  0  0  0  0  0  0  0  0
   -4.2423    3.2802   18.0298 H   0  0  0  0  0  0  0  0  0  0  0  0
   -4.6404    4.8966   17.3391 H   0  0  0  0  0  0  0  0  0  0  0  0
   -2.4008    4.2357   19.3595 H   0  0  0  0  0  0  0  0  0  0  0  0
   -2.2182    4.8068   17.6466 H   0  0  0  0  0  0  0  0  0  0  0  0
   -7.2344    4.1743   19.8617 H   0  0  0  0  0  0  0  0  0  0  0  0
   -7.0162    5.1434   18.3651 H   0  0  0  0  0  0  0  0  0  0  0  0
   -6.6243    3.3904   18.3651 H   0  0  0  0  0  0  0  0  0  0  0  0
  1  2  2  0
  1  9  1  0
  2  3  1  0
  2 15  1  0
  3  4  2  0
  4  5  1  0
  5  6  1  0
  5  9  2  0
  6  7  1  0
  7  8  2  0
  8  9  1  0
  8 10  1  0
 10 17  1  0
 11 12  2  0
 11 16  1  0
 12 13  1  0
 12 30  1  0
 13 14  2  0
 14 15  1  0
 15 16  2  0
 17 18  2  0
 17 23  1  0
 19 20  2  0
 19 24  1  0
 20 21  1  0
 21 22  2  0
 22 23  1  0
 23 24  2  0
 25 26  1  0
 25 30  1  0
 26 27  1  0
 27 28  1  0
 27 31  1  0
 28 29  1  0
 29 30  1  0
  1 32  1  0
  3 33  1  0
  6 34  1  0
  7 35  1  0
 10 36  1  0
 11 37  1  0
 13 38  1  0
 14 39  1  0
 16 40  1  0
 19 41  1  0
 20 42  1  0
 22 43  1  0
 24 44  1  0
 25 45  1  0
 25 46  1  0
 26 47  1  0
 26 48  1  0
 28 49  1  0
 28 50  1  0
 29 51  1  0
 29 52  1  0
 31 53  1  0
 31 54  1  0
 31 55  1  0
A    1
C01
A    2
C02
A    3
C03
A    4
N04
A    5
C05
A    6
N06
A    7
C07
A    8
C08
A    9
C09
A   10
N10
A   11
C11
A   12
C12
A   13
C13
A   14
C14
A   15
C15
A   16
C16
A   17
C17
A   18
O18
A   19
C19
A   20
C20
A   21
N21
A   22
C22
A   23
C23
A   24
C24
A   25
C25
A   26
C26
A   27
N27
A   28
C28
A   29
C29
A   30
N30
A   31
C31
M  END
