1ZYX_LCF_A_2001
     RDKit          3D

 49 52  0  0  0  0  0  0  0  0999 V2000
    5.5760   21.1670   -7.5410 C   0  0  0  0  0  0  0  0  0  0  0  0
    6.3200   23.5950   -8.4500 C   0  0  0  0  0  0  0  0  0  0  0  0
    6.6820   23.8660   -9.8990 C   0  0  0  0  0  0  0  0  0  0  0  0
    6.5970   22.6380  -10.7380 C   0  0  0  0  0  0  0  0  0  0  0  0
    6.1500   21.6190   -9.7530 C   0  0  0  0  0  0  0  0  0  0  0  0
    5.8380   20.1650   -9.8270 C   0  0  0  0  0  0  0  0  0  0  0  0
    5.4400   19.8240   -8.3180 C   0  0  0  0  0  0  0  0  0  0  0  0
    6.0060   22.1520   -8.4980 N   0  0  0  0  0  0  0  0  0  0  0  0
    5.3920   21.6880   -6.1220 C   0  0  0  0  0  0  0  0  0  0  0  0
    6.7030   21.8720   -5.4110 C   0  0  0  0  0  0  0  0  0  0  0  0
    7.1460   22.9940   -5.2870 O   0  0  0  0  0  0  0  0  0  0  0  0
    7.3150   20.9220   -4.9700 O   0  0  0  0  0  0  0  0  0  0  0  0
    8.1090   24.1930  -10.1470 C   0  0  0  0  0  0  0  0  0  0  0  0
    5.8300   24.9990  -10.4010 C   0  0  0  0  0  0  0  0  0  0  0  0
    5.9320   19.3810  -11.1240 C   0  0  0  0  0  0  0  0  0  0  0  0
    6.3270   19.9450  -12.3910 C   0  0  0  0  0  0  0  0  0  0  0  0
    6.4060   19.1870  -13.6080 C   0  0  0  0  0  0  0  0  0  0  0  0
    6.0880   17.8180  -13.6050 C   0  0  0  0  0  0  0  0  0  0  0  0
    5.6930   17.2170  -12.3710 C   0  0  0  0  0  0  0  0  0  0  0  0
    5.6290   18.0040  -11.1910 C   0  0  0  0  0  0  0  0  0  0  0  0
    5.0120   18.5940   -7.6180 C   0  0  0  0  0  0  0  0  0  0  0  0
    4.8810   17.3600   -8.2820 C   0  0  0  0  0  0  0  0  0  0  0  0
    4.4810   16.1810   -7.6440 C   0  0  0  0  0  0  0  0  0  0  0  0
    4.1830   16.1680   -6.2780 C   0  0  0  0  0  0  0  0  0  0  0  0
    4.2890   17.3540   -5.5480 C   0  0  0  0  0  0  0  0  0  0  0  0
    4.6980   18.5460   -6.2080 C   0  0  0  0  0  0  0  0  0  0  0  0
    3.6780   14.6020   -5.5700 Cl  0  0  0  0  0  0  0  0  0  0  0  0
    7.1659   23.8014   -7.7777 H   0  0  0  0  0  0  0  0  0  0  0  0
    5.5031   24.2223   -8.0637 H   0  0  0  0  0  0  0  0  0  0  0  0
    5.8635   22.7583  -11.5489 H   0  0  0  0  0  0  0  0  0  0  0  0
    7.5394   22.3813  -11.2440 H   0  0  0  0  0  0  0  0  0  0  0  0
    4.8731   22.6569   -6.1648 H   0  0  0  0  0  0  0  0  0  0  0  0
    4.8055   20.9444   -5.5624 H   0  0  0  0  0  0  0  0  0  0  0  0
    7.2946   23.3705   -4.3835 H   0  0  0  0  0  0  0  0  0  0  0  0
    8.6302   24.3124   -9.1857 H   0  0  0  0  0  0  0  0  0  0  0  0
    8.5776   23.3790  -10.7195 H   0  0  0  0  0  0  0  0  0  0  0  0
    8.1764   25.1299  -10.7195 H   0  0  0  0  0  0  0  0  0  0  0  0
    5.4142   25.5519   -9.5458 H   0  0  0  0  0  0  0  0  0  0  0  0
    6.4441   25.6767  -11.0122 H   0  0  0  0  0  0  0  0  0  0  0  0
    5.0085   24.5971  -11.0122 H   0  0  0  0  0  0  0  0  0  0  0  0
    6.5818   21.0145  -12.4272 H   0  0  0  0  0  0  0  0  0  0  0  0
    6.7154   19.6778  -14.5426 H   0  0  0  0  0  0  0  0  0  0  0  0
    6.1420   17.2245  -14.5296 H   0  0  0  0  0  0  0  0  0  0  0  0
    5.4391   16.1473  -12.3349 H   0  0  0  0  0  0  0  0  0  0  0  0
    5.3207   17.5040  -10.2609 H   0  0  0  0  0  0  0  0  0  0  0  0
    5.1047   17.3205   -9.3583 H   0  0  0  0  0  0  0  0  0  0  0  0
    4.3998   15.2508   -8.2254 H   0  0  0  0  0  0  0  0  0  0  0  0
    4.0583   17.3663   -4.4725 H   0  0  0  0  0  0  0  0  0  0  0  0
    4.7788   19.4718   -5.6194 H   0  0  0  0  0  0  0  0  0  0  0  0
  1  7  2  0
  1  8  1  0
  1  9  1  0
  2  3  1  0
  2  8  1  0
  3  4  1  0
  3 13  1  0
  3 14  1  0
  4  5  1  0
  5  6  2  0
  5  8  1  0
  6  7  1  0
  6 15  1  0
  7 21  1  0
  9 10  1  0
 10 11  1  0
 10 12  2  0
 15 16  2  0
 15 20  1  0
 16 17  1  0
 17 18  2  0
 18 19  1  0
 19 20  2  0
 21 22  2  0
 21 26  1  0
 22 23  1  0
 23 24  2  0
 24 25  1  0
 24 27  1  0
 25 26  2  0
  2 28  1  0
  2 29  1  0
  4 30  1  0
  4 31  1  0
  9 32  1  0
  9 33  1  0
 11 34  1  0
 13 35  1  0
 13 36  1  0
 13 37  1  0
 14 38  1  0
 14 39  1  0
 14 40  1  0
 16 41  1  0
 17 42  1  0
 18 43  1  0
 19 44  1  0
 20 45  1  0
 22 46  1  0
 23 47  1  0
 25 48  1  0
 26 49  1  0
A    1
C1
A    2
C2
A    3
C3
A    4
C4
A    5
C5
A    6
C6
A    7
C7
A    8
N
A    9
C8
A   10
C9
A   11
O1
A   12
O2
A   13
C10
A   14
C11
A   15
C12
A   16
C13
A   17
C14
A   18
C15
A   19
C16
A   20
C17
A   21
C18
A   22
C19
A   23
C20
A   24
C21
A   25
C22
A   26
C23
A   27
CL1
M  END
