1ZZ3_3YP_A_1452
     RDKit          3D

 26 26  0  0  0  0  0  0  0  0999 V2000
   -5.5340  -11.8380   38.6520 C   0  0  0  0  0  0  0  0  0  0  0  0
   -5.5130  -10.4750   37.9630 C   0  0  0  0  0  0  0  0  0  0  0  0
   -4.0780  -10.0430   38.2760 C   0  0  0  0  0  0  0  0  0  0  0  0
   -3.9620  -10.3360   39.7800 C   0  0  0  0  0  0  0  0  0  0  0  0
   -4.8550  -11.5670   40.0210 C   0  0  0  0  0  0  0  0  0  0  0  0
   -3.9390  -12.7120   40.4860 C   0  0  0  0  0  0  0  0  0  0  0  0
   -4.5620  -14.0770   40.7180 C   0  0  0  0  0  0  0  0  0  0  0  0
   -4.0290  -14.5440   42.0260 C   0  0  0  0  0  0  0  0  0  0  0  0
   -2.8600  -14.8200   42.2380 O   0  0  0  0  0  0  0  0  0  0  0  0
   -4.7300  -14.3480   42.9020 N   0  0  0  0  0  0  0  0  0  0  0  0
   -4.4070  -14.6120   44.1530 O   0  0  0  0  0  0  0  0  0  0  0  0
   -6.5662  -12.1926   38.7892 H   0  0  0  0  0  0  0  0  0  0  0  0
   -5.0232  -12.6188   38.0693 H   0  0  0  0  0  0  0  0  0  0  0  0
   -5.6865  -10.5619   36.8803 H   0  0  0  0  0  0  0  0  0  0  0  0
   -6.2920   -9.7740   38.2974 H   0  0  0  0  0  0  0  0  0  0  0  0
   -3.3506  -10.6329   37.6990 H   0  0  0  0  0  0  0  0  0  0  0  0
   -3.8696   -8.9946   38.0165 H   0  0  0  0  0  0  0  0  0  0  0  0
   -2.9190  -10.5570   40.0507 H   0  0  0  0  0  0  0  0  0  0  0  0
   -4.2728   -9.4762   40.3917 H   0  0  0  0  0  0  0  0  0  0  0  0
   -5.6286  -11.4417   40.7929 H   0  0  0  0  0  0  0  0  0  0  0  0
   -3.1571  -12.8354   39.7222 H   0  0  0  0  0  0  0  0  0  0  0  0
   -3.5912  -12.3973   41.4810 H   0  0  0  0  0  0  0  0  0  0  0  0
   -5.6584  -13.9969   40.7569 H   0  0  0  0  0  0  0  0  0  0  0  0
   -4.3189  -14.7782   39.9061 H   0  0  0  0  0  0  0  0  0  0  0  0
   -5.6584  -13.9463   42.7083 H   0  0  0  0  0  0  0  0  0  0  0  0
   -5.0118  -14.1177   44.7613 H   0  0  0  0  0  0  0  0  0  0  0  0
  1  2  1  0
  1  5  1  0
  2  3  1  0
  3  4  1  0
  4  5  1  0
  5  6  1  0
  6  7  1  0
  7  8  1  0
  8  9  2  0
  8 10  1  0
 10 11  1  0
  1 12  1  0
  1 13  1  0
  2 14  1  0
  2 15  1  0
  3 16  1  0
  3 17  1  0
  4 18  1  0
  4 19  1  0
  5 20  1  0
  6 21  1  0
  6 22  1  0
  7 23  1  0
  7 24  1  0
 10 25  1  0
 11 26  1  0
A    1
CAF
A    2
CAC
A    3
CAD
A    4
CAG
A    5
CAK
A    6
CAH
A    7
CAE
A    8
CAJ
A    9
OAA
A   10
NAI
A   11
OAB
M  END
