2A5U_QYT_A_101
     RDKit          3D

 25 27  0  0  0  0  0  0  0  0999 V2000
   43.6770   12.6420   29.7220 C   0  0  0  0  0  0  0  0  0  0  0  0
   42.7360   13.2970   30.6610 C   0  0  0  0  0  0  0  0  0  0  0  0
   43.1450   14.3460   31.4720 C   0  0  0  0  0  0  0  0  0  0  0  0
   40.2380   15.2630   33.9000 C   0  0  0  0  0  0  0  0  0  0  0  0
   38.4880   14.1470   32.7760 C   0  0  0  0  0  0  0  0  0  0  0  0
   45.4170   14.2090   30.5130 C   0  0  0  0  0  0  0  0  0  0  0  0
   44.9610   13.0780   29.6650 C   0  0  0  0  0  0  0  0  0  0  0  0
   47.1300   12.8870   28.7660 C   0  0  0  0  0  0  0  0  0  0  0  0
   46.7620   14.6190   30.4190 N   0  0  0  0  0  0  0  0  0  0  0  0
   44.5620   14.8140   31.3680 C   0  0  0  0  0  0  0  0  0  0  0  0
   42.2430   15.0400   32.4810 C   0  0  0  0  0  0  0  0  0  0  0  0
   40.9350   14.7990   32.7170 C   0  0  0  0  0  0  0  0  0  0  0  0
   39.8030   13.9080   31.6910 S   0  0  0  0  0  0  0  0  0  0  0  0
   38.8610   14.8910   33.9230 N   0  0  0  0  0  0  0  0  0  0  0  0
   40.7720   15.9160   34.8020 O   0  0  0  0  0  0  0  0  0  0  0  0
   37.3430   13.7130   32.5670 O   0  0  0  0  0  0  0  0  0  0  0  0
   45.8980   12.4730   28.8120 N   0  0  0  0  0  0  0  0  0  0  0  0
   47.5870   14.0280   29.6180 C   0  0  0  0  0  0  0  0  0  0  0  0
   43.3397   11.8145   29.0806 H   0  0  0  0  0  0  0  0  0  0  0  0
   41.6951   12.9455   30.7160 H   0  0  0  0  0  0  0  0  0  0  0  0
   47.8447   12.3919   28.0922 H   0  0  0  0  0  0  0  0  0  0  0  0
   44.9094   15.6529   31.9890 H   0  0  0  0  0  0  0  0  0  0  0  0
   42.7097   15.8293   33.0887 H   0  0  0  0  0  0  0  0  0  0  0  0
   38.2127   15.1350   34.6853 H   0  0  0  0  0  0  0  0  0  0  0  0
   48.6321   14.3667   29.5628 H   0  0  0  0  0  0  0  0  0  0  0  0
  1  2  2  0
  1  7  1  0
  2  3  1  0
  3 10  2  0
  3 11  1  0
  4 12  1  0
  4 14  1  0
  4 15  2  0
  5 13  1  0
  5 14  1  0
  5 16  2  0
  6  7  2  0
  6  9  1  0
  6 10  1  0
  7 17  1  0
  8 17  2  0
  8 18  1  0
  9 18  2  0
 11 12  2  0
 12 13  1  0
  1 19  1  0
  2 20  1  0
  8 21  1  0
 10 22  1  0
 11 23  1  0
 14 24  1  0
 18 25  1  0
A    1
C1
A    2
C2
A    3
C3
A    4
C7
A    5
C11
A    6
C13
A    7
C14
A    8
C16
A    9
N18
A   10
C4
A   11
C5
A   12
C6
A   13
S8
A   14
N9
A   15
O10
A   16
O12
A   17
N15
A   18
C17
M  END
