2A7P_3IL_A_410
     RDKit          3D

 26 27  0  0  0  0  0  0  0  0999 V2000
   64.9660   85.4900   19.2050 N   0  0  0  0  0  0  0  0  0  0  0  0
   66.3530   85.5170   19.4730 C   0  0  0  0  0  0  0  0  0  0  0  0
   66.6450   85.3370   20.8450 C   0  0  0  0  0  0  0  0  0  0  0  0
   65.0230   84.9770   22.8500 C   0  0  0  0  0  0  0  0  0  0  0  0
   63.6390   84.8680   23.1710 C   0  0  0  0  0  0  0  0  0  0  0  0
   62.6390   84.9650   22.1550 C   0  0  0  0  0  0  0  0  0  0  0  0
   62.9980   85.1740   20.7920 C   0  0  0  0  0  0  0  0  0  0  0  0
   64.3920   85.2880   20.4470 C   0  0  0  0  0  0  0  0  0  0  0  0
   65.4060   85.1910   21.4690 C   0  0  0  0  0  0  0  0  0  0  0  0
   69.9030   86.5220   22.8100 C   0  0  0  0  0  0  0  0  0  0  0  0
   70.3950   85.5310   23.3890 O   0  0  0  0  0  0  0  0  0  0  0  0
   70.5860   87.5490   22.5510 O   0  0  0  0  0  0  0  0  0  0  0  0
   68.4140   86.4850   22.4040 C   0  0  0  0  0  0  0  0  0  0  0  0
   68.1200   87.7280   21.7720 O   0  0  0  0  0  0  0  0  0  0  0  0
   68.0720   85.3210   21.4270 C   0  0  0  0  0  0  0  0  0  0  0  0
   64.4926   85.5960   18.2964 H   0  0  0  0  0  0  0  0  0  0  0  0
   67.1214   85.6621   18.6994 H   0  0  0  0  0  0  0  0  0  0  0  0
   65.7876   84.9000   23.6371 H   0  0  0  0  0  0  0  0  0  0  0  0
   63.3360   84.7068   24.2161 H   0  0  0  0  0  0  0  0  0  0  0  0
   61.5773   84.8771   22.4289 H   0  0  0  0  0  0  0  0  0  0  0  0
   62.2226   85.2472   20.0152 H   0  0  0  0  0  0  0  0  0  0  0  0
   70.4133   85.4942   24.3781 H   0  0  0  0  0  0  0  0  0  0  0  0
   67.8107   86.3182   23.3086 H   0  0  0  0  0  0  0  0  0  0  0  0
   67.9566   88.4186   22.4622 H   0  0  0  0  0  0  0  0  0  0  0  0
   68.2055   84.3735   21.9697 H   0  0  0  0  0  0  0  0  0  0  0  0
   68.7485   85.4409   20.5679 H   0  0  0  0  0  0  0  0  0  0  0  0
  1  2  1  0
  1  8  1  0
  2  3  2  0
  3  9  1  0
  3 15  1  0
  4  5  1  0
  4  9  2  0
  5  6  2  0
  6  7  1  0
  7  8  2  0
  8  9  1  0
 10 11  1  0
 10 12  2  0
 10 13  1  0
 13 14  1  0
 13 15  1  0
  1 16  1  0
  2 17  1  0
  4 18  1  0
  5 19  1  0
  6 20  1  0
  7 21  1  0
 11 22  1  0
 13 23  1  0
 14 24  1  0
 15 25  1  0
 15 26  1  0
A    1
N1
A    2
C2
A    3
C3
A    4
C4
A    5
C5
A    6
C6
A    7
C7
A    8
C8
A    9
C9
A   10
C10
A   11
O11
A   12
O12
A   13
C13
A   14
O14
A   15
C15
M  END
