2A8G_GNG_B_201
     RDKit          3D

 32 34  0  0  0  0  0  0  0  0999 V2000
    9.3980    3.5290    0.1720 O   0  0  0  0  0  0  0  0  0  0  0  0
    9.7610    2.1560    0.2790 C   0  0  0  0  0  0  0  0  0  0  0  0
   10.9090    2.1550    1.2640 C   0  0  0  0  0  0  0  0  0  0  0  0
   10.3990    1.8720    2.5630 O   0  0  0  0  0  0  0  0  0  0  0  0
   11.4440    1.2120    3.2680 C   0  0  0  0  0  0  0  0  0  0  0  0
   11.0050    0.6070    4.5510 N   0  0  0  0  0  0  0  0  0  0  0  0
    9.8890    0.9350    5.2250 C   0  0  0  0  0  0  0  0  0  0  0  0
    9.8400    0.1690    6.3250 N   0  0  0  0  0  0  0  0  0  0  0  0
   10.9410   -0.6090    6.3430 C   0  0  0  0  0  0  0  0  0  0  0  0
   11.6880   -0.3360    5.2230 C   0  0  0  0  0  0  0  0  0  0  0  0
   12.8630   -1.0100    5.0090 N   0  0  0  0  0  0  0  0  0  0  0  0
   13.2930   -1.9410    5.9120 C   0  0  0  0  0  0  0  0  0  0  0  0
   12.5570   -2.2150    6.9990 N   0  0  0  0  0  0  0  0  0  0  0  0
   11.4090   -1.5690    7.2070 C   0  0  0  0  0  0  0  0  0  0  0  0
   10.7720   -1.8490    8.2170 O   0  0  0  0  0  0  0  0  0  0  0  0
   14.4390   -2.6400    5.7710 N   0  0  0  0  0  0  0  0  0  0  0  0
   11.9820    0.2230    2.2550 C   0  0  0  0  0  0  0  0  0  0  0  0
   11.9530    1.0830    1.0060 C   0  0  0  0  0  0  0  0  0  0  0  0
   13.2210    1.7220    0.9510 O   0  0  0  0  0  0  0  0  0  0  0  0
    9.2960    3.9149    1.0780 H   0  0  0  0  0  0  0  0  0  0  0  0
    8.9196    1.5579    0.6590 H   0  0  0  0  0  0  0  0  0  0  0  0
   10.0354    1.7145   -0.6904 H   0  0  0  0  0  0  0  0  0  0  0  0
   11.3791    3.1445    1.1642 H   0  0  0  0  0  0  0  0  0  0  0  0
   12.2258    1.9032    3.6159 H   0  0  0  0  0  0  0  0  0  0  0  0
    9.1501    1.6939    4.9282 H   0  0  0  0  0  0  0  0  0  0  0  0
   13.4221   -0.8142    4.1664 H   0  0  0  0  0  0  0  0  0  0  0  0
   14.9558   -2.9552    6.6043 H   0  0  0  0  0  0  0  0  0  0  0  0
   14.7967   -2.8582    4.8301 H   0  0  0  0  0  0  0  0  0  0  0  0
   13.0033   -0.1013    2.5037 H   0  0  0  0  0  0  0  0  0  0  0  0
   11.4181   -0.7187    2.1823 H   0  0  0  0  0  0  0  0  0  0  0  0
   11.7376    0.5168    0.0878 H   0  0  0  0  0  0  0  0  0  0  0  0
   13.5477    1.8867    1.8709 H   0  0  0  0  0  0  0  0  0  0  0  0
  1  2  1  0
  2  3  1  0
  3  4  1  0
  3 18  1  0
  4  5  1  0
  5  6  1  0
  5 17  1  0
  6  7  1  0
  6 10  1  0
  7  8  2  0
  8  9  1  0
  9 10  2  0
  9 14  1  0
 10 11  1  0
 11 12  1  0
 12 13  2  0
 12 16  1  0
 13 14  1  0
 14 15  2  0
 17 18  1  0
 18 19  1  0
  1 20  1  0
  2 21  1  0
  2 22  1  0
  3 23  1  0
  5 24  1  0
  7 25  1  0
 11 26  1  0
 16 27  1  0
 16 28  1  0
 17 29  1  0
 17 30  1  0
 18 31  1  0
 19 32  1  0
A    1
O5'
A    2
C5'
A    3
C4'
A    4
O4'
A    5
C1'
A    6
N9
A    7
C8
A    8
N7
A    9
C5
A   10
C4
A   11
N3
A   12
C2
A   13
N1
A   14
C6
A   15
O6
A   16
N2
A   17
C2'
A   18
C3'
A   19
O3'
M  END
