2A8U_DR5_A_2
     RDKit          3D

 48 49  0  0  0  0  0  0  0  0999 V2000
   15.9750   62.9140   47.0080 O   0  0  0  0  0  0  0  0  0  0  0  0
   17.2640   62.7600   46.4090 C   0  0  0  0  0  0  0  0  0  0  0  0
   17.9070   61.4520   46.8780 C   0  0  0  0  0  0  0  0  0  0  0  0
   17.1290   60.3470   46.4090 O   0  0  0  0  0  0  0  0  0  0  0  0
   19.3290   61.3400   46.3260 C   0  0  0  0  0  0  0  0  0  0  0  0
   19.2680   61.2510   44.8990 O   0  0  0  0  0  0  0  0  0  0  0  0
   20.1210   62.5900   46.7200 C   0  0  0  0  0  0  0  0  0  0  0  0
   21.5460   62.5240   46.1680 C   0  0  0  0  0  0  0  0  0  0  0  0
   22.2490   63.7140   46.5370 O   0  0  0  0  0  0  0  0  0  0  0  0
   19.4620   63.7550   46.1960 O   0  0  0  0  0  0  0  0  0  0  0  0
   18.1590   63.9480   46.7720 C   0  0  0  0  0  0  0  0  0  0  0  0
   17.5870   65.1480   46.2280 O   0  0  0  0  0  0  0  0  0  0  0  0
   18.0370   66.3330   46.9050 C   0  0  0  0  0  0  0  0  0  0  0  0
   19.5070   66.6530   46.6140 C   0  0  0  0  0  0  0  0  0  0  0  0
   20.3440   65.6470   47.1900 O   0  0  0  0  0  0  0  0  0  0  0  0
   19.8990   68.0080   47.2090 C   0  0  0  0  0  0  0  0  0  0  0  0
   21.2380   68.3270   46.8200 O   0  0  0  0  0  0  0  0  0  0  0  0
   18.9500   69.0890   46.6900 C   0  0  0  0  0  0  0  0  0  0  0  0
   19.3030   70.3530   47.2710 O   0  0  0  0  0  0  0  0  0  0  0  0
   18.5990   71.4030   46.6030 C   0  0  0  0  0  0  0  0  0  0  0  0
   17.6080   68.7330   47.0620 O   0  0  0  0  0  0  0  0  0  0  0  0
   17.1890   67.5080   46.4360 C   0  0  0  0  0  0  0  0  0  0  0  0
   15.7150   67.2480   46.7570 C   0  0  0  0  0  0  0  0  0  0  0  0
   15.5500   67.0700   48.1660 O   0  0  0  0  0  0  0  0  0  0  0  0
   16.0658   62.9032   47.9938 H   0  0  0  0  0  0  0  0  0  0  0  0
   17.1471   62.7266   45.3157 H   0  0  0  0  0  0  0  0  0  0  0  0
   17.9447   61.4425   47.9773 H   0  0  0  0  0  0  0  0  0  0  0  0
   16.7733   59.8419   47.1826 H   0  0  0  0  0  0  0  0  0  0  0  0
   19.8211   60.4456   46.7357 H   0  0  0  0  0  0  0  0  0  0  0  0
   18.7277   60.4628   44.6403 H   0  0  0  0  0  0  0  0  0  0  0  0
   20.1702   62.6446   47.8175 H   0  0  0  0  0  0  0  0  0  0  0  0
   22.0622   61.6472   46.5860 H   0  0  0  0  0  0  0  0  0  0  0  0
   21.5141   62.4385   45.0718 H   0  0  0  0  0  0  0  0  0  0  0  0
   22.2887   63.7812   47.5239 H   0  0  0  0  0  0  0  0  0  0  0  0
   18.2413   64.0284   47.8660 H   0  0  0  0  0  0  0  0  0  0  0  0
   17.9372   66.1592   47.9866 H   0  0  0  0  0  0  0  0  0  0  0  0
   19.6381   66.6834   45.5223 H   0  0  0  0  0  0  0  0  0  0  0  0
   20.2967   65.7039   48.1772 H   0  0  0  0  0  0  0  0  0  0  0  0
   19.8338   67.9588   48.3060 H   0  0  0  0  0  0  0  0  0  0  0  0
   21.7938   68.4594   47.6285 H   0  0  0  0  0  0  0  0  0  0  0  0
   19.0232   69.1696   45.5954 H   0  0  0  0  0  0  0  0  0  0  0  0
   18.1486   72.0747   47.3486 H   0  0  0  0  0  0  0  0  0  0  0  0
   19.2994   71.9712   45.9732 H   0  0  0  0  0  0  0  0  0  0  0  0
   17.8074   70.9709   45.9732 H   0  0  0  0  0  0  0  0  0  0  0  0
   17.3200   67.6101   45.3486 H   0  0  0  0  0  0  0  0  0  0  0  0
   15.1120   68.1057   46.4242 H   0  0  0  0  0  0  0  0  0  0  0  0
   15.3848   66.3378   46.2349 H   0  0  0  0  0  0  0  0  0  0  0  0
   16.1372   67.7035   48.6497 H   0  0  0  0  0  0  0  0  0  0  0  0
  1  2  1  0
  2  3  1  0
  2 11  1  0
  3  4  1  0
  3  5  1  0
  5  6  1  0
  5  7  1  0
  7  8  1  0
  7 10  1  0
  8  9  1  0
 10 11  1  0
 11 12  1  0
 12 13  1  0
 13 14  1  0
 13 22  1  0
 14 15  1  0
 14 16  1  0
 16 17  1  0
 16 18  1  0
 18 19  1  0
 18 21  1  0
 19 20  1  0
 21 22  1  0
 22 23  1  0
 23 24  1  0
  1 25  1  0
  2 26  1  0
  3 27  1  0
  4 28  1  0
  5 29  1  0
  6 30  1  0
  7 31  1  0
  8 32  1  0
  8 33  1  0
  9 34  1  0
 11 35  1  0
 13 36  1  0
 14 37  1  0
 15 38  1  0
 16 39  1  0
 17 40  1  0
 18 41  1  0
 20 42  1  0
 20 43  1  0
 20 44  1  0
 22 45  1  0
 23 46  1  0
 23 47  1  0
 24 48  1  0
A    1
O2
A    2
C2
A    3
C3
A    4
O3
A    5
C4
A    6
O4
A    7
C5
A    8
C6
A    9
O6
A   10
O5
A   11
C1
A   12
O1
A   13
CAX
A   14
CAS
A   15
OAH
A   16
CAR
A   17
OAG
A   18
CAV
A   19
OAK
A   20
CAA
A   21
OAM
A   22
CAU
A   23
CAJ
A   24
OAC
M  END
