2A9W_GA9_A_1320
     RDKit          3D

 44 48  0  0  0  0  0  0  0  0999 V2000
   32.2860   50.8110  -17.1080 C   0  0  0  0  0  0  0  0  0  0  0  0
   32.0660   49.6170  -16.3190 C   0  0  0  0  0  0  0  0  0  0  0  0
   31.5260   49.7480  -14.9710 C   0  0  0  0  0  0  0  0  0  0  0  0
   31.1280   48.6270  -14.2480 C   0  0  0  0  0  0  0  0  0  0  0  0
   31.2290   47.3400  -14.7930 C   0  0  0  0  0  0  0  0  0  0  0  0
   31.7590   47.1700  -16.1340 C   0  0  0  0  0  0  0  0  0  0  0  0
   31.8770   45.8530  -16.7210 C   0  0  0  0  0  0  0  0  0  0  0  0
   32.4030   45.6960  -17.9950 C   0  0  0  0  0  0  0  0  0  0  0  0
   32.8270   46.7990  -18.7250 C   0  0  0  0  0  0  0  0  0  0  0  0
   32.7310   48.1670  -18.1740 C   0  0  0  0  0  0  0  0  0  0  0  0
   32.1820   48.3250  -16.8830 C   0  0  0  0  0  0  0  0  0  0  0  0
   33.2430   49.3930  -18.9500 C   0  0  0  0  0  0  0  0  0  0  0  0
   34.6900   49.3920  -18.8420 C   0  0  0  0  0  0  0  0  0  0  0  0
   35.3910   48.2800  -18.2840 C   0  0  0  0  0  0  0  0  0  0  0  0
   36.7930   48.2770  -18.1140 C   0  0  0  0  0  0  0  0  0  0  0  0
   37.5530   49.4040  -18.5030 C   0  0  0  0  0  0  0  0  0  0  0  0
   36.8760   50.5250  -19.0610 C   0  0  0  0  0  0  0  0  0  0  0  0
   35.4760   50.5310  -19.2320 C   0  0  0  0  0  0  0  0  0  0  0  0
   32.7750   49.3630  -20.3150 C   0  0  0  0  0  0  0  0  0  0  0  0
   33.6490   49.1290  -21.4400 C   0  0  0  0  0  0  0  0  0  0  0  0
   33.1740   49.1210  -22.7780 C   0  0  0  0  0  0  0  0  0  0  0  0
   31.7990   49.3440  -23.0330 C   0  0  0  0  0  0  0  0  0  0  0  0
   30.9280   49.5720  -21.9270 C   0  0  0  0  0  0  0  0  0  0  0  0
   31.3980   49.5830  -20.5960 C   0  0  0  0  0  0  0  0  0  0  0  0
   32.8770   50.7030  -18.3380 O   0  0  0  0  0  0  0  0  0  0  0  0
   31.9390   51.9140  -16.6840 O   0  0  0  0  0  0  0  0  0  0  0  0
   31.2920   49.3450  -24.3680 O   0  0  0  0  0  0  0  0  0  0  0  0
   38.9670   49.4120  -18.3460 O   0  0  0  0  0  0  0  0  0  0  0  0
   37.6060   46.7920  -17.3790 Br  0  0  0  0  0  0  0  0  0  0  0  0
   34.3700   48.8290  -24.1680 Br  0  0  0  0  0  0  0  0  0  0  0  0
   30.7980   45.9680  -13.8500 Cl  0  0  0  0  0  0  0  0  0  0  0  0
   31.4318   50.7465  -14.5191 H   0  0  0  0  0  0  0  0  0  0  0  0
   30.7273   48.7536  -13.2314 H   0  0  0  0  0  0  0  0  0  0  0  0
   31.5475   44.9703  -16.1534 H   0  0  0  0  0  0  0  0  0  0  0  0
   32.4850   44.6894  -18.4308 H   0  0  0  0  0  0  0  0  0  0  0  0
   33.2423   46.6515  -19.7328 H   0  0  0  0  0  0  0  0  0  0  0  0
   34.8180   47.3933  -17.9753 H   0  0  0  0  0  0  0  0  0  0  0  0
   37.4582   51.4071  -19.3659 H   0  0  0  0  0  0  0  0  0  0  0  0
   34.9823   51.4127  -19.6665 H   0  0  0  0  0  0  0  0  0  0  0  0
   34.7185   48.9510  -21.2544 H   0  0  0  0  0  0  0  0  0  0  0  0
   29.8583   49.7444  -22.1167 H   0  0  0  0  0  0  0  0  0  0  0  0
   30.6942   49.7630  -19.7700 H   0  0  0  0  0  0  0  0  0  0  0  0
   30.3147   49.3469  -24.5264 H   0  0  0  0  0  0  0  0  0  0  0  0
   39.3644   49.4142  -17.4392 H   0  0  0  0  0  0  0  0  0  0  0  0
  1  2  1  0
  1 25  1  0
  1 26  2  0
  2  3  1  0
  2 11  2  0
  3  4  2  0
  4  5  1  0
  5  6  2  0
  5 31  1  0
  6  7  1  0
  6 11  1  0
  7  8  2  0
  8  9  1  0
  9 10  2  0
 10 11  1  0
 10 12  1  0
 12 13  1  0
 12 19  1  0
 12 25  1  0
 13 14  2  0
 13 18  1  0
 14 15  1  0
 15 16  2  0
 15 29  1  0
 16 17  1  0
 16 28  1  0
 17 18  2  0
 19 20  2  0
 19 24  1  0
 20 21  1  0
 21 22  2  0
 21 30  1  0
 22 23  1  0
 22 27  1  0
 23 24  2  0
  3 32  1  0
  4 33  1  0
  7 34  1  0
  8 35  1  0
  9 36  1  0
 14 37  1  0
 17 38  1  0
 18 39  1  0
 20 40  1  0
 23 41  1  0
 24 42  1  0
 27 43  1  0
 28 44  1  0
A    1
C1
A    2
C2
A    3
C3
A    4
C4
A    5
C5
A    6
C6
A    7
C7
A    8
C8
A    9
C9
A   10
C10
A   11
C11
A   12
C12
A   13
C13
A   14
C14
A   15
C15
A   16
C16
A   17
C17
A   18
C18
A   19
C19
A   20
C20
A   21
C21
A   22
C22
A   23
C23
A   24
C24
A   25
O1
A   26
O2
A   27
O4
A   28
O3
A   29
BR1
A   30
BR2
A   31
CL3
M  END
