2A9Y_26A_A_1001
     RDKit          3D

 38 40  0  0  0  0  0  0  0  0999 V2000
   -5.7600  -40.9760 -107.9130 C   0  0  0  0  0  0  0  0  0  0  0  0
   -7.0200  -40.7720 -107.2300 N   0  0  0  0  0  0  0  0  0  0  0  0
   -7.8580  -39.5620 -107.5350 C   0  0  0  0  0  0  0  0  0  0  0  0
   -7.5950  -41.7800 -106.5020 C   0  0  0  0  0  0  0  0  0  0  0  0
   -8.8880  -41.6930 -105.8080 C   0  0  0  0  0  0  0  0  0  0  0  0
   -9.3400  -42.8980 -105.1970 C   0  0  0  0  0  0  0  0  0  0  0  0
   -8.6770  -44.0910 -105.2650 N   0  0  0  0  0  0  0  0  0  0  0  0
   -7.5040  -44.0700 -105.9150 C   0  0  0  0  0  0  0  0  0  0  0  0
   -6.9330  -42.9770 -106.4760 N   0  0  0  0  0  0  0  0  0  0  0  0
   -9.7880  -40.6950 -105.5160 N   0  0  0  0  0  0  0  0  0  0  0  0
  -10.8150  -41.2600 -104.7940 C   0  0  0  0  0  0  0  0  0  0  0  0
  -10.4790  -42.6030 -104.5350 N   0  0  0  0  0  0  0  0  0  0  0  0
  -11.2870  -43.5890 -103.7840 C   0  0  0  0  0  0  0  0  0  0  0  0
  -12.4610  -43.7460 -104.5730 O   0  0  0  0  0  0  0  0  0  0  0  0
  -13.3880  -44.5290 -103.7300 C   0  0  0  0  0  0  0  0  0  0  0  0
  -14.7980  -44.4660 -104.2340 C   0  0  0  0  0  0  0  0  0  0  0  0
  -14.8670  -45.0100 -105.5790 O   0  0  0  0  0  0  0  0  0  0  0  0
  -11.8290  -43.1640 -102.4170 C   0  0  0  0  0  0  0  0  0  0  0  0
  -10.8370  -43.3310 -101.4590 O   0  0  0  0  0  0  0  0  0  0  0  0
  -13.1700  -43.9510 -102.3490 C   0  0  0  0  0  0  0  0  0  0  0  0
  -12.9970  -45.0410 -101.4450 O   0  0  0  0  0  0  0  0  0  0  0  0
   -4.9579  -41.1059 -107.1716 H   0  0  0  0  0  0  0  0  0  0  0  0
   -5.8259  -41.8752 -108.5432 H   0  0  0  0  0  0  0  0  0  0  0  0
   -5.5388  -40.1020 -108.5432 H   0  0  0  0  0  0  0  0  0  0  0  0
   -8.1822  -39.0938 -106.5939 H   0  0  0  0  0  0  0  0  0  0  0  0
   -7.2642  -38.8420 -108.1172 H   0  0  0  0  0  0  0  0  0  0  0  0
   -8.7409  -39.8647 -108.1172 H   0  0  0  0  0  0  0  0  0  0  0  0
   -6.9589  -45.0217 -105.9999 H   0  0  0  0  0  0  0  0  0  0  0  0
  -11.7368  -40.7515 -104.4752 H   0  0  0  0  0  0  0  0  0  0  0  0
  -10.6304  -44.4540 -103.6087 H   0  0  0  0  0  0  0  0  0  0  0  0
  -13.1958  -45.6121 -103.7368 H   0  0  0  0  0  0  0  0  0  0  0  0
  -15.4494  -45.0526 -103.5695 H   0  0  0  0  0  0  0  0  0  0  0  0
  -15.1304  -43.4175 -104.2499 H   0  0  0  0  0  0  0  0  0  0  0  0
  -14.9914  -45.9910 -105.5322 H   0  0  0  0  0  0  0  0  0  0  0  0
  -12.0706  -42.1072 -102.2302 H   0  0  0  0  0  0  0  0  0  0  0  0
  -11.2361  -43.2638 -100.5555 H   0  0  0  0  0  0  0  0  0  0  0  0
  -14.0060  -43.3127 -102.0272 H   0  0  0  0  0  0  0  0  0  0  0  0
  -13.0497  -44.7090 -100.5138 H   0  0  0  0  0  0  0  0  0  0  0  0
  1  2  1  0
  2  3  1  0
  2  4  1  0
  4  5  2  0
  4  9  1  0
  5  6  1  0
  5 10  1  0
  6  7  2  0
  6 12  1  0
  7  8  1  0
  8  9  2  0
 10 11  2  0
 11 12  1  0
 12 13  1  0
 13 14  1  0
 13 18  1  0
 14 15  1  0
 15 16  1  0
 15 20  1  0
 16 17  1  0
 18 19  1  0
 18 20  1  0
 20 21  1  0
  1 22  1  0
  1 23  1  0
  1 24  1  0
  3 25  1  0
  3 26  1  0
  3 27  1  0
  8 28  1  0
 11 29  1  0
 13 30  1  0
 15 31  1  0
 16 32  1  0
 16 33  1  0
 17 34  1  0
 18 35  1  0
 19 36  1  0
 20 37  1  0
 21 38  1  0
A    1
C10
A    2
N6
A    3
C9
A    4
C6
A    5
C5
A    6
C4
A    7
N3
A    8
C2
A    9
N1
A   10
N7
A   11
C8
A   12
N9
A   13
C1'
A   14
O4'
A   15
C4'
A   16
C5'
A   17
O5'
A   18
C2'
A   19
O2'
A   20
C3'
A   21
O3'
M  END
