2AA2_AS4_A_201
     RDKit          3D

 54 57  0  0  0  0  0  0  0  0999 V2000
   19.8700   73.9850   20.2970 C   0  0  0  0  0  0  0  0  0  0  0  0
   17.4550   73.7690   20.9300 C   0  0  0  0  0  0  0  0  0  0  0  0
   18.9890   72.9270   22.5790 C   0  0  0  0  0  0  0  0  0  0  0  0
   18.6700   70.4240   19.0570 C   0  0  0  0  0  0  0  0  0  0  0  0
   19.7270   70.1490   17.9400 C   0  0  0  0  0  0  0  0  0  0  0  0
   19.4650   69.3550   16.8630 C   0  0  0  0  0  0  0  0  0  0  0  0
   18.0970   68.6670   16.6740 C   0  0  0  0  0  0  0  0  0  0  0  0
   19.0190   69.4610   20.2520 C   0  0  0  0  0  0  0  0  0  0  0  0
   20.7130   75.7070   21.8680 C   0  0  0  0  0  0  0  0  0  0  0  0
   19.1660   75.5790   21.9050 C   0  0  0  0  0  0  0  0  0  0  0  0
   18.4750   76.1360   23.2040 C   0  0  0  0  0  0  0  0  0  0  0  0
   16.9640   76.3730   23.1630 C   0  0  0  0  0  0  0  0  0  0  0  0
   21.1680   74.6940   20.7900 C   0  0  0  0  0  0  0  0  0  0  0  0
   18.8690   74.0950   21.5270 C   0  0  0  0  0  0  0  0  0  0  0  0
   20.0500   72.5000   19.8510 C   0  0  0  0  0  0  0  0  0  0  0  0
   18.6260   71.9600   19.5140 C   0  0  0  0  0  0  0  0  0  0  0  0
   17.6310   72.2430   20.7480 C   0  0  0  0  0  0  0  0  0  0  0  0
   18.1950   71.8110   22.0140 O   0  0  0  0  0  0  0  0  0  0  0  0
   18.3890   73.2210   23.8400 O   0  0  0  0  0  0  0  0  0  0  0  0
   17.7730   68.1020   15.6360 O   0  0  0  0  0  0  0  0  0  0  0  0
   17.1160   68.6840   17.8750 C   0  0  0  0  0  0  0  0  0  0  0  0
   17.2540   70.1010   18.4590 C   0  0  0  0  0  0  0  0  0  0  0  0
   21.1140   70.8000   18.1620 C   0  0  0  0  0  0  0  0  0  0  0  0
   20.9910   72.2890   18.6040 C   0  0  0  0  0  0  0  0  0  0  0  0
   19.1350   76.3620   24.1890 O   0  0  0  0  0  0  0  0  0  0  0  0
   16.4710   76.4530   24.5030 O   0  0  0  0  0  0  0  0  0  0  0  0
   19.5072   74.4723   19.3800 H   0  0  0  0  0  0  0  0  0  0  0  0
   16.6428   74.0121   21.6309 H   0  0  0  0  0  0  0  0  0  0  0  0
   17.1770   74.3296   20.0253 H   0  0  0  0  0  0  0  0  0  0  0  0
   19.4897   71.9722   22.3609 H   0  0  0  0  0  0  0  0  0  0  0  0
   20.2503   69.2007   16.1083 H   0  0  0  0  0  0  0  0  0  0  0  0
   18.8320   69.9770   21.2053 H   0  0  0  0  0  0  0  0  0  0  0  0
   18.3900   68.5605   20.1929 H   0  0  0  0  0  0  0  0  0  0  0  0
   20.0789   69.1725   20.1929 H   0  0  0  0  0  0  0  0  0  0  0  0
   21.0107   76.7287   21.5898 H   0  0  0  0  0  0  0  0  0  0  0  0
   21.1699   75.5039   22.8478 H   0  0  0  0  0  0  0  0  0  0  0  0
   18.6882   76.2499   21.1759 H   0  0  0  0  0  0  0  0  0  0  0  0
   16.7521   77.3143   22.6348 H   0  0  0  0  0  0  0  0  0  0  0  0
   16.4711   75.5444   22.6335 H   0  0  0  0  0  0  0  0  0  0  0  0
   21.8639   73.9605   21.2233 H   0  0  0  0  0  0  0  0  0  0  0  0
   21.6953   75.1926   19.9634 H   0  0  0  0  0  0  0  0  0  0  0  0
   20.5424   71.9620   20.6745 H   0  0  0  0  0  0  0  0  0  0  0  0
   18.2245   72.5031   18.6457 H   0  0  0  0  0  0  0  0  0  0  0  0
   16.6990   71.7072   20.5148 H   0  0  0  0  0  0  0  0  0  0  0  0
   17.6770   72.2078   22.7586 H   0  0  0  0  0  0  0  0  0  0  0  0
   16.0850   68.4999   17.5386 H   0  0  0  0  0  0  0  0  0  0  0  0
   17.3427   67.9012   18.6138 H   0  0  0  0  0  0  0  0  0  0  0  0
   16.5084   70.2168   19.2595 H   0  0  0  0  0  0  0  0  0  0  0  0
   17.1003   70.8000   17.6236 H   0  0  0  0  0  0  0  0  0  0  0  0
   21.6492   70.2399   18.9430 H   0  0  0  0  0  0  0  0  0  0  0  0
   21.6616   70.7708   17.2085 H   0  0  0  0  0  0  0  0  0  0  0  0
   20.5877   72.8699   17.7615 H   0  0  0  0  0  0  0  0  0  0  0  0
   21.9970   72.6230   18.8981 H   0  0  0  0  0  0  0  0  0  0  0  0
   17.2205   76.3314   25.1382 H   0  0  0  0  0  0  0  0  0  0  0  0
  1 13  1  0
  1 14  1  0
  1 15  1  0
  2 14  1  0
  2 17  1  0
  3 14  1  0
  3 19  2  0
  4  5  1  0
  4  8  1  0
  4 16  1  0
  4 22  1  0
  5  6  2  0
  5 23  1  0
  6  7  1  0
  7 20  2  0
  7 21  1  0
  9 10  1  0
  9 13  1  0
 10 11  1  0
 10 14  1  0
 11 12  1  0
 11 25  2  0
 12 26  1  0
 15 16  1  0
 15 24  1  0
 16 17  1  0
 17 18  1  0
 21 22  1  0
 23 24  1  0
  1 27  1  0
  2 28  1  0
  2 29  1  0
  3 30  1  0
  6 31  1  0
  8 32  1  0
  8 33  1  0
  8 34  1  0
  9 35  1  0
  9 36  1  0
 10 37  1  0
 12 38  1  0
 12 39  1  0
 13 40  1  0
 13 41  1  0
 15 42  1  0
 16 43  1  0
 17 44  1  0
 18 45  1  0
 21 46  1  0
 21 47  1  0
 22 48  1  0
 22 49  1  0
 23 50  1  0
 23 51  1  0
 24 52  1  0
 24 53  1  0
 26 54  1  0
A    1
C1
A    2
C5
A    3
C6
A    4
C7
A    5
C8
A    6
C9
A    7
C10
A    8
C15
A    9
C16
A   10
C17
A   11
C18
A   12
C19
A   13
C20
A   14
C
A   15
C2
A   16
C3
A   17
C4
A   18
O
A   19
O1
A   20
O2
A   21
C11
A   22
C12
A   23
C13
A   24
C14
A   25
O3
A   26
O4
M  END
