2AAQ_AUP_A_601
     RDKit          3D

 48 52  0  0  0  0  0  0  0  0999 V2000
  -25.2400   -0.4160   95.5980 C   0  0  0  0  0  0  0  0  0  0  0  0
  -25.9340   -1.1910   96.5700 C   0  0  0  0  0  0  0  0  0  0  0  0
  -25.5400   -1.1310   98.0600 C   0  0  0  0  0  0  0  0  0  0  0  0
  -24.3670   -0.2010   98.4560 C   0  0  0  0  0  0  0  0  0  0  0  0
  -24.1550    0.9710   97.4850 C   0  0  0  0  0  0  0  0  0  0  0  0
  -24.0810    0.4960   96.0200 C   0  0  0  0  0  0  0  0  0  0  0  0
  -25.6960   -0.5730   94.3280 C   0  0  0  0  0  0  0  0  0  0  0  0
  -27.0740   -1.7260   94.2450 P   0  0  0  0  0  0  0  0  0  0  0  0
  -26.9350   -1.9570   96.0610 C   0  0  0  0  0  0  0  0  0  0  0  0
  -27.1400   -3.7030   97.6320 N   0  0  0  0  0  0  0  0  0  0  0  0
  -27.6500   -4.6920   98.4490 C   0  0  0  0  0  0  0  0  0  0  0  0
  -29.0330   -4.9380   98.4110 C   0  0  0  0  0  0  0  0  0  0  0  0
  -29.8260   -4.1590   97.5440 C   0  0  0  0  0  0  0  0  0  0  0  0
  -29.2750   -3.1450   96.7150 C   0  0  0  0  0  0  0  0  0  0  0  0
  -27.8750   -2.9050   96.7570 C   0  0  0  0  0  0  0  0  0  0  0  0
  -27.2500   -5.8880   92.2710 C   0  0  0  0  0  0  0  0  0  0  0  0
  -26.0380   -5.6620   92.9840 C   0  0  0  0  0  0  0  0  0  0  0  0
  -25.8200   -4.4220   93.6540 C   0  0  0  0  0  0  0  0  0  0  0  0
  -26.8300   -3.4200   93.6010 C   0  0  0  0  0  0  0  0  0  0  0  0
  -28.0430   -3.6400   92.8920 C   0  0  0  0  0  0  0  0  0  0  0  0
  -28.2530   -4.8760   92.2250 C   0  0  0  0  0  0  0  0  0  0  0  0
  -23.9120    0.2350   92.8560 N   0  0  0  0  0  0  0  0  0  0  0  0
  -25.2680    0.0210   93.0420 C   0  0  0  0  0  0  0  0  0  0  0  0
  -26.1880    0.3690   92.0090 C   0  0  0  0  0  0  0  0  0  0  0  0
  -25.6570    0.9240   90.8290 C   0  0  0  0  0  0  0  0  0  0  0  0
  -24.2650    1.1280   90.6730 C   0  0  0  0  0  0  0  0  0  0  0  0
  -23.3790    0.7740   91.7120 C   0  0  0  0  0  0  0  0  0  0  0  0
  -26.4261   -0.7998   98.6213 H   0  0  0  0  0  0  0  0  0  0  0  0
  -25.1834   -2.1447   98.2950 H   0  0  0  0  0  0  0  0  0  0  0  0
  -24.5708    0.2089   99.4562 H   0  0  0  0  0  0  0  0  0  0  0  0
  -23.4510   -0.8095   98.4313 H   0  0  0  0  0  0  0  0  0  0  0  0
  -24.9936    1.6753   97.5888 H   0  0  0  0  0  0  0  0  0  0  0  0
  -23.1991    1.4538   97.7361 H   0  0  0  0  0  0  0  0  0  0  0  0
  -23.1395   -0.0561   95.8830 H   0  0  0  0  0  0  0  0  0  0  0  0
  -24.1408    1.3965   95.3912 H   0  0  0  0  0  0  0  0  0  0  0  0
  -26.9913   -5.2720   99.1121 H   0  0  0  0  0  0  0  0  0  0  0  0
  -29.4850   -5.7180   99.0413 H   0  0  0  0  0  0  0  0  0  0  0  0
  -30.9100   -4.3427   97.5080 H   0  0  0  0  0  0  0  0  0  0  0  0
  -29.9227   -2.5544   96.0504 H   0  0  0  0  0  0  0  0  0  0  0  0
  -27.4125   -6.8456   91.7546 H   0  0  0  0  0  0  0  0  0  0  0  0
  -25.2676   -6.4464   93.0180 H   0  0  0  0  0  0  0  0  0  0  0  0
  -24.8845   -4.2423   94.2041 H   0  0  0  0  0  0  0  0  0  0  0  0
  -28.8147   -2.8567   92.8604 H   0  0  0  0  0  0  0  0  0  0  0  0
  -29.1883   -5.0523   91.6736 H   0  0  0  0  0  0  0  0  0  0  0  0
  -27.2698    0.2100   92.1295 H   0  0  0  0  0  0  0  0  0  0  0  0
  -26.3377    1.2048   90.0118 H   0  0  0  0  0  0  0  0  0  0  0  0
  -23.8740    1.5627   89.7412 H   0  0  0  0  0  0  0  0  0  0  0  0
  -22.2944    0.9253   91.6084 H   0  0  0  0  0  0  0  0  0  0  0  0
  1  2  1  0
  1  6  1  0
  1  7  2  0
  2  3  1  0
  2  9  2  0
  3  4  1  0
  4  5  1  0
  5  6  1  0
  7  8  1  0
  7 23  1  0
  8  9  1  0
  8 19  1  0
  9 15  1  0
 10 11  2  0
 10 15  1  0
 11 12  1  0
 12 13  2  0
 13 14  1  0
 14 15  2  0
 16 17  2  0
 16 21  1  0
 17 18  1  0
 18 19  2  0
 19 20  1  0
 20 21  2  0
 22 23  2  0
 22 27  1  0
 23 24  1  0
 24 25  2  0
 25 26  1  0
 26 27  2  0
  3 28  1  0
  3 29  1  0
  4 30  1  0
  4 31  1  0
  5 32  1  0
  5 33  1  0
  6 34  1  0
  6 35  1  0
 11 36  1  0
 12 37  1  0
 13 38  1  0
 14 39  1  0
 16 40  1  0
 17 41  1  0
 18 42  1  0
 20 43  1  0
 21 44  1  0
 24 45  1  0
 25 46  1  0
 26 47  1  0
 27 48  1  0
A    1
C1
A    2
C2
A    3
C3
A    4
C4
A    5
C5
A    6
C6
A    7
C7
A    8
P
A    9
C9
A   10
N14
A   11
C15
A   12
C16
A   13
C17
A   14
C18
A   15
C19
A   16
C24
A   17
C25
A   18
C26
A   19
C27
A   20
C28
A   21
C29
A   22
N35
A   23
C36
A   24
C37
A   25
C38
A   26
C39
A   27
C40
M  END
