1OXN_P33_D_1300
     RDKit          3D

 52 51  0  0  0  0  0  0  0  0999 V2000
  -17.8670   71.7220   -0.8180 O   0  0  0  0  0  0  0  0  0  0  0  0
  -18.0310   70.3230   -0.5710 C   0  0  0  0  0  0  0  0  0  0  0  0
  -18.5320   70.0740    0.8380 C   0  0  0  0  0  0  0  0  0  0  0  0
  -18.0030   68.8840    1.4270 O   0  0  0  0  0  0  0  0  0  0  0  0
  -18.2390   68.7940    2.8460 C   0  0  0  0  0  0  0  0  0  0  0  0
  -17.2790   67.8110    3.5270 C   0  0  0  0  0  0  0  0  0  0  0  0
  -17.2000   67.8980    4.9590 O   0  0  0  0  0  0  0  0  0  0  0  0
  -16.1360   68.7400    5.4330 C   0  0  0  0  0  0  0  0  0  0  0  0
  -16.5700   70.2030    5.3820 C   0  0  0  0  0  0  0  0  0  0  0  0
  -15.9260   71.0230    6.3520 O   0  0  0  0  0  0  0  0  0  0  0  0
  -16.7690   71.2710    7.4780 C   0  0  0  0  0  0  0  0  0  0  0  0
  -17.3770   72.6630    7.4970 C   0  0  0  0  0  0  0  0  0  0  0  0
  -18.1930   72.7540    8.6730 O   0  0  0  0  0  0  0  0  0  0  0  0
  -19.5310   73.1620    8.3460 C   0  0  0  0  0  0  0  0  0  0  0  0
  -20.5660   72.6600    9.3590 C   0  0  0  0  0  0  0  0  0  0  0  0
  -21.6930   73.5500    9.3650 O   0  0  0  0  0  0  0  0  0  0  0  0
  -22.7580   73.0670   10.1770 C   0  0  0  0  0  0  0  0  0  0  0  0
  -23.3740   74.1970   10.9850 C   0  0  0  0  0  0  0  0  0  0  0  0
  -22.9830   73.9860   12.3380 O   0  0  0  0  0  0  0  0  0  0  0  0
  -23.4030   74.9850   13.2600 C   0  0  0  0  0  0  0  0  0  0  0  0
  -22.3670   76.0960   13.3860 C   0  0  0  0  0  0  0  0  0  0  0  0
  -21.6570   75.9950   14.6070 O   0  0  0  0  0  0  0  0  0  0  0  0
  -17.8104   72.2049    0.0444 H   0  0  0  0  0  0  0  0  0  0  0  0
  -18.7576   69.9140   -1.2885 H   0  0  0  0  0  0  0  0  0  0  0  0
  -17.0545   69.8302   -0.6874 H   0  0  0  0  0  0  0  0  0  0  0  0
  -18.2462   70.9306    1.4661 H   0  0  0  0  0  0  0  0  0  0  0  0
  -19.6231   69.9486    0.7770 H   0  0  0  0  0  0  0  0  0  0  0  0
  -18.1030   69.7901    3.2925 H   0  0  0  0  0  0  0  0  0  0  0  0
  -19.2648   68.4268    2.9971 H   0  0  0  0  0  0  0  0  0  0  0  0
  -17.6021   66.7917    3.2690 H   0  0  0  0  0  0  0  0  0  0  0  0
  -16.2761   68.0721    3.1581 H   0  0  0  0  0  0  0  0  0  0  0  0
  -15.8902   68.4683    6.4702 H   0  0  0  0  0  0  0  0  0  0  0  0
  -15.2519   68.6017    4.7932 H   0  0  0  0  0  0  0  0  0  0  0  0
  -16.3386   70.5997    4.3825 H   0  0  0  0  0  0  0  0  0  0  0  0
  -17.6473   70.2277    5.6029 H   0  0  0  0  0  0  0  0  0  0  0  0
  -17.5872   70.5358    7.4667 H   0  0  0  0  0  0  0  0  0  0  0  0
  -16.1374   71.1862    8.3746 H   0  0  0  0  0  0  0  0  0  0  0  0
  -16.5810   73.4214    7.5312 H   0  0  0  0  0  0  0  0  0  0  0  0
  -17.9763   72.8395    6.5916 H   0  0  0  0  0  0  0  0  0  0  0  0
  -19.5676   74.2611    8.3206 H   0  0  0  0  0  0  0  0  0  0  0  0
  -19.7827   72.7243    7.3687 H   0  0  0  0  0  0  0  0  0  0  0  0
  -20.8969   71.6497    9.0766 H   0  0  0  0  0  0  0  0  0  0  0  0
  -20.1154   72.6284   10.3620 H   0  0  0  0  0  0  0  0  0  0  0  0
  -23.5301   72.6218    9.5323 H   0  0  0  0  0  0  0  0  0  0  0  0
  -22.3587   72.3132   10.8715 H   0  0  0  0  0  0  0  0  0  0  0  0
  -22.9993   75.1676   10.6280 H   0  0  0  0  0  0  0  0  0  0  0  0
  -24.4693   74.2071   10.8843 H   0  0  0  0  0  0  0  0  0  0  0  0
  -24.3518   75.4183   12.9107 H   0  0  0  0  0  0  0  0  0  0  0  0
  -23.5285   74.5150   14.2466 H   0  0  0  0  0  0  0  0  0  0  0  0
  -21.6562   76.0209   12.5499 H   0  0  0  0  0  0  0  0  0  0  0  0
  -22.8887   77.0642   13.3643 H   0  0  0  0  0  0  0  0  0  0  0  0
  -22.2883   76.0848   15.3643 H   0  0  0  0  0  0  0  0  0  0  0  0
  1  2  1  0
  2  3  1  0
  3  4  1  0
  4  5  1  0
  5  6  1  0
  6  7  1  0
  7  8  1  0
  8  9  1  0
  9 10  1  0
 10 11  1  0
 11 12  1  0
 12 13  1  0
 13 14  1  0
 14 15  1  0
 15 16  1  0
 16 17  1  0
 17 18  1  0
 18 19  1  0
 19 20  1  0
 20 21  1  0
 21 22  1  0
  1 23  1  0
  2 24  1  0
  2 25  1  0
  3 26  1  0
  3 27  1  0
  5 28  1  0
  5 29  1  0
  6 30  1  0
  6 31  1  0
  8 32  1  0
  8 33  1  0
  9 34  1  0
  9 35  1  0
 11 36  1  0
 11 37  1  0
 12 38  1  0
 12 39  1  0
 14 40  1  0
 14 41  1  0
 15 42  1  0
 15 43  1  0
 17 44  1  0
 17 45  1  0
 18 46  1  0
 18 47  1  0
 20 48  1  0
 20 49  1  0
 21 50  1  0
 21 51  1  0
 22 52  1  0
A    1
O22
A    2
C21
A    3
C20
A    4
O19
A    5
C18
A    6
C17
A    7
O16
A    8
C15
A    9
C14
A   10
O13
A   11
C12
A   12
C11
A   13
O10
A   14
C9
A   15
C8
A   16
O7
A   17
C6
A   18
C5
A   19
O4
A   20
C3
A   21
C2
A   22
O1
M  END
