2ABJ_CBC_A_1401
     RDKit          3D

 37 39  0  0  0  0  0  0  0  0999 V2000
   32.8050   61.6220   93.1020 F   0  0  0  0  0  0  0  0  0  0  0  0
   31.5070   61.3680   93.2000 C   0  0  0  0  0  0  0  0  0  0  0  0
   30.9600   61.3720   91.9970 F   0  0  0  0  0  0  0  0  0  0  0  0
   31.3590   60.1640   93.7230 F   0  0  0  0  0  0  0  0  0  0  0  0
   30.8280   62.3860   94.0950 C   0  0  0  0  0  0  0  0  0  0  0  0
   30.3930   61.9080   95.3370 C   0  0  0  0  0  0  0  0  0  0  0  0
   29.7520   62.7240   96.2660 C   0  0  0  0  0  0  0  0  0  0  0  0
   29.5430   64.0580   95.9470 C   0  0  0  0  0  0  0  0  0  0  0  0
   29.9750   64.5490   94.7120 C   0  0  0  0  0  0  0  0  0  0  0  0
   30.6240   63.7440   93.7680 C   0  0  0  0  0  0  0  0  0  0  0  0
   31.0510   64.4790   92.3840 S   0  0  0  0  0  0  0  0  0  0  0  0
   31.4520   65.8270   92.6580 O   0  0  0  0  0  0  0  0  0  0  0  0
   32.1160   63.8000   91.6950 O   0  0  0  0  0  0  0  0  0  0  0  0
   29.7420   64.5920   91.4590 N   0  0  0  0  0  0  0  0  0  0  0  0
   29.1990   63.4270   90.9190 N   0  0  0  0  0  0  0  0  0  0  0  0
   29.3570   63.1490   89.6280 C   0  0  0  0  0  0  0  0  0  0  0  0
   30.0550   63.8260   88.8860 O   0  0  0  0  0  0  0  0  0  0  0  0
   28.5640   62.0160   89.0750 C   0  0  0  0  0  0  0  0  0  0  0  0
   27.6330   61.1440   89.6510 C   0  0  0  0  0  0  0  0  0  0  0  0
   28.7140   61.7820   87.7250 O   0  0  0  0  0  0  0  0  0  0  0  0
   27.8580   60.7110   87.4050 C   0  0  0  0  0  0  0  0  0  0  0  0
   27.2110   60.3200   88.5510 C   0  0  0  0  0  0  0  0  0  0  0  0
   26.2980   59.2730   88.5060 C   0  0  0  0  0  0  0  0  0  0  0  0
   27.6600   60.1130   86.1650 C   0  0  0  0  0  0  0  0  0  0  0  0
   26.7530   59.0550   86.1140 C   0  0  0  0  0  0  0  0  0  0  0  0
   26.0820   58.6490   87.2720 C   0  0  0  0  0  0  0  0  0  0  0  0
   24.9180   57.2960   87.1610 Cl  0  0  0  0  0  0  0  0  0  0  0  0
   30.5635   60.8507   95.5879 H   0  0  0  0  0  0  0  0  0  0  0  0
   29.4183   62.3191   97.2328 H   0  0  0  0  0  0  0  0  0  0  0  0
   29.0400   64.7254   96.6622 H   0  0  0  0  0  0  0  0  0  0  0  0
   29.7985   65.6080   94.4725 H   0  0  0  0  0  0  0  0  0  0  0  0
   29.0060   65.0334   92.0285 H   0  0  0  0  0  0  0  0  0  0  0  0
   28.6732   62.7788   91.5225 H   0  0  0  0  0  0  0  0  0  0  0  0
   27.3019   61.0996   90.6991 H   0  0  0  0  0  0  0  0  0  0  0  0
   25.7632   58.9458   89.4098 H   0  0  0  0  0  0  0  0  0  0  0  0
   28.1935   60.4582   85.2671 H   0  0  0  0  0  0  0  0  0  0  0  0
   26.5649   58.5387   85.1611 H   0  0  0  0  0  0  0  0  0  0  0  0
  1  2  1  0
  2  3  1  0
  2  4  1  0
  2  5  1  0
  5  6  2  0
  5 10  1  0
  6  7  1  0
  7  8  2  0
  8  9  1  0
  9 10  2  0
 10 11  1  0
 11 12  2  0
 11 13  2  0
 11 14  1  0
 14 15  1  0
 15 16  1  0
 16 17  2  0
 16 18  1  0
 18 19  2  0
 18 20  1  0
 19 22  1  0
 20 21  1  0
 21 22  2  0
 21 24  1  0
 22 23  1  0
 23 26  2  0
 24 25  2  0
 25 26  1  0
 26 27  1  0
  6 28  1  0
  7 29  1  0
  8 30  1  0
  9 31  1  0
 14 32  1  0
 15 33  1  0
 19 34  1  0
 23 35  1  0
 24 36  1  0
 25 37  1  0
A    1
F49
A    2
C46
A    3
F50
A    4
F51
A    5
C41
A    6
C42
A    7
C43
A    8
C44
A    9
C45
A   10
C40
A   11
S1
A   12
O38
A   13
O39
A   14
N33
A   15
N32
A   16
C39
A   17
O37
A   18
C54
A   19
C53
A   20
O40
A   21
C51
A   22
C50
A   23
C49
A   24
C52
A   25
C47
A   26
C48
A   27
CL1
M  END
