2AEI_03R_H_500
     RDKit          3D

 65 68  0  0  0  0  0  0  0  0999 V2000
   31.1030    7.3540    7.1980 C   0  0  0  0  0  0  0  0  0  0  0  0
   30.6150    7.4150    8.4910 N   0  0  0  0  0  0  0  0  0  0  0  0
   32.3180    8.0170    6.9030 C   0  0  0  0  0  0  0  0  0  0  0  0
   30.5370    6.6820    6.1530 O   0  0  0  0  0  0  0  0  0  0  0  0
   31.2940    8.1120    9.4690 C   0  0  0  0  0  0  0  0  0  0  0  0
   33.0170    8.7220    7.8920 C   0  0  0  0  0  0  0  0  0  0  0  0
   32.7690    7.9620    5.6870 F   0  0  0  0  0  0  0  0  0  0  0  0
   29.3380    6.0330    6.1020 C   0  0  0  0  0  0  0  0  0  0  0  0
   32.4940    8.7450    9.1580 C   0  0  0  0  0  0  0  0  0  0  0  0
   30.9660    8.3450   10.7460 O   0  0  0  0  0  0  0  0  0  0  0  0
   34.1740    9.3640    7.5720 N   0  0  0  0  0  0  0  0  0  0  0  0
   28.0330    6.5320    6.5030 C   0  0  0  0  0  0  0  0  0  0  0  0
   29.4680    4.7020    5.6420 C   0  0  0  0  0  0  0  0  0  0  0  0
   33.0910    9.3930   10.1100 F   0  0  0  0  0  0  0  0  0  0  0  0
   29.9970    7.9580   11.5720 C   0  0  0  0  0  0  0  0  0  0  0  0
   34.5550   10.7410    7.8440 C   0  0  0  0  0  0  0  0  0  0  0  0
   26.9310    5.6400    6.4530 C   0  0  0  0  0  0  0  0  0  0  0  0
   27.7730    7.8590    6.8620 C   0  0  0  0  0  0  0  0  0  0  0  0
   28.3530    3.8510    5.5900 C   0  0  0  0  0  0  0  0  0  0  0  0
   30.3060    7.4020   12.8360 C   0  0  0  0  0  0  0  0  0  0  0  0
   28.6570    8.1980   11.2400 C   0  0  0  0  0  0  0  0  0  0  0  0
   35.7970   10.8260    8.7390 C   0  0  0  0  0  0  0  0  0  0  0  0
   33.4210   11.6160    8.4500 C   0  0  0  0  0  0  0  0  0  0  0  0
   27.0870    4.3160    6.0110 C   0  0  0  0  0  0  0  0  0  0  0  0
   26.8420    8.1470    7.6380 O   0  0  0  0  0  0  0  0  0  0  0  0
   28.5070    8.8810    6.3850 O   0  0  0  0  0  0  0  0  0  0  0  0
   29.2820    7.0790   13.7620 C   0  0  0  0  0  0  0  0  0  0  0  0
   27.6500    7.8910   12.1190 C   0  0  0  0  0  0  0  0  0  0  0  0
   36.7450    9.6040    8.8150 C   0  0  0  0  0  0  0  0  0  0  0  0
   27.9590    7.3420   13.3690 C   0  0  0  0  0  0  0  0  0  0  0  0
   29.5460    6.5410   15.0410 C   0  0  0  0  0  0  0  0  0  0  0  0
   36.6190    8.7820   10.0360 C   0  0  0  0  0  0  0  0  0  0  0  0
   29.1370    7.1670   16.1610 N   0  0  0  0  0  0  0  0  0  0  0  0
   30.2120    5.3850   15.2490 N   0  0  0  0  0  0  0  0  0  0  0  0
   35.6290    7.7720   10.1260 C   0  0  0  0  0  0  0  0  0  0  0  0
   37.4850    8.9910   11.1430 C   0  0  0  0  0  0  0  0  0  0  0  0
   35.5030    6.9900   11.2860 C   0  0  0  0  0  0  0  0  0  0  0  0
   37.3600    8.2070   12.3080 C   0  0  0  0  0  0  0  0  0  0  0  0
   36.3690    7.2070   12.3810 C   0  0  0  0  0  0  0  0  0  0  0  0
   34.8734    8.7987    7.0699 H   0  0  0  0  0  0  0  0  0  0  0  0
   30.4525    4.3301    5.3219 H   0  0  0  0  0  0  0  0  0  0  0  0
   34.7836   11.1560    6.8513 H   0  0  0  0  0  0  0  0  0  0  0  0
   25.9368    5.9915    6.7659 H   0  0  0  0  0  0  0  0  0  0  0  0
   28.4650    2.8208    5.2210 H   0  0  0  0  0  0  0  0  0  0  0  0
   31.3567    7.2175   13.1043 H   0  0  0  0  0  0  0  0  0  0  0  0
   28.4098    8.6379   10.2626 H   0  0  0  0  0  0  0  0  0  0  0  0
   36.3950   11.6777    8.3826 H   0  0  0  0  0  0  0  0  0  0  0  0
   35.3873   10.9093    9.7564 H   0  0  0  0  0  0  0  0  0  0  0  0
   33.4736   11.5754    9.5480 H   0  0  0  0  0  0  0  0  0  0  0  0
   33.5423   12.6568    8.1153 H   0  0  0  0  0  0  0  0  0  0  0  0
   32.4450   11.2346    8.1153 H   0  0  0  0  0  0  0  0  0  0  0  0
   26.2205    3.6387    5.9925 H   0  0  0  0  0  0  0  0  0  0  0  0
   28.9543    9.5038    7.0112 H   0  0  0  0  0  0  0  0  0  0  0  0
   26.6016    8.0758   11.8423 H   0  0  0  0  0  0  0  0  0  0  0  0
   36.5381    8.9590    7.9483 H   0  0  0  0  0  0  0  0  0  0  0  0
   37.7665   10.0119    8.8271 H   0  0  0  0  0  0  0  0  0  0  0  0
   27.1401    7.1091   14.0656 H   0  0  0  0  0  0  0  0  0  0  0  0
   29.3403    6.7569   17.0837 H   0  0  0  0  0  0  0  0  0  0  0  0
   30.3974    5.0632   16.2097 H   0  0  0  0  0  0  0  0  0  0  0  0
   30.5346    4.8250   14.4470 H   0  0  0  0  0  0  0  0  0  0  0  0
   34.9511    7.5984    9.2773 H   0  0  0  0  0  0  0  0  0  0  0  0
   38.2591    9.7707   11.0905 H   0  0  0  0  0  0  0  0  0  0  0  0
   34.7304    6.2090   11.3418 H   0  0  0  0  0  0  0  0  0  0  0  0
   38.0354    8.3755   13.1597 H   0  0  0  0  0  0  0  0  0  0  0  0
   36.2700    6.5959   13.2902 H   0  0  0  0  0  0  0  0  0  0  0  0
  1  2  2  0
  1  3  1  0
  1  4  1  0
  2  5  1  0
  3  6  2  0
  3  7  1  0
  4  8  1  0
  5  9  2  0
  5 10  1  0
  6  9  1  0
  6 11  1  0
  8 12  2  0
  8 13  1  0
  9 14  1  0
 10 15  1  0
 11 16  1  0
 12 17  1  0
 12 18  1  0
 13 19  2  0
 15 20  2  0
 15 21  1  0
 16 22  1  0
 16 23  1  0
 17 24  2  0
 18 25  2  0
 18 26  1  0
 19 24  1  0
 20 27  1  0
 21 28  2  0
 22 29  1  0
 27 30  2  0
 27 31  1  0
 28 30  1  0
 29 32  1  0
 31 33  2  3
 31 34  1  0
 32 35  2  0
 32 36  1  0
 35 37  1  0
 36 38  2  0
 37 39  2  0
 38 39  1  0
 11 40  1  0
 13 41  1  0
 16 42  1  0
 17 43  1  0
 19 44  1  0
 20 45  1  0
 21 46  1  0
 22 47  1  0
 22 48  1  0
 23 49  1  0
 23 50  1  0
 23 51  1  0
 24 52  1  0
 26 53  1  0
 28 54  1  0
 29 55  1  0
 29 56  1  0
 30 57  1  0
 33 58  1  0
 34 59  1  0
 34 60  1  0
 35 61  1  0
 36 62  1  0
 37 63  1  0
 38 64  1  0
 39 65  1  0
A    1
C1
A    2
N2
A    3
C3
A    4
O4
A    5
C5
A    6
C6
A    7
F7
A    8
C8
A    9
C9
A   10
O10
A   11
N11
A   12
C12
A   13
C13
A   14
F14
A   15
C15
A   16
C16
A   17
C17
A   18
C18
A   19
C19
A   20
C20
A   21
C21
A   22
C22
A   23
C23
A   24
C24
A   25
O25
A   26
O26
A   27
C27
A   28
C28
A   29
C29
A   30
C30
A   31
C31
A   32
C32
A   33
N33
A   34
N34
A   35
C35
A   36
C36
A   37
C37
A   38
C38
A   39
C39
M  END
