2AFW_AHN_A_1501
     RDKit          3D

 22 22  0  0  0  0  0  0  0  0999 V2000
  -10.6340    3.7040   22.2280 C   0  0  0  0  0  0  0  0  0  0  0  0
   -9.4450    3.2680   22.3360 O   0  0  0  0  0  0  0  0  0  0  0  0
  -10.9250    5.0500   21.5860 C   0  0  0  0  0  0  0  0  0  0  0  0
  -11.7100    3.0280   22.6420 N   0  0  0  0  0  0  0  0  0  0  0  0
  -13.0590    3.5540   22.5200 C   0  0  0  0  0  0  0  0  0  0  0  0
  -13.9840    2.5390   21.8030 C   0  0  0  0  0  0  0  0  0  0  0  0
  -15.4400    2.8980   21.8790 C   0  0  0  0  0  0  0  0  0  0  0  0
  -16.0610    4.0820   22.0860 C   0  0  0  0  0  0  0  0  0  0  0  0
  -16.4430    1.9670   21.7190 N   0  0  0  0  0  0  0  0  0  0  0  0
  -17.6210    2.5610   21.8050 C   0  0  0  0  0  0  0  0  0  0  0  0
  -17.4180    3.8480   22.0270 N   0  0  0  0  0  0  0  0  0  0  0  0
  -11.0878    5.8031   22.3710 H   0  0  0  0  0  0  0  0  0  0  0  0
  -10.0711    5.3505   20.9611 H   0  0  0  0  0  0  0  0  0  0  0  0
  -11.8268    4.9709   20.9611 H   0  0  0  0  0  0  0  0  0  0  0  0
  -11.5778    2.0978   23.0641 H   0  0  0  0  0  0  0  0  0  0  0  0
  -13.4583    3.7584   23.5244 H   0  0  0  0  0  0  0  0  0  0  0  0
  -13.0237    4.4789   21.9257 H   0  0  0  0  0  0  0  0  0  0  0  0
  -13.6923    2.4902   20.7435 H   0  0  0  0  0  0  0  0  0  0  0  0
  -13.8619    1.5727   22.3143 H   0  0  0  0  0  0  0  0  0  0  0  0
  -15.5735    5.0512   22.2676 H   0  0  0  0  0  0  0  0  0  0  0  0
  -18.6003    2.0693   21.7085 H   0  0  0  0  0  0  0  0  0  0  0  0
  -18.1539    4.5600   22.1378 H   0  0  0  0  0  0  0  0  0  0  0  0
  1  2  2  0
  1  3  1  0
  1  4  1  0
  4  5  1  0
  5  6  1  0
  6  7  1  0
  7  8  2  0
  7  9  1  0
  8 11  1  0
  9 10  2  0
 10 11  1  0
  3 12  1  0
  3 13  1  0
  3 14  1  0
  4 15  1  0
  5 16  1  0
  5 17  1  0
  6 18  1  0
  6 19  1  0
  8 20  1  0
 10 21  1  0
 11 22  1  0
A    1
C
A    2
O
A    3
CT
A    4
N
A    5
CA
A    6
CB
A    7
CG
A    8
CD2
A    9
ND1
A   10
CE1
A   11
NE2
M  END
