2AG6_4BF_A_315
     RDKit          3D

 23 23  0  0  0  0  0  0  0  0999 V2000
   75.2340   41.7080   -4.3490 C   0  0  0  0  0  0  0  0  0  0  0  0
   75.2010   42.7220   -5.2640 C   0  0  0  0  0  0  0  0  0  0  0  0
   74.1780   42.7010   -6.1920 C   0  0  0  0  0  0  0  0  0  0  0  0
   74.1500   44.0250   -7.4630 Br  0  0  0  0  0  0  0  0  0  0  0  0
   73.2260   41.7280   -6.2600 C   0  0  0  0  0  0  0  0  0  0  0  0
   73.2650   40.7200   -5.3020 C   0  0  0  0  0  0  0  0  0  0  0  0
   74.2670   40.7220   -4.3620 C   0  0  0  0  0  0  0  0  0  0  0  0
   74.3160   39.6290   -3.3230 C   0  0  0  0  0  0  0  0  0  0  0  0
   75.6790   39.0450   -3.0780 C   0  0  0  0  0  0  0  0  0  0  0  0
   76.1980   38.4570   -4.3330 N   0  0  0  0  0  0  0  0  0  0  0  0
   75.5090   37.9220   -2.0960 C   0  0  0  0  0  0  0  0  0  0  0  0
   74.9750   38.4290   -0.8830 O   0  0  0  0  0  0  0  0  0  0  0  0
   76.4080   37.1160   -1.9210 O   0  0  0  0  0  0  0  0  0  0  0  0
   76.0361   41.6767   -3.5969 H   0  0  0  0  0  0  0  0  0  0  0  0
   75.9569   43.5211   -5.2618 H   0  0  0  0  0  0  0  0  0  0  0  0
   72.4546   41.7393   -7.0441 H   0  0  0  0  0  0  0  0  0  0  0  0
   72.5008   39.9288   -5.2972 H   0  0  0  0  0  0  0  0  0  0  0  0
   73.9472   40.0442   -2.3735 H   0  0  0  0  0  0  0  0  0  0  0  0
   73.6955   38.8080   -3.7115 H   0  0  0  0  0  0  0  0  0  0  0  0
   76.3662   39.8218   -2.7115 H   0  0  0  0  0  0  0  0  0  0  0  0
   76.8634   37.7032   -4.1095 H   0  0  0  0  0  0  0  0  0  0  0  0
   75.4154   38.0728   -4.8815 H   0  0  0  0  0  0  0  0  0  0  0  0
   75.3202   38.1012   -0.0150 H   0  0  0  0  0  0  0  0  0  0  0  0
  1  2  2  0
  1  7  1  0
  2  3  1  0
  3  4  1  0
  3  5  2  0
  5  6  1  0
  6  7  2  0
  7  8  1  0
  8  9  1  0
  9 10  1  0
  9 11  1  0
 11 12  1  0
 11 13  2  0
  1 14  1  0
  2 15  1  0
  5 16  1  0
  6 17  1  0
  8 18  1  0
  8 19  1  0
  9 20  1  0
 10 21  1  0
 10 22  1  0
 12 23  1  0
A    1
CD1
A    2
CE1
A    3
CZ
A    4
BR
A    5
CE2
A    6
CD2
A    7
CG
A    8
CB
A    9
CA
A   10
N
A   11
C
A   12
OXT
A   13
O
M  END
