1IWO_TG1_A_1001
     RDKit          3D

 96 98  0  0  0  0  0  0  0  0999 V2000
   -4.7560  -25.4280   16.5200 C   0  0  0  0  0  0  0  0  0  0  0  0
   -3.9110  -25.2020   15.2150 C   0  0  0  0  0  0  0  0  0  0  0  0
   -4.7930  -25.2240   13.8920 C   0  0  0  0  0  0  0  0  0  0  0  0
   -5.6360  -23.8940   13.6420 C   0  0  0  0  0  0  0  0  0  0  0  0
   -6.5120  -23.9090   12.3670 C   0  0  0  0  0  0  0  0  0  0  0  0
   -5.8760  -24.2380   10.9580 C   0  0  0  0  0  0  0  0  0  0  0  0
   -5.1500  -25.6590   10.7120 C   0  0  0  0  0  0  0  0  0  0  0  0
   -4.8610  -25.9670    9.1910 C   0  0  0  0  0  0  0  0  0  0  0  0
   -5.1840  -27.3350    8.8360 O   0  0  0  0  0  0  0  0  0  0  0  0
   -5.6400  -27.4830    7.4890 C   0  0  0  0  0  0  0  0  0  0  0  0
   -6.0480  -26.5960    6.7450 O   0  0  0  0  0  0  0  0  0  0  0  0
   -5.4930  -28.9580    7.0610 C   0  0  0  0  0  0  0  0  0  0  0  0
   -4.8160  -29.1870    5.7030 C   0  0  0  0  0  0  0  0  0  0  0  0
   -5.6160  -28.8030    4.4390 C   0  0  0  0  0  0  0  0  0  0  0  0
   -4.7570  -28.0550    3.3850 C   0  0  0  0  0  0  0  0  0  0  0  0
   -4.4280  -28.9270    2.1510 C   0  0  0  0  0  0  0  0  0  0  0  0
   -4.7350  -28.2840    0.8020 C   0  0  0  0  0  0  0  0  0  0  0  0
   -6.0860  -28.8100    0.3100 C   0  0  0  0  0  0  0  0  0  0  0  0
   -3.3400  -25.9140    8.9940 C   0  0  0  0  0  0  0  0  0  0  0  0
   -3.2190  -24.5750    8.3140 O   0  0  0  0  0  0  0  0  0  0  0  0
   -2.3440  -24.4220    7.3120 C   0  0  0  0  0  0  0  0  0  0  0  0
   -1.3640  -25.2690    7.0250 O   0  0  0  0  0  0  0  0  0  0  0  0
   -2.7840  -23.3360    6.2560 C   0  0  0  0  0  0  0  0  0  0  0  0
   -3.5130  -24.0000    5.1430 C   0  0  0  0  0  0  0  0  0  0  0  0
   -2.5960  -22.0260    6.1810 C   0  0  0  0  0  0  0  0  0  0  0  0
   -1.9060  -21.0850    7.1290 C   0  0  0  0  0  0  0  0  0  0  0  0
   -2.7950  -25.8700   10.4180 C   0  0  0  0  0  0  0  0  0  0  0  0
   -1.3020  -25.8590   10.6100 C   0  0  0  0  0  0  0  0  0  0  0  0
   -3.7720  -25.7430   11.3540 C   0  0  0  0  0  0  0  0  0  0  0  0
   -3.6260  -25.5420   12.9070 C   0  0  0  0  0  0  0  0  0  0  0  0
   -3.0120  -26.6660   13.5810 O   0  0  0  0  0  0  0  0  0  0  0  0
   -2.9270  -26.3330   14.8980 C   0  0  0  0  0  0  0  0  0  0  0  0
   -2.1720  -26.8450   15.7280 O   0  0  0  0  0  0  0  0  0  0  0  0
   -5.0250  -23.0010   10.5050 C   0  0  0  0  0  0  0  0  0  0  0  0
   -7.0120  -24.0380   10.0090 O   0  0  0  0  0  0  0  0  0  0  0  0
   -8.1680  -24.6950    9.7500 C   0  0  0  0  0  0  0  0  0  0  0  0
   -8.4580  -25.8190   10.1310 O   0  0  0  0  0  0  0  0  0  0  0  0
   -9.0280  -23.8650    8.9000 C   0  0  0  0  0  0  0  0  0  0  0  0
   -4.7780  -22.6910   13.7680 O   0  0  0  0  0  0  0  0  0  0  0  0
   -4.8620  -21.8520   14.9080 C   0  0  0  0  0  0  0  0  0  0  0  0
   -5.6530  -21.9130   15.8470 O   0  0  0  0  0  0  0  0  0  0  0  0
   -3.7260  -20.8790   14.8630 C   0  0  0  0  0  0  0  0  0  0  0  0
   -4.2550  -19.4650   15.1050 C   0  0  0  0  0  0  0  0  0  0  0  0
   -3.0920  -18.6590   15.6320 C   0  0  0  0  0  0  0  0  0  0  0  0
   -5.6960  -26.3960   13.9030 O   0  0  0  0  0  0  0  0  0  0  0  0
   -2.9620  -24.1090   15.4390 O   0  0  0  0  0  0  0  0  0  0  0  0
   -4.1210  -25.2582   17.4020 H   0  0  0  0  0  0  0  0  0  0  0  0
   -5.6014  -24.7244   16.5359 H   0  0  0  0  0  0  0  0  0  0  0  0
   -5.1373  -26.4597   16.5359 H   0  0  0  0  0  0  0  0  0  0  0  0
   -6.3840  -23.8488   14.4472 H   0  0  0  0  0  0  0  0  0  0  0  0
   -7.3027  -24.6545   12.5372 H   0  0  0  0  0  0  0  0  0  0  0  0
   -6.8122  -22.8560   12.2620 H   0  0  0  0  0  0  0  0  0  0  0  0
   -5.8683  -26.3675   11.1502 H   0  0  0  0  0  0  0  0  0  0  0  0
   -5.4485  -25.2503    8.5984 H   0  0  0  0  0  0  0  0  0  0  0  0
   -4.8983  -29.4758    7.8279 H   0  0  0  0  0  0  0  0  0  0  0  0
   -6.5170  -29.3461    6.9575 H   0  0  0  0  0  0  0  0  0  0  0  0
   -3.8847  -28.6016    5.6952 H   0  0  0  0  0  0  0  0  0  0  0  0
   -4.6841  -30.2768    5.6334 H   0  0  0  0  0  0  0  0  0  0  0  0
   -6.0116  -29.7217    3.9814 H   0  0  0  0  0  0  0  0  0  0  0  0
   -6.4213  -28.1222    4.7521 H   0  0  0  0  0  0  0  0  0  0  0  0
   -5.3094  -27.1650    3.0491 H   0  0  0  0  0  0  0  0  0  0  0  0
   -3.8039  -27.7872    3.8646 H   0  0  0  0  0  0  0  0  0  0  0  0
   -3.3543  -29.1646    2.1785 H   0  0  0  0  0  0  0  0  0  0  0  0
   -5.0756  -29.8134    2.2216 H   0  0  0  0  0  0  0  0  0  0  0  0
   -4.7808  -27.1907    0.9138 H   0  0  0  0  0  0  0  0  0  0  0  0
   -3.9464  -28.5337    0.0770 H   0  0  0  0  0  0  0  0  0  0  0  0
   -6.7201  -29.0569    1.1743 H   0  0  0  0  0  0  0  0  0  0  0  0
   -6.5801  -28.0386   -0.2989 H   0  0  0  0  0  0  0  0  0  0  0  0
   -5.9284  -29.7125   -0.2989 H   0  0  0  0  0  0  0  0  0  0  0  0
   -2.8359  -26.7182    8.4379 H   0  0  0  0  0  0  0  0  0  0  0  0
   -4.2666  -24.6864    5.5563 H   0  0  0  0  0  0  0  0  0  0  0  0
   -4.0106  -23.2384    4.5247 H   0  0  0  0  0  0  0  0  0  0  0  0
   -2.8010  -24.5664    4.5247 H   0  0  0  0  0  0  0  0  0  0  0  0
   -3.0117  -21.5509    5.2802 H   0  0  0  0  0  0  0  0  0  0  0  0
   -2.1244  -21.3829    8.1651 H   0  0  0  0  0  0  0  0  0  0  0  0
   -0.8201  -21.1229    6.9577 H   0  0  0  0  0  0  0  0  0  0  0  0
   -2.2687  -20.0607    6.9577 H   0  0  0  0  0  0  0  0  0  0  0  0
   -1.0706  -25.8573   11.6854 H   0  0  0  0  0  0  0  0  0  0  0  0
   -0.8656  -26.7540   10.1425 H   0  0  0  0  0  0  0  0  0  0  0  0
   -0.8788  -24.9577   10.1425 H   0  0  0  0  0  0  0  0  0  0  0  0
   -3.0687  -24.6051   12.7603 H   0  0  0  0  0  0  0  0  0  0  0  0
   -4.6563  -22.4650   11.3920 H   0  0  0  0  0  0  0  0  0  0  0  0
   -4.1710  -23.3442    9.9026 H   0  0  0  0  0  0  0  0  0  0  0  0
   -5.6509  -22.3261    9.9026 H   0  0  0  0  0  0  0  0  0  0  0  0
   -9.6755  -23.2401    9.5327 H   0  0  0  0  0  0  0  0  0  0  0  0
   -8.4031  -23.2199    8.2649 H   0  0  0  0  0  0  0  0  0  0  0  0
   -9.6505  -24.5125    8.2649 H   0  0  0  0  0  0  0  0  0  0  0  0
   -2.9934  -21.1347   15.6427 H   0  0  0  0  0  0  0  0  0  0  0  0
   -3.2429  -20.9254   13.8759 H   0  0  0  0  0  0  0  0  0  0  0  0
   -4.6236  -19.0305   14.1641 H   0  0  0  0  0  0  0  0  0  0  0  0
   -5.0927  -19.4693   15.8179 H   0  0  0  0  0  0  0  0  0  0  0  0
   -3.1071  -18.6695   16.7318 H   0  0  0  0  0  0  0  0  0  0  0  0
   -2.1492  -19.0984   15.2740 H   0  0  0  0  0  0  0  0  0  0  0  0
   -3.1724  -17.6220   15.2740 H   0  0  0  0  0  0  0  0  0  0  0  0
   -5.8932  -26.6519   14.8388 H   0  0  0  0  0  0  0  0  0  0  0  0
   -2.8418  -23.9705   16.4119 H   0  0  0  0  0  0  0  0  0  0  0  0
  1  2  1  0
  2  3  1  0
  2 32  1  0
  2 46  1  0
  3  4  1  0
  3 30  1  0
  3 45  1  0
  4  5  1  0
  4 39  1  0
  5  6  1  0
  6  7  1  0
  6 34  1  0
  6 35  1  0
  7  8  1  0
  7 29  1  0
  8  9  1  0
  8 19  1  0
  9 10  1  0
 10 11  2  0
 10 12  1  0
 12 13  1  0
 13 14  1  0
 14 15  1  0
 15 16  1  0
 16 17  1  0
 17 18  1  0
 19 20  1  0
 19 27  1  0
 20 21  1  0
 21 22  2  0
 21 23  1  0
 23 24  1  0
 23 25  2  0
 25 26  1  0
 27 28  1  0
 27 29  2  0
 29 30  1  0
 30 31  1  0
 31 32  1  0
 32 33  2  0
 35 36  1  0
 36 37  2  0
 36 38  1  0
 39 40  1  0
 40 41  2  0
 40 42  1  0
 42 43  1  0
 43 44  1  0
  1 47  1  0
  1 48  1  0
  1 49  1  0
  4 50  1  0
  5 51  1  0
  5 52  1  0
  7 53  1  0
  8 54  1  0
 12 55  1  0
 12 56  1  0
 13 57  1  0
 13 58  1  0
 14 59  1  0
 14 60  1  0
 15 61  1  0
 15 62  1  0
 16 63  1  0
 16 64  1  0
 17 65  1  0
 17 66  1  0
 18 67  1  0
 18 68  1  0
 18 69  1  0
 19 70  1  0
 24 71  1  0
 24 72  1  0
 24 73  1  0
 25 74  1  0
 26 75  1  0
 26 76  1  0
 26 77  1  0
 28 78  1  0
 28 79  1  0
 28 80  1  0
 30 81  1  0
 34 82  1  0
 34 83  1  0
 34 84  1  0
 38 85  1  0
 38 86  1  0
 38 87  1  0
 42 88  1  0
 42 89  1  0
 43 90  1  0
 43 91  1  0
 44 92  1  0
 44 93  1  0
 44 94  1  0
 45 95  1  0
 46 96  1  0
A    1
C34
A    2
C11
A    3
C7
A    4
C8
A    5
C9
A    6
C10
A    7
C1
A    8
C2
A    9
O1
A   10
C13
A   11
O2
A   12
C14
A   13
C15
A   14
C16
A   15
C17
A   16
C18
A   17
C19
A   18
C20
A   19
C3
A   20
O3
A   21
C21
A   22
O4
A   23
C22
A   24
C23
A   25
C24
A   26
C25
A   27
C4
A   28
C26
A   29
C5
A   30
C6
A   31
O5
A   32
C12
A   33
O12
A   34
C31
A   35
O9
A   36
C32
A   37
O10
A   38
C33
A   39
O7
A   40
C27
A   41
O8
A   42
C28
A   43
C29
A   44
C30
A   45
O6
A   46
O11
M  END
