2AGV_BHQ_A_1004
     RDKit          3D

 38 38  0  0  0  0  0  0  0  0999 V2000
    7.4130  -13.7920   11.6700 O   0  0  0  0  0  0  0  0  0  0  0  0
    1.9460  -13.3450   10.6600 O   0  0  0  0  0  0  0  0  0  0  0  0
    6.0640  -13.6700   11.3900 C   0  0  0  0  0  0  0  0  0  0  0  0
    5.6440  -13.0110   10.1660 C   0  0  0  0  0  0  0  0  0  0  0  0
    4.2280  -12.9480   10.0000 C   0  0  0  0  0  0  0  0  0  0  0  0
    3.2990  -13.4680   10.9300 C   0  0  0  0  0  0  0  0  0  0  0  0
    3.7210  -14.1210   12.1430 C   0  0  0  0  0  0  0  0  0  0  0  0
    5.1470  -14.1880   12.3170 C   0  0  0  0  0  0  0  0  0  0  0  0
    6.6240  -12.4090    9.0950 C   0  0  0  0  0  0  0  0  0  0  0  0
    7.5070  -11.3110    9.7240 C   0  0  0  0  0  0  0  0  0  0  0  0
    7.5250  -13.5030    8.5040 C   0  0  0  0  0  0  0  0  0  0  0  0
    5.9060  -11.7630    7.8990 C   0  0  0  0  0  0  0  0  0  0  0  0
    2.7320  -14.7000   13.1900 C   0  0  0  0  0  0  0  0  0  0  0  0
    1.8320  -15.7690   12.5800 C   0  0  0  0  0  0  0  0  0  0  0  0
    3.4540  -15.3470   14.3900 C   0  0  0  0  0  0  0  0  0  0  0  0
    1.8860  -13.5510   13.7820 C   0  0  0  0  0  0  0  0  0  0  0  0
    7.7229  -13.8200   12.6098 H   0  0  0  0  0  0  0  0  0  0  0  0
    1.2961  -13.2859   11.4044 H   0  0  0  0  0  0  0  0  0  0  0  0
    3.8354  -12.4653    9.0929 H   0  0  0  0  0  0  0  0  0  0  0  0
    5.5393  -14.6706   13.2243 H   0  0  0  0  0  0  0  0  0  0  0  0
    7.4519  -11.3795   10.8205 H   0  0  0  0  0  0  0  0  0  0  0  0
    8.5492  -11.4482    9.4000 H   0  0  0  0  0  0  0  0  0  0  0  0
    7.1494  -10.3225    9.4000 H   0  0  0  0  0  0  0  0  0  0  0  0
    7.9939  -14.0723    9.3201 H   0  0  0  0  0  0  0  0  0  0  0  0
    6.9200  -14.1812    7.8843 H   0  0  0  0  0  0  0  0  0  0  0  0
    8.3066  -13.0392    7.8843 H   0  0  0  0  0  0  0  0  0  0  0  0
    5.1349  -11.0693    8.2653 H   0  0  0  0  0  0  0  0  0  0  0  0
    6.6354  -11.2111    7.2879 H   0  0  0  0  0  0  0  0  0  0  0  0
    5.4339  -12.5464    7.2879 H   0  0  0  0  0  0  0  0  0  0  0  0
    1.3484  -16.3435   13.3838 H   0  0  0  0  0  0  0  0  0  0  0  0
    1.0621  -15.2889   11.9581 H   0  0  0  0  0  0  0  0  0  0  0  0
    2.4362  -16.4458   11.9581 H   0  0  0  0  0  0  0  0  0  0  0  0
    3.0248  -14.9624   15.3270 H   0  0  0  0  0  0  0  0  0  0  0  0
    3.3266  -16.4388   14.3493 H   0  0  0  0  0  0  0  0  0  0  0  0
    4.5254  -15.1011   14.3493 H   0  0  0  0  0  0  0  0  0  0  0  0
    1.9208  -13.5983   14.8804 H   0  0  0  0  0  0  0  0  0  0  0  0
    2.2906  -12.5857   13.4436 H   0  0  0  0  0  0  0  0  0  0  0  0
    0.8441  -13.6508   13.4436 H   0  0  0  0  0  0  0  0  0  0  0  0
  1  3  1  0
  2  6  1  0
  3  4  2  0
  3  8  1  0
  4  5  1  0
  4  9  1  0
  5  6  2  0
  6  7  1  0
  7  8  2  0
  7 13  1  0
  9 10  1  0
  9 11  1  0
  9 12  1  0
 13 14  1  0
 13 15  1  0
 13 16  1  0
  1 17  1  0
  2 18  1  0
  5 19  1  0
  8 20  1  0
 10 21  1  0
 10 22  1  0
 10 23  1  0
 11 24  1  0
 11 25  1  0
 11 26  1  0
 12 27  1  0
 12 28  1  0
 12 29  1  0
 14 30  1  0
 14 31  1  0
 14 32  1  0
 15 33  1  0
 15 34  1  0
 15 35  1  0
 16 36  1  0
 16 37  1  0
 16 38  1  0
A    1
O1
A    2
O2
A    3
C1
A    4
C2
A    5
C3
A    6
C4
A    7
C5
A    8
C6
A    9
C7
A   10
C8
A   11
C9
A   12
C10
A   13
C11
A   14
C12
A   15
C13
A   16
C14
M  END
