2AGW_TSS_D_3001
     RDKit          3D

 24 25  0  0  0  0  0  0  0  0999 V2000
    0.5740    3.9460    6.2860 N   0  0  0  0  0  0  0  0  0  0  0  0
   -0.1160    4.3920    7.5020 C   0  0  0  0  0  0  0  0  0  0  0  0
   -1.4380    3.7080    7.7560 C   0  0  0  0  0  0  0  0  0  0  0  0
   -2.0500    3.9490    9.1050 C   0  0  0  0  0  0  0  0  0  0  0  0
   -2.4750    5.1410    9.6910 C   0  0  0  0  0  0  0  0  0  0  0  0
   -3.0070    4.8580   10.9140 N   0  0  0  0  0  0  0  0  0  0  0  0
   -2.9440    3.5210   11.1080 C   0  0  0  0  0  0  0  0  0  0  0  0
   -2.3550    2.9420    9.9890 C   0  0  0  0  0  0  0  0  0  0  0  0
   -3.3150    2.6950   12.1580 C   0  0  0  0  0  0  0  0  0  0  0  0
   -3.1080    1.3280   12.0400 C   0  0  0  0  0  0  0  0  0  0  0  0
   -2.5230    0.7600   10.9040 C   0  0  0  0  0  0  0  0  0  0  0  0
   -2.1340    1.5840    9.8610 C   0  0  0  0  0  0  0  0  0  0  0  0
    1.4112    3.4049    6.5452 H   0  0  0  0  0  0  0  0  0  0  0  0
   -0.0590    3.3538    5.7297 H   0  0  0  0  0  0  0  0  0  0  0  0
    0.5423    4.1982    8.3617 H   0  0  0  0  0  0  0  0  0  0  0  0
   -0.3372    5.4606    7.3632 H   0  0  0  0  0  0  0  0  0  0  0  0
   -2.1507    4.0580    6.9947 H   0  0  0  0  0  0  0  0  0  0  0  0
   -1.2293    2.6289    7.7113 H   0  0  0  0  0  0  0  0  0  0  0  0
   -2.3945    6.1418    9.2418 H   0  0  0  0  0  0  0  0  0  0  0  0
   -3.3916    5.5456   11.5775 H   0  0  0  0  0  0  0  0  0  0  0  0
   -3.7656    3.1161   13.0688 H   0  0  0  0  0  0  0  0  0  0  0  0
   -3.4139    0.6700   12.8667 H   0  0  0  0  0  0  0  0  0  0  0  0
   -2.3736   -0.3279   10.8396 H   0  0  0  0  0  0  0  0  0  0  0  0
   -1.6630    1.1696    8.9574 H   0  0  0  0  0  0  0  0  0  0  0  0
  1  2  1  0
  2  3  1  0
  3  4  1  0
  4  5  2  0
  4  8  1  0
  5  6  1  0
  6  7  1  0
  7  8  2  0
  7  9  1  0
  8 12  1  0
  9 10  2  0
 10 11  1  0
 11 12  2  0
  1 13  1  0
  1 14  1  0
  2 15  1  0
  2 16  1  0
  3 17  1  0
  3 18  1  0
  5 19  1  0
  6 20  1  0
  9 21  1  0
 10 22  1  0
 11 23  1  0
 12 24  1  0
A    1
N1
A    2
CA
A    3
CB
A    4
CG
A    5
CD1
A    6
NE1
A    7
CE2
A    8
CD2
A    9
CZ2
A   10
CH2
A   11
CZ3
A   12
CE3
M  END
