2AHG_UCD_A_401
     RDKit          3D

 47 48  0  0  0  0  0  0  0  0999 V2000
   18.9920  -82.5610  184.5910 C   0  0  0  0  0  0  0  0  0  0  0  0
   18.5580  -81.4320  185.5280 C   0  0  0  0  0  0  0  0  0  0  0  0
   18.7420  -81.5140  186.7430 O   0  0  0  0  0  0  0  0  0  0  0  0
   17.9960  -80.3890  184.9250 N   0  0  0  0  0  0  0  0  0  0  0  0
   17.5110  -79.2130  185.6640 C   0  0  0  0  0  0  0  0  0  0  0  0
   18.0850  -77.9340  185.0490 C   0  0  0  0  0  0  0  0  0  0  0  0
   19.5100  -77.9570  185.1640 O   0  0  0  0  0  0  0  0  0  0  0  0
   17.5670  -76.7930  185.7530 O   0  0  0  0  0  0  0  0  0  0  0  0
   16.1410  -76.6820  185.6190 C   0  0  0  0  0  0  0  0  0  0  0  0
   15.6860  -75.3940  186.3090 C   0  0  0  0  0  0  0  0  0  0  0  0
   16.3980  -74.2840  185.7560 O   0  0  0  0  0  0  0  0  0  0  0  0
   15.4720  -77.8960  186.2710 C   0  0  0  0  0  0  0  0  0  0  0  0
   15.7640  -77.9100  187.6710 O   0  0  0  0  0  0  0  0  0  0  0  0
   15.9820  -79.1880  185.6270 C   0  0  0  0  0  0  0  0  0  0  0  0
   15.5100  -80.3450  186.3350 O   0  0  0  0  0  0  0  0  0  0  0  0
   14.3060  -80.8800  185.7640 C   0  0  0  0  0  0  0  0  0  0  0  0
   13.2080  -80.0160  186.1070 O   0  0  0  0  0  0  0  0  0  0  0  0
   11.9630  -80.4850  185.8070 C   0  0  0  0  0  0  0  0  0  0  0  0
   10.8100  -79.4820  185.7180 C   0  0  0  0  0  0  0  0  0  0  0  0
   11.1030  -78.2680  185.6680 O   0  0  0  0  0  0  0  0  0  0  0  0
    9.6430  -79.9280  185.7040 O   0  0  0  0  0  0  0  0  0  0  0  0
   11.6980  -81.8380  185.6200 C   0  0  0  0  0  0  0  0  0  0  0  0
   12.8090  -82.8860  185.7310 C   0  0  0  0  0  0  0  0  0  0  0  0
   12.3570  -83.9840  186.5270 O   0  0  0  0  0  0  0  0  0  0  0  0
   14.0460  -82.2580  186.3760 C   0  0  0  0  0  0  0  0  0  0  0  0
   15.1730  -83.1190  186.2010 O   0  0  0  0  0  0  0  0  0  0  0  0
   19.3239  -83.4244  185.1863 H   0  0  0  0  0  0  0  0  0  0  0  0
   18.1437  -82.8574  183.9565 H   0  0  0  0  0  0  0  0  0  0  0  0
   19.8204  -82.2129  183.9565 H   0  0  0  0  0  0  0  0  0  0  0  0
   17.8962  -80.4049  183.9000 H   0  0  0  0  0  0  0  0  0  0  0  0
   17.8436  -79.2722  186.7108 H   0  0  0  0  0  0  0  0  0  0  0  0
   17.7999  -77.8710  183.9885 H   0  0  0  0  0  0  0  0  0  0  0  0
   19.7638  -77.9611  186.1209 H   0  0  0  0  0  0  0  0  0  0  0  0
   15.8577  -76.6511  184.5566 H   0  0  0  0  0  0  0  0  0  0  0  0
   14.6066  -75.2539  186.1503 H   0  0  0  0  0  0  0  0  0  0  0  0
   15.8905  -75.4621  187.3877 H   0  0  0  0  0  0  0  0  0  0  0  0
   16.7572  -73.7240  186.4891 H   0  0  0  0  0  0  0  0  0  0  0  0
   14.3842  -77.8277  186.1229 H   0  0  0  0  0  0  0  0  0  0  0  0
   14.9187  -77.8695  188.1848 H   0  0  0  0  0  0  0  0  0  0  0  0
   15.6093  -79.2122  184.5924 H   0  0  0  0  0  0  0  0  0  0  0  0
   14.4058  -80.9565  184.6712 H   0  0  0  0  0  0  0  0  0  0  0  0
   11.2271  -77.7539  186.5049 H   0  0  0  0  0  0  0  0  0  0  0  0
   10.6722  -82.1606  185.3883 H   0  0  0  0  0  0  0  0  0  0  0  0
   13.0678  -83.2488  184.7253 H   0  0  0  0  0  0  0  0  0  0  0  0
   12.4505  -83.7569  187.4860 H   0  0  0  0  0  0  0  0  0  0  0  0
   13.8745  -82.1296  187.4549 H   0  0  0  0  0  0  0  0  0  0  0  0
   15.5241  -83.3872  187.0869 H   0  0  0  0  0  0  0  0  0  0  0  0
  1  2  1  0
  2  3  2  0
  2  4  1  0
  4  5  1  0
  5  6  1  0
  5 14  1  0
  6  7  1  0
  6  8  1  0
  8  9  1  0
  9 10  1  0
  9 12  1  0
 10 11  1  0
 12 13  1  0
 12 14  1  0
 14 15  1  0
 15 16  1  0
 16 17  1  0
 16 25  1  0
 17 18  1  0
 18 19  1  0
 18 22  2  0
 19 20  1  0
 19 21  2  0
 22 23  1  0
 23 24  1  0
 23 25  1  0
 25 26  1  0
  1 27  1  0
  1 28  1  0
  1 29  1  0
  4 30  1  0
  5 31  1  0
  6 32  1  0
  7 33  1  0
  9 34  1  0
 10 35  1  0
 10 36  1  0
 11 37  1  0
 12 38  1  0
 13 39  1  0
 14 40  1  0
 16 41  1  0
 20 42  1  0
 22 43  1  0
 23 44  1  0
 24 45  1  0
 25 46  1  0
 26 47  1  0
A    1
CAA
A    2
CAP
A    3
OAB
A    4
N2
A    5
C2
A    6
C1
A    7
O1
A    8
O5
A    9
C5
A   10
C6
A   11
O6
A   12
C4
A   13
O4
A   14
C3
A   15
O3
A   16
CAX
A   17
OAM
A   18
CAR
A   19
CAQ
A   20
OAE
A   21
OAC
A   22
CAJ
A   23
CAS
A   24
OAF
A   25
CAU
A   26
OAH
M  END
