2AI7_SB7_A_300
     RDKit          3D

 28 28  0  0  0  0  0  0  0  0999 V2000
   24.9800   -6.1100    9.2400 C   0  0  0  0  0  0  0  0  0  0  0  0
   25.4060   -5.5820    7.9920 C   0  0  0  0  0  0  0  0  0  0  0  0
   26.1080   -4.3380    7.8960 C   0  0  0  0  0  0  0  0  0  0  0  0
   26.3980   -3.5910    9.0700 C   0  0  0  0  0  0  0  0  0  0  0  0
   26.0080   -4.0490   10.3380 C   0  0  0  0  0  0  0  0  0  0  0  0
   25.2430   -5.4080   10.4300 C   0  0  0  0  0  0  0  0  0  0  0  0
   26.5490   -3.7940    6.5610 C   0  0  0  0  0  0  0  0  0  0  0  0
   27.4790   -4.7550    5.8070 C   0  0  0  0  0  0  0  0  0  0  0  0
   27.9380   -4.1720    4.4620 C   0  0  0  0  0  0  0  0  0  0  0  0
   29.3020   -3.6480    4.5990 N   0  0  0  0  0  0  0  0  0  0  0  0
   30.4010   -4.4770    4.3780 O   0  0  0  0  0  0  0  0  0  0  0  0
   29.4600   -2.3460    4.9520 C   0  0  0  0  0  0  0  0  0  0  0  0
   30.7080   -1.7010    5.1310 O   0  0  0  0  0  0  0  0  0  0  0  0
   24.4435   -7.0696    9.2758 H   0  0  0  0  0  0  0  0  0  0  0  0
   25.1902   -6.1455    7.0723 H   0  0  0  0  0  0  0  0  0  0  0  0
   26.9379   -2.6366    8.9831 H   0  0  0  0  0  0  0  0  0  0  0  0
   26.2350   -3.4665   11.2431 H   0  0  0  0  0  0  0  0  0  0  0  0
   24.9178   -5.8064   11.4024 H   0  0  0  0  0  0  0  0  0  0  0  0
   25.6571   -3.6108    5.9438 H   0  0  0  0  0  0  0  0  0  0  0  0
   27.1111   -2.8674    6.7493 H   0  0  0  0  0  0  0  0  0  0  0  0
   28.3643   -4.9540    6.4288 H   0  0  0  0  0  0  0  0  0  0  0  0
   26.9202   -5.6805    5.6040 H   0  0  0  0  0  0  0  0  0  0  0  0
   27.9230   -4.9609    3.6956 H   0  0  0  0  0  0  0  0  0  0  0  0
   27.2600   -3.3591    4.1629 H   0  0  0  0  0  0  0  0  0  0  0  0
   30.7792   -4.7623    5.2473 H   0  0  0  0  0  0  0  0  0  0  0  0
   28.9380   -1.7660    4.1767 H   0  0  0  0  0  0  0  0  0  0  0  0
   29.1001   -2.3759    5.9910 H   0  0  0  0  0  0  0  0  0  0  0  0
   30.8940   -1.6049    6.0986 H   0  0  0  0  0  0  0  0  0  0  0  0
  1  2  2  0
  1  6  1  0
  2  3  1  0
  3  4  2  0
  3  7  1  0
  4  5  1  0
  5  6  2  0
  7  8  1  0
  8  9  1  0
  9 10  1  0
 10 11  1  0
 10 12  1  0
 12 13  1  0
  1 14  1  0
  2 15  1  0
  4 16  1  0
  5 17  1  0
  6 18  1  0
  7 19  1  0
  7 20  1  0
  8 21  1  0
  8 22  1  0
  9 23  1  0
  9 24  1  0
 11 25  1  0
 12 26  1  0
 12 27  1  0
 13 28  1  0
A    1
C1
A    2
C2
A    3
C3
A    4
C4
A    5
C5
A    6
C6
A    7
C7
A    8
C8
A    9
C11
A   10
N14
A   11
O22
A   12
C24
A   13
O25
M  END
