1K6R_MX1_A_300
     RDKit          3D

 47 48  0  0  0  0  0  0  0  0999 V2000
    0.3310    9.8530   63.0030 O   0  0  0  0  0  0  0  0  0  0  0  0
    0.6350   10.8110   62.2610 C   0  0  0  0  0  0  0  0  0  0  0  0
    1.0350   10.5910   61.0980 O   0  0  0  0  0  0  0  0  0  0  0  0
    0.5250   12.1960   62.7690 C   0  0  0  0  0  0  0  0  0  0  0  0
    1.7400   12.8780   63.0350 N   0  0  0  0  0  0  0  0  0  0  0  0
   -0.7080   12.7670   62.9660 C   0  0  0  0  0  0  0  0  0  0  0  0
   -1.9890   12.0960   62.7020 C   0  0  0  0  0  0  0  0  0  0  0  0
   -0.7610   14.1730   63.4890 C   0  0  0  0  0  0  0  0  0  0  0  0
    0.4350   14.9350   63.2100 O   0  0  0  0  0  0  0  0  0  0  0  0
    1.6720   14.2480   63.5430 C   0  0  0  0  0  0  0  0  0  0  0  0
    2.8360   15.2200   63.0090 C   0  0  0  0  0  0  0  0  0  0  0  0
    3.9770   14.2890   62.4420 C   0  0  0  0  0  0  0  0  0  0  0  0
    3.9720   13.7520   61.3360 O   0  0  0  0  0  0  0  0  0  0  0  0
    3.1380   15.9170   64.2360 O   0  0  0  0  0  0  0  0  0  0  0  0
    4.4340   16.4560   64.4440 C   0  0  0  0  0  0  0  0  0  0  0  0
    2.3270   16.1050   61.9490 N   0  0  0  0  0  0  0  0  0  0  0  0
    3.0980   16.9520   61.1640 C   0  0  0  0  0  0  0  0  0  0  0  0
    4.3510   17.0040   61.2350 O   0  0  0  0  0  0  0  0  0  0  0  0
    2.3680   17.8390   60.1500 C   0  0  0  0  0  0  0  0  0  0  0  0
    3.2860   18.9410   59.6870 C   0  0  0  0  0  0  0  0  0  0  0  0
    3.3170   20.0400   60.2850 O   0  0  0  0  0  0  0  0  0  0  0  0
    4.0440   18.7420   58.7090 O   0  0  0  0  0  0  0  0  0  0  0  0
    1.0640   18.3730   60.7070 C   0  0  0  0  0  0  0  0  0  0  0  0
    1.0300   19.2920   61.7570 C   0  0  0  0  0  0  0  0  0  0  0  0
   -0.1550   17.9470   60.1670 C   0  0  0  0  0  0  0  0  0  0  0  0
   -1.3780   18.4210   60.6590 C   0  0  0  0  0  0  0  0  0  0  0  0
   -1.3880   19.3340   61.7050 C   0  0  0  0  0  0  0  0  0  0  0  0
   -2.5930   19.8000   62.2020 O   0  0  0  0  0  0  0  0  0  0  0  0
   -0.1880   19.7760   62.2580 C   0  0  0  0  0  0  0  0  0  0  0  0
    0.3646    9.9588   63.9868 H   0  0  0  0  0  0  0  0  0  0  0  0
   -2.9354   12.6252   62.8869 H   0  0  0  0  0  0  0  0  0  0  0  0
   -2.0011   11.0647   62.3195 H   0  0  0  0  0  0  0  0  0  0  0  0
   -1.6169   14.6854   63.0254 H   0  0  0  0  0  0  0  0  0  0  0  0
   -0.8573   14.1090   64.5829 H   0  0  0  0  0  0  0  0  0  0  0  0
    1.7679   14.0804   64.6259 H   0  0  0  0  0  0  0  0  0  0  0  0
    4.8476   14.1056   63.0888 H   0  0  0  0  0  0  0  0  0  0  0  0
    4.6285   16.5369   65.5236 H   0  0  0  0  0  0  0  0  0  0  0  0
    5.1840   15.7952   63.9848 H   0  0  0  0  0  0  0  0  0  0  0  0
    4.4942   17.4538   63.9848 H   0  0  0  0  0  0  0  0  0  0  0  0
    1.3119   16.0953   61.7745 H   0  0  0  0  0  0  0  0  0  0  0  0
    2.0959   17.2284   59.2764 H   0  0  0  0  0  0  0  0  0  0  0  0
    3.3177   20.0652   61.2747 H   0  0  0  0  0  0  0  0  0  0  0  0
    1.9741   19.6428   62.1992 H   0  0  0  0  0  0  0  0  0  0  0  0
   -0.1526   17.2240   59.3380 H   0  0  0  0  0  0  0  0  0  0  0  0
   -2.3241   18.0722   60.2195 H   0  0  0  0  0  0  0  0  0  0  0  0
   -2.7368   19.8556   63.1799 H   0  0  0  0  0  0  0  0  0  0  0  0
   -0.1954   20.5019   63.0845 H   0  0  0  0  0  0  0  0  0  0  0  0
  1  2  1  0
  2  3  2  0
  2  4  1  0
  4  5  2  0
  4  6  1  0
  5 10  1  0
  6  7  2  3
  6  8  1  0
  8  9  1  0
  9 10  1  0
 10 11  1  0
 11 12  1  0
 11 14  1  0
 11 16  1  0
 12 13  2  0
 14 15  1  0
 16 17  1  0
 17 18  2  0
 17 19  1  0
 19 20  1  0
 19 23  1  0
 20 21  1  0
 20 22  2  0
 23 24  2  0
 23 25  1  0
 24 29  1  0
 25 26  2  0
 26 27  1  0
 27 28  1  0
 27 29  2  0
  1 30  1  0
  7 31  1  0
  7 32  1  0
  8 33  1  0
  8 34  1  0
 10 35  1  0
 12 36  1  0
 15 37  1  0
 15 38  1  0
 15 39  1  0
 16 40  1  0
 19 41  1  0
 21 42  1  0
 24 43  1  0
 25 44  1  0
 26 45  1  0
 28 46  1  0
 29 47  1  0
A    1
O4
A    2
C7
A    3
O3
A    4
C4
A    5
N1
A    6
C5
A    7
C8
A    8
C6
A    9
O2
A   10
C3
A   11
C2
A   12
C1
A   13
O31
A   14
O5
A   15
C9
A   16
N2
A   17
C10
A   18
O6
A   19
C11
A   20
C12
A   21
O8
A   22
O7
A   23
C13
A   24
C14
A   25
C18
A   26
C17
A   27
C16
A   28
O9
A   29
C15
M  END
