2AIX_U1K_A_261
     RDKit          3D

 32 32  0  0  0  0  0  0  0  0999 V2000
   -0.6430   42.0240   14.4250 O   0  0  0  0  0  0  0  0  0  0  0  0
   -1.4150   41.3490   15.1640 C   0  0  0  0  0  0  0  0  0  0  0  0
   -2.2340   41.8350   15.9710 O   0  0  0  0  0  0  0  0  0  0  0  0
   -1.3780   39.8350   15.0820 C   0  0  0  0  0  0  0  0  0  0  0  0
   -1.0400   39.1540   16.4300 C   0  0  0  0  0  0  0  0  0  0  0  0
   -1.1110   37.6250   16.3940 C   0  0  0  0  0  0  0  0  0  0  0  0
   -0.1890   36.6050   16.3660 C   0  0  0  0  0  0  0  0  0  0  0  0
   -1.0610   35.0670   16.3420 S   0  0  0  0  0  0  0  0  0  0  0  0
   -2.5920   35.7710   16.3740 N   0  0  0  0  0  0  0  0  0  0  0  0
   -2.4810   37.1050   16.4000 C   0  0  0  0  0  0  0  0  0  0  0  0
   -3.5010   37.8620   16.4300 O   0  0  0  0  0  0  0  0  0  0  0  0
    1.3540   36.5160   16.3650 C   0  0  0  0  0  0  0  0  0  0  0  0
    1.8600   35.1440   15.9250 C   0  0  0  0  0  0  0  0  0  0  0  0
    1.8410   36.7830   17.7840 C   0  0  0  0  0  0  0  0  0  0  0  0
    1.9720   37.5480   15.4280 C   0  0  0  0  0  0  0  0  0  0  0  0
   -0.3470   39.4280   14.0710 N   0  0  0  0  0  0  0  0  0  0  0  0
    0.0367   42.6183   14.8312 H   0  0  0  0  0  0  0  0  0  0  0  0
   -2.3875   39.5063   14.7942 H   0  0  0  0  0  0  0  0  0  0  0  0
   -0.0191   39.4456   16.7177 H   0  0  0  0  0  0  0  0  0  0  0  0
   -1.7979   39.4894   17.1532 H   0  0  0  0  0  0  0  0  0  0  0  0
    2.0849   34.5342   16.8125 H   0  0  0  0  0  0  0  0  0  0  0  0
    1.0871   34.6440   15.3228 H   0  0  0  0  0  0  0  0  0  0  0  0
    2.7725   35.2655   15.3228 H   0  0  0  0  0  0  0  0  0  0  0  0
    1.1114   36.3830   18.5034 H   0  0  0  0  0  0  0  0  0  0  0  0
    2.8134   36.2918   17.9365 H   0  0  0  0  0  0  0  0  0  0  0  0
    1.9498   37.8669   17.9365 H   0  0  0  0  0  0  0  0  0  0  0  0
    2.4480   38.3429   16.0208 H   0  0  0  0  0  0  0  0  0  0  0  0
    2.7274   37.0614   14.7936 H   0  0  0  0  0  0  0  0  0  0  0  0
    1.1864   37.9842   14.7936 H   0  0  0  0  0  0  0  0  0  0  0  0
    0.4976   39.0946   14.5571 H   0  0  0  0  0  0  0  0  0  0  0  0
   -0.7242   38.6728   13.4809 H   0  0  0  0  0  0  0  0  0  0  0  0
   -0.1066   40.2372   13.4809 H   0  0  0  0  0  0  0  0  0  0  0  0
  1  2  1  0
  2  3  2  0
  2  4  1  0
  4  5  1  0
  4 16  1  0
  5  6  1  0
  6  7  2  0
  6 10  1  0
  7  8  1  0
  7 12  1  0
  8  9  1  0
  9 10  2  0
 10 11  1  0
 12 13  1  0
 12 14  1  0
 12 15  1  0
  1 17  1  0
  4 18  1  0
  5 19  1  0
  5 20  1  0
 13 21  1  0
 13 22  1  0
 13 23  1  0
 14 24  1  0
 14 25  1  0
 14 26  1  0
 15 27  1  0
 15 28  1  0
 15 29  1  0
 16 30  1  0
 16 31  1  0
 16 32  1  0
M  CHG  2  11  -1  16   1
A    1
O1
A    2
C2
A    3
O3
A    4
C4
A    5
C5
A    6
C6
A    7
C7
A    8
S8
A    9
N9
A   10
C10
A   11
O11
A   12
C12
A   13
C13
A   14
C14
A   15
C15
A   16
N16
M  END
