2AMB_17H_A_1001
     RDKit          3D

 51 54  0  0  0  0  0  0  0  0999 V2000
   26.1860    6.5660    4.2300 C   0  0  0  0  0  0  0  0  0  0  0  0
   23.9360    5.3010    4.5210 C   0  0  0  0  0  0  0  0  0  0  0  0
   24.8950    1.5880    4.3350 C   0  0  0  0  0  0  0  0  0  0  0  0
   24.1130    2.7540    4.9660 C   0  0  0  0  0  0  0  0  0  0  0  0
   27.0300    2.9390    4.5530 C   0  0  0  0  0  0  0  0  0  0  0  0
   28.5290    2.8900    4.2100 C   0  0  0  0  0  0  0  0  0  0  0  0
   26.9780    5.4000    4.0800 C   0  0  0  0  0  0  0  0  0  0  0  0
   24.7530    6.4030    4.2380 C   0  0  0  0  0  0  0  0  0  0  0  0
   24.7280    4.1340    4.6640 C   0  0  0  0  0  0  0  0  0  0  0  0
   26.3520    1.5620    4.9090 C   0  0  0  0  0  0  0  0  0  0  0  0
   26.2640    4.1210    4.4800 C   0  0  0  0  0  0  0  0  0  0  0  0
   29.3230    1.7300    4.1900 C   0  0  0  0  0  0  0  0  0  0  0  0
   28.7190    0.4120    4.5790 C   0  0  0  0  0  0  0  0  0  0  0  0
   27.2050    0.4630    4.2080 C   0  0  0  0  0  0  0  0  0  0  0  0
   26.6720   -0.9750    4.3500 C   0  0  0  0  0  0  0  0  0  0  0  0
   27.9280   -1.7590    3.8640 C   0  0  0  0  0  0  0  0  0  0  0  0
   29.1750   -0.7790    3.7760 C   0  0  0  0  0  0  0  0  0  0  0  0
   28.7820    0.2990    6.2170 C   0  0  0  0  0  0  0  0  0  0  0  0
   30.1120    0.7600    7.0210 C   0  0  0  0  0  0  0  0  0  0  0  0
   30.2000   -1.7920    1.7320 C   0  0  0  0  0  0  0  0  0  0  0  0
   29.3560   -0.5200    2.2780 C   0  0  0  0  0  0  0  0  0  0  0  0
   24.0530    7.5960    3.9480 O   0  0  0  0  0  0  0  0  0  0  0  0
   30.3170   -1.3240    4.4910 O   0  0  0  0  0  0  0  0  0  0  0  0
   26.4692    7.0358    5.1835 H   0  0  0  0  0  0  0  0  0  0  0  0
   26.3943    7.1631    3.3299 H   0  0  0  0  0  0  0  0  0  0  0  0
   22.8408    5.3360    4.6180 H   0  0  0  0  0  0  0  0  0  0  0  0
   24.3914    0.6390    4.5711 H   0  0  0  0  0  0  0  0  0  0  0  0
   24.9342    1.7221    3.2439 H   0  0  0  0  0  0  0  0  0  0  0  0
   23.0849    2.7368    4.5753 H   0  0  0  0  0  0  0  0  0  0  0  0
   24.1442    2.6149    6.0567 H   0  0  0  0  0  0  0  0  0  0  0  0
   29.0204    3.8418    3.9596 H   0  0  0  0  0  0  0  0  0  0  0  0
   27.2756    5.3159    3.0244 H   0  0  0  0  0  0  0  0  0  0  0  0
   27.8417    5.5096    4.7524 H   0  0  0  0  0  0  0  0  0  0  0  0
   26.3026    1.3699    5.9910 H   0  0  0  0  0  0  0  0  0  0  0  0
   30.3801    1.7878    3.8912 H   0  0  0  0  0  0  0  0  0  0  0  0
   27.1023    0.8104    3.1694 H   0  0  0  0  0  0  0  0  0  0  0  0
   26.4141   -1.2168    5.3916 H   0  0  0  0  0  0  0  0  0  0  0  0
   25.7432   -1.1883    3.8005 H   0  0  0  0  0  0  0  0  0  0  0  0
   28.1499   -2.5691    4.5743 H   0  0  0  0  0  0  0  0  0  0  0  0
   27.7285   -2.1823    2.8685 H   0  0  0  0  0  0  0  0  0  0  0  0
   27.9513    0.9053    6.6073 H   0  0  0  0  0  0  0  0  0  0  0  0
   28.7497   -0.7864    6.3924 H   0  0  0  0  0  0  0  0  0  0  0  0
   29.9268    0.6958    8.1034 H   0  0  0  0  0  0  0  0  0  0  0  0
   30.9500    0.0999    6.7526 H   0  0  0  0  0  0  0  0  0  0  0  0
   30.3617    1.7971    6.7526 H   0  0  0  0  0  0  0  0  0  0  0  0
   30.5840   -2.3707    2.5850 H   0  0  0  0  0  0  0  0  0  0  0  0
   29.5459   -2.4307    1.1203 H   0  0  0  0  0  0  0  0  0  0  0  0
   31.0427   -1.4376    1.1203 H   0  0  0  0  0  0  0  0  0  0  0  0
   28.3795   -0.4592    1.7753 H   0  0  0  0  0  0  0  0  0  0  0  0
   29.8705    0.4324    2.0823 H   0  0  0  0  0  0  0  0  0  0  0  0
   30.1619   -1.2500    5.4660 H   0  0  0  0  0  0  0  0  0  0  0  0
  1  7  1  0
  1  8  1  0
  2  8  1  0
  2  9  2  0
  3  4  1  0
  3 10  1  0
  4  9  1  0
  5  6  1  0
  5 10  1  0
  5 11  2  0
  6 12  2  0
  7 11  1  0
  8 22  2  0
  9 11  1  0
 10 14  1  0
 12 13  1  0
 13 14  1  0
 13 17  1  0
 13 18  1  0
 14 15  1  0
 15 16  1  0
 16 17  1  0
 17 21  1  0
 17 23  1  0
 18 19  1  0
 20 21  1  0
  1 24  1  0
  1 25  1  0
  2 26  1  0
  3 27  1  0
  3 28  1  0
  4 29  1  0
  4 30  1  0
  6 31  1  0
  7 32  1  0
  7 33  1  0
 10 34  1  0
 12 35  1  0
 14 36  1  0
 15 37  1  0
 15 38  1  0
 16 39  1  0
 16 40  1  0
 18 41  1  0
 18 42  1  0
 19 43  1  0
 19 44  1  0
 19 45  1  0
 20 46  1  0
 20 47  1  0
 20 48  1  0
 21 49  1  0
 21 50  1  0
 23 51  1  0
A    1
C2
A    2
C4
A    3
C7
A    4
C6
A    5
C9
A    6
C11
A    7
C1
A    8
C3
A    9
C5
A   10
C8
A   11
C10
A   12
C12
A   13
C13
A   14
C14
A   15
C15
A   16
C16
A   17
C17
A   18
C18
A   19
C22
A   20
C21
A   21
C20
A   22
O3
A   23
O17
M  END
