2AN3_CTL_A_3001
     RDKit          3D

 25 26  0  0  0  0  0  0  0  0999 V2000
   28.8800   43.8430   19.5830 C   0  0  0  0  0  0  0  0  0  0  0  0
   29.0950   45.3080   19.9780 C   0  0  0  0  0  0  0  0  0  0  0  0
   30.0200   45.9950   18.9720 C   0  0  0  0  0  0  0  0  0  0  0  0
   29.3350   46.0720   17.6060 C   0  0  0  0  0  0  0  0  0  0  0  0
   28.7020   44.7390   17.1910 C   0  0  0  0  0  0  0  0  0  0  0  0
   28.3220   44.5720   15.8620 C   0  0  0  0  0  0  0  0  0  0  0  0
   28.4590   43.7240   18.1150 C   0  0  0  0  0  0  0  0  0  0  0  0
   27.8350   42.5490   17.7000 C   0  0  0  0  0  0  0  0  0  0  0  0
   27.4540   42.3840   16.3720 C   0  0  0  0  0  0  0  0  0  0  0  0
   27.6990   43.3980   15.4510 C   0  0  0  0  0  0  0  0  0  0  0  0
   30.1010   43.1210   19.7670 O   0  0  0  0  0  0  0  0  0  0  0  0
   29.6900   45.3630   21.3210 N   0  0  0  0  0  0  0  0  0  0  0  0
   28.0825   43.4287   20.2173 H   0  0  0  0  0  0  0  0  0  0  0  0
   28.1271   45.8307   19.9800 H   0  0  0  0  0  0  0  0  0  0  0  0
   30.2501   47.0118   19.3229 H   0  0  0  0  0  0  0  0  0  0  0  0
   30.9502   45.4152   18.8795 H   0  0  0  0  0  0  0  0  0  0  0  0
   28.5471   46.8384   17.6491 H   0  0  0  0  0  0  0  0  0  0  0  0
   30.1035   46.3237   16.8603 H   0  0  0  0  0  0  0  0  0  0  0  0
   28.5154   45.3727   15.1330 H   0  0  0  0  0  0  0  0  0  0  0  0
   27.6424   41.7465   18.4273 H   0  0  0  0  0  0  0  0  0  0  0  0
   26.9606   41.4547   16.0511 H   0  0  0  0  0  0  0  0  0  0  0  0
   27.4006   43.2715   14.3998 H   0  0  0  0  0  0  0  0  0  0  0  0
   30.2793   43.0155   20.7351 H   0  0  0  0  0  0  0  0  0  0  0  0
   28.9455   45.2942   22.0294 H   0  0  0  0  0  0  0  0  0  0  0  0
   30.3481   44.5793   21.4373 H   0  0  0  0  0  0  0  0  0  0  0  0
  1  2  1  0
  1  7  1  0
  1 11  1  0
  2  3  1  0
  2 12  1  0
  3  4  1  0
  4  5  1  0
  5  6  1  0
  5  7  2  0
  6 10  2  0
  7  8  1  0
  8  9  2  0
  9 10  1  0
  1 13  1  0
  2 14  1  0
  3 15  1  0
  3 16  1  0
  4 17  1  0
  4 18  1  0
  6 19  1  0
  8 20  1  0
  9 21  1  0
 10 22  1  0
 11 23  1  0
 12 24  1  0
 12 25  1  0
A    1
C1
A    2
C2
A    3
C3
A    4
C4
A    5
C5
A    6
C10
A    7
C6
A    8
C7
A    9
C8
A   10
C9
A   11
O11
A   12
N12
M  END
