2AN5_TTL_A_1401
     RDKit          3D

 25 26  0  0  0  0  0  0  0  0999 V2000
   29.4990   46.3790   17.6890 O   0  0  0  0  0  0  0  0  0  0  0  0
   28.6720   45.3280   18.1970 C   0  0  0  0  0  0  0  0  0  0  0  0
   28.1850   44.4470   17.0440 C   0  0  0  0  0  0  0  0  0  0  0  0
   27.7580   45.0510   15.8650 C   0  0  0  0  0  0  0  0  0  0  0  0
   27.2590   44.2820   14.8200 C   0  0  0  0  0  0  0  0  0  0  0  0
   27.1880   42.8970   14.9580 C   0  0  0  0  0  0  0  0  0  0  0  0
   27.6160   42.2970   16.1350 C   0  0  0  0  0  0  0  0  0  0  0  0
   28.1190   43.0610   17.1850 C   0  0  0  0  0  0  0  0  0  0  0  0
   28.6160   42.3150   18.4270 C   0  0  0  0  0  0  0  0  0  0  0  0
   28.7050   43.2460   19.6360 C   0  0  0  0  0  0  0  0  0  0  0  0
   29.4420   44.5370   19.2620 C   0  0  0  0  0  0  0  0  0  0  0  0
   29.6170   45.3720   20.4560 N   0  0  0  0  0  0  0  0  0  0  0  0
   29.8947   46.8819   18.4444 H   0  0  0  0  0  0  0  0  0  0  0  0
   27.7782   45.7464   18.6828 H   0  0  0  0  0  0  0  0  0  0  0  0
   27.8158   46.1444   15.7594 H   0  0  0  0  0  0  0  0  0  0  0  0
   26.9223   44.7636   13.8901 H   0  0  0  0  0  0  0  0  0  0  0  0
   26.7939   42.2806   14.1366 H   0  0  0  0  0  0  0  0  0  0  0  0
   27.5569   41.2036   16.2393 H   0  0  0  0  0  0  0  0  0  0  0  0
   27.9183   41.4960   18.6561 H   0  0  0  0  0  0  0  0  0  0  0  0
   29.6218   41.9223   18.2166 H   0  0  0  0  0  0  0  0  0  0  0  0
   27.6894   43.4943   19.9780 H   0  0  0  0  0  0  0  0  0  0  0  0
   29.2598   42.7376   20.4383 H   0  0  0  0  0  0  0  0  0  0  0  0
   30.4236   44.2614   18.8490 H   0  0  0  0  0  0  0  0  0  0  0  0
   29.4959   44.7940   21.2999 H   0  0  0  0  0  0  0  0  0  0  0  0
   30.5621   45.7815   20.4531 H   0  0  0  0  0  0  0  0  0  0  0  0
  1  2  1  0
  2  3  1  0
  2 11  1  0
  3  4  1  0
  3  8  2  0
  4  5  2  0
  5  6  1  0
  6  7  2  0
  7  8  1  0
  8  9  1  0
  9 10  1  0
 10 11  1  0
 11 12  1  0
  1 13  1  0
  2 14  1  0
  4 15  1  0
  5 16  1  0
  6 17  1  0
  7 18  1  0
  9 19  1  0
  9 20  1  0
 10 21  1  0
 10 22  1  0
 11 23  1  0
 12 24  1  0
 12 25  1  0
A    1
OAB
A    2
CAL
A    3
CAJ
A    4
CAF
A    5
CAD
A    6
CAC
A    7
CAE
A    8
CAI
A    9
CAG
A   10
CAH
A   11
CAK
A   12
NAA
M  END
