2ANM_CDO_H_1001
     RDKit          3D

 65 67  0  0  0  0  0  0  0  0999 V2000
   12.2240   21.1610   22.4720 C   0  0  0  0  0  0  0  0  0  0  0  0
   11.8780   22.3780   23.1190 C   0  0  0  0  0  0  0  0  0  0  0  0
   12.4600   23.5390   22.7430 N   0  0  0  0  0  0  0  0  0  0  0  0
   13.3600   23.6030   21.7510 C   0  0  0  0  0  0  0  0  0  0  0  0
   13.7480   22.4350   21.0680 C   0  0  0  0  0  0  0  0  0  0  0  0
   13.1690   21.1970   21.4270 C   0  0  0  0  0  0  0  0  0  0  0  0
   14.7580   22.5180   19.9670 C   0  0  0  0  0  0  0  0  0  0  0  0
   10.8950   22.3980   24.2200 C   0  0  0  0  0  0  0  0  0  0  0  0
   10.1260   21.3390   24.4680 N   0  0  0  0  0  0  0  0  0  0  0  0
   10.7800   23.4880   24.9690 N   0  0  0  0  0  0  0  0  0  0  0  0
   16.0820   22.4690   20.5770 N   0  0  0  0  0  0  0  0  0  0  0  0
   16.8770   21.3920   20.4140 C   0  0  0  0  0  0  0  0  0  0  0  0
   18.2340   21.3540   21.0660 C   0  0  0  0  0  0  0  0  0  0  0  0
   16.5080   20.4420   19.7560 O   0  0  0  0  0  0  0  0  0  0  0  0
   19.3380   21.4740   19.9700 C   0  0  0  0  0  0  0  0  0  0  0  0
   20.4280   20.4900   20.4650 C   0  0  0  0  0  0  0  0  0  0  0  0
   19.5900   19.3810   21.1110 C   0  0  0  0  0  0  0  0  0  0  0  0
   18.4210   20.0330   21.7250 N   0  0  0  0  0  0  0  0  0  0  0  0
   17.6310   19.5110   22.7320 C   0  0  0  0  0  0  0  0  0  0  0  0
   17.9190   18.1360   23.3220 C   0  0  0  0  0  0  0  0  0  0  0  0
   16.6820   20.1430   23.1600 O   0  0  0  0  0  0  0  0  0  0  0  0
   16.6680   17.3790   23.3980 N   0  0  0  0  0  0  0  0  0  0  0  0
   15.9240   16.9980   22.1960 C   0  0  0  0  0  0  0  0  0  0  0  0
   14.6610   16.2990   22.6260 C   0  0  0  0  0  0  0  0  0  0  0  0
   14.6840   15.5280   23.5820 O   0  0  0  0  0  0  0  0  0  0  0  0
   13.6130   16.5040   22.0240 O   0  0  0  0  0  0  0  0  0  0  0  0
   18.4930   18.2530   24.7500 C   0  0  0  0  0  0  0  0  0  0  0  0
   19.8870   18.8930   24.7340 C   0  0  0  0  0  0  0  0  0  0  0  0
   20.1930   19.5140   26.1080 C   0  0  0  0  0  0  0  0  0  0  0  0
   21.5740   20.2290   26.0500 C   0  0  0  0  0  0  0  0  0  0  0  0
   22.6870   19.2400   25.6310 C   0  0  0  0  0  0  0  0  0  0  0  0
   22.3340   18.5330   24.2990 C   0  0  0  0  0  0  0  0  0  0  0  0
   20.9570   17.8370   24.4050 C   0  0  0  0  0  0  0  0  0  0  0  0
   11.7638   20.2106   22.7804 H   0  0  0  0  0  0  0  0  0  0  0  0
   13.7970   24.5725   21.4698 H   0  0  0  0  0  0  0  0  0  0  0  0
   13.4518   20.2747   20.8985 H   0  0  0  0  0  0  0  0  0  0  0  0
   14.6313   21.6704   19.2774 H   0  0  0  0  0  0  0  0  0  0  0  0
   14.6305   23.4494   19.3959 H   0  0  0  0  0  0  0  0  0  0  0  0
    9.4443   21.3670   25.2396 H   0  0  0  0  0  0  0  0  0  0  0  0
   10.7882   23.4104   25.9960 H   0  0  0  0  0  0  0  0  0  0  0  0
   10.6826   24.4114   24.5231 H   0  0  0  0  0  0  0  0  0  0  0  0
   16.4135   23.2662   21.1387 H   0  0  0  0  0  0  0  0  0  0  0  0
   18.3051   22.1774   21.7919 H   0  0  0  0  0  0  0  0  0  0  0  0
   19.3417   22.1028   19.0674 H   0  0  0  0  0  0  0  0  0  0  0  0
   21.5216   20.5675   20.3757 H   0  0  0  0  0  0  0  0  0  0  0  0
   19.2635   18.6597   20.3474 H   0  0  0  0  0  0  0  0  0  0  0  0
   20.1754   18.8316   21.8630 H   0  0  0  0  0  0  0  0  0  0  0  0
   18.6534   17.6316   22.6769 H   0  0  0  0  0  0  0  0  0  0  0  0
   16.8896   16.5024   23.8913 H   0  0  0  0  0  0  0  0  0  0  0  0
   15.6724   17.8965   21.6134 H   0  0  0  0  0  0  0  0  0  0  0  0
   16.5326   16.3307   21.5680 H   0  0  0  0  0  0  0  0  0  0  0  0
   14.6734   15.8843   24.5056 H   0  0  0  0  0  0  0  0  0  0  0  0
   17.8193   18.8745   25.3582 H   0  0  0  0  0  0  0  0  0  0  0  0
   18.5773   17.2426   25.1766 H   0  0  0  0  0  0  0  0  0  0  0  0
   19.9033   19.6764   23.9619 H   0  0  0  0  0  0  0  0  0  0  0  0
   19.4111   20.2441   26.3642 H   0  0  0  0  0  0  0  0  0  0  0  0
   20.2174   18.7243   26.8734 H   0  0  0  0  0  0  0  0  0  0  0  0
   21.5254   21.0486   25.3179 H   0  0  0  0  0  0  0  0  0  0  0  0
   21.8098   20.6224   27.0498 H   0  0  0  0  0  0  0  0  0  0  0  0
   23.6297   19.7927   25.5053 H   0  0  0  0  0  0  0  0  0  0  0  0
   22.7879   18.4756   26.4156 H   0  0  0  0  0  0  0  0  0  0  0  0
   22.3018   19.2784   23.4907 H   0  0  0  0  0  0  0  0  0  0  0  0
   23.1010   17.7744   24.0841 H   0  0  0  0  0  0  0  0  0  0  0  0
   20.9864   17.0805   25.2030 H   0  0  0  0  0  0  0  0  0  0  0  0
   20.7140   17.3457   23.4513 H   0  0  0  0  0  0  0  0  0  0  0  0
  1  2  2  0
  1  6  1  0
  2  3  1  0
  2  8  1  0
  3  4  2  0
  4  5  1  0
  5  6  2  0
  5  7  1  0
  7 11  1  0
  8  9  2  3
  8 10  1  0
 11 12  1  0
 12 13  1  0
 12 14  2  0
 13 15  1  0
 13 18  1  0
 15 16  2  0
 16 17  1  0
 17 18  1  0
 18 19  1  0
 19 20  1  0
 19 21  2  0
 20 22  1  0
 20 27  1  0
 22 23  1  0
 23 24  1  0
 24 25  1  0
 24 26  2  0
 27 28  1  0
 28 29  1  0
 28 33  1  0
 29 30  1  0
 30 31  1  0
 31 32  1  0
 32 33  1  0
  1 34  1  0
  4 35  1  0
  6 36  1  0
  7 37  1  0
  7 38  1  0
  9 39  1  0
 10 40  1  0
 10 41  1  0
 11 42  1  0
 13 43  1  0
 15 44  1  0
 16 45  1  0
 17 46  1  0
 17 47  1  0
 20 48  1  0
 22 49  1  0
 23 50  1  0
 23 51  1  0
 25 52  1  0
 27 53  1  0
 27 54  1  0
 28 55  1  0
 29 56  1  0
 29 57  1  0
 30 58  1  0
 30 59  1  0
 31 60  1  0
 31 61  1  0
 32 62  1  0
 32 63  1  0
 33 64  1  0
 33 65  1  0
A    1
C1
A    2
C2
A    3
N3
A    4
C4
A    5
C5
A    6
C6
A    7
C7
A    8
C8
A    9
N9
A   10
N10
A   11
N11
A   12
C12
A   13
C13
A   14
O14
A   15
C15
A   16
C16
A   17
C17
A   18
N18
A   19
C19
A   20
C20
A   21
O21
A   22
N22
A   23
C23
A   24
C24
A   25
O25
A   26
O26
A   27
C27
A   28
C28
A   29
C29
A   30
C30
A   31
C31
A   32
C32
A   33
C33
M  END
