2ANO_817_A_400
     RDKit          3D

 29 29  0  0  0  0  0  0  0  0999 V2000
   32.1120   38.6720   11.6190 N   0  0  0  0  0  0  0  0  0  0  0  0
   30.0650   40.4740   11.7250 C   0  0  0  0  0  0  0  0  0  0  0  0
   30.6550   36.8840   11.8620 N   0  0  0  0  0  0  0  0  0  0  0  0
   29.8610   39.1310   11.9720 N   0  0  0  0  0  0  0  0  0  0  0  0
   32.1880   43.3350    9.6950 C   0  0  0  0  0  0  0  0  0  0  0  0
   33.6010   43.5040    7.7690 C   0  0  0  0  0  0  0  0  0  0  0  0
   34.2800   44.5530    8.3600 C   0  0  0  0  0  0  0  0  0  0  0  0
   34.6540   46.1360   10.2630 C   0  0  0  0  0  0  0  0  0  0  0  0
   32.8660   44.3860   10.2830 C   0  0  0  0  0  0  0  0  0  0  0  0
   30.9010   38.2390   11.8130 C   0  0  0  0  0  0  0  0  0  0  0  0
   29.1540   41.3440   12.0680 N   0  0  0  0  0  0  0  0  0  0  0  0
   31.5510   41.0140   10.9460 S   0  0  0  0  0  0  0  0  0  0  0  0
   31.0490   42.6690   10.4220 C   0  0  0  0  0  0  0  0  0  0  0  0
   32.5560   42.8930    8.4360 C   0  0  0  0  0  0  0  0  0  0  0  0
   33.9140   44.9930    9.6180 C   0  0  0  0  0  0  0  0  0  0  0  0
   36.0230   46.0030   10.0130 F   0  0  0  0  0  0  0  0  0  0  0  0
   34.1970   47.3480    9.7270 F   0  0  0  0  0  0  0  0  0  0  0  0
   34.4250   46.1210   11.6410 F   0  0  0  0  0  0  0  0  0  0  0  0
   32.2972   39.6845   11.5822 H   0  0  0  0  0  0  0  0  0  0  0  0
   30.5687   36.4088   12.7718 H   0  0  0  0  0  0  0  0  0  0  0  0
   30.5574   36.3464   10.9889 H   0  0  0  0  0  0  0  0  0  0  0  0
   28.9350   38.7962   12.2741 H   0  0  0  0  0  0  0  0  0  0  0  0
   33.8925   43.1553    6.7673 H   0  0  0  0  0  0  0  0  0  0  0  0
   35.1122   45.0379    7.8287 H   0  0  0  0  0  0  0  0  0  0  0  0
   32.5709   44.7398   11.2819 H   0  0  0  0  0  0  0  0  0  0  0  0
   29.3042   42.3464   11.8847 H   0  0  0  0  0  0  0  0  0  0  0  0
   30.7788   43.2666   11.3051 H   0  0  0  0  0  0  0  0  0  0  0  0
   30.1813   42.5925    9.7503 H   0  0  0  0  0  0  0  0  0  0  0  0
   32.0174   42.0564    7.9669 H   0  0  0  0  0  0  0  0  0  0  0  0
  1 10  2  3
  2  4  1  0
  2 11  2  3
  2 12  1  0
  3 10  1  0
  4 10  1  0
  5  9  2  0
  5 13  1  0
  5 14  1  0
  6  7  1  0
  6 14  2  0
  7 15  2  0
  8 15  1  0
  8 16  1  0
  8 17  1  0
  8 18  1  0
  9 15  1  0
 12 13  1  0
  1 19  1  0
  3 20  1  0
  3 21  1  0
  4 22  1  0
  6 23  1  0
  7 24  1  0
  9 25  1  0
 11 26  1  0
 13 27  1  0
 13 28  1  0
 14 29  1  0
A    1
N1
A    2
C2
A    3
N2
A    4
N3
A    5
C4
A    6
C6
A    7
C7
A    8
C9
A    9
C10
A   10
C1
A   11
N4
A   12
S1
A   13
C3
A   14
C5
A   15
C8
A   16
F1
A   17
F2
A   18
F3
M  END
