2AOU_CQA_A_402
     RDKit          3D

 47 49  0  0  0  0  0  0  0  0999 V2000
   53.0060   -5.0200   36.6160 C   0  0  0  0  0  0  0  0  0  0  0  0
   52.0880   -4.6520   35.5600 C   0  0  0  0  0  0  0  0  0  0  0  0
   51.8960   -5.5390   34.4320 C   0  0  0  0  0  0  0  0  0  0  0  0
   52.6270   -6.7900   34.3590 C   0  0  0  0  0  0  0  0  0  0  0  0
   53.5510   -7.1500   35.4350 C   0  0  0  0  0  0  0  0  0  0  0  0
   53.7320   -6.2600   36.5550 C   0  0  0  0  0  0  0  0  0  0  0  0
   52.4820   -7.7080   33.2470 C   0  0  0  0  0  0  0  0  0  0  0  0
   53.2650   -8.9400   33.2630 C   0  0  0  0  0  0  0  0  0  0  0  0
   54.1470   -9.2070   34.3510 C   0  0  0  0  0  0  0  0  0  0  0  0
   54.2820   -8.3310   35.4110 N   0  0  0  0  0  0  0  0  0  0  0  0
   53.2780   -4.0030   37.9660 Cl  0  0  0  0  0  0  0  0  0  0  0  0
   51.5570   -7.3920   32.1290 N   0  0  0  0  0  0  0  0  0  0  0  0
   51.7620   -7.9990   30.8030 C   0  0  0  0  0  0  0  0  0  0  0  0
   52.2390   -7.1460   29.7490 C   0  0  0  0  0  0  0  0  0  0  0  0
   52.3870   -7.6880   28.4230 C   0  0  0  0  0  0  0  0  0  0  0  0
   52.0850   -9.0710   28.1240 C   0  0  0  0  0  0  0  0  0  0  0  0
   51.6220   -9.9360   29.2160 C   0  0  0  0  0  0  0  0  0  0  0  0
   51.4580   -9.3700   30.5100 C   0  0  0  0  0  0  0  0  0  0  0  0
   52.2610   -9.5310   26.6840 O   0  0  0  0  0  0  0  0  0  0  0  0
   51.5420  -11.3140   28.6290 C   0  0  0  0  0  0  0  0  0  0  0  0
   52.4700  -12.4260   28.6670 N   0  0  0  0  0  0  0  0  0  0  0  0
   52.6450  -12.4780   27.2420 C   0  0  0  0  0  0  0  0  0  0  0  0
   52.1520  -13.0520   25.9320 C   0  0  0  0  0  0  0  0  0  0  0  0
   51.6370  -13.4900   29.1610 C   0  0  0  0  0  0  0  0  0  0  0  0
   50.9020  -14.3070   30.2070 C   0  0  0  0  0  0  0  0  0  0  0  0
   51.5376   -3.7011   35.6140 H   0  0  0  0  0  0  0  0  0  0  0  0
   51.1954   -5.2642   33.6297 H   0  0  0  0  0  0  0  0  0  0  0  0
   54.4266   -6.5299   37.3641 H   0  0  0  0  0  0  0  0  0  0  0  0
   53.1747   -9.6610   32.4372 H   0  0  0  0  0  0  0  0  0  0  0  0
   54.7362  -10.1359   34.3464 H   0  0  0  0  0  0  0  0  0  0  0  0
   50.7693   -6.7461   32.2815 H   0  0  0  0  0  0  0  0  0  0  0  0
   52.4875   -6.0939   29.9524 H   0  0  0  0  0  0  0  0  0  0  0  0
   52.7399   -7.0315   27.6140 H   0  0  0  0  0  0  0  0  0  0  0  0
   51.0819  -10.0108   31.3211 H   0  0  0  0  0  0  0  0  0  0  0  0
   52.6081  -10.4383   26.4931 H   0  0  0  0  0  0  0  0  0  0  0  0
   50.6189  -11.7288   29.0601 H   0  0  0  0  0  0  0  0  0  0  0  0
   51.7294  -11.0227   27.5850 H   0  0  0  0  0  0  0  0  0  0  0  0
   52.5769  -11.4050   27.0094 H   0  0  0  0  0  0  0  0  0  0  0  0
   53.3315  -13.3297   27.3571 H   0  0  0  0  0  0  0  0  0  0  0  0
   51.4474  -13.8724   26.1332 H   0  0  0  0  0  0  0  0  0  0  0  0
   51.6437  -12.2653   25.3551 H   0  0  0  0  0  0  0  0  0  0  0  0
   53.0064  -13.4357   25.3551 H   0  0  0  0  0  0  0  0  0  0  0  0
   50.7658  -13.2809   28.5228 H   0  0  0  0  0  0  0  0  0  0  0  0
   52.5578  -14.0064   29.4701 H   0  0  0  0  0  0  0  0  0  0  0  0
   51.2026  -13.9729   31.2110 H   0  0  0  0  0  0  0  0  0  0  0  0
   49.8176  -14.1695   30.0842 H   0  0  0  0  0  0  0  0  0  0  0  0
   51.1530  -15.3709   30.0842 H   0  0  0  0  0  0  0  0  0  0  0  0
  1  2  2  0
  1  6  1  0
  1 11  1  0
  2  3  1  0
  3  4  2  0
  4  5  1  0
  4  7  1  0
  5  6  2  0
  5 10  1  0
  7  8  2  0
  7 12  1  0
  8  9  1  0
  9 10  2  0
 12 13  1  0
 13 14  2  0
 13 18  1  0
 14 15  1  0
 15 16  2  0
 16 17  1  0
 16 19  1  0
 17 18  2  0
 17 20  1  0
 20 21  1  0
 21 22  1  0
 21 24  1  0
 22 23  1  0
 24 25  1  0
  2 26  1  0
  3 27  1  0
  6 28  1  0
  8 29  1  0
  9 30  1  0
 12 31  1  0
 14 32  1  0
 15 33  1  0
 18 34  1  0
 19 35  1  0
 20 36  1  0
 20 37  1  0
 22 38  1  0
 22 39  1  0
 23 40  1  0
 23 41  1  0
 23 42  1  0
 24 43  1  0
 24 44  1  0
 25 45  1  0
 25 46  1  0
 25 47  1  0
A    1
C1
A    2
C2
A    3
C3
A    4
C4
A    5
C5
A    6
C6
A    7
C7
A    8
C8
A    9
C9
A   10
N1
A   11
CL
A   12
N2
A   13
C10
A   14
C11
A   15
C12
A   16
C13
A   17
C14
A   18
C15
A   19
O
A   20
C16
A   21
N3
A   22
C17
A   23
C18
A   24
C19
A   25
C20
M  END
