2AQ7_TL5_A_600
     RDKit          3D

 31 31  0  0  0  0  0  0  0  0999 V2000
   22.1480   87.6940    0.9150 O   0  0  0  0  0  0  0  0  0  0  0  0
   22.9200   88.6240    1.0870 C   0  0  0  0  0  0  0  0  0  0  0  0
   23.2540   89.0800    2.2900 C   0  0  0  0  0  0  0  0  0  0  0  0
   22.6340   88.5620    3.5550 C   0  0  0  0  0  0  0  0  0  0  0  0
   23.6250   89.4110   -0.2000 S   0  0  0  0  0  0  0  0  0  0  0  0
   24.4690   90.5370    0.8680 C   0  0  0  0  0  0  0  0  0  0  0  0
   24.1710   90.0360    2.2570 C   0  0  0  0  0  0  0  0  0  0  0  0
   24.7800   90.5040    3.3460 O   0  0  0  0  0  0  0  0  0  0  0  0
   23.9290   91.9580    0.7290 C   0  0  0  0  0  0  0  0  0  0  0  0
   25.9640   90.4880    0.6030 C   0  0  0  0  0  0  0  0  0  0  0  0
   26.5520   90.7770   -0.5790 C   0  0  0  0  0  0  0  0  0  0  0  0
   25.8180   91.2110   -1.8240 C   0  0  0  0  0  0  0  0  0  0  0  0
   28.0250   90.6920   -0.6220 C   0  0  0  0  0  0  0  0  0  0  0  0
   28.7210   91.0360   -1.7040 C   0  0  0  0  0  0  0  0  0  0  0  0
   30.2190   90.9570   -1.6720 C   0  0  0  0  0  0  0  0  0  0  0  0
   23.1533   88.9959    4.4222 H   0  0  0  0  0  0  0  0  0  0  0  0
   21.5713   88.8445    3.5849 H   0  0  0  0  0  0  0  0  0  0  0  0
   22.7230   87.4660    3.5849 H   0  0  0  0  0  0  0  0  0  0  0  0
   24.4507   90.2509    4.2447 H   0  0  0  0  0  0  0  0  0  0  0  0
   23.7657   92.3876    1.7284 H   0  0  0  0  0  0  0  0  0  0  0  0
   24.6556   92.5742    0.1792 H   0  0  0  0  0  0  0  0  0  0  0  0
   22.9765   91.9361    0.1792 H   0  0  0  0  0  0  0  0  0  0  0  0
   26.6182   90.1948    1.4373 H   0  0  0  0  0  0  0  0  0  0  0  0
   24.9031   91.7519   -1.5405 H   0  0  0  0  0  0  0  0  0  0  0  0
   26.4650   91.8718   -2.4195 H   0  0  0  0  0  0  0  0  0  0  0  0
   25.5508   90.3256   -2.4195 H   0  0  0  0  0  0  0  0  0  0  0  0
   28.5644   90.3335    0.2671 H   0  0  0  0  0  0  0  0  0  0  0  0
   28.2024   91.3750   -2.6129 H   0  0  0  0  0  0  0  0  0  0  0  0
   30.5630   90.9389   -0.6273 H   0  0  0  0  0  0  0  0  0  0  0  0
   30.5488   90.0402   -2.1826 H   0  0  0  0  0  0  0  0  0  0  0  0
   30.6434   91.8340   -2.1826 H   0  0  0  0  0  0  0  0  0  0  0  0
  1  2  2  0
  2  3  1  0
  2  5  1  0
  3  4  1  0
  3  7  2  0
  5  6  1  0
  6  7  1  0
  6  9  1  0
  6 10  1  0
  7  8  1  0
 10 11  2  0
 11 12  1  0
 11 13  1  0
 13 14  2  0
 14 15  1  0
  4 16  1  0
  4 17  1  0
  4 18  1  0
  8 19  1  0
  9 20  1  0
  9 21  1  0
  9 22  1  0
 10 23  1  0
 12 24  1  0
 12 25  1  0
 12 26  1  0
 13 27  1  0
 14 28  1  0
 15 29  1  0
 15 30  1  0
 15 31  1  0
A    1
O1
A    2
C1
A    3
C2
A    4
C9
A    5
S1
A    6
C4
A    7
C3
A    8
O2
A    9
C10
A   10
C5
A   11
C6
A   12
C11
A   13
C7
A   14
C8
A   15
C12
M  END
