2ACO_VCA_B_501
     RDKit          3D

 54 53  0  0  0  0  0  0  0  0999 V2000
   13.5390   27.5580   21.2650 O   0  0  0  0  0  0  0  0  0  0  0  0
   13.1440   28.0900   20.2040 C   0  0  0  0  0  0  0  0  0  0  0  0
   13.3830   27.6180   19.0710 O   0  0  0  0  0  0  0  0  0  0  0  0
   12.3350   29.3640   20.3070 C   0  0  0  0  0  0  0  0  0  0  0  0
   12.9860   30.5390   19.5720 C   0  0  0  0  0  0  0  0  0  0  0  0
   14.4430   30.7910   19.9350 C   0  0  0  0  0  0  0  0  0  0  0  0
   14.8180   32.2780   19.8570 C   0  0  0  0  0  0  0  0  0  0  0  0
   16.0510   32.5410   18.9890 C   0  0  0  0  0  0  0  0  0  0  0  0
   16.6140   33.9340   19.2650 C   0  0  0  0  0  0  0  0  0  0  0  0
   17.9050   34.1810   18.4910 C   0  0  0  0  0  0  0  0  0  0  0  0
   18.6810   35.3830   19.0260 C   0  0  0  0  0  0  0  0  0  0  0  0
   19.5410   35.9860   17.9260 C   0  0  0  0  0  0  0  0  0  0  0  0
   20.7690   36.7700   18.4120 C   0  0  0  0  0  0  0  0  0  0  0  0
   20.4900   38.2000   18.8680 C   0  0  0  0  0  0  0  0  0  0  0  0
   19.8440   39.1330   17.8520 C   0  0  0  0  0  0  0  0  0  0  0  0
   18.8210   39.9580   18.1650 C   0  0  0  0  0  0  0  0  0  0  0  0
   18.2190   39.9430   19.5520 C   0  0  0  0  0  0  0  0  0  0  0  0
   17.2780   41.0930   19.8200 C   0  0  0  0  0  0  0  0  0  0  0  0
   16.9520   41.2000   21.3110 C   0  0  0  0  0  0  0  0  0  0  0  0
   15.4750   41.1550   21.5980 C   0  0  0  0  0  0  0  0  0  0  0  0
   13.2618   27.9313   22.1390 H   0  0  0  0  0  0  0  0  0  0  0  0
   11.3402   29.1851   19.8729 H   0  0  0  0  0  0  0  0  0  0  0  0
   12.2722   29.6323   21.3719 H   0  0  0  0  0  0  0  0  0  0  0  0
   12.9322   30.3390   18.4917 H   0  0  0  0  0  0  0  0  0  0  0  0
   12.4313   31.4393   19.8749 H   0  0  0  0  0  0  0  0  0  0  0  0
   14.6176   30.4362   20.9615 H   0  0  0  0  0  0  0  0  0  0  0  0
   15.0675   30.2496   19.2092 H   0  0  0  0  0  0  0  0  0  0  0  0
   13.9671   32.8320   19.4337 H   0  0  0  0  0  0  0  0  0  0  0  0
   15.0584   32.6099   20.8778 H   0  0  0  0  0  0  0  0  0  0  0  0
   16.8204   31.7884   19.2160 H   0  0  0  0  0  0  0  0  0  0  0  0
   15.7597   32.4790   17.9301 H   0  0  0  0  0  0  0  0  0  0  0  0
   15.8689   34.6859   18.9659 H   0  0  0  0  0  0  0  0  0  0  0  0
   16.8373   34.0083   20.3395 H   0  0  0  0  0  0  0  0  0  0  0  0
   18.5406   33.2866   18.5687 H   0  0  0  0  0  0  0  0  0  0  0  0
   17.6353   34.3928   17.4458 H   0  0  0  0  0  0  0  0  0  0  0  0
   17.9714   36.1411   19.3890 H   0  0  0  0  0  0  0  0  0  0  0  0
   19.3315   35.0523   19.8491 H   0  0  0  0  0  0  0  0  0  0  0  0
   19.8932   35.1669   17.2818 H   0  0  0  0  0  0  0  0  0  0  0  0
   18.9022   36.7127   17.4028 H   0  0  0  0  0  0  0  0  0  0  0  0
   21.7780   36.3322   18.4302 H   0  0  0  0  0  0  0  0  0  0  0  0
   20.7436   38.5406   19.8827 H   0  0  0  0  0  0  0  0  0  0  0  0
   20.6511   39.7784   17.4752 H   0  0  0  0  0  0  0  0  0  0  0  0
   19.3549   38.4190   17.1730 H   0  0  0  0  0  0  0  0  0  0  0  0
   19.1776   40.9833   17.9874 H   0  0  0  0  0  0  0  0  0  0  0  0
   18.0003   39.5838   17.5354 H   0  0  0  0  0  0  0  0  0  0  0  0
   17.6624   39.0027   19.6784 H   0  0  0  0  0  0  0  0  0  0  0  0
   19.0521   40.0379   20.2640 H   0  0  0  0  0  0  0  0  0  0  0  0
   17.7503   42.0290   19.4872 H   0  0  0  0  0  0  0  0  0  0  0  0
   16.3426   40.9156   19.2691 H   0  0  0  0  0  0  0  0  0  0  0  0
   17.4361   40.3633   21.8360 H   0  0  0  0  0  0  0  0  0  0  0  0
   17.3237   42.1752   21.6585 H   0  0  0  0  0  0  0  0  0  0  0  0
   15.3129   41.1501   22.6860 H   0  0  0  0  0  0  0  0  0  0  0  0
   14.9891   42.0388   21.1589 H   0  0  0  0  0  0  0  0  0  0  0  0
   15.0438   40.2433   21.1589 H   0  0  0  0  0  0  0  0  0  0  0  0
  1  2  1  0
  2  3  2  0
  2  4  1  0
  4  5  1  0
  5  6  1  0
  6  7  1  0
  7  8  1  0
  8  9  1  0
  9 10  1  0
 10 11  1  0
 11 12  1  0
 12 13  1  0
 13 14  2  0
 14 15  1  0
 15 16  1  0
 16 17  1  0
 17 18  1  0
 18 19  1  0
 19 20  1  0
  1 21  1  0
  4 22  1  0
  4 23  1  0
  5 24  1  0
  5 25  1  0
  6 26  1  0
  6 27  1  0
  7 28  1  0
  7 29  1  0
  8 30  1  0
  8 31  1  0
  9 32  1  0
  9 33  1  0
 10 34  1  0
 10 35  1  0
 11 36  1  0
 11 37  1  0
 12 38  1  0
 12 39  1  0
 13 40  1  0
 14 41  1  0
 15 42  1  0
 15 43  1  0
 16 44  1  0
 16 45  1  0
 17 46  1  0
 17 47  1  0
 18 48  1  0
 18 49  1  0
 19 50  1  0
 19 51  1  0
 20 52  1  0
 20 53  1  0
 20 54  1  0
A    1
O2
A    2
C1
A    3
O1
A    4
C2
A    5
C3
A    6
C4
A    7
C5
A    8
C6
A    9
C7
A   10
C8
A   11
C9
A   12
C10
A   13
C11
A   14
C12
A   15
C13
A   16
C14
A   17
C15
A   18
C16
A   19
C17
A   20
C18
M  END
