2AY4_PPT_B_414
     RDKit          3D

 24 24  0  0  0  0  0  0  0  0999 V2000
  103.4200   46.1910   11.9400 C   0  0  0  0  0  0  0  0  0  0  0  0
  102.9880   47.1070   13.0690 C   0  0  0  0  0  0  0  0  0  0  0  0
  103.3660   46.8430   14.2270 O   0  0  0  0  0  0  0  0  0  0  0  0
  102.2590   48.0890   12.8100 O   0  0  0  0  0  0  0  0  0  0  0  0
  102.3090   45.9170   10.9250 C   0  0  0  0  0  0  0  0  0  0  0  0
  101.2300   44.9780   11.4230 C   0  0  0  0  0  0  0  0  0  0  0  0
  101.0550   43.7260   10.8390 C   0  0  0  0  0  0  0  0  0  0  0  0
  100.3730   45.3580   12.4490 C   0  0  0  0  0  0  0  0  0  0  0  0
  100.0430   42.8790   11.2700 C   0  0  0  0  0  0  0  0  0  0  0  0
   99.3640   44.5150   12.8790 C   0  0  0  0  0  0  0  0  0  0  0  0
   99.1840   43.2680   12.2940 C   0  0  0  0  0  0  0  0  0  0  0  0
   98.0570   42.3740   12.7330 C   0  0  0  0  0  0  0  0  0  0  0  0
  104.2654   46.6591   11.4145 H   0  0  0  0  0  0  0  0  0  0  0  0
  103.6953   45.2259   12.3904 H   0  0  0  0  0  0  0  0  0  0  0  0
  101.8645   48.6205   13.5462 H   0  0  0  0  0  0  0  0  0  0  0  0
  101.8377   46.8756   10.6625 H   0  0  0  0  0  0  0  0  0  0  0  0
  102.7830   45.4246   10.0631 H   0  0  0  0  0  0  0  0  0  0  0  0
  101.7253   43.4049   10.0281 H   0  0  0  0  0  0  0  0  0  0  0  0
  100.4986   46.3416   12.9252 H   0  0  0  0  0  0  0  0  0  0  0  0
   99.9190   41.8929   10.7987 H   0  0  0  0  0  0  0  0  0  0  0  0
   98.6971   44.8356   13.6929 H   0  0  0  0  0  0  0  0  0  0  0  0
   98.0194   42.3442   13.8320 H   0  0  0  0  0  0  0  0  0  0  0  0
   97.1055   42.7656   12.3441 H   0  0  0  0  0  0  0  0  0  0  0  0
   98.2218   41.3583   12.3441 H   0  0  0  0  0  0  0  0  0  0  0  0
  1  2  1  0
  1  5  1  0
  2  3  2  0
  2  4  1  0
  5  6  1  0
  6  7  2  0
  6  8  1  0
  7  9  1  0
  8 10  2  0
  9 11  2  0
 10 11  1  0
 11 12  1  0
  1 13  1  0
  1 14  1  0
  4 15  1  0
  5 16  1  0
  5 17  1  0
  7 18  1  0
  8 19  1  0
  9 20  1  0
 10 21  1  0
 12 22  1  0
 12 23  1  0
 12 24  1  0
A    1
CA
A    2
C
A    3
OT1
A    4
OT2
A    5
CB
A    6
CG
A    7
CD1
A    8
CD2
A    9
CE1
A   10
CE2
A   11
CZ
A   12
CH
M  END
