2AY8_4TB_A_414
     RDKit          3D

 21 21  0  0  0  0  0  0  0  0999 V2000
   94.3950   19.8500   -0.8210 S   0  0  0  0  0  0  0  0  0  0  0  0
   94.1950   18.5030   -1.9270 C   0  0  0  0  0  0  0  0  0  0  0  0
   95.1230   17.5370   -1.7350 C   0  0  0  0  0  0  0  0  0  0  0  0
   96.0490   17.8650   -0.6510 C   0  0  0  0  0  0  0  0  0  0  0  0
   95.7790   19.0540   -0.0830 C   0  0  0  0  0  0  0  0  0  0  0  0
   93.0680   18.5040   -2.9150 C   0  0  0  0  0  0  0  0  0  0  0  0
   93.1720   17.3870   -3.9370 C   0  0  0  0  0  0  0  0  0  0  0  0
   91.8120   16.8080   -4.2700 C   0  0  0  0  0  0  0  0  0  0  0  0
   91.7940   15.3020   -4.1330 C   0  0  0  0  0  0  0  0  0  0  0  0
   91.2010   14.7960   -3.1620 O   0  0  0  0  0  0  0  0  0  0  0  0
   92.4100   14.6140   -4.9680 O   0  0  0  0  0  0  0  0  0  0  0  0
   95.1751   16.6110   -2.3264 H   0  0  0  0  0  0  0  0  0  0  0  0
   96.8753   17.2111   -0.3351 H   0  0  0  0  0  0  0  0  0  0  0  0
   96.3584   19.4804    0.7492 H   0  0  0  0  0  0  0  0  0  0  0  0
   92.1214   18.3898   -2.3665 H   0  0  0  0  0  0  0  0  0  0  0  0
   93.1134   19.4563   -3.4638 H   0  0  0  0  0  0  0  0  0  0  0  0
   93.6253   17.7855   -4.8566 H   0  0  0  0  0  0  0  0  0  0  0  0
   93.7920   16.5855   -3.5091 H   0  0  0  0  0  0  0  0  0  0  0  0
   91.0652   17.2368   -3.5856 H   0  0  0  0  0  0  0  0  0  0  0  0
   91.5802   17.0590   -5.3156 H   0  0  0  0  0  0  0  0  0  0  0  0
   91.4738   15.0288   -2.2393 H   0  0  0  0  0  0  0  0  0  0  0  0
  1  2  1  0
  1  5  1  0
  2  3  2  0
  2  6  1  0
  3  4  1  0
  4  5  2  0
  6  7  1  0
  7  8  1  0
  8  9  1  0
  9 10  1  0
  9 11  2  0
  3 12  1  0
  4 13  1  0
  5 14  1  0
  6 15  1  0
  6 16  1  0
  7 17  1  0
  7 18  1  0
  8 19  1  0
  8 20  1  0
 10 21  1  0
A    1
S1
A    2
C2
A    3
C3
A    4
C4
A    5
C5
A    6
C6
A    7
C7
A    8
C8
A    9
C9
A   10
O1
A   11
O2
M  END
