2AY9_5PV_A_414
     RDKit          3D

 27 27  0  0  0  0  0  0  0  0999 V2000
   94.9910   18.5800   -1.6300 C   0  0  0  0  0  0  0  0  0  0  0  0
   94.1730   19.6790   -1.2980 C   0  0  0  0  0  0  0  0  0  0  0  0
   94.0930   20.1500    0.0020 C   0  0  0  0  0  0  0  0  0  0  0  0
   94.8250   19.5370    0.9950 C   0  0  0  0  0  0  0  0  0  0  0  0
   95.6520   18.4540    0.6830 C   0  0  0  0  0  0  0  0  0  0  0  0
   95.7290   17.9750   -0.6300 C   0  0  0  0  0  0  0  0  0  0  0  0
   95.0690   18.0720   -3.0400 C   0  0  0  0  0  0  0  0  0  0  0  0
   93.9580   17.1070   -3.4040 C   0  0  0  0  0  0  0  0  0  0  0  0
   92.5280   17.6700   -3.2480 C   0  0  0  0  0  0  0  0  0  0  0  0
   91.5320   16.8440   -4.0830 C   0  0  0  0  0  0  0  0  0  0  0  0
   91.6960   15.3390   -3.8720 C   0  0  0  0  0  0  0  0  0  0  0  0
   91.3100   14.8270   -2.8040 O   0  0  0  0  0  0  0  0  0  0  0  0
   92.2100   14.6570   -4.7770 O   0  0  0  0  0  0  0  0  0  0  0  0
   93.5866   20.1723   -2.0871 H   0  0  0  0  0  0  0  0  0  0  0  0
   93.4484   21.0089    0.2403 H   0  0  0  0  0  0  0  0  0  0  0  0
   94.7589   19.8991    2.0316 H   0  0  0  0  0  0  0  0  0  0  0  0
   96.2464   17.9749    1.4749 H   0  0  0  0  0  0  0  0  0  0  0  0
   96.3765   17.1176   -0.8659 H   0  0  0  0  0  0  0  0  0  0  0  0
   95.0180   18.9332   -3.7224 H   0  0  0  0  0  0  0  0  0  0  0  0
   96.0160   17.5196   -3.1300 H   0  0  0  0  0  0  0  0  0  0  0  0
   94.0949   16.8092   -4.4540 H   0  0  0  0  0  0  0  0  0  0  0  0
   94.0366   16.2669   -2.6983 H   0  0  0  0  0  0  0  0  0  0  0  0
   92.2353   17.6276   -2.1885 H   0  0  0  0  0  0  0  0  0  0  0  0
   92.5137   18.7112   -3.6027 H   0  0  0  0  0  0  0  0  0  0  0  0
   90.5093   17.1307   -3.7968 H   0  0  0  0  0  0  0  0  0  0  0  0
   91.7302   17.0557   -5.1441 H   0  0  0  0  0  0  0  0  0  0  0  0
   91.5991   15.2105   -1.9383 H   0  0  0  0  0  0  0  0  0  0  0  0
  1  2  2  0
  1  6  1  0
  1  7  1  0
  2  3  1  0
  3  4  2  0
  4  5  1  0
  5  6  2  0
  7  8  1  0
  8  9  1  0
  9 10  1  0
 10 11  1  0
 11 12  1  0
 11 13  2  0
  2 14  1  0
  3 15  1  0
  4 16  1  0
  5 17  1  0
  6 18  1  0
  7 19  1  0
  7 20  1  0
  8 21  1  0
  8 22  1  0
  9 23  1  0
  9 24  1  0
 10 25  1  0
 10 26  1  0
 12 27  1  0
A    1
C1
A    2
C2
A    3
C3
A    4
C4
A    5
C5
A    6
C6
A    7
C7
A    8
C8
A    9
C9
A   10
C10
A   11
C11
A   12
O1
A   13
O2
M  END
