2B07_598_A_301
     RDKit          3D

 61 65  0  0  0  0  0  0  0  0999 V2000
   44.3620   14.1180    0.5200 S   0  0  0  0  0  0  0  0  0  0  0  0
   44.6830   15.3340    1.6850 C   0  0  0  0  0  0  0  0  0  0  0  0
   45.5910   14.9690    2.6490 C   0  0  0  0  0  0  0  0  0  0  0  0
   46.0140   13.6290    2.4370 C   0  0  0  0  0  0  0  0  0  0  0  0
   45.4390   13.0490    1.3430 C   0  0  0  0  0  0  0  0  0  0  0  0
   43.9670   16.7160    1.5230 C   0  0  0  0  0  0  0  0  0  0  0  0
   44.0370   17.5620    2.4670 O   0  0  0  0  0  0  0  0  0  0  0  0
   43.3800   16.8410    0.4120 O   0  0  0  0  0  0  0  0  0  0  0  0
   46.0220   15.7410    3.6790 O   0  0  0  0  0  0  0  0  0  0  0  0
   47.2680   16.4150    3.4510 C   0  0  0  0  0  0  0  0  0  0  0  0
   47.5720   17.1990    4.7270 C   0  0  0  0  0  0  0  0  0  0  0  0
   46.6960   17.1600    5.6320 O   0  0  0  0  0  0  0  0  0  0  0  0
   48.6730   17.7860    4.7440 O   0  0  0  0  0  0  0  0  0  0  0  0
   47.1170   12.5550    3.2310 S   0  0  0  0  0  0  0  0  0  0  0  0
   46.7620   11.3250    2.0640 C   0  0  0  0  0  0  0  0  0  0  0  0
   45.8400   11.7110    1.0930 C   0  0  0  0  0  0  0  0  0  0  0  0
   47.3100   10.0270    2.0140 C   0  0  0  0  0  0  0  0  0  0  0  0
   46.9340    9.1100    1.0050 C   0  0  0  0  0  0  0  0  0  0  0  0
   46.0130    9.5230    0.0360 C   0  0  0  0  0  0  0  0  0  0  0  0
   45.4590   10.8140    0.0650 C   0  0  0  0  0  0  0  0  0  0  0  0
   47.5160    7.8510    1.0300 N   0  0  0  0  0  0  0  0  0  0  0  0
   48.5720    7.4510    1.9440 C   0  0  0  0  0  0  0  0  0  0  0  0
   47.9410    6.9520    3.2650 C   0  0  0  0  0  0  0  0  0  0  0  0
   49.0190    6.4840    4.2370 C   0  0  0  0  0  0  0  0  0  0  0  0
   49.8400    5.4300    3.5400 N   0  0  0  0  0  0  0  0  0  0  0  0
   50.5370    5.9320    2.2970 C   0  0  0  0  0  0  0  0  0  0  0  0
   49.4680    6.3810    1.3030 C   0  0  0  0  0  0  0  0  0  0  0  0
   50.6720    4.2940    4.5480 S   0  0  0  0  0  0  0  0  0  0  0  0
   49.6580    2.8300    4.3100 C   0  0  0  0  0  0  0  0  0  0  0  0
   49.3150    2.6740    2.8490 C   0  0  0  0  0  0  0  0  0  0  0  0
   48.0250    2.9940    2.3820 C   0  0  0  0  0  0  0  0  0  0  0  0
   47.6950    2.8550    1.0240 C   0  0  0  0  0  0  0  0  0  0  0  0
   48.6570    2.3980    0.1190 C   0  0  0  0  0  0  0  0  0  0  0  0
   49.9480    2.0760    0.5670 C   0  0  0  0  0  0  0  0  0  0  0  0
   50.2760    2.2120    1.9250 C   0  0  0  0  0  0  0  0  0  0  0  0
   50.5680    4.7260    5.9280 O   0  0  0  0  0  0  0  0  0  0  0  0
   51.9810    4.0690    3.9540 O   0  0  0  0  0  0  0  0  0  0  0  0
   44.0117   17.2565    3.4084 H   0  0  0  0  0  0  0  0  0  0  0  0
   48.0659   15.6839    3.2541 H   0  0  0  0  0  0  0  0  0  0  0  0
   47.2080   17.0810    2.5776 H   0  0  0  0  0  0  0  0  0  0  0  0
   46.9670   17.1721    6.5841 H   0  0  0  0  0  0  0  0  0  0  0  0
   48.0440    9.7216    2.7742 H   0  0  0  0  0  0  0  0  0  0  0  0
   45.7177    8.8255   -0.7617 H   0  0  0  0  0  0  0  0  0  0  0  0
   44.7361   11.1252   -0.7035 H   0  0  0  0  0  0  0  0  0  0  0  0
   47.1761    7.1519    0.3542 H   0  0  0  0  0  0  0  0  0  0  0  0
   49.2133    8.3162    2.1678 H   0  0  0  0  0  0  0  0  0  0  0  0
   47.3719    7.7730    3.7256 H   0  0  0  0  0  0  0  0  0  0  0  0
   47.2766    6.1045    3.0404 H   0  0  0  0  0  0  0  0  0  0  0  0
   49.6605    7.3313    4.5209 H   0  0  0  0  0  0  0  0  0  0  0  0
   48.5622    6.0744    5.1500 H   0  0  0  0  0  0  0  0  0  0  0  0
   51.1891    6.7804    2.5519 H   0  0  0  0  0  0  0  0  0  0  0  0
   51.1551    5.1349    1.8581 H   0  0  0  0  0  0  0  0  0  0  0  0
   48.8529    5.5161    1.0139 H   0  0  0  0  0  0  0  0  0  0  0  0
   49.9569    6.8047    0.4134 H   0  0  0  0  0  0  0  0  0  0  0  0
   50.2123    1.9432    4.6511 H   0  0  0  0  0  0  0  0  0  0  0  0
   48.7295    2.9346    4.8905 H   0  0  0  0  0  0  0  0  0  0  0  0
   47.2661    3.3576    3.0904 H   0  0  0  0  0  0  0  0  0  0  0  0
   46.6827    3.1050    0.6738 H   0  0  0  0  0  0  0  0  0  0  0  0
   48.4023    2.2905   -0.9457 H   0  0  0  0  0  0  0  0  0  0  0  0
   50.7035    1.7166   -0.1472 H   0  0  0  0  0  0  0  0  0  0  0  0
   51.2885    1.9568    2.2710 H   0  0  0  0  0  0  0  0  0  0  0  0
  1  2  1  0
  1  5  1  0
  2  3  2  0
  2  6  1  0
  3  4  1  0
  3  9  1  0
  4  5  2  0
  4 14  1  0
  5 16  1  0
  6  7  1  0
  6  8  2  0
  9 10  1  0
 10 11  1  0
 11 12  1  0
 11 13  2  0
 14 15  1  0
 15 16  2  0
 15 17  1  0
 16 20  1  0
 17 18  2  0
 18 19  1  0
 18 21  1  0
 19 20  2  0
 21 22  1  0
 22 23  1  0
 22 27  1  0
 23 24  1  0
 24 25  1  0
 25 26  1  0
 25 28  1  0
 26 27  1  0
 28 29  1  0
 28 36  2  0
 28 37  2  0
 29 30  1  0
 30 31  2  0
 30 35  1  0
 31 32  1  0
 32 33  2  0
 33 34  1  0
 34 35  2  0
  7 38  1  0
 10 39  1  0
 10 40  1  0
 12 41  1  0
 17 42  1  0
 19 43  1  0
 20 44  1  0
 21 45  1  0
 22 46  1  0
 23 47  1  0
 23 48  1  0
 24 49  1  0
 24 50  1  0
 26 51  1  0
 26 52  1  0
 27 53  1  0
 27 54  1  0
 29 55  1  0
 29 56  1  0
 31 57  1  0
 32 58  1  0
 33 59  1  0
 34 60  1  0
 35 61  1  0
A    1
S1
A    2
C2
A    3
C3
A    4
C4
A    5
C5
A    6
C6
A    7
O7
A    8
O8
A    9
O9
A   10
C10
A   11
C11
A   12
O14
A   13
O15
A   14
S18
A   15
C19
A   16
C20
A   17
C21
A   18
C22
A   19
C23
A   20
C24
A   21
N28
A   22
C29
A   23
C30
A   24
C31
A   25
N32
A   26
C33
A   27
C34
A   28
S44
A   29
C45
A   30
C46
A   31
C49
A   32
C50
A   33
C51
A   34
C52
A   35
C53
A   36
O59
A   37
O60
M  END
