2B1P_AIZ_A_501
     RDKit          3D

 61 64  0  0  0  0  0  0  0  0999 V2000
   45.7220    6.4840   32.0660 C   0  0  0  0  0  0  0  0  0  0  0  0
   45.6460    7.9320   32.2730 C   0  0  0  0  0  0  0  0  0  0  0  0
   46.8300    5.6890   31.4860 C   0  0  0  0  0  0  0  0  0  0  0  0
   44.6280    5.9480   32.5600 N   0  0  0  0  0  0  0  0  0  0  0  0
   44.3930    8.1450   32.8870 C   0  0  0  0  0  0  0  0  0  0  0  0
   46.4620    9.0510   31.9890 C   0  0  0  0  0  0  0  0  0  0  0  0
   46.9660    4.3850   31.9290 C   0  0  0  0  0  0  0  0  0  0  0  0
   47.7210    6.2260   30.5690 C   0  0  0  0  0  0  0  0  0  0  0  0
   43.7890    6.9330   33.0530 N   0  0  0  0  0  0  0  0  0  0  0  0
   44.0000    9.4390   33.2040 C   0  0  0  0  0  0  0  0  0  0  0  0
   46.0470   10.3240   32.3210 C   0  0  0  0  0  0  0  0  0  0  0  0
   47.9790    3.5700   31.4590 C   0  0  0  0  0  0  0  0  0  0  0  0
   48.7570    5.4230   30.0860 C   0  0  0  0  0  0  0  0  0  0  0  0
   44.7990   10.5270   32.9300 C   0  0  0  0  0  0  0  0  0  0  0  0
   48.8740    4.0930   30.5230 C   0  0  0  0  0  0  0  0  0  0  0  0
   47.9960    2.2470   31.9700 N   0  0  0  0  0  0  0  0  0  0  0  0
   49.6970    6.0200   29.1120 C   0  0  0  0  0  0  0  0  0  0  0  0
   44.3980   11.8100   33.2990 N   0  0  0  0  0  0  0  0  0  0  0  0
   49.0820    1.4400   32.1310 C   0  0  0  0  0  0  0  0  0  0  0  0
   49.4940    7.1480   28.7070 O   0  0  0  0  0  0  0  0  0  0  0  0
   43.6260   12.0370   34.4410 C   0  0  0  0  0  0  0  0  0  0  0  0
   48.8880    0.0440   32.7070 C   0  0  0  0  0  0  0  0  0  0  0  0
   50.1890    1.8470   31.8120 O   0  0  0  0  0  0  0  0  0  0  0  0
   42.7140   13.0760   34.3970 C   0  0  0  0  0  0  0  0  0  0  0  0
   43.7280   11.2290   35.5920 C   0  0  0  0  0  0  0  0  0  0  0  0
   49.9380   -0.9740   32.2210 C   0  0  0  0  0  0  0  0  0  0  0  0
   41.8940   13.3420   35.4870 C   0  0  0  0  0  0  0  0  0  0  0  0
   42.6150   14.0580   32.9770 Cl  0  0  0  0  0  0  0  0  0  0  0  0
   42.9070   11.4940   36.6730 C   0  0  0  0  0  0  0  0  0  0  0  0
   50.0290   -2.1980   33.1690 C   0  0  0  0  0  0  0  0  0  0  0  0
   41.9760   12.5380   36.6210 C   0  0  0  0  0  0  0  0  0  0  0  0
   51.2860   -2.9830   33.0080 N   0  0  0  0  0  0  0  0  0  0  0  0
   51.7120   -3.4410   34.3450 C   0  0  0  0  0  0  0  0  0  0  0  0
   50.9810   -4.2090   32.2370 C   0  0  0  0  0  0  0  0  0  0  0  0
   50.7790    5.3300   28.6630 O   0  0  0  0  0  0  0  0  0  0  0  0
   47.4361    8.9053   31.4991 H   0  0  0  0  0  0  0  0  0  0  0  0
   46.2547    3.9895   32.6690 H   0  0  0  0  0  0  0  0  0  0  0  0
   47.6138    7.2663   30.2279 H   0  0  0  0  0  0  0  0  0  0  0  0
   42.8625    6.7766   33.4751 H   0  0  0  0  0  0  0  0  0  0  0  0
   43.0246    9.5991   33.6867 H   0  0  0  0  0  0  0  0  0  0  0  0
   46.6978   11.1847   32.1072 H   0  0  0  0  0  0  0  0  0  0  0  0
   49.6783    3.4574   30.1241 H   0  0  0  0  0  0  0  0  0  0  0  0
   47.0868    1.8526   32.2504 H   0  0  0  0  0  0  0  0  0  0  0  0
   44.6779   12.6109   32.7149 H   0  0  0  0  0  0  0  0  0  0  0  0
   49.3607    7.8885   29.3505 H   0  0  0  0  0  0  0  0  0  0  0  0
   48.9474    0.1086   33.8035 H   0  0  0  0  0  0  0  0  0  0  0  0
   47.9068   -0.3143   32.3622 H   0  0  0  0  0  0  0  0  0  0  0  0
   44.4500   10.4000   35.6296 H   0  0  0  0  0  0  0  0  0  0  0  0
   49.6593   -1.3215   31.2152 H   0  0  0  0  0  0  0  0  0  0  0  0
   50.9188   -0.4762   32.2072 H   0  0  0  0  0  0  0  0  0  0  0  0
   41.1848   14.1822   35.4542 H   0  0  0  0  0  0  0  0  0  0  0  0
   42.9863   10.8790   37.5816 H   0  0  0  0  0  0  0  0  0  0  0  0
   49.9733   -1.8391   34.2073 H   0  0  0  0  0  0  0  0  0  0  0  0
   49.1945   -2.8676   32.9136 H   0  0  0  0  0  0  0  0  0  0  0  0
   41.3091   12.7233   37.4760 H   0  0  0  0  0  0  0  0  0  0  0  0
   51.1780   -2.8669   35.1166 H   0  0  0  0  0  0  0  0  0  0  0  0
   51.4801   -4.5104   34.4574 H   0  0  0  0  0  0  0  0  0  0  0  0
   52.7954   -3.2870   34.4574 H   0  0  0  0  0  0  0  0  0  0  0  0
   50.7750   -5.0370   32.9313 H   0  0  0  0  0  0  0  0  0  0  0  0
   50.0991   -4.0338   31.6034 H   0  0  0  0  0  0  0  0  0  0  0  0
   51.8422   -4.4674   31.6034 H   0  0  0  0  0  0  0  0  0  0  0  0
  1  2  1  0
  1  3  1  0
  1  4  2  0
  2  5  2  0
  2  6  1  0
  3  7  2  0
  3  8  1  0
  4  9  1  0
  5  9  1  0
  5 10  1  0
  6 11  2  0
  7 12  1  0
  8 13  2  0
 10 14  2  0
 11 14  1  0
 12 15  2  0
 12 16  1  0
 13 15  1  0
 13 17  1  0
 14 18  1  0
 16 19  1  0
 17 20  1  0
 17 35  2  0
 18 21  1  0
 19 22  1  0
 19 23  2  0
 21 24  2  0
 21 25  1  0
 22 26  1  0
 24 27  1  0
 24 28  1  0
 25 29  2  0
 26 30  1  0
 27 31  2  0
 29 31  1  0
 30 32  1  0
 32 33  1  0
 32 34  1  0
  6 36  1  0
  7 37  1  0
  8 38  1  0
  9 39  1  0
 10 40  1  0
 11 41  1  0
 15 42  1  0
 16 43  1  0
 18 44  1  0
 20 45  1  0
 22 46  1  0
 22 47  1  0
 25 48  1  0
 26 49  1  0
 26 50  1  0
 27 51  1  0
 29 52  1  0
 30 53  1  0
 30 54  1  0
 31 55  1  0
 33 56  1  0
 33 57  1  0
 33 58  1  0
 34 59  1  0
 34 60  1  0
 34 61  1  0
A    1
C1
A    2
C2
A    3
C3
A    4
N4
A    5
C5
A    6
C6
A    7
C7
A    8
C8
A    9
N9
A   10
C10
A   11
C11
A   12
C12
A   13
C13
A   14
C14
A   15
C15
A   16
N16
A   17
C17
A   18
N18
A   19
C19
A   20
O20
A   21
C21
A   22
C22
A   23
O23
A   24
C24
A   25
C25
A   26
C26
A   27
C27
A   28
CL28
A   29
C29
A   30
C30
A   31
C31
A   32
N32
A   33
C33
A   34
C34
A   35
O35
M  END
