2B52_D42_A_299
     RDKit          3D

 54 58  0  0  0  0  0  0  0  0999 V2000
   75.6190   64.7320   14.8060 C   0  0  0  0  0  0  0  0  0  0  0  0
   76.3040   63.4150   15.1330 C   0  0  0  0  0  0  0  0  0  0  0  0
   77.7720   63.5740   15.2490 N   0  0  0  0  0  0  0  0  0  0  0  0
   78.3910   64.1570   14.0390 C   0  0  0  0  0  0  0  0  0  0  0  0
   77.7060   65.4640   13.6240 C   0  0  0  0  0  0  0  0  0  0  0  0
   76.2200   65.3620   13.6070 N   0  0  0  0  0  0  0  0  0  0  0  0
   75.4370   66.5040   13.1310 C   0  0  0  0  0  0  0  0  0  0  0  0
   78.4260   62.6350   16.2350 N   0  0  0  0  0  0  0  0  0  0  0  0
   78.6650   61.3390   16.0070 C   0  0  0  0  0  0  0  0  0  0  0  0
   79.4940   60.9990   15.0190 N   0  0  0  0  0  0  0  0  0  0  0  0
   80.0790   59.7270   14.7950 C   0  0  0  0  0  0  0  0  0  0  0  0
   79.8030   58.5000   15.5770 C   0  0  0  0  0  0  0  0  0  0  0  0
   80.5270   57.2710   15.2030 C   0  0  0  0  0  0  0  0  0  0  0  0
   81.4990   57.2740   14.0910 C   0  0  0  0  0  0  0  0  0  0  0  0
   81.7490   58.5080   13.3400 C   0  0  0  0  0  0  0  0  0  0  0  0
   81.0380   59.7460   13.6750 C   0  0  0  0  0  0  0  0  0  0  0  0
   82.5440   58.8350   12.1750 C   0  0  0  0  0  0  0  0  0  0  0  0
   82.3160   60.2160   11.8070 C   0  0  0  0  0  0  0  0  0  0  0  0
   81.3720   60.8130   12.7420 C   0  0  0  0  0  0  0  0  0  0  0  0
   83.4000   58.1540   11.2830 N   0  0  0  0  0  0  0  0  0  0  0  0
   83.7040   59.2640   10.2960 N   0  0  0  0  0  0  0  0  0  0  0  0
   83.0550   60.4840   10.5850 C   0  0  0  0  0  0  0  0  0  0  0  0
   83.0830   61.5800    9.6250 C   0  0  0  0  0  0  0  0  0  0  0  0
   81.6960   62.7390    9.4520 S   0  0  0  0  0  0  0  0  0  0  0  0
   82.5480   63.5920    8.0860 C   0  0  0  0  0  0  0  0  0  0  0  0
   83.8100   63.0100    7.7980 N   0  0  0  0  0  0  0  0  0  0  0  0
   84.1070   61.9050    8.6340 C   0  0  0  0  0  0  0  0  0  0  0  0
   85.4030   61.1880    8.3990 C   0  0  0  0  0  0  0  0  0  0  0  0
   81.9750   64.7820    7.3280 C   0  0  0  0  0  0  0  0  0  0  0  0
   78.1330   60.4710   16.7090 O   0  0  0  0  0  0  0  0  0  0  0  0
   80.8540   61.9310   12.7390 O   0  0  0  0  0  0  0  0  0  0  0  0
   74.5517   64.5447   14.6167 H   0  0  0  0  0  0  0  0  0  0  0  0
   75.7461   65.4136   15.6599 H   0  0  0  0  0  0  0  0  0  0  0  0
   75.9101   63.0359   16.0875 H   0  0  0  0  0  0  0  0  0  0  0  0
   76.0995   62.7099   14.3138 H   0  0  0  0  0  0  0  0  0  0  0  0
   79.4523   64.3606   14.2446 H   0  0  0  0  0  0  0  0  0  0  0  0
   78.2796   63.4357   13.2160 H   0  0  0  0  0  0  0  0  0  0  0  0
   77.9952   66.2524   14.3345 H   0  0  0  0  0  0  0  0  0  0  0  0
   78.0318   65.6954   12.5992 H   0  0  0  0  0  0  0  0  0  0  0  0
   75.0503   67.0681   13.9926 H   0  0  0  0  0  0  0  0  0  0  0  0
   76.0770   67.1588   12.5214 H   0  0  0  0  0  0  0  0  0  0  0  0
   74.5955   66.1431   12.5214 H   0  0  0  0  0  0  0  0  0  0  0  0
   78.7079   63.0201   17.1477 H   0  0  0  0  0  0  0  0  0  0  0  0
   79.7353   61.7405   14.3461 H   0  0  0  0  0  0  0  0  0  0  0  0
   79.0826   58.5052   16.4083 H   0  0  0  0  0  0  0  0  0  0  0  0
   80.3408   56.3404   15.7591 H   0  0  0  0  0  0  0  0  0  0  0  0
   82.0352   56.3507   13.8264 H   0  0  0  0  0  0  0  0  0  0  0  0
   84.3285   59.1391    9.4865 H   0  0  0  0  0  0  0  0  0  0  0  0
   85.8621   60.9340    9.3658 H   0  0  0  0  0  0  0  0  0  0  0  0
   85.2140   60.2661    7.8294 H   0  0  0  0  0  0  0  0  0  0  0  0
   86.0836   61.8379    7.8294 H   0  0  0  0  0  0  0  0  0  0  0  0
   81.6131   65.5336    8.0450 H   0  0  0  0  0  0  0  0  0  0  0  0
   82.7582   65.2256    6.6957 H   0  0  0  0  0  0  0  0  0  0  0  0
   81.1398   64.4463    6.6957 H   0  0  0  0  0  0  0  0  0  0  0  0
  1  2  1  0
  1  6  1  0
  2  3  1  0
  3  4  1  0
  3  8  1  0
  4  5  1  0
  5  6  1  0
  6  7  1  0
  8  9  1  0
  9 10  1  0
  9 30  2  0
 10 11  1  0
 11 12  2  0
 11 16  1  0
 12 13  1  0
 13 14  2  0
 14 15  1  0
 15 16  2  0
 15 17  1  0
 16 19  1  0
 17 18  1  0
 17 20  2  0
 18 19  1  0
 18 22  2  0
 19 31  2  0
 20 21  1  0
 21 22  1  0
 22 23  1  0
 23 24  1  0
 23 27  2  0
 24 25  1  0
 25 26  2  0
 25 29  1  0
 26 27  1  0
 27 28  1  0
  1 32  1  0
  1 33  1  0
  2 34  1  0
  2 35  1  0
  4 36  1  0
  4 37  1  0
  5 38  1  0
  5 39  1  0
  7 40  1  0
  7 41  1  0
  7 42  1  0
  8 43  1  0
 10 44  1  0
 12 45  1  0
 13 46  1  0
 14 47  1  0
 21 48  1  0
 28 49  1  0
 28 50  1  0
 28 51  1  0
 29 52  1  0
 29 53  1  0
 29 54  1  0
A    1
C1
A    2
C2
A    3
N3
A    4
C4
A    5
C5
A    6
N6
A    7
C15
A    8
N19
A    9
C20
A   10
N21
A   11
C22
A   12
C23
A   13
C24
A   14
C25
A   15
C26
A   16
C27
A   17
C31
A   18
C32
A   19
C33
A   20
N34
A   21
N35
A   22
C36
A   23
C37
A   24
S38
A   25
C39
A   26
N40
A   27
C41
A   28
C42
A   29
C46
A   30
O47
A   31
O50
M  END
