2B53_D23_A_299
     RDKit          3D

 45 47  0  0  0  0  0  0  0  0999 V2000
   82.4300   65.0130   59.3270 C   0  0  0  0  0  0  0  0  0  0  0  0
   83.3220   65.2760   60.4460 C   0  0  0  0  0  0  0  0  0  0  0  0
   83.5370   66.5950   61.0380 C   0  0  0  0  0  0  0  0  0  0  0  0
   82.8550   67.7220   60.4330 C   0  0  0  0  0  0  0  0  0  0  0  0
   81.9850   67.4520   59.2960 C   0  0  0  0  0  0  0  0  0  0  0  0
   81.7040   66.1150   58.7130 C   0  0  0  0  0  0  0  0  0  0  0  0
   84.0230   64.1860   60.9370 N   0  0  0  0  0  0  0  0  0  0  0  0
   80.7080   65.8880   57.5900 C   0  0  0  0  0  0  0  0  0  0  0  0
   79.4870   66.7300   57.5590 C   0  0  0  0  0  0  0  0  0  0  0  0
   78.5350   66.6590   56.4760 C   0  0  0  0  0  0  0  0  0  0  0  0
   78.7520   65.7190   55.3740 C   0  0  0  0  0  0  0  0  0  0  0  0
   79.9610   64.8020   55.3300 C   0  0  0  0  0  0  0  0  0  0  0  0
   80.9060   64.9230   56.4510 C   0  0  0  0  0  0  0  0  0  0  0  0
   77.8500   65.6320   54.3280 N   0  0  0  0  0  0  0  0  0  0  0  0
   77.9960   64.7770   53.2800 C   0  0  0  0  0  0  0  0  0  0  0  0
   79.0650   63.9280   53.1600 N   0  0  0  0  0  0  0  0  0  0  0  0
   80.0260   63.9220   54.1480 C   0  0  0  0  0  0  0  0  0  0  0  0
   80.9900   62.9060   53.8270 N   0  0  0  0  0  0  0  0  0  0  0  0
   81.2110   61.7530   52.9140 C   0  0  0  0  0  0  0  0  0  0  0  0
   80.0050   60.7700   53.0640 C   0  0  0  0  0  0  0  0  0  0  0  0
   81.2260   62.2460   51.4510 C   0  0  0  0  0  0  0  0  0  0  0  0
   82.5690   61.1050   53.2740 C   0  0  0  0  0  0  0  0  0  0  0  0
   76.8960   64.7290   52.2720 C   0  0  0  0  0  0  0  0  0  0  0  0
   76.6800   63.4730   51.9710 F   0  0  0  0  0  0  0  0  0  0  0  0
   75.8050   65.3020   52.7650 F   0  0  0  0  0  0  0  0  0  0  0  0
   77.3410   65.3750   51.2510 F   0  0  0  0  0  0  0  0  0  0  0  0
   82.3051   63.9881   58.9476 H   0  0  0  0  0  0  0  0  0  0  0  0
   84.1927   66.7276   61.9112 H   0  0  0  0  0  0  0  0  0  0  0  0
   82.9894   68.7435   60.8182 H   0  0  0  0  0  0  0  0  0  0  0  0
   81.4918   68.3161   58.8270 H   0  0  0  0  0  0  0  0  0  0  0  0
   84.1126   64.0468   61.9536 H   0  0  0  0  0  0  0  0  0  0  0  0
   84.4544   63.5151   60.2853 H   0  0  0  0  0  0  0  0  0  0  0  0
   79.3012   67.4301   58.3868 H   0  0  0  0  0  0  0  0  0  0  0  0
   77.6482   67.3098   56.4785 H   0  0  0  0  0  0  0  0  0  0  0  0
   81.7979   64.2792   56.4575 H   0  0  0  0  0  0  0  0  0  0  0  0
   81.8105   63.0131   54.4404 H   0  0  0  0  0  0  0  0  0  0  0  0
   79.7992   60.6023   54.1315 H   0  0  0  0  0  0  0  0  0  0  0  0
   79.1161   61.2041   52.5830 H   0  0  0  0  0  0  0  0  0  0  0  0
   80.2510   59.8118   52.5830 H   0  0  0  0  0  0  0  0  0  0  0  0
   81.2594   63.3454   51.4349 H   0  0  0  0  0  0  0  0  0  0  0  0
   82.1123   61.8446   50.9379 H   0  0  0  0  0  0  0  0  0  0  0  0
   80.3169   61.8993   50.9379 H   0  0  0  0  0  0  0  0  0  0  0  0
   82.6730   61.0554   54.3679 H   0  0  0  0  0  0  0  0  0  0  0  0
   82.6129   60.0889   52.8550 H   0  0  0  0  0  0  0  0  0  0  0  0
   83.3865   61.7101   52.8550 H   0  0  0  0  0  0  0  0  0  0  0  0
  1  2  2  0
  1  6  1  0
  2  3  1  0
  2  7  1  0
  3  4  2  0
  4  5  1  0
  5  6  2  0
  6  8  1  0
  8  9  2  0
  8 13  1  0
  9 10  1  0
 10 11  2  0
 11 12  1  0
 11 14  1  0
 12 13  2  0
 12 17  1  0
 14 15  2  0
 15 16  1  0
 15 23  1  0
 16 17  2  0
 17 18  1  0
 18 19  1  0
 19 20  1  0
 19 21  1  0
 19 22  1  0
 23 24  1  0
 23 25  1  0
 23 26  1  0
  1 27  1  0
  3 28  1  0
  4 29  1  0
  5 30  1  0
  7 31  1  0
  7 32  1  0
  9 33  1  0
 10 34  1  0
 13 35  1  0
 18 36  1  0
 20 37  1  0
 20 38  1  0
 20 39  1  0
 21 40  1  0
 21 41  1  0
 21 42  1  0
 22 43  1  0
 22 44  1  0
 22 45  1  0
A    1
C1
A    2
C2
A    3
C3
A    4
C4
A    5
C5
A    6
C6
A    7
N7
A    8
C8
A    9
C9
A   10
C10
A   11
C11
A   12
C12
A   13
C13
A   14
N14
A   15
C15
A   16
N16
A   17
C17
A   18
N18
A   19
C19
A   20
C20
A   21
C21
A   22
C22
A   23
C23
A   24
F24
A   25
F25
A   26
F26
M  END
