2B54_D05_A_300
     RDKit          3D

 45 48  0  0  0  0  0  0  0  0999 V2000
  120.4880  -84.9370   91.8640 N   0  0  0  0  0  0  0  0  0  0  0  0
  119.8170  -83.7510   91.7590 C   0  0  0  0  0  0  0  0  0  0  0  0
  119.0250  -83.2370   92.7230 N   0  0  0  0  0  0  0  0  0  0  0  0
  118.9100  -83.9470   93.8720 C   0  0  0  0  0  0  0  0  0  0  0  0
  119.5950  -85.1780   94.0530 C   0  0  0  0  0  0  0  0  0  0  0  0
  120.3910  -85.6520   93.0220 C   0  0  0  0  0  0  0  0  0  0  0  0
  118.1280  -83.6850   94.9940 N   0  0  0  0  0  0  0  0  0  0  0  0
  118.3150  -84.6860   95.9240 N   0  0  0  0  0  0  0  0  0  0  0  0
  119.1800  -85.5810   95.3970 C   0  0  0  0  0  0  0  0  0  0  0  0
  120.9500  -86.7440   93.1570 O   0  0  0  0  0  0  0  0  0  0  0  0
  117.1590  -82.6290   95.1030 C   0  0  0  0  0  0  0  0  0  0  0  0
  115.8170  -82.9780   95.0730 C   0  0  0  0  0  0  0  0  0  0  0  0
  117.4390  -81.2680   95.3240 C   0  0  0  0  0  0  0  0  0  0  0  0
  114.7870  -82.0250   95.2710 C   0  0  0  0  0  0  0  0  0  0  0  0
  116.4300  -80.3100   95.5160 C   0  0  0  0  0  0  0  0  0  0  0  0
  115.0850  -80.6670   95.5030 C   0  0  0  0  0  0  0  0  0  0  0  0
  113.8350  -79.4270   95.8390 Cl  0  0  0  0  0  0  0  0  0  0  0  0
  119.4830  -86.8030   96.2130 C   0  0  0  0  0  0  0  0  0  0  0  0
  118.5470  -87.9520   95.8440 C   0  0  0  0  0  0  0  0  0  0  0  0
  119.8960  -82.9560   90.4600 C   0  0  0  0  0  0  0  0  0  0  0  0
  115.4420  -84.6380   94.6820 Cl  0  0  0  0  0  0  0  0  0  0  0  0
  119.0390  -80.6500   95.3620 Cl  0  0  0  0  0  0  0  0  0  0  0  0
  121.1780  -82.1590   90.2770 C   0  0  0  0  0  0  0  0  0  0  0  0
  121.2510  -80.7890   90.6320 C   0  0  0  0  0  0  0  0  0  0  0  0
  122.4970  -80.1090   90.5020 C   0  0  0  0  0  0  0  0  0  0  0  0
  123.6280  -80.7940   90.0260 C   0  0  0  0  0  0  0  0  0  0  0  0
  123.5380  -82.1500   89.6390 C   0  0  0  0  0  0  0  0  0  0  0  0
  122.3090  -82.8190   89.7670 C   0  0  0  0  0  0  0  0  0  0  0  0
  122.6550  -78.7760   90.8720 O   0  0  0  0  0  0  0  0  0  0  0  0
  124.8550  -80.1440   89.9950 O   0  0  0  0  0  0  0  0  0  0  0  0
  121.0585  -85.2859   91.0806 H   0  0  0  0  0  0  0  0  0  0  0  0
  113.7367  -82.3507   95.2432 H   0  0  0  0  0  0  0  0  0  0  0  0
  116.7080  -79.2584   95.6796 H   0  0  0  0  0  0  0  0  0  0  0  0
  120.5223  -87.1115   96.0269 H   0  0  0  0  0  0  0  0  0  0  0  0
  119.3382  -86.5600   97.2760 H   0  0  0  0  0  0  0  0  0  0  0  0
  118.1640  -88.4221   96.7618 H   0  0  0  0  0  0  0  0  0  0  0  0
  117.7051  -87.5635   95.2522 H   0  0  0  0  0  0  0  0  0  0  0  0
  119.0977  -88.6980   95.2522 H   0  0  0  0  0  0  0  0  0  0  0  0
  119.8093  -83.6620   89.6209 H   0  0  0  0  0  0  0  0  0  0  0  0
  119.0776  -82.2219   90.4960 H   0  0  0  0  0  0  0  0  0  0  0  0
  120.3608  -80.2591   91.0018 H   0  0  0  0  0  0  0  0  0  0  0  0
  124.4192  -82.6754   89.2424 H   0  0  0  0  0  0  0  0  0  0  0  0
  122.2311  -83.8736   89.4639 H   0  0  0  0  0  0  0  0  0  0  0  0
  122.6844  -78.5284   91.8301 H   0  0  0  0  0  0  0  0  0  0  0  0
  125.3092  -79.9034   90.8411 H   0  0  0  0  0  0  0  0  0  0  0  0
  1  2  1  0
  1  6  1  0
  2  3  2  0
  2 20  1  0
  3  4  1  0
  4  5  2  0
  4  7  1  0
  5  6  1  0
  5  9  1  0
  6 10  2  0
  7  8  1  0
  7 11  1  0
  8  9  2  0
  9 18  1  0
 11 12  2  0
 11 13  1  0
 12 14  1  0
 12 21  1  0
 13 15  2  0
 13 22  1  0
 14 16  2  0
 15 16  1  0
 16 17  1  0
 18 19  1  0
 20 23  1  0
 23 24  2  0
 23 28  1  0
 24 25  1  0
 25 26  2  0
 25 29  1  0
 26 27  1  0
 26 30  1  0
 27 28  2  0
  1 31  1  0
 14 32  1  0
 15 33  1  0
 18 34  1  0
 18 35  1  0
 19 36  1  0
 19 37  1  0
 19 38  1  0
 20 39  1  0
 20 40  1  0
 24 41  1  0
 27 42  1  0
 28 43  1  0
 29 44  1  0
 30 45  1  0
A    1
N8
A    2
C7
A    3
N6
A    4
C5
A    5
C4
A    6
C9
A    7
N1
A    8
N2
A    9
C3
A   10
O9
A   11
C11
A   12
C16
A   13
C12
A   14
C15
A   15
C13
A   16
C14
A   17
CL14
A   18
C1
A   19
C2
A   20
C20
A   21
CL16
A   22
CL12
A   23
C21
A   24
C22
A   25
C23
A   26
C24
A   27
C25
A   28
C26
A   29
O23
A   30
O24
M  END
