2B77_3CA_A_240
     RDKit          3D

 26 27  0  0  0  0  0  0  0  0999 V2000
   44.0240   -2.2290   53.3090 O   0  0  0  0  0  0  0  0  0  0  0  0
   43.6040   -2.4530   54.5880 C   0  0  0  0  0  0  0  0  0  0  0  0
   43.4220   -3.5820   54.9970 O   0  0  0  0  0  0  0  0  0  0  0  0
   43.3960   -1.1950   55.4040 C   0  0  0  0  0  0  0  0  0  0  0  0
   43.2150    0.0660   54.7580 C   0  0  0  0  0  0  0  0  0  0  0  0
   43.2220    0.1380   53.3570 O   0  0  0  0  0  0  0  0  0  0  0  0
   43.0220    1.2260   55.5010 C   0  0  0  0  0  0  0  0  0  0  0  0
   43.0040    1.1840   56.8710 C   0  0  0  0  0  0  0  0  0  0  0  0
   43.1880   -0.0740   57.6040 C   0  0  0  0  0  0  0  0  0  0  0  0
   43.3740   -1.2400   56.7930 C   0  0  0  0  0  0  0  0  0  0  0  0
   43.1620   -0.1460   58.9960 C   0  0  0  0  0  0  0  0  0  0  0  0
   43.8160    0.8870   59.7840 C   0  0  0  0  0  0  0  0  0  0  0  0
   42.5000   -1.2380   59.7300 C   0  0  0  0  0  0  0  0  0  0  0  0
   41.7050   -2.5720   58.8830 Cl  0  0  0  0  0  0  0  0  0  0  0  0
   42.5210   -1.2270   61.1090 C   0  0  0  0  0  0  0  0  0  0  0  0
   43.1530   -0.2140   61.8470 C   0  0  0  0  0  0  0  0  0  0  0  0
   43.1430   -0.2570   63.6070 Cl  0  0  0  0  0  0  0  0  0  0  0  0
   43.8010    0.8410   61.1570 C   0  0  0  0  0  0  0  0  0  0  0  0
   43.3938   -3.7571   55.9710 H   0  0  0  0  0  0  0  0  0  0  0  0
   43.3073    1.0156   52.9069 H   0  0  0  0  0  0  0  0  0  0  0  0
   42.8824    2.1868   54.9839 H   0  0  0  0  0  0  0  0  0  0  0  0
   42.8479    2.1157   57.4346 H   0  0  0  0  0  0  0  0  0  0  0  0
   43.5050   -2.2122   57.2906 H   0  0  0  0  0  0  0  0  0  0  0  0
   44.3292    1.7156   59.2741 H   0  0  0  0  0  0  0  0  0  0  0  0
   42.0230   -2.0440   61.6517 H   0  0  0  0  0  0  0  0  0  0  0  0
   44.3001    1.6361   61.7303 H   0  0  0  0  0  0  0  0  0  0  0  0
  1  2  2  0
  2  3  1  0
  2  4  1  0
  4  5  2  0
  4 10  1  0
  5  6  1  0
  5  7  1  0
  7  8  2  0
  8  9  1  0
  9 10  2  0
  9 11  1  0
 11 12  2  0
 11 13  1  0
 12 18  1  0
 13 14  1  0
 13 15  2  0
 15 16  1  0
 16 17  1  0
 16 18  2  0
  3 19  1  0
  6 20  1  0
  7 21  1  0
  8 22  1  0
 10 23  1  0
 12 24  1  0
 15 25  1  0
 18 26  1  0
A    1
O1
A    2
C9
A    3
O91
A    4
C8
A    5
C10
A    6
O10
A    7
C11
A    8
C12
A    9
C13
A   10
C7
A   11
C3
A   12
C2
A   13
C4
A   14
CL
A   15
C5
A   16
C6
A   17
CL1
A   18
C1
M  END
