2B7A_IZA_A_2001
     RDKit          3D

 39 42  0  0  0  0  0  0  0  0999 V2000
  117.7080   67.4770   10.8940 O   0  0  0  0  0  0  0  0  0  0  0  0
  117.2770   66.8780    9.8800 C   0  0  0  0  0  0  0  0  0  0  0  0
  118.0910   66.7430    8.7980 N   0  0  0  0  0  0  0  0  0  0  0  0
  117.6930   66.0990    7.6860 C   0  0  0  0  0  0  0  0  0  0  0  0
  116.4160   65.5460    7.5940 C   0  0  0  0  0  0  0  0  0  0  0  0
  115.5180   65.6330    8.6610 C   0  0  0  0  0  0  0  0  0  0  0  0
  114.2420   65.0750    8.5710 C   0  0  0  0  0  0  0  0  0  0  0  0
  115.9050   66.2890    9.8350 C   0  0  0  0  0  0  0  0  0  0  0  0
  114.9250   66.3790   10.9700 C   0  0  0  0  0  0  0  0  0  0  0  0
  115.2030   67.0080   12.1790 C   0  0  0  0  0  0  0  0  0  0  0  0
  114.2050   67.0160   13.1460 C   0  0  0  0  0  0  0  0  0  0  0  0
  114.4580   67.6720   14.4460 F   0  0  0  0  0  0  0  0  0  0  0  0
  112.9710   66.4030   12.8920 C   0  0  0  0  0  0  0  0  0  0  0  0
  112.7100   65.8180   11.7650 C   0  0  0  0  0  0  0  0  0  0  0  0
  113.5770   65.7640   10.8080 C   0  0  0  0  0  0  0  0  0  0  0  0
  113.3070   65.1380    9.5950 C   0  0  0  0  0  0  0  0  0  0  0  0
  112.1720   64.5120    9.2100 N   0  0  0  0  0  0  0  0  0  0  0  0
  112.4660   64.0890    7.9580 C   0  0  0  0  0  0  0  0  0  0  0  0
  113.7040   64.4150    7.5220 N   0  0  0  0  0  0  0  0  0  0  0  0
  111.4810   63.3400    7.0880 C   0  0  0  0  0  0  0  0  0  0  0  0
  110.3510   62.7540    7.9250 C   0  0  0  0  0  0  0  0  0  0  0  0
  112.1570   62.2180    6.3120 C   0  0  0  0  0  0  0  0  0  0  0  0
  110.8870   64.3320    6.0960 C   0  0  0  0  0  0  0  0  0  0  0  0
  119.0386   67.1452    8.8313 H   0  0  0  0  0  0  0  0  0  0  0  0
  118.3854   66.0072    6.8362 H   0  0  0  0  0  0  0  0  0  0  0  0
  116.1116   65.0344    6.6690 H   0  0  0  0  0  0  0  0  0  0  0  0
  116.1783   67.4823   12.3632 H   0  0  0  0  0  0  0  0  0  0  0  0
  112.1982   66.4186   13.6747 H   0  0  0  0  0  0  0  0  0  0  0  0
  111.7231   65.3546   11.6191 H   0  0  0  0  0  0  0  0  0  0  0  0
  114.1338   64.2094    6.6088 H   0  0  0  0  0  0  0  0  0  0  0  0
  110.5849   62.8753    8.9930 H   0  0  0  0  0  0  0  0  0  0  0  0
  109.4126   63.2791    7.6932 H   0  0  0  0  0  0  0  0  0  0  0  0
  110.2396   61.6845    7.6932 H   0  0  0  0  0  0  0  0  0  0  0  0
  112.5926   61.4950    7.0174 H   0  0  0  0  0  0  0  0  0  0  0  0
  111.4141   61.7107    5.6790 H   0  0  0  0  0  0  0  0  0  0  0  0
  112.9527   62.6377    5.6790 H   0  0  0  0  0  0  0  0  0  0  0  0
  110.3971   65.1501    6.6444 H   0  0  0  0  0  0  0  0  0  0  0  0
  111.6881   64.7425    5.4637 H   0  0  0  0  0  0  0  0  0  0  0  0
  110.1469   63.8197    5.4637 H   0  0  0  0  0  0  0  0  0  0  0  0
  1  2  2  0
  2  3  1  0
  2  8  1  0
  3  4  1  0
  4  5  2  0
  5  6  1  0
  6  7  1  0
  6  8  2  0
  7 16  2  0
  7 19  1  0
  8  9  1  0
  9 10  2  0
  9 15  1  0
 10 11  1  0
 11 12  1  0
 11 13  2  0
 13 14  1  0
 14 15  2  0
 15 16  1  0
 16 17  1  0
 17 18  2  0
 18 19  1  0
 18 20  1  0
 20 21  1  0
 20 22  1  0
 20 23  1  0
  3 24  1  0
  4 25  1  0
  5 26  1  0
 10 27  1  0
 13 28  1  0
 14 29  1  0
 19 30  1  0
 21 31  1  0
 21 32  1  0
 21 33  1  0
 22 34  1  0
 22 35  1  0
 22 36  1  0
 23 37  1  0
 23 38  1  0
 23 39  1  0
A    1
O0
A    2
C11
A    3
N2
A    4
C12
A    5
C13
A    6
C9
A    7
C1
A    8
C10
A    9
C8
A   10
C7
A   11
C6
A   12
F1
A   13
C5
A   14
C4
A   15
C3
A   16
C0
A   17
N1
A   18
C2
A   19
N0
A   20
C14
A   21
C17
A   22
C16
A   23
C15
M  END
