2B7D_C1B_H_258
     RDKit          3D

 63 66  0  0  0  0  0  0  0  0999 V2000
   -7.9230    5.4370   13.1650 C   0  0  0  0  0  0  0  0  0  0  0  0
   -7.6930    4.1240   12.6590 C   0  0  0  0  0  0  0  0  0  0  0  0
   -8.6350    3.4590   11.8700 C   0  0  0  0  0  0  0  0  0  0  0  0
   -9.7850    4.1340   11.6080 C   0  0  0  0  0  0  0  0  0  0  0  0
  -10.0400    5.3590   12.0580 C   0  0  0  0  0  0  0  0  0  0  0  0
   -9.1490    6.0590   12.8390 C   0  0  0  0  0  0  0  0  0  0  0  0
   -6.9650    6.0700   13.9520 C   0  0  0  0  0  0  0  0  0  0  0  0
   -7.0210    7.3760   14.0640 N   0  0  0  0  0  0  0  0  0  0  0  0
   -6.0370    5.3420   14.5510 N   0  0  0  0  0  0  0  0  0  0  0  0
  -10.8130    3.7680   10.9190 N   0  0  0  0  0  0  0  0  0  0  0  0
  -11.2260    5.8050   11.6730 N   0  0  0  0  0  0  0  0  0  0  0  0
  -11.6430    4.7620   10.9700 C   0  0  0  0  0  0  0  0  0  0  0  0
  -12.8930    4.7590   10.3320 C   0  0  0  0  0  0  0  0  0  0  0  0
  -13.7420    5.8530   10.4340 C   0  0  0  0  0  0  0  0  0  0  0  0
  -14.9810    5.8830    9.8200 C   0  0  0  0  0  0  0  0  0  0  0  0
  -15.8850    7.1050   10.0280 C   0  0  0  0  0  0  0  0  0  0  0  0
  -17.2940    6.5710   10.4520 C   0  0  0  0  0  0  0  0  0  0  0  0
  -17.3480    6.0230   11.5490 O   0  0  0  0  0  0  0  0  0  0  0  0
  -18.2480    6.7060    9.7060 O   0  0  0  0  0  0  0  0  0  0  0  0
  -15.8190    8.0660    8.7850 C   0  0  0  0  0  0  0  0  0  0  0  0
  -14.4710    8.8670    8.6690 C   0  0  0  0  0  0  0  0  0  0  0  0
  -13.8320    9.2200    9.6560 O   0  0  0  0  0  0  0  0  0  0  0  0
  -14.1050    9.1200    7.5370 O   0  0  0  0  0  0  0  0  0  0  0  0
  -15.4050    4.7890    9.0680 C   0  0  0  0  0  0  0  0  0  0  0  0
  -14.6050    3.6490    8.9180 C   0  0  0  0  0  0  0  0  0  0  0  0
  -13.3470    3.6620    9.5670 C   0  0  0  0  0  0  0  0  0  0  0  0
  -12.4910    2.5780    9.4680 O   0  0  0  0  0  0  0  0  0  0  0  0
  -15.0640    2.5660    8.1550 C   0  0  0  0  0  0  0  0  0  0  0  0
  -14.2250    1.8650    7.2940 C   0  0  0  0  0  0  0  0  0  0  0  0
  -14.6630    0.7920    6.5720 C   0  0  0  0  0  0  0  0  0  0  0  0
  -15.9610    0.3730    6.6680 C   0  0  0  0  0  0  0  0  0  0  0  0
  -16.8440    1.0230    7.4920 C   0  0  0  0  0  0  0  0  0  0  0  0
  -18.2800    0.5080    7.5530 C   0  0  0  0  0  0  0  0  0  0  0  0
  -18.7500    0.6910    8.9460 N   0  0  0  0  0  0  0  0  0  0  0  0
  -19.5610    1.6860    9.2340 C   0  0  0  0  0  0  0  0  0  0  0  0
  -19.9470    2.4590    8.3790 O   0  0  0  0  0  0  0  0  0  0  0  0
  -20.0080    1.9070   10.4470 N   0  0  0  0  0  0  0  0  0  0  0  0
  -16.3960    2.1200    8.2360 C   0  0  0  0  0  0  0  0  0  0  0  0
  -12.9100    2.2330    7.1000 O   0  0  0  0  0  0  0  0  0  0  0  0
   -6.7451    3.6192   12.8970 H   0  0  0  0  0  0  0  0  0  0  0  0
   -8.4557    2.4453   11.4824 H   0  0  0  0  0  0  0  0  0  0  0  0
   -9.3841    7.0717   13.1984 H   0  0  0  0  0  0  0  0  0  0  0  0
   -6.3265    7.8738   14.6391 H   0  0  0  0  0  0  0  0  0  0  0  0
   -5.9935    5.3079   15.5795 H   0  0  0  0  0  0  0  0  0  0  0  0
   -5.3579    4.8093   13.9889 H   0  0  0  0  0  0  0  0  0  0  0  0
  -11.6907    6.7040   11.8648 H   0  0  0  0  0  0  0  0  0  0  0  0
  -13.4186    6.7243   11.0224 H   0  0  0  0  0  0  0  0  0  0  0  0
  -15.5498    7.7613   10.8446 H   0  0  0  0  0  0  0  0  0  0  0  0
  -19.1552    6.8344   10.0809 H   0  0  0  0  0  0  0  0  0  0  0  0
  -15.9426    7.4624    7.8738 H   0  0  0  0  0  0  0  0  0  0  0  0
  -16.6210    8.8080    8.9125 H   0  0  0  0  0  0  0  0  0  0  0  0
  -14.1777    9.0290   10.5638 H   0  0  0  0  0  0  0  0  0  0  0  0
  -16.3908    4.8215    8.5809 H   0  0  0  0  0  0  0  0  0  0  0  0
  -12.1470    2.1424   10.2878 H   0  0  0  0  0  0  0  0  0  0  0  0
  -13.9659    0.2603    5.9077 H   0  0  0  0  0  0  0  0  0  0  0  0
  -16.2998   -0.4924    6.0796 H   0  0  0  0  0  0  0  0  0  0  0  0
  -18.9159    1.0808    6.8620 H   0  0  0  0  0  0  0  0  0  0  0  0
  -18.3288   -0.5510    7.2594 H   0  0  0  0  0  0  0  0  0  0  0  0
  -18.4434    0.0425    9.6852 H   0  0  0  0  0  0  0  0  0  0  0  0
  -19.4440    1.6281   11.2625 H   0  0  0  0  0  0  0  0  0  0  0  0
  -20.9231    2.3594   10.5842 H   0  0  0  0  0  0  0  0  0  0  0  0
  -17.1001    2.6449    8.8983 H   0  0  0  0  0  0  0  0  0  0  0  0
  -12.3219    2.3976    7.8792 H   0  0  0  0  0  0  0  0  0  0  0  0
  1  2  2  0
  1  6  1  0
  1  7  1  0
  2  3  1  0
  3  4  2  0
  4  5  1  0
  4 10  1  0
  5  6  2  0
  5 11  1  0
  7  8  2  3
  7  9  1  0
 10 12  2  0
 11 12  1  0
 12 13  1  0
 13 14  2  0
 13 26  1  0
 14 15  1  0
 15 16  1  0
 15 24  2  0
 16 17  1  0
 16 20  1  0
 17 18  2  0
 17 19  1  0
 20 21  1  0
 21 22  1  0
 21 23  2  0
 24 25  1  0
 25 26  2  0
 25 28  1  0
 26 27  1  0
 28 29  2  0
 28 38  1  0
 29 30  1  0
 29 39  1  0
 30 31  2  0
 31 32  1  0
 32 33  1  0
 32 38  2  0
 33 34  1  0
 34 35  1  0
 35 36  2  0
 35 37  1  0
  2 40  1  0
  3 41  1  0
  6 42  1  0
  8 43  1  0
  9 44  1  0
  9 45  1  0
 11 46  1  0
 14 47  1  0
 16 48  1  0
 19 49  1  0
 20 50  1  0
 20 51  1  0
 22 52  1  0
 24 53  1  0
 27 54  1  0
 30 55  1  0
 31 56  1  0
 33 57  1  0
 33 58  1  0
 34 59  1  0
 37 60  1  0
 37 61  1  0
 38 62  1  0
 39 63  1  0
A    1
C1
A    2
C2
A    3
C3
A    4
C4
A    5
C5
A    6
C6
A    7
C7
A    8
N1
A    9
N2
A   10
N3
A   11
N4
A   12
C8
A   13
C1'
A   14
C2'
A   15
C3'
A   16
CVX
A   17
CWX
A   18
OXX
A   19
OYX
A   20
C6X
A   21
C7X
A   22
O8X
A   23
O9X
A   24
C4'
A   25
C5'
A   26
C6'
A   27
O6'
A   28
C1B
A   29
C2B
A   30
C3B
A   31
C4B
A   32
C5B
A   33
C51
A   34
N52
A   35
C53
A   36
O54
A   37
N55
A   38
C6B
A   39
O2B
M  END
