1QAP_NTM_A_300
     RDKit          3D

 17 17  0  0  0  0  0  0  0  0999 V2000
   14.3840   28.9050   40.4830 N   0  0  0  0  0  0  0  0  0  0  0  0
   15.3780   29.7890   40.6780 C   0  0  0  0  0  0  0  0  0  0  0  0
   16.1630   30.1880   39.5530 C   0  0  0  0  0  0  0  0  0  0  0  0
   15.8960   29.5540   38.3250 C   0  0  0  0  0  0  0  0  0  0  0  0
   15.1290   28.3950   38.3110 C   0  0  0  0  0  0  0  0  0  0  0  0
   14.2810   28.1740   39.3870 C   0  0  0  0  0  0  0  0  0  0  0  0
   15.5520   30.2300   42.1190 C   0  0  0  0  0  0  0  0  0  0  0  0
   14.5520   30.4240   42.8560 O   0  0  0  0  0  0  0  0  0  0  0  0
   16.6940   30.3910   42.5870 O   0  0  0  0  0  0  0  0  0  0  0  0
   17.2690   31.2220   39.4870 C   0  0  0  0  0  0  0  0  0  0  0  0
   17.1150   32.3390   40.0420 O   0  0  0  0  0  0  0  0  0  0  0  0
   18.3480   30.9650   38.8830 O   0  0  0  0  0  0  0  0  0  0  0  0
   16.2901   29.9713   37.3866 H   0  0  0  0  0  0  0  0  0  0  0  0
   15.1918   27.6795   37.4779 H   0  0  0  0  0  0  0  0  0  0  0  0
   13.5174   27.3845   39.3271 H   0  0  0  0  0  0  0  0  0  0  0  0
   16.8290   30.4100   43.5676 H   0  0  0  0  0  0  0  0  0  0  0  0
   19.1698   30.7693   39.3992 H   0  0  0  0  0  0  0  0  0  0  0  0
  1  2  2  0
  1  6  1  0
  2  3  1  0
  2  7  1  0
  3  4  2  0
  3 10  1  0
  4  5  1  0
  5  6  2  0
  7  8  2  0
  7  9  1  0
 10 11  2  0
 10 12  1  0
  4 13  1  0
  5 14  1  0
  6 15  1  0
  9 16  1  0
 12 17  1  0
A    1
N1
A    2
C2
A    3
C3
A    4
C4
A    5
C5
A    6
C6
A    7
C7
A    8
O1
A    9
O2
A   10
C8
A   11
O3
A   12
O4
M  END
