1A5I_0GJ_A_245
     RDKit          3D

 54 53  0  0  0  0  0  0  0  0999 V2000
   33.6680   45.8660   41.1700 N   0  0  0  0  0  0  0  0  0  0  0  0
   33.2650   44.9110   42.2470 C   0  0  0  0  0  0  0  0  0  0  0  0
   34.4600   43.9880   42.5180 C   0  0  0  0  0  0  0  0  0  0  0  0
   35.0520   43.4760   41.5720 O   0  0  0  0  0  0  0  0  0  0  0  0
   32.0820   44.0610   41.7680 C   0  0  0  0  0  0  0  0  0  0  0  0
   31.1010   44.7970   40.8600 C   0  0  0  0  0  0  0  0  0  0  0  0
   30.4810   43.9030   39.7830 C   0  0  0  0  0  0  0  0  0  0  0  0
   30.1610   42.7210   40.0760 O   0  0  0  0  0  0  0  0  0  0  0  0
   30.3120   44.3940   38.6390 O   0  0  0  0  0  0  0  0  0  0  0  0
   34.8510   43.8240   43.7830 N   0  0  0  0  0  0  0  0  0  0  0  0
   35.9560   42.9380   44.1010 C   0  0  0  0  0  0  0  0  0  0  0  0
   35.5220   41.5190   43.7800 C   0  0  0  0  0  0  0  0  0  0  0  0
   34.3320   41.2750   43.6360 O   0  0  0  0  0  0  0  0  0  0  0  0
   36.4710   40.6060   43.5980 N   0  0  0  0  0  0  0  0  0  0  0  0
   36.1590   39.2060   43.2930 C   0  0  0  0  0  0  0  0  0  0  0  0
   36.8510   38.4470   44.3880 C   0  0  0  0  0  0  0  0  0  0  0  0
   36.4480   37.1080   44.1240 O   0  0  0  0  0  0  0  0  0  0  0  0
   36.7600   38.7730   41.9430 C   0  0  0  0  0  0  0  0  0  0  0  0
   36.1650   39.4650   40.7300 C   0  0  0  0  0  0  0  0  0  0  0  0
   37.1650   39.5640   39.6120 C   0  0  0  0  0  0  0  0  0  0  0  0
   36.6730   40.3450   38.4740 N   0  0  0  0  0  0  0  0  0  0  0  0
   37.3000   40.4140   37.2990 C   0  0  0  0  0  0  0  0  0  0  0  0
   38.4470   39.7670   37.1050 N   0  0  0  0  0  0  0  0  0  0  0  0
   36.7380   41.0380   36.2800 N   0  0  0  0  0  0  0  0  0  0  0  0
   36.5100   39.0130   45.7720 C   0  0  0  0  0  0  0  0  0  0  0  0
   34.0326   46.7300   41.5960 H   0  0  0  0  0  0  0  0  0  0  0  0
   34.3994   45.4361   40.5859 H   0  0  0  0  0  0  0  0  0  0  0  0
   32.9713   45.4590   43.1544 H   0  0  0  0  0  0  0  0  0  0  0  0
   32.4807   43.1978   41.2150 H   0  0  0  0  0  0  0  0  0  0  0  0
   31.5193   43.7724   42.6680 H   0  0  0  0  0  0  0  0  0  0  0  0
   30.2912   45.2070   41.4814 H   0  0  0  0  0  0  0  0  0  0  0  0
   31.6671   45.5849   40.3415 H   0  0  0  0  0  0  0  0  0  0  0  0
   29.9913   45.3257   38.5426 H   0  0  0  0  0  0  0  0  0  0  0  0
   34.3660   44.3290   44.5384 H   0  0  0  0  0  0  0  0  0  0  0  0
   36.8356   43.2057   43.4972 H   0  0  0  0  0  0  0  0  0  0  0  0
   36.2246   43.0259   45.1641 H   0  0  0  0  0  0  0  0  0  0  0  0
   37.4578   40.8913   43.6737 H   0  0  0  0  0  0  0  0  0  0  0  0
   35.0742   39.0347   43.2312 H   0  0  0  0  0  0  0  0  0  0  0  0
   37.9483   38.5223   44.4021 H   0  0  0  0  0  0  0  0  0  0  0  0
   36.3046   36.6317   44.9800 H   0  0  0  0  0  0  0  0  0  0  0  0
   37.8387   38.9872   41.9642 H   0  0  0  0  0  0  0  0  0  0  0  0
   36.5321   37.7026   41.8317 H   0  0  0  0  0  0  0  0  0  0  0  0
   35.2937   38.8910   40.3816 H   0  0  0  0  0  0  0  0  0  0  0  0
   35.8689   40.4834   41.0219 H   0  0  0  0  0  0  0  0  0  0  0  0
   38.0769   40.0428   39.9982 H   0  0  0  0  0  0  0  0  0  0  0  0
   37.3596   38.5430   39.2520 H   0  0  0  0  0  0  0  0  0  0  0  0
   35.7941   40.8698   38.5879 H   0  0  0  0  0  0  0  0  0  0  0  0
   39.0040   39.4528   37.9124 H   0  0  0  0  0  0  0  0  0  0  0  0
   38.7775   39.5806   36.1475 H   0  0  0  0  0  0  0  0  0  0  0  0
   37.2262   41.0887   35.3744 H   0  0  0  0  0  0  0  0  0  0  0  0
   35.8115   41.4741   36.3907 H   0  0  0  0  0  0  0  0  0  0  0  0
   36.9114   38.3467   46.5497 H   0  0  0  0  0  0  0  0  0  0  0  0
   36.9563   40.0126   45.8795 H   0  0  0  0  0  0  0  0  0  0  0  0
   35.4177   39.0857   45.8795 H   0  0  0  0  0  0  0  0  0  0  0  0
  1  2  1  0
  2  3  1  0
  2  5  1  0
  3  4  2  0
  3 10  1  0
  5  6  1  0
  6  7  1  0
  7  8  2  0
  7  9  1  0
 10 11  1  0
 11 12  1  0
 12 13  2  0
 12 14  1  0
 14 15  1  0
 15 16  1  0
 15 18  1  0
 16 17  1  0
 16 25  1  0
 18 19  1  0
 19 20  1  0
 20 21  1  0
 21 22  1  0
 22 23  1  0
 22 24  2  3
  1 26  1  0
  1 27  1  0
  2 28  1  0
  5 29  1  0
  5 30  1  0
  6 31  1  0
  6 32  1  0
  9 33  1  0
 10 34  1  0
 11 35  1  0
 11 36  1  0
 14 37  1  0
 15 38  1  0
 16 39  1  0
 17 40  1  0
 18 41  1  0
 18 42  1  0
 19 43  1  0
 19 44  1  0
 20 45  1  0
 20 46  1  0
 21 47  1  0
 23 48  1  0
 23 49  1  0
 24 50  1  0
 24 51  1  0
 25 52  1  0
 25 53  1  0
 25 54  1  0
M  CHG  1  24   1
A    1
N
A    2
CA
A    3
C
A    4
O
A    5
CB
A    6
CG
A    7
CD
A    8
OE1
A    9
OE2
A   10
N1
A   11
CA1
A   12
C1
A   13
O1
A   14
N2
A   15
CA2
A   16
C2
A   17
O2
A   18
CB1
A   19
CG1
A   20
CD1
A   21
NE
A   22
CZ
A   23
NH1
A   24
NH2
A   25
C3
M  END
