2BB7_QMS_A_305
     RDKit          3D

 25 26  0  0  0  0  0  0  0  0999 V2000
   -2.8350    1.5100   10.7030 O   0  0  0  0  0  0  0  0  0  0  0  0
   -4.0670    1.0680   10.0430 S   0  0  0  0  0  0  0  0  0  0  0  0
   -4.9790    0.6440   11.0990 O   0  0  0  0  0  0  0  0  0  0  0  0
   -4.7920    2.2890    9.2690 C   0  0  0  0  0  0  0  0  0  0  0  0
   -3.6400   -0.1290    9.0770 N   0  0  0  0  0  0  0  0  0  0  0  0
   -4.4000   -0.6850    8.1030 C   0  0  0  0  0  0  0  0  0  0  0  0
   -5.7230   -0.2570    7.9080 C   0  0  0  0  0  0  0  0  0  0  0  0
   -3.8470   -1.7050    7.3170 C   0  0  0  0  0  0  0  0  0  0  0  0
   -2.5570   -2.1500    7.4830 N   0  0  0  0  0  0  0  0  0  0  0  0
   -2.0470   -3.1180    6.7060 C   0  0  0  0  0  0  0  0  0  0  0  0
   -2.8090   -3.7120    5.6910 C   0  0  0  0  0  0  0  0  0  0  0  0
   -4.1150   -3.2830    5.4940 C   0  0  0  0  0  0  0  0  0  0  0  0
   -4.6430   -2.2790    6.3080 C   0  0  0  0  0  0  0  0  0  0  0  0
   -5.9560   -1.8430    6.1210 C   0  0  0  0  0  0  0  0  0  0  0  0
   -6.5020   -0.8510    6.9200 C   0  0  0  0  0  0  0  0  0  0  0  0
   -5.2098    2.9926   10.0041 H   0  0  0  0  0  0  0  0  0  0  0  0
   -4.0574    2.8110    8.6382 H   0  0  0  0  0  0  0  0  0  0  0  0
   -5.6019    1.8939    8.6382 H   0  0  0  0  0  0  0  0  0  0  0  0
   -2.6945   -0.5164    9.2069 H   0  0  0  0  0  0  0  0  0  0  0  0
   -6.1419    0.5447    8.5339 H   0  0  0  0  0  0  0  0  0  0  0  0
   -1.0115   -3.4514    6.8689 H   0  0  0  0  0  0  0  0  0  0  0  0
   -2.3798   -4.5049    5.0608 H   0  0  0  0  0  0  0  0  0  0  0  0
   -4.7305   -3.7320    4.7005 H   0  0  0  0  0  0  0  0  0  0  0  0
   -6.5676   -2.2945    5.3259 H   0  0  0  0  0  0  0  0  0  0  0  0
   -7.5455   -0.5350    6.7739 H   0  0  0  0  0  0  0  0  0  0  0  0
  1  2  2  0
  2  3  2  0
  2  4  1  0
  2  5  1  0
  5  6  1  0
  6  7  2  0
  6  8  1  0
  7 15  1  0
  8  9  2  0
  8 13  1  0
  9 10  1  0
 10 11  2  0
 11 12  1  0
 12 13  2  0
 13 14  1  0
 14 15  2  0
  4 16  1  0
  4 17  1  0
  4 18  1  0
  5 19  1  0
  7 20  1  0
 10 21  1  0
 11 22  1  0
 12 23  1  0
 14 24  1  0
 15 25  1  0
A    1
O2
A    2
S1
A    3
O1
A    4
C7
A    5
N1
A    6
C3
A    7
C2
A    8
C4
A    9
N2
A   10
C8
A   11
C9
A   12
C10
A   13
C5
A   14
C6
A   15
C1
M  END
