2BDF_24A_A_600
     RDKit          3D

 61 64  0  0  0  0  0  0  0  0999 V2000
    8.6020   18.6840   -6.7830 C   0  0  0  0  0  0  0  0  0  0  0  0
    8.9730   17.5690   -5.8340 C   0  0  0  0  0  0  0  0  0  0  0  0
   10.3010   17.0590   -6.1720 N   0  0  0  0  0  0  0  0  0  0  0  0
   10.4900   16.3270   -7.2360 C   0  0  0  0  0  0  0  0  0  0  0  0
    9.7260   15.8550   -8.2220 N   0  0  0  0  0  0  0  0  0  0  0  0
   10.3260   15.1250   -9.1640 C   0  0  0  0  0  0  0  0  0  0  0  0
   11.6440   14.8620   -9.1460 N   0  0  0  0  0  0  0  0  0  0  0  0
   12.5050   15.2970   -8.1920 C   0  0  0  0  0  0  0  0  0  0  0  0
   11.8560   16.0660   -7.2050 C   0  0  0  0  0  0  0  0  0  0  0  0
   12.4190   16.6300   -6.1420 N   0  0  0  0  0  0  0  0  0  0  0  0
   11.4240   17.2610   -5.4890 C   0  0  0  0  0  0  0  0  0  0  0  0
   13.8420   15.0240   -8.2340 N   0  0  0  0  0  0  0  0  0  0  0  0
   14.5680   14.3750   -9.1980 C   0  0  0  0  0  0  0  0  0  0  0  0
   15.9510   14.5140   -9.1220 C   0  0  0  0  0  0  0  0  0  0  0  0
   16.8080   13.8560  -10.0380 C   0  0  0  0  0  0  0  0  0  0  0  0
   16.2850   13.0500  -11.0500 C   0  0  0  0  0  0  0  0  0  0  0  0
   14.9000   12.9110  -11.1360 C   0  0  0  0  0  0  0  0  0  0  0  0
   14.0490   13.5710  -10.2160 C   0  0  0  0  0  0  0  0  0  0  0  0
   17.2610   12.3270  -12.0670 P   0  0  0  0  0  0  0  0  0  0  0  0
   18.5680   12.9570  -12.4000 O   0  0  0  0  0  0  0  0  0  0  0  0
   16.6500   11.8840  -13.4900 O   0  0  0  0  0  0  0  0  0  0  0  0
   17.7680   10.9400  -11.6400 C   0  0  0  0  0  0  0  0  0  0  0  0
   18.7620    9.8300  -12.1310 P   0  0  0  0  0  0  0  0  0  0  0  0
   18.0670    8.7510  -12.9150 O   0  0  0  0  0  0  0  0  0  0  0  0
   19.3920    9.1770  -10.7720 O   0  0  0  0  0  0  0  0  0  0  0  0
   20.0440   10.5320  -12.9000 O   0  0  0  0  0  0  0  0  0  0  0  0
    8.1110   12.1160  -13.4640 N   0  0  0  0  0  0  0  0  0  0  0  0
    9.0130   12.8280  -12.5800 C   0  0  0  0  0  0  0  0  0  0  0  0
    9.1440   14.3530  -12.7560 C   0  0  0  0  0  0  0  0  0  0  0  0
   10.0040   14.9720  -11.6430 C   0  0  0  0  0  0  0  0  0  0  0  0
    9.4530   14.5780  -10.2630 C   0  0  0  0  0  0  0  0  0  0  0  0
    9.3150   13.0630  -10.1150 C   0  0  0  0  0  0  0  0  0  0  0  0
    8.4280   12.4880  -11.2130 C   0  0  0  0  0  0  0  0  0  0  0  0
    8.3062   19.5729   -6.2065 H   0  0  0  0  0  0  0  0  0  0  0  0
    9.4670   18.9291   -7.4168 H   0  0  0  0  0  0  0  0  0  0  0  0
    7.7626   18.3620   -7.4168 H   0  0  0  0  0  0  0  0  0  0  0  0
    8.9796   17.9527   -4.8031 H   0  0  0  0  0  0  0  0  0  0  0  0
    8.2368   16.7562   -5.9196 H   0  0  0  0  0  0  0  0  0  0  0  0
   11.5226   17.8392   -4.5584 H   0  0  0  0  0  0  0  0  0  0  0  0
   14.3840   15.3540   -7.4227 H   0  0  0  0  0  0  0  0  0  0  0  0
   16.3869   15.1472   -8.3352 H   0  0  0  0  0  0  0  0  0  0  0  0
   17.8973   13.9817   -9.9507 H   0  0  0  0  0  0  0  0  0  0  0  0
   14.4640   12.2824  -11.9264 H   0  0  0  0  0  0  0  0  0  0  0  0
   12.9595   13.4483  -10.3046 H   0  0  0  0  0  0  0  0  0  0  0  0
   19.0458   13.1873  -11.5641 H   0  0  0  0  0  0  0  0  0  0  0  0
   18.1516   11.1475  -10.6301 H   0  0  0  0  0  0  0  0  0  0  0  0
   16.8975   10.4286  -12.0767 H   0  0  0  0  0  0  0  0  0  0  0  0
   17.6510    8.1052  -12.2905 H   0  0  0  0  0  0  0  0  0  0  0  0
   18.9803    9.6038   -9.9793 H   0  0  0  0  0  0  0  0  0  0  0  0
    7.4326   11.5805  -12.9036 H   0  0  0  0  0  0  0  0  0  0  0  0
    7.6087   12.7909  -14.0582 H   0  0  0  0  0  0  0  0  0  0  0  0
   10.0502   12.5173  -12.7741 H   0  0  0  0  0  0  0  0  0  0  0  0
    9.6124   14.5624  -13.7290 H   0  0  0  0  0  0  0  0  0  0  0  0
    8.1384   14.7959  -12.7046 H   0  0  0  0  0  0  0  0  0  0  0  0
   11.0378   14.6086  -11.7384 H   0  0  0  0  0  0  0  0  0  0  0  0
    9.9799   16.0675  -11.7390 H   0  0  0  0  0  0  0  0  0  0  0  0
    8.4486   15.0185  -10.1785 H   0  0  0  0  0  0  0  0  0  0  0  0
   10.3119   12.6025  -10.1792 H   0  0  0  0  0  0  0  0  0  0  0  0
    8.8535   12.8456   -9.1404 H   0  0  0  0  0  0  0  0  0  0  0  0
    7.4190   12.9182  -11.1302 H   0  0  0  0  0  0  0  0  0  0  0  0
    8.3748   11.3949  -11.1021 H   0  0  0  0  0  0  0  0  0  0  0  0
  1  2  1  0
  2  3  1  0
  3  4  1  0
  3 11  1  0
  4  5  2  0
  4  9  1  0
  5  6  1  0
  6  7  2  0
  6 31  1  0
  7  8  1  0
  8  9  2  0
  8 12  1  0
  9 10  1  0
 10 11  2  0
 12 13  1  0
 13 14  2  0
 13 18  1  0
 14 15  1  0
 15 16  2  0
 16 17  1  0
 16 19  1  0
 17 18  2  0
 19 20  1  0
 19 21  2  0
 19 22  1  0
 22 23  1  0
 23 24  1  0
 23 25  1  0
 23 26  2  0
 27 28  1  0
 28 29  1  0
 28 33  1  0
 29 30  1  0
 30 31  1  0
 31 32  1  0
 32 33  1  0
  1 34  1  0
  1 35  1  0
  1 36  1  0
  2 37  1  0
  2 38  1  0
 11 39  1  0
 12 40  1  0
 14 41  1  0
 15 42  1  0
 17 43  1  0
 18 44  1  0
 20 45  1  0
 22 46  1  0
 22 47  1  0
 24 48  1  0
 25 49  1  0
 27 50  1  0
 27 51  1  0
 28 52  1  0
 29 53  1  0
 29 54  1  0
 30 55  1  0
 30 56  1  0
 31 57  1  0
 32 58  1  0
 32 59  1  0
 33 60  1  0
 33 61  1  0
A    1
C0A
A    2
C1A
A    3
N9A
A    4
C4A
A    5
N3A
A    6
C2A
A    7
N1A
A    8
C6A
A    9
C5A
A   10
N7A
A   11
C8A
A   12
N6A
A   13
CR1
A   14
CR2
A   15
CR3
A   16
CR4
A   17
CR5
A   18
CR6
A   19
PA
A   20
OA1
A   21
OA2
A   22
CAB
A   23
PB
A   24
OB1
A   25
OB2
A   26
OB3
A   27
NS1
A   28
CS1
A   29
CS2
A   30
CS3
A   31
CS4
A   32
CS5
A   33
CS6
M  END
