1HDC_CBO_A_301
     RDKit          3D

 91 95  0  0  0  0  0  0  0  0999 V2000
   -1.2190    2.1820  -22.6680 C   0  0  0  0  0  0  0  0  0  0  0  0
   -2.4900    2.4550  -21.8410 C   0  0  0  0  0  0  0  0  0  0  0  0
   -2.8170    1.2420  -20.9210 C   0  0  0  0  0  0  0  0  0  0  0  0
   -1.6570    0.7600  -19.9990 C   0  0  0  0  0  0  0  0  0  0  0  0
   -0.3420    0.6140  -20.8990 C   0  0  0  0  0  0  0  0  0  0  0  0
    0.9640    0.1930  -20.0800 C   0  0  0  0  0  0  0  0  0  0  0  0
    1.9900   -0.4490  -20.9730 C   0  0  0  0  0  0  0  0  0  0  0  0
    2.3930    0.4880  -22.2640 C   0  0  0  0  0  0  0  0  0  0  0  0
    1.0980    1.2140  -22.8930 C   0  0  0  0  0  0  0  0  0  0  0  0
   -0.0390    1.8250  -21.9050 C   0  0  0  0  0  0  0  0  0  0  0  0
    1.5200    2.0400  -24.1030 C   0  0  0  0  0  0  0  0  0  0  0  0
    2.5800    1.5560  -24.8960 C   0  0  0  0  0  0  0  0  0  0  0  0
    3.2940    0.4460  -24.6310 C   0  0  0  0  0  0  0  0  0  0  0  0
    2.9760   -0.4340  -23.4450 C   0  0  0  0  0  0  0  0  0  0  0  0
    4.2750   -1.2210  -22.8650 C   0  0  0  0  0  0  0  0  0  0  0  0
    5.0430   -1.8480  -24.0080 C   0  0  0  0  0  0  0  0  0  0  0  0
    5.5350   -0.7690  -25.0600 C   0  0  0  0  0  0  0  0  0  0  0  0
    4.3060    0.0400  -25.6780 C   0  0  0  0  0  0  0  0  0  0  0  0
    0.6100    3.2090  -21.2560 C   0  0  0  0  0  0  0  0  0  0  0  0
    3.4990   -0.6410  -26.8520 C   0  0  0  0  0  0  0  0  0  0  0  0
    4.4540   -1.1230  -27.9370 C   0  0  0  0  0  0  0  0  0  0  0  0
    5.4090   -2.1510  -27.2490 C   0  0  0  0  0  0  0  0  0  0  0  0
    6.3090   -1.4810  -26.2210 C   0  0  0  0  0  0  0  0  0  0  0  0
   -1.3750    1.7240  -18.7540 C   0  0  0  0  0  0  0  0  0  0  0  0
   -1.9940   -0.6020  -19.4270 C   0  0  0  0  0  0  0  0  0  0  0  0
    3.5060    1.6590  -21.8600 C   0  0  0  0  0  0  0  0  0  0  0  0
    1.9900   -1.5060  -24.0050 C   0  0  0  0  0  0  0  0  0  0  0  0
    6.5270    0.1740  -24.3450 C   0  0  0  0  0  0  0  0  0  0  0  0
   -5.2150    1.5760  -20.2780 C   0  0  0  0  0  0  0  0  0  0  0  0
   -6.0060    2.2300  -19.1760 C   0  0  0  0  0  0  0  0  0  0  0  0
   -5.6890    3.7360  -18.8580 C   0  0  0  0  0  0  0  0  0  0  0  0
   -5.4250    4.6260  -20.0700 C   0  0  0  0  0  0  0  0  0  0  0  0
    5.3260    0.0960  -28.5190 C   0  0  0  0  0  0  0  0  0  0  0  0
    3.6020   -1.7320  -29.0700 C   0  0  0  0  0  0  0  0  0  0  0  0
   -3.8750    1.6540  -20.0090 O   0  0  0  0  0  0  0  0  0  0  0  0
    1.0440    3.1480  -24.4260 O   0  0  0  0  0  0  0  0  0  0  0  0
   -5.7080    1.0570  -21.2520 O   0  0  0  0  0  0  0  0  0  0  0  0
   -6.0230    4.2630  -21.1640 O   0  0  0  0  0  0  0  0  0  0  0  0
   -4.6610    5.6800  -20.0210 O   0  0  0  0  0  0  0  0  0  0  0  0
    6.4560   -0.1520  -29.0360 O   0  0  0  0  0  0  0  0  0  0  0  0
    4.9700    1.4250  -28.4470 O   0  0  0  0  0  0  0  0  0  0  0  0
   -1.4370    1.3555  -23.3604 H   0  0  0  0  0  0  0  0  0  0  0  0
   -0.9771    3.1307  -23.1694 H   0  0  0  0  0  0  0  0  0  0  0  0
   -2.3314    3.3481  -21.2188 H   0  0  0  0  0  0  0  0  0  0  0  0
   -3.3330    2.6152  -22.5292 H   0  0  0  0  0  0  0  0  0  0  0  0
   -3.0663    0.4189  -21.6069 H   0  0  0  0  0  0  0  0  0  0  0  0
   -0.6098   -0.2324  -21.5485 H   0  0  0  0  0  0  0  0  0  0  0  0
    1.4022    1.0907  -19.6195 H   0  0  0  0  0  0  0  0  0  0  0  0
    0.6697   -0.5367  -19.3113 H   0  0  0  0  0  0  0  0  0  0  0  0
    2.8978   -0.6416  -20.3824 H   0  0  0  0  0  0  0  0  0  0  0  0
    1.5508   -1.3784  -21.3646 H   0  0  0  0  0  0  0  0  0  0  0  0
    0.4403    0.4061  -23.2461 H   0  0  0  0  0  0  0  0  0  0  0  0
    2.8433    2.1276  -25.7982 H   0  0  0  0  0  0  0  0  0  0  0  0
    4.9255   -0.5110  -22.3332 H   0  0  0  0  0  0  0  0  0  0  0  0
    3.9445   -2.0090  -22.1722 H   0  0  0  0  0  0  0  0  0  0  0  0
    5.9204   -2.3716  -23.6005 H   0  0  0  0  0  0  0  0  0  0  0  0
    4.3680   -2.5439  -24.5277 H   0  0  0  0  0  0  0  0  0  0  0  0
    4.8344    0.9021  -26.1110 H   0  0  0  0  0  0  0  0  0  0  0  0
    0.5812    3.1476  -20.1581 H   0  0  0  0  0  0  0  0  0  0  0  0
    1.6525    3.3167  -21.5900 H   0  0  0  0  0  0  0  0  0  0  0  0
    0.0262    4.0794  -21.5900 H   0  0  0  0  0  0  0  0  0  0  0  0
    2.9362   -1.4991  -26.4560 H   0  0  0  0  0  0  0  0  0  0  0  0
    2.8059    0.0952  -27.2852 H   0  0  0  0  0  0  0  0  0  0  0  0
    4.8033   -2.9192  -26.7460 H   0  0  0  0  0  0  0  0  0  0  0  0
    6.0477   -2.5987  -28.0246 H   0  0  0  0  0  0  0  0  0  0  0  0
    6.9239   -0.7295  -26.7379 H   0  0  0  0  0  0  0  0  0  0  0  0
    6.9105   -2.2777  -25.7591 H   0  0  0  0  0  0  0  0  0  0  0  0
   -1.5370    1.1703  -17.8174 H   0  0  0  0  0  0  0  0  0  0  0  0
   -0.3350    2.0802  -18.7942 H   0  0  0  0  0  0  0  0  0  0  0  0
   -2.0591    2.5845  -18.7942 H   0  0  0  0  0  0  0  0  0  0  0  0
   -1.9815   -0.5515  -18.3282 H   0  0  0  0  0  0  0  0  0  0  0  0
   -2.9944   -0.9059  -19.7688 H   0  0  0  0  0  0  0  0  0  0  0  0
   -1.2507   -1.3373  -19.7688 H   0  0  0  0  0  0  0  0  0  0  0  0
    3.5777    1.7345  -20.7649 H   0  0  0  0  0  0  0  0  0  0  0  0
    4.4887    1.3893  -22.2741 H   0  0  0  0  0  0  0  0  0  0  0  0
    3.1867    2.6268  -22.2741 H   0  0  0  0  0  0  0  0  0  0  0  0
    1.5064   -2.0318  -23.1686 H   0  0  0  0  0  0  0  0  0  0  0  0
    1.2232   -1.0129  -24.6206 H   0  0  0  0  0  0  0  0  0  0  0  0
    2.5453   -2.2289  -24.6206 H   0  0  0  0  0  0  0  0  0  0  0  0
    6.4145    0.0671  -23.2560 H   0  0  0  0  0  0  0  0  0  0  0  0
    7.5554   -0.0876  -24.6348 H   0  0  0  0  0  0  0  0  0  0  0  0
    6.3178    1.2143  -24.6348 H   0  0  0  0  0  0  0  0  0  0  0  0
   -7.0694    2.1668  -19.4502 H   0  0  0  0  0  0  0  0  0  0  0  0
   -5.7251    1.6833  -18.2637 H   0  0  0  0  0  0  0  0  0  0  0  0
   -6.5474    4.1542  -18.3119 H   0  0  0  0  0  0  0  0  0  0  0  0
   -4.7531    3.7304  -18.2800 H   0  0  0  0  0  0  0  0  0  0  0  0
    2.7799   -2.3196  -28.6353 H   0  0  0  0  0  0  0  0  0  0  0  0
    3.1870   -0.9246  -29.6912 H   0  0  0  0  0  0  0  0  0  0  0  0
    4.2316   -2.3860  -29.6912 H   0  0  0  0  0  0  0  0  0  0  0  0
   -4.3896    6.0544  -19.1456 H   0  0  0  0  0  0  0  0  0  0  0  0
    4.8537    1.8592  -27.5649 H   0  0  0  0  0  0  0  0  0  0  0  0
  1  2  1  0
  1 10  1  0
  2  3  1  0
  3  4  1  0
  3 35  1  0
  4  5  1  0
  4 24  1  0
  4 25  1  0
  5  6  1  0
  5 10  1  0
  6  7  1  0
  7  8  1  0
  8  9  1  0
  8 14  1  0
  8 26  1  0
  9 10  1  0
  9 11  1  0
 10 19  1  0
 11 12  1  0
 11 36  2  0
 12 13  2  0
 13 14  1  0
 13 18  1  0
 14 15  1  0
 14 27  1  0
 15 16  1  0
 16 17  1  0
 17 18  1  0
 17 23  1  0
 17 28  1  0
 18 20  1  0
 20 21  1  0
 21 22  1  0
 21 33  1  0
 21 34  1  0
 22 23  1  0
 29 30  1  0
 29 35  1  0
 29 37  2  0
 30 31  1  0
 31 32  1  0
 32 38  2  0
 32 39  1  0
 33 40  2  0
 33 41  1  0
  1 42  1  0
  1 43  1  0
  2 44  1  0
  2 45  1  0
  3 46  1  0
  5 47  1  0
  6 48  1  0
  6 49  1  0
  7 50  1  0
  7 51  1  0
  9 52  1  0
 12 53  1  0
 15 54  1  0
 15 55  1  0
 16 56  1  0
 16 57  1  0
 18 58  1  0
 19 59  1  0
 19 60  1  0
 19 61  1  0
 20 62  1  0
 20 63  1  0
 22 64  1  0
 22 65  1  0
 23 66  1  0
 23 67  1  0
 24 68  1  0
 24 69  1  0
 24 70  1  0
 25 71  1  0
 25 72  1  0
 25 73  1  0
 26 74  1  0
 26 75  1  0
 26 76  1  0
 27 77  1  0
 27 78  1  0
 27 79  1  0
 28 80  1  0
 28 81  1  0
 28 82  1  0
 30 83  1  0
 30 84  1  0
 31 85  1  0
 31 86  1  0
 34 87  1  0
 34 88  1  0
 34 89  1  0
 39 90  1  0
 41 91  1  0
A    1
C1
A    2
C2
A    3
C3
A    4
C4
A    5
C5
A    6
C6
A    7
C7
A    8
C8
A    9
C9
A   10
C10
A   11
C11
A   12
C12
A   13
C13
A   14
C14
A   15
C15
A   16
C16
A   17
C17
A   18
C18
A   19
C19
A   20
C20
A   21
C21
A   22
C22
A   23
C23
A   24
C24
A   25
C25
A   26
C26
A   27
C27
A   28
C28
A   29
C29
A   30
C30
A   31
C31
A   32
C32
A   33
C33
A   34
C34
A   35
O3
A   36
O11
A   37
O29
A   38
O32
A   39
O33
A   40
O34
A   41
O35
M  END
