2BET_DEZ_A_200
     RDKit          3D

 22 21  0  0  0  0  0  0  0  0999 V2000
   24.1070   -8.3050   13.5310 O   0  0  0  0  0  0  0  0  0  0  0  0
   25.0340   -7.6120   14.0020 C   0  0  0  0  0  0  0  0  0  0  0  0
   24.8490   -6.4650   14.4670 O   0  0  0  0  0  0  0  0  0  0  0  0
   26.4250   -8.1840   14.0110 C   0  0  0  0  0  0  0  0  0  0  0  0
   26.7170   -8.7520   12.7400 O   0  0  0  0  0  0  0  0  0  0  0  0
   26.5450   -9.2500   15.1010 C   0  0  0  0  0  0  0  0  0  0  0  0
   26.3880   -8.6390   16.3760 O   0  0  0  0  0  0  0  0  0  0  0  0
   27.8900   -9.9740   15.0320 C   0  0  0  0  0  0  0  0  0  0  0  0
   28.0860  -10.7870   16.1950 O   0  0  0  0  0  0  0  0  0  0  0  0
   29.0650  -12.0680   16.1970 P   0  0  0  0  0  0  0  0  0  0  0  0
   30.4360  -11.5360   16.5150 O   0  0  0  0  0  0  0  0  0  0  0  0
   28.9700  -12.6380   14.8070 O   0  0  0  0  0  0  0  0  0  0  0  0
   28.4780  -12.9540   17.2640 O   0  0  0  0  0  0  0  0  0  0  0  0
   24.8266   -6.3258   15.4469 H   0  0  0  0  0  0  0  0  0  0  0  0
   27.1453   -7.3795   14.2209 H   0  0  0  0  0  0  0  0  0  0  0  0
   27.1661   -9.6255   12.8642 H   0  0  0  0  0  0  0  0  0  0  0  0
   25.7540   -9.9978   14.9425 H   0  0  0  0  0  0  0  0  0  0  0  0
   26.5598   -9.3075   17.0857 H   0  0  0  0  0  0  0  0  0  0  0  0
   27.9110  -10.6128   14.1368 H   0  0  0  0  0  0  0  0  0  0  0  0
   28.6938   -9.2245   14.9841 H   0  0  0  0  0  0  0  0  0  0  0  0
   28.8075  -13.6131   14.8606 H   0  0  0  0  0  0  0  0  0  0  0  0
   28.7146  -12.5969   18.1565 H   0  0  0  0  0  0  0  0  0  0  0  0
  1  2  2  0
  2  3  1  0
  2  4  1  0
  4  5  1  0
  4  6  1  0
  6  7  1  0
  6  8  1  0
  8  9  1  0
  9 10  1  0
 10 11  2  0
 10 12  1  0
 10 13  1  0
  3 14  1  0
  4 15  1  0
  5 16  1  0
  6 17  1  0
  7 18  1  0
  8 19  1  0
  8 20  1  0
 12 21  1  0
 13 22  1  0
A    1
OH2
A    2
C1
A    3
OH1
A    4
C2
A    5
O2
A    6
C3
A    7
O3
A    8
C4
A    9
O4
A   10
P
A   11
O1P
A   12
O2P
A   13
O3P
M  END
