2BEU_THV_A_601
     RDKit          3D

 57 58  0  0  0  0  0  0  0  0999 V2000
   70.4420    5.0030    4.4770 O   0  0  0  0  0  0  0  0  0  0  0  0
   69.1130    5.2430    5.2280 P   0  0  0  0  0  0  0  0  0  0  0  0
   68.0680    4.1480    4.8180 O   0  0  0  0  0  0  0  0  0  0  0  0
   68.5200    6.5970    5.1090 O   0  0  0  0  0  0  0  0  0  0  0  0
   69.3660    4.9860    6.7940 O   0  0  0  0  0  0  0  0  0  0  0  0
   69.1570    3.6070    7.7340 P   0  0  0  0  0  0  0  0  0  0  0  0
   69.4760    4.0270    9.1020 O   0  0  0  0  0  0  0  0  0  0  0  0
   67.8240    3.0900    7.4840 O   0  0  0  0  0  0  0  0  0  0  0  0
   70.2660    2.6580    7.1680 O   0  0  0  0  0  0  0  0  0  0  0  0
   71.6290    2.8140    7.5310 C   0  0  0  0  0  0  0  0  0  0  0  0
   72.4270    2.0910    6.4490 C   0  0  0  0  0  0  0  0  0  0  0  0
   73.9130    2.2840    6.6750 C   0  0  0  0  0  0  0  0  0  0  0  0
   74.9200    1.4450    7.2020 C   0  0  0  0  0  0  0  0  0  0  0  0
   74.6530   -0.0020    7.7540 C   0  0  0  0  0  0  0  0  0  0  0  0
   74.6940    3.7240    6.1450 S   0  0  0  0  0  0  0  0  0  0  0  0
   76.3080    3.2100    6.4630 C   0  0  0  0  0  0  0  0  0  0  0  0
   77.5780    4.0810    6.3060 C   0  0  0  0  0  0  0  0  0  0  0  0
   78.7070    3.5620    6.4980 O   0  0  0  0  0  0  0  0  0  0  0  0
   77.4490    5.4810    5.6020 C   0  0  0  0  0  0  0  0  0  0  0  0
   77.4920    6.6080    6.6360 C   0  0  0  0  0  0  0  0  0  0  0  0
   78.5110    5.7190    4.5240 C   0  0  0  0  0  0  0  0  0  0  0  0
   76.1920    2.0180    7.1650 N   0  0  0  0  0  0  0  0  0  0  0  0
   77.3850    1.3420    7.7410 C   0  0  0  0  0  0  0  0  0  0  0  0
   77.4040    1.5630    9.2830 C   0  0  0  0  0  0  0  0  0  0  0  0
   77.2650    0.4340   10.1410 C   0  0  0  0  0  0  0  0  0  0  0  0
   77.2820    0.5100   11.4700 N   0  0  0  0  0  0  0  0  0  0  0  0
   77.4370    1.6970   12.1120 C   0  0  0  0  0  0  0  0  0  0  0  0
   77.4650    1.8840   13.6500 C   0  0  0  0  0  0  0  0  0  0  0  0
   77.5750    2.8510   11.3420 N   0  0  0  0  0  0  0  0  0  0  0  0
   77.5930    2.8180    9.9280 C   0  0  0  0  0  0  0  0  0  0  0  0
   77.6970    4.0080    9.3040 N   0  0  0  0  0  0  0  0  0  0  0  0
   71.1722    4.8711    5.1324 H   0  0  0  0  0  0  0  0  0  0  0  0
   67.6796    3.7410    5.6326 H   0  0  0  0  0  0  0  0  0  0  0  0
   69.0210    3.4280    9.7457 H   0  0  0  0  0  0  0  0  0  0  0  0
   71.8992    3.8799    7.5598 H   0  0  0  0  0  0  0  0  0  0  0  0
   71.8336    2.4033    8.5307 H   0  0  0  0  0  0  0  0  0  0  0  0
   72.1915    1.0170    6.4808 H   0  0  0  0  0  0  0  0  0  0  0  0
   72.1572    2.5067    5.4670 H   0  0  0  0  0  0  0  0  0  0  0  0
   74.6568    0.0186    8.8538 H   0  0  0  0  0  0  0  0  0  0  0  0
   73.6744   -0.3557    7.3973 H   0  0  0  0  0  0  0  0  0  0  0  0
   75.4409   -0.6817    7.3973 H   0  0  0  0  0  0  0  0  0  0  0  0
   78.8738    3.4853    7.4708 H   0  0  0  0  0  0  0  0  0  0  0  0
   76.4741    5.4791    5.0926 H   0  0  0  0  0  0  0  0  0  0  0  0
   77.4756    6.1777    7.6482 H   0  0  0  0  0  0  0  0  0  0  0  0
   78.4132    7.1940    6.5016 H   0  0  0  0  0  0  0  0  0  0  0  0
   76.6182    7.2625    6.5016 H   0  0  0  0  0  0  0  0  0  0  0  0
   79.4774    5.9356    5.0028 H   0  0  0  0  0  0  0  0  0  0  0  0
   78.6055    4.8198    3.8976 H   0  0  0  0  0  0  0  0  0  0  0  0
   78.2127    6.5726    3.8976 H   0  0  0  0  0  0  0  0  0  0  0  0
   77.3379    0.2646    7.5243 H   0  0  0  0  0  0  0  0  0  0  0  0
   78.2989    1.7624    7.2960 H   0  0  0  0  0  0  0  0  0  0  0  0
   77.1364   -0.5561    9.6793 H   0  0  0  0  0  0  0  0  0  0  0  0
   77.3192    0.9103   14.1405 H   0  0  0  0  0  0  0  0  0  0  0  0
   78.4361    2.3042   13.9507 H   0  0  0  0  0  0  0  0  0  0  0  0
   76.6596    2.5702   13.9507 H   0  0  0  0  0  0  0  0  0  0  0  0
   77.7727    4.8742    9.8562 H   0  0  0  0  0  0  0  0  0  0  0  0
   77.7008    4.0513    8.2749 H   0  0  0  0  0  0  0  0  0  0  0  0
  1  2  1  0
  2  3  1  0
  2  4  2  0
  2  5  1  0
  5  6  1  0
  6  7  1  0
  6  8  2  0
  6  9  1  0
  9 10  1  0
 10 11  1  0
 11 12  1  0
 12 13  2  0
 12 15  1  0
 13 14  1  0
 13 22  1  0
 15 16  1  0
 16 17  1  0
 16 22  2  0
 17 18  1  0
 17 19  1  0
 19 20  1  0
 19 21  1  0
 22 23  1  0
 23 24  1  0
 24 25  2  0
 24 30  1  0
 25 26  1  0
 26 27  2  0
 27 28  1  0
 27 29  1  0
 29 30  2  0
 30 31  1  0
  1 32  1  0
  3 33  1  0
  7 34  1  0
 10 35  1  0
 10 36  1  0
 11 37  1  0
 11 38  1  0
 14 39  1  0
 14 40  1  0
 14 41  1  0
 18 42  1  0
 19 43  1  0
 20 44  1  0
 20 45  1  0
 20 46  1  0
 21 47  1  0
 21 48  1  0
 21 49  1  0
 23 50  1  0
 23 51  1  0
 25 52  1  0
 28 53  1  0
 28 54  1  0
 28 55  1  0
 31 56  1  0
 31 57  1  0
M  CHG  2  17  -1  22   1
A    1
O2B
A    2
PB
A    3
O3B
A    4
O1B
A    5
O3A
A    6
PA
A    7
O1A
A    8
O2A
A    9
O5G
A   10
C5B
A   11
C5A
A   12
C5
A   13
C4
A   14
C4A
A   15
S1
A   16
C2
A   17
C8
A   18
O9
A   19
C9
A   20
C10
A   21
C11
A   22
N3
A   23
C35
A   24
C5'
A   25
C6'
A   26
N1'
A   27
C2'
A   28
C2A
A   29
N3'
A   30
C4'
A   31
N4'
M  END
