2BEW_THW_A_601
     RDKit          3D

 58 60  0  0  0  0  0  0  0  0999 V2000
   77.0950    5.9710    6.4700 C   0  0  0  0  0  0  0  0  0  0  0  0
   77.2450    7.2670    6.0090 C   0  0  0  0  0  0  0  0  0  0  0  0
   77.9580    7.4800    4.8510 C   0  0  0  0  0  0  0  0  0  0  0  0
   78.5520    6.4030    4.1880 C   0  0  0  0  0  0  0  0  0  0  0  0
   78.4220    5.1030    4.6400 C   0  0  0  0  0  0  0  0  0  0  0  0
   77.6740    4.9110    5.7920 C   0  0  0  0  0  0  0  0  0  0  0  0
   77.5110    3.5010    6.3590 C   0  0  0  0  0  0  0  0  0  0  0  0
   78.5610    2.8640    6.0170 O   0  0  0  0  0  0  0  0  0  0  0  0
   76.1300    3.0550    6.6290 C   0  0  0  0  0  0  0  0  0  0  0  0
   74.5220    3.5470    6.2580 S   0  0  0  0  0  0  0  0  0  0  0  0
   73.6570    2.0990    6.7040 C   0  0  0  0  0  0  0  0  0  0  0  0
   72.1180    1.8850    6.5120 C   0  0  0  0  0  0  0  0  0  0  0  0
   71.3490    2.8200    7.4700 C   0  0  0  0  0  0  0  0  0  0  0  0
   69.9790    2.5000    7.1800 O   0  0  0  0  0  0  0  0  0  0  0  0
   68.8780    3.5380    7.7060 P   0  0  0  0  0  0  0  0  0  0  0  0
   69.1690    3.9840    9.0510 O   0  0  0  0  0  0  0  0  0  0  0  0
   67.5520    2.9020    7.4130 O   0  0  0  0  0  0  0  0  0  0  0  0
   68.9690    4.8560    6.7680 O   0  0  0  0  0  0  0  0  0  0  0  0
   68.7950    5.0360    5.1360 P   0  0  0  0  0  0  0  0  0  0  0  0
   67.6050    4.0160    4.7690 O   0  0  0  0  0  0  0  0  0  0  0  0
   68.3020    6.4580    5.0150 O   0  0  0  0  0  0  0  0  0  0  0  0
   70.1340    4.8950    4.4740 O   0  0  0  0  0  0  0  0  0  0  0  0
   74.6720    1.2900    7.1920 C   0  0  0  0  0  0  0  0  0  0  0  0
   74.4350   -0.1460    7.7070 C   0  0  0  0  0  0  0  0  0  0  0  0
   75.9230    1.7950    7.1470 N   0  0  0  0  0  0  0  0  0  0  0  0
   77.0230    1.0910    7.7550 C   0  0  0  0  0  0  0  0  0  0  0  0
   77.0590    1.4180    9.3160 C   0  0  0  0  0  0  0  0  0  0  0  0
   76.9320    0.3450   10.2320 C   0  0  0  0  0  0  0  0  0  0  0  0
   76.9770    0.5250   11.5750 N   0  0  0  0  0  0  0  0  0  0  0  0
   77.1940    1.7290   12.1350 C   0  0  0  0  0  0  0  0  0  0  0  0
   77.2210    1.9480   13.6580 C   0  0  0  0  0  0  0  0  0  0  0  0
   77.2640    2.8090   11.3320 N   0  0  0  0  0  0  0  0  0  0  0  0
   77.1960    2.6810    9.9380 C   0  0  0  0  0  0  0  0  0  0  0  0
   77.3940    3.8210    9.2590 N   0  0  0  0  0  0  0  0  0  0  0  0
   76.5110    5.7809    7.3826 H   0  0  0  0  0  0  0  0  0  0  0  0
   76.8026    8.1115    6.5578 H   0  0  0  0  0  0  0  0  0  0  0  0
   78.0602    8.4982    4.4475 H   0  0  0  0  0  0  0  0  0  0  0  0
   79.1408    6.5953    3.2790 H   0  0  0  0  0  0  0  0  0  0  0  0
   78.8901    4.2600    4.1105 H   0  0  0  0  0  0  0  0  0  0  0  0
   79.0469    2.5692    6.8276 H   0  0  0  0  0  0  0  0  0  0  0  0
   71.8418    2.1162    5.4726 H   0  0  0  0  0  0  0  0  0  0  0  0
   71.8612    0.8386    6.7336 H   0  0  0  0  0  0  0  0  0  0  0  0
   71.5946    2.6031    8.5201 H   0  0  0  0  0  0  0  0  0  0  0  0
   71.5901    3.8844    7.3328 H   0  0  0  0  0  0  0  0  0  0  0  0
   67.0958    2.6832    8.2639 H   0  0  0  0  0  0  0  0  0  0  0  0
   68.1697    6.8395    5.9189 H   0  0  0  0  0  0  0  0  0  0  0  0
   70.8381    4.8209    5.1660 H   0  0  0  0  0  0  0  0  0  0  0  0
   74.4350   -0.1457    8.8070 H   0  0  0  0  0  0  0  0  0  0  0  0
   73.4644   -0.5115    7.3405 H   0  0  0  0  0  0  0  0  0  0  0  0
   75.2367   -0.8040    7.3405 H   0  0  0  0  0  0  0  0  0  0  0  0
   76.8923    0.0086    7.6091 H   0  0  0  0  0  0  0  0  0  0  0  0
   77.9673    1.4099    7.2896 H   0  0  0  0  0  0  0  0  0  0  0  0
   76.7916   -0.6727    9.8388 H   0  0  0  0  0  0  0  0  0  0  0  0
   77.1018    0.9815   14.1696 H   0  0  0  0  0  0  0  0  0  0  0  0
   78.1816    2.3996   13.9465 H   0  0  0  0  0  0  0  0  0  0  0  0
   76.3988    2.6194   13.9465 H   0  0  0  0  0  0  0  0  0  0  0  0
   77.5473    4.7034    9.7677 H   0  0  0  0  0  0  0  0  0  0  0  0
   77.3928    3.8138    8.2290 H   0  0  0  0  0  0  0  0  0  0  0  0
  1  2  2  0
  1  6  1  0
  2  3  1  0
  3  4  2  0
  4  5  1  0
  5  6  2  0
  6  7  1  0
  7  8  1  0
  7  9  1  0
  9 10  1  0
  9 25  2  0
 10 11  1  0
 11 12  1  0
 11 23  2  0
 12 13  1  0
 13 14  1  0
 14 15  1  0
 15 16  2  0
 15 17  1  0
 15 18  1  0
 18 19  1  0
 19 20  2  0
 19 21  1  0
 19 22  1  0
 23 24  1  0
 23 25  1  0
 25 26  1  0
 26 27  1  0
 27 28  2  0
 27 33  1  0
 28 29  1  0
 29 30  2  0
 30 31  1  0
 30 32  1  0
 32 33  2  0
 33 34  1  0
  1 35  1  0
  2 36  1  0
  3 37  1  0
  4 38  1  0
  5 39  1  0
  8 40  1  0
 12 41  1  0
 12 42  1  0
 13 43  1  0
 13 44  1  0
 17 45  1  0
 21 46  1  0
 22 47  1  0
 24 48  1  0
 24 49  1  0
 24 50  1  0
 26 51  1  0
 26 52  1  0
 28 53  1  0
 31 54  1  0
 31 55  1  0
 31 56  1  0
 34 57  1  0
 34 58  1  0
M  CHG  2   7  -1  25   1
A    1
C10
A    2
C12
A    3
C14
A    4
C13
A    5
C11
A    6
C9
A    7
C8
A    8
O9
A    9
C2
A   10
S1
A   11
C5
A   12
C5A
A   13
C5B
A   14
O5G
A   15
PA
A   16
O1A
A   17
O2A
A   18
O3A
A   19
PB
A   20
O1B
A   21
O2B
A   22
O3B
A   23
C4
A   24
C4A
A   25
N3
A   26
C35
A   27
C5'
A   28
C6'
A   29
N1'
A   30
C2'
A   31
C2A
A   32
N3'
A   33
C4'
A   34
N4'
M  END
