2BGD_T1D_A_1298
     RDKit          3D

 36 38  0  0  0  0  0  0  0  0999 V2000
   -4.4220   58.9030    5.3260 O   0  0  0  0  0  0  0  0  0  0  0  0
   -3.4820   59.6520    5.1790 C   0  0  0  0  0  0  0  0  0  0  0  0
   -2.5700   59.9500    6.1100 N   0  0  0  0  0  0  0  0  0  0  0  0
   -1.4680   60.9650    5.5480 S   0  0  0  0  0  0  0  0  0  0  0  0
   -0.0620   60.2920    5.4420 O   0  0  0  0  0  0  0  0  0  0  0  0
   -1.4160   62.3040    6.3200 O   0  0  0  0  0  0  0  0  0  0  0  0
   -2.0430   61.1680    4.1160 N   0  0  0  0  0  0  0  0  0  0  0  0
   -3.2370   60.3670    3.8620 C   0  0  0  0  0  0  0  0  0  0  0  0
   -1.4980   61.9590    3.0680 C   0  0  0  0  0  0  0  0  0  0  0  0
   -1.7970   63.3200    2.8900 C   0  0  0  0  0  0  0  0  0  0  0  0
   -1.2190   64.0460    1.8200 C   0  0  0  0  0  0  0  0  0  0  0  0
   -0.3720   63.3760    0.9220 C   0  0  0  0  0  0  0  0  0  0  0  0
   -0.0780   62.0220    1.0950 C   0  0  0  0  0  0  0  0  0  0  0  0
   -0.6420   61.3190    2.1700 C   0  0  0  0  0  0  0  0  0  0  0  0
   -0.3810   59.9920    2.3600 O   0  0  0  0  0  0  0  0  0  0  0  0
    0.3260   59.1890    1.4010 C   0  0  0  0  0  0  0  0  0  0  0  0
   -1.4800   65.4040    1.5810 C   0  0  0  0  0  0  0  0  0  0  0  0
   -2.6940   65.9740    1.9990 C   0  0  0  0  0  0  0  0  0  0  0  0
   -2.9850   67.3250    1.7420 C   0  0  0  0  0  0  0  0  0  0  0  0
   -2.0730   68.1090    1.0350 C   0  0  0  0  0  0  0  0  0  0  0  0
   -0.8570   67.5330    0.6020 C   0  0  0  0  0  0  0  0  0  0  0  0
   -0.5590   66.1920    0.8690 C   0  0  0  0  0  0  0  0  0  0  0  0
   -2.5760   59.5735    7.0687 H   0  0  0  0  0  0  0  0  0  0  0  0
   -3.0591   59.6449    3.0515 H   0  0  0  0  0  0  0  0  0  0  0  0
   -4.0963   60.9748    3.5422 H   0  0  0  0  0  0  0  0  0  0  0  0
   -2.4838   63.8246    3.5854 H   0  0  0  0  0  0  0  0  0  0  0  0
    0.0643   63.9236    0.0736 H   0  0  0  0  0  0  0  0  0  0  0  0
    0.5933   61.5085    0.3910 H   0  0  0  0  0  0  0  0  0  0  0  0
    0.9639   58.4645    1.9285 H   0  0  0  0  0  0  0  0  0  0  0  0
   -0.3964   58.6503    0.7701 H   0  0  0  0  0  0  0  0  0  0  0  0
    0.9518   59.8374    0.7701 H   0  0  0  0  0  0  0  0  0  0  0  0
   -3.4276   65.3541    2.5352 H   0  0  0  0  0  0  0  0  0  0  0  0
   -3.9294   67.7629    2.0974 H   0  0  0  0  0  0  0  0  0  0  0  0
   -2.2977   69.1635    0.8170 H   0  0  0  0  0  0  0  0  0  0  0  0
   -0.1338   68.1483    0.0466 H   0  0  0  0  0  0  0  0  0  0  0  0
    0.3905   65.7570    0.5237 H   0  0  0  0  0  0  0  0  0  0  0  0
  1  2  2  0
  2  3  1  0
  2  8  1  0
  3  4  1  0
  4  5  2  0
  4  6  2  0
  4  7  1  0
  7  8  1  0
  7  9  1  0
  9 10  2  0
  9 14  1  0
 10 11  1  0
 11 12  2  0
 11 17  1  0
 12 13  1  0
 13 14  2  0
 14 15  1  0
 15 16  1  0
 17 18  2  0
 17 22  1  0
 18 19  1  0
 19 20  2  0
 20 21  1  0
 21 22  2  0
  3 23  1  0
  8 24  1  0
  8 25  1  0
 10 26  1  0
 12 27  1  0
 13 28  1  0
 16 29  1  0
 16 30  1  0
 16 31  1  0
 18 32  1  0
 19 33  1  0
 20 34  1  0
 21 35  1  0
 22 36  1  0
A    1
O
A    2
C
A    3
N
A    4
S
A    5
O1
A    6
O2
A    7
N1
A    8
C1
A    9
C2
A   10
C3
A   11
C4
A   12
C5
A   13
C6
A   14
C7
A   15
O3
A   16
C8
A   17
C9
A   18
C10
A   19
C11
A   20
C12
A   21
C13
A   22
C14
M  END
