2BHH_RYU_A_1299
     RDKit          3D

 54 58  0  0  0  0  0  0  0  0999 V2000
    3.8250   24.4060    7.6960 C   0  0  0  0  0  0  0  0  0  0  0  0
    5.0960   24.0900    7.0670 C   0  0  0  0  0  0  0  0  0  0  0  0
    5.4960   24.6940    5.8070 C   0  0  0  0  0  0  0  0  0  0  0  0
    4.7580   25.8170    5.2500 C   0  0  0  0  0  0  0  0  0  0  0  0
    3.5880   26.2500    5.9900 C   0  0  0  0  0  0  0  0  0  0  0  0
    3.0690   25.4890    7.1030 C   0  0  0  0  0  0  0  0  0  0  0  0
    1.7660   25.9910    7.4890 C   0  0  0  0  0  0  0  0  0  0  0  0
    1.7690   26.2310    8.9740 C   0  0  0  0  0  0  0  0  0  0  0  0
    0.8090   25.1030    7.2070 O   0  0  0  0  0  0  0  0  0  0  0  0
    1.7140   27.1980    6.6760 C   0  0  0  0  0  0  0  0  0  0  0  0
    2.7760   27.3830    5.7610 N   0  0  0  0  0  0  0  0  0  0  0  0
    0.7250   28.2490    6.7970 C   0  0  0  0  0  0  0  0  0  0  0  0
    0.8550   29.6810    6.3290 C   0  0  0  0  0  0  0  0  0  0  0  0
    1.7760   30.0130    5.5890 O   0  0  0  0  0  0  0  0  0  0  0  0
   -0.0180   30.5780    6.7730 N   0  0  0  0  0  0  0  0  0  0  0  0
   -0.8070   29.7740    7.6280 C   0  0  0  0  0  0  0  0  0  0  0  0
   -0.4310   28.3720    7.6580 C   0  0  0  0  0  0  0  0  0  0  0  0
   -1.0550   27.3510    8.4850 C   0  0  0  0  0  0  0  0  0  0  0  0
   -1.9750   27.8860    9.4690 C   0  0  0  0  0  0  0  0  0  0  0  0
   -2.4550   29.2590    9.4040 C   0  0  0  0  0  0  0  0  0  0  0  0
   -1.8780   30.2340    8.4900 C   0  0  0  0  0  0  0  0  0  0  0  0
   -2.5620   27.0040   10.9270 S   0  0  0  0  0  0  0  0  0  0  0  0
   -1.5140   27.5570   12.2120 O   0  0  0  0  0  0  0  0  0  0  0  0
   -4.1580   27.6580   10.8240 O   0  0  0  0  0  0  0  0  0  0  0  0
   -2.5120   25.2420   11.1530 N   0  0  0  0  0  0  0  0  0  0  0  0
   -2.3020   24.6180   12.4790 C   0  0  0  0  0  0  0  0  0  0  0  0
   -1.0040   23.8190   12.5320 C   0  0  0  0  0  0  0  0  0  0  0  0
   -0.8360   22.8680   11.3440 C   0  0  0  0  0  0  0  0  0  0  0  0
    0.3490   22.0640   11.3740 O   0  0  0  0  0  0  0  0  0  0  0  0
   -1.0710   23.5920   10.0200 C   0  0  0  0  0  0  0  0  0  0  0  0
   -2.3850   24.3500    9.9920 C   0  0  0  0  0  0  0  0  0  0  0  0
    3.4578   23.8535    8.5734 H   0  0  0  0  0  0  0  0  0  0  0  0
    5.7732   23.3750    7.5572 H   0  0  0  0  0  0  0  0  0  0  0  0
    6.3684   24.2967    5.2674 H   0  0  0  0  0  0  0  0  0  0  0  0
    5.0703   26.3111    4.3181 H   0  0  0  0  0  0  0  0  0  0  0  0
    1.7569   25.2658    9.5014 H   0  0  0  0  0  0  0  0  0  0  0  0
    2.6742   26.7901    9.2532 H   0  0  0  0  0  0  0  0  0  0  0  0
    0.8781   26.8126    9.2532 H   0  0  0  0  0  0  0  0  0  0  0  0
    0.4281   24.7496    8.0497 H   0  0  0  0  0  0  0  0  0  0  0  0
    2.9215   28.1533    5.0929 H   0  0  0  0  0  0  0  0  0  0  0  0
   -0.0982   31.5815    6.5550 H   0  0  0  0  0  0  0  0  0  0  0  0
   -0.8486   26.2762    8.3743 H   0  0  0  0  0  0  0  0  0  0  0  0
   -3.2779   29.5687   10.0650 H   0  0  0  0  0  0  0  0  0  0  0  0
   -2.2383   31.2727    8.4550 H   0  0  0  0  0  0  0  0  0  0  0  0
   -2.2641   25.4091   13.2424 H   0  0  0  0  0  0  0  0  0  0  0  0
   -3.1363   23.9260   12.6663 H   0  0  0  0  0  0  0  0  0  0  0  0
   -0.1592   24.5234   12.5389 H   0  0  0  0  0  0  0  0  0  0  0  0
   -1.0342   23.2037   13.4433 H   0  0  0  0  0  0  0  0  0  0  0  0
   -1.6314   22.1147   11.4428 H   0  0  0  0  0  0  0  0  0  0  0  0
    0.6058   21.8897   12.3141 H   0  0  0  0  0  0  0  0  0  0  0  0
   -0.2496   24.3056    9.8586 H   0  0  0  0  0  0  0  0  0  0  0  0
   -1.1100   22.8303    9.2273 H   0  0  0  0  0  0  0  0  0  0  0  0
   -3.2152   23.6284   10.0021 H   0  0  0  0  0  0  0  0  0  0  0  0
   -2.4129   24.9627    9.0789 H   0  0  0  0  0  0  0  0  0  0  0  0
  1  2  2  0
  1  6  1  0
  2  3  1  0
  3  4  2  0
  4  5  1  0
  5  6  2  0
  5 11  1  0
  6  7  1  0
  7  8  1  0
  7  9  1  0
  7 10  1  0
 10 11  1  0
 10 12  2  0
 12 13  1  0
 12 17  1  0
 13 14  2  0
 13 15  1  0
 15 16  1  0
 16 17  2  0
 16 21  1  0
 17 18  1  0
 18 19  2  0
 19 20  1  0
 19 22  1  0
 20 21  2  0
 22 23  2  0
 22 24  2  0
 22 25  1  0
 25 26  1  0
 25 31  1  0
 26 27  1  0
 27 28  1  0
 28 29  1  0
 28 30  1  0
 30 31  1  0
  1 32  1  0
  2 33  1  0
  3 34  1  0
  4 35  1  0
  8 36  1  0
  8 37  1  0
  8 38  1  0
  9 39  1  0
 11 40  1  0
 15 41  1  0
 18 42  1  0
 20 43  1  0
 21 44  1  0
 26 45  1  0
 26 46  1  0
 27 47  1  0
 27 48  1  0
 28 49  1  0
 29 50  1  0
 30 51  1  0
 30 52  1  0
 31 53  1  0
 31 54  1  0
A    1
C1
A    2
C2
A    3
C3
A    4
C4
A    5
C5
A    6
C6
A    7
C7
A    8
C71
A    9
O71
A   10
C8
A   11
N9
A   12
C10
A   13
C11
A   14
O11
A   15
N12
A   16
C13
A   17
C14
A   18
C15
A   19
C16
A   20
C17
A   21
C18
A   22
S19
A   23
O19
A   24
O1
A   25
N20
A   26
C21
A   27
C22
A   28
C23
A   29
O23
A   30
C24
A   31
C25
M  END
