2BHI_C10_A_1062
     RDKit          3D

 75 74  0  0  0  0  0  0  0  0999 V2000
   51.1000   -7.6190   17.6110 C   0  0  0  0  0  0  0  0  0  0  0  0
   50.7600   -8.2330   18.9710 C   0  0  0  0  0  0  0  0  0  0  0  0
   50.5490   -7.1310   20.0110 C   0  0  0  0  0  0  0  0  0  0  0  0
   50.3240   -7.7090   21.4100 C   0  0  0  0  0  0  0  0  0  0  0  0
   50.1260   -6.5850   22.4290 C   0  0  0  0  0  0  0  0  0  0  0  0
   48.7350   -5.9560   22.3240 C   0  0  0  0  0  0  0  0  0  0  0  0
   48.7690   -4.4820   22.7350 C   0  0  0  0  0  0  0  0  0  0  0  0
   49.4610   -3.6560   21.6500 C   0  0  0  0  0  0  0  0  0  0  0  0
   49.7350   -2.2240   22.1140 C   0  0  0  0  0  0  0  0  0  0  0  0
   50.3040   -1.3950   20.9600 C   0  0  0  0  0  0  0  0  0  0  0  0
   51.5350   -1.9250   20.4430 O   0  0  0  0  0  0  0  0  0  0  0  0
   52.6360   -1.6000   21.3050 C   0  0  0  0  0  0  0  0  0  0  0  0
   53.9380   -1.8050   20.5470 C   0  0  0  0  0  0  0  0  0  0  0  0
   54.0670   -0.8190   19.5110 O   0  0  0  0  0  0  0  0  0  0  0  0
   54.6900    0.3670   20.0290 C   0  0  0  0  0  0  0  0  0  0  0  0
   53.8460    1.5820   19.6790 C   0  0  0  0  0  0  0  0  0  0  0  0
   52.5770    1.4900   20.3450 O   0  0  0  0  0  0  0  0  0  0  0  0
   51.6220    2.3410   19.6940 C   0  0  0  0  0  0  0  0  0  0  0  0
   50.7700    1.5340   18.7260 C   0  0  0  0  0  0  0  0  0  0  0  0
   49.9300    2.4440   18.0020 O   0  0  0  0  0  0  0  0  0  0  0  0
   48.9420    1.7620   17.2140 C   0  0  0  0  0  0  0  0  0  0  0  0
   49.4210    1.5850   15.7810 C   0  0  0  0  0  0  0  0  0  0  0  0
   50.1270    0.3460   15.6150 O   0  0  0  0  0  0  0  0  0  0  0  0
   49.2390   -0.6410   15.0680 C   0  0  0  0  0  0  0  0  0  0  0  0
   49.1140   -0.4760   13.5600 C   0  0  0  0  0  0  0  0  0  0  0  0
   48.0820   -1.3380   13.0560 O   0  0  0  0  0  0  0  0  0  0  0  0
   46.8800   -0.5740   12.8740 C   0  0  0  0  0  0  0  0  0  0  0  0
   45.6430   -1.4710   12.9590 C   0  0  0  0  0  0  0  0  0  0  0  0
   45.7040   -2.4760   11.9450 O   0  0  0  0  0  0  0  0  0  0  0  0
   51.6279   -6.6657   17.7608 H   0  0  0  0  0  0  0  0  0  0  0  0
   51.7440   -8.3101   17.0474 H   0  0  0  0  0  0  0  0  0  0  0  0
   50.1725   -7.4399   17.0474 H   0  0  0  0  0  0  0  0  0  0  0  0
   49.8395   -8.8284   18.8808 H   0  0  0  0  0  0  0  0  0  0  0  0
   51.5930   -8.8752   19.2929 H   0  0  0  0  0  0  0  0  0  0  0  0
   51.4389   -6.4847   20.0311 H   0  0  0  0  0  0  0  0  0  0  0  0
   49.6530   -6.5592   19.7279 H   0  0  0  0  0  0  0  0  0  0  0  0
   49.4289   -8.3483   21.3978 H   0  0  0  0  0  0  0  0  0  0  0  0
   51.2072   -8.2983   21.6976 H   0  0  0  0  0  0  0  0  0  0  0  0
   50.2545   -6.9962   23.4411 H   0  0  0  0  0  0  0  0  0  0  0  0
   50.8700   -5.8020   22.2208 H   0  0  0  0  0  0  0  0  0  0  0  0
   48.3831   -6.0319   21.2846 H   0  0  0  0  0  0  0  0  0  0  0  0
   48.0545   -6.4936   23.0006 H   0  0  0  0  0  0  0  0  0  0  0  0
   47.7402   -4.1172   22.8708 H   0  0  0  0  0  0  0  0  0  0  0  0
   49.3263   -4.3813   23.6780 H   0  0  0  0  0  0  0  0  0  0  0  0
   50.4167   -4.1358   21.3925 H   0  0  0  0  0  0  0  0  0  0  0  0
   48.7934   -3.6106   20.7769 H   0  0  0  0  0  0  0  0  0  0  0  0
   48.7958   -1.7682   22.4605 H   0  0  0  0  0  0  0  0  0  0  0  0
   50.4665   -2.2462   22.9352 H   0  0  0  0  0  0  0  0  0  0  0  0
   49.5635   -1.3711   20.1469 H   0  0  0  0  0  0  0  0  0  0  0  0
   50.5167   -0.3889   21.3506 H   0  0  0  0  0  0  0  0  0  0  0  0
   52.5568   -0.5503   21.6240 H   0  0  0  0  0  0  0  0  0  0  0  0
   52.6170   -2.2503   22.1920 H   0  0  0  0  0  0  0  0  0  0  0  0
   54.7835   -1.7124   21.2446 H   0  0  0  0  0  0  0  0  0  0  0  0
   53.9357   -2.8066   20.0922 H   0  0  0  0  0  0  0  0  0  0  0  0
   54.7789    0.2859   21.1224 H   0  0  0  0  0  0  0  0  0  0  0  0
   55.6903    0.4774   19.5849 H   0  0  0  0  0  0  0  0  0  0  0  0
   54.3655    2.4955   20.0040 H   0  0  0  0  0  0  0  0  0  0  0  0
   53.6879    1.6181   18.5910 H   0  0  0  0  0  0  0  0  0  0  0  0
   50.9718    2.8030   20.4515 H   0  0  0  0  0  0  0  0  0  0  0  0
   52.1599    3.1199   19.1338 H   0  0  0  0  0  0  0  0  0  0  0  0
   51.4186    0.9881   18.0251 H   0  0  0  0  0  0  0  0  0  0  0  0
   50.1558    0.8061   19.2764 H   0  0  0  0  0  0  0  0  0  0  0  0
   48.7495    0.7726   17.6546 H   0  0  0  0  0  0  0  0  0  0  0  0
   48.0211    2.3636   17.2059 H   0  0  0  0  0  0  0  0  0  0  0  0
   48.5504    1.5939   15.1087 H   0  0  0  0  0  0  0  0  0  0  0  0
   50.1076    2.4101   15.5406 H   0  0  0  0  0  0  0  0  0  0  0  0
   49.6330   -1.6437   15.2900 H   0  0  0  0  0  0  0  0  0  0  0  0
   48.2450   -0.5123   15.5213 H   0  0  0  0  0  0  0  0  0  0  0  0
   48.8616    0.5691   13.3275 H   0  0  0  0  0  0  0  0  0  0  0  0
   50.0706   -0.7427   13.0868 H   0  0  0  0  0  0  0  0  0  0  0  0
   46.8208    0.1959   13.6574 H   0  0  0  0  0  0  0  0  0  0  0  0
   46.9078   -0.1082   11.8779 H   0  0  0  0  0  0  0  0  0  0  0  0
   45.6074   -1.9515   13.9479 H   0  0  0  0  0  0  0  0  0  0  0  0
   44.7402   -0.8601   12.8114 H   0  0  0  0  0  0  0  0  0  0  0  0
   45.7582   -3.3692   12.3685 H   0  0  0  0  0  0  0  0  0  0  0  0
  1  2  1  0
  2  3  1  0
  3  4  1  0
  4  5  1  0
  5  6  1  0
  6  7  1  0
  7  8  1  0
  8  9  1  0
  9 10  1  0
 10 11  1  0
 11 12  1  0
 12 13  1  0
 13 14  1  0
 14 15  1  0
 15 16  1  0
 16 17  1  0
 17 18  1  0
 18 19  1  0
 19 20  1  0
 20 21  1  0
 21 22  1  0
 22 23  1  0
 23 24  1  0
 24 25  1  0
 25 26  1  0
 26 27  1  0
 27 28  1  0
 28 29  1  0
  1 30  1  0
  1 31  1  0
  1 32  1  0
  2 33  1  0
  2 34  1  0
  3 35  1  0
  3 36  1  0
  4 37  1  0
  4 38  1  0
  5 39  1  0
  5 40  1  0
  6 41  1  0
  6 42  1  0
  7 43  1  0
  7 44  1  0
  8 45  1  0
  8 46  1  0
  9 47  1  0
  9 48  1  0
 10 49  1  0
 10 50  1  0
 12 51  1  0
 12 52  1  0
 13 53  1  0
 13 54  1  0
 15 55  1  0
 15 56  1  0
 16 57  1  0
 16 58  1  0
 18 59  1  0
 18 60  1  0
 19 61  1  0
 19 62  1  0
 21 63  1  0
 21 64  1  0
 22 65  1  0
 22 66  1  0
 24 67  1  0
 24 68  1  0
 25 69  1  0
 25 70  1  0
 27 71  1  0
 27 72  1  0
 28 73  1  0
 28 74  1  0
 29 75  1  0
A    1
C1
A    2
C2
A    3
C3
A    4
C4
A    5
C5
A    6
C6
A    7
C7
A    8
C8
A    9
C9
A   10
C10
A   11
O11
A   12
C12
A   13
C13
A   14
O14
A   15
C15
A   16
C16
A   17
O17
A   18
C18
A   19
C19
A   20
O20
A   21
C21
A   22
C22
A   23
O23
A   24
C24
A   25
C25
A   26
O26
A   27
C27
A   28
C28
A   29
O29
M  END
