2BJU_IH4_A_1330
     RDKit          3D

 88 92  0  0  0  0  0  0  0  0999 V2000
   -0.8910   68.9470    3.2560 O   0  0  0  0  0  0  0  0  0  0  0  0
   -1.8400   68.2670    2.8570 C   0  0  0  0  0  0  0  0  0  0  0  0
   -3.0220   68.8790    2.5530 O   0  0  0  0  0  0  0  0  0  0  0  0
   -3.0090   70.2800    2.8640 C   0  0  0  0  0  0  0  0  0  0  0  0
   -1.6310   66.7920    2.5170 C   0  0  0  0  0  0  0  0  0  0  0  0
   -2.1350   65.8060    3.5640 C   0  0  0  0  0  0  0  0  0  0  0  0
   -3.4910   65.6560    3.7960 C   0  0  0  0  0  0  0  0  0  0  0  0
   -3.9180   64.7640    4.7700 C   0  0  0  0  0  0  0  0  0  0  0  0
   -1.2410   65.0330    4.2950 C   0  0  0  0  0  0  0  0  0  0  0  0
   -1.6910   64.1420    5.2570 C   0  0  0  0  0  0  0  0  0  0  0  0
   -3.0430   63.9910    5.5170 C   0  0  0  0  0  0  0  0  0  0  0  0
   -3.5380   63.0400    6.5110 C   0  0  0  0  0  0  0  0  0  0  0  0
   -2.9690   61.7830    6.6330 C   0  0  0  0  0  0  0  0  0  0  0  0
   -3.4340   60.8790    7.5620 C   0  0  0  0  0  0  0  0  0  0  0  0
   -4.5980   63.3510    7.3690 C   0  0  0  0  0  0  0  0  0  0  0  0
   -5.0780   62.4550    8.3000 C   0  0  0  0  0  0  0  0  0  0  0  0
   -4.4850   61.1930    8.4090 C   0  0  0  0  0  0  0  0  0  0  0  0
   -4.9520   60.1540    9.4040 C   0  0  0  0  0  0  0  0  0  0  0  0
   -5.0380   60.7340   10.7380 N   0  0  0  0  0  0  0  0  0  0  0  0
   -6.3330   60.9490   11.3390 C   0  0  0  0  0  0  0  0  0  0  0  0
   -7.5870   60.6850   10.5280 C   0  0  0  0  0  0  0  0  0  0  0  0
   -8.1090   59.4030   10.3970 C   0  0  0  0  0  0  0  0  0  0  0  0
   -9.3290   59.2290    9.7690 C   0  0  0  0  0  0  0  0  0  0  0  0
  -10.0340   60.3220    9.2920 C   0  0  0  0  0  0  0  0  0  0  0  0
   -9.4970   61.5990    9.4100 C   0  0  0  0  0  0  0  0  0  0  0  0
   -8.2740   61.7740   10.0420 C   0  0  0  0  0  0  0  0  0  0  0  0
  -11.3810   60.1450    8.5830 C   0  0  0  0  0  0  0  0  0  0  0  0
  -11.2020   59.8990    7.0790 C   0  0  0  0  0  0  0  0  0  0  0  0
  -12.5350   59.7950    6.3510 C   0  0  0  0  0  0  0  0  0  0  0  0
  -12.3300   59.5450    4.8560 C   0  0  0  0  0  0  0  0  0  0  0  0
  -13.6550   59.4710    4.0960 C   0  0  0  0  0  0  0  0  0  0  0  0
   -6.4380   61.3570   12.5140 O   0  0  0  0  0  0  0  0  0  0  0  0
   -3.8760   61.0000   11.5890 C   0  0  0  0  0  0  0  0  0  0  0  0
   -3.4970   59.7310   12.3300 C   0  0  0  0  0  0  0  0  0  0  0  0
   -2.3740   60.1040   13.3230 C   0  0  0  0  0  0  0  0  0  0  0  0
   -1.2360   60.7380   12.6050 N   0  0  0  0  0  0  0  0  0  0  0  0
   -1.6340   61.8880   11.7690 C   0  0  0  0  0  0  0  0  0  0  0  0
   -2.7030   61.4740   10.7650 C   0  0  0  0  0  0  0  0  0  0  0  0
   -0.3000   61.3920   13.5590 C   0  0  0  0  0  0  0  0  0  0  0  0
    0.2830   60.3450   14.4860 C   0  0  0  0  0  0  0  0  0  0  0  0
   -0.0690   60.3280   15.8140 N   0  0  0  0  0  0  0  0  0  0  0  0
    0.6090   59.2900   16.4040 C   0  0  0  0  0  0  0  0  0  0  0  0
    1.3660   58.7150   15.4440 C   0  0  0  0  0  0  0  0  0  0  0  0
    1.1930   59.3620   14.2420 N   0  0  0  0  0  0  0  0  0  0  0  0
   -3.0078   70.4132    3.9559 H   0  0  0  0  0  0  0  0  0  0  0  0
   -2.1065   70.7420    2.4372 H   0  0  0  0  0  0  0  0  0  0  0  0
   -3.9027   70.7586    2.4372 H   0  0  0  0  0  0  0  0  0  0  0  0
   -2.1553   66.5830    1.5728 H   0  0  0  0  0  0  0  0  0  0  0  0
   -0.5426   66.6441    2.4580 H   0  0  0  0  0  0  0  0  0  0  0  0
   -4.2223   66.2371    3.2150 H   0  0  0  0  0  0  0  0  0  0  0  0
   -4.9976   64.6663    4.9572 H   0  0  0  0  0  0  0  0  0  0  0  0
   -0.1614   65.1294    4.1077 H   0  0  0  0  0  0  0  0  0  0  0  0
   -0.9616   63.5446    5.8237 H   0  0  0  0  0  0  0  0  0  0  0  0
   -2.1319   61.5022    5.9770 H   0  0  0  0  0  0  0  0  0  0  0  0
   -2.9619   59.8880    7.6332 H   0  0  0  0  0  0  0  0  0  0  0  0
   -5.0645   64.3447    7.2984 H   0  0  0  0  0  0  0  0  0  0  0  0
   -5.9203   62.7302    8.9517 H   0  0  0  0  0  0  0  0  0  0  0  0
   -5.9438   59.7845    9.1043 H   0  0  0  0  0  0  0  0  0  0  0  0
   -4.2300   59.3243    9.4204 H   0  0  0  0  0  0  0  0  0  0  0  0
   -7.5572   58.5358   10.7889 H   0  0  0  0  0  0  0  0  0  0  0  0
   -9.7419   58.2167    9.6476 H   0  0  0  0  0  0  0  0  0  0  0  0
  -10.0388   62.4662    9.0045 H   0  0  0  0  0  0  0  0  0  0  0  0
   -7.8533   62.7841   10.1546 H   0  0  0  0  0  0  0  0  0  0  0  0
  -11.9063   59.2855    9.0249 H   0  0  0  0  0  0  0  0  0  0  0  0
  -11.9613   61.0704    8.7127 H   0  0  0  0  0  0  0  0  0  0  0  0
  -10.6278   60.7331    6.6494 H   0  0  0  0  0  0  0  0  0  0  0  0
  -10.6731   58.9427    6.9537 H   0  0  0  0  0  0  0  0  0  0  0  0
  -13.1132   58.9624    6.7782 H   0  0  0  0  0  0  0  0  0  0  0  0
  -13.0748   60.7454    6.4747 H   0  0  0  0  0  0  0  0  0  0  0  0
  -11.7276   60.3655    4.4389 H   0  0  0  0  0  0  0  0  0  0  0  0
  -11.8207   58.5767    4.7421 H   0  0  0  0  0  0  0  0  0  0  0  0
  -14.4873   59.4245    4.8137 H   0  0  0  0  0  0  0  0  0  0  0  0
  -13.7655   60.3644    3.4638 H   0  0  0  0  0  0  0  0  0  0  0  0
  -13.6653   58.5709    3.4638 H   0  0  0  0  0  0  0  0  0  0  0  0
   -4.1382   61.7912   12.3068 H   0  0  0  0  0  0  0  0  0  0  0  0
   -4.3678   59.3379   12.8752 H   0  0  0  0  0  0  0  0  0  0  0  0
   -3.1580   58.9542   11.6288 H   0  0  0  0  0  0  0  0  0  0  0  0
   -2.7695   60.8088   14.0693 H   0  0  0  0  0  0  0  0  0  0  0  0
   -2.0177   59.1889   13.8186 H   0  0  0  0  0  0  0  0  0  0  0  0
   -2.0330   62.6840   12.4149 H   0  0  0  0  0  0  0  0  0  0  0  0
   -0.7523   62.2507   11.2203 H   0  0  0  0  0  0  0  0  0  0  0  0
   -2.3320   60.6615   10.1230 H   0  0  0  0  0  0  0  0  0  0  0  0
   -2.9822   62.3068   10.1028 H   0  0  0  0  0  0  0  0  0  0  0  0
    0.5117   61.8811   13.0004 H   0  0  0  0  0  0  0  0  0  0  0  0
   -0.8422   62.1456   14.1490 H   0  0  0  0  0  0  0  0  0  0  0  0
   -0.7210   60.9745   16.2807 H   0  0  0  0  0  0  0  0  0  0  0  0
    0.5475   58.9844   17.4589 H   0  0  0  0  0  0  0  0  0  0  0  0
    2.0279   57.8507   15.6013 H   0  0  0  0  0  0  0  0  0  0  0  0
  1  2  2  0
  2  3  1  0
  2  5  1  0
  3  4  1  0
  5  6  1  0
  6  7  2  0
  6  9  1  0
  7  8  1  0
  8 11  2  0
  9 10  2  0
 10 11  1  0
 11 12  1  0
 12 13  2  0
 12 15  1  0
 13 14  1  0
 14 17  2  0
 15 16  2  0
 16 17  1  0
 17 18  1  0
 18 19  1  0
 19 20  1  0
 19 33  1  0
 20 21  1  0
 20 32  2  0
 21 22  2  0
 21 26  1  0
 22 23  1  0
 23 24  2  0
 24 25  1  0
 24 27  1  0
 25 26  2  0
 27 28  1  0
 28 29  1  0
 29 30  1  0
 30 31  1  0
 33 34  1  0
 33 38  1  0
 34 35  1  0
 35 36  1  0
 36 37  1  0
 36 39  1  0
 37 38  1  0
 39 40  1  0
 40 41  1  0
 40 44  2  0
 41 42  1  0
 42 43  2  0
 43 44  1  0
  4 45  1  0
  4 46  1  0
  4 47  1  0
  5 48  1  0
  5 49  1  0
  7 50  1  0
  8 51  1  0
  9 52  1  0
 10 53  1  0
 13 54  1  0
 14 55  1  0
 15 56  1  0
 16 57  1  0
 18 58  1  0
 18 59  1  0
 22 60  1  0
 23 61  1  0
 25 62  1  0
 26 63  1  0
 27 64  1  0
 27 65  1  0
 28 66  1  0
 28 67  1  0
 29 68  1  0
 29 69  1  0
 30 70  1  0
 30 71  1  0
 31 72  1  0
 31 73  1  0
 31 74  1  0
 33 75  1  0
 34 76  1  0
 34 77  1  0
 35 78  1  0
 35 79  1  0
 37 80  1  0
 37 81  1  0
 38 82  1  0
 38 83  1  0
 39 84  1  0
 39 85  1  0
 41 86  1  0
 42 87  1  0
 43 88  1  0
A    1
O27
A    2
C26
A    3
O28
A    4
C29
A    5
C25
A    6
C24
A    7
C30
A    8
C31
A    9
C23
A   10
C22
A   11
C21
A   12
C20
A   13
C32
A   14
C33
A   15
C19
A   16
C18
A   17
C17
A   18
C16
A   19
N3
A   20
C2
A   21
C34
A   22
C35
A   23
C36
A   24
C37
A   25
C43
A   26
C44
A   27
C38
A   28
C39
A   29
C40
A   30
C41
A   31
C42
A   32
O1
A   33
C4
A   34
C5
A   35
C6
A   36
N7
A   37
C14
A   38
C15
A   39
C8
A   40
C9
A   41
N10
A   42
C11
A   43
C12
A   44
N13
M  END
