1FQO_F6R_A_1267
     RDKit          3D

 29 28  0  0  0  0  0  0  0  0999 V2000
   17.3300   10.3680   19.3010 C   0  0  0  0  0  0  0  0  0  0  0  0
   18.4600    9.7530   20.0160 C   0  0  0  0  0  0  0  0  0  0  0  0
   18.4840   10.9070   21.0240 C   0  0  0  0  0  0  0  0  0  0  0  0
   17.2000   11.3540   21.6930 C   0  0  0  0  0  0  0  0  0  0  0  0
   15.9400   10.5180   21.3320 C   0  0  0  0  0  0  0  0  0  0  0  0
   15.4390    9.6130   22.4040 C   0  0  0  0  0  0  0  0  0  0  0  0
   16.2030    9.5370   18.9830 O   0  0  0  0  0  0  0  0  0  0  0  0
   19.2360    9.6150   18.9730 O   0  0  0  0  0  0  0  0  0  0  0  0
   19.6600   11.3270   21.8080 O   0  0  0  0  0  0  0  0  0  0  0  0
   17.3640   11.4650   23.0700 O   0  0  0  0  0  0  0  0  0  0  0  0
   14.8630   11.3260   20.9200 O   0  0  0  0  0  0  0  0  0  0  0  0
   15.1550    8.4130   22.1140 O   0  0  0  0  0  0  0  0  0  0  0  0
   13.9450    7.7970   21.4560 P   0  0  0  0  0  0  0  0  0  0  0  0
   12.6850    8.2600   21.8850 O   0  0  0  0  0  0  0  0  0  0  0  0
   14.2290    6.4370   22.0130 O   0  0  0  0  0  0  0  0  0  0  0  0
   14.2700    7.9400   20.0670 O   0  0  0  0  0  0  0  0  0  0  0  0
   16.9607   11.1965   19.9232 H   0  0  0  0  0  0  0  0  0  0  0  0
   17.7455   10.6546   18.3236 H   0  0  0  0  0  0  0  0  0  0  0  0
   18.6809   11.4279   20.0753 H   0  0  0  0  0  0  0  0  0  0  0  0
   16.9952   12.3505   21.2747 H   0  0  0  0  0  0  0  0  0  0  0  0
   16.3037    9.8874   20.5073 H   0  0  0  0  0  0  0  0  0  0  0  0
   16.2123    9.5809   23.1857 H   0  0  0  0  0  0  0  0  0  0  0  0
   14.4705   10.0514   22.6867 H   0  0  0  0  0  0  0  0  0  0  0  0
   15.7776    9.2233   19.8201 H   0  0  0  0  0  0  0  0  0  0  0  0
   19.4558   11.2541   22.7740 H   0  0  0  0  0  0  0  0  0  0  0  0
   16.6378   10.9735   23.5295 H   0  0  0  0  0  0  0  0  0  0  0  0
   14.3921   11.6793   21.7160 H   0  0  0  0  0  0  0  0  0  0  0  0
   12.6567    8.2704   22.8745 H   0  0  0  0  0  0  0  0  0  0  0  0
   14.2206    6.4772   23.0021 H   0  0  0  0  0  0  0  0  0  0  0  0
  1  2  1  0
  1  7  1  0
  2  3  1  0
  2  8  2  0
  3  4  1  0
  3  9  1  0
  4  5  1  0
  4 10  1  0
  5  6  1  0
  5 11  1  0
  6 12  1  0
 12 13  1  0
 13 14  1  0
 13 15  1  0
 13 16  2  0
  1 17  1  0
  1 18  1  0
  3 19  1  0
  4 20  1  0
  5 21  1  0
  6 22  1  0
  6 23  1  0
  7 24  1  0
  9 25  1  0
 10 26  1  0
 11 27  1  0
 14 28  1  0
 15 29  1  0
A    1
C1
A    2
C2
A    3
C3
A    4
C4
A    5
C5
A    6
C6
A    7
O1
A    8
O2
A    9
O3
A   10
O4
A   11
O5
A   12
O6
A   13
P
A   14
O1P
A   15
O2P
A   16
O3P
M  END
