2BML_XED_B_1319
     RDKit          3D

 46 49  0  0  0  0  0  0  0  0999 V2000
   44.3140   12.3760    9.7490 C   0  0  0  0  0  0  0  0  0  0  0  0
   44.9950   13.7410   10.0920 C   0  0  0  0  0  0  0  0  0  0  0  0
   45.3230   11.3220    9.9620 N   0  0  0  0  0  0  0  0  0  0  0  0
   45.4500   13.7090   11.5070 N   0  0  0  0  0  0  0  0  0  0  0  0
   45.6960   11.2640   11.3890 C   0  0  0  0  0  0  0  0  0  0  0  0
   46.3840   12.6030   11.7810 C   0  0  0  0  0  0  0  0  0  0  0  0
   46.1050   14.9820   11.8620 C   0  0  0  0  0  0  0  0  0  0  0  0
   45.0020   10.0390    9.3410 C   0  0  0  0  0  0  0  0  0  0  0  0
   44.3960    8.9260   10.0370 C   0  0  0  0  0  0  0  0  0  0  0  0
   45.3230    9.8780    7.9360 C   0  0  0  0  0  0  0  0  0  0  0  0
   45.8790   10.8680    7.2600 F   0  0  0  0  0  0  0  0  0  0  0  0
   44.1220    7.7060    9.3750 C   0  0  0  0  0  0  0  0  0  0  0  0
   45.0410    8.6420    7.2620 C   0  0  0  0  0  0  0  0  0  0  0  0
   44.4450    7.5610    7.9780 C   0  0  0  0  0  0  0  0  0  0  0  0
   44.0310    8.9710   11.4040 O   0  0  0  0  0  0  0  0  0  0  0  0
   43.5250    6.6550   10.1680 N   0  0  0  0  0  0  0  0  0  0  0  0
   43.2420    5.4830    9.5140 C   0  0  0  0  0  0  0  0  0  0  0  0
   42.3370    7.1010   11.0260 C   0  0  0  0  0  0  0  0  0  0  0  0
   42.7230    8.4150   11.8050 C   0  0  0  0  0  0  0  0  0  0  0  0
   40.9480    6.4110   11.0890 C   0  0  0  0  0  0  0  0  0  0  0  0
   43.4800    5.1650    8.2050 C   0  0  0  0  0  0  0  0  0  0  0  0
   44.1140    6.2160    7.3360 C   0  0  0  0  0  0  0  0  0  0  0  0
   42.5980    2.9760    8.4360 O   0  0  0  0  0  0  0  0  0  0  0  0
   43.1110    3.8070    7.6930 C   0  0  0  0  0  0  0  0  0  0  0  0
   43.3170    3.4950    6.5230 O   0  0  0  0  0  0  0  0  0  0  0  0
   44.3620    6.0110    6.1410 O   0  0  0  0  0  0  0  0  0  0  0  0
   43.4495   12.2095   10.4085 H   0  0  0  0  0  0  0  0  0  0  0  0
   43.9538   12.3686    8.7097 H   0  0  0  0  0  0  0  0  0  0  0  0
   45.8588   13.8996    9.4297 H   0  0  0  0  0  0  0  0  0  0  0  0
   44.2772   14.5623    9.9494 H   0  0  0  0  0  0  0  0  0  0  0  0
   44.7940   11.1184   12.0015 H   0  0  0  0  0  0  0  0  0  0  0  0
   46.3854   10.4245   11.5617 H   0  0  0  0  0  0  0  0  0  0  0  0
   47.3006   12.7363   11.1876 H   0  0  0  0  0  0  0  0  0  0  0  0
   46.6493   12.5908   12.8484 H   0  0  0  0  0  0  0  0  0  0  0  0
   46.1536   15.0765   12.9569 H   0  0  0  0  0  0  0  0  0  0  0  0
   47.1236   14.9985   11.4469 H   0  0  0  0  0  0  0  0  0  0  0  0
   45.5263   15.8204   11.4469 H   0  0  0  0  0  0  0  0  0  0  0  0
   45.2840    8.5285    6.1952 H   0  0  0  0  0  0  0  0  0  0  0  0
   42.7628    4.6992   10.1190 H   0  0  0  0  0  0  0  0  0  0  0  0
   42.7136    6.4943   11.8627 H   0  0  0  0  0  0  0  0  0  0  0  0
   42.7563    8.1859   12.8804 H   0  0  0  0  0  0  0  0  0  0  0  0
   41.9610    9.1710   11.5646 H   0  0  0  0  0  0  0  0  0  0  0  0
   40.6576    6.2667   12.1401 H   0  0  0  0  0  0  0  0  0  0  0  0
   40.2015    7.0430   10.5858 H   0  0  0  0  0  0  0  0  0  0  0  0
   41.0006    5.4343   10.5858 H   0  0  0  0  0  0  0  0  0  0  0  0
   43.8500    2.6877    6.3125 H   0  0  0  0  0  0  0  0  0  0  0  0
  1  2  1  0
  1  3  1  0
  2  4  1  0
  3  5  1  0
  3  8  1  0
  4  6  1  0
  4  7  1  0
  5  6  1  0
  8  9  1  0
  8 10  2  0
  9 12  2  0
  9 15  1  0
 10 11  1  0
 10 13  1  0
 12 14  1  0
 12 16  1  0
 13 14  2  0
 14 22  1  0
 15 19  1  0
 16 17  1  0
 16 18  1  0
 17 21  2  0
 18 19  1  0
 18 20  1  0
 21 22  1  0
 21 24  1  0
 22 26  2  0
 23 24  2  0
 24 25  1  0
  1 27  1  0
  1 28  1  0
  2 29  1  0
  2 30  1  0
  5 31  1  0
  5 32  1  0
  6 33  1  0
  6 34  1  0
  7 35  1  0
  7 36  1  0
  7 37  1  0
 13 38  1  0
 17 39  1  0
 18 40  1  0
 19 41  1  0
 19 42  1  0
 20 43  1  0
 20 44  1  0
 20 45  1  0
 25 46  1  0
A    1
C1
A    2
C2
A    3
N3
A    4
N4
A    5
C5
A    6
C6
A    7
C7
A    8
C8
A    9
C9
A   10
C10
A   11
F11
A   12
C12
A   13
C13
A   14
C14
A   15
O15
A   16
N16
A   17
C17
A   18
C18
A   19
C19
A   20
C20
A   21
C21
A   22
C22
A   23
O23
A   24
C24
A   25
O25
A   26
O26
M  END
