1EXJ_P4P_A_502
     RDKit          3D

 45 48  0  0  0  0  0  0  0  0999 V2000
   70.7350  137.4650   83.3830 P   0  0  0  0  0  0  0  0  0  0  0  0
   70.3410  139.0510   82.6700 C   0  0  0  0  0  0  0  0  0  0  0  0
   71.3130  140.0330   82.4570 C   0  0  0  0  0  0  0  0  0  0  0  0
   70.9600  141.2770   81.8950 C   0  0  0  0  0  0  0  0  0  0  0  0
   69.6190  141.5400   81.5500 C   0  0  0  0  0  0  0  0  0  0  0  0
   68.6420  140.5710   81.7630 C   0  0  0  0  0  0  0  0  0  0  0  0
   69.0030  139.3300   82.3260 C   0  0  0  0  0  0  0  0  0  0  0  0
   69.3110  136.4700   83.6110 C   0  0  0  0  0  0  0  0  0  0  0  0
   68.3590  136.4150   82.5920 C   0  0  0  0  0  0  0  0  0  0  0  0
   67.2190  135.6370   82.7330 C   0  0  0  0  0  0  0  0  0  0  0  0
   67.0230  134.8880   83.9030 C   0  0  0  0  0  0  0  0  0  0  0  0
   67.9650  134.9260   84.9240 C   0  0  0  0  0  0  0  0  0  0  0  0
   69.1070  135.7140   84.7760 C   0  0  0  0  0  0  0  0  0  0  0  0
   71.4370  137.7960   84.9150 C   0  0  0  0  0  0  0  0  0  0  0  0
   72.8290  137.7210   85.0280 C   0  0  0  0  0  0  0  0  0  0  0  0
   73.4500  137.9880   86.2510 C   0  0  0  0  0  0  0  0  0  0  0  0
   72.6750  138.3410   87.3570 C   0  0  0  0  0  0  0  0  0  0  0  0
   71.2790  138.4260   87.2450 C   0  0  0  0  0  0  0  0  0  0  0  0
   70.6720  138.1570   86.0350 C   0  0  0  0  0  0  0  0  0  0  0  0
   72.9210  137.0550   81.8330 C   0  0  0  0  0  0  0  0  0  0  0  0
   73.7870  136.2780   81.0600 C   0  0  0  0  0  0  0  0  0  0  0  0
   73.5350  134.9130   80.8870 C   0  0  0  0  0  0  0  0  0  0  0  0
   72.4270  134.3300   81.4760 C   0  0  0  0  0  0  0  0  0  0  0  0
   71.5670  135.1060   82.2320 C   0  0  0  0  0  0  0  0  0  0  0  0
   71.8050  136.4710   82.4210 C   0  0  0  0  0  0  0  0  0  0  0  0
   72.3599  139.8339   82.7296 H   0  0  0  0  0  0  0  0  0  0  0  0
   71.7315  142.0426   81.7257 H   0  0  0  0  0  0  0  0  0  0  0  0
   69.3441  142.5110   81.1123 H   0  0  0  0  0  0  0  0  0  0  0  0
   67.5947  140.7726   81.4936 H   0  0  0  0  0  0  0  0  0  0  0  0
   68.2288  138.5680   82.4994 H   0  0  0  0  0  0  0  0  0  0  0  0
   68.5138  136.9934   81.6692 H   0  0  0  0  0  0  0  0  0  0  0  0
   66.4696  135.6074   81.9283 H   0  0  0  0  0  0  0  0  0  0  0  0
   66.1206  134.2686   84.0126 H   0  0  0  0  0  0  0  0  0  0  0  0
   67.8115  134.3394   85.8418 H   0  0  0  0  0  0  0  0  0  0  0  0
   69.8558  135.7431   85.5813 H   0  0  0  0  0  0  0  0  0  0  0  0
   73.4367  137.4511   84.1517 H   0  0  0  0  0  0  0  0  0  0  0  0
   74.5442  137.9203   86.3417 H   0  0  0  0  0  0  0  0  0  0  0  0
   73.1609  138.5535   88.3207 H   0  0  0  0  0  0  0  0  0  0  0  0
   70.6709  138.7058   88.1179 H   0  0  0  0  0  0  0  0  0  0  0  0
   69.5777  138.2262   85.9475 H   0  0  0  0  0  0  0  0  0  0  0  0
   73.1218  138.1270   81.9761 H   0  0  0  0  0  0  0  0  0  0  0  0
   74.6667  136.7393   80.5875 H   0  0  0  0  0  0  0  0  0  0  0  0
   74.2196  134.3014   80.2810 H   0  0  0  0  0  0  0  0  0  0  0  0
   72.2312  133.2557   81.3438 H   0  0  0  0  0  0  0  0  0  0  0  0
   70.6819  134.6421   82.6918 H   0  0  0  0  0  0  0  0  0  0  0  0
  1  2  1  0
  1  8  1  0
  1 14  1  0
  1 25  1  0
  2  3  2  0
  2  7  1  0
  3  4  1  0
  4  5  2  0
  5  6  1  0
  6  7  2  0
  8  9  2  0
  8 13  1  0
  9 10  1  0
 10 11  2  0
 11 12  1  0
 12 13  2  0
 14 15  2  0
 14 19  1  0
 15 16  1  0
 16 17  2  0
 17 18  1  0
 18 19  2  0
 20 21  2  0
 20 25  1  0
 21 22  1  0
 22 23  2  0
 23 24  1  0
 24 25  2  0
  3 26  1  0
  4 27  1  0
  5 28  1  0
  6 29  1  0
  7 30  1  0
  9 31  1  0
 10 32  1  0
 11 33  1  0
 12 34  1  0
 13 35  1  0
 15 36  1  0
 16 37  1  0
 17 38  1  0
 18 39  1  0
 19 40  1  0
 20 41  1  0
 21 42  1  0
 22 43  1  0
 23 44  1  0
 24 45  1  0
M  CHG  1   1   1
A    1
P
A    2
C1A
A    3
C2A
A    4
C3A
A    5
C4A
A    6
C5A
A    7
C6A
A    8
C1C
A    9
C6C
A   10
C5C
A   11
C4C
A   12
C3C
A   13
C2C
A   14
C1D
A   15
C6D
A   16
C5D
A   17
C4D
A   18
C3D
A   19
C2D
A   20
C6B
A   21
C5B
A   22
C4B
A   23
C3B
A   24
C2B
A   25
C1B
M  END
