2BQ7_IID_A_1001
     RDKit          3D

 61 64  0  0  0  0  0  0  0  0999 V2000
    2.9280   10.1710   25.6810 C   0  0  0  0  0  0  0  0  0  0  0  0
    4.1290    9.3140   25.6060 C   0  0  0  0  0  0  0  0  0  0  0  0
    4.5190    8.6980   24.3160 C   0  0  0  0  0  0  0  0  0  0  0  0
    3.6890    8.9150   23.0960 C   0  0  0  0  0  0  0  0  0  0  0  0
    2.5090    9.7940   23.1820 C   0  0  0  0  0  0  0  0  0  0  0  0
    2.1280   10.4270   24.4640 C   0  0  0  0  0  0  0  0  0  0  0  0
    5.5630    7.8600   23.9420 N   0  0  0  0  0  0  0  0  0  0  0  0
    5.4000    7.5430   22.6360 C   0  0  0  0  0  0  0  0  0  0  0  0
    4.2690    8.1570   22.0620 C   0  0  0  0  0  0  0  0  0  0  0  0
    6.2190    6.6620   21.9460 C   0  0  0  0  0  0  0  0  0  0  0  0
    5.6200    5.8960   21.0150 N   0  0  0  0  0  0  0  0  0  0  0  0
    6.5290    4.8740   20.5510 C   0  0  0  0  0  0  0  0  0  0  0  0
    7.1480    5.2740   19.2120 C   0  0  0  0  0  0  0  0  0  0  0  0
    6.6300    7.3370   24.8480 C   0  0  0  0  0  0  0  0  0  0  0  0
    7.9910    8.0540   24.9150 C   0  0  0  0  0  0  0  0  0  0  0  0
    8.4230    9.1450   23.9950 C   0  0  0  0  0  0  0  0  0  0  0  0
    9.7460    9.7500   24.1690 C   0  0  0  0  0  0  0  0  0  0  0  0
   10.6360    9.2850   25.2370 C   0  0  0  0  0  0  0  0  0  0  0  0
   10.2270    8.2260   26.1600 C   0  0  0  0  0  0  0  0  0  0  0  0
    8.9040    7.6040   25.9830 C   0  0  0  0  0  0  0  0  0  0  0  0
    8.1740    4.2590   18.7010 C   0  0  0  0  0  0  0  0  0  0  0  0
   11.1410    7.9520   27.1750 O   0  0  0  0  0  0  0  0  0  0  0  0
    7.4220    6.5950   22.2000 O   0  0  0  0  0  0  0  0  0  0  0  0
   11.1000    6.7610   27.9850 C   0  0  0  0  0  0  0  0  0  0  0  0
    5.8550    3.5200   20.3430 C   0  0  0  0  0  0  0  0  0  0  0  0
    6.8320    2.4410   19.8490 C   0  0  0  0  0  0  0  0  0  0  0  0
    7.5590    2.9000   18.6120 N   0  0  0  0  0  0  0  0  0  0  0  0
    8.5080    1.8250   18.2030 C   0  0  0  0  0  0  0  0  0  0  0  0
    9.5270    2.2250   17.1470 C   0  0  0  0  0  0  0  0  0  0  0  0
    7.7150    0.6220   17.7310 C   0  0  0  0  0  0  0  0  0  0  0  0
    2.6293   10.6180   26.6407 H   0  0  0  0  0  0  0  0  0  0  0  0
    4.7333    9.1333   26.5072 H   0  0  0  0  0  0  0  0  0  0  0  0
    1.9044    9.9817   22.2824 H   0  0  0  0  0  0  0  0  0  0  0  0
    1.2499   11.0878   24.5117 H   0  0  0  0  0  0  0  0  0  0  0  0
    3.9145    8.0635   21.0249 H   0  0  0  0  0  0  0  0  0  0  0  0
    4.6534    6.0207   20.6818 H   0  0  0  0  0  0  0  0  0  0  0  0
    7.2894    4.7799   21.3402 H   0  0  0  0  0  0  0  0  0  0  0  0
    6.3437    5.3649   18.4671 H   0  0  0  0  0  0  0  0  0  0  0  0
    7.6755    6.2271   19.3647 H   0  0  0  0  0  0  0  0  0  0  0  0
    6.2152    7.3435   25.8668 H   0  0  0  0  0  0  0  0  0  0  0  0
    6.8773    6.3568   24.4144 H   0  0  0  0  0  0  0  0  0  0  0  0
    7.7547    9.4923   23.1933 H   0  0  0  0  0  0  0  0  0  0  0  0
   10.0727   10.5562   23.4957 H   0  0  0  0  0  0  0  0  0  0  0  0
   11.6309    9.7412   25.3466 H   0  0  0  0  0  0  0  0  0  0  0  0
    8.5920    6.7923   26.6567 H   0  0  0  0  0  0  0  0  0  0  0  0
    8.5223    4.5657   17.7037 H   0  0  0  0  0  0  0  0  0  0  0  0
    9.0214    4.2231   19.4015 H   0  0  0  0  0  0  0  0  0  0  0  0
   11.1096    7.0406   29.0488 H   0  0  0  0  0  0  0  0  0  0  0  0
   10.1819    6.1975   27.7623 H   0  0  0  0  0  0  0  0  0  0  0  0
   11.9772    6.1357   27.7623 H   0  0  0  0  0  0  0  0  0  0  0  0
    5.4222    3.1916   21.2995 H   0  0  0  0  0  0  0  0  0  0  0  0
    5.0829    3.6483   19.5701 H   0  0  0  0  0  0  0  0  0  0  0  0
    7.5660    2.2300   20.6407 H   0  0  0  0  0  0  0  0  0  0  0  0
    6.2597    1.5341   19.6042 H   0  0  0  0  0  0  0  0  0  0  0  0
    9.1060    1.5923   19.0964 H   0  0  0  0  0  0  0  0  0  0  0  0
   10.4429    2.5845   17.6388 H   0  0  0  0  0  0  0  0  0  0  0  0
    9.7657    1.3538   16.5192 H   0  0  0  0  0  0  0  0  0  0  0  0
    9.1094    3.0259   16.5192 H   0  0  0  0  0  0  0  0  0  0  0  0
    7.3455    0.0615   18.6024 H   0  0  0  0  0  0  0  0  0  0  0  0
    6.8622    0.9602   17.1241 H   0  0  0  0  0  0  0  0  0  0  0  0
    8.3619   -0.0285   17.1241 H   0  0  0  0  0  0  0  0  0  0  0  0
  1  2  2  0
  1  6  1  0
  2  3  1  0
  3  4  2  0
  3  7  1  0
  4  5  1  0
  4  9  1  0
  5  6  2  0
  7  8  1  0
  7 14  1  0
  8  9  2  0
  8 10  1  0
 10 11  1  0
 10 23  2  0
 11 12  1  0
 12 13  1  0
 12 25  1  0
 13 21  1  0
 14 15  1  0
 15 16  2  0
 15 20  1  0
 16 17  1  0
 17 18  2  0
 18 19  1  0
 19 20  2  0
 19 22  1  0
 21 27  1  0
 22 24  1  0
 25 26  1  0
 26 27  1  0
 27 28  1  0
 28 29  1  0
 28 30  1  0
  1 31  1  0
  2 32  1  0
  5 33  1  0
  6 34  1  0
  9 35  1  0
 11 36  1  0
 12 37  1  0
 13 38  1  0
 13 39  1  0
 14 40  1  0
 14 41  1  0
 16 42  1  0
 17 43  1  0
 18 44  1  0
 20 45  1  0
 21 46  1  0
 21 47  1  0
 24 48  1  0
 24 49  1  0
 24 50  1  0
 25 51  1  0
 25 52  1  0
 26 53  1  0
 26 54  1  0
 28 55  1  0
 29 56  1  0
 29 57  1  0
 29 58  1  0
 30 59  1  0
 30 60  1  0
 30 61  1  0
A    1
C1
A    2
C2
A    3
C3
A    4
C4
A    5
C5
A    6
C6
A    7
N7
A    8
C8
A    9
C9
A   10
C11
A   11
N12
A   12
C13
A   13
C14
A   14
C17
A   15
C18
A   16
C21
A   17
C22
A   18
C23
A   19
C24
A   20
C25
A   21
C26
A   22
O1
A   23
O45
A   24
C7
A   25
C10
A   26
C12
A   27
N1
A   28
C16
A   29
C19
A   30
C20
M  END
