1A47_GLC_A_687
     RDKit          3D

 23 23  0  0  0  0  0  0  0  0999 V2000
   75.8930   31.5040   18.0080 C   0  0  0  0  0  0  0  0  0  0  0  0
   74.4510   31.0430   18.0660 C   0  0  0  0  0  0  0  0  0  0  0  0
   73.7150   31.4360   19.3300 C   0  0  0  0  0  0  0  0  0  0  0  0
   74.5640   31.4600   20.5910 C   0  0  0  0  0  0  0  0  0  0  0  0
   75.9330   32.0510   20.3260 C   0  0  0  0  0  0  0  0  0  0  0  0
   76.8260   31.9240   21.5240 C   0  0  0  0  0  0  0  0  0  0  0  0
   75.8940   32.8580   17.6150 O   0  0  0  0  0  0  0  0  0  0  0  0
   73.7700   31.5810   16.9410 O   0  0  0  0  0  0  0  0  0  0  0  0
   72.6500   30.5130   19.5700 O   0  0  0  0  0  0  0  0  0  0  0  0
   76.5560   31.3470   19.2530 O   0  0  0  0  0  0  0  0  0  0  0  0
   77.5290   33.1450   21.7710 O   0  0  0  0  0  0  0  0  0  0  0  0
   76.4429   30.8842   17.2845 H   0  0  0  0  0  0  0  0  0  0  0  0
   74.4667   29.9431   18.0607 H   0  0  0  0  0  0  0  0  0  0  0  0
   73.3692   32.4632   19.1421 H   0  0  0  0  0  0  0  0  0  0  0  0
   74.0542   32.0667   21.3539 H   0  0  0  0  0  0  0  0  0  0  0  0
   74.6959   30.4247   20.9385 H   0  0  0  0  0  0  0  0  0  0  0  0
   75.7921   33.1144   20.0825 H   0  0  0  0  0  0  0  0  0  0  0  0
   76.2142   31.6768   22.4041 H   0  0  0  0  0  0  0  0  0  0  0  0
   77.5614   31.1292   21.3303 H   0  0  0  0  0  0  0  0  0  0  0  0
   75.8944   33.4351   18.4194 H   0  0  0  0  0  0  0  0  0  0  0  0
   73.0319   32.1641   17.2498 H   0  0  0  0  0  0  0  0  0  0  0  0
   72.5226   30.4026   20.5455 H   0  0  0  0  0  0  0  0  0  0  0  0
   77.6108   33.2870   22.7473 H   0  0  0  0  0  0  0  0  0  0  0  0
  1  2  1  0
  1  7  1  0
  1 10  1  0
  2  3  1  0
  2  8  1  0
  3  4  1  0
  3  9  1  0
  4  5  1  0
  5  6  1  0
  5 10  1  0
  6 11  1  0
  1 12  1  0
  2 13  1  0
  3 14  1  0
  4 15  1  0
  4 16  1  0
  5 17  1  0
  6 18  1  0
  6 19  1  0
  7 20  1  0
  8 21  1  0
  9 22  1  0
 11 23  1  0
A    1
C1
A    2
C2
A    3
C3
A    4
C4
A    5
C5
A    6
C6
A    7
O1
A    8
O2
A    9
O3
A   10
O5
A   11
O6
M  END
