2BR1_PFP_A_1277
     RDKit          3D

 50 53  0  0  0  0  0  0  0  0999 V2000
   18.9620   -8.0070   12.9180 C   0  0  0  0  0  0  0  0  0  0  0  0
   17.6310   -7.6670   12.5680 O   0  0  0  0  0  0  0  0  0  0  0  0
   17.6080   -6.4090   11.9280 C   0  0  0  0  0  0  0  0  0  0  0  0
   18.3940   -5.3380   12.4250 C   0  0  0  0  0  0  0  0  0  0  0  0
   18.3210   -4.0440   11.7950 C   0  0  0  0  0  0  0  0  0  0  0  0
   16.7450   -6.1960   10.8440 C   0  0  0  0  0  0  0  0  0  0  0  0
   16.6770   -4.9250   10.2200 C   0  0  0  0  0  0  0  0  0  0  0  0
   17.4810   -3.8550   10.6780 C   0  0  0  0  0  0  0  0  0  0  0  0
   17.3310   -2.4950   10.0540 C   0  0  0  0  0  0  0  0  0  0  0  0
   16.1970   -1.8060    9.9290 C   0  0  0  0  0  0  0  0  0  0  0  0
   14.9220   -1.9560   10.4670 C   0  0  0  0  0  0  0  0  0  0  0  0
   14.6190   -3.0080   11.2120 N   0  0  0  0  0  0  0  0  0  0  0  0
   13.2030   -3.2550   11.6010 C   0  0  0  0  0  0  0  0  0  0  0  0
   12.5240   -2.3810   12.7310 C   0  0  0  0  0  0  0  0  0  0  0  0
   12.1040   -0.9840   12.4450 O   0  0  0  0  0  0  0  0  0  0  0  0
   13.9850   -1.0330   10.2090 N   0  0  0  0  0  0  0  0  0  0  0  0
   14.2790    0.0380    9.4700 C   0  0  0  0  0  0  0  0  0  0  0  0
   15.5230    0.2070    8.9640 N   0  0  0  0  0  0  0  0  0  0  0  0
   16.4790   -0.7010    9.1890 C   0  0  0  0  0  0  0  0  0  0  0  0
   17.7140   -0.7390    8.8380 O   0  0  0  0  0  0  0  0  0  0  0  0
   18.2670   -1.8180    9.2740 C   0  0  0  0  0  0  0  0  0  0  0  0
   19.5820   -2.1570    9.0700 C   0  0  0  0  0  0  0  0  0  0  0  0
   20.4510   -1.2110    8.5100 C   0  0  0  0  0  0  0  0  0  0  0  0
   21.7700   -1.5370    8.2650 C   0  0  0  0  0  0  0  0  0  0  0  0
   22.2320   -2.8040    8.5440 C   0  0  0  0  0  0  0  0  0  0  0  0
   23.5290   -3.1180    8.3000 O   0  0  0  0  0  0  0  0  0  0  0  0
   24.5290   -2.0490    8.1770 C   0  0  0  0  0  0  0  0  0  0  0  0
   21.3610   -3.7670    9.0800 C   0  0  0  0  0  0  0  0  0  0  0  0
   20.0290   -3.4400    9.3210 C   0  0  0  0  0  0  0  0  0  0  0  0
   19.0582   -8.0316   14.0135 H   0  0  0  0  0  0  0  0  0  0  0  0
   19.2080   -8.9968   12.5060 H   0  0  0  0  0  0  0  0  0  0  0  0
   19.6526   -7.2564   12.5060 H   0  0  0  0  0  0  0  0  0  0  0  0
   19.0571   -5.4947   13.2885 H   0  0  0  0  0  0  0  0  0  0  0  0
   18.9185   -3.2064   12.1841 H   0  0  0  0  0  0  0  0  0  0  0  0
   16.1167   -7.0202   10.4754 H   0  0  0  0  0  0  0  0  0  0  0  0
   15.9933   -4.7694    9.3725 H   0  0  0  0  0  0  0  0  0  0  0  0
   15.3600   -3.6531   11.5213 H   0  0  0  0  0  0  0  0  0  0  0  0
   12.5975   -3.1232   10.6922 H   0  0  0  0  0  0  0  0  0  0  0  0
   13.2376   -4.2595   12.0480 H   0  0  0  0  0  0  0  0  0  0  0  0
   11.6223   -2.9233   13.0517 H   0  0  0  0  0  0  0  0  0  0  0  0
   13.3304   -2.2542   13.4683 H   0  0  0  0  0  0  0  0  0  0  0  0
   11.9591   -0.5019   13.2975 H   0  0  0  0  0  0  0  0  0  0  0  0
   13.5028    0.7913    9.2699 H   0  0  0  0  0  0  0  0  0  0  0  0
   20.0808   -0.2047    8.2646 H   0  0  0  0  0  0  0  0  0  0  0  0
   22.4531   -0.7834    7.8462 H   0  0  0  0  0  0  0  0  0  0  0  0
   24.8379   -1.7188    9.1797 H   0  0  0  0  0  0  0  0  0  0  0  0
   25.4048   -2.4274    7.6296 H   0  0  0  0  0  0  0  0  0  0  0  0
   24.0930   -1.2003    7.6296 H   0  0  0  0  0  0  0  0  0  0  0  0
   21.7304   -4.7775    9.3089 H   0  0  0  0  0  0  0  0  0  0  0  0
   19.3354   -4.2002    9.7097 H   0  0  0  0  0  0  0  0  0  0  0  0
  1  2  1  0
  2  3  1  0
  3  4  2  0
  3  6  1  0
  4  5  1  0
  5  8  2  0
  6  7  2  0
  7  8  1  0
  8  9  1  0
  9 10  1  0
  9 21  2  0
 10 11  2  0
 10 19  1  0
 11 12  1  0
 11 16  1  0
 12 13  1  0
 13 14  1  0
 14 15  1  0
 16 17  2  0
 17 18  1  0
 18 19  2  0
 19 20  1  0
 20 21  1  0
 21 22  1  0
 22 23  2  0
 22 29  1  0
 23 24  1  0
 24 25  2  0
 25 26  1  0
 25 28  1  0
 26 27  1  0
 28 29  2  0
  1 30  1  0
  1 31  1  0
  1 32  1  0
  4 33  1  0
  5 34  1  0
  6 35  1  0
  7 36  1  0
 12 37  1  0
 13 38  1  0
 13 39  1  0
 14 40  1  0
 14 41  1  0
 15 42  1  0
 17 43  1  0
 23 44  1  0
 24 45  1  0
 27 46  1  0
 27 47  1  0
 27 48  1  0
 28 49  1  0
 29 50  1  0
A    1
CAB
A    2
OAS
A    3
CAV
A    4
CAG
A    5
CAK
A    6
CAF
A    7
CAJ
A    8
CAX
A    9
CBA
A   10
CBC
A   11
CAY
A   12
NAQ
A   13
CAN
A   14
CAM
A   15
OAC
A   16
NAO
A   17
CAL
A   18
NAP
A   19
CBB
A   20
OAT
A   21
CAZ
A   22
CAW
A   23
CAH
A   24
CAD
A   25
CAU
A   26
OAR
A   27
CAA
A   28
CAE
A   29
CAI
M  END
