1H0M_HSL_A_1235
     RDKit          3D

 14 14  0  0  0  0  0  0  0  0999 V2000
   59.0730   29.5540  131.9630 N   0  0  0  0  0  0  0  0  0  0  0  0
   58.1140   30.0210  132.9280 C   0  0  0  0  0  0  0  0  0  0  0  0
   58.7510   31.0400  133.8350 C   0  0  0  0  0  0  0  0  0  0  0  0
   59.7210   31.7740  133.6120 O   0  0  0  0  0  0  0  0  0  0  0  0
   57.6890   28.8820  133.8400 C   0  0  0  0  0  0  0  0  0  0  0  0
   57.3270   29.5500  135.1480 C   0  0  0  0  0  0  0  0  0  0  0  0
   57.9150   30.9660  135.0990 O   0  0  0  0  0  0  0  0  0  0  0  0
   59.8876   29.1573  132.4528 H   0  0  0  0  0  0  0  0  0  0  0  0
   58.6408   28.8290  131.3726 H   0  0  0  0  0  0  0  0  0  0  0  0
   57.2631   30.4383  132.3696 H   0  0  0  0  0  0  0  0  0  0  0  0
   56.8199   28.3536  133.4210 H   0  0  0  0  0  0  0  0  0  0  0  0
   58.4823   28.1300  133.9630 H   0  0  0  0  0  0  0  0  0  0  0  0
   56.2337   29.5974  135.2593 H   0  0  0  0  0  0  0  0  0  0  0  0
   57.7264   28.9857  136.0036 H   0  0  0  0  0  0  0  0  0  0  0  0
  1  2  1  0
  2  3  1  0
  2  5  1  0
  3  4  2  0
  3  7  1  0
  5  6  1  0
  6  7  1  0
  1  8  1  0
  1  9  1  0
  2 10  1  0
  5 11  1  0
  5 12  1  0
  6 13  1  0
  6 14  1  0
A    1
N
A    2
CA
A    3
C
A    4
O
A    5
CB
A    6
CG
A    7
OD
M  END
