2BRE_KJ2_A_1214
     RDKit          3D

 43 45  0  0  0  0  0  0  0  0999 V2000
   15.6670   19.6610   15.9090 C   0  0  0  0  0  0  0  0  0  0  0  0
   15.3640   20.7490   16.7130 C   0  0  0  0  0  0  0  0  0  0  0  0
   16.9470   19.1440   15.9590 C   0  0  0  0  0  0  0  0  0  0  0  0
   17.9200   19.7050   16.7850 C   0  0  0  0  0  0  0  0  0  0  0  0
   17.6330   20.8130   17.5930 C   0  0  0  0  0  0  0  0  0  0  0  0
   16.3360   21.2890   17.5140 C   0  0  0  0  0  0  0  0  0  0  0  0
   19.1620   19.1230   16.7710 O   0  0  0  0  0  0  0  0  0  0  0  0
   14.7660   19.0750   15.0800 O   0  0  0  0  0  0  0  0  0  0  0  0
   13.8010   21.4660   16.7460 Cl  0  0  0  0  0  0  0  0  0  0  0  0
   18.6510   21.3960   18.4150 C   0  0  0  0  0  0  0  0  0  0  0  0
   19.1590   22.7050   18.4860 C   0  0  0  0  0  0  0  0  0  0  0  0
   20.2260   21.4710   19.9450 N   0  0  0  0  0  0  0  0  0  0  0  0
   20.1280   22.7100   19.4420 C   0  0  0  0  0  0  0  0  0  0  0  0
   19.3380   20.6540   19.3360 N   0  0  0  0  0  0  0  0  0  0  0  0
   18.6690   23.7430   17.6570 C   0  0  0  0  0  0  0  0  0  0  0  0
   18.8550   23.8610   16.2810 C   0  0  0  0  0  0  0  0  0  0  0  0
   18.3340   24.9060   15.5370 C   0  0  0  0  0  0  0  0  0  0  0  0
   17.3870   25.8230   17.5000 C   0  0  0  0  0  0  0  0  0  0  0  0
   17.9110   24.7700   18.2440 C   0  0  0  0  0  0  0  0  0  0  0  0
   17.5910   25.9030   16.1440 C   0  0  0  0  0  0  0  0  0  0  0  0
   17.0990   26.9040   15.4380 O   0  0  0  0  0  0  0  0  0  0  0  0
   16.0300   26.6730   14.6490 C   0  0  0  0  0  0  0  0  0  0  0  0
   14.9170   27.7320   14.8380 C   0  0  0  0  0  0  0  0  0  0  0  0
   14.9740   28.8640   13.7810 C   0  0  0  0  0  0  0  0  0  0  0  0
   14.4370   30.1000   14.2750 N   0  0  0  0  0  0  0  0  0  0  0  0
   17.2031   18.2743   15.3361 H   0  0  0  0  0  0  0  0  0  0  0  0
   16.0679   22.1570   18.1343 H   0  0  0  0  0  0  0  0  0  0  0  0
   19.6181   18.9093   17.6233 H   0  0  0  0  0  0  0  0  0  0  0  0
   13.9985   18.5758   15.4566 H   0  0  0  0  0  0  0  0  0  0  0  0
   20.7270   23.5801   19.7488 H   0  0  0  0  0  0  0  0  0  0  0  0
   19.2028   19.6516   19.5307 H   0  0  0  0  0  0  0  0  0  0  0  0
   19.4424   23.0889   15.7624 H   0  0  0  0  0  0  0  0  0  0  0  0
   18.5126   24.9440   14.4523 H   0  0  0  0  0  0  0  0  0  0  0  0
   16.8001   26.6037   18.0060 H   0  0  0  0  0  0  0  0  0  0  0  0
   17.7255   24.7408   19.3279 H   0  0  0  0  0  0  0  0  0  0  0  0
   16.3565   26.6873   13.5987 H   0  0  0  0  0  0  0  0  0  0  0  0
   15.6125   25.6943   14.9281 H   0  0  0  0  0  0  0  0  0  0  0  0
   13.9403   27.2315   14.7635 H   0  0  0  0  0  0  0  0  0  0  0  0
   15.0665   28.1947   15.8247 H   0  0  0  0  0  0  0  0  0  0  0  0
   16.0230   29.0249   13.4917 H   0  0  0  0  0  0  0  0  0  0  0  0
   14.3627   28.5520   12.9214 H   0  0  0  0  0  0  0  0  0  0  0  0
   14.4417   30.0891   15.3049 H   0  0  0  0  0  0  0  0  0  0  0  0
   15.0133   30.8841   13.9373 H   0  0  0  0  0  0  0  0  0  0  0  0
  1  2  2  0
  1  3  1  0
  1  8  1  0
  2  6  1  0
  2  9  1  0
  3  4  2  0
  4  5  1  0
  4  7  1  0
  5  6  2  0
  5 10  1  0
 10 11  2  0
 10 14  1  0
 11 13  1  0
 11 15  1  0
 12 13  2  0
 12 14  1  0
 15 16  2  0
 15 19  1  0
 16 17  1  0
 17 20  2  0
 18 19  2  0
 18 20  1  0
 20 21  1  0
 21 22  1  0
 22 23  1  0
 23 24  1  0
 24 25  1  0
  3 26  1  0
  6 27  1  0
  7 28  1  0
  8 29  1  0
 13 30  1  0
 14 31  1  0
 16 32  1  0
 17 33  1  0
 18 34  1  0
 19 35  1  0
 22 36  1  0
 22 37  1  0
 23 38  1  0
 23 39  1  0
 24 40  1  0
 24 41  1  0
 25 42  1  0
 25 43  1  0
A    1
C1
A    2
C2
A    3
C3
A    4
C4
A    5
C5
A    6
C6
A    7
O7
A    8
O8
A    9
CL9
A   10
C10
A   11
C11
A   12
N12
A   13
C13
A   14
N14
A   15
C15
A   16
C16
A   17
C17
A   18
C18
A   19
C19
A   20
C20
A   21
O21
A   22
C22
A   23
C23
A   24
C24
A   25
N25
M  END
