2BRO_DF2_A_1277
     RDKit          3D

 47 50  0  0  0  0  0  0  0  0999 V2000
    6.0080   -2.2440   19.4940 C   0  0  0  0  0  0  0  0  0  0  0  0
    2.0170   -4.2580   19.5640 C   0  0  0  0  0  0  0  0  0  0  0  0
    0.6750   -4.5770   19.7620 C   0  0  0  0  0  0  0  0  0  0  0  0
    0.0310   -5.6330   19.1180 C   0  0  0  0  0  0  0  0  0  0  0  0
   -1.3250   -5.9030   19.3630 C   0  0  0  0  0  0  0  0  0  0  0  0
   -2.0480   -5.0900   20.2500 C   0  0  0  0  0  0  0  0  0  0  0  0
   -1.4140   -4.0250   20.8720 C   0  0  0  0  0  0  0  0  0  0  0  0
   -0.0610   -3.7700   20.6310 C   0  0  0  0  0  0  0  0  0  0  0  0
    2.4130   -6.5850   17.1240 C   0  0  0  0  0  0  0  0  0  0  0  0
    2.3890   -7.9450   16.7750 C   0  0  0  0  0  0  0  0  0  0  0  0
    2.8260   -8.9490   17.6610 C   0  0  0  0  0  0  0  0  0  0  0  0
    3.3390   -8.7590   18.9190 C   0  0  0  0  0  0  0  0  0  0  0  0
    4.7640   -2.1100   19.9200 N   0  0  0  0  0  0  0  0  0  0  0  0
    8.6480   -5.4600   15.6850 C   0  0  0  0  0  0  0  0  0  0  0  0
    3.8480   -3.0580   19.6860 C   0  0  0  0  0  0  0  0  0  0  0  0
    4.1910   -4.2270   19.0050 C   0  0  0  0  0  0  0  0  0  0  0  0
    7.8400   -6.5480   15.2260 O   0  0  0  0  0  0  0  0  0  0  0  0
    6.0290   -5.3850   17.9910 N   0  0  0  0  0  0  0  0  0  0  0  0
    5.5280   -4.3360   18.6050 C   0  0  0  0  0  0  0  0  0  0  0  0
    6.4000   -3.3520   18.8690 N   0  0  0  0  0  0  0  0  0  0  0  0
    2.5400   -3.1060   19.9750 N   0  0  0  0  0  0  0  0  0  0  0  0
    3.3500   -7.3800   19.1670 C   0  0  0  0  0  0  0  0  0  0  0  0
    3.0190   -4.9960   18.9380 C   0  0  0  0  0  0  0  0  0  0  0  0
    2.9050   -6.3050   18.3830 C   0  0  0  0  0  0  0  0  0  0  0  0
    7.7500   -4.5820   16.5380 C   0  0  0  0  0  0  0  0  0  0  0  0
    7.4670   -5.4010   17.8080 C   0  0  0  0  0  0  0  0  0  0  0  0
    8.3350   -3.2640   16.8360 O   0  0  0  0  0  0  0  0  0  0  0  0
    6.7287   -1.4294   19.6581 H   0  0  0  0  0  0  0  0  0  0  0  0
    0.5915   -6.2614   18.4102 H   0  0  0  0  0  0  0  0  0  0  0  0
   -1.8189   -6.7485   18.8617 H   0  0  0  0  0  0  0  0  0  0  0  0
   -3.1098   -5.2962   20.4502 H   0  0  0  0  0  0  0  0  0  0  0  0
   -1.9789   -3.3774   21.5587 H   0  0  0  0  0  0  0  0  0  0  0  0
    0.4298   -2.9228   21.1324 H   0  0  0  0  0  0  0  0  0  0  0  0
    2.0637   -5.7968   16.4409 H   0  0  0  0  0  0  0  0  0  0  0  0
    2.0181   -8.2347   15.7807 H   0  0  0  0  0  0  0  0  0  0  0  0
    2.7482   -9.9884   17.3093 H   0  0  0  0  0  0  0  0  0  0  0  0
    3.6797   -9.5461   19.6078 H   0  0  0  0  0  0  0  0  0  0  0  0
    9.4890   -5.8385   16.2846 H   0  0  0  0  0  0  0  0  0  0  0  0
    9.0688   -4.8947   14.8404 H   0  0  0  0  0  0  0  0  0  0  0  0
    7.4751   -7.0393   16.0042 H   0  0  0  0  0  0  0  0  0  0  0  0
    5.4314   -6.1548   17.6576 H   0  0  0  0  0  0  0  0  0  0  0  0
    2.0144   -2.3571   20.4482 H   0  0  0  0  0  0  0  0  0  0  0  0
    3.7790   -7.0923   20.1382 H   0  0  0  0  0  0  0  0  0  0  0  0
    6.8230   -4.3333   16.0005 H   0  0  0  0  0  0  0  0  0  0  0  0
    7.9663   -4.9439   18.6750 H   0  0  0  0  0  0  0  0  0  0  0  0
    7.8464   -6.4292   17.7133 H   0  0  0  0  0  0  0  0  0  0  0  0
    8.3895   -3.1413   17.8169 H   0  0  0  0  0  0  0  0  0  0  0  0
  1 13  2  0
  1 20  1  0
  2  3  1  0
  2 21  1  0
  2 23  2  0
  3  4  2  0
  3  8  1  0
  4  5  1  0
  5  6  2  0
  6  7  1  0
  7  8  2  0
  9 10  2  0
  9 24  1  0
 10 11  1  0
 11 12  2  0
 12 22  1  0
 13 15  1  0
 14 17  1  0
 14 25  1  0
 15 16  2  0
 15 21  1  0
 16 19  1  0
 16 23  1  0
 18 19  1  0
 18 26  1  0
 19 20  2  0
 22 24  2  0
 23 24  1  0
 25 26  1  0
 25 27  1  0
  1 28  1  0
  4 29  1  0
  5 30  1  0
  6 31  1  0
  7 32  1  0
  8 33  1  0
  9 34  1  0
 10 35  1  0
 11 36  1  0
 12 37  1  0
 14 38  1  0
 14 39  1  0
 17 40  1  0
 18 41  1  0
 21 42  1  0
 22 43  1  0
 25 44  1  0
 26 45  1  0
 26 46  1  0
 27 47  1  0
A    1
C2
A    2
C10
A    3
C11
A    4
C12
A    5
C13
A    6
C14
A    7
C15
A    8
C16
A    9
C19
A   10
C20
A   11
C21
A   12
C22
A   13
N1
A   14
C26
A   15
C6
A   16
C5
A   17
O27
A   18
N9
A   19
C4
A   20
N3
A   21
N90
A   22
C17
A   23
C1
A   24
C18
A   25
C23
A   26
C8
A   27
O24
M  END
