2BRP_SIE_A_1000
     RDKit          3D

 68 70  0  0  0  0  0  0  0  0999 V2000
   15.3520  -10.8030   33.6460 C   0  0  0  0  0  0  0  0  0  0  0  0
   16.1400  -11.9350   33.9780 C   0  0  0  0  0  0  0  0  0  0  0  0
   17.5700  -11.8280   34.2050 C   0  0  0  0  0  0  0  0  0  0  0  0
   18.2840  -10.5340   34.1050 C   0  0  0  0  0  0  0  0  0  0  0  0
   17.4220   -9.3020   33.7610 C   0  0  0  0  0  0  0  0  0  0  0  0
   15.9920   -9.4870   33.5400 C   0  0  0  0  0  0  0  0  0  0  0  0
   19.9090  -10.3910   34.3480 O   0  0  0  0  0  0  0  0  0  0  0  0
   20.4990   -9.1530   34.6280 S   0  0  0  0  0  0  0  0  0  0  0  0
   20.1980   -8.0870   33.6950 O   0  0  0  0  0  0  0  0  0  0  0  0
   20.0830   -8.8480   35.9290 O   0  0  0  0  0  0  0  0  0  0  0  0
   22.0030   -9.3470   34.6820 N   0  0  0  0  0  0  0  0  0  0  0  0
   12.8380  -11.9980   33.3800 N   0  0  0  0  0  0  0  0  0  0  0  0
   13.6640  -10.8730   33.3090 C   0  0  0  0  0  0  0  0  0  0  0  0
   12.9960   -9.7400   32.9910 C   0  0  0  0  0  0  0  0  0  0  0  0
   10.5000   -9.3730   32.5400 C   0  0  0  0  0  0  0  0  0  0  0  0
    9.2780  -10.0140   32.4820 C   0  0  0  0  0  0  0  0  0  0  0  0
    9.1470  -11.4080   32.7110 C   0  0  0  0  0  0  0  0  0  0  0  0
   10.2700  -12.2240   33.0260 C   0  0  0  0  0  0  0  0  0  0  0  0
   11.5380  -11.5570   33.0880 C   0  0  0  0  0  0  0  0  0  0  0  0
   11.6320  -10.1310   32.8570 C   0  0  0  0  0  0  0  0  0  0  0  0
   13.2000  -13.4090   33.7750 C   0  0  0  0  0  0  0  0  0  0  0  0
   14.1980  -14.0560   32.8290 C   0  0  0  0  0  0  0  0  0  0  0  0
   14.7750  -15.2990   33.4680 C   0  0  0  0  0  0  0  0  0  0  0  0
   16.2970  -15.2640   33.5420 C   0  0  0  0  0  0  0  0  0  0  0  0
   16.8780  -16.6450   33.8900 C   0  0  0  0  0  0  0  0  0  0  0  0
   16.2210  -17.2910   35.1260 C   0  0  0  0  0  0  0  0  0  0  0  0
   16.3460  -18.8180   35.0780 C   0  0  0  0  0  0  0  0  0  0  0  0
   15.9740  -19.3490   33.6900 C   0  0  0  0  0  0  0  0  0  0  0  0
   14.6860  -20.1440   33.7150 C   0  0  0  0  0  0  0  0  0  0  0  0
   13.9970  -20.1370   32.3600 C   0  0  0  0  0  0  0  0  0  0  0  0
    7.2000  -11.7610   34.8300 O   0  0  0  0  0  0  0  0  0  0  0  0
    6.6210  -12.0350   33.5920 S   0  0  0  0  0  0  0  0  0  0  0  0
    5.6300  -11.1150   33.0920 O   0  0  0  0  0  0  0  0  0  0  0  0
    7.6720  -12.1250   32.6160 O   0  0  0  0  0  0  0  0  0  0  0  0
    6.0080  -13.3990   33.6810 N   0  0  0  0  0  0  0  0  0  0  0  0
   15.6553  -12.9186   34.0656 H   0  0  0  0  0  0  0  0  0  0  0  0
   18.1398  -12.7341   34.4586 H   0  0  0  0  0  0  0  0  0  0  0  0
   17.8767   -8.3034   33.6838 H   0  0  0  0  0  0  0  0  0  0  0  0
   15.3744   -8.6129   33.2860 H   0  0  0  0  0  0  0  0  0  0  0  0
   22.3090   -9.3865   35.6647 H   0  0  0  0  0  0  0  0  0  0  0  0
   22.2528  -10.2272   34.2090 H   0  0  0  0  0  0  0  0  0  0  0  0
   13.4163   -8.7316   32.8631 H   0  0  0  0  0  0  0  0  0  0  0  0
   10.5810   -8.2940   32.3420 H   0  0  0  0  0  0  0  0  0  0  0  0
    8.3780   -9.4252   32.2510 H   0  0  0  0  0  0  0  0  0  0  0  0
   10.1709  -13.3038   33.2112 H   0  0  0  0  0  0  0  0  0  0  0  0
   13.6369  -13.3887   34.7843 H   0  0  0  0  0  0  0  0  0  0  0  0
   12.2774  -14.0069   33.7372 H   0  0  0  0  0  0  0  0  0  0  0  0
   13.6899  -14.3288   31.8923 H   0  0  0  0  0  0  0  0  0  0  0  0
   15.0104  -13.3458   32.6156 H   0  0  0  0  0  0  0  0  0  0  0  0
   14.3741  -15.3898   34.4883 H   0  0  0  0  0  0  0  0  0  0  0  0
   14.4902  -16.1588   32.8438 H   0  0  0  0  0  0  0  0  0  0  0  0
   16.6947  -14.9445   32.5674 H   0  0  0  0  0  0  0  0  0  0  0  0
   16.5872  -14.5586   34.3346 H   0  0  0  0  0  0  0  0  0  0  0  0
   16.7312  -17.3125   33.0281 H   0  0  0  0  0  0  0  0  0  0  0  0
   17.9424  -16.4997   34.1263 H   0  0  0  0  0  0  0  0  0  0  0  0
   16.7173  -16.9176   36.0339 H   0  0  0  0  0  0  0  0  0  0  0  0
   15.1533  -17.0264   35.1346 H   0  0  0  0  0  0  0  0  0  0  0  0
   17.3835  -19.1026   35.3072 H   0  0  0  0  0  0  0  0  0  0  0  0
   15.6583  -19.2523   35.8185 H   0  0  0  0  0  0  0  0  0  0  0  0
   15.8527  -18.4974   33.0044 H   0  0  0  0  0  0  0  0  0  0  0  0
   16.7802  -20.0176   33.3540 H   0  0  0  0  0  0  0  0  0  0  0  0
   14.9135  -21.1833   33.9943 H   0  0  0  0  0  0  0  0  0  0  0  0
   14.0093  -19.6793   34.4472 H   0  0  0  0  0  0  0  0  0  0  0  0
   12.9064  -20.1259   32.5033 H   0  0  0  0  0  0  0  0  0  0  0  0
   14.3021  -19.2419   31.7981 H   0  0  0  0  0  0  0  0  0  0  0  0
   14.2839  -21.0381   31.7981 H   0  0  0  0  0  0  0  0  0  0  0  0
    5.8912  -13.6590   34.6708 H   0  0  0  0  0  0  0  0  0  0  0  0
    5.0886  -13.3932   33.2167 H   0  0  0  0  0  0  0  0  0  0  0  0
  1  2  2  0
  1  6  1  0
  1 13  1  0
  2  3  1  0
  3  4  2  0
  4  5  1  0
  4  7  1  0
  5  6  2  0
  7  8  1  0
  8  9  2  0
  8 10  2  0
  8 11  1  0
 12 13  1  0
 12 19  1  0
 12 21  1  0
 13 14  2  0
 14 20  1  0
 15 16  1  0
 15 20  2  0
 16 17  2  0
 17 18  1  0
 17 34  1  0
 18 19  2  0
 19 20  1  0
 21 22  1  0
 22 23  1  0
 23 24  1  0
 24 25  1  0
 25 26  1  0
 26 27  1  0
 27 28  1  0
 28 29  1  0
 29 30  1  0
 31 32  2  0
 32 33  2  0
 32 34  1  0
 32 35  1  0
  2 36  1  0
  3 37  1  0
  5 38  1  0
  6 39  1  0
 11 40  1  0
 11 41  1  0
 14 42  1  0
 15 43  1  0
 16 44  1  0
 18 45  1  0
 21 46  1  0
 21 47  1  0
 22 48  1  0
 22 49  1  0
 23 50  1  0
 23 51  1  0
 24 52  1  0
 24 53  1  0
 25 54  1  0
 25 55  1  0
 26 56  1  0
 26 57  1  0
 27 58  1  0
 27 59  1  0
 28 60  1  0
 28 61  1  0
 29 62  1  0
 29 63  1  0
 30 64  1  0
 30 65  1  0
 30 66  1  0
 35 67  1  0
 35 68  1  0
A    1
CS1
A    2
CS2
A    3
CS3
A    4
CS4
A    5
CS5
A    6
CS6
A    7
OS7
A    8
SS7
A    9
OS8
A   10
OS9
A   11
NS0
A   12
NI1
A   13
CI2
A   14
CI3
A   15
CI4
A   16
CI5
A   17
CI6
A   18
CI7
A   19
CI8
A   20
CI9
A   21
CP1
A   22
CP2
A   23
CP3
A   24
CP4
A   25
CP5
A   26
CP6
A   27
CP7
A   28
CP8
A   29
CP9
A   30
CP0
A   31
O27
A   32
S27
A   33
O28
A   34
O29
A   35
N20
M  END
