2BSM_BSM_A_1224
     RDKit          3D

 45 47  0  0  0  0  0  0  0  0999 V2000
   35.0300    5.5210   21.5590 C   0  0  0  0  0  0  0  0  0  0  0  0
   35.4700    6.0780   22.7990 O   0  0  0  0  0  0  0  0  0  0  0  0
   34.4740    6.6820   23.5620 C   0  0  0  0  0  0  0  0  0  0  0  0
   33.1400    6.8550   23.1240 C   0  0  0  0  0  0  0  0  0  0  0  0
   32.1930    7.4710   23.9890 C   0  0  0  0  0  0  0  0  0  0  0  0
   34.8200    7.1250   24.8320 C   0  0  0  0  0  0  0  0  0  0  0  0
   33.8950    7.7530   25.6730 C   0  0  0  0  0  0  0  0  0  0  0  0
   32.5790    7.9360   25.2640 C   0  0  0  0  0  0  0  0  0  0  0  0
   31.6570    8.5710   26.1310 C   0  0  0  0  0  0  0  0  0  0  0  0
   31.3230    8.1960   27.4090 C   0  0  0  0  0  0  0  0  0  0  0  0
   31.8440    7.0080   28.2280 C   0  0  0  0  0  0  0  0  0  0  0  0
   32.3840    6.0480   27.7010 O   0  0  0  0  0  0  0  0  0  0  0  0
   31.6730    7.1410   29.5480 N   0  0  0  0  0  0  0  0  0  0  0  0
   32.0460    6.1200   30.5660 C   0  0  0  0  0  0  0  0  0  0  0  0
   33.4590    5.5720   30.3570 C   0  0  0  0  0  0  0  0  0  0  0  0
   30.4190    9.0730   27.8520 N   0  0  0  0  0  0  0  0  0  0  0  0
   30.1470    9.9480   26.9810 N   0  0  0  0  0  0  0  0  0  0  0  0
   30.8870    9.7460   25.8920 C   0  0  0  0  0  0  0  0  0  0  0  0
   30.8960   10.5090   24.7240 C   0  0  0  0  0  0  0  0  0  0  0  0
   32.0850   11.0070   24.2240 C   0  0  0  0  0  0  0  0  0  0  0  0
   32.0980   11.7910   23.0590 C   0  0  0  0  0  0  0  0  0  0  0  0
   33.5840   12.4180   22.4400 Cl  0  0  0  0  0  0  0  0  0  0  0  0
   30.9090   12.0920   22.4120 C   0  0  0  0  0  0  0  0  0  0  0  0
   30.9180   12.8280   21.2740 O   0  0  0  0  0  0  0  0  0  0  0  0
   29.7020   11.5950   22.9230 C   0  0  0  0  0  0  0  0  0  0  0  0
   29.7050   10.8360   24.0920 C   0  0  0  0  0  0  0  0  0  0  0  0
   28.5470   10.3880   24.5870 O   0  0  0  0  0  0  0  0  0  0  0  0
   34.3592    4.6718   21.7560 H   0  0  0  0  0  0  0  0  0  0  0  0
   34.4913    6.2879   20.9832 H   0  0  0  0  0  0  0  0  0  0  0  0
   35.9008    5.1745   20.9832 H   0  0  0  0  0  0  0  0  0  0  0  0
   32.8372    6.5159   22.1224 H   0  0  0  0  0  0  0  0  0  0  0  0
   31.1495    7.5859   23.6605 H   0  0  0  0  0  0  0  0  0  0  0  0
   35.8508    6.9779   25.1868 H   0  0  0  0  0  0  0  0  0  0  0  0
   34.2116    8.1048   26.6660 H   0  0  0  0  0  0  0  0  0  0  0  0
   31.2507    8.0173   29.8865 H   0  0  0  0  0  0  0  0  0  0  0  0
   31.9902    6.5800   31.5636 H   0  0  0  0  0  0  0  0  0  0  0  0
   31.3439    5.2789   30.4681 H   0  0  0  0  0  0  0  0  0  0  0  0
   33.9297    5.3894   31.3343 H   0  0  0  0  0  0  0  0  0  0  0  0
   33.4069    4.6289   29.7932 H   0  0  0  0  0  0  0  0  0  0  0  0
   34.0564    6.3037   29.7932 H   0  0  0  0  0  0  0  0  0  0  0  0
   29.4567   10.7037   27.0962 H   0  0  0  0  0  0  0  0  0  0  0  0
   33.0293   10.7871   24.7435 H   0  0  0  0  0  0  0  0  0  0  0  0
   30.9301   13.8167   21.3240 H   0  0  0  0  0  0  0  0  0  0  0  0
   28.7553   11.8034   22.4030 H   0  0  0  0  0  0  0  0  0  0  0  0
   28.4143   10.3367   25.5667 H   0  0  0  0  0  0  0  0  0  0  0  0
  1  2  1  0
  2  3  1  0
  3  4  2  0
  3  6  1  0
  4  5  1  0
  5  8  2  0
  6  7  2  0
  7  8  1  0
  8  9  1  0
  9 10  1  0
  9 18  2  0
 10 11  1  0
 10 16  2  0
 11 12  2  0
 11 13  1  0
 13 14  1  0
 14 15  1  0
 16 17  1  0
 17 18  1  0
 18 19  1  0
 19 20  2  0
 19 26  1  0
 20 21  1  0
 21 22  1  0
 21 23  2  0
 23 24  1  0
 23 25  1  0
 25 26  2  0
 26 27  1  0
  1 28  1  0
  1 29  1  0
  1 30  1  0
  4 31  1  0
  5 32  1  0
  6 33  1  0
  7 34  1  0
 13 35  1  0
 14 36  1  0
 14 37  1  0
 15 38  1  0
 15 39  1  0
 15 40  1  0
 17 41  1  0
 20 42  1  0
 24 43  1  0
 25 44  1  0
 27 45  1  0
A    1
C22
A    2
O21
A    3
C18
A    4
C19
A    5
C20
A    6
C17
A    7
C16
A    8
C7
A    9
C3
A   10
C2
A   11
C8
A   12
O9
A   13
N10
A   14
C26
A   15
C27
A   16
N1
A   17
N5
A   18
C4
A   19
C6
A   20
C11
A   21
C12
A   22
CL25
A   23
C13
A   24
O24
A   25
C14
A   26
C15
A   27
O23
M  END
