2BU9_HFV_A_1333
     RDKit          3D

 49 48  0  0  0  0  0  0  0  0999 V2000
   17.4430   35.8560    4.3580 O   0  0  0  0  0  0  0  0  0  0  0  0
   17.2980   36.1100    5.5730 C   0  0  0  0  0  0  0  0  0  0  0  0
   18.2460   36.2290    6.3960 O   0  0  0  0  0  0  0  0  0  0  0  0
   15.8870   36.3420    6.0840 C   0  0  0  0  0  0  0  0  0  0  0  0
   15.9460   36.4990    7.5770 N   0  0  0  0  0  0  0  0  0  0  0  0
   15.3300   37.6050    5.4490 C   0  0  0  0  0  0  0  0  0  0  0  0
   13.9150   37.9540    5.9000 C   0  0  0  0  0  0  0  0  0  0  0  0
   13.5530   39.3180    5.2710 C   0  0  0  0  0  0  0  0  0  0  0  0
   12.1860   39.6810    5.7280 C   0  0  0  0  0  0  0  0  0  0  0  0
   11.9170   39.9410    6.8980 O   0  0  0  0  0  0  0  0  0  0  0  0
   11.2280   39.7500    4.7870 N   0  0  0  0  0  0  0  0  0  0  0  0
    9.8640   40.0420    5.1470 C   0  0  0  0  0  0  0  0  0  0  0  0
    9.1820   40.6330    3.9230 C   0  0  0  0  0  0  0  0  0  0  0  0
    9.2810   39.5370    2.4500 S   0  0  0  0  0  0  0  0  0  0  0  0
    9.1310   38.8120    5.6610 C   0  0  0  0  0  0  0  0  0  0  0  0
    9.6940   37.7060    5.7520 O   0  0  0  0  0  0  0  0  0  0  0  0
    7.8870   38.9920    6.0350 N   0  0  0  0  0  0  0  0  0  0  0  0
    7.0200   37.9150    6.4820 C   0  0  0  0  0  0  0  0  0  0  0  0
    5.8040   37.8390    5.5340 C   0  0  0  0  0  0  0  0  0  0  0  0
    4.9000   37.0720    5.8250 O   0  0  0  0  0  0  0  0  0  0  0  0
    5.8490   38.5600    4.5130 O   0  0  0  0  0  0  0  0  0  0  0  0
    6.5410   37.9500    7.9270 C   0  0  0  0  0  0  0  0  0  0  0  0
    6.0440   39.3390    8.3380 C   0  0  0  0  0  0  0  0  0  0  0  0
    5.3200   39.1550    9.4670 F   0  0  0  0  0  0  0  0  0  0  0  0
    5.2690   39.7850    7.4120 F   0  0  0  0  0  0  0  0  0  0  0  0
    6.9790   40.1750    8.6510 F   0  0  0  0  0  0  0  0  0  0  0  0
    7.7120   37.5550    8.8430 C   0  0  0  0  0  0  0  0  0  0  0  0
    8.0590   36.2540    8.6040 F   0  0  0  0  0  0  0  0  0  0  0  0
    8.8240   38.1870    8.7040 F   0  0  0  0  0  0  0  0  0  0  0  0
    7.3750   37.6120   10.1490 F   0  0  0  0  0  0  0  0  0  0  0  0
   18.0629   36.2060    7.3687 H   0  0  0  0  0  0  0  0  0  0  0  0
   15.2354   35.4944    5.8249 H   0  0  0  0  0  0  0  0  0  0  0  0
   15.6200   35.6315    8.0266 H   0  0  0  0  0  0  0  0  0  0  0  0
   16.9165   36.6907    7.8640 H   0  0  0  0  0  0  0  0  0  0  0  0
   15.9926   38.4438    5.7085 H   0  0  0  0  0  0  0  0  0  0  0  0
   15.2827   37.4223    4.3653 H   0  0  0  0  0  0  0  0  0  0  0  0
   13.2099   37.1826    5.5567 H   0  0  0  0  0  0  0  0  0  0  0  0
   13.8585   38.0050    6.9974 H   0  0  0  0  0  0  0  0  0  0  0  0
   14.2723   40.0834    5.5978 H   0  0  0  0  0  0  0  0  0  0  0  0
   13.5872   39.2559    4.1733 H   0  0  0  0  0  0  0  0  0  0  0  0
   11.4719   39.5925    3.7988 H   0  0  0  0  0  0  0  0  0  0  0  0
    9.8449   40.7631    5.9774 H   0  0  0  0  0  0  0  0  0  0  0  0
    8.1221   40.8062    4.1611 H   0  0  0  0  0  0  0  0  0  0  0  0
    9.7037   41.5688    3.6739 H   0  0  0  0  0  0  0  0  0  0  0  0
    9.3987   38.2342    2.8572 H   0  0  0  0  0  0  0  0  0  0  0  0
    7.5041   39.9479    6.0106 H   0  0  0  0  0  0  0  0  0  0  0  0
    7.6548   37.0173    6.4478 H   0  0  0  0  0  0  0  0  0  0  0  0
    5.9104   39.5439    4.6041 H   0  0  0  0  0  0  0  0  0  0  0  0
    5.6998   37.2477    8.0223 H   0  0  0  0  0  0  0  0  0  0  0  0
  1  2  2  0
  2  3  1  0
  2  4  1  0
  4  5  1  0
  4  6  1  0
  6  7  1  0
  7  8  1  0
  8  9  1  0
  9 10  2  0
  9 11  1  0
 11 12  1  0
 12 13  1  0
 12 15  1  0
 13 14  1  0
 15 16  2  0
 15 17  1  0
 17 18  1  0
 18 19  1  0
 18 22  1  0
 19 20  2  0
 19 21  1  0
 22 23  1  0
 22 27  1  0
 23 24  1  0
 23 25  1  0
 23 26  1  0
 27 28  1  0
 27 29  1  0
 27 30  1  0
  3 31  1  0
  4 32  1  0
  5 33  1  0
  5 34  1  0
  6 35  1  0
  6 36  1  0
  7 37  1  0
  7 38  1  0
  8 39  1  0
  8 40  1  0
 11 41  1  0
 12 42  1  0
 13 43  1  0
 13 44  1  0
 14 45  1  0
 17 46  1  0
 18 47  1  0
 21 48  1  0
 22 49  1  0
A    1
O20
A    2
C1
A    3
O19
A    4
C2
A    5
N14
A    6
C3
A    7
C4
A    8
C7
A    9
C10
A   10
O15
A   11
N11
A   12
C12
A   13
C16
A   14
S17
A   15
C13
A   16
O18
A   17
N29
A   18
C30
A   19
C31
A   20
O42
A   21
O43
A   22
C32
A   23
C37
A   24
F24
A   25
F25
A   26
F26
A   27
C33
A   28
F21
A   29
F23
A   30
F22
M  END
