2BUB_FPB_A_1771
     RDKit          3D

 54 56  0  0  0  0  0  0  0  0999 V2000
   47.0820   49.7140   34.2890 O   0  0  0  0  0  0  0  0  0  0  0  0
   46.5600   50.7110   33.8310 C   0  0  0  0  0  0  0  0  0  0  0  0
   46.4940   51.9720   34.6730 C   0  0  0  0  0  0  0  0  0  0  0  0
   46.7510   51.6010   36.1220 C   0  0  0  0  0  0  0  0  0  0  0  0
   46.3760   52.7420   36.9540 N   0  0  0  0  0  0  0  0  0  0  0  0
   48.2490   51.3790   36.2440 C   0  0  0  0  0  0  0  0  0  0  0  0
   48.5210   50.7430   37.5870 C   0  0  0  0  0  0  0  0  0  0  0  0
   49.1780   51.4490   38.5850 C   0  0  0  0  0  0  0  0  0  0  0  0
   49.5850   52.6730   38.3580 F   0  0  0  0  0  0  0  0  0  0  0  0
   49.4280   50.8710   39.8190 C   0  0  0  0  0  0  0  0  0  0  0  0
   49.0020   49.5810   40.0650 C   0  0  0  0  0  0  0  0  0  0  0  0
   48.3410   48.8840   39.0740 C   0  0  0  0  0  0  0  0  0  0  0  0
   48.0950   49.4570   37.8390 C   0  0  0  0  0  0  0  0  0  0  0  0
   46.0090   50.7130   32.5610 N   0  0  0  0  0  0  0  0  0  0  0  0
   46.0040   49.5940   31.6120 C   0  0  0  0  0  0  0  0  0  0  0  0
   44.7400   49.8670   30.8000 C   0  0  0  0  0  0  0  0  0  0  0  0
   44.7500   51.3840   30.6220 C   0  0  0  0  0  0  0  0  0  0  0  0
   45.3620   51.8870   31.9370 C   0  0  0  0  0  0  0  0  0  0  0  0
   47.2930   49.7230   30.7590 C   0  0  0  0  0  0  0  0  0  0  0  0
   48.4600   49.4140   31.6200 N   0  0  0  0  0  0  0  0  0  0  0  0
   49.3460   50.3780   32.1230 C   0  0  0  0  0  0  0  0  0  0  0  0
   49.1780   51.5570   31.8490 O   0  0  0  0  0  0  0  0  0  0  0  0
   50.4830   49.9870   33.0100 C   0  0  0  0  0  0  0  0  0  0  0  0
   51.1060   48.7380   32.8840 C   0  0  0  0  0  0  0  0  0  0  0  0
   52.1570   48.4090   33.7450 C   0  0  0  0  0  0  0  0  0  0  0  0
   52.5940   49.2990   34.7340 C   0  0  0  0  0  0  0  0  0  0  0  0
   51.9780   50.5350   34.8650 C   0  0  0  0  0  0  0  0  0  0  0  0
   50.9300   50.8680   34.0080 C   0  0  0  0  0  0  0  0  0  0  0  0
   47.2585   52.6856   34.3320 H   0  0  0  0  0  0  0  0  0  0  0  0
   45.5024   52.4379   34.5747 H   0  0  0  0  0  0  0  0  0  0  0  0
   46.1839   50.7105   36.4309 H   0  0  0  0  0  0  0  0  0  0  0  0
   46.4605   52.4848   37.9478 H   0  0  0  0  0  0  0  0  0  0  0  0
   47.0005   53.5354   36.7504 H   0  0  0  0  0  0  0  0  0  0  0  0
   48.5941   50.7131   35.4393 H   0  0  0  0  0  0  0  0  0  0  0  0
   48.7843   52.3363   36.1601 H   0  0  0  0  0  0  0  0  0  0  0  0
   49.9621   51.4359   40.5972 H   0  0  0  0  0  0  0  0  0  0  0  0
   49.1879   49.1126   41.0428 H   0  0  0  0  0  0  0  0  0  0  0  0
   48.0040   47.8553   39.2694 H   0  0  0  0  0  0  0  0  0  0  0  0
   47.5621   48.8889   37.0623 H   0  0  0  0  0  0  0  0  0  0  0  0
   45.9974   48.5815   32.0418 H   0  0  0  0  0  0  0  0  0  0  0  0
   44.7805   49.3568   29.8263 H   0  0  0  0  0  0  0  0  0  0  0  0
   43.8274   49.4998   31.2922 H   0  0  0  0  0  0  0  0  0  0  0  0
   45.3696   51.6762   29.7613 H   0  0  0  0  0  0  0  0  0  0  0  0
   43.7521   51.8017   30.4228 H   0  0  0  0  0  0  0  0  0  0  0  0
   44.5768   52.2859   32.5960 H   0  0  0  0  0  0  0  0  0  0  0  0
   46.0835   52.6985   31.7611 H   0  0  0  0  0  0  0  0  0  0  0  0
   47.2541   49.0145   29.9185 H   0  0  0  0  0  0  0  0  0  0  0  0
   47.3796   50.7441   30.3591 H   0  0  0  0  0  0  0  0  0  0  0  0
   48.6310   48.4281   31.8644 H   0  0  0  0  0  0  0  0  0  0  0  0
   50.7718   48.0246   32.1163 H   0  0  0  0  0  0  0  0  0  0  0  0
   52.6507   47.4313   33.6436 H   0  0  0  0  0  0  0  0  0  0  0  0
   53.4211   49.0195   35.4032 H   0  0  0  0  0  0  0  0  0  0  0  0
   52.3126   51.2443   35.6363 H   0  0  0  0  0  0  0  0  0  0  0  0
   50.4402   51.8469   34.1165 H   0  0  0  0  0  0  0  0  0  0  0  0
  1  2  2  0
  2  3  1  0
  2 14  1  0
  3  4  1  0
  4  5  1  0
  4  6  1  0
  6  7  1  0
  7  8  2  0
  7 13  1  0
  8  9  1  0
  8 10  1  0
 10 11  2  0
 11 12  1  0
 12 13  2  0
 14 15  1  0
 14 18  1  0
 15 16  1  0
 15 19  1  0
 16 17  1  0
 17 18  1  0
 19 20  1  0
 20 21  1  0
 21 22  2  0
 21 23  1  0
 23 24  2  0
 23 28  1  0
 24 25  1  0
 25 26  2  0
 26 27  1  0
 27 28  2  0
  3 29  1  0
  3 30  1  0
  4 31  1  0
  5 32  1  0
  5 33  1  0
  6 34  1  0
  6 35  1  0
 10 36  1  0
 11 37  1  0
 12 38  1  0
 13 39  1  0
 15 40  1  0
 16 41  1  0
 16 42  1  0
 17 43  1  0
 17 44  1  0
 18 45  1  0
 18 46  1  0
 19 47  1  0
 19 48  1  0
 20 49  1  0
 24 50  1  0
 25 51  1  0
 26 52  1  0
 27 53  1  0
 28 54  1  0
A    1
O16
A    2
C12
A    3
C11
A    4
C10
A    5
N18
A    6
C9
A    7
C3
A    8
C5
A    9
F8
A   10
C7
A   11
C6
A   12
C4
A   13
C2
A   14
N13
A   15
C14
A   16
C21
A   17
C20
A   18
C19
A   19
C15
A   20
N17
A   21
C22
A   22
O1
A   23
C25
A   24
C27
A   25
C28
A   26
C26
A   27
C24
A   28
C23
M  END
