1EOC_4NC_B_999
     RDKit          3D

 16 16  0  0  0  0  0  0  0  0999 V2000
    9.9140  -13.0470   41.2840 C   0  0  0  0  0  0  0  0  0  0  0  0
    9.6060  -14.1390   40.5030 C   0  0  0  0  0  0  0  0  0  0  0  0
   10.5980  -14.9680   40.0260 C   0  0  0  0  0  0  0  0  0  0  0  0
   11.9150  -14.6950   40.3430 C   0  0  0  0  0  0  0  0  0  0  0  0
   12.2350  -13.6020   41.1310 C   0  0  0  0  0  0  0  0  0  0  0  0
   11.2300  -12.7810   41.5960 C   0  0  0  0  0  0  0  0  0  0  0  0
    8.8990  -12.2270   41.7550 O   0  0  0  0  0  0  0  0  0  0  0  0
    8.2720  -14.3830   40.2150 O   0  0  0  0  0  0  0  0  0  0  0  0
   12.9680  -15.5560   39.8370 N   0  0  0  0  0  0  0  0  0  0  0  0
   12.7050  -16.5400   39.1140 O   0  0  0  0  0  0  0  0  0  0  0  0
   14.1730  -15.3430   40.0940 O   0  0  0  0  0  0  0  0  0  0  0  0
   10.3446  -15.8366   39.4004 H   0  0  0  0  0  0  0  0  0  0  0  0
   13.2843  -13.3904   41.3842 H   0  0  0  0  0  0  0  0  0  0  0  0
   11.4795  -11.9094   42.2190 H   0  0  0  0  0  0  0  0  0  0  0  0
    8.7633  -12.1173   42.7295 H   0  0  0  0  0  0  0  0  0  0  0  0
    7.6205  -14.5022   40.9508 H   0  0  0  0  0  0  0  0  0  0  0  0
  1  2  2  0
  1  6  1  0
  1  7  1  0
  2  3  1  0
  2  8  1  0
  3  4  2  0
  4  5  1  0
  4  9  1  0
  5  6  2  0
  9 10  2  0
  9 11  1  0
  3 12  1  0
  5 13  1  0
  6 14  1  0
  7 15  1  0
  8 16  1  0
M  CHG  2   9   1  11  -1
A    1
C1
A    2
C2
A    3
C3
A    4
C4
A    5
C5
A    6
C6
A    7
O7
A    8
O8
A    9
N9
A   10
O10
A   11
O11
M  END
