2BVX_5CB_H_1246
     RDKit          3D

 55 58  0  0  0  0  0  0  0  0999 V2000
   12.2110  -13.5610   12.5930 O   0  0  0  0  0  0  0  0  0  0  0  0
   16.3500   -8.0570   10.9510 Cl  0  0  0  0  0  0  0  0  0  0  0  0
    8.4960  -13.0970   16.0310 Cl  0  0  0  0  0  0  0  0  0  0  0  0
   17.7380  -10.4050   10.9660 C   0  0  0  0  0  0  0  0  0  0  0  0
   18.0880  -11.6720   11.5010 C   0  0  0  0  0  0  0  0  0  0  0  0
   16.7620   -9.5930   11.6210 C   0  0  0  0  0  0  0  0  0  0  0  0
   17.4450  -12.0950   12.6870 C   0  0  0  0  0  0  0  0  0  0  0  0
   16.1300  -10.0390   12.8150 C   0  0  0  0  0  0  0  0  0  0  0  0
   16.4810  -11.3070   13.3460 C   0  0  0  0  0  0  0  0  0  0  0  0
   17.6390  -13.4550   13.4980 S   0  0  0  0  0  0  0  0  0  0  0  0
   16.5870  -13.1790   14.6790 C   0  0  0  0  0  0  0  0  0  0  0  0
   15.9890  -11.9370   14.5010 C   0  0  0  0  0  0  0  0  0  0  0  0
   14.9450  -11.3580   15.4510 C   0  0  0  0  0  0  0  0  0  0  0  0
   13.5620  -11.3830   14.9280 N   0  0  0  0  0  0  0  0  0  0  0  0
   12.5080  -12.1950   15.3660 C   0  0  0  0  0  0  0  0  0  0  0  0
   11.1410  -12.0670   14.6980 C   0  0  0  0  0  0  0  0  0  0  0  0
    9.3190  -13.8690   14.7160 C   0  0  0  0  0  0  0  0  0  0  0  0
   10.5300  -13.3270   14.1710 N   0  0  0  0  0  0  0  0  0  0  0  0
    8.7900  -15.0170   14.2080 C   0  0  0  0  0  0  0  0  0  0  0  0
   11.1770  -13.9970   13.0820 C   0  0  0  0  0  0  0  0  0  0  0  0
    9.4640  -15.7290   13.0640 N   0  0  0  0  0  0  0  0  0  0  0  0
   10.5850  -15.2600   12.5330 C   0  0  0  0  0  0  0  0  0  0  0  0
   11.2080  -15.9200   11.4710 N   0  0  0  0  0  0  0  0  0  0  0  0
   10.5940  -16.7930   10.4460 C   0  0  0  0  0  0  0  0  0  0  0  0
    9.9540  -15.9430    9.3260 C   0  0  0  0  0  0  0  0  0  0  0  0
    7.4590  -16.1360    9.9780 C   0  0  0  0  0  0  0  0  0  0  0  0
    8.5650  -15.3530    9.5920 C   0  0  0  0  0  0  0  0  0  0  0  0
    6.2140  -15.5110   10.2000 C   0  0  0  0  0  0  0  0  0  0  0  0
    8.3880  -13.9620    9.4390 N   0  0  0  0  0  0  0  0  0  0  0  0
    6.0480  -14.1170   10.0430 C   0  0  0  0  0  0  0  0  0  0  0  0
    7.1440  -13.3350    9.6590 C   0  0  0  0  0  0  0  0  0  0  0  0
   12.6670  -12.9970   16.2660 O   0  0  0  0  0  0  0  0  0  0  0  0
   12.8333  -13.2986   13.3168 H   0  0  0  0  0  0  0  0  0  0  0  0
   18.2197  -10.0471   10.0441 H   0  0  0  0  0  0  0  0  0  0  0  0
   18.8382  -12.3069   11.0070 H   0  0  0  0  0  0  0  0  0  0  0  0
   15.3808   -9.4105   13.3187 H   0  0  0  0  0  0  0  0  0  0  0  0
   16.3714  -13.8706   15.5067 H   0  0  0  0  0  0  0  0  0  0  0  0
   14.9701  -11.9387   16.3849 H   0  0  0  0  0  0  0  0  0  0  0  0
   15.2062  -10.2995   15.5968 H   0  0  0  0  0  0  0  0  0  0  0  0
   13.3508  -10.7325   14.1578 H   0  0  0  0  0  0  0  0  0  0  0  0
   10.4463  -11.6442   15.4387 H   0  0  0  0  0  0  0  0  0  0  0  0
   11.3096  -11.4355   13.8133 H   0  0  0  0  0  0  0  0  0  0  0  0
    8.7313  -13.2758   13.9999 H   0  0  0  0  0  0  0  0  0  0  0  0
    8.7385  -15.7352   15.0396 H   0  0  0  0  0  0  0  0  0  0  0  0
    7.8426  -14.6774   13.7641 H   0  0  0  0  0  0  0  0  0  0  0  0
   11.7655  -14.5908   13.7969 H   0  0  0  0  0  0  0  0  0  0  0  0
   12.2255  -15.7811   11.3912 H   0  0  0  0  0  0  0  0  0  0  0  0
   11.3690  -17.4411   10.0109 H   0  0  0  0  0  0  0  0  0  0  0  0
    9.8120  -17.4040   10.9205 H   0  0  0  0  0  0  0  0  0  0  0  0
   10.6345  -15.1038    9.1195 H   0  0  0  0  0  0  0  0  0  0  0  0
    9.8056  -16.6444    8.4918 H   0  0  0  0  0  0  0  0  0  0  0  0
    7.5653  -17.2235   10.1049 H   0  0  0  0  0  0  0  0  0  0  0  0
    5.3520  -16.1237   10.5025 H   0  0  0  0  0  0  0  0  0  0  0  0
    5.0677  -13.6507   10.2206 H   0  0  0  0  0  0  0  0  0  0  0  0
    7.0364  -12.2478    9.5308 H   0  0  0  0  0  0  0  0  0  0  0  0
  1 20  1  0
  2  6  1  0
  3 17  1  0
  4  5  2  0
  4  6  1  0
  5  7  1  0
  6  8  2  0
  7  9  2  0
  7 10  1  0
  8  9  1  0
  9 12  1  0
 10 11  1  0
 11 12  2  0
 12 13  1  0
 13 14  1  0
 14 15  1  0
 15 16  1  0
 15 32  2  0
 16 18  1  0
 17 18  1  0
 17 19  1  0
 18 20  1  0
 19 21  1  0
 20 22  1  0
 21 22  2  0
 22 23  1  0
 23 24  1  0
 24 25  1  0
 25 27  1  0
 26 27  2  0
 26 28  1  0
 27 29  1  0
 28 30  2  0
 29 31  2  0
 30 31  1  0
  1 33  1  0
  4 34  1  0
  5 35  1  0
  8 36  1  0
 11 37  1  0
 13 38  1  0
 13 39  1  0
 14 40  1  0
 16 41  1  0
 16 42  1  0
 17 43  1  0
 19 44  1  0
 19 45  1  0
 20 46  1  0
 23 47  1  0
 24 48  1  0
 24 49  1  0
 25 50  1  0
 25 51  1  0
 26 52  1  0
 28 53  1  0
 30 54  1  0
 31 55  1  0
A    1
O1
A    2
CL2
A    3
CL3
A    4
C4
A    5
C5
A    6
C6
A    7
C7
A    8
C8
A    9
C9
A   10
S10
A   11
C11
A   12
C12
A   13
C13
A   14
N14
A   15
C15
A   16
C16
A   17
C17
A   18
N18
A   19
C19
A   20
C20
A   21
N21
A   22
C22
A   23
N23
A   24
C24
A   25
C25
A   26
C26
A   27
C27
A   28
C28
A   29
N29
A   30
C30
A   31
C31
A   32
O32
M  END
