2BXN_IDB_A_2001
     RDKit          3D

 48 49  0  0  0  0  0  0  0  0999 V2000
   24.4960    8.2500   12.5780 I   0  0  0  0  0  0  0  0  0  0  0  0
   28.7610    9.5120    8.2040 I   0  0  0  0  0  0  0  0  0  0  0  0
   25.8500    4.1840    8.1580 I   0  0  0  0  0  0  0  0  0  0  0  0
   27.0060    9.8950   13.0110 O   0  0  0  0  0  0  0  0  0  0  0  0
   23.2850    5.4830   10.3210 O   0  0  0  0  0  0  0  0  0  0  0  0
   24.7760    4.8260   11.8390 O   0  0  0  0  0  0  0  0  0  0  0  0
   26.9340   10.0210   10.7420 N   0  0  0  0  0  0  0  0  0  0  0  0
   25.4350    6.4590   10.2730 C   0  0  0  0  0  0  0  0  0  0  0  0
   25.6580    7.7560   10.8620 C   0  0  0  0  0  0  0  0  0  0  0  0
   26.6320    8.6680   10.2730 C   0  0  0  0  0  0  0  0  0  0  0  0
   27.3510    8.2390    9.1170 C   0  0  0  0  0  0  0  0  0  0  0  0
   27.1400    6.9590    8.5210 C   0  0  0  0  0  0  0  0  0  0  0  0
   26.1880    6.0730    9.0860 C   0  0  0  0  0  0  0  0  0  0  0  0
   27.1000   10.5550   11.9890 C   0  0  0  0  0  0  0  0  0  0  0  0
   27.4080   12.0480   12.0070 C   0  0  0  0  0  0  0  0  0  0  0  0
   24.4110    5.4970   10.8690 C   0  0  0  0  0  0  0  0  0  0  0  0
   27.8450   12.5830   10.6530 C   0  0  0  0  0  0  0  0  0  0  0  0
   28.3090   14.0390   10.6510 C   0  0  0  0  0  0  0  0  0  0  0  0
   32.3280   13.3500   11.9490 I   0  0  0  0  0  0  0  0  0  0  0  0
   32.3330   17.0090    6.9920 I   0  0  0  0  0  0  0  0  0  0  0  0
   37.5280   15.1640    9.2980 I   0  0  0  0  0  0  0  0  0  0  0  0
   30.7290   13.1370    8.6040 O   0  0  0  0  0  0  0  0  0  0  0  0
   35.9230   12.4610   11.1410 O   0  0  0  0  0  0  0  0  0  0  0  0
   35.7620   14.1870   12.5420 O   0  0  0  0  0  0  0  0  0  0  0  0
   31.1310   15.1870    9.5170 N   0  0  0  0  0  0  0  0  0  0  0  0
   34.7530   14.4080   10.4230 C   0  0  0  0  0  0  0  0  0  0  0  0
   33.3270   14.4320   10.4430 C   0  0  0  0  0  0  0  0  0  0  0  0
   32.5810   15.1720    9.4710 C   0  0  0  0  0  0  0  0  0  0  0  0
   33.2950   15.8920    8.4670 C   0  0  0  0  0  0  0  0  0  0  0  0
   34.7100   15.8890    8.4180 C   0  0  0  0  0  0  0  0  0  0  0  0
   35.4340   15.1550    9.3850 C   0  0  0  0  0  0  0  0  0  0  0  0
   30.3040   14.1840    9.0900 C   0  0  0  0  0  0  0  0  0  0  0  0
   28.8290   14.4520    9.2710 C   0  0  0  0  0  0  0  0  0  0  0  0
   35.5530   13.6160   11.4670 C   0  0  0  0  0  0  0  0  0  0  0  0
   22.4648    5.4728   10.8753 H   0  0  0  0  0  0  0  0  0  0  0  0
   27.0431   10.7069    9.9813 H   0  0  0  0  0  0  0  0  0  0  0  0
   27.7120    6.6621    7.6296 H   0  0  0  0  0  0  0  0  0  0  0  0
   26.5030   12.5884   12.3215 H   0  0  0  0  0  0  0  0  0  0  0  0
   28.2434   12.2022   12.7058 H   0  0  0  0  0  0  0  0  0  0  0  0
   28.6766   11.9597   10.2924 H   0  0  0  0  0  0  0  0  0  0  0  0
   26.9560   12.5436   10.0063 H   0  0  0  0  0  0  0  0  0  0  0  0
   27.4622   14.6859   10.9238 H   0  0  0  0  0  0  0  0  0  0  0  0
   29.1277   14.1450   11.3780 H   0  0  0  0  0  0  0  0  0  0  0  0
   36.1367   11.7938   11.8405 H   0  0  0  0  0  0  0  0  0  0  0  0
   30.6835   16.0290    9.9064 H   0  0  0  0  0  0  0  0  0  0  0  0
   35.2403   16.4519    7.6357 H   0  0  0  0  0  0  0  0  0  0  0  0
   28.2744   13.8900    8.5052 H   0  0  0  0  0  0  0  0  0  0  0  0
   28.6783   15.5374    9.1747 H   0  0  0  0  0  0  0  0  0  0  0  0
  1  9  1  0
  2 11  1  0
  3 13  1  0
  4 14  2  0
  5 16  1  0
  6 16  2  0
  7 10  1  0
  7 14  1  0
  8  9  2  0
  8 13  1  0
  8 16  1  0
  9 10  1  0
 10 11  2  0
 11 12  1  0
 12 13  2  0
 14 15  1  0
 15 17  1  0
 17 18  1  0
 18 33  1  0
 19 27  1  0
 20 29  1  0
 21 31  1  0
 22 32  2  0
 23 34  1  0
 24 34  2  0
 25 28  1  0
 25 32  1  0
 26 27  2  0
 26 31  1  0
 26 34  1  0
 27 28  1  0
 28 29  2  0
 29 30  1  0
 30 31  2  0
 32 33  1  0
  5 35  1  0
  7 36  1  0
 12 37  1  0
 15 38  1  0
 15 39  1  0
 17 40  1  0
 17 41  1  0
 18 42  1  0
 18 43  1  0
 23 44  1  0
 25 45  1  0
 30 46  1  0
 33 47  1  0
 33 48  1  0
A    1
I1
A    2
I2
A    3
I3
A    4
O1
A    5
O2
A    6
O3
A    7
N1
A    8
C1
A    9
C2
A   10
C3
A   11
C4
A   12
C5
A   13
C6
A   14
C7
A   15
C8
A   16
C9
A   17
C10
A   18
C11
A   19
I4
A   20
I5
A   21
I6
A   22
O4
A   23
O5
A   24
O6
A   25
N2
A   26
C12
A   27
C13
A   28
C14
A   29
C15
A   30
C16
A   31
C17
A   32
C18
A   33
C19
A   34
C20
M  END
