2BXC_P1Z_A_2001
     RDKit          3D

 43 45  0  0  0  0  0  0  0  0999 V2000
    8.0380  -13.3730    6.7330 C   0  0  0  0  0  0  0  0  0  0  0  0
    7.3710  -12.1580    7.0710 C   0  0  0  0  0  0  0  0  0  0  0  0
    6.2630  -12.1390    7.9700 C   0  0  0  0  0  0  0  0  0  0  0  0
    5.8730  -13.4230    8.5120 C   0  0  0  0  0  0  0  0  0  0  0  0
    6.5420  -14.6140    8.1680 C   0  0  0  0  0  0  0  0  0  0  0  0
    7.6210  -14.5980    7.2820 C   0  0  0  0  0  0  0  0  0  0  0  0
    4.1590  -11.6600   13.0320 C   0  0  0  0  0  0  0  0  0  0  0  0
    5.4840  -11.6000   13.4840 C   0  0  0  0  0  0  0  0  0  0  0  0
    6.5220  -11.2710   12.5810 C   0  0  0  0  0  0  0  0  0  0  0  0
    6.2110  -11.0030   11.2020 C   0  0  0  0  0  0  0  0  0  0  0  0
    4.8690  -11.0660   10.7460 C   0  0  0  0  0  0  0  0  0  0  0  0
    3.8240  -11.4040   11.6860 C   0  0  0  0  0  0  0  0  0  0  0  0
    3.6980   -4.1500    7.6490 C   0  0  0  0  0  0  0  0  0  0  0  0
    3.2100   -5.4160    7.0540 C   0  0  0  0  0  0  0  0  0  0  0  0
    3.8210   -6.6230    7.6220 C   0  0  0  0  0  0  0  0  0  0  0  0
    3.3970   -7.9980    6.9960 C   0  0  0  0  0  0  0  0  0  0  0  0
    5.5960  -10.8470    8.3160 N   0  0  0  0  0  0  0  0  0  0  0  0
    5.2750   -9.7880    7.3250 C   0  0  0  0  0  0  0  0  0  0  0  0
    4.0890   -9.1540    7.7310 C   0  0  0  0  0  0  0  0  0  0  0  0
    3.5970   -9.7440    8.9000 C   0  0  0  0  0  0  0  0  0  0  0  0
    4.5080  -10.8100    9.3120 N   0  0  0  0  0  0  0  0  0  0  0  0
    6.0050   -9.5400    6.3210 O   0  0  0  0  0  0  0  0  0  0  0  0
    2.5610   -9.4490    9.5580 O   0  0  0  0  0  0  0  0  0  0  0  0
    8.8880  -13.3509    6.0351 H   0  0  0  0  0  0  0  0  0  0  0  0
    7.7192  -11.2133    6.6280 H   0  0  0  0  0  0  0  0  0  0  0  0
    5.0278  -13.4704    9.2145 H   0  0  0  0  0  0  0  0  0  0  0  0
    6.2102  -15.5684    8.6028 H   0  0  0  0  0  0  0  0  0  0  0  0
    8.1381  -15.5320    7.0170 H   0  0  0  0  0  0  0  0  0  0  0  0
    3.3602  -11.9131   13.7447 H   0  0  0  0  0  0  0  0  0  0  0  0
    5.7165  -11.8083   14.5388 H   0  0  0  0  0  0  0  0  0  0  0  0
    7.5633  -11.2202   12.9319 H   0  0  0  0  0  0  0  0  0  0  0  0
    7.0171  -10.7482   10.4983 H   0  0  0  0  0  0  0  0  0  0  0  0
    2.7767  -11.4610   11.3544 H   0  0  0  0  0  0  0  0  0  0  0  0
    3.6690   -4.2253    8.7460 H   0  0  0  0  0  0  0  0  0  0  0  0
    4.7317   -3.9654    7.3214 H   0  0  0  0  0  0  0  0  0  0  0  0
    3.0556   -3.3193    7.3214 H   0  0  0  0  0  0  0  0  0  0  0  0
    2.1227   -5.4738    7.2101 H   0  0  0  0  0  0  0  0  0  0  0  0
    3.4875   -5.3924    5.9898 H   0  0  0  0  0  0  0  0  0  0  0  0
    4.9110   -6.5284    7.5078 H   0  0  0  0  0  0  0  0  0  0  0  0
    3.4654   -6.6608    8.6622 H   0  0  0  0  0  0  0  0  0  0  0  0
    2.3065   -8.1147    7.0814 H   0  0  0  0  0  0  0  0  0  0  0  0
    3.6963   -8.0168    5.9377 H   0  0  0  0  0  0  0  0  0  0  0  0
    3.5021   -9.8773    7.1460 H   0  0  0  0  0  0  0  0  0  0  0  0
  1  2  2  0
  1  6  1  0
  2  3  1  0
  3  4  2  0
  3 17  1  0
  4  5  1  0
  5  6  2  0
  7  8  2  0
  7 12  1  0
  8  9  1  0
  9 10  2  0
 10 11  1  0
 11 12  2  0
 11 21  1  0
 13 14  1  0
 14 15  1  0
 15 16  1  0
 16 19  1  0
 17 18  1  0
 17 21  1  0
 18 19  1  0
 18 22  2  0
 19 20  1  0
 20 21  1  0
 20 23  2  0
  1 24  1  0
  2 25  1  0
  4 26  1  0
  5 27  1  0
  6 28  1  0
  7 29  1  0
  8 30  1  0
  9 31  1  0
 10 32  1  0
 12 33  1  0
 13 34  1  0
 13 35  1  0
 13 36  1  0
 14 37  1  0
 14 38  1  0
 15 39  1  0
 15 40  1  0
 16 41  1  0
 16 42  1  0
 19 43  1  0
A    1
C16
A    2
C17
A    3
C12
A    4
C13
A    5
C14
A    6
C15
A    7
C8
A    8
C9
A    9
C10
A   10
C11
A   11
C6
A   12
C7
A   13
C21
A   14
C20
A   15
C19
A   16
C18
A   17
N2
A   18
C3
A   19
C4
A   20
C5
A   21
N1
A   22
O3
A   23
O5
M  END
