1S2A_IMN_A_2001
     RDKit          3D

 41 43  0  0  0  0  0  0  0  0999 V2000
   24.7700  -27.2540   60.0590 C   0  0  0  0  0  0  0  0  0  0  0  0
   24.2260  -27.4600   58.7070 C   0  0  0  0  0  0  0  0  0  0  0  0
   24.0020  -26.4010   57.8500 C   0  0  0  0  0  0  0  0  0  0  0  0
   24.3210  -25.1120   58.2820 C   0  0  0  0  0  0  0  0  0  0  0  0
   24.8360  -24.8880   59.5660 C   0  0  0  0  0  0  0  0  0  0  0  0
   25.0500  -25.9430   60.4480 C   0  0  0  0  0  0  0  0  0  0  0  0
   24.2520  -24.1530   56.0570 C   0  0  0  0  0  0  0  0  0  0  0  0
   23.9800  -28.9380   58.5670 C   0  0  0  0  0  0  0  0  0  0  0  0
   24.4870  -29.4690   59.9170 C   0  0  0  0  0  0  0  0  0  0  0  0
   25.4020  -28.5470   61.9690 C   0  0  0  0  0  0  0  0  0  0  0  0
   25.1120  -27.6650   63.1290 C   0  0  0  0  0  0  0  0  0  0  0  0
   26.2000  -27.1860   63.8640 C   0  0  0  0  0  0  0  0  0  0  0  0
   25.9820  -26.3630   64.9590 C   0  0  0  0  0  0  0  0  0  0  0  0
   24.6690  -26.0600   65.3140 C   0  0  0  0  0  0  0  0  0  0  0  0
   23.5930  -26.5460   64.5860 C   0  0  0  0  0  0  0  0  0  0  0  0
   23.8100  -27.3690   63.4880 C   0  0  0  0  0  0  0  0  0  0  0  0
   24.6570  -30.9280   60.3180 C   0  0  0  0  0  0  0  0  0  0  0  0
   23.5900  -29.7620   57.2900 C   0  0  0  0  0  0  0  0  0  0  0  0
   24.7320  -29.3550   56.3880 C   0  0  0  0  0  0  0  0  0  0  0  0
   24.8740  -28.4140   60.7010 N   0  0  0  0  0  0  0  0  0  0  0  0
   24.1380  -24.0210   57.4750 O   0  0  0  0  0  0  0  0  0  0  0  0
   26.2130  -29.4240   62.2030 O   0  0  0  0  0  0  0  0  0  0  0  0
   24.3910  -28.6670   55.4040 O   0  0  0  0  0  0  0  0  0  0  0  0
   26.0200  -29.4750   56.6750 O   0  0  0  0  0  0  0  0  0  0  0  0
   24.3620  -24.9980   66.7270 Cl  0  0  0  0  0  0  0  0  0  0  0  0
   23.5810  -26.5691   56.8478 H   0  0  0  0  0  0  0  0  0  0  0  0
   25.0749  -23.8617   59.8818 H   0  0  0  0  0  0  0  0  0  0  0  0
   25.4416  -25.7429   61.4563 H   0  0  0  0  0  0  0  0  0  0  0  0
   24.9541  -24.9659   55.8197 H   0  0  0  0  0  0  0  0  0  0  0  0
   23.2651  -24.3844   55.6298 H   0  0  0  0  0  0  0  0  0  0  0  0
   24.6246  -23.2103   55.6298 H   0  0  0  0  0  0  0  0  0  0  0  0
   27.2253  -27.4606   63.5752 H   0  0  0  0  0  0  0  0  0  0  0  0
   26.8274  -25.9582   65.5348 H   0  0  0  0  0  0  0  0  0  0  0  0
   22.5666  -26.2794   64.8784 H   0  0  0  0  0  0  0  0  0  0  0  0
   22.9635  -27.7767   62.9160 H   0  0  0  0  0  0  0  0  0  0  0  0
   24.6663  -31.0080   61.4150 H   0  0  0  0  0  0  0  0  0  0  0  0
   23.8216  -31.5189   59.9143 H   0  0  0  0  0  0  0  0  0  0  0  0
   25.6059  -31.3110   59.9143 H   0  0  0  0  0  0  0  0  0  0  0  0
   23.5833  -30.8447   57.4839 H   0  0  0  0  0  0  0  0  0  0  0  0
   22.5822  -29.5704   56.8930 H   0  0  0  0  0  0  0  0  0  0  0  0
   26.3163  -29.5026   57.6192 H   0  0  0  0  0  0  0  0  0  0  0  0
  1  2  1  0
  1  6  2  0
  1 20  1  0
  2  3  2  0
  2  8  1  0
  3  4  1  0
  4  5  2  0
  4 21  1  0
  5  6  1  0
  7 21  1  0
  8  9  2  0
  8 18  1  0
  9 17  1  0
  9 20  1  0
 10 11  1  0
 10 20  1  0
 10 22  2  0
 11 12  2  0
 11 16  1  0
 12 13  1  0
 13 14  2  0
 14 15  1  0
 14 25  1  0
 15 16  2  0
 18 19  1  0
 19 23  2  0
 19 24  1  0
  3 26  1  0
  5 27  1  0
  6 28  1  0
  7 29  1  0
  7 30  1  0
  7 31  1  0
 12 32  1  0
 13 33  1  0
 15 34  1  0
 16 35  1  0
 17 36  1  0
 17 37  1  0
 17 38  1  0
 18 39  1  0
 18 40  1  0
 24 41  1  0
A    1
C
A    2
C1
A    3
C2
A    4
C3
A    5
C4
A    6
C5
A    7
C6
A    8
C7
A    9
C8
A   10
C9
A   11
C10
A   12
C11
A   13
C12
A   14
C13
A   15
C14
A   16
C15
A   17
C16
A   18
C17
A   19
C18
A   20
N
A   21
O
A   22
O1
A   23
O2
A   24
O3
A   25
CL
M  END
