2BXT_C2D_H_1246
     RDKit          3D

 62 65  0  0  0  0  0  0  0  0999 V2000
   12.1720  -13.1210   13.0270 O   0  0  0  0  0  0  0  0  0  0  0  0
   16.4230   -8.3340   11.0040 Cl  0  0  0  0  0  0  0  0  0  0  0  0
    8.1380  -12.6370   15.9790 Cl  0  0  0  0  0  0  0  0  0  0  0  0
   17.7400  -10.7330   11.4800 C   0  0  0  0  0  0  0  0  0  0  0  0
   17.9060  -11.9740   12.1890 C   0  0  0  0  0  0  0  0  0  0  0  0
   16.6740   -9.8360   11.8280 C   0  0  0  0  0  0  0  0  0  0  0  0
   16.9910  -12.3030   13.2350 C   0  0  0  0  0  0  0  0  0  0  0  0
   15.7810  -10.1800   12.8680 C   0  0  0  0  0  0  0  0  0  0  0  0
   15.9530  -11.4110   13.5560 C   0  0  0  0  0  0  0  0  0  0  0  0
   16.8950  -13.6270   14.2040 S   0  0  0  0  0  0  0  0  0  0  0  0
   15.6100  -13.1120   15.0260 C   0  0  0  0  0  0  0  0  0  0  0  0
   15.1540  -11.8700   14.5810 C   0  0  0  0  0  0  0  0  0  0  0  0
   13.9720  -11.0570   15.0700 C   0  0  0  0  0  0  0  0  0  0  0  0
   13.2670  -11.6180   16.2400 N   0  0  0  0  0  0  0  0  0  0  0  0
   11.9170  -12.2650   16.1350 C   0  0  0  0  0  0  0  0  0  0  0  0
   10.9320  -11.7610   15.0440 C   0  0  0  0  0  0  0  0  0  0  0  0
    9.0200  -13.4190   14.7130 C   0  0  0  0  0  0  0  0  0  0  0  0
   10.3150  -12.9200   14.3470 N   0  0  0  0  0  0  0  0  0  0  0  0
    8.4900  -14.4800   14.0630 C   0  0  0  0  0  0  0  0  0  0  0  0
   11.0600  -13.5400   13.3280 C   0  0  0  0  0  0  0  0  0  0  0  0
    9.2660  -15.1550   12.9640 N   0  0  0  0  0  0  0  0  0  0  0  0
   10.4700  -14.7210   12.6170 C   0  0  0  0  0  0  0  0  0  0  0  0
   11.1940  -15.3270   11.6050 N   0  0  0  0  0  0  0  0  0  0  0  0
   10.8610  -16.4970   10.7460 C   0  0  0  0  0  0  0  0  0  0  0  0
   10.1250  -16.0740    9.4490 C   0  0  0  0  0  0  0  0  0  0  0  0
    7.7090  -16.1510   10.2640 C   0  0  0  0  0  0  0  0  0  0  0  0
    8.7970  -15.4260    9.7580 C   0  0  0  0  0  0  0  0  0  0  0  0
    6.5040  -15.4720   10.5520 C   0  0  0  0  0  0  0  0  0  0  0  0
    8.6570  -14.0420    9.5630 N   0  0  0  0  0  0  0  0  0  0  0  0
    6.3750  -14.0910   10.3410 C   0  0  0  0  0  0  0  0  0  0  0  0
    7.4620  -13.3670    9.8370 C   0  0  0  0  0  0  0  0  0  0  0  0
   12.6858  -12.9274   13.8508 H   0  0  0  0  0  0  0  0  0  0  0  0
   18.4331  -10.4701   10.6673 H   0  0  0  0  0  0  0  0  0  0  0  0
   18.7260  -12.6596   11.9291 H   0  0  0  0  0  0  0  0  0  0  0  0
   14.9603   -9.5008   13.1422 H   0  0  0  0  0  0  0  0  0  0  0  0
   15.1433  -13.6761   15.8470 H   0  0  0  0  0  0  0  0  0  0  0  0
   14.3361  -10.0547   15.3399 H   0  0  0  0  0  0  0  0  0  0  0  0
   13.2426  -11.0511   14.2466 H   0  0  0  0  0  0  0  0  0  0  0  0
   13.8954  -12.3306   16.6378 H   0  0  0  0  0  0  0  0  0  0  0  0
   12.0847  -13.3363   15.9501 H   0  0  0  0  0  0  0  0  0  0  0  0
   11.4219  -12.0063   17.0826 H   0  0  0  0  0  0  0  0  0  0  0  0
   10.1432  -11.1565   15.5156 H   0  0  0  0  0  0  0  0  0  0  0  0
   11.4818  -11.1492   14.3136 H   0  0  0  0  0  0  0  0  0  0  0  0
    8.5536  -12.7500   13.9748 H   0  0  0  0  0  0  0  0  0  0  0  0
    8.2840  -15.2475   14.8236 H   0  0  0  0  0  0  0  0  0  0  0  0
    7.6281  -14.0471   13.5341 H   0  0  0  0  0  0  0  0  0  0  0  0
   11.5145  -14.2132   14.0698 H   0  0  0  0  0  0  0  0  0  0  0  0
   12.1117  -14.8995   11.4153 H   0  0  0  0  0  0  0  0  0  0  0  0
   11.7928  -17.0140   10.4731 H   0  0  0  0  0  0  0  0  0  0  0  0
   10.1918  -17.1579   11.3164 H   0  0  0  0  0  0  0  0  0  0  0  0
   10.7530  -15.3587    8.8977 H   0  0  0  0  0  0  0  0  0  0  0  0
    9.9395  -16.9749    8.8456 H   0  0  0  0  0  0  0  0  0  0  0  0
    7.4704  -16.9304    9.5254 H   0  0  0  0  0  0  0  0  0  0  0  0
    8.0582  -16.4947   11.2489 H   0  0  0  0  0  0  0  0  0  0  0  0
    8.4576  -15.6325    8.7323 H   0  0  0  0  0  0  0  0  0  0  0  0
    5.7232  -15.9535    9.9450 H   0  0  0  0  0  0  0  0  0  0  0  0
    6.4422  -15.5518   11.6474 H   0  0  0  0  0  0  0  0  0  0  0  0
    9.3794  -13.5952   10.1456 H   0  0  0  0  0  0  0  0  0  0  0  0
    5.5426  -13.9513    9.6356 H   0  0  0  0  0  0  0  0  0  0  0  0
    6.2419  -13.6857   11.3549 H   0  0  0  0  0  0  0  0  0  0  0  0
    7.6958  -12.5826   10.5719 H   0  0  0  0  0  0  0  0  0  0  0  0
    7.1179  -13.0270    8.8491 H   0  0  0  0  0  0  0  0  0  0  0  0
  1 20  1  0
  2  6  1  0
  3 17  1  0
  4  5  2  0
  4  6  1  0
  5  7  1  0
  6  8  2  0
  7  9  2  0
  7 10  1  0
  8  9  1  0
  9 12  1  0
 10 11  1  0
 11 12  2  0
 12 13  1  0
 13 14  1  0
 14 15  1  0
 15 16  1  0
 16 18  1  0
 17 18  1  0
 17 19  1  0
 18 20  1  0
 19 21  1  0
 20 22  1  0
 21 22  2  0
 22 23  1  0
 23 24  1  0
 24 25  1  0
 25 27  1  0
 26 27  1  0
 26 28  1  0
 27 29  1  0
 28 30  1  0
 29 31  1  0
 30 31  1  0
  1 32  1  0
  4 33  1  0
  5 34  1  0
  8 35  1  0
 11 36  1  0
 13 37  1  0
 13 38  1  0
 14 39  1  0
 15 40  1  0
 15 41  1  0
 16 42  1  0
 16 43  1  0
 17 44  1  0
 19 45  1  0
 19 46  1  0
 20 47  1  0
 23 48  1  0
 24 49  1  0
 24 50  1  0
 25 51  1  0
 25 52  1  0
 26 53  1  0
 26 54  1  0
 27 55  1  0
 28 56  1  0
 28 57  1  0
 29 58  1  0
 30 59  1  0
 30 60  1  0
 31 61  1  0
 31 62  1  0
A    1
O1
A    2
CL2
A    3
CL3
A    4
C4
A    5
C5
A    6
C6
A    7
C7
A    8
C8
A    9
C9
A   10
S10
A   11
C11
A   12
C12
A   13
C13
A   14
N14
A   15
C15
A   16
C16
A   17
C17
A   18
N18
A   19
C19
A   20
C20
A   21
N21
A   22
C22
A   23
N23
A   24
C24
A   25
C25
A   26
C26
A   27
C27
A   28
C28
A   29
N29
A   30
C30
A   31
C31
M  END
