2BXU_C1D_H_1246
     RDKit          3D

 61 63  0  0  0  0  0  0  0  0999 V2000
    6.4780  -15.3240   10.8540 C   0  0  0  0  0  0  0  0  0  0  0  0
    7.6680  -16.0430   10.5970 N   0  0  0  0  0  0  0  0  0  0  0  0
    8.7030  -15.5060    9.8000 C   0  0  0  0  0  0  0  0  0  0  0  0
    8.5330  -14.2160    9.2490 C   0  0  0  0  0  0  0  0  0  0  0  0
    7.3440  -13.4990    9.5060 C   0  0  0  0  0  0  0  0  0  0  0  0
    6.3160  -14.0430   10.3050 C   0  0  0  0  0  0  0  0  0  0  0  0
    9.9860  -16.3030    9.5440 C   0  0  0  0  0  0  0  0  0  0  0  0
   10.6690  -16.7460   10.8490 C   0  0  0  0  0  0  0  0  0  0  0  0
    9.6920  -17.4090    8.8240 F   0  0  0  0  0  0  0  0  0  0  0  0
   10.8780  -15.5660    8.8430 F   0  0  0  0  0  0  0  0  0  0  0  0
   11.1960  -15.5770   11.6040 N   0  0  0  0  0  0  0  0  0  0  0  0
   10.5960  -14.9140   12.6740 C   0  0  0  0  0  0  0  0  0  0  0  0
   11.2160  -13.6760   13.2560 C   0  0  0  0  0  0  0  0  0  0  0  0
   10.5820  -13.0140   14.3540 N   0  0  0  0  0  0  0  0  0  0  0  0
    9.3540  -13.5530   14.8690 C   0  0  0  0  0  0  0  0  0  0  0  0
    8.8080  -14.6710   14.3300 C   0  0  0  0  0  0  0  0  0  0  0  0
    9.4720  -15.3660   13.1850 N   0  0  0  0  0  0  0  0  0  0  0  0
   11.2060  -11.7750   14.9370 C   0  0  0  0  0  0  0  0  0  0  0  0
   12.4770  -12.0280   15.8010 C   0  0  0  0  0  0  0  0  0  0  0  0
   13.5890  -12.7190   15.0930 N   0  0  0  0  0  0  0  0  0  0  0  0
   14.7690  -11.8430   15.2220 C   0  0  0  0  0  0  0  0  0  0  0  0
   15.6930  -11.6910   14.0010 C   0  0  0  0  0  0  0  0  0  0  0  0
   15.8260  -10.3840   13.5000 C   0  0  0  0  0  0  0  0  0  0  0  0
   16.6330  -10.0880   12.3890 C   0  0  0  0  0  0  0  0  0  0  0  0
   16.3490  -14.1870   13.7940 C   0  0  0  0  0  0  0  0  0  0  0  0
   17.3300  -11.1220   11.7540 C   0  0  0  0  0  0  0  0  0  0  0  0
   16.4060  -12.7420   13.3540 C   0  0  0  0  0  0  0  0  0  0  0  0
   12.2550  -13.2530   12.7870 O   0  0  0  0  0  0  0  0  0  0  0  0
   18.1420  -10.8360   10.6330 N   0  0  0  0  0  0  0  0  0  0  0  0
    8.5210  -12.8130   16.1890 Cl  0  0  0  0  0  0  0  0  0  0  0  0
   17.2100  -12.4330   12.2410 N   0  0  0  0  0  0  0  0  0  0  0  0
    5.6868  -15.7647   11.4784 H   0  0  0  0  0  0  0  0  0  0  0  0
    9.3221  -13.7730    8.6237 H   0  0  0  0  0  0  0  0  0  0  0  0
    7.2165  -12.4953    9.0743 H   0  0  0  0  0  0  0  0  0  0  0  0
    5.3973  -13.4688   10.4954 H   0  0  0  0  0  0  0  0  0  0  0  0
    9.9367  -17.2769   11.4750 H   0  0  0  0  0  0  0  0  0  0  0  0
   11.5120  -17.4053   10.5946 H   0  0  0  0  0  0  0  0  0  0  0  0
   12.1114  -15.2151   11.3006 H   0  0  0  0  0  0  0  0  0  0  0  0
   10.6416  -13.0570   12.5511 H   0  0  0  0  0  0  0  0  0  0  0  0
    7.8681  -15.0702   14.7389 H   0  0  0  0  0  0  0  0  0  0  0  0
   11.4836  -11.1087   14.1069 H   0  0  0  0  0  0  0  0  0  0  0  0
   10.4550  -11.3383   15.6117 H   0  0  0  0  0  0  0  0  0  0  0  0
   12.8492  -11.0550   16.1542 H   0  0  0  0  0  0  0  0  0  0  0  0
   12.1672  -12.6980   16.6165 H   0  0  0  0  0  0  0  0  0  0  0  0
   13.7748  -13.6340   15.5279 H   0  0  0  0  0  0  0  0  0  0  0  0
   14.4038  -10.8387   15.4828 H   0  0  0  0  0  0  0  0  0  0  0  0
   15.3951  -12.3355   15.9806 H   0  0  0  0  0  0  0  0  0  0  0  0
   14.8366  -11.8604   13.3318 H   0  0  0  0  0  0  0  0  0  0  0  0
   14.8107  -10.0499   13.2400 H   0  0  0  0  0  0  0  0  0  0  0  0
   16.3646   -9.8794   14.3157 H   0  0  0  0  0  0  0  0  0  0  0  0
   15.9807   -9.6285   11.6319 H   0  0  0  0  0  0  0  0  0  0  0  0
   17.4297   -9.4550   12.8069 H   0  0  0  0  0  0  0  0  0  0  0  0
   16.3471  -14.2359   14.8929 H   0  0  0  0  0  0  0  0  0  0  0  0
   15.4318  -14.6529   13.4046 H   0  0  0  0  0  0  0  0  0  0  0  0
   17.2267  -14.7237   13.4046 H   0  0  0  0  0  0  0  0  0  0  0  0
   16.4710  -11.2922   11.0883 H   0  0  0  0  0  0  0  0  0  0  0  0
   17.2629  -12.5722   14.0225 H   0  0  0  0  0  0  0  0  0  0  0  0
   12.8704  -13.0024   13.5209 H   0  0  0  0  0  0  0  0  0  0  0  0
   19.0657  -10.5107   10.9522 H   0  0  0  0  0  0  0  0  0  0  0  0
   18.2554  -11.6877   10.0650 H   0  0  0  0  0  0  0  0  0  0  0  0
   16.8513  -12.9998   11.4593 H   0  0  0  0  0  0  0  0  0  0  0  0
  1  2  2  0
  1  6  1  0
  2  3  1  0
  3  4  2  0
  3  7  1  0
  4  5  1  0
  5  6  2  0
  7  8  1  0
  7  9  1  0
  7 10  1  0
  8 11  1  0
 11 12  1  0
 12 13  1  0
 12 17  2  0
 13 14  1  0
 13 28  1  0
 14 15  1  0
 14 18  1  0
 15 16  2  0
 15 30  1  0
 16 17  1  0
 18 19  1  0
 19 20  1  0
 20 21  1  0
 21 22  1  0
 22 23  1  0
 22 27  1  0
 23 24  1  0
 24 26  1  0
 25 27  1  0
 26 29  1  0
 26 31  1  0
 27 31  1  0
  1 32  1  0
  4 33  1  0
  5 34  1  0
  6 35  1  0
  8 36  1  0
  8 37  1  0
 11 38  1  0
 13 39  1  0
 16 40  1  0
 18 41  1  0
 18 42  1  0
 19 43  1  0
 19 44  1  0
 20 45  1  0
 21 46  1  0
 21 47  1  0
 22 48  1  0
 23 49  1  0
 23 50  1  0
 24 51  1  0
 24 52  1  0
 25 53  1  0
 25 54  1  0
 25 55  1  0
 26 56  1  0
 27 57  1  0
 28 58  1  0
 29 59  1  0
 29 60  1  0
 31 61  1  0
A    1
C1
A    2
N2
A    3
C3
A    4
C4
A    5
C5
A    6
C6
A    7
C11
A    8
C12
A    9
F13
A   10
F14
A   11
N15
A   12
C18
A   13
C19
A   14
N20
A   15
C21
A   16
C22
A   17
N23
A   18
C24
A   19
C25
A   20
N28
A   21
C29
A   22
C30
A   23
C33
A   24
C34
A   25
C2
A   26
C35
A   27
C37
A   28
O42
A   29
N6
A   30
CL43
A   31
N29
M  END
