2BY4_AD4_A_1995
     RDKit          3D

137139  0  0  0  0  0  0  0  0999 V2000
   -4.1100   10.7710   91.2350 C   0  0  0  0  0  0  0  0  0  0  0  0
   -3.3440   10.9050   89.8720 C   0  0  0  0  0  0  0  0  0  0  0  0
   -4.2870   10.7120   88.6120 C   0  0  0  0  0  0  0  0  0  0  0  0
   -5.3220   11.8960   88.3330 C   0  0  0  0  0  0  0  0  0  0  0  0
   -6.2410   11.7750   87.0920 C   0  0  0  0  0  0  0  0  0  0  0  0
   -5.6700   11.3660   85.6730 C   0  0  0  0  0  0  0  0  0  0  0  0
   -4.8000    9.9960   85.5050 C   0  0  0  0  0  0  0  0  0  0  0  0
   -4.5700    9.6070   83.9970 C   0  0  0  0  0  0  0  0  0  0  0  0
   -5.0610    8.2580   83.7250 O   0  0  0  0  0  0  0  0  0  0  0  0
   -5.5640    8.1120   82.3980 C   0  0  0  0  0  0  0  0  0  0  0  0
   -6.2760    8.9190   81.7980 O   0  0  0  0  0  0  0  0  0  0  0  0
   -5.0630    6.7720   81.7870 C   0  0  0  0  0  0  0  0  0  0  0  0
   -4.2210    6.9040   80.4920 C   0  0  0  0  0  0  0  0  0  0  0  0
   -4.9400    6.7660   79.1070 C   0  0  0  0  0  0  0  0  0  0  0  0
   -4.5160    7.8510   78.0560 C   0  0  0  0  0  0  0  0  0  0  0  0
   -3.4440    7.3640   77.0330 C   0  0  0  0  0  0  0  0  0  0  0  0
   -3.9680    7.0010   75.6420 C   0  0  0  0  0  0  0  0  0  0  0  0
   -3.5970    5.5400   75.3440 C   0  0  0  0  0  0  0  0  0  0  0  0
   -3.0800    9.5460   83.7100 C   0  0  0  0  0  0  0  0  0  0  0  0
   -2.9730   10.7020   82.7230 O   0  0  0  0  0  0  0  0  0  0  0  0
   -2.1940   10.5790   81.6330 C   0  0  0  0  0  0  0  0  0  0  0  0
   -1.3080    9.6200   81.4300 O   0  0  0  0  0  0  0  0  0  0  0  0
   -2.3990   11.7050   80.5400 C   0  0  0  0  0  0  0  0  0  0  0  0
   -2.4710   11.0670   79.1970 C   0  0  0  0  0  0  0  0  0  0  0  0
   -2.5070   13.0320   80.5990 C   0  0  0  0  0  0  0  0  0  0  0  0
   -2.4720   13.9640   81.7760 C   0  0  0  0  0  0  0  0  0  0  0  0
   -2.4410    9.8410   85.0510 C   0  0  0  0  0  0  0  0  0  0  0  0
   -0.9370    9.8350   85.1160 C   0  0  0  0  0  0  0  0  0  0  0  0
   -3.3720   10.0890   86.0510 C   0  0  0  0  0  0  0  0  0  0  0  0
   -3.1400   10.4340   87.5840 C   0  0  0  0  0  0  0  0  0  0  0  0
   -2.4460    9.3810   88.2850 O   0  0  0  0  0  0  0  0  0  0  0  0
   -2.2960    9.8130   89.5680 C   0  0  0  0  0  0  0  0  0  0  0  0
   -1.4550    9.3990   90.3700 O   0  0  0  0  0  0  0  0  0  0  0  0
   -4.9390   12.6420   85.1000 C   0  0  0  0  0  0  0  0  0  0  0  0
   -6.8280   11.4120   84.7440 O   0  0  0  0  0  0  0  0  0  0  0  0
   -7.9230   10.6750   84.5530 C   0  0  0  0  0  0  0  0  0  0  0  0
   -7.9440    9.4660   84.4270 O   0  0  0  0  0  0  0  0  0  0  0  0
   -9.0990   11.5470   84.5180 C   0  0  0  0  0  0  0  0  0  0  0  0
   -4.5650   13.1670   88.2860 O   0  0  0  0  0  0  0  0  0  0  0  0
   -4.7770   14.1740   89.2710 C   0  0  0  0  0  0  0  0  0  0  0  0
   -5.5580   14.1560   90.2380 O   0  0  0  0  0  0  0  0  0  0  0  0
   -3.8670   15.3270   88.9620 C   0  0  0  0  0  0  0  0  0  0  0  0
   -3.4930   16.0590   90.2570 C   0  0  0  0  0  0  0  0  0  0  0  0
   -1.9730   15.9280   90.4160 C   0  0  0  0  0  0  0  0  0  0  0  0
   -5.0690    9.4540   88.7080 O   0  0  0  0  0  0  0  0  0  0  0  0
   -2.4760   12.0940   89.9460 O   0  0  0  0  0  0  0  0  0  0  0  0
    7.7400   23.4680   84.9100 C   0  0  0  0  0  0  0  0  0  0  0  0
    6.9140   22.6670   83.9060 C   0  0  0  0  0  0  0  0  0  0  0  0
    7.7230   21.3980   83.5050 C   0  0  0  0  0  0  0  0  0  0  0  0
    6.6480   23.5550   82.6650 C   0  0  0  0  0  0  0  0  0  0  0  0
    5.6350   22.2960   84.5580 O   0  0  0  0  0  0  0  0  0  0  0  0
    4.8880   21.3860   83.8230 C   0  0  0  0  0  0  0  0  0  0  0  0
    5.0690   21.3250   82.6040 O   0  0  0  0  0  0  0  0  0  0  0  0
    4.0010   20.6060   84.4320 N   0  0  0  0  0  0  0  0  0  0  0  0
    3.7510   20.6400   85.8720 C   0  0  0  0  0  0  0  0  0  0  0  0
    2.2420   20.8640   86.1260 C   0  0  0  0  0  0  0  0  0  0  0  0
    1.9580   21.0440   87.6370 C   0  0  0  0  0  0  0  0  0  0  0  0
    0.5860   20.4790   88.0710 C   0  0  0  0  0  0  0  0  0  0  0  0
    0.6250   18.9550   88.3630 C   0  0  0  0  0  0  0  0  0  0  0  0
    0.3060   18.6250   89.8440 C   0  0  0  0  0  0  0  0  0  0  0  0
   -1.1860   18.3200   90.0820 C   0  0  0  0  0  0  0  0  0  0  0  0
   -1.3760   17.1730   91.0930 C   0  0  0  0  0  0  0  0  0  0  0  0
   -3.4017   10.8949   92.0674 H   0  0  0  0  0  0  0  0  0  0  0  0
   -4.8874   11.5468   91.2965 H   0  0  0  0  0  0  0  0  0  0  0  0
   -4.5779    9.7774   91.2965 H   0  0  0  0  0  0  0  0  0  0  0  0
   -6.0386   11.8463   89.1661 H   0  0  0  0  0  0  0  0  0  0  0  0
   -7.0065   11.0268   87.3452 H   0  0  0  0  0  0  0  0  0  0  0  0
   -6.5534   12.8169   86.9283 H   0  0  0  0  0  0  0  0  0  0  0  0
   -5.4081    9.2673   86.0610 H   0  0  0  0  0  0  0  0  0  0  0  0
   -5.0930   10.3577   83.3863 H   0  0  0  0  0  0  0  0  0  0  0  0
   -4.4455    6.2646   82.5428 H   0  0  0  0  0  0  0  0  0  0  0  0
   -5.9665    6.2117   81.5047 H   0  0  0  0  0  0  0  0  0  0  0  0
   -3.7485    7.8971   80.5134 H   0  0  0  0  0  0  0  0  0  0  0  0
   -3.5423    6.0391   80.5267 H   0  0  0  0  0  0  0  0  0  0  0  0
   -4.7061    5.7739   78.6933 H   0  0  0  0  0  0  0  0  0  0  0  0
   -6.0154    6.9056   79.2918 H   0  0  0  0  0  0  0  0  0  0  0  0
   -5.4120    8.1587   77.4969 H   0  0  0  0  0  0  0  0  0  0  0  0
   -4.0618    8.6784   78.6208 H   0  0  0  0  0  0  0  0  0  0  0  0
   -2.7009    8.1664   76.9150 H   0  0  0  0  0  0  0  0  0  0  0  0
   -3.0339    6.4326   77.4504 H   0  0  0  0  0  0  0  0  0  0  0  0
   -5.0614    7.1184   75.6157 H   0  0  0  0  0  0  0  0  0  0  0  0
   -3.5201    7.6639   74.8870 H   0  0  0  0  0  0  0  0  0  0  0  0
   -3.4590    4.9964   76.2903 H   0  0  0  0  0  0  0  0  0  0  0  0
   -4.4037    5.0678   74.7642 H   0  0  0  0  0  0  0  0  0  0  0  0
   -2.6627    5.5099   74.7642 H   0  0  0  0  0  0  0  0  0  0  0  0
   -2.6267    8.6251   83.3145 H   0  0  0  0  0  0  0  0  0  0  0  0
   -2.5937    9.9801   79.3135 H   0  0  0  0  0  0  0  0  0  0  0  0
   -3.3288   11.4754   78.6425 H   0  0  0  0  0  0  0  0  0  0  0  0
   -1.5438   11.2740   78.6425 H   0  0  0  0  0  0  0  0  0  0  0  0
   -2.6443   13.5257   79.6257 H   0  0  0  0  0  0  0  0  0  0  0  0
   -2.4940   13.3793   82.7075 H   0  0  0  0  0  0  0  0  0  0  0  0
   -1.5507   14.5640   81.7413 H   0  0  0  0  0  0  0  0  0  0  0  0
   -3.3457   14.6314   81.7413 H   0  0  0  0  0  0  0  0  0  0  0  0
   -0.6155    9.8337   86.1680 H   0  0  0  0  0  0  0  0  0  0  0  0
   -0.5519    8.9353   84.6138 H   0  0  0  0  0  0  0  0  0  0  0  0
   -0.5447   10.7316   84.6138 H   0  0  0  0  0  0  0  0  0  0  0  0
   -2.6450   11.3912   87.3632 H   0  0  0  0  0  0  0  0  0  0  0  0
   -4.5820   13.2652   85.9332 H   0  0  0  0  0  0  0  0  0  0  0  0
   -4.0834   12.3286   84.4837 H   0  0  0  0  0  0  0  0  0  0  0  0
   -5.6421   13.2216   84.4837 H   0  0  0  0  0  0  0  0  0  0  0  0
   -9.4134   11.7801   85.5460 H   0  0  0  0  0  0  0  0  0  0  0  0
   -8.8485   12.4794   83.9908 H   0  0  0  0  0  0  0  0  0  0  0  0
   -9.9184   11.0365   83.9908 H   0  0  0  0  0  0  0  0  0  0  0  0
   -2.9532   14.9510   88.4787 H   0  0  0  0  0  0  0  0  0  0  0  0
   -4.3840   16.0256   88.2877 H   0  0  0  0  0  0  0  0  0  0  0  0
   -3.7767   17.1196   90.1882 H   0  0  0  0  0  0  0  0  0  0  0  0
   -4.0192   15.6271   91.1210 H   0  0  0  0  0  0  0  0  0  0  0  0
   -1.7514   15.0437   91.0315 H   0  0  0  0  0  0  0  0  0  0  0  0
   -1.5254   15.8264   89.4163 H   0  0  0  0  0  0  0  0  0  0  0  0
   -5.2110    9.2256   89.6608 H   0  0  0  0  0  0  0  0  0  0  0  0
   -2.3093   12.3223   90.8948 H   0  0  0  0  0  0  0  0  0  0  0  0
    7.4488   23.1856   85.9325 H   0  0  0  0  0  0  0  0  0  0  0  0
    8.8083   23.2529   84.7604 H   0  0  0  0  0  0  0  0  0  0  0  0
    7.5578   24.5424   84.7604 H   0  0  0  0  0  0  0  0  0  0  0  0
    8.0570   20.8741   84.4127 H   0  0  0  0  0  0  0  0  0  0  0  0
    7.0844   20.7290   82.9095 H   0  0  0  0  0  0  0  0  0  0  0  0
    8.5990   21.6946   82.9095 H   0  0  0  0  0  0  0  0  0  0  0  0
    6.3466   24.5611   82.9919 H   0  0  0  0  0  0  0  0  0  0  0  0
    7.5646   23.6250   82.0609 H   0  0  0  0  0  0  0  0  0  0  0  0
    5.8439   23.1095   82.0609 H   0  0  0  0  0  0  0  0  0  0  0  0
    3.4609   19.9421   83.8589 H   0  0  0  0  0  0  0  0  0  0  0  0
    4.0610   19.6848   86.3210 H   0  0  0  0  0  0  0  0  0  0  0  0
    4.3259   21.4609   86.3255 H   0  0  0  0  0  0  0  0  0  0  0  0
    1.9161   21.7665   85.5881 H   0  0  0  0  0  0  0  0  0  0  0  0
    1.6901   19.9829   85.7667 H   0  0  0  0  0  0  0  0  0  0  0  0
    2.7448   20.5257   88.2047 H   0  0  0  0  0  0  0  0  0  0  0  0
    1.9452   22.1250   87.8404 H   0  0  0  0  0  0  0  0  0  0  0  0
    0.2633   21.0029   88.9828 H   0  0  0  0  0  0  0  0  0  0  0  0
   -0.1146   20.6375   87.2379 H   0  0  0  0  0  0  0  0  0  0  0  0
   -0.1160   18.4542   87.7226 H   0  0  0  0  0  0  0  0  0  0  0  0
    1.6454   18.6011   88.1544 H   0  0  0  0  0  0  0  0  0  0  0  0
    0.8960   17.7460   90.1428 H   0  0  0  0  0  0  0  0  0  0  0  0
    0.5614   19.5119   90.4425 H   0  0  0  0  0  0  0  0  0  0  0  0
   -1.6775   19.2239   90.4711 H   0  0  0  0  0  0  0  0  0  0  0  0
   -1.6313   18.0120   89.1245 H   0  0  0  0  0  0  0  0  0  0  0  0
   -2.0546   17.5073   91.8915 H   0  0  0  0  0  0  0  0  0  0  0  0
   -0.3921   16.9066   91.5064 H   0  0  0  0  0  0  0  0  0  0  0  0
  1  2  1  0
  2  3  1  0
  2 32  1  0
  2 46  1  0
  3  4  1  0
  3 30  1  0
  3 45  1  0
  4  5  1  0
  4 39  1  0
  5  6  1  0
  6  7  1  0
  6 34  1  0
  6 35  1  0
  7  8  1  0
  7 29  1  0
  8  9  1  0
  8 19  1  0
  9 10  1  0
 10 11  2  0
 10 12  1  0
 12 13  1  0
 13 14  1  0
 14 15  1  0
 15 16  1  0
 16 17  1  0
 17 18  1  0
 19 20  1  0
 19 27  1  0
 20 21  1  0
 21 22  2  0
 21 23  1  0
 23 24  1  0
 23 25  2  0
 25 26  1  0
 27 28  1  0
 27 29  2  0
 29 30  1  0
 30 31  1  0
 31 32  1  0
 32 33  2  0
 35 36  1  0
 36 37  2  0
 36 38  1  0
 39 40  1  0
 40 41  2  0
 40 42  1  0
 42 43  1  0
 43 44  1  0
 44 62  1  0
 47 48  1  0
 48 49  1  0
 48 50  1  0
 48 51  1  0
 51 52  1  0
 52 53  2  0
 52 54  1  0
 54 55  1  0
 55 56  1  0
 56 57  1  0
 57 58  1  0
 58 59  1  0
 59 60  1  0
 60 61  1  0
 61 62  1  0
  1 63  1  0
  1 64  1  0
  1 65  1  0
  4 66  1  0
  5 67  1  0
  5 68  1  0
  7 69  1  0
  8 70  1  0
 12 71  1  0
 12 72  1  0
 13 73  1  0
 13 74  1  0
 14 75  1  0
 14 76  1  0
 15 77  1  0
 15 78  1  0
 16 79  1  0
 16 80  1  0
 17 81  1  0
 17 82  1  0
 18 83  1  0
 18 84  1  0
 18 85  1  0
 19 86  1  0
 24 87  1  0
 24 88  1  0
 24 89  1  0
 25 90  1  0
 26 91  1  0
 26 92  1  0
 26 93  1  0
 28 94  1  0
 28 95  1  0
 28 96  1  0
 30 97  1  0
 34 98  1  0
 34 99  1  0
 34100  1  0
 38101  1  0
 38102  1  0
 38103  1  0
 42104  1  0
 42105  1  0
 43106  1  0
 43107  1  0
 44108  1  0
 44109  1  0
 45110  1  0
 46111  1  0
 47112  1  0
 47113  1  0
 47114  1  0
 49115  1  0
 49116  1  0
 49117  1  0
 50118  1  0
 50119  1  0
 50120  1  0
 54121  1  0
 55122  1  0
 55123  1  0
 56124  1  0
 56125  1  0
 57126  1  0
 57127  1  0
 58128  1  0
 58129  1  0
 59130  1  0
 59131  1  0
 60132  1  0
 60133  1  0
 61134  1  0
 61135  1  0
 62136  1  0
 62137  1  0
A    1
C34
A    2
C11
A    3
C7
A    4
C8
A    5
C9
A    6
C10
A    7
C1
A    8
C2
A    9
O1
A   10
C13
A   11
O2
A   12
C14
A   13
C15
A   14
C16
A   15
C17
A   16
C18
A   17
C19
A   18
C20
A   19
C3
A   20
O3
A   21
C21
A   22
O4
A   23
C22
A   24
C23
A   25
C24
A   26
C25
A   27
C4
A   28
C26
A   29
C5
A   30
C6
A   31
O5
A   32
C12
A   33
O12
A   34
C31
A   35
O9
A   36
C32
A   37
O10
A   38
C33
A   39
O7
A   40
C27
A   41
O8
A   42
C28
A   43
C29
A   44
C30
A   45
O6
A   46
O11
A   47
C57
A   48
C56
A   49
C55
A   50
C54
A   51
O2T
A   52
C53
A   53
O1T
A   54
N1T
A   55
C52
A   56
C51
A   57
C50
A   58
C49
A   59
C48
A   60
C47
A   61
C46
A   62
C45
M  END
