2BYH_2D7_A_1226
     RDKit          3D

 40 42  0  0  0  0  0  0  0  0999 V2000
    5.6560   -2.4880    5.5440 O   0  0  0  0  0  0  0  0  0  0  0  0
    4.7820   -2.4710    6.3870 C   0  0  0  0  0  0  0  0  0  0  0  0
    3.9620   -3.6990    6.6910 C   0  0  0  0  0  0  0  0  0  0  0  0
    4.5170   -1.2360    7.1850 C   0  0  0  0  0  0  0  0  0  0  0  0
    3.5280   -1.2370    8.1690 C   0  0  0  0  0  0  0  0  0  0  0  0
    3.2570   -0.0870    8.9010 C   0  0  0  0  0  0  0  0  0  0  0  0
    5.2270   -0.0490    6.9600 C   0  0  0  0  0  0  0  0  0  0  0  0
    4.9460    1.0980    7.6980 C   0  0  0  0  0  0  0  0  0  0  0  0
    3.9150    1.1240    8.6270 C   0  0  0  0  0  0  0  0  0  0  0  0
    3.7560    2.2280    9.3850 N   0  0  0  0  0  0  0  0  0  0  0  0
    2.8530    2.5610   10.3120 C   0  0  0  0  0  0  0  0  0  0  0  0
    1.8700    1.8370   10.5490 O   0  0  0  0  0  0  0  0  0  0  0  0
    3.0700    3.7810   11.1680 C   0  0  0  0  0  0  0  0  0  0  0  0
    2.1150    4.6050   11.7260 C   0  0  0  0  0  0  0  0  0  0  0  0
    2.7820    5.4630   12.5070 N   0  0  0  0  0  0  0  0  0  0  0  0
    4.0790    5.2510   12.5160 N   0  0  0  0  0  0  0  0  0  0  0  0
    4.3160    4.1910   11.7700 C   0  0  0  0  0  0  0  0  0  0  0  0
    5.7090    3.6640   11.5610 C   0  0  0  0  0  0  0  0  0  0  0  0
    5.9130    2.3050   11.3540 C   0  0  0  0  0  0  0  0  0  0  0  0
    7.1660    1.8100   11.1080 C   0  0  0  0  0  0  0  0  0  0  0  0
    7.4110    0.0810   10.8860 Cl  0  0  0  0  0  0  0  0  0  0  0  0
    8.2720    2.6270   11.0890 C   0  0  0  0  0  0  0  0  0  0  0  0
    9.4540    2.0890   10.8230 O   0  0  0  0  0  0  0  0  0  0  0  0
    8.1150    3.9700   11.3270 C   0  0  0  0  0  0  0  0  0  0  0  0
    6.8420    4.5040   11.5730 C   0  0  0  0  0  0  0  0  0  0  0  0
    6.7700    5.8180   11.8090 O   0  0  0  0  0  0  0  0  0  0  0  0
    3.8787   -3.8237    7.7807 H   0  0  0  0  0  0  0  0  0  0  0  0
    2.9576   -3.5859    6.2570 H   0  0  0  0  0  0  0  0  0  0  0  0
    4.4514   -4.5834    6.2570 H   0  0  0  0  0  0  0  0  0  0  0  0
    2.9575   -2.1563    8.3673 H   0  0  0  0  0  0  0  0  0  0  0  0
    2.5131   -0.1256    9.7104 H   0  0  0  0  0  0  0  0  0  0  0  0
    6.0145   -0.0230    6.1924 H   0  0  0  0  0  0  0  0  0  0  0  0
    5.5534    2.0017    7.5416 H   0  0  0  0  0  0  0  0  0  0  0  0
    4.4672    2.9539    9.2172 H   0  0  0  0  0  0  0  0  0  0  0  0
    1.0279    4.5651   11.5626 H   0  0  0  0  0  0  0  0  0  0  0  0
    4.7832    5.8122   13.0160 H   0  0  0  0  0  0  0  0  0  0  0  0
    5.0555    1.6169   11.3882 H   0  0  0  0  0  0  0  0  0  0  0  0
   10.0519    1.8168   11.5636 H   0  0  0  0  0  0  0  0  0  0  0  0
    8.9938    4.6316   11.3247 H   0  0  0  0  0  0  0  0  0  0  0  0
    6.7516    6.1534   12.7403 H   0  0  0  0  0  0  0  0  0  0  0  0
  1  2  2  0
  2  3  1  0
  2  4  1  0
  4  5  2  0
  4  7  1  0
  5  6  1  0
  6  9  2  0
  7  8  2  0
  8  9  1  0
  9 10  1  0
 10 11  1  0
 11 12  2  0
 11 13  1  0
 13 14  1  0
 13 17  2  0
 14 15  2  0
 15 16  1  0
 16 17  1  0
 17 18  1  0
 18 19  2  0
 18 25  1  0
 19 20  1  0
 20 21  1  0
 20 22  2  0
 22 23  1  0
 22 24  1  0
 24 25  2  0
 25 26  1  0
  3 27  1  0
  3 28  1  0
  3 29  1  0
  5 30  1  0
  6 31  1  0
  7 32  1  0
  8 33  1  0
 10 34  1  0
 14 35  1  0
 16 36  1  0
 19 37  1  0
 23 38  1  0
 24 39  1  0
 26 40  1  0
A    1
O6
A    2
C17
A    3
C18
A    4
C14
A    5
C15
A    6
C16
A    7
C13
A    8
C12
A    9
C11
A   10
N3
A   11
C10
A   12
O5
A   13
C8
A   14
C9
A   15
N1
A   16
N2
A   17
C7
A   18
C5
A   19
C6
A   20
C1
A   21
CL1
A   22
C2
A   23
O2
A   24
C3
A   25
C4
A   26
O4
M  END
