2BZ5_AB4_A_1226
     RDKit          3D

 45 48  0  0  0  0  0  0  0  0999 V2000
   30.7790    5.1300   47.6290 Cl  0  0  0  0  0  0  0  0  0  0  0  0
   32.0620    6.0630   48.3490 C   0  0  0  0  0  0  0  0  0  0  0  0
   32.8640    6.7680   47.4550 C   0  0  0  0  0  0  0  0  0  0  0  0
   33.9220    7.5180   47.9410 C   0  0  0  0  0  0  0  0  0  0  0  0
   34.2150    7.5640   49.3040 C   0  0  0  0  0  0  0  0  0  0  0  0
   35.5620    8.5580   49.8150 Cl  0  0  0  0  0  0  0  0  0  0  0  0
   33.4020    6.8580   50.1980 C   0  0  0  0  0  0  0  0  0  0  0  0
   32.3100    6.1140   49.7320 C   0  0  0  0  0  0  0  0  0  0  0  0
   31.3230    5.1880   50.9100 S   0  0  0  0  0  0  0  0  0  0  0  0
   31.9200    5.4920   52.2090 O   0  0  0  0  0  0  0  0  0  0  0  0
   31.4600    3.7320   50.5550 O   0  0  0  0  0  0  0  0  0  0  0  0
   29.7300    5.6210   50.7910 N   0  0  0  0  0  0  0  0  0  0  0  0
   29.2480    6.7910   51.2040 C   0  0  0  0  0  0  0  0  0  0  0  0
   29.2220    7.8510   50.2890 C   0  0  0  0  0  0  0  0  0  0  0  0
   28.7640    6.9670   52.5150 C   0  0  0  0  0  0  0  0  0  0  0  0
   28.2670    8.2300   52.9010 C   0  0  0  0  0  0  0  0  0  0  0  0
   28.2580    9.3110   51.9760 C   0  0  0  0  0  0  0  0  0  0  0  0
   27.7650   10.5350   52.3710 O   0  0  0  0  0  0  0  0  0  0  0  0
   28.7230    9.1260   50.6550 C   0  0  0  0  0  0  0  0  0  0  0  0
   28.7470   10.1810   49.6850 C   0  0  0  0  0  0  0  0  0  0  0  0
   29.9620   10.7290   49.1790 C   0  0  0  0  0  0  0  0  0  0  0  0
   31.2260   10.2620   49.5750 C   0  0  0  0  0  0  0  0  0  0  0  0
   32.4330   10.8150   49.1200 C   0  0  0  0  0  0  0  0  0  0  0  0
   32.3990   11.8410   48.1580 C   0  0  0  0  0  0  0  0  0  0  0  0
   31.1460   12.3460   47.7200 C   0  0  0  0  0  0  0  0  0  0  0  0
   29.9440   11.7860   48.2280 C   0  0  0  0  0  0  0  0  0  0  0  0
   28.7110   12.2600   47.7590 C   0  0  0  0  0  0  0  0  0  0  0  0
   27.5090   11.7170   48.2540 C   0  0  0  0  0  0  0  0  0  0  0  0
   27.5330   10.7090   49.2060 C   0  0  0  0  0  0  0  0  0  0  0  0
   26.3400   10.2560   49.6440 O   0  0  0  0  0  0  0  0  0  0  0  0
   32.6594    6.7296   46.3749 H   0  0  0  0  0  0  0  0  0  0  0  0
   34.5446    8.0897   47.2371 H   0  0  0  0  0  0  0  0  0  0  0  0
   33.6221    6.8874   51.2754 H   0  0  0  0  0  0  0  0  0  0  0  0
   29.0736    4.9461   50.3732 H   0  0  0  0  0  0  0  0  0  0  0  0
   29.5959    7.6909   49.2670 H   0  0  0  0  0  0  0  0  0  0  0  0
   28.7733    6.1303   53.2290 H   0  0  0  0  0  0  0  0  0  0  0  0
   27.8848    8.3795   53.9216 H   0  0  0  0  0  0  0  0  0  0  0  0
   27.6797   10.7468   53.3343 H   0  0  0  0  0  0  0  0  0  0  0  0
   31.2724    9.4181   50.2791 H   0  0  0  0  0  0  0  0  0  0  0  0
   33.3944   10.4505   49.5110 H   0  0  0  0  0  0  0  0  0  0  0  0
   33.3350   12.2486   47.7485 H   0  0  0  0  0  0  0  0  0  0  0  0
   31.1067   13.1679   46.9900 H   0  0  0  0  0  0  0  0  0  0  0  0
   28.6819   13.0580   47.0025 H   0  0  0  0  0  0  0  0  0  0  0  0
   26.5450   12.0951   47.8829 H   0  0  0  0  0  0  0  0  0  0  0  0
   26.1625   10.1886   50.6156 H   0  0  0  0  0  0  0  0  0  0  0  0
  1  2  1  0
  2  3  2  0
  2  8  1  0
  3  4  1  0
  4  5  2  0
  5  6  1  0
  5  7  1  0
  7  8  2  0
  8  9  1  0
  9 10  2  0
  9 11  2  0
  9 12  1  0
 12 13  1  0
 13 14  2  0
 13 15  1  0
 14 19  1  0
 15 16  2  0
 16 17  1  0
 17 18  1  0
 17 19  2  0
 19 20  1  0
 20 21  1  0
 20 29  2  0
 21 22  2  0
 21 26  1  0
 22 23  1  0
 23 24  2  0
 24 25  1  0
 25 26  2  0
 26 27  1  0
 27 28  2  0
 28 29  1  0
 29 30  1  0
  3 31  1  0
  4 32  1  0
  7 33  1  0
 12 34  1  0
 14 35  1  0
 15 36  1  0
 16 37  1  0
 18 38  1  0
 22 39  1  0
 23 40  1  0
 24 41  1  0
 25 42  1  0
 27 43  1  0
 28 44  1  0
 30 45  1  0
A    1
CL22
A    2
C10
A    3
C19
A    4
C23
A    5
C20
A    6
CL24
A    7
C7
A    8
C2
A    9
S1
A   10
O8
A   11
O9
A   12
N5
A   13
C14
A   14
C12
A   15
C21
A   16
C18
A   17
C11
A   18
O25
A   19
C3
A   20
C4
A   21
C6
A   22
C27
A   23
C29
A   24
C30
A   25
C28
A   26
C15
A   27
C17
A   28
C16
A   29
C13
A   30
O26
M  END
