2C0O_L2G_A_1506
     RDKit          3D

 85 91  0  0  0  0  0  0  0  0999 V2000
    2.9600   63.1120   13.1380 C   0  0  0  0  0  0  0  0  0  0  0  0
    3.9680   63.9010   12.5360 C   0  0  0  0  0  0  0  0  0  0  0  0
    1.7120   63.5930   13.7790 C   0  0  0  0  0  0  0  0  0  0  0  0
    3.2810   61.8140   12.9140 N   0  0  0  0  0  0  0  0  0  0  0  0
    4.9090   63.0450   12.0100 C   0  0  0  0  0  0  0  0  0  0  0  0
    4.1730   65.2680   12.4440 C   0  0  0  0  0  0  0  0  0  0  0  0
    0.8310   64.3810   13.0540 C   0  0  0  0  0  0  0  0  0  0  0  0
    1.3660   63.1700   15.0500 C   0  0  0  0  0  0  0  0  0  0  0  0
    4.4370   61.8310   12.1490 N   0  0  0  0  0  0  0  0  0  0  0  0
    5.9940   63.5380   11.3690 N   0  0  0  0  0  0  0  0  0  0  0  0
    5.2890   65.7390   11.8220 N   0  0  0  0  0  0  0  0  0  0  0  0
    3.2780   66.1210   12.9560 N   0  0  0  0  0  0  0  0  0  0  0  0
   -0.3790   64.7980   13.6180 C   0  0  0  0  0  0  0  0  0  0  0  0
    0.1430   63.5880   15.6080 C   0  0  0  0  0  0  0  0  0  0  0  0
    5.0530   60.4790   11.9040 C   0  0  0  0  0  0  0  0  0  0  0  0
    6.2010   64.8700   11.3050 C   0  0  0  0  0  0  0  0  0  0  0  0
   -0.7050   64.4440   14.8840 C   0  0  0  0  0  0  0  0  0  0  0  0
   -1.2180   65.5770   12.9080 O   0  0  0  0  0  0  0  0  0  0  0  0
    5.4850   59.8440   13.2290 C   0  0  0  0  0  0  0  0  0  0  0  0
    4.0780   59.5490   11.1760 C   0  0  0  0  0  0  0  0  0  0  0  0
   -1.9570   64.8220   15.3980 N   0  0  0  0  0  0  0  0  0  0  0  0
   -0.7880   66.1220   11.6700 C   0  0  0  0  0  0  0  0  0  0  0  0
    6.1350   58.4770   12.9930 C   0  0  0  0  0  0  0  0  0  0  0  0
    4.7330   58.1750   10.9210 C   0  0  0  0  0  0  0  0  0  0  0  0
   -2.0980   65.3620   16.6060 C   0  0  0  0  0  0  0  0  0  0  0  0
    5.1790   57.5330   12.2510 C   0  0  0  0  0  0  0  0  0  0  0  0
   -3.4920   65.6730   17.0870 C   0  0  0  0  0  0  0  0  0  0  0  0
   -1.1420   65.5740   17.3410 O   0  0  0  0  0  0  0  0  0  0  0  0
    5.8480   56.2190   12.0270 N   0  0  0  0  0  0  0  0  0  0  0  0
   -3.8510   66.6410   18.0360 N   0  0  0  0  0  0  0  0  0  0  0  0
   -4.6610   65.0280   16.6740 C   0  0  0  0  0  0  0  0  0  0  0  0
    6.2480   56.0600   10.6380 C   0  0  0  0  0  0  0  0  0  0  0  0
    4.9450   55.1310   12.3780 C   0  0  0  0  0  0  0  0  0  0  0  0
   -5.2010   66.6080   18.2070 C   0  0  0  0  0  0  0  0  0  0  0  0
   -2.9350   67.5510   18.7270 C   0  0  0  0  0  0  0  0  0  0  0  0
   -5.6490   65.6570   17.3920 C   0  0  0  0  0  0  0  0  0  0  0  0
    7.0960   54.7920   10.5080 C   0  0  0  0  0  0  0  0  0  0  0  0
    5.7480   53.8470   12.4190 C   0  0  0  0  0  0  0  0  0  0  0  0
   -6.0950   67.3580   19.0180 C   0  0  0  0  0  0  0  0  0  0  0  0
   -7.0130   65.3780   17.3380 C   0  0  0  0  0  0  0  0  0  0  0  0
    6.2760   53.6670   11.0550 N   0  0  0  0  0  0  0  0  0  0  0  0
   -7.4530   67.0830   18.9860 C   0  0  0  0  0  0  0  0  0  0  0  0
   -7.9170   66.0980   18.1440 C   0  0  0  0  0  0  0  0  0  0  0  0
    6.1020   52.5220   10.3710 C   0  0  0  0  0  0  0  0  0  0  0  0
    5.3030   51.4370   11.0680 C   0  0  0  0  0  0  0  0  0  0  0  0
    6.5680   52.3620    9.2640 O   0  0  0  0  0  0  0  0  0  0  0  0
    1.0859   64.6806   12.0267 H   0  0  0  0  0  0  0  0  0  0  0  0
    2.0402   62.5132   15.6192 H   0  0  0  0  0  0  0  0  0  0  0  0
    3.1806   66.2138   13.9772 H   0  0  0  0  0  0  0  0  0  0  0  0
    2.6865   66.6847   12.3289 H   0  0  0  0  0  0  0  0  0  0  0  0
   -0.1493   63.2445   16.6113 H   0  0  0  0  0  0  0  0  0  0  0  0
    5.9366   60.6225   11.2647 H   0  0  0  0  0  0  0  0  0  0  0  0
    7.1149   65.2573   10.8308 H   0  0  0  0  0  0  0  0  0  0  0  0
    6.2089   60.5060   13.7267 H   0  0  0  0  0  0  0  0  0  0  0  0
    4.5944   59.7058   13.8597 H   0  0  0  0  0  0  0  0  0  0  0  0
    3.1780   59.4124   11.7936 H   0  0  0  0  0  0  0  0  0  0  0  0
    3.8087   60.0005   10.2097 H   0  0  0  0  0  0  0  0  0  0  0  0
   -2.7960   64.6758   14.8187 H   0  0  0  0  0  0  0  0  0  0  0  0
   -0.1166   66.9729   11.8574 H   0  0  0  0  0  0  0  0  0  0  0  0
   -0.2520   65.3514   11.0966 H   0  0  0  0  0  0  0  0  0  0  0  0
   -1.6622   66.4640   11.0966 H   0  0  0  0  0  0  0  0  0  0  0  0
    7.0463   58.6112   12.3918 H   0  0  0  0  0  0  0  0  0  0  0  0
    6.3787   58.0321   13.9691 H   0  0  0  0  0  0  0  0  0  0  0  0
    4.0064   57.5140   10.4259 H   0  0  0  0  0  0  0  0  0  0  0  0
    5.6161   58.3156   10.2805 H   0  0  0  0  0  0  0  0  0  0  0  0
    4.2790   57.3602   12.8594 H   0  0  0  0  0  0  0  0  0  0  0  0
   -4.7654   64.2100   15.9460 H   0  0  0  0  0  0  0  0  0  0  0  0
    5.3534   55.9726   10.0039 H   0  0  0  0  0  0  0  0  0  0  0  0
    6.8331   56.9342   10.3163 H   0  0  0  0  0  0  0  0  0  0  0  0
    4.4968   55.3220   13.3642 H   0  0  0  0  0  0  0  0  0  0  0  0
    4.1374   55.0517   11.6354 H   0  0  0  0  0  0  0  0  0  0  0  0
   -3.0528   67.4340   19.8144 H   0  0  0  0  0  0  0  0  0  0  0  0
   -1.8991   67.3141   18.4428 H   0  0  0  0  0  0  0  0  0  0  0  0
   -3.1651   68.5885   18.4428 H   0  0  0  0  0  0  0  0  0  0  0  0
    7.3387   54.6052    9.4515 H   0  0  0  0  0  0  0  0  0  0  0  0
    8.0442   54.8928   11.0564 H   0  0  0  0  0  0  0  0  0  0  0  0
    6.5727   53.9326   13.1419 H   0  0  0  0  0  0  0  0  0  0  0  0
    5.1324   52.9914   12.7337 H   0  0  0  0  0  0  0  0  0  0  0  0
   -5.7098   68.1556   19.6702 H   0  0  0  0  0  0  0  0  0  0  0  0
   -7.3855   64.5928   16.6637 H   0  0  0  0  0  0  0  0  0  0  0  0
   -8.1506   67.6444   19.6249 H   0  0  0  0  0  0  0  0  0  0  0  0
   -8.9929   65.8731   18.1004 H   0  0  0  0  0  0  0  0  0  0  0  0
    5.3924   51.5584   12.1576 H   0  0  0  0  0  0  0  0  0  0  0  0
    4.2454   51.5155   10.7759 H   0  0  0  0  0  0  0  0  0  0  0  0
    5.6918   50.4503   10.7759 H   0  0  0  0  0  0  0  0  0  0  0  0
  1  2  1  0
  1  3  1  0
  1  4  2  0
  2  5  2  0
  2  6  1  0
  3  7  2  0
  3  8  1  0
  4  9  1  0
  5  9  1  0
  5 10  1  0
  6 11  2  0
  6 12  1  0
  7 13  1  0
  8 14  2  0
  9 15  1  0
 10 16  2  0
 11 16  1  0
 13 17  2  0
 13 18  1  0
 14 17  1  0
 15 19  1  0
 15 20  1  0
 17 21  1  0
 18 22  1  0
 19 23  1  0
 20 24  1  0
 21 25  1  0
 23 26  1  0
 24 26  1  0
 25 27  1  0
 25 28  2  0
 26 29  1  0
 27 30  1  0
 27 31  2  0
 29 32  1  0
 29 33  1  0
 30 34  1  0
 30 35  1  0
 31 36  1  0
 32 37  1  0
 33 38  1  0
 34 36  2  0
 34 39  1  0
 36 40  1  0
 37 41  1  0
 38 41  1  0
 39 42  2  0
 40 43  2  0
 41 44  1  0
 42 43  1  0
 44 45  1  0
 44 46  2  0
  7 47  1  0
  8 48  1  0
 12 49  1  0
 12 50  1  0
 14 51  1  0
 15 52  1  0
 16 53  1  0
 19 54  1  0
 19 55  1  0
 20 56  1  0
 20 57  1  0
 21 58  1  0
 22 59  1  0
 22 60  1  0
 22 61  1  0
 23 62  1  0
 23 63  1  0
 24 64  1  0
 24 65  1  0
 26 66  1  0
 31 67  1  0
 32 68  1  0
 32 69  1  0
 33 70  1  0
 33 71  1  0
 35 72  1  0
 35 73  1  0
 35 74  1  0
 37 75  1  0
 37 76  1  0
 38 77  1  0
 38 78  1  0
 39 79  1  0
 40 80  1  0
 42 81  1  0
 43 82  1  0
 45 83  1  0
 45 84  1  0
 45 85  1  0
A    1
C1
A    2
C2
A    3
C3
A    4
N1
A    5
C4
A    6
C5
A    7
C6
A    8
C7
A    9
N2
A   10
N3
A   11
N4
A   12
N5
A   13
C8
A   14
C9
A   15
C10
A   16
C11
A   17
C12
A   18
O1
A   19
C13
A   20
C14
A   21
N6
A   22
C15
A   23
C16
A   24
C17
A   25
C18
A   26
C19
A   27
C20
A   28
O2
A   29
N7
A   30
N8
A   31
C21
A   32
C22
A   33
C23
A   34
C24
A   35
C25
A   36
C26
A   37
C27
A   38
C28
A   39
C29
A   40
C30
A   41
N9
A   42
C31
A   43
C32
A   44
C33
A   45
C34
A   46
O3
M  END
