1E6V_COM_A_1555
     RDKit          3D

 13 12  0  0  0  0  0  0  0  0999 V2000
   46.3590  -39.1090  108.0540 C   0  0  0  0  0  0  0  0  0  0  0  0
   45.5290  -38.5280  106.9040 C   0  0  0  0  0  0  0  0  0  0  0  0
   46.5130  -37.8920  109.3790 S   0  0  0  0  0  0  0  0  0  0  0  0
   44.9540  -39.7680  105.7270 S   0  0  0  0  0  0  0  0  0  0  0  0
   46.1170  -40.6290  105.3040 O   0  0  0  0  0  0  0  0  0  0  0  0
   44.3730  -39.0510  104.5240 O   0  0  0  0  0  0  0  0  0  0  0  0
   43.8900  -40.6190  106.3650 O   0  0  0  0  0  0  0  0  0  0  0  0
   45.8624  -40.0102  108.4428 H   0  0  0  0  0  0  0  0  0  0  0  0
   47.3614  -39.3672  107.6819 H   0  0  0  0  0  0  0  0  0  0  0  0
   44.6512  -38.0208  107.3308 H   0  0  0  0  0  0  0  0  0  0  0  0
   46.1839  -37.8387  106.3509 H   0  0  0  0  0  0  0  0  0  0  0  0
   46.4330  -38.5245  110.5916 H   0  0  0  0  0  0  0  0  0  0  0  0
   43.9657  -40.5584  107.3502 H   0  0  0  0  0  0  0  0  0  0  0  0
  1  2  1  0
  1  3  1  0
  2  4  1  0
  4  5  2  0
  4  6  2  0
  4  7  1  0
  1  8  1  0
  1  9  1  0
  2 10  1  0
  2 11  1  0
  3 12  1  0
  7 13  1  0
A    1
C1
A    2
C2
A    3
S1
A    4
S2
A    5
O1S
A    6
O2S
A    7
O3S
M  END
