2C3P_1TP_A_2236
     RDKit          3D

 58 59  0  0  0  0  0  0  0  0999 V2000
  -27.0410  -63.5640   25.3430 N   0  0  0  0  0  0  0  0  0  0  0  0
  -25.7250  -63.6860   25.8220 C   0  0  0  0  0  0  0  0  0  0  0  0
  -24.9940  -62.6010   26.5530 C   0  0  0  0  0  0  0  0  0  0  0  0
  -25.1240  -64.8250   25.6500 N   0  0  0  0  0  0  0  0  0  0  0  0
  -25.7000  -65.9490   25.0090 C   0  0  0  0  0  0  0  0  0  0  0  0
  -24.8940  -67.0230   24.9580 N   0  0  0  0  0  0  0  0  0  0  0  0
  -27.0360  -65.8740   24.4640 C   0  0  0  0  0  0  0  0  0  0  0  0
  -27.6580  -64.6480   24.6710 C   0  0  0  0  0  0  0  0  0  0  0  0
  -27.7110  -66.9630   23.7280 C   0  0  0  0  0  0  0  0  0  0  0  0
  -26.9970  -67.1570   22.4160 N   0  0  0  0  0  0  0  0  0  0  0  0
  -26.4060  -68.6550   22.2630 C   0  0  0  0  0  0  0  0  0  0  0  0
  -26.4150  -68.9520   20.6050 S   0  0  0  0  0  0  0  0  0  0  0  0
  -26.6180  -67.1710   20.2160 C   0  0  0  0  0  0  0  0  0  0  0  0
  -27.4720  -66.6680   21.2590 C   0  0  0  0  0  0  0  0  0  0  0  0
  -28.7190  -65.6340   21.0940 C   0  0  0  0  0  0  0  0  0  0  0  0
  -27.3680  -67.1490   18.7810 C   0  0  0  0  0  0  0  0  0  0  0  0
  -26.3710  -67.0800   17.7500 C   0  0  0  0  0  0  0  0  0  0  0  0
  -26.5480  -66.3400   16.6140 O   0  0  0  0  0  0  0  0  0  0  0  0
  -25.6340  -66.1500   15.3720 P   0  0  0  0  0  0  0  0  0  0  0  0
  -25.1050  -67.5400   15.1420 O   0  0  0  0  0  0  0  0  0  0  0  0
  -24.5110  -65.3820   15.8610 O   0  0  0  0  0  0  0  0  0  0  0  0
  -26.4160  -65.6130   14.2580 O   0  0  0  0  0  0  0  0  0  0  0  0
  -25.7580  -68.8570   14.4520 P   0  0  0  0  0  0  0  0  0  0  0  0
  -26.2380  -69.7830   15.6720 O   0  0  0  0  0  0  0  0  0  0  0  0
  -24.7500  -69.5790   13.7490 O   0  0  0  0  0  0  0  0  0  0  0  0
  -26.9090  -68.3100   13.6440 O   0  0  0  0  0  0  0  0  0  0  0  0
  -26.5310  -70.2080   23.6530 C   0  0  0  0  0  0  0  0  0  0  0  0
  -26.0440  -69.5310   25.0130 O   0  0  0  0  0  0  0  0  0  0  0  0
  -25.7050  -71.6050   23.2920 C   0  0  0  0  0  0  0  0  0  0  0  0
  -28.2470  -70.7020   23.7970 C   0  0  0  0  0  0  0  0  0  0  0  0
  -28.8610  -71.6530   22.8070 O   0  0  0  0  0  0  0  0  0  0  0  0
  -28.9120  -69.9710   24.5490 O   0  0  0  0  0  0  0  0  0  0  0  0
  -25.0978  -62.7551   27.6372 H   0  0  0  0  0  0  0  0  0  0  0  0
  -23.9290  -62.6276   26.2792 H   0  0  0  0  0  0  0  0  0  0  0  0
  -25.4187  -61.6239   26.2792 H   0  0  0  0  0  0  0  0  0  0  0  0
  -24.5648  -67.4617   25.8298 H   0  0  0  0  0  0  0  0  0  0  0  0
  -24.6054  -67.4075   24.0471 H   0  0  0  0  0  0  0  0  0  0  0  0
  -28.6823  -64.5126   24.2935 H   0  0  0  0  0  0  0  0  0  0  0  0
  -27.6688  -67.8918   24.3159 H   0  0  0  0  0  0  0  0  0  0  0  0
  -28.7660  -66.7060   23.5522 H   0  0  0  0  0  0  0  0  0  0  0  0
  -25.4302  -68.6685   22.7707 H   0  0  0  0  0  0  0  0  0  0  0  0
  -25.6935  -66.5770   20.1663 H   0  0  0  0  0  0  0  0  0  0  0  0
  -26.8230  -65.7863   21.3652 H   0  0  0  0  0  0  0  0  0  0  0  0
  -29.0807  -65.3341   22.0886 H   0  0  0  0  0  0  0  0  0  0  0  0
  -28.3861  -64.7433   20.5410 H   0  0  0  0  0  0  0  0  0  0  0  0
  -29.5326  -66.1261   20.5410 H   0  0  0  0  0  0  0  0  0  0  0  0
  -27.9651  -68.0648   18.6598 H   0  0  0  0  0  0  0  0  0  0  0  0
  -28.0381  -66.2789   18.7179 H   0  0  0  0  0  0  0  0  0  0  0  0
  -25.4598  -66.6931   18.2295 H   0  0  0  0  0  0  0  0  0  0  0  0
  -26.3766  -68.1074   17.3571 H   0  0  0  0  0  0  0  0  0  0  0  0
  -27.1782  -65.0896   14.6119 H   0  0  0  0  0  0  0  0  0  0  0  0
  -24.1424  -70.0142   14.3982 H   0  0  0  0  0  0  0  0  0  0  0  0
  -27.6121  -67.9758   14.2556 H   0  0  0  0  0  0  0  0  0  0  0  0
  -26.4079  -70.0369   25.7822 H   0  0  0  0  0  0  0  0  0  0  0  0
  -25.4082  -72.1069   24.2247 H   0  0  0  0  0  0  0  0  0  0  0  0
  -26.3533  -72.2733   22.7062 H   0  0  0  0  0  0  0  0  0  0  0  0
  -24.8070  -71.3591   22.7062 H   0  0  0  0  0  0  0  0  0  0  0  0
  -28.8277  -70.0637   25.5310 H   0  0  0  0  0  0  0  0  0  0  0  0
  1  2  2  0
  1  8  1  0
  2  3  1  0
  2  4  1  0
  4  5  2  0
  5  6  1  0
  5  7  1  0
  7  8  2  0
  7  9  1  0
  9 10  1  0
 10 11  1  0
 10 14  1  0
 11 12  1  0
 11 27  1  0
 12 13  1  0
 13 14  1  0
 13 16  1  0
 14 15  1  0
 16 17  1  0
 17 18  1  0
 18 19  1  0
 19 20  1  0
 19 21  2  0
 19 22  1  0
 20 23  1  0
 23 24  2  0
 23 25  1  0
 23 26  1  0
 27 28  1  0
 27 29  1  0
 27 30  1  0
 30 31  2  0
 30 32  1  0
  3 33  1  0
  3 34  1  0
  3 35  1  0
  6 36  1  0
  6 37  1  0
  8 38  1  0
  9 39  1  0
  9 40  1  0
 11 41  1  0
 13 42  1  0
 14 43  1  0
 15 44  1  0
 15 45  1  0
 15 46  1  0
 16 47  1  0
 16 48  1  0
 17 49  1  0
 17 50  1  0
 22 51  1  0
 25 52  1  0
 26 53  1  0
 28 54  1  0
 29 55  1  0
 29 56  1  0
 29 57  1  0
 32 58  1  0
A    1
N1'
A    2
C2'
A    3
C2A
A    4
N3'
A    5
C4'
A    6
N4'
A    7
C5'
A    8
C6'
A    9
C7'
A   10
N3
A   11
C2
A   12
S1
A   13
C5
A   14
C4
A   15
C4A
A   16
C5A
A   17
C5B
A   18
O5G
A   19
P1
A   20
O11
A   21
O12
A   22
O13
A   23
P2
A   24
O21
A   25
O22
A   26
O23
A   27
C15
A   28
O25
A   29
C35
A   30
C25
A   31
O35
A   32
O45
M  END
