1AQ2_PYR_A_542
     RDKit          3D

 10  9  0  0  0  0  0  0  0  0999 V2000
   35.6870    3.0390    6.7760 C   0  0  0  0  0  0  0  0  0  0  0  0
   34.5800    2.7890    6.2530 O   0  0  0  0  0  0  0  0  0  0  0  0
   36.6770    3.3390    6.0770 O   0  0  0  0  0  0  0  0  0  0  0  0
   35.8360    2.9800    8.2010 C   0  0  0  0  0  0  0  0  0  0  0  0
   35.3250    3.8470    8.9370 O   0  0  0  0  0  0  0  0  0  0  0  0
   36.6460    1.9060    8.7390 C   0  0  0  0  0  0  0  0  0  0  0  0
   37.5289    3.5972    6.5102 H   0  0  0  0  0  0  0  0  0  0  0  0
   36.6191    1.9417    9.8381 H   0  0  0  0  0  0  0  0  0  0  0  0
   36.2499    0.9396    8.3937 H   0  0  0  0  0  0  0  0  0  0  0  0
   37.6840    2.0213    8.3937 H   0  0  0  0  0  0  0  0  0  0  0  0
  1  2  2  0
  1  3  1  0
  1  4  1  0
  4  5  2  0
  4  6  1  0
  3  7  1  0
  6  8  1  0
  6  9  1  0
  6 10  1  0
A    1
C1
A    2
O1
A    3
O2
A    4
C2
A    5
O3
A    6
C3
M  END
