2C4J_GSO_A_1219
     RDKit          3D

 54 54  0  0  0  0  0  0  0  0999 V2000
    5.6350   -0.3100   99.1120 C   0  0  0  0  0  0  0  0  0  0  0  0
    4.8900   -0.2260   98.1120 O   0  0  0  0  0  0  0  0  0  0  0  0
    6.8900   -0.2350   99.0290 O   0  0  0  0  0  0  0  0  0  0  0  0
    3.6730    0.0000  100.5380 N   0  0  0  0  0  0  0  0  0  0  0  0
    5.0380   -0.5110  100.4760 C   0  0  0  0  0  0  0  0  0  0  0  0
    5.0490   -1.9800  100.8830 C   0  0  0  0  0  0  0  0  0  0  0  0
    8.3940   -6.3990  101.1820 C   0  0  0  0  0  0  0  0  0  0  0  0
    7.2530   -6.3880   99.8220 S   0  0  0  0  0  0  0  0  0  0  0  0
    6.4540   -2.3890  101.3110 C   0  0  0  0  0  0  0  0  0  0  0  0
    6.4870   -3.8010  101.8700 C   0  0  0  0  0  0  0  0  0  0  0  0
    5.3870   -4.4480  102.2320 O   0  0  0  0  0  0  0  0  0  0  0  0
    7.6380   -4.3130  101.9560 N   0  0  0  0  0  0  0  0  0  0  0  0
    7.8840   -5.6620  102.4290 C   0  0  0  0  0  0  0  0  0  0  0  0
    8.9930   -5.6770  103.4330 C   0  0  0  0  0  0  0  0  0  0  0  0
    9.6190   -6.8190  103.6550 O   0  0  0  0  0  0  0  0  0  0  0  0
    9.3230   -4.6180  104.0400 N   0  0  0  0  0  0  0  0  0  0  0  0
   10.4190   -4.5040  105.0110 C   0  0  0  0  0  0  0  0  0  0  0  0
    9.9760   -4.1860  106.4140 C   0  0  0  0  0  0  0  0  0  0  0  0
   10.8690   -4.0530  107.2840 O   0  0  0  0  0  0  0  0  0  0  0  0
    8.7590   -4.0800  106.6740 O   0  0  0  0  0  0  0  0  0  0  0  0
    6.3860   -8.7550   98.5010 O   0  0  0  0  0  0  0  0  0  0  0  0
    5.7800   -7.2240  100.2840 C   0  0  0  0  0  0  0  0  0  0  0  0
    8.7690  -10.4720  101.4540 C   0  0  0  0  0  0  0  0  0  0  0  0
    8.0120   -9.7770  100.5150 C   0  0  0  0  0  0  0  0  0  0  0  0
    8.2010  -10.8300  102.6760 C   0  0  0  0  0  0  0  0  0  0  0  0
    6.6860   -9.4370  100.8060 C   0  0  0  0  0  0  0  0  0  0  0  0
    6.8790  -10.4950  102.9690 C   0  0  0  0  0  0  0  0  0  0  0  0
    6.1240   -9.7960  102.0340 C   0  0  0  0  0  0  0  0  0  0  0  0
    5.8530   -8.6820   99.8340 C   0  0  0  0  0  0  0  0  0  0  0  0
    3.9133   -0.1159   98.2302 H   0  0  0  0  0  0  0  0  0  0  0  0
    3.3904    0.1058  101.5228 H   0  0  0  0  0  0  0  0  0  0  0  0
    3.6273    0.9151  100.0675 H   0  0  0  0  0  0  0  0  0  0  0  0
    5.6643    0.0546  101.1816 H   0  0  0  0  0  0  0  0  0  0  0  0
    4.3536   -2.1314  101.7217 H   0  0  0  0  0  0  0  0  0  0  0  0
    4.7376   -2.5957  100.0263 H   0  0  0  0  0  0  0  0  0  0  0  0
    8.5956   -7.4450  101.4563 H   0  0  0  0  0  0  0  0  0  0  0  0
    9.2970   -5.8688  100.8451 H   0  0  0  0  0  0  0  0  0  0  0  0
    7.1212   -2.3364  100.4380 H   0  0  0  0  0  0  0  0  0  0  0  0
    6.7830   -1.7007  102.1035 H   0  0  0  0  0  0  0  0  0  0  0  0
    8.4471   -3.7410  101.6747 H   0  0  0  0  0  0  0  0  0  0  0  0
    6.9871   -6.0987  102.8925 H   0  0  0  0  0  0  0  0  0  0  0  0
    8.7795   -3.7669  103.8372 H   0  0  0  0  0  0  0  0  0  0  0  0
   10.9625   -5.4602  105.0302 H   0  0  0  0  0  0  0  0  0  0  0  0
   11.0447   -3.6617  104.6808 H   0  0  0  0  0  0  0  0  0  0  0  0
    8.4545   -4.0535  107.6156 H   0  0  0  0  0  0  0  0  0  0  0  0
    7.3659   -8.8892   98.5443 H   0  0  0  0  0  0  0  0  0  0  0  0
    5.6643   -7.1840  101.3772 H   0  0  0  0  0  0  0  0  0  0  0  0
    4.9186   -6.7370   99.8035 H   0  0  0  0  0  0  0  0  0  0  0  0
    9.8131  -10.7382  101.2324 H   0  0  0  0  0  0  0  0  0  0  0  0
    8.4544   -9.4961   99.5479 H   0  0  0  0  0  0  0  0  0  0  0  0
    8.8005  -11.3813  103.4153 H   0  0  0  0  0  0  0  0  0  0  0  0
    6.4364  -10.7822  103.9342 H   0  0  0  0  0  0  0  0  0  0  0  0
    5.0824   -9.5251  102.2613 H   0  0  0  0  0  0  0  0  0  0  0  0
    4.8493   -9.1315   99.8098 H   0  0  0  0  0  0  0  0  0  0  0  0
  1  2  1  0
  1  3  2  0
  1  5  1  0
  4  5  1  0
  5  6  1  0
  6  9  1  0
  7  8  1  0
  7 13  1  0
  8 22  1  0
  9 10  1  0
 10 11  2  0
 10 12  1  0
 12 13  1  0
 13 14  1  0
 14 15  2  0
 14 16  1  0
 16 17  1  0
 17 18  1  0
 18 19  2  0
 18 20  1  0
 21 29  1  0
 22 29  1  0
 23 24  2  0
 23 25  1  0
 24 26  1  0
 25 27  2  0
 26 28  2  0
 26 29  1  0
 27 28  1  0
  2 30  1  0
  4 31  1  0
  4 32  1  0
  5 33  1  0
  6 34  1  0
  6 35  1  0
  7 36  1  0
  7 37  1  0
  9 38  1  0
  9 39  1  0
 12 40  1  0
 13 41  1  0
 16 42  1  0
 17 43  1  0
 17 44  1  0
 20 45  1  0
 21 46  1  0
 22 47  1  0
 22 48  1  0
 23 49  1  0
 24 50  1  0
 25 51  1  0
 27 52  1  0
 28 53  1  0
 29 54  1  0
A    1
C
A    2
OT1
A    3
OT2
A    4
N
A    5
CA
A    6
CB
A    7
CB2
A    8
SG2
A    9
CG
A   10
CD
A   11
OE
A   12
N2
A   13
CA2
A   14
C2
A   15
O2
A   16
N3
A   17
CA3
A   18
C3
A   19
O31
A   20
O32
A   21
OF2
A   22
CD2
A   23
CG2
A   24
CL1
A   25
CL2
A   26
CM1
A   27
CM2
A   28
CZ
A   29
C22
M  END
