1Z3C_SA8_A_299
     RDKit          3D

 50 52  0  0  0  0  0  0  0  0999 V2000
   13.3520   30.1670   91.2330 N   0  0  0  0  0  0  0  0  0  0  0  0
   13.9720   31.0910   92.2340 C   0  0  0  0  0  0  0  0  0  0  0  0
   13.1940   32.3900   92.3540 C   0  0  0  0  0  0  0  0  0  0  0  0
   12.1940   32.5580   91.6530 O   0  0  0  0  0  0  0  0  0  0  0  0
   13.6660   33.2230   93.2010 O   0  0  0  0  0  0  0  0  0  0  0  0
   15.4110   31.4330   91.8530 C   0  0  0  0  0  0  0  0  0  0  0  0
   15.9290   30.5380   90.8050 C   0  0  0  0  0  0  0  0  0  0  0  0
   17.6110   30.8330   90.2350 N   0  0  0  0  0  0  0  0  0  0  0  0
   17.4310   32.3390   89.2770 C   0  0  0  0  0  0  0  0  0  0  0  0
   17.8040   29.6040   89.0590 C   0  0  0  0  0  0  0  0  0  0  0  0
   18.0040   28.2250   89.6270 C   0  0  0  0  0  0  0  0  0  0  0  0
   18.0560   27.3540   88.4990 O   0  0  0  0  0  0  0  0  0  0  0  0
   19.3930   28.0230   90.2500 C   0  0  0  0  0  0  0  0  0  0  0  0
   19.1480   27.9260   91.6880 O   0  0  0  0  0  0  0  0  0  0  0  0
   19.8710   26.6740   89.7340 C   0  0  0  0  0  0  0  0  0  0  0  0
   20.4780   25.7300   90.5810 O   0  0  0  0  0  0  0  0  0  0  0  0
   18.6330   26.2000   88.9530 C   0  0  0  0  0  0  0  0  0  0  0  0
   18.9140   25.3370   87.8390 N   0  0  0  0  0  0  0  0  0  0  0  0
   19.7200   25.5360   86.7550 C   0  0  0  0  0  0  0  0  0  0  0  0
   19.7330   24.5300   85.9260 N   0  0  0  0  0  0  0  0  0  0  0  0
   18.8730   23.6050   86.5050 C   0  0  0  0  0  0  0  0  0  0  0  0
   18.4490   22.2990   86.1130 C   0  0  0  0  0  0  0  0  0  0  0  0
   18.8890   21.7110   84.9710 N   0  0  0  0  0  0  0  0  0  0  0  0
   17.5590   21.6140   86.9220 N   0  0  0  0  0  0  0  0  0  0  0  0
   17.1320   22.2240   88.0610 C   0  0  0  0  0  0  0  0  0  0  0  0
   17.4750   23.4500   88.5240 N   0  0  0  0  0  0  0  0  0  0  0  0
   18.3560   24.0920   87.6860 C   0  0  0  0  0  0  0  0  0  0  0  0
   12.8479   29.4157   91.7253 H   0  0  0  0  0  0  0  0  0  0  0  0
   12.6924   30.6933   90.6424 H   0  0  0  0  0  0  0  0  0  0  0  0
   13.9540   30.5608   93.1976 H   0  0  0  0  0  0  0  0  0  0  0  0
   11.3116   32.7062   92.0768 H   0  0  0  0  0  0  0  0  0  0  0  0
   15.4447   32.4689   91.4846 H   0  0  0  0  0  0  0  0  0  0  0  0
   16.0390   31.3096   92.7476 H   0  0  0  0  0  0  0  0  0  0  0  0
   15.8865   29.5105   91.1955 H   0  0  0  0  0  0  0  0  0  0  0  0
   15.2931   30.7278   89.9278 H   0  0  0  0  0  0  0  0  0  0  0  0
   17.3285   33.1967   89.9580 H   0  0  0  0  0  0  0  0  0  0  0  0
   18.3189   32.4784   88.6428 H   0  0  0  0  0  0  0  0  0  0  0  0
   16.5353   32.2653   88.6428 H   0  0  0  0  0  0  0  0  0  0  0  0
   16.9038   29.5884   88.4270 H   0  0  0  0  0  0  0  0  0  0  0  0
   18.7182   29.8477   88.4979 H   0  0  0  0  0  0  0  0  0  0  0  0
   17.2137   28.0547   90.3730 H   0  0  0  0  0  0  0  0  0  0  0  0
   20.1224   28.8137   90.0202 H   0  0  0  0  0  0  0  0  0  0  0  0
   19.9463   28.2421   92.1808 H   0  0  0  0  0  0  0  0  0  0  0  0
   20.7950   26.7987   89.1504 H   0  0  0  0  0  0  0  0  0  0  0  0
   20.3164   25.9814   91.5248 H   0  0  0  0  0  0  0  0  0  0  0  0
   17.9961   25.5930   89.6133 H   0  0  0  0  0  0  0  0  0  0  0  0
   20.3019   26.4559   86.5966 H   0  0  0  0  0  0  0  0  0  0  0  0
   19.5054   20.8873   85.0203 H   0  0  0  0  0  0  0  0  0  0  0  0
   18.6064   22.0887   84.0554 H   0  0  0  0  0  0  0  0  0  0  0  0
   16.4237   21.6534   88.6797 H   0  0  0  0  0  0  0  0  0  0  0  0
  1  2  1  0
  2  3  1  0
  2  6  1  0
  3  4  1  0
  3  5  2  0
  6  7  1  0
  7  8  1  0
  8  9  1  0
  8 10  1  0
 10 11  1  0
 11 12  1  0
 11 13  1  0
 12 17  1  0
 13 14  1  0
 13 15  1  0
 15 16  1  0
 15 17  1  0
 17 18  1  0
 18 19  1  0
 18 27  1  0
 19 20  2  0
 20 21  1  0
 21 22  1  0
 21 27  2  0
 22 23  1  0
 22 24  2  0
 24 25  1  0
 25 26  2  0
 26 27  1  0
  1 28  1  0
  1 29  1  0
  2 30  1  0
  4 31  1  0
  6 32  1  0
  6 33  1  0
  7 34  1  0
  7 35  1  0
  9 36  1  0
  9 37  1  0
  9 38  1  0
 10 39  1  0
 10 40  1  0
 11 41  1  0
 13 42  1  0
 14 43  1  0
 15 44  1  0
 16 45  1  0
 17 46  1  0
 19 47  1  0
 23 48  1  0
 23 49  1  0
 25 50  1  0
A    1
N
A    2
CA
A    3
C
A    4
O
A    5
OXT
A    6
CB
A    7
CG
A    8
ND
A    9
CE
A   10
C5'
A   11
C4'
A   12
O4'
A   13
C3'
A   14
O3'
A   15
C2'
A   16
O2'
A   17
C1'
A   18
N9
A   19
C8
A   20
N7
A   21
C5
A   22
C6
A   23
N6
A   24
N1
A   25
C2
A   26
N3
A   27
C4
M  END
