2C92_TP6_A_701
     RDKit          3D

 56 57  0  0  0  0  0  0  0  0999 V2000
  -18.1910    3.9620   -1.2500 O   0  0  0  0  0  0  0  0  0  0  0  0
  -18.4370    3.9900    0.2530 P   0  0  0  0  0  0  0  0  0  0  0  0
  -17.1510    3.9580    1.0510 O   0  0  0  0  0  0  0  0  0  0  0  0
  -19.3770    5.0550    0.7340 O   0  0  0  0  0  0  0  0  0  0  0  0
  -19.1890    2.5880    0.4800 O   0  0  0  0  0  0  0  0  0  0  0  0
  -19.3670    2.1280    1.8460 C   0  0  0  0  0  0  0  0  0  0  0  0
  -19.3620    0.8180    2.0640 C   0  0  0  0  0  0  0  0  0  0  0  0
  -19.4970    0.3650    3.4420 C   0  0  0  0  0  0  0  0  0  0  0  0
  -20.6690    0.2970    4.0640 C   0  0  0  0  0  0  0  0  0  0  0  0
  -21.9780    0.6070    3.3900 C   0  0  0  0  0  0  0  0  0  0  0  0
  -22.9560    0.3330    4.4390 N   0  0  0  0  0  0  0  0  0  0  0  0
  -23.3910   -0.8410    4.9170 C   0  0  0  0  0  0  0  0  0  0  0  0
  -23.0860   -2.2390    4.5680 C   0  0  0  0  0  0  0  0  0  0  0  0
  -22.2870   -2.5260    3.6620 O   0  0  0  0  0  0  0  0  0  0  0  0
  -23.7270   -3.2060    5.2660 N   0  0  0  0  0  0  0  0  0  0  0  0
  -23.6040    1.2120    5.1890 C   0  0  0  0  0  0  0  0  0  0  0  0
  -23.4790    2.4780    5.0610 O   0  0  0  0  0  0  0  0  0  0  0  0
  -24.4150    0.7220    6.1220 N   0  0  0  0  0  0  0  0  0  0  0  0
  -24.3540   -0.5950    6.0000 C   0  0  0  0  0  0  0  0  0  0  0  0
  -24.9270   -1.6560    6.6150 N   0  0  0  0  0  0  0  0  0  0  0  0
  -24.6070   -2.9160    6.2650 C   0  0  0  0  0  0  0  0  0  0  0  0
  -25.1580   -3.8500    6.8580 O   0  0  0  0  0  0  0  0  0  0  0  0
  -25.2130    1.5690    6.9860 C   0  0  0  0  0  0  0  0  0  0  0  0
  -25.6670    0.9650    8.2910 C   0  0  0  0  0  0  0  0  0  0  0  0
  -24.8620   -0.0700    8.9060 O   0  0  0  0  0  0  0  0  0  0  0  0
  -26.3120    1.9450    9.2510 C   0  0  0  0  0  0  0  0  0  0  0  0
  -27.6320    1.5470    8.9280 O   0  0  0  0  0  0  0  0  0  0  0  0
  -26.1580    3.4500    9.0130 C   0  0  0  0  0  0  0  0  0  0  0  0
  -24.8150    3.8680    9.3060 O   0  0  0  0  0  0  0  0  0  0  0  0
  -27.0850    4.2170    9.9590 C   0  0  0  0  0  0  0  0  0  0  0  0
  -26.8070    3.8260   11.3150 O   0  0  0  0  0  0  0  0  0  0  0  0
  -17.2226    3.8518   -1.4239 H   0  0  0  0  0  0  0  0  0  0  0  0
  -17.3625    3.9633    2.0181 H   0  0  0  0  0  0  0  0  0  0  0  0
  -18.5554    2.5637    2.4473 H   0  0  0  0  0  0  0  0  0  0  0  0
  -20.3835    2.4498    2.1163 H   0  0  0  0  0  0  0  0  0  0  0  0
  -20.1960    0.3856    1.4918 H   0  0  0  0  0  0  0  0  0  0  0  0
  -18.3590    0.4866    1.7570 H   0  0  0  0  0  0  0  0  0  0  0  0
  -19.0777   -0.6515    3.4707 H   0  0  0  0  0  0  0  0  0  0  0  0
  -18.9986    1.1760    3.9933 H   0  0  0  0  0  0  0  0  0  0  0  0
  -20.7560   -0.7358    4.4326 H   0  0  0  0  0  0  0  0  0  0  0  0
  -20.5870    1.1318    4.7756 H   0  0  0  0  0  0  0  0  0  0  0  0
  -22.0210    1.6596    3.0736 H   0  0  0  0  0  0  0  0  0  0  0  0
  -22.1458    0.0203    2.4747 H   0  0  0  0  0  0  0  0  0  0  0  0
  -23.5435   -4.1927    5.0343 H   0  0  0  0  0  0  0  0  0  0  0  0
  -25.6182   -1.4970    7.3619 H   0  0  0  0  0  0  0  0  0  0  0  0
  -24.6160    2.4624    7.2215 H   0  0  0  0  0  0  0  0  0  0  0  0
  -26.1362    1.7703    6.4227 H   0  0  0  0  0  0  0  0  0  0  0  0
  -26.4886    0.3321    7.9244 H   0  0  0  0  0  0  0  0  0  0  0  0
  -24.9219    0.0070    9.8912 H   0  0  0  0  0  0  0  0  0  0  0  0
  -25.9045    1.8896   10.2712 H   0  0  0  0  0  0  0  0  0  0  0  0
  -28.1435    1.3928    9.7615 H   0  0  0  0  0  0  0  0  0  0  0  0
  -26.4040    3.6553    7.9607 H   0  0  0  0  0  0  0  0  0  0  0  0
  -24.6883    3.9074   10.2871 H   0  0  0  0  0  0  0  0  0  0  0  0
  -26.9139    5.2977    9.8454 H   0  0  0  0  0  0  0  0  0  0  0  0
  -28.1329    3.9871    9.7159 H   0  0  0  0  0  0  0  0  0  0  0  0
  -27.2531    4.4534   11.9374 H   0  0  0  0  0  0  0  0  0  0  0  0
  1  2  1  0
  2  3  1  0
  2  4  2  0
  2  5  1  0
  5  6  1  0
  6  7  1  0
  7  8  1  0
  8  9  1  0
  9 10  1  0
 10 11  1  0
 11 12  1  0
 11 16  1  0
 12 13  1  0
 12 19  2  0
 13 14  2  0
 13 15  1  0
 15 21  1  0
 16 17  2  0
 16 18  1  0
 18 19  1  0
 18 23  1  0
 19 20  1  0
 20 21  1  0
 21 22  2  0
 23 24  1  0
 24 25  1  0
 24 26  1  0
 26 27  1  0
 26 28  1  0
 28 29  1  0
 28 30  1  0
 30 31  1  0
  1 32  1  0
  3 33  1  0
  6 34  1  0
  6 35  1  0
  7 36  1  0
  7 37  1  0
  8 38  1  0
  8 39  1  0
  9 40  1  0
  9 41  1  0
 10 42  1  0
 10 43  1  0
 15 44  1  0
 20 45  1  0
 23 46  1  0
 23 47  1  0
 24 48  1  0
 25 49  1  0
 26 50  1  0
 27 51  1  0
 28 52  1  0
 29 53  1  0
 30 54  1  0
 30 55  1  0
 31 56  1  0
A    1
O2P
A    2
P
A    3
O3P
A    4
O1P
A    5
O27
A    6
C19
A    7
C18
A    8
C17
A    9
C16
A   10
C15
A   11
N5
A   12
C9
A   13
C4
A   14
O2
A   15
N3
A   16
C6
A   17
O4
A   18
N7
A   19
C8
A   20
N1
A   21
C2
A   22
O1
A   23
C10
A   24
C11
A   25
O19
A   26
C12
A   27
O21
A   28
C13
A   29
O23
A   30
C14
A   31
O26
M  END
