2C94_TSF_A_701
     RDKit          3D

 55 56  0  0  0  0  0  0  0  0999 V2000
   47.2760    3.5220   -1.4210 O   0  0  0  0  0  0  0  0  0  0  0  0
   47.2250    3.6840    0.0730 P   0  0  0  0  0  0  0  0  0  0  0  0
   48.5930    3.6690    0.7200 O   0  0  0  0  0  0  0  0  0  0  0  0
   46.3210    4.8010    0.5490 O   0  0  0  0  0  0  0  0  0  0  0  0
   46.4410    2.1600    0.6650 C   0  0  0  0  0  0  0  0  0  0  0  0
   45.1980    2.1080    0.2250 F   0  0  0  0  0  0  0  0  0  0  0  0
   47.1280    1.1390    0.1860 F   0  0  0  0  0  0  0  0  0  0  0  0
   46.4300    2.1160    2.1900 C   0  0  0  0  0  0  0  0  0  0  0  0
   46.4380    0.6850    2.7280 C   0  0  0  0  0  0  0  0  0  0  0  0
   45.4590    0.5340    3.8870 C   0  0  0  0  0  0  0  0  0  0  0  0
   44.0430    0.6770    3.3510 C   0  0  0  0  0  0  0  0  0  0  0  0
   43.0900    0.4180    4.4260 N   0  0  0  0  0  0  0  0  0  0  0  0
   42.6070   -0.7460    4.8740 C   0  0  0  0  0  0  0  0  0  0  0  0
   42.8660   -2.1430    4.4590 C   0  0  0  0  0  0  0  0  0  0  0  0
   43.6580   -2.4280    3.5310 O   0  0  0  0  0  0  0  0  0  0  0  0
   42.1900   -3.0890    5.1320 N   0  0  0  0  0  0  0  0  0  0  0  0
   42.4790    1.3160    5.2040 C   0  0  0  0  0  0  0  0  0  0  0  0
   42.6650    2.5850    5.0870 O   0  0  0  0  0  0  0  0  0  0  0  0
   41.6320    0.8430    6.1190 N   0  0  0  0  0  0  0  0  0  0  0  0
   41.6550   -0.4910    5.9700 C   0  0  0  0  0  0  0  0  0  0  0  0
   41.0700   -1.5420    6.5470 N   0  0  0  0  0  0  0  0  0  0  0  0
   41.3310   -2.7950    6.1430 C   0  0  0  0  0  0  0  0  0  0  0  0
   40.7380   -3.7180    6.7320 O   0  0  0  0  0  0  0  0  0  0  0  0
   40.8930    1.7060    7.0310 C   0  0  0  0  0  0  0  0  0  0  0  0
   40.2270    1.0250    8.2130 C   0  0  0  0  0  0  0  0  0  0  0  0
   41.0720    0.0980    8.9140 O   0  0  0  0  0  0  0  0  0  0  0  0
   39.5550    2.0120    9.1620 C   0  0  0  0  0  0  0  0  0  0  0  0
   38.1710    1.7020    8.9690 O   0  0  0  0  0  0  0  0  0  0  0  0
   39.7630    3.5190    8.9130 C   0  0  0  0  0  0  0  0  0  0  0  0
   41.1230    3.9190    9.1400 O   0  0  0  0  0  0  0  0  0  0  0  0
   38.8720    4.3650    9.8230 C   0  0  0  0  0  0  0  0  0  0  0  0
   39.0540    3.9240   11.1800 O   0  0  0  0  0  0  0  0  0  0  0  0
   48.4923    3.6701    1.7049 H   0  0  0  0  0  0  0  0  0  0  0  0
   46.3086    4.8164    1.5388 H   0  0  0  0  0  0  0  0  0  0  0  0
   47.3210    2.6404    2.5657 H   0  0  0  0  0  0  0  0  0  0  0  0
   45.5044    2.6004    2.5345 H   0  0  0  0  0  0  0  0  0  0  0  0
   46.1499   -0.0048    1.9210 H   0  0  0  0  0  0  0  0  0  0  0  0
   47.4501    0.4513    3.0901 H   0  0  0  0  0  0  0  0  0  0  0  0
   45.5818   -0.4569    4.3485 H   0  0  0  0  0  0  0  0  0  0  0  0
   45.6529    1.3076    4.6446 H   0  0  0  0  0  0  0  0  0  0  0  0
   43.8965    1.6979    2.9686 H   0  0  0  0  0  0  0  0  0  0  0  0
   43.8835   -0.0447    2.5363 H   0  0  0  0  0  0  0  0  0  0  0  0
   42.3283   -4.0759    4.8714 H   0  0  0  0  0  0  0  0  0  0  0  0
   40.4046   -1.3888    7.3181 H   0  0  0  0  0  0  0  0  0  0  0  0
   41.5956    2.4537    7.4277 H   0  0  0  0  0  0  0  0  0  0  0  0
   40.0703    2.1263    6.4339 H   0  0  0  0  0  0  0  0  0  0  0  0
   39.4312    0.4133    7.7631 H   0  0  0  0  0  0  0  0  0  0  0  0
   40.9593    0.2216    9.8898 H   0  0  0  0  0  0  0  0  0  0  0  0
   39.9834    1.8873   10.1674 H   0  0  0  0  0  0  0  0  0  0  0  0
   37.7291    1.6030    9.8494 H   0  0  0  0  0  0  0  0  0  0  0  0
   39.4984    3.6869    7.8586 H   0  0  0  0  0  0  0  0  0  0  0  0
   41.2940    3.9693   10.1138 H   0  0  0  0  0  0  0  0  0  0  0  0
   39.1537    5.4248    9.7366 H   0  0  0  0  0  0  0  0  0  0  0  0
   37.8182    4.2519    9.5286 H   0  0  0  0  0  0  0  0  0  0  0  0
   38.7598    4.6368   11.8009 H   0  0  0  0  0  0  0  0  0  0  0  0
  1  2  2  0
  2  3  1  0
  2  4  1  0
  2  5  1  0
  5  6  1  0
  5  7  1  0
  5  8  1  0
  8  9  1  0
  9 10  1  0
 10 11  1  0
 11 12  1  0
 12 13  1  0
 12 17  1  0
 13 14  1  0
 13 20  2  0
 14 15  2  0
 14 16  1  0
 16 22  1  0
 17 18  2  0
 17 19  1  0
 19 20  1  0
 19 24  1  0
 20 21  1  0
 21 22  1  0
 22 23  2  0
 24 25  1  0
 25 26  1  0
 25 27  1  0
 27 28  1  0
 27 29  1  0
 29 30  1  0
 29 31  1  0
 31 32  1  0
  3 33  1  0
  4 34  1  0
  8 35  1  0
  8 36  1  0
  9 37  1  0
  9 38  1  0
 10 39  1  0
 10 40  1  0
 11 41  1  0
 11 42  1  0
 16 43  1  0
 21 44  1  0
 24 45  1  0
 24 46  1  0
 25 47  1  0
 26 48  1  0
 27 49  1  0
 28 50  1  0
 29 51  1  0
 30 52  1  0
 31 53  1  0
 31 54  1  0
 32 55  1  0
A    1
O2P
A    2
P
A    3
O3P
A    4
O1P
A    5
C19
A    6
F1
A    7
F2
A    8
C18
A    9
C17
A   10
C16
A   11
C15
A   12
N5
A   13
C9
A   14
C4
A   15
O2
A   16
N3
A   17
C6
A   18
O4
A   19
N7
A   20
C8
A   21
N1
A   22
C2
A   23
O1
A   24
C10
A   25
C11
A   26
O19
A   27
C12
A   28
O21
A   29
C13
A   30
O23
A   31
C14
A   32
O26
M  END
