2CBS_R13_A_200
     RDKit          3D

 55 56  0  0  0  0  0  0  0  0999 V2000
   22.0320   30.5980   16.0950 C   0  0  0  0  0  0  0  0  0  0  0  0
   21.0690   31.2690   15.0880 C   0  0  0  0  0  0  0  0  0  0  0  0
   20.4100   30.2440   14.1100 C   0  0  0  0  0  0  0  0  0  0  0  0
   19.5380   29.1960   14.8440 C   0  0  0  0  0  0  0  0  0  0  0  0
   20.2690   28.6070   16.1040 C   0  0  0  0  0  0  0  0  0  0  0  0
   19.7760   27.4010   16.7060 C   0  0  0  0  0  0  0  0  0  0  0  0
   20.4030   26.8550   17.8480 C   0  0  0  0  0  0  0  0  0  0  0  0
   21.5450   27.4930   18.4030 C   0  0  0  0  0  0  0  0  0  0  0  0
   22.0610   28.6780   17.8210 C   0  0  0  0  0  0  0  0  0  0  0  0
   21.4400   29.2640   16.6850 C   0  0  0  0  0  0  0  0  0  0  0  0
   22.2470   26.9180   19.6740 C   0  0  0  0  0  0  0  0  0  0  0  0
   21.6600   25.8630   20.3090 C   0  0  0  0  0  0  0  0  0  0  0  0
   22.1540   25.3030   21.4780 C   0  0  0  0  0  0  0  0  0  0  0  0
   21.4580   24.2850   22.1120 C   0  0  0  0  0  0  0  0  0  0  0  0
   21.9040   23.7090   23.3140 C   0  0  0  0  0  0  0  0  0  0  0  0
   21.1190   22.7080   23.9000 C   0  0  0  0  0  0  0  0  0  0  0  0
   21.3750   21.9950   25.1620 C   0  0  0  0  0  0  0  0  0  0  0  0
   18.2110   29.8240   15.2730 C   0  0  0  0  0  0  0  0  0  0  0  0
   19.2060   28.0870   13.8430 C   0  0  0  0  0  0  0  0  0  0  0  0
   22.2800   31.6070   17.2230 C   0  0  0  0  0  0  0  0  0  0  0  0
   23.3810   30.3210   15.4280 C   0  0  0  0  0  0  0  0  0  0  0  0
   23.5570   27.5550   20.1970 C   0  0  0  0  0  0  0  0  0  0  0  0
   23.2240   24.1810   23.9910 C   0  0  0  0  0  0  0  0  0  0  0  0
   22.4180   21.3230   25.2820 O   0  0  0  0  0  0  0  0  0  0  0  0
   20.5490   22.0950   26.0900 O   0  0  0  0  0  0  0  0  0  0  0  0
   20.2737   31.7813   15.6493 H   0  0  0  0  0  0  0  0  0  0  0  0
   21.6585   31.9738   14.4833 H   0  0  0  0  0  0  0  0  0  0  0  0
   19.7761   30.7935   13.3985 H   0  0  0  0  0  0  0  0  0  0  0  0
   21.2201   29.7036   13.5985 H   0  0  0  0  0  0  0  0  0  0  0  0
   18.8998   26.8961   16.2731 H   0  0  0  0  0  0  0  0  0  0  0  0
   20.0076   25.9369   18.3072 H   0  0  0  0  0  0  0  0  0  0  0  0
   22.9546   29.1506   18.2547 H   0  0  0  0  0  0  0  0  0  0  0  0
   20.7468   25.4337   19.8710 H   0  0  0  0  0  0  0  0  0  0  0  0
   23.1007   25.6676   21.9033 H   0  0  0  0  0  0  0  0  0  0  0  0
   20.5259   23.9160   21.6592 H   0  0  0  0  0  0  0  0  0  0  0  0
   20.2073   22.4221   23.3550 H   0  0  0  0  0  0  0  0  0  0  0  0
   18.1558   29.8501   16.3713 H   0  0  0  0  0  0  0  0  0  0  0  0
   18.1456   30.8486   14.8781 H   0  0  0  0  0  0  0  0  0  0  0  0
   17.3772   29.2249   14.8781 H   0  0  0  0  0  0  0  0  0  0  0  0
   18.9319   27.1715   14.3877 H   0  0  0  0  0  0  0  0  0  0  0  0
   18.3633   28.4038   13.2109 H   0  0  0  0  0  0  0  0  0  0  0  0
   20.0841   27.8886   13.2109 H   0  0  0  0  0  0  0  0  0  0  0  0
   22.1572   31.1075   18.1953 H   0  0  0  0  0  0  0  0  0  0  0  0
   23.3025   32.0042   17.1414 H   0  0  0  0  0  0  0  0  0  0  0  0
   21.5581   32.4330   17.1414 H   0  0  0  0  0  0  0  0  0  0  0  0
   24.1471   30.1637   16.2015 H   0  0  0  0  0  0  0  0  0  0  0  0
   23.3022   29.4203   14.8015 H   0  0  0  0  0  0  0  0  0  0  0  0
   23.6635   31.1799   14.8015 H   0  0  0  0  0  0  0  0  0  0  0  0
   23.5522   27.5527   21.2970 H   0  0  0  0  0  0  0  0  0  0  0  0
   24.4177   26.9748   19.8329 H   0  0  0  0  0  0  0  0  0  0  0  0
   23.6322   28.5903   19.8329 H   0  0  0  0  0  0  0  0  0  0  0  0
   23.1102   24.1403   25.0843 H   0  0  0  0  0  0  0  0  0  0  0  0
   24.0496   23.5224   23.6835 H   0  0  0  0  0  0  0  0  0  0  0  0
   23.4448   25.2138   23.6835 H   0  0  0  0  0  0  0  0  0  0  0  0
   20.8547   22.0580   27.0309 H   0  0  0  0  0  0  0  0  0  0  0  0
  1  2  1  0
  1 10  1  0
  1 20  1  0
  1 21  1  0
  2  3  1  0
  3  4  1  0
  4  5  1  0
  4 18  1  0
  4 19  1  0
  5  6  1  0
  5 10  2  0
  6  7  2  0
  7  8  1  0
  8  9  2  0
  8 11  1  0
  9 10  1  0
 11 12  2  0
 11 22  1  0
 12 13  1  0
 13 14  2  0
 14 15  1  0
 15 16  2  0
 15 23  1  0
 16 17  1  0
 17 24  2  0
 17 25  1  0
  2 26  1  0
  2 27  1  0
  3 28  1  0
  3 29  1  0
  6 30  1  0
  7 31  1  0
  9 32  1  0
 12 33  1  0
 13 34  1  0
 14 35  1  0
 16 36  1  0
 18 37  1  0
 18 38  1  0
 18 39  1  0
 19 40  1  0
 19 41  1  0
 19 42  1  0
 20 43  1  0
 20 44  1  0
 20 45  1  0
 21 46  1  0
 21 47  1  0
 21 48  1  0
 22 49  1  0
 22 50  1  0
 22 51  1  0
 23 52  1  0
 23 53  1  0
 23 54  1  0
 25 55  1  0
A    1
C1
A    2
C2
A    3
C3
A    4
C4
A    5
C5
A    6
C6
A    7
C7
A    8
C8
A    9
C9
A   10
C10
A   11
C11
A   12
C12
A   13
C13
A   14
C14
A   15
C15
A   16
C16
A   17
C17
A   18
C18
A   19
C19
A   20
C20
A   21
C21
A   22
C22
A   23
C23
A   24
O1
A   25
O2
M  END
