2CCT_2E1_A_1224
     RDKit          3D

 45 47  0  0  0  0  0  0  0  0999 V2000
   35.0300    7.1580   25.3610 C   0  0  0  0  0  0  0  0  0  0  0  0
   34.0940    8.2190   25.9230 C   0  0  0  0  0  0  0  0  0  0  0  0
   32.3020    7.4210   24.3390 C   0  0  0  0  0  0  0  0  0  0  0  0
   33.2950    6.3580   23.8720 C   0  0  0  0  0  0  0  0  0  0  0  0
   32.6980    8.0350   25.5880 N   0  0  0  0  0  0  0  0  0  0  0  0
   31.7870    8.6090   26.3990 C   0  0  0  0  0  0  0  0  0  0  0  0
   31.3770    8.3360   27.6760 C   0  0  0  0  0  0  0  0  0  0  0  0
   31.8480    7.2240   28.4370 C   0  0  0  0  0  0  0  0  0  0  0  0
   34.6920    6.9190   23.9210 N   0  0  0  0  0  0  0  0  0  0  0  0
   32.3810    6.2910   27.8430 O   0  0  0  0  0  0  0  0  0  0  0  0
   31.7170    7.2950   29.7650 N   0  0  0  0  0  0  0  0  0  0  0  0
   31.9740    6.1740   30.5170 C   0  0  0  0  0  0  0  0  0  0  0  0
   33.4540    5.8480   30.7900 C   0  0  0  0  0  0  0  0  0  0  0  0
   30.5410    9.2700   28.1140 N   0  0  0  0  0  0  0  0  0  0  0  0
   30.3490   10.1640   27.1350 N   0  0  0  0  0  0  0  0  0  0  0  0
   31.0920    9.8120   26.0680 C   0  0  0  0  0  0  0  0  0  0  0  0
   31.1260   10.6170   24.8360 C   0  0  0  0  0  0  0  0  0  0  0  0
   32.3410   11.1030   24.3700 C   0  0  0  0  0  0  0  0  0  0  0  0
   32.3740   11.8650   23.2070 C   0  0  0  0  0  0  0  0  0  0  0  0
   33.8730   12.5000   22.6400 Cl  0  0  0  0  0  0  0  0  0  0  0  0
   31.2390   12.1950   22.4900 C   0  0  0  0  0  0  0  0  0  0  0  0
   31.3410   12.9440   21.3480 O   0  0  0  0  0  0  0  0  0  0  0  0
   30.0080   11.7000   22.9670 C   0  0  0  0  0  0  0  0  0  0  0  0
   29.9780   10.9260   24.1380 C   0  0  0  0  0  0  0  0  0  0  0  0
   28.8370   10.5160   24.5970 O   0  0  0  0  0  0  0  0  0  0  0  0
   36.0708    7.5045   25.4424 H   0  0  0  0  0  0  0  0  0  0  0  0
   34.9140    6.2231   25.9290 H   0  0  0  0  0  0  0  0  0  0  0  0
   34.1869    8.2115   27.0190 H   0  0  0  0  0  0  0  0  0  0  0  0
   34.3986    9.1732   25.4684 H   0  0  0  0  0  0  0  0  0  0  0  0
   32.2322    8.2023   23.5678 H   0  0  0  0  0  0  0  0  0  0  0  0
   31.3328    6.9266   24.5008 H   0  0  0  0  0  0  0  0  0  0  0  0
   33.2292    5.4800   24.5314 H   0  0  0  0  0  0  0  0  0  0  0  0
   33.0555    6.0609   22.8403 H   0  0  0  0  0  0  0  0  0  0  0  0
   34.7338    7.8054   23.3980 H   0  0  0  0  0  0  0  0  0  0  0  0
   31.4285    8.1745   30.2169 H   0  0  0  0  0  0  0  0  0  0  0  0
   31.4766    6.3039   31.4895 H   0  0  0  0  0  0  0  0  0  0  0  0
   31.5986    5.3317   29.9174 H   0  0  0  0  0  0  0  0  0  0  0  0
   33.6268    5.8099   31.8757 H   0  0  0  0  0  0  0  0  0  0  0  0
   33.7030    4.8735   30.3447 H   0  0  0  0  0  0  0  0  0  0  0  0
   34.0894    6.6277   30.3447 H   0  0  0  0  0  0  0  0  0  0  0  0
   29.7328   10.9875   27.1894 H   0  0  0  0  0  0  0  0  0  0  0  0
   33.2705   10.8867   24.9170 H   0  0  0  0  0  0  0  0  0  0  0  0
   31.4743   13.9231   21.4085 H   0  0  0  0  0  0  0  0  0  0  0  0
   29.0763   11.9190   22.4247 H   0  0  0  0  0  0  0  0  0  0  0  0
   28.6870   10.4621   25.5741 H   0  0  0  0  0  0  0  0  0  0  0  0
  1  2  1  0
  1  9  1  0
  2  5  1  0
  3  4  1  0
  3  5  1  0
  4  9  1  0
  5  6  1  0
  6  7  1  0
  6 16  2  0
  7  8  1  0
  7 14  2  0
  8 10  2  0
  8 11  1  0
 11 12  1  0
 12 13  1  0
 14 15  1  0
 15 16  1  0
 16 17  1  0
 17 18  2  0
 17 24  1  0
 18 19  1  0
 19 20  1  0
 19 21  2  0
 21 22  1  0
 21 23  1  0
 23 24  2  0
 24 25  1  0
  1 26  1  0
  1 27  1  0
  2 28  1  0
  2 29  1  0
  3 30  1  0
  3 31  1  0
  4 32  1  0
  4 33  1  0
  9 34  1  0
 11 35  1  0
 12 36  1  0
 12 37  1  0
 13 38  1  0
 13 39  1  0
 13 40  1  0
 15 41  1  0
 18 42  1  0
 22 43  1  0
 23 44  1  0
 25 45  1  0
A    1
C19
A    2
C20
A    3
C17
A    4
C16
A    5
N21
A    6
C3
A    7
C2
A    8
C8
A    9
N24
A   10
O9
A   11
N10
A   12
C26
A   13
C27
A   14
N1
A   15
N5
A   16
C4
A   17
C6
A   18
C11
A   19
C12
A   20
CL25
A   21
C13
A   22
O24
A   23
C14
A   24
C15
A   25
O23
M  END
