2CEJ_1AH_B_1200
     RDKit          3D

 86 89  0  0  0  0  0  0  0  0999 V2000
   14.7990   22.1140    7.9090 C   0  0  0  0  0  0  0  0  0  0  0  0
   14.2840   20.9720    8.6230 C   0  0  0  0  0  0  0  0  0  0  0  0
   15.1580   20.1610    9.4240 C   0  0  0  0  0  0  0  0  0  0  0  0
   16.5570   20.4900    9.5160 C   0  0  0  0  0  0  0  0  0  0  0  0
   17.0770   21.6270    8.8100 C   0  0  0  0  0  0  0  0  0  0  0  0
   16.2080   22.4410    8.0080 C   0  0  0  0  0  0  0  0  0  0  0  0
    9.8270   23.7910    2.8810 C   0  0  0  0  0  0  0  0  0  0  0  0
   10.3450   24.5120    1.7690 C   0  0  0  0  0  0  0  0  0  0  0  0
    9.4820   25.3570    1.0200 C   0  0  0  0  0  0  0  0  0  0  0  0
    8.1050   25.4730    1.3930 C   0  0  0  0  0  0  0  0  0  0  0  0
    7.5870   24.7400    2.5030 C   0  0  0  0  0  0  0  0  0  0  0  0
    8.4480   23.8980    3.2480 C   0  0  0  0  0  0  0  0  0  0  0  0
   10.7490   22.9350    3.6710 C   0  0  0  0  0  0  0  0  0  0  0  0
    5.5460   27.2890    4.6170 C   0  0  0  0  0  0  0  0  0  0  0  0
   12.6900   22.6490    4.6390 C   0  0  0  0  0  0  0  0  0  0  0  0
    8.2660   27.6630    5.1840 O   0  0  0  0  0  0  0  0  0  0  0  0
    8.2980   25.7790    6.4460 N   0  0  0  0  0  0  0  0  0  0  0  0
   13.8670   22.9520    7.0240 C   0  0  0  0  0  0  0  0  0  0  0  0
   14.9360   23.5260    4.9140 O   0  0  0  0  0  0  0  0  0  0  0  0
    6.3440   26.4270    5.4320 O   0  0  0  0  0  0  0  0  0  0  0  0
   14.4260   21.1560    5.2090 C   0  0  0  0  0  0  0  0  0  0  0  0
   13.5450   20.2820    5.1370 O   0  0  0  0  0  0  0  0  0  0  0  0
   15.7200   20.8040    5.1140 N   0  0  0  0  0  0  0  0  0  0  0  0
   16.1280   19.4050    4.9480 C   0  0  0  0  0  0  0  0  0  0  0  0
   16.1050   18.8570    3.5460 C   0  0  0  0  0  0  0  0  0  0  0  0
   17.1280   17.9010    3.4230 C   0  0  0  0  0  0  0  0  0  0  0  0
   15.2430   19.1780    2.4470 C   0  0  0  0  0  0  0  0  0  0  0  0
   15.4520   18.4970    1.2010 C   0  0  0  0  0  0  0  0  0  0  0  0
   16.5020   17.5210    1.0810 C   0  0  0  0  0  0  0  0  0  0  0  0
   17.5640   19.1040    5.4340 C   0  0  0  0  0  0  0  0  0  0  0  0
   18.4930   20.0600    4.9250 O   0  0  0  0  0  0  0  0  0  0  0  0
    7.6580   26.6680    5.6650 C   0  0  0  0  0  0  0  0  0  0  0  0
   17.3530   17.2110    2.1980 C   0  0  0  0  0  0  0  0  0  0  0  0
   17.8820   17.7640    4.7340 C   0  0  0  0  0  0  0  0  0  0  0  0
    9.7180   25.7970    6.8500 C   0  0  0  0  0  0  0  0  0  0  0  0
    9.8000   26.0620    8.3980 C   0  0  0  0  0  0  0  0  0  0  0  0
    9.1510   27.4140    8.8140 C   0  0  0  0  0  0  0  0  0  0  0  0
   13.9900   22.6400    5.4810 C   0  0  0  0  0  0  0  0  0  0  0  0
   11.2420   26.0950    8.9250 C   0  0  0  0  0  0  0  0  0  0  0  0
   10.3790   24.4880    6.3210 C   0  0  0  0  0  0  0  0  0  0  0  0
   11.7750   23.7090    4.4380 N   0  0  0  0  0  0  0  0  0  0  0  0
   10.0150   23.3910    6.7380 O   0  0  0  0  0  0  0  0  0  0  0  0
   11.3600   24.6310    5.3950 N   0  0  0  0  0  0  0  0  0  0  0  0
    6.9720   26.6170    0.4190 Br  0  0  0  0  0  0  0  0  0  0  0  0
    9.0240   24.9560    9.1370 C   0  0  0  0  0  0  0  0  0  0  0  0
   13.2154   20.7204    8.5539 H   0  0  0  0  0  0  0  0  0  0  0  0
   14.7596   19.2906    9.9659 H   0  0  0  0  0  0  0  0  0  0  0  0
   17.2281   19.8694   10.1280 H   0  0  0  0  0  0  0  0  0  0  0  0
   18.1460   21.8755    8.8840 H   0  0  0  0  0  0  0  0  0  0  0  0
   16.6106   23.3115    7.4694 H   0  0  0  0  0  0  0  0  0  0  0  0
   11.4050   24.4161    1.4913 H   0  0  0  0  0  0  0  0  0  0  0  0
    9.8704   25.9191    0.1579 H   0  0  0  0  0  0  0  0  0  0  0  0
    6.5256   24.8287    2.7779 H   0  0  0  0  0  0  0  0  0  0  0  0
    8.0586   23.3288    4.1049 H   0  0  0  0  0  0  0  0  0  0  0  0
   10.1525   22.3467    4.3838 H   0  0  0  0  0  0  0  0  0  0  0  0
   11.2920   22.2997    2.9558 H   0  0  0  0  0  0  0  0  0  0  0  0
    4.9397   27.9439    5.2601 H   0  0  0  0  0  0  0  0  0  0  0  0
    6.2012   27.9033    3.9819 H   0  0  0  0  0  0  0  0  0  0  0  0
    4.8831   26.6830    3.9819 H   0  0  0  0  0  0  0  0  0  0  0  0
   13.0164   22.3714    3.6259 H   0  0  0  0  0  0  0  0  0  0  0  0
   12.0688   22.0254    5.2987 H   0  0  0  0  0  0  0  0  0  0  0  0
    7.7324   24.9958    6.8032 H   0  0  0  0  0  0  0  0  0  0  0  0
   12.8296   22.7580    7.3340 H   0  0  0  0  0  0  0  0  0  0  0  0
   14.1615   24.0032    7.1594 H   0  0  0  0  0  0  0  0  0  0  0  0
   15.4297   23.9884    5.6369 H   0  0  0  0  0  0  0  0  0  0  0  0
   16.4436   21.5357    5.1590 H   0  0  0  0  0  0  0  0  0  0  0  0
   15.3529   18.9232    5.5621 H   0  0  0  0  0  0  0  0  0  0  0  0
   14.4434   19.9256    2.5554 H   0  0  0  0  0  0  0  0  0  0  0  0
   14.8089   18.7215    0.3373 H   0  0  0  0  0  0  0  0  0  0  0  0
   16.6560   17.0049    0.1219 H   0  0  0  0  0  0  0  0  0  0  0  0
   17.6345   19.1066    6.5317 H   0  0  0  0  0  0  0  0  0  0  0  0
   18.9399   20.5199    5.6793 H   0  0  0  0  0  0  0  0  0  0  0  0
   18.1543   16.4627    2.1087 H   0  0  0  0  0  0  0  0  0  0  0  0
   17.5115   16.9100    5.3200 H   0  0  0  0  0  0  0  0  0  0  0  0
   18.9584   17.5763    4.6071 H   0  0  0  0  0  0  0  0  0  0  0  0
   10.3006   26.6168    6.4045 H   0  0  0  0  0  0  0  0  0  0  0  0
    9.1181   27.4826    9.9114 H   0  0  0  0  0  0  0  0  0  0  0  0
    9.7478   28.2462    8.4123 H   0  0  0  0  0  0  0  0  0  0  0  0
    8.1284   27.4688    8.4123 H   0  0  0  0  0  0  0  0  0  0  0  0
   11.2305   26.0947   10.0249 H   0  0  0  0  0  0  0  0  0  0  0  0
   11.7848   25.2090    8.5638 H   0  0  0  0  0  0  0  0  0  0  0  0
   11.7437   27.0049    8.5638 H   0  0  0  0  0  0  0  0  0  0  0  0
   11.8589   25.5321    5.4006 H   0  0  0  0  0  0  0  0  0  0  0  0
    9.1251   25.1001   10.2228 H   0  0  0  0  0  0  0  0  0  0  0  0
    7.9611   25.0048    8.8580 H   0  0  0  0  0  0  0  0  0  0  0  0
    9.4315   23.9731    8.8580 H   0  0  0  0  0  0  0  0  0  0  0  0
  1  2  2  0
  1  6  1  0
  1 18  1  0
  2  3  1  0
  3  4  2  0
  4  5  1  0
  5  6  2  0
  7  8  2  0
  7 12  1  0
  7 13  1  0
  8  9  1  0
  9 10  2  0
 10 11  1  0
 10 44  1  0
 11 12  2  0
 13 41  1  0
 14 20  1  0
 15 38  1  0
 15 41  1  0
 16 32  2  0
 17 32  1  0
 17 35  1  0
 18 38  1  0
 19 38  1  0
 20 32  1  0
 21 22  2  0
 21 23  1  0
 21 38  1  0
 23 24  1  0
 24 25  1  0
 24 30  1  0
 25 26  1  0
 25 27  2  0
 26 33  2  0
 26 34  1  0
 27 28  1  0
 28 29  2  0
 29 33  1  0
 30 31  1  0
 30 34  1  0
 35 36  1  0
 35 40  1  0
 36 37  1  0
 36 39  1  0
 36 45  1  0
 40 42  2  0
 40 43  1  0
 41 43  1  0
  2 46  1  0
  3 47  1  0
  4 48  1  0
  5 49  1  0
  6 50  1  0
  8 51  1  0
  9 52  1  0
 11 53  1  0
 12 54  1  0
 13 55  1  0
 13 56  1  0
 14 57  1  0
 14 58  1  0
 14 59  1  0
 15 60  1  0
 15 61  1  0
 17 62  1  0
 18 63  1  0
 18 64  1  0
 19 65  1  0
 23 66  1  0
 24 67  1  0
 27 68  1  0
 28 69  1  0
 29 70  1  0
 30 71  1  0
 31 72  1  0
 33 73  1  0
 34 74  1  0
 34 75  1  0
 35 76  1  0
 37 77  1  0
 37 78  1  0
 37 79  1  0
 39 80  1  0
 39 81  1  0
 39 82  1  0
 43 83  1  0
 45 84  1  0
 45 85  1  0
 45 86  1  0
A    1
C23
A    2
C24
A    3
C25
A    4
C26
A    5
C27
A    6
C28
A    7
C33
A    8
C34
A    9
C35
A   10
C36
A   11
C37
A   12
C38
A   13
C32
A   14
C7
A   15
C4
A   16
O3
A   17
N1
A   18
C22
A   19
O6
A   20
O8
A   21
C10
A   22
O11
A   23
N12
A   24
C51
A   25
C52
A   26
C57
A   27
C53
A   28
C54
A   29
C55
A   30
C59
A   31
O60
A   32
C30
A   33
C56
A   34
C58
A   35
C41
A   36
C42
A   37
C43
A   38
C1
A   39
C44
A   40
C45
A   41
N24
A   42
O46
A   43
N47
A   44
BR
A   45
C86
M  END
