2CEQ_GIM_A_1492
     RDKit          3D

 27 28  0  0  0  0  0  0  0  0999 V2000
  118.9130   38.7800   63.3850 C   0  0  0  0  0  0  0  0  0  0  0  0
  118.5790   37.6730   62.4380 C   0  0  0  0  0  0  0  0  0  0  0  0
  119.9260   39.6620   63.2380 N   0  0  0  0  0  0  0  0  0  0  0  0
  119.5740   37.6740   61.2740 C   0  0  0  0  0  0  0  0  0  0  0  0
  119.9650   39.0960   60.8960 C   0  0  0  0  0  0  0  0  0  0  0  0
  120.8360   39.6450   62.0510 C   0  0  0  0  0  0  0  0  0  0  0  0
  121.4240   41.0210   61.7340 C   0  0  0  0  0  0  0  0  0  0  0  0
  118.8620   40.1580   65.0820 C   0  0  0  0  0  0  0  0  0  0  0  0
  119.8950   40.5350   64.2560 C   0  0  0  0  0  0  0  0  0  0  0  0
  118.2650   39.0740   64.5300 N   0  0  0  0  0  0  0  0  0  0  0  0
  118.9550   37.0080   60.1680 O   0  0  0  0  0  0  0  0  0  0  0  0
  118.6610   36.3960   63.0810 O   0  0  0  0  0  0  0  0  0  0  0  0
  120.6820   39.0350   59.6620 O   0  0  0  0  0  0  0  0  0  0  0  0
  120.3640   41.9800   61.6180 O   0  0  0  0  0  0  0  0  0  0  0  0
  117.5516   37.8390   62.0819 H   0  0  0  0  0  0  0  0  0  0  0  0
  120.4966   37.1506   61.5654 H   0  0  0  0  0  0  0  0  0  0  0  0
  119.1004   39.7615   60.7559 H   0  0  0  0  0  0  0  0  0  0  0  0
  121.7221   39.0187   62.2314 H   0  0  0  0  0  0  0  0  0  0  0  0
  122.1051   41.3237   62.5430 H   0  0  0  0  0  0  0  0  0  0  0  0
  121.9791   40.9723   60.7856 H   0  0  0  0  0  0  0  0  0  0  0  0
  118.5722   40.6488   66.0228 H   0  0  0  0  0  0  0  0  0  0  0  0
  120.5693   41.3917   64.4026 H   0  0  0  0  0  0  0  0  0  0  0  0
  117.4580   38.5643   64.9172 H   0  0  0  0  0  0  0  0  0  0  0  0
  118.3215   36.3264   60.5058 H   0  0  0  0  0  0  0  0  0  0  0  0
  118.6530   36.5200   64.0632 H   0  0  0  0  0  0  0  0  0  0  0  0
  121.6510   38.9526   59.8471 H   0  0  0  0  0  0  0  0  0  0  0  0
  120.0641   42.2513   62.5216 H   0  0  0  0  0  0  0  0  0  0  0  0
  1  2  1  0
  1  3  2  0
  1 10  1  0
  2  4  1  0
  2 12  1  0
  3  6  1  0
  3  9  1  0
  4  5  1  0
  4 11  1  0
  5  6  1  0
  5 13  1  0
  6  7  1  0
  7 14  1  0
  8  9  2  0
  8 10  1  0
  2 15  1  0
  4 16  1  0
  5 17  1  0
  6 18  1  0
  7 19  1  0
  7 20  1  0
  8 21  1  0
  9 22  1  0
 10 23  1  0
 11 24  1  0
 12 25  1  0
 13 26  1  0
 14 27  1  0
M  CHG  1   3   1
A    1
C1
A    2
C2
A    3
N10
A    4
C3
A    5
C4
A    6
C5
A    7
C6
A    8
C7
A    9
C8
A   10
N1
A   11
O3
A   12
O2
A   13
O4
A   14
O6
M  END
