2CF9_348_H_1247
     RDKit          3D

 67 71  0  0  0  0  0  0  0  0999 V2000
   10.5790  -12.1500   24.1350 N   0  0  0  0  0  0  0  0  0  0  0  0
   11.3620  -11.0830   23.9360 C   0  0  0  0  0  0  0  0  0  0  0  0
   11.1250   -9.9770   24.6150 N   0  0  0  0  0  0  0  0  0  0  0  0
   12.4910  -11.1410   22.9380 C   0  0  0  0  0  0  0  0  0  0  0  0
   12.7220  -12.3240   22.2230 C   0  0  0  0  0  0  0  0  0  0  0  0
   13.7750  -12.3820   21.3020 C   0  0  0  0  0  0  0  0  0  0  0  0
   14.6080  -11.2840   21.0810 C   0  0  0  0  0  0  0  0  0  0  0  0
   14.3670  -10.1020   21.7950 C   0  0  0  0  0  0  0  0  0  0  0  0
   13.3120  -10.0380   22.7160 C   0  0  0  0  0  0  0  0  0  0  0  0
   15.7330  -11.3330   20.0920 C   0  0  0  0  0  0  0  0  0  0  0  0
   15.5650  -12.3140   18.9750 N   0  0  0  0  0  0  0  0  0  0  0  0
   14.6770  -11.7870   17.9140 C   0  0  0  0  0  0  0  0  0  0  0  0
   15.4920  -11.7650   16.6130 C   0  0  0  0  0  0  0  0  0  0  0  0
   16.9550  -11.8290   17.0430 C   0  0  0  0  0  0  0  0  0  0  0  0
   16.9100  -12.5340   18.3950 C   0  0  0  0  0  0  0  0  0  0  0  0
   17.9300  -12.0660   19.4320 C   0  0  0  0  0  0  0  0  0  0  0  0
   18.8760  -13.2080   19.8450 C   0  0  0  0  0  0  0  0  0  0  0  0
   18.2860  -13.6200   21.1420 N   0  0  0  0  0  0  0  0  0  0  0  0
   17.3080  -12.8160   21.5770 C   0  0  0  0  0  0  0  0  0  0  0  0
   16.6680  -13.0300   22.5990 O   0  0  0  0  0  0  0  0  0  0  0  0
   17.1340  -11.6350   20.6620 C   0  0  0  0  0  0  0  0  0  0  0  0
   18.7650  -14.8600   21.7930 C   0  0  0  0  0  0  0  0  0  0  0  0
   19.6430  -14.5080   22.9820 C   0  0  0  0  0  0  0  0  0  0  0  0
   21.0250  -14.3920   22.8230 C   0  0  0  0  0  0  0  0  0  0  0  0
   21.8500  -14.0390   23.8980 C   0  0  0  0  0  0  0  0  0  0  0  0
   21.2810  -13.7970   25.1490 C   0  0  0  0  0  0  0  0  0  0  0  0
   22.0800  -13.4510   26.2110 O   0  0  0  0  0  0  0  0  0  0  0  0
   21.6130  -12.5490   27.2220 C   0  0  0  0  0  0  0  0  0  0  0  0
   19.8990  -13.9220   25.3160 C   0  0  0  0  0  0  0  0  0  0  0  0
   19.0790  -14.2710   24.2430 C   0  0  0  0  0  0  0  0  0  0  0  0
   20.3550  -12.7350   19.9340 C   0  0  0  0  0  0  0  0  0  0  0  0
   21.0120  -12.4660   18.5790 C   0  0  0  0  0  0  0  0  0  0  0  0
   20.6080  -11.5310   20.8420 C   0  0  0  0  0  0  0  0  0  0  0  0
   10.3562  -12.4537   25.0937 H   0  0  0  0  0  0  0  0  0  0  0  0
   10.1992  -12.6675   23.3295 H   0  0  0  0  0  0  0  0  0  0  0  0
   11.7192   -9.1478   24.4724 H   0  0  0  0  0  0  0  0  0  0  0  0
   12.0796  -13.2022   22.3845 H   0  0  0  0  0  0  0  0  0  0  0  0
   13.9494  -13.3120   20.7410 H   0  0  0  0  0  0  0  0  0  0  0  0
   15.0073   -9.2225   21.6322 H   0  0  0  0  0  0  0  0  0  0  0  0
   13.1304   -9.1053   23.2701 H   0  0  0  0  0  0  0  0  0  0  0  0
   15.6754  -10.2947   19.7333 H   0  0  0  0  0  0  0  0  0  0  0  0
   13.7990  -12.4394   17.7982 H   0  0  0  0  0  0  0  0  0  0  0  0
   14.3184  -10.7787   18.1685 H   0  0  0  0  0  0  0  0  0  0  0  0
   15.2379  -12.6325   15.9862 H   0  0  0  0  0  0  0  0  0  0  0  0
   15.2823  -10.8646   16.0170 H   0  0  0  0  0  0  0  0  0  0  0  0
   17.5504  -12.4063   16.3203 H   0  0  0  0  0  0  0  0  0  0  0  0
   17.4246  -10.8358   17.0981 H   0  0  0  0  0  0  0  0  0  0  0  0
   17.1521  -13.5861   18.1840 H   0  0  0  0  0  0  0  0  0  0  0  0
   18.5399  -11.2524   19.0124 H   0  0  0  0  0  0  0  0  0  0  0  0
   18.9424  -14.0390   19.1274 H   0  0  0  0  0  0  0  0  0  0  0  0
   17.4119  -10.7427   21.2421 H   0  0  0  0  0  0  0  0  0  0  0  0
   17.9021  -15.4490   22.1373 H   0  0  0  0  0  0  0  0  0  0  0  0
   19.3493  -15.4485   21.0703 H   0  0  0  0  0  0  0  0  0  0  0  0
   21.4735  -14.5811   21.8366 H   0  0  0  0  0  0  0  0  0  0  0  0
   22.9376  -13.9532   23.7575 H   0  0  0  0  0  0  0  0  0  0  0  0
   21.8299  -12.9679   28.2157 H   0  0  0  0  0  0  0  0  0  0  0  0
   22.1229  -11.5804   27.1131 H   0  0  0  0  0  0  0  0  0  0  0  0
   20.5277  -12.4063   27.1131 H   0  0  0  0  0  0  0  0  0  0  0  0
   19.4527  -13.7430   26.3053 H   0  0  0  0  0  0  0  0  0  0  0  0
   17.9920  -14.3600   24.3862 H   0  0  0  0  0  0  0  0  0  0  0  0
   20.8288  -13.6123   20.3987 H   0  0  0  0  0  0  0  0  0  0  0  0
   22.0196  -12.0534   18.7355 H   0  0  0  0  0  0  0  0  0  0  0  0
   21.0847  -13.4067   18.0136 H   0  0  0  0  0  0  0  0  0  0  0  0
   20.4041  -11.7444   18.0136 H   0  0  0  0  0  0  0  0  0  0  0  0
   20.5420  -11.8450   21.8942 H   0  0  0  0  0  0  0  0  0  0  0  0
   21.6109  -11.1256   20.6425 H   0  0  0  0  0  0  0  0  0  0  0  0
   19.8530  -10.7562   20.6425 H   0  0  0  0  0  0  0  0  0  0  0  0
  1  2  1  0
  2  3  2  3
  2  4  1  0
  4  5  2  0
  4  9  1  0
  5  6  1  0
  6  7  2  0
  7  8  1  0
  7 10  1  0
  8  9  2  0
 10 11  1  0
 10 21  1  0
 11 12  1  0
 11 15  1  0
 12 13  1  0
 13 14  1  0
 14 15  1  0
 15 16  1  0
 16 17  1  0
 16 21  1  0
 17 18  1  0
 17 31  1  0
 18 19  1  0
 18 22  1  0
 19 20  2  0
 19 21  1  0
 22 23  1  0
 23 24  2  0
 23 30  1  0
 24 25  1  0
 25 26  2  0
 26 27  1  0
 26 29  1  0
 27 28  1  0
 29 30  2  0
 31 32  1  0
 31 33  1  0
  1 34  1  0
  1 35  1  0
  3 36  1  0
  5 37  1  0
  6 38  1  0
  8 39  1  0
  9 40  1  0
 10 41  1  0
 12 42  1  0
 12 43  1  0
 13 44  1  0
 13 45  1  0
 14 46  1  0
 14 47  1  0
 15 48  1  0
 16 49  1  0
 17 50  1  0
 21 51  1  0
 22 52  1  0
 22 53  1  0
 24 54  1  0
 25 55  1  0
 28 56  1  0
 28 57  1  0
 28 58  1  0
 29 59  1  0
 30 60  1  0
 31 61  1  0
 32 62  1  0
 32 63  1  0
 32 64  1  0
 33 65  1  0
 33 66  1  0
 33 67  1  0
A    1
N1
A    2
C3
A    3
N2
A    4
C4
A    5
C9
A    6
C8
A    7
C7
A    8
C6
A    9
C5
A   10
C10
A   11
N11
A   12
C12
A   13
C13
A   14
C14
A   15
C15
A   16
C16
A   17
C17
A   18
N19
A   19
C20
A   20
O21
A   21
C22
A   22
C23
A   23
C24
A   24
C32
A   25
C31
A   26
C30
A   27
O29
A   28
C28
A   29
C26
A   30
C25
A   31
C18
A   32
C41
A   33
C42
M  END
