2CHM_3P4_A_1861
     RDKit          3D

 61 64  0  0  0  0  0  0  0  0999 V2000
   19.9440   -6.1620   14.2150 C   0  0  0  0  0  0  0  0  0  0  0  0
   20.2460   -6.4990   15.5140 C   0  0  0  0  0  0  0  0  0  0  0  0
   20.6980   -7.1660   13.3930 C   0  0  0  0  0  0  0  0  0  0  0  0
   19.1670   -5.1940   13.5830 N   0  0  0  0  0  0  0  0  0  0  0  0
   21.0900   -7.5880   15.4450 N   0  0  0  0  0  0  0  0  0  0  0  0
   19.7310   -5.7850   16.7620 C   0  0  0  0  0  0  0  0  0  0  0  0
   21.3230   -7.9350   14.2150 N   0  0  0  0  0  0  0  0  0  0  0  0
   20.5630   -7.0550   11.9310 C   0  0  0  0  0  0  0  0  0  0  0  0
   19.0940   -5.1590   12.2580 C   0  0  0  0  0  0  0  0  0  0  0  0
   21.6770   -8.3000   16.6060 C   0  0  0  0  0  0  0  0  0  0  0  0
   18.3220   -6.2620   17.1350 C   0  0  0  0  0  0  0  0  0  0  0  0
   19.7660   -6.0570   11.4390 N   0  0  0  0  0  0  0  0  0  0  0  0
   21.1320   -7.8210   11.1930 O   0  0  0  0  0  0  0  0  0  0  0  0
   18.2660   -4.1740   11.5770 C   0  0  0  0  0  0  0  0  0  0  0  0
   20.7410   -9.4880   17.0400 C   0  0  0  0  0  0  0  0  0  0  0  0
   22.6090   -9.4810   16.1640 C   0  0  0  0  0  0  0  0  0  0  0  0
   18.7590   -3.3160   10.5380 C   0  0  0  0  0  0  0  0  0  0  0  0
   16.8980   -4.0660   11.9480 C   0  0  0  0  0  0  0  0  0  0  0  0
   21.5600  -10.5160   16.3310 N   0  0  0  0  0  0  0  0  0  0  0  0
   17.9030   -2.4240    9.9370 N   0  0  0  0  0  0  0  0  0  0  0  0
   20.0470   -3.3970   10.1710 O   0  0  0  0  0  0  0  0  0  0  0  0
   16.0610   -3.1370   11.3030 C   0  0  0  0  0  0  0  0  0  0  0  0
   21.9860  -11.6670   17.1690 C   0  0  0  0  0  0  0  0  0  0  0  0
   16.5880   -2.3110   10.2810 C   0  0  0  0  0  0  0  0  0  0  0  0
   20.5600   -2.6740    9.0200 C   0  0  0  0  0  0  0  0  0  0  0  0
   14.4120   -3.0400   11.7710 C   0  0  0  0  0  0  0  0  0  0  0  0
   20.8800  -12.7270   17.3200 C   0  0  0  0  0  0  0  0  0  0  0  0
   22.0320   -2.9600    8.9220 C   0  0  0  0  0  0  0  0  0  0  0  0
   13.6860   -2.5770   10.6770 O   0  0  0  0  0  0  0  0  0  0  0  0
   22.8570   -2.5320    9.9750 C   0  0  0  0  0  0  0  0  0  0  0  0
   24.2280   -2.7620    9.9320 C   0  0  0  0  0  0  0  0  0  0  0  0
   13.7440   -3.3610   13.0240 C   0  0  0  0  0  0  0  0  0  0  0  0
   20.4129   -5.9915   17.6001 H   0  0  0  0  0  0  0  0  0  0  0  0
   19.6882   -4.7061   16.5521 H   0  0  0  0  0  0  0  0  0  0  0  0
   21.9272   -8.7206   13.9347 H   0  0  0  0  0  0  0  0  0  0  0  0
   21.9987   -7.4655   17.2464 H   0  0  0  0  0  0  0  0  0  0  0  0
   18.2240   -6.2952   18.2301 H   0  0  0  0  0  0  0  0  0  0  0  0
   17.5777   -5.5658   16.7212 H   0  0  0  0  0  0  0  0  0  0  0  0
   18.1537   -7.2672   16.7212 H   0  0  0  0  0  0  0  0  0  0  0  0
   19.6601   -5.9682   10.4183 H   0  0  0  0  0  0  0  0  0  0  0  0
   20.7042   -9.6369   18.1292 H   0  0  0  0  0  0  0  0  0  0  0  0
   19.6677   -9.4215   16.8082 H   0  0  0  0  0  0  0  0  0  0  0  0
   22.9628   -9.3875   15.1266 H   0  0  0  0  0  0  0  0  0  0  0  0
   23.5615   -9.6173   16.6971 H   0  0  0  0  0  0  0  0  0  0  0  0
   16.4926   -4.7107   12.7417 H   0  0  0  0  0  0  0  0  0  0  0  0
   22.8641  -12.1373   16.7024 H   0  0  0  0  0  0  0  0  0  0  0  0
   22.2192  -11.2818   18.1726 H   0  0  0  0  0  0  0  0  0  0  0  0
   15.9417   -1.5835    9.7682 H   0  0  0  0  0  0  0  0  0  0  0  0
   20.0504   -3.0136    8.1062 H   0  0  0  0  0  0  0  0  0  0  0  0
   20.3832   -1.5941    9.1323 H   0  0  0  0  0  0  0  0  0  0  0  0
   20.6900  -12.9091   18.3881 H   0  0  0  0  0  0  0  0  0  0  0  0
   19.9584  -12.3663   16.8399 H   0  0  0  0  0  0  0  0  0  0  0  0
   21.2013  -13.6631   16.8399 H   0  0  0  0  0  0  0  0  0  0  0  0
   22.1487   -4.0505    8.8371 H   0  0  0  0  0  0  0  0  0  0  0  0
   22.3689   -2.3755    8.0531 H   0  0  0  0  0  0  0  0  0  0  0  0
   12.8598   -2.0501   10.8183 H   0  0  0  0  0  0  0  0  0  0  0  0
   22.4164   -2.0120   10.8384 H   0  0  0  0  0  0  0  0  0  0  0  0
   24.8686   -2.4242   10.7600 H   0  0  0  0  0  0  0  0  0  0  0  0
   24.6717   -3.2817    9.0700 H   0  0  0  0  0  0  0  0  0  0  0  0
   12.6566   -3.2244   13.1183 H   0  0  0  0  0  0  0  0  0  0  0  0
   14.3267   -3.7401   13.8765 H   0  0  0  0  0  0  0  0  0  0  0  0
  1  2  1  0
  1  3  2  0
  1  4  1  0
  2  5  2  0
  2  6  1  0
  3  7  1  0
  3  8  1  0
  4  9  2  0
  5  7  1  0
  5 10  1  0
  6 11  1  0
  8 12  1  0
  8 13  2  0
  9 12  1  0
  9 14  1  0
 10 15  1  0
 10 16  1  0
 14 17  2  0
 14 18  1  0
 15 19  1  0
 16 19  1  0
 17 20  1  0
 17 21  1  0
 18 22  2  0
 19 23  1  0
 20 24  2  0
 21 25  1  0
 22 24  1  0
 22 26  1  0
 23 27  1  0
 25 28  1  0
 26 29  1  0
 26 32  2  3
 28 30  1  0
 30 31  2  3
  6 33  1  0
  6 34  1  0
  7 35  1  0
 10 36  1  0
 11 37  1  0
 11 38  1  0
 11 39  1  0
 12 40  1  0
 15 41  1  0
 15 42  1  0
 16 43  1  0
 16 44  1  0
 18 45  1  0
 23 46  1  0
 23 47  1  0
 24 48  1  0
 25 49  1  0
 25 50  1  0
 27 51  1  0
 27 52  1  0
 27 53  1  0
 28 54  1  0
 28 55  1  0
 29 56  1  0
 30 57  1  0
 31 58  1  0
 31 59  1  0
 32 60  1  0
 32 61  1  0
M  CHG  1   5   1
A    1
C1
A    2
C2
A    3
C3
A    4
N1
A    5
N2
A    6
C4
A    7
N3
A    8
C5
A    9
C6
A   10
C7
A   11
C8
A   12
N4
A   13
O1
A   14
C9
A   15
C10
A   16
C11
A   17
C12
A   18
C13
A   19
N5
A   20
N6
A   21
O2
A   22
C14
A   23
C15
A   24
C16
A   25
C17
A   26
C20
A   27
C18
A   28
C19
A   29
O3
A   30
C21
A   31
C22
A   32
C23
M  END
