2CHW_039_A_2093
     RDKit          3D

 46 50  0  0  0  0  0  0  0  0999 V2000
   50.8990   16.3190   31.0490 C   0  0  0  0  0  0  0  0  0  0  0  0
   49.8180   16.4300   31.9910 O   0  0  0  0  0  0  0  0  0  0  0  0
   49.0900   17.5720   31.8950 C   0  0  0  0  0  0  0  0  0  0  0  0
   49.4830   18.6530   31.1140 C   0  0  0  0  0  0  0  0  0  0  0  0
   48.6960   19.8030   31.0690 C   0  0  0  0  0  0  0  0  0  0  0  0
   47.5060   19.8780   31.8010 C   0  0  0  0  0  0  0  0  0  0  0  0
   47.1210   18.7960   32.5900 C   0  0  0  0  0  0  0  0  0  0  0  0
   47.9120   17.6500   32.6170 C   0  0  0  0  0  0  0  0  0  0  0  0
   47.4980   16.5900   33.4170 N   0  0  0  0  0  0  0  0  0  0  0  0
   48.0760   16.4810   34.6750 C   0  0  0  0  0  0  0  0  0  0  0  0
   48.9180   17.3100   34.9960 O   0  0  0  0  0  0  0  0  0  0  0  0
   47.6950   15.4550   35.5310 C   0  0  0  0  0  0  0  0  0  0  0  0
   48.2370   15.2870   36.8230 C   0  0  0  0  0  0  0  0  0  0  0  0
   49.4490   16.3440   37.5170 Cl  0  0  0  0  0  0  0  0  0  0  0  0
   47.7970   14.2260   37.6120 C   0  0  0  0  0  0  0  0  0  0  0  0
   46.8480   13.3370   37.1520 C   0  0  0  0  0  0  0  0  0  0  0  0
   46.3170   13.5250   35.8880 C   0  0  0  0  0  0  0  0  0  0  0  0
   46.7300   14.5650   35.0630 C   0  0  0  0  0  0  0  0  0  0  0  0
   46.1850   14.6820   33.8300 N   0  0  0  0  0  0  0  0  0  0  0  0
   46.5280   15.6630   32.9870 C   0  0  0  0  0  0  0  0  0  0  0  0
   45.9320   15.7890   31.5640 C   0  0  0  0  0  0  0  0  0  0  0  0
   44.6330   14.5990   31.0330 S   0  0  0  0  0  0  0  0  0  0  0  0
   45.2080   13.0480   30.3300 C   0  0  0  0  0  0  0  0  0  0  0  0
   46.5170   12.6520   30.2720 C   0  0  0  0  0  0  0  0  0  0  0  0
   47.6430   13.2240   30.6340 N   0  0  0  0  0  0  0  0  0  0  0  0
   48.6300   12.3630   30.3220 C   0  0  0  0  0  0  0  0  0  0  0  0
   48.1340   11.2520   29.7580 N   0  0  0  0  0  0  0  0  0  0  0  0
   46.8160   11.3990   29.7150 C   0  0  0  0  0  0  0  0  0  0  0  0
   45.8470   10.5960   29.2640 N   0  0  0  0  0  0  0  0  0  0  0  0
   44.5940   11.0010   29.3190 C   0  0  0  0  0  0  0  0  0  0  0  0
   44.2880   12.1810   29.8280 N   0  0  0  0  0  0  0  0  0  0  0  0
   51.8504   16.2213   31.5925 H   0  0  0  0  0  0  0  0  0  0  0  0
   50.7450   15.4319   30.4170 H   0  0  0  0  0  0  0  0  0  0  0  0
   50.9285   17.2188   30.4170 H   0  0  0  0  0  0  0  0  0  0  0  0
   50.4148   18.6010   30.5316 H   0  0  0  0  0  0  0  0  0  0  0  0
   49.0130   20.6577   30.4534 H   0  0  0  0  0  0  0  0  0  0  0  0
   46.8808   20.7818   31.7541 H   0  0  0  0  0  0  0  0  0  0  0  0
   46.1987   18.8466   33.1874 H   0  0  0  0  0  0  0  0  0  0  0  0
   48.2146   14.0949   38.6212 H   0  0  0  0  0  0  0  0  0  0  0  0
   46.5194   12.4944   37.7781 H   0  0  0  0  0  0  0  0  0  0  0  0
   45.5449   12.8307   35.5251 H   0  0  0  0  0  0  0  0  0  0  0  0
   45.4982   16.7967   31.4842 H   0  0  0  0  0  0  0  0  0  0  0  0
   46.7812   15.5659   30.9014 H   0  0  0  0  0  0  0  0  0  0  0  0
   49.6991   12.5462   30.5050 H   0  0  0  0  0  0  0  0  0  0  0  0
   48.6726   10.4406   29.4227 H   0  0  0  0  0  0  0  0  0  0  0  0
   43.7944   10.3494   28.9369 H   0  0  0  0  0  0  0  0  0  0  0  0
  1  2  1  0
  2  3  1  0
  3  4  2  0
  3  8  1  0
  4  5  1  0
  5  6  2  0
  6  7  1  0
  7  8  2  0
  8  9  1  0
  9 10  1  0
  9 20  1  0
 10 11  2  0
 10 12  1  0
 12 13  2  0
 12 18  1  0
 13 14  1  0
 13 15  1  0
 15 16  2  0
 16 17  1  0
 17 18  2  0
 18 19  1  0
 19 20  2  0
 20 21  1  0
 21 22  1  0
 22 23  1  0
 23 24  2  0
 23 31  1  0
 24 25  1  0
 24 28  1  0
 25 26  2  0
 26 27  1  0
 27 28  1  0
 28 29  2  0
 29 30  1  0
 30 31  2  0
  1 32  1  0
  1 33  1  0
  1 34  1  0
  4 35  1  0
  5 36  1  0
  6 37  1  0
  7 38  1  0
 15 39  1  0
 16 40  1  0
 17 41  1  0
 21 42  1  0
 21 43  1  0
 26 44  1  0
 27 45  1  0
 30 46  1  0
A    1
CAU
A    2
OAT
A    3
CAP
A    4
CAQ
A    5
CAR
A    6
CAJ
A    7
CAI
A    8
CAH
A    9
NAG
A   10
CAF
A   11
OAB
A   12
CAE
A   13
CAD
A   14
CL
A   15
CAC
A   16
CAK
A   17
CAL
A   18
CAM
A   19
NAN
A   20
CAO
A   21
CAS
A   22
S6
A   23
C6
A   24
C5
A   25
N7
A   26
C8
A   27
N9
A   28
C4
A   29
N3
A   30
C2
A   31
N1
M  END
