2CHX_090_A_2093
     RDKit          3D

 42 45  0  0  0  0  0  0  0  0999 V2000
   43.9370   13.1730   32.7120 O   0  0  0  0  0  0  0  0  0  0  0  0
   43.4190   12.3190   32.0050 C   0  0  0  0  0  0  0  0  0  0  0  0
   42.0440   11.8030   32.3370 C   0  0  0  0  0  0  0  0  0  0  0  0
   41.4530   10.8220   31.5430 C   0  0  0  0  0  0  0  0  0  0  0  0
   40.2450   10.3360   31.8800 N   0  0  0  0  0  0  0  0  0  0  0  0
   39.5970   10.7580   32.9850 C   0  0  0  0  0  0  0  0  0  0  0  0
   40.1490   11.7060   33.8320 C   0  0  0  0  0  0  0  0  0  0  0  0
   41.3890   12.2250   33.5040 C   0  0  0  0  0  0  0  0  0  0  0  0
   44.1030   11.6770   31.0610 N   0  0  0  0  0  0  0  0  0  0  0  0
   45.3760   11.9880   30.7450 C   0  0  0  0  0  0  0  0  0  0  0  0
   46.0670   12.9780   31.3930 N   0  0  0  0  0  0  0  0  0  0  0  0
   47.3740   13.2620   31.1040 C   0  0  0  0  0  0  0  0  0  0  0  0
   48.0250   14.2850   31.7910 C   0  0  0  0  0  0  0  0  0  0  0  0
   47.3320   15.0180   32.7090 O   0  0  0  0  0  0  0  0  0  0  0  0
   46.5530   16.1210   32.2100 C   0  0  0  0  0  0  0  0  0  0  0  0
   48.0570   12.5260   30.1190 C   0  0  0  0  0  0  0  0  0  0  0  0
   47.3610   11.4980   29.4700 C   0  0  0  0  0  0  0  0  0  0  0  0
   46.0380   11.2310   29.7700 N   0  0  0  0  0  0  0  0  0  0  0  0
   45.4950   10.1250   28.9960 C   0  0  0  0  0  0  0  0  0  0  0  0
   46.7150    9.7690   28.1480 C   0  0  0  0  0  0  0  0  0  0  0  0
   47.7870   10.6690   28.5230 N   0  0  0  0  0  0  0  0  0  0  0  0
   49.3980   12.8300   29.8200 C   0  0  0  0  0  0  0  0  0  0  0  0
   50.0470   13.8570   30.5070 C   0  0  0  0  0  0  0  0  0  0  0  0
   49.3570   14.6060   31.4920 C   0  0  0  0  0  0  0  0  0  0  0  0
   49.9880   15.6380   32.1650 O   0  0  0  0  0  0  0  0  0  0  0  0
   51.3320   16.0090   31.8240 C   0  0  0  0  0  0  0  0  0  0  0  0
   41.9706   10.4479   30.6474 H   0  0  0  0  0  0  0  0  0  0  0  0
   38.6070   10.3399   33.2195 H   0  0  0  0  0  0  0  0  0  0  0  0
   39.6177   12.0356   34.7370 H   0  0  0  0  0  0  0  0  0  0  0  0
   41.8626   12.9704   34.1598 H   0  0  0  0  0  0  0  0  0  0  0  0
   43.6406   10.9109   30.5508 H   0  0  0  0  0  0  0  0  0  0  0  0
   46.1472   16.6956   33.0557 H   0  0  0  0  0  0  0  0  0  0  0  0
   47.1919   16.7732   31.5965 H   0  0  0  0  0  0  0  0  0  0  0  0
   45.7247   15.7370   31.5965 H   0  0  0  0  0  0  0  0  0  0  0  0
   44.4920    9.6738   29.0158 H   0  0  0  0  0  0  0  0  0  0  0  0
   46.7697    8.9736   27.3901 H   0  0  0  0  0  0  0  0  0  0  0  0
   48.7339   10.6665   28.1177 H   0  0  0  0  0  0  0  0  0  0  0  0
   49.9334   12.2596   29.0467 H   0  0  0  0  0  0  0  0  0  0  0  0
   51.0992   14.0860   30.2826 H   0  0  0  0  0  0  0  0  0  0  0  0
   51.9128   16.1693   32.7443 H   0  0  0  0  0  0  0  0  0  0  0  0
   51.7956   15.2052   31.2332 H   0  0  0  0  0  0  0  0  0  0  0  0
   51.3176   16.9368   31.2332 H   0  0  0  0  0  0  0  0  0  0  0  0
  1  2  2  0
  2  3  1  0
  2  9  1  0
  3  4  2  0
  3  8  1  0
  4  5  1  0
  5  6  2  0
  6  7  1  0
  7  8  2  0
  9 10  1  0
 10 11  2  0
 10 18  1  0
 11 12  1  0
 12 13  2  0
 12 16  1  0
 13 14  1  0
 13 24  1  0
 14 15  1  0
 16 17  1  0
 16 22  2  0
 17 18  2  0
 17 21  1  0
 18 19  1  0
 19 20  2  0
 20 21  1  0
 22 23  1  0
 23 24  2  0
 24 25  1  0
 25 26  1  0
  4 27  1  0
  6 28  1  0
  7 29  1  0
  8 30  1  0
  9 31  1  0
 15 32  1  0
 15 33  1  0
 15 34  1  0
 19 35  1  0
 20 36  1  0
 21 37  1  0
 22 38  1  0
 23 39  1  0
 26 40  1  0
 26 41  1  0
 26 42  1  0
M  CHG  1  18   1
A    1
OAU
A    2
CAO
A    3
CAP
A    4
CAQ
A    5
NAR
A    6
CAX
A    7
CAW
A    8
CAV
A    9
NAN
A   10
CAM
A   11
NAL
A   12
CAK
A   13
CAJ
A   14
OAT
A   15
CAZ
A   16
CAE
A   17
CAF
A   18
NAG
A   19
CAH
A   20
CAB
A   21
NAA
A   22
CAD
A   23
CAC
A   24
CAI
A   25
OAS
A   26
CAY
M  END
