2CI0_1CM_A_1450
     RDKit          3D

 34 35  0  0  0  0  0  0  0  0999 V2000
  -16.9180   -2.7230   69.7420 O   0  0  0  0  0  0  0  0  0  0  0  0
  -16.1220   -1.9140   69.3080 C   0  0  0  0  0  0  0  0  0  0  0  0
  -15.6730   -0.7940   70.1960 C   0  0  0  0  0  0  0  0  0  0  0  0
  -15.9750    0.5730   69.5270 C   0  0  0  0  0  0  0  0  0  0  0  0
  -17.4920    0.7700   69.3510 C   0  0  0  0  0  0  0  0  0  0  0  0
  -13.7970   -1.9780   71.4230 C   0  0  0  0  0  0  0  0  0  0  0  0
  -14.1810   -0.9930   70.4840 C   0  0  0  0  0  0  0  0  0  0  0  0
  -11.8250   -0.4360   70.1360 C   0  0  0  0  0  0  0  0  0  0  0  0
  -11.4550   -1.4210   71.0770 C   0  0  0  0  0  0  0  0  0  0  0  0
  -15.6120   -1.9800   68.0410 N   0  0  0  0  0  0  0  0  0  0  0  0
  -15.9220   -2.9490   67.0860 C   0  0  0  0  0  0  0  0  0  0  0  0
  -16.8510   -4.0000   67.3350 C   0  0  0  0  0  0  0  0  0  0  0  0
  -12.4430   -2.1910   71.7180 C   0  0  0  0  0  0  0  0  0  0  0  0
  -17.1040   -4.9030   66.3450 C   0  0  0  0  0  0  0  0  0  0  0  0
  -16.4760   -4.7860   65.1570 N   0  0  0  0  0  0  0  0  0  0  0  0
  -15.5980   -3.8230   64.8740 C   0  0  0  0  0  0  0  0  0  0  0  0
  -13.1810   -0.2200   69.8370 C   0  0  0  0  0  0  0  0  0  0  0  0
  -15.2920   -2.8740   65.8240 C   0  0  0  0  0  0  0  0  0  0  0  0
  -16.2201   -0.7981   71.1503 H   0  0  0  0  0  0  0  0  0  0  0  0
  -15.5771    1.3802   70.1595 H   0  0  0  0  0  0  0  0  0  0  0  0
  -15.4984    0.5944   68.5358 H   0  0  0  0  0  0  0  0  0  0  0  0
  -17.9708    0.8322   70.3394 H   0  0  0  0  0  0  0  0  0  0  0  0
  -17.6788    1.6999   68.7939 H   0  0  0  0  0  0  0  0  0  0  0  0
  -17.9101   -0.0814   68.7939 H   0  0  0  0  0  0  0  0  0  0  0  0
  -14.5666   -2.5819   71.9260 H   0  0  0  0  0  0  0  0  0  0  0  0
  -11.0503    0.1637   69.6358 H   0  0  0  0  0  0  0  0  0  0  0  0
  -10.3927   -1.5869   71.3095 H   0  0  0  0  0  0  0  0  0  0  0  0
  -14.9393   -1.2496   67.7673 H   0  0  0  0  0  0  0  0  0  0  0  0
  -17.3555   -4.0817   68.3091 H   0  0  0  0  0  0  0  0  0  0  0  0
  -12.1533   -2.9594   72.4499 H   0  0  0  0  0  0  0  0  0  0  0  0
  -17.8171   -5.7232   66.5145 H   0  0  0  0  0  0  0  0  0  0  0  0
  -15.1194   -3.7867   63.8843 H   0  0  0  0  0  0  0  0  0  0  0  0
  -13.4674    0.5471   69.1025 H   0  0  0  0  0  0  0  0  0  0  0  0
  -14.5708   -2.0730   65.6042 H   0  0  0  0  0  0  0  0  0  0  0  0
  1  2  2  0
  2  3  1  0
  2 10  1  0
  3  4  1  0
  3  7  1  0
  4  5  1  0
  6  7  2  0
  6 13  1  0
  7 17  1  0
  8  9  1  0
  8 17  2  0
  9 13  2  0
 10 11  1  0
 11 12  2  0
 11 18  1  0
 12 14  1  0
 14 15  2  0
 15 16  1  0
 16 18  2  0
  3 19  1  0
  4 20  1  0
  4 21  1  0
  5 22  1  0
  5 23  1  0
  5 24  1  0
  6 25  1  0
  8 26  1  0
  9 27  1  0
 10 28  1  0
 12 29  1  0
 13 30  1  0
 14 31  1  0
 16 32  1  0
 17 33  1  0
 18 34  1  0
A    1
O23
A    2
C22
A    3
C31
A    4
C36
A    5
C35
A    6
C33
A    7
C32
A    8
C41
A    9
C42
A   10
N21
A   11
C14
A   12
C15
A   13
C11
A   14
C16
A   15
N11
A   16
C12
A   17
C10
A   18
C13
M  END
