2CJI_GSK_A_1246
     RDKit          3D

 55 58  0  0  0  0  0  0  0  0999 V2000
   13.8980    7.2560   26.6060 Cl  0  0  0  0  0  0  0  0  0  0  0  0
   12.2280    7.4970   26.1660 C   0  0  0  0  0  0  0  0  0  0  0  0
   11.1920    7.0870   27.0520 C   0  0  0  0  0  0  0  0  0  0  0  0
    9.8150    7.2600   26.7010 C   0  0  0  0  0  0  0  0  0  0  0  0
    9.5110    7.8730   25.4700 C   0  0  0  0  0  0  0  0  0  0  0  0
    8.1600    8.0730   25.1010 C   0  0  0  0  0  0  0  0  0  0  0  0
   10.5710    8.3160   24.5510 C   0  0  0  0  0  0  0  0  0  0  0  0
   11.9260    8.1130   24.9280 C   0  0  0  0  0  0  0  0  0  0  0  0
   10.2500    8.9110   23.2990 C   0  0  0  0  0  0  0  0  0  0  0  0
    8.8830    9.0720   22.9520 C   0  0  0  0  0  0  0  0  0  0  0  0
    7.8540    8.6690   23.8560 C   0  0  0  0  0  0  0  0  0  0  0  0
    6.1200    8.8440   23.4240 S   0  0  0  0  0  0  0  0  0  0  0  0
    5.8710   10.1120   22.7990 O   0  0  0  0  0  0  0  0  0  0  0  0
    5.3500    8.4400   24.5680 O   0  0  0  0  0  0  0  0  0  0  0  0
    5.8990    7.8290   22.1850 N   0  0  0  0  0  0  0  0  0  0  0  0
    6.0230    6.3610   22.2380 C   0  0  0  0  0  0  0  0  0  0  0  0
    4.7150    5.6680   21.8630 C   0  0  0  0  0  0  0  0  0  0  0  0
    5.1110    4.3350   21.2130 C   0  0  0  0  0  0  0  0  0  0  0  0
    7.0530    5.6740   21.3390 C   0  0  0  0  0  0  0  0  0  0  0  0
    8.1930    6.0680   21.1110 O   0  0  0  0  0  0  0  0  0  0  0  0
    6.5120    4.5220   20.8550 N   0  0  0  0  0  0  0  0  0  0  0  0
    7.3160    3.5150   20.1230 C   0  0  0  0  0  0  0  0  0  0  0  0
    7.0920    2.0900   20.6760 C   0  0  0  0  0  0  0  0  0  0  0  0
    7.1730    3.5580   18.6090 C   0  0  0  0  0  0  0  0  0  0  0  0
    6.1410    3.9890   18.1180 O   0  0  0  0  0  0  0  0  0  0  0  0
    8.2350    3.1650   17.8510 N   0  0  0  0  0  0  0  0  0  0  0  0
    9.6120    3.0050   18.3380 C   0  0  0  0  0  0  0  0  0  0  0  0
   10.1330    1.6310   17.9500 C   0  0  0  0  0  0  0  0  0  0  0  0
   10.1950    1.6410   16.5400 O   0  0  0  0  0  0  0  0  0  0  0  0
    8.9200    1.7770   15.8930 C   0  0  0  0  0  0  0  0  0  0  0  0
    8.0480    2.9290   16.4170 C   0  0  0  0  0  0  0  0  0  0  0  0
   11.4529    6.6314   28.0187 H   0  0  0  0  0  0  0  0  0  0  0  0
    9.0145    6.9226   27.3758 H   0  0  0  0  0  0  0  0  0  0  0  0
    7.3509    7.7660   25.7800 H   0  0  0  0  0  0  0  0  0  0  0  0
   12.7383    8.4339   24.2592 H   0  0  0  0  0  0  0  0  0  0  0  0
   11.0452    9.2396   22.6137 H   0  0  0  0  0  0  0  0  0  0  0  0
    8.6145    9.5104   21.9795 H   0  0  0  0  0  0  0  0  0  0  0  0
    4.9392    8.0077   21.8567 H   0  0  0  0  0  0  0  0  0  0  0  0
    6.3449    6.2491   23.2839 H   0  0  0  0  0  0  0  0  0  0  0  0
    4.1066    5.4887   22.7617 H   0  0  0  0  0  0  0  0  0  0  0  0
    4.1144    6.2859   21.1793 H   0  0  0  0  0  0  0  0  0  0  0  0
    4.9964    3.5036   21.9240 H   0  0  0  0  0  0  0  0  0  0  0  0
    4.4819    4.0820   20.3468 H   0  0  0  0  0  0  0  0  0  0  0  0
    8.3605    3.8019   20.3145 H   0  0  0  0  0  0  0  0  0  0  0  0
    7.0965    2.1185   21.7756 H   0  0  0  0  0  0  0  0  0  0  0  0
    6.1228    1.7079   20.3231 H   0  0  0  0  0  0  0  0  0  0  0  0
    7.8973    1.4289   20.3231 H   0  0  0  0  0  0  0  0  0  0  0  0
   10.2515    3.7793   17.8891 H   0  0  0  0  0  0  0  0  0  0  0  0
    9.6263    3.1055   19.4333 H   0  0  0  0  0  0  0  0  0  0  0  0
   11.1320    1.4626   18.3785 H   0  0  0  0  0  0  0  0  0  0  0  0
    9.4854    0.8254   18.3264 H   0  0  0  0  0  0  0  0  0  0  0  0
    9.0972    1.9433   14.8202 H   0  0  0  0  0  0  0  0  0  0  0  0
    8.3664    0.8503   16.1044 H   0  0  0  0  0  0  0  0  0  0  0  0
    6.9914    2.6833   16.2345 H   0  0  0  0  0  0  0  0  0  0  0  0
    8.3473    3.8442   15.8852 H   0  0  0  0  0  0  0  0  0  0  0  0
  1  2  1  0
  2  3  2  0
  2  8  1  0
  3  4  1  0
  4  5  2  0
  5  6  1  0
  5  7  1  0
  6 11  2  0
  7  8  2  0
  7  9  1  0
  9 10  2  0
 10 11  1  0
 11 12  1  0
 12 13  2  0
 12 14  2  0
 12 15  1  0
 15 16  1  0
 16 17  1  0
 16 19  1  0
 17 18  1  0
 18 21  1  0
 19 20  2  0
 19 21  1  0
 21 22  1  0
 22 23  1  0
 22 24  1  0
 24 25  2  0
 24 26  1  0
 26 27  1  0
 26 31  1  0
 27 28  1  0
 28 29  1  0
 29 30  1  0
 30 31  1  0
  3 32  1  0
  4 33  1  0
  6 34  1  0
  8 35  1  0
  9 36  1  0
 10 37  1  0
 15 38  1  0
 16 39  1  0
 17 40  1  0
 17 41  1  0
 18 42  1  0
 18 43  1  0
 22 44  1  0
 23 45  1  0
 23 46  1  0
 23 47  1  0
 27 48  1  0
 27 49  1  0
 28 50  1  0
 28 51  1  0
 30 52  1  0
 30 53  1  0
 31 54  1  0
 31 55  1  0
A    1
CL1
A    2
C1
A    3
C2
A    4
C3
A    5
C4
A    6
C5
A    7
C9
A    8
C10
A    9
C8
A   10
C7
A   11
C6
A   12
S1
A   13
O2
A   14
O1
A   15
N1
A   16
C12
A   17
C13
A   18
C14
A   19
C15
A   20
O3
A   21
N2
A   22
C16
A   23
C17
A   24
C18
A   25
O4
A   26
N3
A   27
C19
A   28
C20
A   29
O5
A   30
C22
A   31
C23
M  END
