1PTV_PTR_A_322
     RDKit          3D

 29 29  0  0  0  0  0  0  0  0999 V2000
   46.2950   11.4910   -0.3740 N   0  0  0  0  0  0  0  0  0  0  0  0
   44.8920   11.9130   -0.6660 C   0  0  0  0  0  0  0  0  0  0  0  0
   44.8720   13.3090   -1.2960 C   0  0  0  0  0  0  0  0  0  0  0  0
   43.8010   13.7560   -1.8080 O   0  0  0  0  0  0  0  0  0  0  0  0
   45.9940   13.7470   -1.6080 O   0  0  0  0  0  0  0  0  0  0  0  0
   44.1060   11.9360    0.6190 C   0  0  0  0  0  0  0  0  0  0  0  0
   44.6960   12.8860    1.6120 C   0  0  0  0  0  0  0  0  0  0  0  0
   45.7610   12.5110    2.4070 C   0  0  0  0  0  0  0  0  0  0  0  0
   44.1420   14.1470    1.7850 C   0  0  0  0  0  0  0  0  0  0  0  0
   46.2590   13.3940    3.3730 C   0  0  0  0  0  0  0  0  0  0  0  0
   44.6050   15.0220    2.7260 C   0  0  0  0  0  0  0  0  0  0  0  0
   45.6640   14.6530    3.5270 C   0  0  0  0  0  0  0  0  0  0  0  0
   46.1130   15.5330    4.4770 O   0  0  0  0  0  0  0  0  0  0  0  0
   45.2500   16.2030    5.6380 P   0  0  0  0  0  0  0  0  0  0  0  0
   46.2490   17.1420    6.3360 O   0  0  0  0  0  0  0  0  0  0  0  0
   45.1630   15.1320    6.8120 O   0  0  0  0  0  0  0  0  0  0  0  0
   43.7720   16.7930    5.4770 O   0  0  0  0  0  0  0  0  0  0  0  0
   46.4357   11.4487    0.6455 H   0  0  0  0  0  0  0  0  0  0  0  0
   46.4661   10.5613   -0.7831 H   0  0  0  0  0  0  0  0  0  0  0  0
   44.4437   11.1988   -1.3724 H   0  0  0  0  0  0  0  0  0  0  0  0
   46.6407   13.9994   -0.9022 H   0  0  0  0  0  0  0  0  0  0  0  0
   43.0735   12.2455    0.3997 H   0  0  0  0  0  0  0  0  0  0  0  0
   44.1311   10.9261    1.0542 H   0  0  0  0  0  0  0  0  0  0  0  0
   46.2183   11.5185    2.2814 H   0  0  0  0  0  0  0  0  0  0  0  0
   43.3023   14.4516    1.1430 H   0  0  0  0  0  0  0  0  0  0  0  0
   47.1101   13.1016    4.0055 H   0  0  0  0  0  0  0  0  0  0  0  0
   44.1375   16.0108    2.8433 H   0  0  0  0  0  0  0  0  0  0  0  0
   45.2007   15.5962    7.6856 H   0  0  0  0  0  0  0  0  0  0  0  0
   43.3798   16.9496    6.3724 H   0  0  0  0  0  0  0  0  0  0  0  0
  1  2  1  0
  2  3  1  0
  2  6  1  0
  3  4  2  0
  3  5  1  0
  6  7  1  0
  7  8  2  0
  7  9  1  0
  8 10  1  0
  9 11  2  0
 10 12  2  0
 11 12  1  0
 12 13  1  0
 13 14  1  0
 14 15  2  0
 14 16  1  0
 14 17  1  0
  1 18  1  0
  1 19  1  0
  2 20  1  0
  5 21  1  0
  6 22  1  0
  6 23  1  0
  8 24  1  0
  9 25  1  0
 10 26  1  0
 11 27  1  0
 16 28  1  0
 17 29  1  0
A    1
N
A    2
CA
A    3
C
A    4
O
A    5
OXT
A    6
CB
A    7
CG
A    8
CD1
A    9
CD2
A   10
CE1
A   11
CE2
A   12
CZ
A   13
OH
A   14
P
A   15
O1P
A   16
O2P
A   17
O3P
M  END
