1A8R_GTP_A_401
     RDKit          3D

 48 50  0  0  0  0  0  0  0  0999 V2000
  187.5910   50.9840   48.5010 P   0  0  0  0  0  0  0  0  0  0  0  0
  188.4300   50.4330   47.4190 O   0  0  0  0  0  0  0  0  0  0  0  0
  186.7880   49.9820   49.2980 O   0  0  0  0  0  0  0  0  0  0  0  0
  186.6370   52.0440   47.8200 O   0  0  0  0  0  0  0  0  0  0  0  0
  188.4310   51.9850   49.4990 O   0  0  0  0  0  0  0  0  0  0  0  0
  189.9640   52.4070   49.3320 P   0  0  0  0  0  0  0  0  0  0  0  0
  190.6740   51.1840   49.6300 O   0  0  0  0  0  0  0  0  0  0  0  0
  190.2730   53.0520   48.0720 O   0  0  0  0  0  0  0  0  0  0  0  0
  190.1770   53.4560   50.4610 O   0  0  0  0  0  0  0  0  0  0  0  0
  189.8540   53.2700   52.0700 P   0  0  0  0  0  0  0  0  0  0  0  0
  189.8420   51.8120   52.3870 O   0  0  0  0  0  0  0  0  0  0  0  0
  190.4830   54.2690   52.9490 O   0  0  0  0  0  0  0  0  0  0  0  0
  188.3370   53.7080   52.2110 O   0  0  0  0  0  0  0  0  0  0  0  0
  187.7270   54.9450   51.7580 C   0  0  0  0  0  0  0  0  0  0  0  0
  186.3020   54.7530   52.1980 C   0  0  0  0  0  0  0  0  0  0  0  0
  185.4050   55.9150   52.4210 O   0  0  0  0  0  0  0  0  0  0  0  0
  185.6580   53.8960   51.1500 C   0  0  0  0  0  0  0  0  0  0  0  0
  185.0740   52.7490   51.7480 O   0  0  0  0  0  0  0  0  0  0  0  0
  184.7140   54.8220   50.4340 C   0  0  0  0  0  0  0  0  0  0  0  0
  183.6000   54.1950   49.7450 O   0  0  0  0  0  0  0  0  0  0  0  0
  184.2730   55.6220   51.6080 C   0  0  0  0  0  0  0  0  0  0  0  0
  183.5690   56.8700   51.3210 N   0  0  0  0  0  0  0  0  0  0  0  0
  183.6350   57.7510   50.2980 C   0  0  0  0  0  0  0  0  0  0  0  0
  182.8160   58.7780   50.3750 N   0  0  0  0  0  0  0  0  0  0  0  0
  182.1510   58.5260   51.5760 C   0  0  0  0  0  0  0  0  0  0  0  0
  181.1140   59.2440   52.2700 C   0  0  0  0  0  0  0  0  0  0  0  0
  180.5620   60.2500   51.9680 O   0  0  0  0  0  0  0  0  0  0  0  0
  180.7260   58.6590   53.4490 N   0  0  0  0  0  0  0  0  0  0  0  0
  181.2550   57.4970   53.9440 C   0  0  0  0  0  0  0  0  0  0  0  0
  180.8000   57.0470   55.1100 N   0  0  0  0  0  0  0  0  0  0  0  0
  182.2170   56.8130   53.3060 N   0  0  0  0  0  0  0  0  0  0  0  0
  182.6200   57.3800   52.1330 C   0  0  0  0  0  0  0  0  0  0  0  0
  186.9205   50.1473   50.2651 H   0  0  0  0  0  0  0  0  0  0  0  0
  186.1687   52.5643   48.5201 H   0  0  0  0  0  0  0  0  0  0  0  0
  190.6941   53.9310   48.2458 H   0  0  0  0  0  0  0  0  0  0  0  0
  190.3270   54.0213   53.8947 H   0  0  0  0  0  0  0  0  0  0  0  0
  188.1835   55.8200   52.2439 H   0  0  0  0  0  0  0  0  0  0  0  0
  187.8428   55.1348   50.6807 H   0  0  0  0  0  0  0  0  0  0  0  0
  186.4059   54.3442   53.2139 H   0  0  0  0  0  0  0  0  0  0  0  0
  186.3532   53.4635   50.4154 H   0  0  0  0  0  0  0  0  0  0  0  0
  185.1167   52.8328   52.7335 H   0  0  0  0  0  0  0  0  0  0  0  0
  185.1763   55.3627   49.5950 H   0  0  0  0  0  0  0  0  0  0  0  0
  182.9609   53.8353   50.4101 H   0  0  0  0  0  0  0  0  0  0  0  0
  183.5307   54.9864   52.1131 H   0  0  0  0  0  0  0  0  0  0  0  0
  184.3290   57.6179   49.4550 H   0  0  0  0  0  0  0  0  0  0  0  0
  179.9887   59.1243   53.9975 H   0  0  0  0  0  0  0  0  0  0  0  0
  181.1798   57.4226   55.9906 H   0  0  0  0  0  0  0  0  0  0  0  0
  180.0678   56.3229   55.1323 H   0  0  0  0  0  0  0  0  0  0  0  0
  1  2  2  0
  1  3  1  0
  1  4  1  0
  1  5  1  0
  5  6  1  0
  6  7  2  0
  6  8  1  0
  6  9  1  0
  9 10  1  0
 10 11  2  0
 10 12  1  0
 10 13  1  0
 13 14  1  0
 14 15  1  0
 15 16  1  0
 15 17  1  0
 16 21  1  0
 17 18  1  0
 17 19  1  0
 19 20  1  0
 19 21  1  0
 21 22  1  0
 22 23  1  0
 22 32  1  0
 23 24  2  0
 24 25  1  0
 25 26  1  0
 25 32  2  0
 26 27  2  0
 26 28  1  0
 28 29  1  0
 29 30  1  0
 29 31  2  0
 31 32  1  0
  3 33  1  0
  4 34  1  0
  8 35  1  0
 12 36  1  0
 14 37  1  0
 14 38  1  0
 15 39  1  0
 17 40  1  0
 18 41  1  0
 19 42  1  0
 20 43  1  0
 21 44  1  0
 23 45  1  0
 28 46  1  0
 30 47  1  0
 30 48  1  0
A    1
PG
A    2
O1G
A    3
O2G
A    4
O3G
A    5
O3B
A    6
PB
A    7
O1B
A    8
O2B
A    9
O3A
A   10
PA
A   11
O1A
A   12
O2A
A   13
O5'
A   14
C5'
A   15
C4'
A   16
O4'
A   17
C3'
A   18
O3'
A   19
C2'
A   20
O2'
A   21
C1'
A   22
N9
A   23
C8
A   24
N7
A   25
C5
A   26
C6
A   27
O6
A   28
N1
A   29
C2
A   30
N2
A   31
N3
A   32
C4
M  END
