2CM7_IZD_A_1299
     RDKit          3D

 60 62  0  0  0  0  0  0  0  0999 V2000
   16.7560   -1.4220   -0.4900 C   0  0  0  0  0  0  0  0  0  0  0  0
   17.4780   -1.9420    0.7130 C   0  0  0  0  0  0  0  0  0  0  0  0
   16.9200   -1.2760    1.9380 C   0  0  0  0  0  0  0  0  0  0  0  0
   15.7130   -0.7120    1.7690 N   0  0  0  0  0  0  0  0  0  0  0  0
   15.0880   -1.1180    0.1110 S   0  0  0  0  0  0  0  0  0  0  0  0
   14.3300    0.1280   -0.6880 O   0  0  0  0  0  0  0  0  0  0  0  0
   14.2690   -2.5450    0.0980 O   0  0  0  0  0  0  0  0  0  0  0  0
   17.4860   -1.2290    3.0250 O   0  0  0  0  0  0  0  0  0  0  0  0
   16.7540   -2.2920   -1.7380 C   0  0  0  0  0  0  0  0  0  0  0  0
   16.8020   -3.7550   -1.6280 C   0  0  0  0  0  0  0  0  0  0  0  0
   16.7910   -4.5710   -2.8470 C   0  0  0  0  0  0  0  0  0  0  0  0
   16.7210   -3.9070   -4.1690 C   0  0  0  0  0  0  0  0  0  0  0  0
   16.7080   -2.4540   -4.2630 C   0  0  0  0  0  0  0  0  0  0  0  0
   16.7190   -1.6480   -3.0550 C   0  0  0  0  0  0  0  0  0  0  0  0
   16.7000   -4.7240   -5.4230 C   0  0  0  0  0  0  0  0  0  0  0  0
   17.9020   -4.4400   -6.3270 C   0  0  0  0  0  0  0  0  0  0  0  0
   19.1440   -5.0350   -5.7140 C   0  0  0  0  0  0  0  0  0  0  0  0
   19.8780   -4.3810   -4.9910 O   0  0  0  0  0  0  0  0  0  0  0  0
   19.3790   -6.3290   -5.9240 N   0  0  0  0  0  0  0  0  0  0  0  0
   17.6330   -5.0260   -7.6450 N   0  0  0  0  0  0  0  0  0  0  0  0
   18.4700   -4.6570   -8.6110 C   0  0  0  0  0  0  0  0  0  0  0  0
   18.2690   -5.2610   -9.9800 C   0  0  0  0  0  0  0  0  0  0  0  0
   19.3690   -3.8640   -8.3870 O   0  0  0  0  0  0  0  0  0  0  0  0
   18.3060   -4.2250  -11.0260 N   0  0  0  0  0  0  0  0  0  0  0  0
   19.3730   -6.2750  -10.2500 C   0  0  0  0  0  0  0  0  0  0  0  0
   19.0120   -7.2610  -11.3200 C   0  0  0  0  0  0  0  0  0  0  0  0
   18.3320   -8.5130  -10.9580 C   0  0  0  0  0  0  0  0  0  0  0  0
   17.9810   -9.4780  -11.9960 C   0  0  0  0  0  0  0  0  0  0  0  0
   18.3050   -9.1930  -13.4040 C   0  0  0  0  0  0  0  0  0  0  0  0
   18.9900   -7.9430  -13.7700 C   0  0  0  0  0  0  0  0  0  0  0  0
   19.3470   -6.9780  -12.7290 C   0  0  0  0  0  0  0  0  0  0  0  0
   17.1950   -3.8710  -11.6780 C   0  0  0  0  0  0  0  0  0  0  0  0
   16.1030   -4.3900  -11.3950 O   0  0  0  0  0  0  0  0  0  0  0  0
   17.2840   -2.8710  -12.8180 C   0  0  0  0  0  0  0  0  0  0  0  0
   17.2842   -0.5335   -0.8662 H   0  0  0  0  0  0  0  0  0  0  0  0
   17.3367   -3.0304    0.7871 H   0  0  0  0  0  0  0  0  0  0  0  0
   18.5529   -1.7249    0.6265 H   0  0  0  0  0  0  0  0  0  0  0  0
   15.2192   -0.1396    2.4686 H   0  0  0  0  0  0  0  0  0  0  0  0
   16.8459   -4.2355   -0.6395 H   0  0  0  0  0  0  0  0  0  0  0  0
   16.8344   -5.6681   -2.7797 H   0  0  0  0  0  0  0  0  0  0  0  0
   16.6898   -1.9668   -5.2491 H   0  0  0  0  0  0  0  0  0  0  0  0
   16.7010   -0.5506   -3.1282 H   0  0  0  0  0  0  0  0  0  0  0  0
   16.7077   -5.7896   -5.1501 H   0  0  0  0  0  0  0  0  0  0  0  0
   15.7908   -4.4564   -5.9814 H   0  0  0  0  0  0  0  0  0  0  0  0
   18.0620   -3.3572   -6.4364 H   0  0  0  0  0  0  0  0  0  0  0  0
   19.4950   -6.9678   -5.1244 H   0  0  0  0  0  0  0  0  0  0  0  0
   19.4447   -6.6910   -6.8861 H   0  0  0  0  0  0  0  0  0  0  0  0
   16.8519   -5.6766   -7.8105 H   0  0  0  0  0  0  0  0  0  0  0  0
   17.2837   -5.7495  -10.0015 H   0  0  0  0  0  0  0  0  0  0  0  0
   19.1994   -3.7678  -11.2577 H   0  0  0  0  0  0  0  0  0  0  0  0
   20.2779   -5.7334  -10.5629 H   0  0  0  0  0  0  0  0  0  0  0  0
   19.5349   -6.8413   -9.3210 H   0  0  0  0  0  0  0  0  0  0  0  0
   18.0878   -8.7226   -9.9061 H   0  0  0  0  0  0  0  0  0  0  0  0
   17.4751  -10.4169  -11.7266 H   0  0  0  0  0  0  0  0  0  0  0  0
   18.0337   -9.9178  -14.1857 H   0  0  0  0  0  0  0  0  0  0  0  0
   19.2329   -7.7346  -14.8224 H   0  0  0  0  0  0  0  0  0  0  0  0
   19.8636   -6.0444  -12.9962 H   0  0  0  0  0  0  0  0  0  0  0  0
   17.3745   -1.8544  -12.4077 H   0  0  0  0  0  0  0  0  0  0  0  0
   18.1656   -3.0969  -13.4359 H   0  0  0  0  0  0  0  0  0  0  0  0
   16.3764   -2.9376  -13.4359 H   0  0  0  0  0  0  0  0  0  0  0  0
  1  2  1  0
  1  5  1  0
  1  9  1  0
  2  3  1  0
  3  4  1  0
  3  8  2  0
  4  5  1  0
  5  6  2  0
  5  7  2  0
  9 10  2  0
  9 14  1  0
 10 11  1  0
 11 12  2  0
 12 13  1  0
 12 15  1  0
 13 14  2  0
 15 16  1  0
 16 17  1  0
 16 20  1  0
 17 18  2  0
 17 19  1  0
 20 21  1  0
 21 22  1  0
 21 23  2  0
 22 24  1  0
 22 25  1  0
 24 32  1  0
 25 26  1  0
 26 27  2  0
 26 31  1  0
 27 28  1  0
 28 29  2  0
 29 30  1  0
 30 31  2  0
 32 33  2  0
 32 34  1  0
  1 35  1  0
  2 36  1  0
  2 37  1  0
  4 38  1  0
 10 39  1  0
 11 40  1  0
 13 41  1  0
 14 42  1  0
 15 43  1  0
 15 44  1  0
 16 45  1  0
 19 46  1  0
 19 47  1  0
 20 48  1  0
 22 49  1  0
 24 50  1  0
 25 51  1  0
 25 52  1  0
 27 53  1  0
 28 54  1  0
 29 55  1  0
 30 56  1  0
 31 57  1  0
 34 58  1  0
 34 59  1  0
 34 60  1  0
A    1
C1
A    2
C2
A    3
C3
A    4
N4
A    5
S5
A    6
O6
A    7
O7
A    8
O9
A    9
C11
A   10
C12
A   11
C13
A   12
C14
A   13
C15
A   14
C16
A   15
C21
A   16
C22
A   17
C25
A   18
O26
A   19
N27
A   20
N45
A   21
C47
A   22
C48
A   23
O49
A   24
N51
A   25
C4
A   26
C5
A   27
C30
A   28
C31
A   29
C6
A   30
C33
A   31
C34
A   32
C67
A   33
O70
A   34
C71
M  END
