2CMA_F20_A_1299
     RDKit          3D

 67 70  0  0  0  0  0  0  0  0999 V2000
   16.7790   -1.1930   -0.4460 C   0  0  0  0  0  0  0  0  0  0  0  0
   17.5500   -1.6890    0.7400 C   0  0  0  0  0  0  0  0  0  0  0  0
   16.9930   -1.0620    1.9880 C   0  0  0  0  0  0  0  0  0  0  0  0
   15.7280   -0.6420    1.8780 N   0  0  0  0  0  0  0  0  0  0  0  0
   15.1410   -1.0130    0.1980 S   0  0  0  0  0  0  0  0  0  0  0  0
   14.3360    0.1510   -0.6560 O   0  0  0  0  0  0  0  0  0  0  0  0
   14.4660   -2.5670    0.1630 O   0  0  0  0  0  0  0  0  0  0  0  0
   17.6160   -0.9280    3.0460 O   0  0  0  0  0  0  0  0  0  0  0  0
   16.8130   -2.0720   -1.6900 C   0  0  0  0  0  0  0  0  0  0  0  0
   16.9630   -3.5220   -1.5670 C   0  0  0  0  0  0  0  0  0  0  0  0
   16.9930   -4.3510   -2.7730 C   0  0  0  0  0  0  0  0  0  0  0  0
   16.8750   -3.7210   -4.0980 C   0  0  0  0  0  0  0  0  0  0  0  0
   16.7360   -2.2790   -4.2140 C   0  0  0  0  0  0  0  0  0  0  0  0
   16.7050   -1.4510   -3.0140 C   0  0  0  0  0  0  0  0  0  0  0  0
   16.8980   -4.5750   -5.3470 C   0  0  0  0  0  0  0  0  0  0  0  0
   18.1770   -4.4050   -6.1640 C   0  0  0  0  0  0  0  0  0  0  0  0
   19.3620   -4.9870   -5.4220 C   0  0  0  0  0  0  0  0  0  0  0  0
   20.1700   -4.2830   -4.8590 O   0  0  0  0  0  0  0  0  0  0  0  0
   19.5020   -6.3100   -5.4160 N   0  0  0  0  0  0  0  0  0  0  0  0
   18.0110   -5.1280   -7.4270 N   0  0  0  0  0  0  0  0  0  0  0  0
   18.5810   -4.5830   -8.4900 C   0  0  0  0  0  0  0  0  0  0  0  0
   18.4160   -5.3010   -9.8150 C   0  0  0  0  0  0  0  0  0  0  0  0
   19.1930   -3.5280   -8.3890 O   0  0  0  0  0  0  0  0  0  0  0  0
   18.6710   -4.4010  -10.9470 N   0  0  0  0  0  0  0  0  0  0  0  0
   19.3870   -6.4710   -9.9040 C   0  0  0  0  0  0  0  0  0  0  0  0
   19.0540   -7.4340  -11.0120 C   0  0  0  0  0  0  0  0  0  0  0  0
   18.2550   -8.6330  -10.7220 C   0  0  0  0  0  0  0  0  0  0  0  0
   17.9330   -9.5760  -11.7980 C   0  0  0  0  0  0  0  0  0  0  0  0
   18.4140   -9.3200  -13.1600 C   0  0  0  0  0  0  0  0  0  0  0  0
   19.2080   -8.1140  -13.4540 C   0  0  0  0  0  0  0  0  0  0  0  0
   19.5290   -7.1750  -12.3800 C   0  0  0  0  0  0  0  0  0  0  0  0
   17.5200   -4.1500  -11.5670 C   0  0  0  0  0  0  0  0  0  0  0  0
   16.4730   -4.6440  -11.1390 O   0  0  0  0  0  0  0  0  0  0  0  0
   17.4920   -3.2570  -12.7970 C   0  0  0  0  0  0  0  0  0  0  0  0
   16.3280   -2.3940  -13.0480 C   0  0  0  0  0  0  0  0  0  0  0  0
   16.3230   -1.4880  -14.2040 C   0  0  0  0  0  0  0  0  0  0  0  0
   17.4780   -1.4530  -15.1130 C   0  0  0  0  0  0  0  0  0  0  0  0
   18.6250   -2.3450  -14.8850 C   0  0  0  0  0  0  0  0  0  0  0  0
   18.6270   -3.2550  -13.7320 C   0  0  0  0  0  0  0  0  0  0  0  0
   17.2263   -0.2665   -0.8353 H   0  0  0  0  0  0  0  0  0  0  0  0
   17.4599   -2.7833    0.8061 H   0  0  0  0  0  0  0  0  0  0  0  0
   18.6106   -1.4181    0.6315 H   0  0  0  0  0  0  0  0  0  0  0  0
   15.1789   -0.1853    2.6201 H   0  0  0  0  0  0  0  0  0  0  0  0
   17.0527   -3.9866   -0.5740 H   0  0  0  0  0  0  0  0  0  0  0  0
   17.1035   -5.4422   -2.6893 H   0  0  0  0  0  0  0  0  0  0  0  0
   16.6542   -1.8123   -5.2067 H   0  0  0  0  0  0  0  0  0  0  0  0
   16.6005   -0.3595   -3.1021 H   0  0  0  0  0  0  0  0  0  0  0  0
   16.8090   -5.6307   -5.0512 H   0  0  0  0  0  0  0  0  0  0  0  0
   16.0583   -4.2532   -5.9805 H   0  0  0  0  0  0  0  0  0  0  0  0
   18.3592   -3.3346   -6.3400 H   0  0  0  0  0  0  0  0  0  0  0  0
   19.5558   -6.8181   -4.5217 H   0  0  0  0  0  0  0  0  0  0  0  0
   19.5566   -6.8261   -6.3057 H   0  0  0  0  0  0  0  0  0  0  0  0
   17.4814   -6.0095   -7.4846 H   0  0  0  0  0  0  0  0  0  0  0  0
   17.3775   -5.6603   -9.8654 H   0  0  0  0  0  0  0  0  0  0  0  0
   19.5910   -4.0250  -11.2174 H   0  0  0  0  0  0  0  0  0  0  0  0
   20.3980   -6.0740  -10.0777 H   0  0  0  0  0  0  0  0  0  0  0  0
   19.3186   -7.0258   -8.9566 H   0  0  0  0  0  0  0  0  0  0  0  0
   17.8988   -8.8229   -9.6987 H   0  0  0  0  0  0  0  0  0  0  0  0
   17.3326  -10.4726  -11.5844 H   0  0  0  0  0  0  0  0  0  0  0  0
   18.1808  -10.0317  -13.9657 H   0  0  0  0  0  0  0  0  0  0  0  0
   19.5583   -7.9206  -14.4786 H   0  0  0  0  0  0  0  0  0  0  0  0
   20.1251   -6.2758  -12.5948 H   0  0  0  0  0  0  0  0  0  0  0  0
   15.4619   -2.4270  -12.3706 H   0  0  0  0  0  0  0  0  0  0  0  0
   15.4563   -0.8365  -14.3894 H   0  0  0  0  0  0  0  0  0  0  0  0
   17.4843   -0.7580  -15.9656 H   0  0  0  0  0  0  0  0  0  0  0  0
   19.4800   -2.3307  -15.5769 H   0  0  0  0  0  0  0  0  0  0  0  0
   19.4766   -3.9342  -13.5681 H   0  0  0  0  0  0  0  0  0  0  0  0
  1  2  1  0
  1  5  1  0
  1  9  1  0
  2  3  1  0
  3  4  1  0
  3  8  2  0
  4  5  1  0
  5  6  2  0
  5  7  2  0
  9 10  2  0
  9 14  1  0
 10 11  1  0
 11 12  2  0
 12 13  1  0
 12 15  1  0
 13 14  2  0
 15 16  1  0
 16 17  1  0
 16 20  1  0
 17 18  2  0
 17 19  1  0
 20 21  1  0
 21 22  1  0
 21 23  2  0
 22 24  1  0
 22 25  1  0
 24 32  1  0
 25 26  1  0
 26 27  2  0
 26 31  1  0
 27 28  1  0
 28 29  2  0
 29 30  1  0
 30 31  2  0
 32 33  2  0
 32 34  1  0
 34 35  2  0
 34 39  1  0
 35 36  1  0
 36 37  2  0
 37 38  1  0
 38 39  2  0
  1 40  1  0
  2 41  1  0
  2 42  1  0
  4 43  1  0
 10 44  1  0
 11 45  1  0
 13 46  1  0
 14 47  1  0
 15 48  1  0
 15 49  1  0
 16 50  1  0
 19 51  1  0
 19 52  1  0
 20 53  1  0
 22 54  1  0
 24 55  1  0
 25 56  1  0
 25 57  1  0
 27 58  1  0
 28 59  1  0
 29 60  1  0
 30 61  1  0
 31 62  1  0
 35 63  1  0
 36 64  1  0
 37 65  1  0
 38 66  1  0
 39 67  1  0
A    1
C1
A    2
C2
A    3
C3
A    4
N4
A    5
S5
A    6
O6
A    7
O7
A    8
O9
A    9
C11
A   10
C12
A   11
C13
A   12
C14
A   13
C15
A   14
C16
A   15
C21
A   16
C22
A   17
C25
A   18
O26
A   19
N27
A   20
N45
A   21
C47
A   22
C48
A   23
O49
A   24
N51
A   25
C4
A   26
C5
A   27
C30
A   28
C31
A   29
C6
A   30
C33
A   31
C34
A   32
C67
A   33
O70
A   34
C71
A   35
C74
A   36
C75
A   37
C76
A   38
C77
A   39
C78
M  END
