2CMC_DFM_A_1281
     RDKit          3D

 57 58  0  0  0  0  0  0  0  0999 V2000
   26.0720   31.4290   19.6100 C   0  0  0  0  0  0  0  0  0  0  0  0
   25.1730   33.2820   21.6650 O   0  0  0  0  0  0  0  0  0  0  0  0
   24.5670   30.5810   21.9400 O   0  0  0  0  0  0  0  0  0  0  0  0
   27.2370   31.5510   22.2720 O   0  0  0  0  0  0  0  0  0  0  0  0
   24.9110   31.3600   18.7420 C   0  0  0  0  0  0  0  0  0  0  0  0
   24.5070   32.5990   18.1050 C   0  0  0  0  0  0  0  0  0  0  0  0
   23.3020   32.5620   17.2740 C   0  0  0  0  0  0  0  0  0  0  0  0
   22.5770   31.3040   17.1090 C   0  0  0  0  0  0  0  0  0  0  0  0
   22.9810   30.0390   17.7230 C   0  0  0  0  0  0  0  0  0  0  0  0
   24.1920   30.0930   18.5560 C   0  0  0  0  0  0  0  0  0  0  0  0
   21.3350   31.2400   16.2410 C   0  0  0  0  0  0  0  0  0  0  0  0
   21.5800   31.6810   14.7840 C   0  0  0  0  0  0  0  0  0  0  0  0
   22.6220   30.7880   14.1050 C   0  0  0  0  0  0  0  0  0  0  0  0
   23.7620   31.1880   13.8780 O   0  0  0  0  0  0  0  0  0  0  0  0
   22.2700   29.5400   13.7890 N   0  0  0  0  0  0  0  0  0  0  0  0
   20.2880   31.6360   14.0730 N   0  0  0  0  0  0  0  0  0  0  0  0
   20.0540   32.5190   13.1110 C   0  0  0  0  0  0  0  0  0  0  0  0
   18.7670   32.3920   12.3350 C   0  0  0  0  0  0  0  0  0  0  0  0
   20.8520   33.4120   12.8770 O   0  0  0  0  0  0  0  0  0  0  0  0
   18.1210   33.7080   12.3230 N   0  0  0  0  0  0  0  0  0  0  0  0
   19.0410   31.9870   10.8870 C   0  0  0  0  0  0  0  0  0  0  0  0
   19.8140   30.6960   10.7650 C   0  0  0  0  0  0  0  0  0  0  0  0
   19.1900   29.4410   11.1700 C   0  0  0  0  0  0  0  0  0  0  0  0
   19.9620   28.2010   11.1100 C   0  0  0  0  0  0  0  0  0  0  0  0
   21.3420   28.2970   10.6360 C   0  0  0  0  0  0  0  0  0  0  0  0
   21.9730   29.5520   10.2210 C   0  0  0  0  0  0  0  0  0  0  0  0
   21.1900   30.7910   10.2780 C   0  0  0  0  0  0  0  0  0  0  0  0
   17.0130   33.9010   13.0310 C   0  0  0  0  0  0  0  0  0  0  0  0
   16.3970   32.9360   13.5170 O   0  0  0  0  0  0  0  0  0  0  0  0
   16.4910   35.3100   13.2140 C   0  0  0  0  0  0  0  0  0  0  0  0
   27.0840   32.4280   19.1320 F   0  0  0  0  0  0  0  0  0  0  0  0
   26.8280   30.1590   19.4610 F   0  0  0  0  0  0  0  0  0  0  0  0
   25.7440   31.7240   21.3980 P   0  0  0  0  0  0  0  0  0  0  0  0
   25.1119   33.4487   22.6390 H   0  0  0  0  0  0  0  0  0  0  0  0
   24.5523   30.5667   22.9298 H   0  0  0  0  0  0  0  0  0  0  0  0
   25.0816   33.5271   18.2405 H   0  0  0  0  0  0  0  0  0  0  0  0
   22.9446   33.4758   16.7768 H   0  0  0  0  0  0  0  0  0  0  0  0
   22.4156   29.1077   17.5715 H   0  0  0  0  0  0  0  0  0  0  0  0
   24.5616   29.1784   19.0428 H   0  0  0  0  0  0  0  0  0  0  0  0
   20.9681   30.2030   16.2340 H   0  0  0  0  0  0  0  0  0  0  0  0
   20.6026   31.9385   16.6719 H   0  0  0  0  0  0  0  0  0  0  0  0
   21.9827   32.7044   14.7617 H   0  0  0  0  0  0  0  0  0  0  0  0
   22.0768   28.8552   14.5337 H   0  0  0  0  0  0  0  0  0  0  0  0
   22.1915   29.2617   12.8004 H   0  0  0  0  0  0  0  0  0  0  0  0
   19.5792   30.9305   14.3195 H   0  0  0  0  0  0  0  0  0  0  0  0
   18.1342   31.6257   12.8065 H   0  0  0  0  0  0  0  0  0  0  0  0
   18.5232   34.4779   11.7695 H   0  0  0  0  0  0  0  0  0  0  0  0
   18.0777   31.8676   10.3694 H   0  0  0  0  0  0  0  0  0  0  0  0
   19.6570   32.7798   10.4376 H   0  0  0  0  0  0  0  0  0  0  0  0
   18.1465   29.4279   11.5179 H   0  0  0  0  0  0  0  0  0  0  0  0
   19.5237   27.2373   11.4086 H   0  0  0  0  0  0  0  0  0  0  0  0
   21.9398   27.3749   10.5884 H   0  0  0  0  0  0  0  0  0  0  0  0
   23.0163   29.5651    9.8725 H   0  0  0  0  0  0  0  0  0  0  0  0
   21.6208   31.7541    9.9667 H   0  0  0  0  0  0  0  0  0  0  0  0
   16.4081   35.5337   14.2878 H   0  0  0  0  0  0  0  0  0  0  0  0
   17.1850   36.0221   12.7436 H   0  0  0  0  0  0  0  0  0  0  0  0
   15.5006   35.3981   12.7436 H   0  0  0  0  0  0  0  0  0  0  0  0
  1  5  1  0
  1 31  1  0
  1 32  1  0
  1 33  1  0
  2 33  1  0
  3 33  1  0
  4 33  2  0
  5  6  2  0
  5 10  1  0
  6  7  1  0
  7  8  2  0
  8  9  1  0
  8 11  1  0
  9 10  2  0
 11 12  1  0
 12 13  1  0
 12 16  1  0
 13 14  2  0
 13 15  1  0
 16 17  1  0
 17 18  1  0
 17 19  2  0
 18 20  1  0
 18 21  1  0
 20 28  1  0
 21 22  1  0
 22 23  2  0
 22 27  1  0
 23 24  1  0
 24 25  2  0
 25 26  1  0
 26 27  2  0
 28 29  2  0
 28 30  1  0
  2 34  1  0
  3 35  1  0
  6 36  1  0
  7 37  1  0
  9 38  1  0
 10 39  1  0
 11 40  1  0
 11 41  1  0
 12 42  1  0
 15 43  1  0
 15 44  1  0
 16 45  1  0
 18 46  1  0
 20 47  1  0
 21 48  1  0
 21 49  1  0
 23 50  1  0
 24 51  1  0
 25 52  1  0
 26 53  1  0
 27 54  1  0
 30 55  1  0
 30 56  1  0
 30 57  1  0
A    1
C1
A    2
O6
A    3
O7
A    4
O9
A    5
C11
A    6
C12
A    7
C13
A    8
C14
A    9
C15
A   10
C16
A   11
C21
A   12
C22
A   13
C25
A   14
O26
A   15
N27
A   16
N45
A   17
C47
A   18
C48
A   19
O49
A   20
N51
A   21
C4
A   22
C5
A   23
C30
A   24
C31
A   25
C6
A   26
C33
A   27
C34
A   28
C67
A   29
O70
A   30
C71
A   31
F66
A   32
F67
A   33
P68
M  END
