2CN0_F25_H_1246
     RDKit          3D

 59 63  0  0  0  0  0  0  0  0999 V2000
   16.8640  -12.8170   22.5650 O   0  0  0  0  0  0  0  0  0  0  0  0
   17.5040  -12.5270   21.6090 C   0  0  0  0  0  0  0  0  0  0  0  0
   18.5480  -13.2810   21.2360 N   0  0  0  0  0  0  0  0  0  0  0  0
   18.9590  -14.5280   21.8740 C   0  0  0  0  0  0  0  0  0  0  0  0
   19.8660  -14.2790   23.0460 C   0  0  0  0  0  0  0  0  0  0  0  0
   21.2520  -14.3560   22.8990 C   0  0  0  0  0  0  0  0  0  0  0  0
   22.1040  -14.1210   23.9650 C   0  0  0  0  0  0  0  0  0  0  0  0
   21.5670  -13.7990   25.1980 C   0  0  0  0  0  0  0  0  0  0  0  0
   22.3660  -13.5660   26.2570 F   0  0  0  0  0  0  0  0  0  0  0  0
   20.1910  -13.7400   25.3730 C   0  0  0  0  0  0  0  0  0  0  0  0
   19.3530  -13.9740   24.3040 C   0  0  0  0  0  0  0  0  0  0  0  0
   19.1150  -12.8730   19.9570 C   0  0  0  0  0  0  0  0  0  0  0  0
   18.1010  -11.8300   19.4410 C   0  0  0  0  0  0  0  0  0  0  0  0
   17.1260  -12.3820   18.4150 C   0  0  0  0  0  0  0  0  0  0  0  0
   15.8050  -12.3240   19.0690 N   0  0  0  0  0  0  0  0  0  0  0  0
   14.7580  -12.0930   18.0530 C   0  0  0  0  0  0  0  0  0  0  0  0
   15.5070  -11.9040   16.7450 C   0  0  0  0  0  0  0  0  0  0  0  0
   16.9620  -11.6310   17.1050 C   0  0  0  0  0  0  0  0  0  0  0  0
   15.8980  -11.2230   20.0560 C   0  0  0  0  0  0  0  0  0  0  0  0
   14.7550  -11.1930   21.0130 C   0  0  0  0  0  0  0  0  0  0  0  0
   13.9990  -12.3070   21.3230 C   0  0  0  0  0  0  0  0  0  0  0  0
   12.9540  -12.2120   22.2370 C   0  0  0  0  0  0  0  0  0  0  0  0
   12.6250  -10.9950   22.8230 C   0  0  0  0  0  0  0  0  0  0  0  0
   13.3740   -9.8900   22.5150 C   0  0  0  0  0  0  0  0  0  0  0  0
   14.4290   -9.9880   21.6120 C   0  0  0  0  0  0  0  0  0  0  0  0
   11.4790  -10.9300   23.7820 C   0  0  0  0  0  0  0  0  0  0  0  0
   10.7000  -11.9880   24.0450 N   0  0  0  0  0  0  0  0  0  0  0  0
   11.1970   -9.8190   24.4400 N   0  0  0  0  0  0  0  0  0  0  0  0
   17.2840  -11.3920   20.6530 C   0  0  0  0  0  0  0  0  0  0  0  0
   20.4810  -12.2370   20.1260 C   0  0  0  0  0  0  0  0  0  0  0  0
   20.9580  -11.8790   18.8940 F   0  0  0  0  0  0  0  0  0  0  0  0
   20.4450  -11.0850   20.8570 F   0  0  0  0  0  0  0  0  0  0  0  0
   18.0631  -15.0620   22.2235 H   0  0  0  0  0  0  0  0  0  0  0  0
   19.5106  -15.1266   21.1341 H   0  0  0  0  0  0  0  0  0  0  0  0
   21.6762  -14.6086   21.9160 H   0  0  0  0  0  0  0  0  0  0  0  0
   23.1939  -14.1896   23.8327 H   0  0  0  0  0  0  0  0  0  0  0  0
   19.7706  -13.5071   26.3624 H   0  0  0  0  0  0  0  0  0  0  0  0
   18.2637  -13.9190   24.4467 H   0  0  0  0  0  0  0  0  0  0  0  0
   19.2662  -13.7225   19.2747 H   0  0  0  0  0  0  0  0  0  0  0  0
   18.6617  -11.0195   18.9525 H   0  0  0  0  0  0  0  0  0  0  0  0
   17.5236  -13.3682   18.1333 H   0  0  0  0  0  0  0  0  0  0  0  0
   14.0839  -12.9600   17.9897 H   0  0  0  0  0  0  0  0  0  0  0  0
   14.1324  -11.2220   18.2980 H   0  0  0  0  0  0  0  0  0  0  0  0
   15.4332  -12.8142   16.1317 H   0  0  0  0  0  0  0  0  0  0  0  0
   15.0819  -11.0723   16.1640 H   0  0  0  0  0  0  0  0  0  0  0  0
   17.1425  -10.5543   17.2393 H   0  0  0  0  0  0  0  0  0  0  0  0
   17.6720  -11.9483   16.3271 H   0  0  0  0  0  0  0  0  0  0  0  0
   15.7979  -10.2211   19.6131 H   0  0  0  0  0  0  0  0  0  0  0  0
   14.2238  -13.2722   20.8458 H   0  0  0  0  0  0  0  0  0  0  0  0
   12.3800  -13.1128   22.4996 H   0  0  0  0  0  0  0  0  0  0  0  0
   13.1410   -8.9221   22.9828 H   0  0  0  0  0  0  0  0  0  0  0  0
   15.0157   -9.0897   21.3694 H   0  0  0  0  0  0  0  0  0  0  0  0
   10.8077  -10.6400   22.9602 H   0  0  0  0  0  0  0  0  0  0  0  0
   10.6134  -12.1056   25.0646 H   0  0  0  0  0  0  0  0  0  0  0  0
    9.7667  -11.8372   23.6363 H   0  0  0  0  0  0  0  0  0  0  0  0
   11.2427   -9.9990   25.4531 H   0  0  0  0  0  0  0  0  0  0  0  0
   11.8794   -9.0892   24.1898 H   0  0  0  0  0  0  0  0  0  0  0  0
   17.5132  -10.4654   21.1998 H   0  0  0  0  0  0  0  0  0  0  0  0
   21.1076  -12.9799   20.6413 H   0  0  0  0  0  0  0  0  0  0  0  0
  1  2  2  0
  2  3  1  0
  2 29  1  0
  3  4  1  0
  3 12  1  0
  4  5  1  0
  5  6  2  0
  5 11  1  0
  6  7  1  0
  7  8  2  0
  8  9  1  0
  8 10  1  0
 10 11  2  0
 12 13  1  0
 12 30  1  0
 13 14  1  0
 13 29  1  0
 14 15  1  0
 14 18  1  0
 15 16  1  0
 15 19  1  0
 16 17  1  0
 17 18  1  0
 19 20  1  0
 19 29  1  0
 20 21  2  0
 20 25  1  0
 21 22  1  0
 22 23  2  0
 23 24  1  0
 23 26  1  0
 24 25  2  0
 26 27  1  0
 26 28  1  0
 30 31  1  0
 30 32  1  0
  4 33  1  0
  4 34  1  0
  6 35  1  0
  7 36  1  0
 10 37  1  0
 11 38  1  0
 12 39  1  0
 13 40  1  0
 14 41  1  0
 16 42  1  0
 16 43  1  0
 17 44  1  0
 17 45  1  0
 18 46  1  0
 18 47  1  0
 19 48  1  0
 21 49  1  0
 22 50  1  0
 24 51  1  0
 25 52  1  0
 26 53  1  0
 27 54  1  0
 27 55  1  0
 28 56  1  0
 28 57  1  0
 29 58  1  0
 30 59  1  0
A    1
O21
A    2
C20
A    3
N19
A    4
C23
A    5
C24
A    6
C32
A    7
C31
A    8
C30
A    9
F29
A   10
C26
A   11
C25
A   12
C17
A   13
C16
A   14
C15
A   15
N11
A   16
C12
A   17
C13
A   18
C14
A   19
C10
A   20
C7
A   21
C8
A   22
C9
A   23
C4
A   24
C5
A   25
C6
A   26
C3
A   27
N1
A   28
N2
A   29
C22
A   30
C18
A   31
F33
A   32
F32
M  END
