2CNG_IZE_A_1299
     RDKit          3D

 52 55  0  0  0  0  0  0  0  0999 V2000
    5.9160   10.8390   49.1060 C   0  0  0  0  0  0  0  0  0  0  0  0
    6.1830   12.2230   48.6140 C   0  0  0  0  0  0  0  0  0  0  0  0
    7.3920   12.7570   49.3270 C   0  0  0  0  0  0  0  0  0  0  0  0
    8.1520   11.8190   49.8670 N   0  0  0  0  0  0  0  0  0  0  0  0
    7.5610   10.1750   49.4430 S   0  0  0  0  0  0  0  0  0  0  0  0
    7.4850    9.0530   50.6310 O   0  0  0  0  0  0  0  0  0  0  0  0
    8.0970    9.5930   48.0470 O   0  0  0  0  0  0  0  0  0  0  0  0
    7.6920   13.9370   49.4500 O   0  0  0  0  0  0  0  0  0  0  0  0
    5.0870    9.9100   48.2600 C   0  0  0  0  0  0  0  0  0  0  0  0
    5.2100    9.9330   46.7940 C   0  0  0  0  0  0  0  0  0  0  0  0
    4.4050    9.0210   45.9870 C   0  0  0  0  0  0  0  0  0  0  0  0
    3.4790    8.0900   46.6460 C   0  0  0  0  0  0  0  0  0  0  0  0
    3.3640    8.0780   48.1010 C   0  0  0  0  0  0  0  0  0  0  0  0
    4.1640    8.9850   48.9030 C   0  0  0  0  0  0  0  0  0  0  0  0
    2.6470    7.1410   45.8240 C   0  0  0  0  0  0  0  0  0  0  0  0
    1.1450    7.3090   46.1010 C   0  0  0  0  0  0  0  0  0  0  0  0
    0.4280    6.2270   45.4160 N   0  0  0  0  0  0  0  0  0  0  0  0
   -0.4890   12.9260   44.3330 C   0  0  0  0  0  0  0  0  0  0  0  0
   -0.3270   12.0680   45.5210 C   0  0  0  0  0  0  0  0  0  0  0  0
    0.0620   10.6740   45.3630 C   0  0  0  0  0  0  0  0  0  0  0  0
    0.2570   10.1370   44.0200 C   0  0  0  0  0  0  0  0  0  0  0  0
    0.0680   10.9650   42.8330 C   0  0  0  0  0  0  0  0  0  0  0  0
   -0.2900   12.3660   42.9840 C   0  0  0  0  0  0  0  0  0  0  0  0
    0.3420    9.7300   46.3550 N   0  0  0  0  0  0  0  0  0  0  0  0
    0.7170    8.6520   45.5310 C   0  0  0  0  0  0  0  0  0  0  0  0
    0.7010    8.8140   44.1310 N   0  0  0  0  0  0  0  0  0  0  0  0
   -0.8430   14.3180   44.5330 C   0  0  0  0  0  0  0  0  0  0  0  0
   -0.1750   15.2050   43.6320 F   0  0  0  0  0  0  0  0  0  0  0  0
   -0.4500   14.8640   45.7810 F   0  0  0  0  0  0  0  0  0  0  0  0
   -2.2330   14.5230   44.3920 F   0  0  0  0  0  0  0  0  0  0  0  0
   -0.8310    5.9530   45.7520 C   0  0  0  0  0  0  0  0  0  0  0  0
   -1.5740    4.8780   45.0040 C   0  0  0  0  0  0  0  0  0  0  0  0
   -1.3940    6.5790   46.6590 O   0  0  0  0  0  0  0  0  0  0  0  0
   -2.9420    4.8140   45.3780 F   0  0  0  0  0  0  0  0  0  0  0  0
   -0.9190    3.6360   45.0130 F   0  0  0  0  0  0  0  0  0  0  0  0
   -1.6050    5.1590   43.6240 F   0  0  0  0  0  0  0  0  0  0  0  0
    5.2492   10.9105   49.9779 H   0  0  0  0  0  0  0  0  0  0  0  0
    6.3705   12.2019   47.5303 H   0  0  0  0  0  0  0  0  0  0  0  0
    5.3137   12.8675   48.8113 H   0  0  0  0  0  0  0  0  0  0  0  0
    8.9767   12.0063   50.4550 H   0  0  0  0  0  0  0  0  0  0  0  0
    5.9050   10.6339   46.3085 H   0  0  0  0  0  0  0  0  0  0  0  0
    4.4913    9.0308   44.8904 H   0  0  0  0  0  0  0  0  0  0  0  0
    2.6693    7.3798   48.5908 H   0  0  0  0  0  0  0  0  0  0  0  0
    4.0731    8.9738   49.9992 H   0  0  0  0  0  0  0  0  0  0  0  0
    2.8359    7.3345   44.7577 H   0  0  0  0  0  0  0  0  0  0  0  0
    2.9313    6.1140   46.0970 H   0  0  0  0  0  0  0  0  0  0  0  0
    0.9263    7.2703   47.1783 H   0  0  0  0  0  0  0  0  0  0  0  0
    0.8967    5.6819   44.6784 H   0  0  0  0  0  0  0  0  0  0  0  0
   -0.4999   12.4808   46.5259 H   0  0  0  0  0  0  0  0  0  0  0  0
    0.1957   10.5316   41.8301 H   0  0  0  0  0  0  0  0  0  0  0  0
   -0.4117   13.0045   42.0966 H   0  0  0  0  0  0  0  0  0  0  0  0
    0.9486    8.1418   43.3909 H   0  0  0  0  0  0  0  0  0  0  0  0
  1  2  1  0
  1  5  1  0
  1  9  1  0
  2  3  1  0
  3  4  1  0
  3  8  2  0
  4  5  1  0
  5  6  2  0
  5  7  2  0
  9 10  2  0
  9 14  1  0
 10 11  1  0
 11 12  2  0
 12 13  1  0
 12 15  1  0
 13 14  2  0
 15 16  1  0
 16 17  1  0
 16 25  1  0
 17 31  1  0
 18 19  2  0
 18 23  1  0
 18 27  1  0
 19 20  1  0
 20 21  2  0
 20 24  1  0
 21 22  1  0
 21 26  1  0
 22 23  2  0
 24 25  2  0
 25 26  1  0
 27 28  1  0
 27 29  1  0
 27 30  1  0
 31 32  1  0
 31 33  2  0
 32 34  1  0
 32 35  1  0
 32 36  1  0
  1 37  1  0
  2 38  1  0
  2 39  1  0
  4 40  1  0
 10 41  1  0
 11 42  1  0
 13 43  1  0
 14 44  1  0
 15 45  1  0
 15 46  1  0
 16 47  1  0
 17 48  1  0
 19 49  1  0
 22 50  1  0
 23 51  1  0
 26 52  1  0
A    1
C1
A    2
C2
A    3
C3
A    4
N4
A    5
S5
A    6
O6
A    7
O7
A    8
O9
A    9
C11
A   10
C12
A   11
C13
A   12
C14
A   13
C15
A   14
C16
A   15
C21
A   16
C22
A   17
N45
A   18
C17
A   19
C19
A   20
C23
A   21
C4
A   22
C5
A   23
C6
A   24
N11
A   25
C25
A   26
N13
A   27
C28
A   28
F1
A   29
F3
A   30
F2
A   31
C7
A   32
C8
A   33
O1
A   34
F4
A   35
F6
A   36
F5
M  END
