2A1H_GBN_A_502
     RDKit          3D

 29 29  0  0  0  0  0  0  0  0999 V2000
    6.9890    5.5830   10.3960 N   0  0  0  0  0  0  0  0  0  0  0  0
    7.5980    5.0570    9.1650 C   0  0  0  0  0  0  0  0  0  0  0  0
    8.6890    7.3080    8.9400 C   0  0  0  0  0  0  0  0  0  0  0  0
    8.9050    5.7940    8.8550 C   0  0  0  0  0  0  0  0  0  0  0  0
    9.9870    5.4280    9.8770 C   0  0  0  0  0  0  0  0  0  0  0  0
   10.4040    3.9560    9.7960 C   0  0  0  0  0  0  0  0  0  0  0  0
   10.8790    3.6050    8.3840 C   0  0  0  0  0  0  0  0  0  0  0  0
    9.7900    3.9350    7.3590 C   0  0  0  0  0  0  0  0  0  0  0  0
    9.3940    5.4110    7.4520 C   0  0  0  0  0  0  0  0  0  0  0  0
    7.5320    7.8190    8.0790 C   0  0  0  0  0  0  0  0  0  0  0  0
    7.6700    7.9450    6.8630 O   0  0  0  0  0  0  0  0  0  0  0  0
    6.4560    8.1060    8.6010 O   0  0  0  0  0  0  0  0  0  0  0  0
    7.4620    5.1745   11.2147 H   0  0  0  0  0  0  0  0  0  0  0  0
    7.0890    6.6079   10.4177 H   0  0  0  0  0  0  0  0  0  0  0  0
    7.8089    3.9853    9.2949 H   0  0  0  0  0  0  0  0  0  0  0  0
    6.8982    5.2075    8.3297 H   0  0  0  0  0  0  0  0  0  0  0  0
    8.4826    7.5700    9.9882 H   0  0  0  0  0  0  0  0  0  0  0  0
    9.6048    7.7829    8.5582 H   0  0  0  0  0  0  0  0  0  0  0  0
   10.8718    6.0550    9.6924 H   0  0  0  0  0  0  0  0  0  0  0  0
    9.5683    5.5998   10.8796 H   0  0  0  0  0  0  0  0  0  0  0  0
   11.2221    3.7728   10.5081 H   0  0  0  0  0  0  0  0  0  0  0  0
    9.5351    3.3283   10.0430 H   0  0  0  0  0  0  0  0  0  0  0  0
   11.7842    4.1850    8.1511 H   0  0  0  0  0  0  0  0  0  0  0  0
   11.0989    2.5282    8.3380 H   0  0  0  0  0  0  0  0  0  0  0  0
   10.1692    3.7252    6.3480 H   0  0  0  0  0  0  0  0  0  0  0  0
    8.9053    3.3159    7.5688 H   0  0  0  0  0  0  0  0  0  0  0  0
    8.5875    5.6073    6.7302 H   0  0  0  0  0  0  0  0  0  0  0  0
   10.2866    6.0142    7.2298 H   0  0  0  0  0  0  0  0  0  0  0  0
    8.3513    8.5671    6.5040 H   0  0  0  0  0  0  0  0  0  0  0  0
  1  2  1  0
  2  4  1  0
  3  4  1  0
  3 10  1  0
  4  5  1  0
  4  9  1  0
  5  6  1  0
  6  7  1  0
  7  8  1  0
  8  9  1  0
 10 11  1  0
 10 12  2  0
  1 13  1  0
  1 14  1  0
  2 15  1  0
  2 16  1  0
  3 17  1  0
  3 18  1  0
  5 19  1  0
  5 20  1  0
  6 21  1  0
  6 22  1  0
  7 23  1  0
  7 24  1  0
  8 25  1  0
  8 26  1  0
  9 27  1  0
  9 28  1  0
 11 29  1  0
A    1
N1
A    2
C2
A    3
C3
A    4
C1R
A    5
C2R
A    6
C3R
A    7
C4R
A    8
C5R
A    9
C6R
A   10
C
A   11
OA
A   12
OB
M  END
