2CSN_CKI_A_300
     RDKit          3D

 30 31  0  0  0  0  0  0  0  0999 V2000
  -26.0360   52.5440   48.7070 C   0  0  0  0  0  0  0  0  0  0  0  0
  -26.3280   53.8600   48.6740 N   0  0  0  0  0  0  0  0  0  0  0  0
  -25.9600   54.6580   49.7550 C   0  0  0  0  0  0  0  0  0  0  0  0
  -25.2620   54.1860   50.9050 C   0  0  0  0  0  0  0  0  0  0  0  0
  -24.2450   52.1740   52.0210 C   0  0  0  0  0  0  0  0  0  0  0  0
  -23.7540   53.0720   53.3160 Cl  0  0  0  0  0  0  0  0  0  0  0  0
  -23.9130   50.8010   51.9750 C   0  0  0  0  0  0  0  0  0  0  0  0
  -24.2980   50.0150   50.8640 C   0  0  0  0  0  0  0  0  0  0  0  0
  -24.9970   50.6230   49.7940 C   0  0  0  0  0  0  0  0  0  0  0  0
  -25.3320   51.9980   49.8130 C   0  0  0  0  0  0  0  0  0  0  0  0
  -24.9430   52.7940   50.9230 C   0  0  0  0  0  0  0  0  0  0  0  0
  -25.5590   49.6600   48.4320 S   0  0  0  0  0  0  0  0  0  0  0  0
  -24.9030   48.4270   48.4520 O   0  0  0  0  0  0  0  0  0  0  0  0
  -26.9120   49.6470   48.6610 O   0  0  0  0  0  0  0  0  0  0  0  0
  -25.4440   50.4180   46.9100 N   0  0  0  0  0  0  0  0  0  0  0  0
  -24.4610   50.3720   45.7790 C   0  0  0  0  0  0  0  0  0  0  0  0
  -24.3230   48.9460   45.1690 C   0  0  0  0  0  0  0  0  0  0  0  0
  -24.4100   47.6600   45.9210 N   0  0  0  0  0  0  0  0  0  0  0  0
  -26.3436   51.8923   47.8759 H   0  0  0  0  0  0  0  0  0  0  0  0
  -26.2261   55.7247   49.7188 H   0  0  0  0  0  0  0  0  0  0  0  0
  -24.9847   54.8563   51.7320 H   0  0  0  0  0  0  0  0  0  0  0  0
  -23.3543   50.3430   52.8045 H   0  0  0  0  0  0  0  0  0  0  0  0
  -24.0567   48.9423   50.8319 H   0  0  0  0  0  0  0  0  0  0  0  0
  -26.3289   50.1522   46.4548 H   0  0  0  0  0  0  0  0  0  0  0  0
  -24.7968   51.0621   44.9910 H   0  0  0  0  0  0  0  0  0  0  0  0
  -23.4778   50.6625   46.1776 H   0  0  0  0  0  0  0  0  0  0  0  0
  -25.1066   48.8841   44.3995 H   0  0  0  0  0  0  0  0  0  0  0  0
  -23.2506   48.9488   44.9242 H   0  0  0  0  0  0  0  0  0  0  0  0
  -24.3970   47.8524   46.9328 H   0  0  0  0  0  0  0  0  0  0  0  0
  -25.2856   47.1768   45.6746 H   0  0  0  0  0  0  0  0  0  0  0  0
  1  2  2  0
  1 10  1  0
  2  3  1  0
  3  4  2  0
  4 11  1  0
  5  6  1  0
  5  7  1  0
  5 11  2  0
  7  8  2  0
  8  9  1  0
  9 10  2  0
  9 12  1  0
 10 11  1  0
 12 13  2  0
 12 14  2  0
 12 15  1  0
 15 16  1  0
 16 17  1  0
 17 18  1  0
  1 19  1  0
  3 20  1  0
  4 21  1  0
  7 22  1  0
  8 23  1  0
 15 24  1  0
 16 25  1  0
 16 26  1  0
 17 27  1  0
 17 28  1  0
 18 29  1  0
 18 30  1  0
A    1
C1
A    2
N2
A    3
C3
A    4
C4
A    5
C5
A    6
CL5
A    7
C6
A    8
C7
A    9
C8
A   10
C9
A   11
C10
A   12
S
A   13
O1S
A   14
O2S
A   15
N1'
A   16
C1'
A   17
C2'
A   18
N2'
M  END
