2D1J_D01_A_700
     RDKit          3D

 48 52  0  0  0  0  0  0  0  0999 V2000
    8.2470    8.5820   25.6760 N   0  0  0  0  0  0  0  0  0  0  0  0
    9.5410    8.2860   26.0940 C   0  0  0  0  0  0  0  0  0  0  0  0
   10.0120    7.6160   27.1780 C   0  0  0  0  0  0  0  0  0  0  0  0
   11.4010    7.4610   27.3240 C   0  0  0  0  0  0  0  0  0  0  0  0
   12.2800    8.0110   26.3910 C   0  0  0  0  0  0  0  0  0  0  0  0
   13.9890    7.8150   26.6430 Cl  0  0  0  0  0  0  0  0  0  0  0  0
   11.8040    8.7290   25.3040 C   0  0  0  0  0  0  0  0  0  0  0  0
   10.4470    8.8580   25.1330 C   0  0  0  0  0  0  0  0  0  0  0  0
    9.6360    9.4980   24.1080 C   0  0  0  0  0  0  0  0  0  0  0  0
    8.3500    9.2720   24.5400 C   0  0  0  0  0  0  0  0  0  0  0  0
    6.8820    9.7460   23.8680 S   0  0  0  0  0  0  0  0  0  0  0  0
    5.9950    9.9990   24.9990 O   0  0  0  0  0  0  0  0  0  0  0  0
    7.1380   10.7140   22.8350 O   0  0  0  0  0  0  0  0  0  0  0  0
    6.2390    8.3480   23.0880 N   0  0  0  0  0  0  0  0  0  0  0  0
    7.0550    7.7340   22.0520 C   0  0  0  0  0  0  0  0  0  0  0  0
    6.1450    7.0090   21.0690 C   0  0  0  0  0  0  0  0  0  0  0  0
    5.2690    6.0580   21.7550 N   0  0  0  0  0  0  0  0  0  0  0  0
    5.3870    4.7010   21.6380 C   0  0  0  0  0  0  0  0  0  0  0  0
    4.8440    4.0000   22.4930 O   0  0  0  0  0  0  0  0  0  0  0  0
    6.1580    4.0610   20.6700 C   0  0  0  0  0  0  0  0  0  0  0  0
    6.0140    3.8910   19.2790 C   0  0  0  0  0  0  0  0  0  0  0  0
    7.1000    3.1630   18.7000 C   0  0  0  0  0  0  0  0  0  0  0  0
    8.0830    2.7740   19.6600 C   0  0  0  0  0  0  0  0  0  0  0  0
    7.6180    3.3270   21.1720 S   0  0  0  0  0  0  0  0  0  0  0  0
    9.2070    2.0300   19.1900 C   0  0  0  0  0  0  0  0  0  0  0  0
    9.3630    1.7040   17.8660 C   0  0  0  0  0  0  0  0  0  0  0  0
    8.3760    2.1010   17.0070 C   0  0  0  0  0  0  0  0  0  0  0  0
    7.3140    2.7610   17.4000 N   0  0  0  0  0  0  0  0  0  0  0  0
    6.4530    3.0630   16.4670 O   0  0  0  0  0  0  0  0  0  0  0  0
    4.6110    6.5290   22.9800 C   0  0  0  0  0  0  0  0  0  0  0  0
    5.5870    7.3040   23.8870 C   0  0  0  0  0  0  0  0  0  0  0  0
    7.3739    8.3177   26.1543 H   0  0  0  0  0  0  0  0  0  0  0  0
    9.3198    7.2031   27.9265 H   0  0  0  0  0  0  0  0  0  0  0  0
   11.7991    6.9003   28.1826 H   0  0  0  0  0  0  0  0  0  0  0  0
   12.5027    9.1884   24.5893 H   0  0  0  0  0  0  0  0  0  0  0  0
    9.9704   10.0326   23.2067 H   0  0  0  0  0  0  0  0  0  0  0  0
    7.6251    8.5115   21.5223 H   0  0  0  0  0  0  0  0  0  0  0  0
    7.7563    7.0187   22.5064 H   0  0  0  0  0  0  0  0  0  0  0  0
    5.5260    7.7494   20.5411 H   0  0  0  0  0  0  0  0  0  0  0  0
    6.7748    6.4511   20.3605 H   0  0  0  0  0  0  0  0  0  0  0  0
    5.1603    4.2759   18.7019 H   0  0  0  0  0  0  0  0  0  0  0  0
    9.9721    1.7079   19.9117 H   0  0  0  0  0  0  0  0  0  0  0  0
   10.2433    1.1478   17.5115 H   0  0  0  0  0  0  0  0  0  0  0  0
    8.4777    1.8558   15.9395 H   0  0  0  0  0  0  0  0  0  0  0  0
    3.7770    7.1914   22.7050 H   0  0  0  0  0  0  0  0  0  0  0  0
    4.2492    5.6511   23.5353 H   0  0  0  0  0  0  0  0  0  0  0  0
    6.3458    6.6161   24.2882 H   0  0  0  0  0  0  0  0  0  0  0  0
    5.0400    7.7591   24.7259 H   0  0  0  0  0  0  0  0  0  0  0  0
  1  2  1  0
  1 10  1  0
  2  3  2  0
  2  8  1  0
  3  4  1  0
  4  5  2  0
  5  6  1  0
  5  7  1  0
  7  8  2  0
  8  9  1  0
  9 10  2  0
 10 11  1  0
 11 12  2  0
 11 13  2  0
 11 14  1  0
 14 15  1  0
 14 31  1  0
 15 16  1  0
 16 17  1  0
 17 18  1  0
 17 30  1  0
 18 19  2  0
 18 20  1  0
 20 21  2  0
 20 24  1  0
 21 22  1  0
 22 23  2  0
 22 28  1  0
 23 24  1  0
 23 25  1  0
 25 26  2  0
 26 27  1  0
 27 28  2  0
 28 29  1  0
 30 31  1  0
  1 32  1  0
  3 33  1  0
  4 34  1  0
  7 35  1  0
  9 36  1  0
 15 37  1  0
 15 38  1  0
 16 39  1  0
 16 40  1  0
 21 41  1  0
 25 42  1  0
 26 43  1  0
 27 44  1  0
 30 45  1  0
 30 46  1  0
 31 47  1  0
 31 48  1  0
M  CHG  2  28   1  29  -1
A    1
N1
A    2
C1
A    3
C2
A    4
C3
A    5
C4
A    6
CL1
A    7
C5
A    8
C6
A    9
C7
A   10
C8
A   11
S1
A   12
O1
A   13
O2
A   14
N2
A   15
C9
A   16
C10
A   17
N3
A   18
C11
A   19
O3
A   20
C12
A   21
C13
A   22
C14
A   23
C15
A   24
S2
A   25
C16
A   26
C17
A   27
C18
A   28
N4
A   29
O4
A   30
C19
A   31
C20
M  END
