2D2H_TZZ_A_901
     RDKit          3D

 17 16  0  0  0  0  0  0  0  0999 V2000
   27.5650   20.9970    1.4610 C   0  0  0  0  0  0  0  0  0  0  0  0
   28.4760   20.7420    0.3890 O   0  0  0  0  0  0  0  0  0  0  0  0
   29.6720   21.7540    0.0390 P   0  0  0  0  0  0  0  0  0  0  0  0
   30.2180   21.5960   -1.4470 O   0  0  0  0  0  0  0  0  0  0  0  0
   29.0540   23.2110    0.2920 O   0  0  0  0  0  0  0  0  0  0  0  0
   28.4030   23.8230   -0.8190 C   0  0  0  0  0  0  0  0  0  0  0  0
   30.8040   21.5180    1.1540 O   0  0  0  0  0  0  0  0  0  0  0  0
   32.1220   21.1560    0.7500 C   0  0  0  0  0  0  0  0  0  0  0  0
   28.0802   20.8528    2.4221 H   0  0  0  0  0  0  0  0  0  0  0  0
   27.1991   22.0321    1.3928 H   0  0  0  0  0  0  0  0  0  0  0  0
   26.7149   20.3023    1.3928 H   0  0  0  0  0  0  0  0  0  0  0  0
   27.6468   24.5339   -0.4548 H   0  0  0  0  0  0  0  0  0  0  0  0
   29.1452   24.3580   -1.4297 H   0  0  0  0  0  0  0  0  0  0  0  0
   27.9148   23.0492   -1.4297 H   0  0  0  0  0  0  0  0  0  0  0  0
   32.7445   20.9850    1.6406 H   0  0  0  0  0  0  0  0  0  0  0  0
   32.0815   20.2357    0.1488 H   0  0  0  0  0  0  0  0  0  0  0  0
   32.5572   21.9679    0.1488 H   0  0  0  0  0  0  0  0  0  0  0  0
  1  2  1  0
  2  3  1  0
  3  4  2  0
  3  5  1  0
  3  7  1  0
  5  6  1  0
  7  8  1  0
  1  9  1  0
  1 10  1  0
  1 11  1  0
  6 12  1  0
  6 13  1  0
  6 14  1  0
  8 15  1  0
  8 16  1  0
  8 17  1  0
A    1
C
A    2
O1
A    3
P
A    4
O
A    5
O2
A    6
C1
A    7
O3
A    8
C2
M  END
