2D3U_CCT_A_1001
     RDKit          3D

 41 43  0  0  0  0  0  0  0  0999 V2000
   12.9300   30.8710   73.5550 C   0  0  0  0  0  0  0  0  0  0  0  0
   12.9040   29.5940   72.9150 C   0  0  0  0  0  0  0  0  0  0  0  0
   11.6750   28.8760   72.8760 C   0  0  0  0  0  0  0  0  0  0  0  0
   10.5040   29.4160   73.4550 C   0  0  0  0  0  0  0  0  0  0  0  0
   10.5200   30.6920   74.0920 C   0  0  0  0  0  0  0  0  0  0  0  0
   11.7530   31.4110   74.1340 C   0  0  0  0  0  0  0  0  0  0  0  0
    6.8840   31.7970   75.1110 C   0  0  0  0  0  0  0  0  0  0  0  0
    7.7330   32.3920   76.0330 C   0  0  0  0  0  0  0  0  0  0  0  0
    9.1080   32.0610   75.7680 C   0  0  0  0  0  0  0  0  0  0  0  0
    9.2770   31.2340   74.6690 C   0  0  0  0  0  0  0  0  0  0  0  0
    7.7570   30.8740   73.9820 S   0  0  0  0  0  0  0  0  0  0  0  0
   14.0830   29.0400   72.3180 C   0  0  0  0  0  0  0  0  0  0  0  0
   15.0430   28.5810   71.8110 N   0  0  0  0  0  0  0  0  0  0  0  0
    5.4020   31.9440   75.1070 C   0  0  0  0  0  0  0  0  0  0  0  0
    4.7680   31.2300   74.3130 O   0  0  0  0  0  0  0  0  0  0  0  0
    4.8680   32.7870   75.8710 O   0  0  0  0  0  0  0  0  0  0  0  0
    7.3010   33.2370   77.1370 N   0  0  0  0  0  0  0  0  0  0  0  0
    8.2820   34.5020   77.6890 S   0  0  0  0  0  0  0  0  0  0  0  0
    7.7750   36.4670   75.7110 C   0  0  0  0  0  0  0  0  0  0  0  0
    8.7330   35.6820   76.4270 C   0  0  0  0  0  0  0  0  0  0  0  0
   10.1250   35.8300   76.1460 C   0  0  0  0  0  0  0  0  0  0  0  0
   10.5780   36.7400   75.1660 C   0  0  0  0  0  0  0  0  0  0  0  0
    9.6350   37.5250   74.4500 C   0  0  0  0  0  0  0  0  0  0  0  0
    8.2460   37.3870   74.7200 C   0  0  0  0  0  0  0  0  0  0  0  0
    6.2860   36.3670   75.9520 C   0  0  0  0  0  0  0  0  0  0  0  0
    9.4810   33.8970   78.2520 O   0  0  0  0  0  0  0  0  0  0  0  0
    7.4830   35.1830   78.6860 O   0  0  0  0  0  0  0  0  0  0  0  0
   13.8703   31.4401   73.5991 H   0  0  0  0  0  0  0  0  0  0  0  0
   11.6364   27.8900   72.3898 H   0  0  0  0  0  0  0  0  0  0  0  0
    9.5658   28.8432   73.4136 H   0  0  0  0  0  0  0  0  0  0  0  0
   11.7906   32.3963   74.6216 H   0  0  0  0  0  0  0  0  0  0  0  0
    9.9450   32.4292   76.3794 H   0  0  0  0  0  0  0  0  0  0  0  0
    4.1513   30.5355   74.6557 H   0  0  0  0  0  0  0  0  0  0  0  0
    6.3905   33.0638   77.5863 H   0  0  0  0  0  0  0  0  0  0  0  0
   10.8565   35.2252   76.7020 H   0  0  0  0  0  0  0  0  0  0  0  0
   11.6536   36.8404   74.9584 H   0  0  0  0  0  0  0  0  0  0  0  0
    9.9792   38.2390   73.6873 H   0  0  0  0  0  0  0  0  0  0  0  0
    7.5221   37.9963   74.1590 H   0  0  0  0  0  0  0  0  0  0  0  0
    6.0898   36.3538   77.0343 H   0  0  0  0  0  0  0  0  0  0  0  0
    5.7822   37.2333   75.4985 H   0  0  0  0  0  0  0  0  0  0  0  0
    5.9025   35.4411   75.4985 H   0  0  0  0  0  0  0  0  0  0  0  0
  1  2  2  0
  1  6  1  0
  2  3  1  0
  2 12  1  0
  3  4  2  0
  4  5  1  0
  5  6  2  0
  5 10  1  0
  7  8  2  0
  7 11  1  0
  7 14  1  0
  8  9  1  0
  8 17  1  0
  9 10  2  0
 10 11  1  0
 12 13  3  0
 14 15  1  0
 14 16  2  0
 17 18  1  0
 18 20  1  0
 18 26  2  0
 18 27  2  0
 19 20  2  0
 19 24  1  0
 19 25  1  0
 20 21  1  0
 21 22  2  0
 22 23  1  0
 23 24  2  0
  1 28  1  0
  3 29  1  0
  4 30  1  0
  6 31  1  0
  9 32  1  0
 15 33  1  0
 17 34  1  0
 21 35  1  0
 22 36  1  0
 23 37  1  0
 24 38  1  0
 25 39  1  0
 25 40  1  0
 25 41  1  0
A    1
C1
A    2
C2
A    3
C3
A    4
C4
A    5
C5
A    6
C6
A    7
C7
A    8
C8
A    9
C9
A   10
C10
A   11
S11
A   12
C12
A   13
N13
A   14
C14
A   15
O15
A   16
O16
A   17
N17
A   18
S18
A   19
C19
A   20
C20
A   21
C21
A   22
C22
A   23
C23
A   24
C24
A   25
C25
A   26
O26
A   27
O27
M  END
