2D3Z_FIH_A_2001
     RDKit          3D

 40 42  0  0  0  0  0  0  0  0999 V2000
   13.1800   31.3790   73.3040 C   0  0  0  0  0  0  0  0  0  0  0  0
   13.1300   30.3960   72.2700 C   0  0  0  0  0  0  0  0  0  0  0  0
   11.8850   29.7900   71.9620 C   0  0  0  0  0  0  0  0  0  0  0  0
   10.7110   30.1540   72.6660 C   0  0  0  0  0  0  0  0  0  0  0  0
   10.7390   31.1360   73.7000 C   0  0  0  0  0  0  0  0  0  0  0  0
   11.9960   31.7470   74.0120 C   0  0  0  0  0  0  0  0  0  0  0  0
    7.0760   31.9050   74.9850 C   0  0  0  0  0  0  0  0  0  0  0  0
    7.9150   32.2730   76.0280 C   0  0  0  0  0  0  0  0  0  0  0  0
    9.2970   32.0410   75.6900 C   0  0  0  0  0  0  0  0  0  0  0  0
    9.4820   31.5070   74.4150 C   0  0  0  0  0  0  0  0  0  0  0  0
    7.9570   31.3000   73.6670 S   0  0  0  0  0  0  0  0  0  0  0  0
   14.2100   30.0530   71.6110 F   0  0  0  0  0  0  0  0  0  0  0  0
    5.5950   32.0130   74.9890 C   0  0  0  0  0  0  0  0  0  0  0  0
    4.9690   31.4060   74.0950 O   0  0  0  0  0  0  0  0  0  0  0  0
    5.0480   32.7110   75.8690 O   0  0  0  0  0  0  0  0  0  0  0  0
    7.4610   32.8240   77.3080 N   0  0  0  0  0  0  0  0  0  0  0  0
    8.1820   34.1980   78.0070 S   0  0  0  0  0  0  0  0  0  0  0  0
    7.3500   36.3870   76.4550 C   0  0  0  0  0  0  0  0  0  0  0  0
    8.4490   35.5690   76.8630 C   0  0  0  0  0  0  0  0  0  0  0  0
    9.7580   35.8370   76.3620 C   0  0  0  0  0  0  0  0  0  0  0  0
    9.9680   36.9150   75.4580 C   0  0  0  0  0  0  0  0  0  0  0  0
    8.8750   37.7290   75.0520 C   0  0  0  0  0  0  0  0  0  0  0  0
    7.5670   37.4640   75.5520 C   0  0  0  0  0  0  0  0  0  0  0  0
    9.1030   38.8670   74.0940 C   0  0  0  0  0  0  0  0  0  0  0  0
    9.4660   33.7560   78.5380 O   0  0  0  0  0  0  0  0  0  0  0  0
    7.2740   34.6330   79.0650 O   0  0  0  0  0  0  0  0  0  0  0  0
   14.1380   31.8566   73.5572 H   0  0  0  0  0  0  0  0  0  0  0  0
   11.8307   29.0299   71.1687 H   0  0  0  0  0  0  0  0  0  0  0  0
    9.7575   29.6690   72.4098 H   0  0  0  0  0  0  0  0  0  0  0  0
   12.0499   32.5074   74.8050 H   0  0  0  0  0  0  0  0  0  0  0  0
   10.1287   32.2645   76.3744 H   0  0  0  0  0  0  0  0  0  0  0  0
    4.2802   30.7381   74.3393 H   0  0  0  0  0  0  0  0  0  0  0  0
    6.6810   32.3652   77.8000 H   0  0  0  0  0  0  0  0  0  0  0  0
    6.3392   36.1840   76.8385 H   0  0  0  0  0  0  0  0  0  0  0  0
   10.6054   35.2094   76.6751 H   0  0  0  0  0  0  0  0  0  0  0  0
   10.9777   37.1193   75.0723 H   0  0  0  0  0  0  0  0  0  0  0  0
    6.7222   38.0948   75.2383 H   0  0  0  0  0  0  0  0  0  0  0  0
    9.2882   39.7916   74.6604 H   0  0  0  0  0  0  0  0  0  0  0  0
    9.9743   38.6442   73.4607 H   0  0  0  0  0  0  0  0  0  0  0  0
    8.2131   38.9970   73.4607 H   0  0  0  0  0  0  0  0  0  0  0  0
  1  2  2  0
  1  6  1  0
  2  3  1  0
  2 12  1  0
  3  4  2  0
  4  5  1  0
  5  6  2  0
  5 10  1  0
  7  8  2  0
  7 11  1  0
  7 13  1  0
  8  9  1  0
  8 16  1  0
  9 10  2  0
 10 11  1  0
 13 14  1  0
 13 15  2  0
 16 17  1  0
 17 19  1  0
 17 25  2  0
 17 26  2  0
 18 19  2  0
 18 23  1  0
 19 20  1  0
 20 21  2  0
 21 22  1  0
 22 23  2  0
 22 24  1  0
  1 27  1  0
  3 28  1  0
  4 29  1  0
  6 30  1  0
  9 31  1  0
 14 32  1  0
 16 33  1  0
 18 34  1  0
 20 35  1  0
 21 36  1  0
 23 37  1  0
 24 38  1  0
 24 39  1  0
 24 40  1  0
A    1
C1
A    2
C2
A    3
C3
A    4
C4
A    5
C5
A    6
C6
A    7
C7
A    8
C8
A    9
C9
A   10
C10
A   11
S11
A   12
F12
A   13
C14
A   14
O15
A   15
O16
A   16
N17
A   17
S18
A   18
C19
A   19
C20
A   20
C21
A   21
C22
A   22
C23
A   23
C24
A   24
C25
A   25
O26
A   26
O27
M  END
