1E8C_API_A_1499
     RDKit          3D

 27 26  0  0  0  0  0  0  0  0999 V2000
    8.8480   59.1050  102.9000 C   0  0  0  0  0  0  0  0  0  0  0  0
    7.3380   59.6130  102.9220 C   0  0  0  0  0  0  0  0  0  0  0  0
    6.7020   59.5430  104.3180 C   0  0  0  0  0  0  0  0  0  0  0  0
    7.0840   60.6410  105.3040 C   0  0  0  0  0  0  0  0  0  0  0  0
    8.0140   60.1740  106.3880 C   0  0  0  0  0  0  0  0  0  0  0  0
    8.4850   61.1890  107.3950 C   0  0  0  0  0  0  0  0  0  0  0  0
   10.0760   61.2160  107.2800 C   0  0  0  0  0  0  0  0  0  0  0  0
    9.4870   59.1400  101.7450 O   0  0  0  0  0  0  0  0  0  0  0  0
    9.4100   58.6830  103.9670 O   0  0  0  0  0  0  0  0  0  0  0  0
   10.7480   60.4120  107.9980 O   0  0  0  0  0  0  0  0  0  0  0  0
   10.5960   62.0280  106.4660 O   0  0  0  0  0  0  0  0  0  0  0  0
    6.4220   58.8450  101.9910 N   0  0  0  0  0  0  0  0  0  0  0  0
    8.0750   60.7700  108.7930 N   0  0  0  0  0  0  0  0  0  0  0  0
    7.4231   60.6568  102.5856 H   0  0  0  0  0  0  0  0  0  0  0  0
    5.6102   59.5776  104.1882 H   0  0  0  0  0  0  0  0  0  0  0  0
    7.0847   58.6121  104.7619 H   0  0  0  0  0  0  0  0  0  0  0  0
    7.5763   61.4526  104.7482 H   0  0  0  0  0  0  0  0  0  0  0  0
    6.1569   60.9742  105.7934 H   0  0  0  0  0  0  0  0  0  0  0  0
    7.4971   59.3771  106.9427 H   0  0  0  0  0  0  0  0  0  0  0  0
    8.9269   59.8674  105.8563 H   0  0  0  0  0  0  0  0  0  0  0  0
    8.0461   62.1792  107.2029 H   0  0  0  0  0  0  0  0  0  0  0  0
    9.0552   58.9494  104.8520 H   0  0  0  0  0  0  0  0  0  0  0  0
   11.0982   62.8123  106.8018 H   0  0  0  0  0  0  0  0  0  0  0  0
    5.7572   58.2876  102.5462 H   0  0  0  0  0  0  0  0  0  0  0  0
    5.9027   59.5071  101.3970 H   0  0  0  0  0  0  0  0  0  0  0  0
    8.6085   61.3152  109.4851 H   0  0  0  0  0  0  0  0  0  0  0  0
    7.0679   60.9432  108.9219 H   0  0  0  0  0  0  0  0  0  0  0  0
  1  2  1  0
  1  8  2  0
  1  9  1  0
  2  3  1  0
  2 12  1  0
  3  4  1  0
  4  5  1  0
  5  6  1  0
  6  7  1  0
  6 13  1  0
  7 10  2  0
  7 11  1  0
  2 14  1  0
  3 15  1  0
  3 16  1  0
  4 17  1  0
  4 18  1  0
  5 19  1  0
  5 20  1  0
  6 21  1  0
  9 22  1  0
 11 23  1  0
 12 24  1  0
 12 25  1  0
 13 26  1  0
 13 27  1  0
A    1
C1
A    2
C2
A    3
C3
A    4
C4
A    5
C5
A    6
C6
A    7
C7
A    8
O1
A    9
O2
A   10
O3
A   11
O4
A   12
N2
A   13
N6
M  END
