2DCM_GA0_A_801
     RDKit          3D

 35 35  0  0  0  0  0  0  0  0999 V2000
   -9.8950   48.5040   64.6570 N   0  0  0  0  0  0  0  0  0  0  0  0
   -9.2570   47.7390   65.7010 C   0  0  0  0  0  0  0  0  0  0  0  0
   -8.7700   46.4400   65.1000 C   0  0  0  0  0  0  0  0  0  0  0  0
   -9.5610   45.6570   64.5480 O   0  0  0  0  0  0  0  0  0  0  0  0
   -7.4610   46.1970   65.1900 N   0  0  0  0  0  0  0  0  0  0  0  0
   -6.8910   44.9690   64.6260 C   0  0  0  0  0  0  0  0  0  0  0  0
   -5.4870   45.2240   63.9900 C   0  0  0  0  0  0  0  0  0  0  0  0
   -6.8080   43.9000   65.7100 C   0  0  0  0  0  0  0  0  0  0  0  0
   -6.5270   44.2290   66.8910 O   0  0  0  0  0  0  0  0  0  0  0  0
   -7.0580   42.5910   65.3200 N   0  0  0  0  0  0  0  0  0  0  0  0
   -7.4070   42.1070   63.9380 C   0  0  0  0  0  0  0  0  0  0  0  0
   -7.0150   41.4310   66.2540 C   0  0  0  0  0  0  0  0  0  0  0  0
   -7.2990   40.2290   65.3060 C   0  0  0  0  0  0  0  0  0  0  0  0
   -8.1580   40.8150   64.2170 C   0  0  0  0  0  0  0  0  0  0  0  0
   -5.6230   41.3170   67.0060 C   0  0  0  0  0  0  0  0  0  0  0  0
   -5.6360   41.1060   68.2430 O   0  0  0  0  0  0  0  0  0  0  0  0
   -4.5870   41.4570   66.3780 N   0  0  0  0  0  0  0  0  0  0  0  0
  -10.4968   49.2256   65.0790 H   0  0  0  0  0  0  0  0  0  0  0  0
   -9.1759   48.9549   64.0734 H   0  0  0  0  0  0  0  0  0  0  0  0
   -8.4057   48.3032   66.1096 H   0  0  0  0  0  0  0  0  0  0  0  0
   -9.9681   47.5391   66.5161 H   0  0  0  0  0  0  0  0  0  0  0  0
   -6.8461   46.8772   65.6592 H   0  0  0  0  0  0  0  0  0  0  0  0
   -7.5521   44.6184   63.8198 H   0  0  0  0  0  0  0  0  0  0  0  0
   -4.7421   45.3593   64.7880 H   0  0  0  0  0  0  0  0  0  0  0  0
   -5.2047   44.3624   63.3671 H   0  0  0  0  0  0  0  0  0  0  0  0
   -5.5257   46.1298   63.3671 H   0  0  0  0  0  0  0  0  0  0  0  0
   -8.0463   42.8322   63.4133 H   0  0  0  0  0  0  0  0  0  0  0  0
   -6.5298   41.9708   63.2884 H   0  0  0  0  0  0  0  0  0  0  0  0
   -7.7377   41.5018   67.0802 H   0  0  0  0  0  0  0  0  0  0  0  0
   -6.3620   39.8288   64.8914 H   0  0  0  0  0  0  0  0  0  0  0  0
   -7.7871   39.3897   65.8231 H   0  0  0  0  0  0  0  0  0  0  0  0
   -9.1826   41.0083   64.5675 H   0  0  0  0  0  0  0  0  0  0  0  0
   -8.2939   40.1649   63.3401 H   0  0  0  0  0  0  0  0  0  0  0  0
   -3.6943   41.5776   66.8774 H   0  0  0  0  0  0  0  0  0  0  0  0
   -4.6047   41.4546   65.3482 H   0  0  0  0  0  0  0  0  0  0  0  0
  1  2  1  0
  2  3  1  0
  3  4  2  0
  3  5  1  0
  5  6  1  0
  6  7  1  0
  6  8  1  0
  8  9  2  0
  8 10  1  0
 10 11  1  0
 10 12  1  0
 11 14  1  0
 12 13  1  0
 12 15  1  0
 13 14  1  0
 15 16  2  0
 15 17  1  0
  1 18  1  0
  1 19  1  0
  2 20  1  0
  2 21  1  0
  5 22  1  0
  6 23  1  0
  7 24  1  0
  7 25  1  0
  7 26  1  0
 11 27  1  0
 11 28  1  0
 12 29  1  0
 13 30  1  0
 13 31  1  0
 14 32  1  0
 14 33  1  0
 17 34  1  0
 17 35  1  0
A    1
N1
A    2
CA1
A    3
C1
A    4
O1
A    5
N2
A    6
CA2
A    7
CB2
A    8
C2
A    9
O2
A   10
N3
A   11
CD3
A   12
CA3
A   13
CB3
A   14
CG3
A   15
C3
A   16
O3
A   17
NN
M  END
