2DOO_C4H_A_601
     RDKit          3D

 54 55  0  0  0  0  0  0  0  0999 V2000
   29.6070   45.8040   33.4710 C   0  0  0  0  0  0  0  0  0  0  0  0
   28.8450   44.6830   32.9420 C   0  0  0  0  0  0  0  0  0  0  0  0
   30.2050   46.9530   32.6940 C   0  0  0  0  0  0  0  0  0  0  0  0
   30.1240   47.1320   31.1460 N   0  0  0  0  0  0  0  0  0  0  0  0
   28.9900   47.7580   30.8110 C   0  0  0  0  0  0  0  0  0  0  0  0
   30.3060   46.1350   30.4870 C   0  0  0  0  0  0  0  0  0  0  0  0
   30.9150   47.9550   33.4300 C   0  0  0  0  0  0  0  0  0  0  0  0
   31.0680   47.9150   34.8450 C   0  0  0  0  0  0  0  0  0  0  0  0
   30.5070   46.8380   35.5810 C   0  0  0  0  0  0  0  0  0  0  0  0
   29.7670   45.7720   34.9400 C   0  0  0  0  0  0  0  0  0  0  0  0
   29.2020   44.6540   35.7550 C   0  0  0  0  0  0  0  0  0  0  0  0
   28.4680   43.6060   35.1070 C   0  0  0  0  0  0  0  0  0  0  0  0
   28.3030   43.6310   33.7190 C   0  0  0  0  0  0  0  0  0  0  0  0
   29.4140   44.6000   37.5190 S   0  0  0  0  0  0  0  0  0  0  0  0
   30.8320   44.4080   37.9770 N   0  0  0  0  0  0  0  0  0  0  0  0
   31.8760   43.8390   37.0940 C   0  0  0  0  0  0  0  0  0  0  0  0
   32.5270   42.5660   37.7580 C   0  0  0  0  0  0  0  0  0  0  0  0
   33.0550   42.9310   39.2220 C   0  0  0  0  0  0  0  0  0  0  0  0
   33.7680   41.7850   39.9060 C   0  0  0  0  0  0  0  0  0  0  0  0
   33.9520   42.0030   41.3800 N   0  0  0  0  0  0  0  0  0  0  0  0
   33.1670   41.1300   42.3080 C   0  0  0  0  0  0  0  0  0  0  0  0
   32.4080   40.2780   41.8450 O   0  0  0  0  0  0  0  0  0  0  0  0
   33.3510   41.3770   43.8440 C   0  0  0  0  0  0  0  0  0  0  0  0
   32.1730   40.9190   44.6920 C   0  0  0  0  0  0  0  0  0  0  0  0
   30.6760   41.9520   44.8060 S   0  0  0  0  0  0  0  0  0  0  0  0
   28.5580   43.5070   38.1010 O   0  0  0  0  0  0  0  0  0  0  0  0
   29.0090   45.9080   38.0760 O   0  0  0  0  0  0  0  0  0  0  0  0
   28.6773   44.6504   31.8554 H   0  0  0  0  0  0  0  0  0  0  0  0
   28.4519   48.0551   31.7232 H   0  0  0  0  0  0  0  0  0  0  0  0
   29.2269   48.6531   30.2172 H   0  0  0  0  0  0  0  0  0  0  0  0
   28.3588   47.0805   30.2172 H   0  0  0  0  0  0  0  0  0  0  0  0
   30.4627   45.2764   31.1566 H   0  0  0  0  0  0  0  0  0  0  0  0
   29.4269   45.9494   29.8524 H   0  0  0  0  0  0  0  0  0  0  0  0
   31.1940   46.2720   29.8524 H   0  0  0  0  0  0  0  0  0  0  0  0
   31.3627   48.7940   32.8771 H   0  0  0  0  0  0  0  0  0  0  0  0
   31.6175   48.7136   35.3649 H   0  0  0  0  0  0  0  0  0  0  0  0
   30.6390   46.8131   36.6728 H   0  0  0  0  0  0  0  0  0  0  0  0
   28.0366   42.7859   35.6997 H   0  0  0  0  0  0  0  0  0  0  0  0
   27.7447   42.8227   33.2241 H   0  0  0  0  0  0  0  0  0  0  0  0
   31.1710   45.3384   38.2604 H   0  0  0  0  0  0  0  0  0  0  0  0
   31.4218   43.5540   36.1335 H   0  0  0  0  0  0  0  0  0  0  0  0
   32.6579   44.5960   36.9340 H   0  0  0  0  0  0  0  0  0  0  0  0
   31.7751   41.7663   37.8295 H   0  0  0  0  0  0  0  0  0  0  0  0
   33.3716   42.2256   37.1410 H   0  0  0  0  0  0  0  0  0  0  0  0
   33.7532   43.7771   39.1401 H   0  0  0  0  0  0  0  0  0  0  0  0
   32.1742   43.1769   39.8333 H   0  0  0  0  0  0  0  0  0  0  0  0
   33.1789   40.8679   39.7584 H   0  0  0  0  0  0  0  0  0  0  0  0
   34.7696   41.7070   39.4579 H   0  0  0  0  0  0  0  0  0  0  0  0
   34.5933   42.7250   41.7384 H   0  0  0  0  0  0  0  0  0  0  0  0
   34.2479   40.8338   44.1763 H   0  0  0  0  0  0  0  0  0  0  0  0
   33.4379   42.4648   43.9824 H   0  0  0  0  0  0  0  0  0  0  0  0
   31.8561   39.9434   44.2948 H   0  0  0  0  0  0  0  0  0  0  0  0
   32.5745   40.9419   45.7158 H   0  0  0  0  0  0  0  0  0  0  0  0
   30.3674   42.1650   46.1237 H   0  0  0  0  0  0  0  0  0  0  0  0
  1  2  2  0
  1  3  1  0
  1 10  1  0
  2 13  1  0
  3  4  1  0
  3  7  2  0
  4  5  1  0
  4  6  1  0
  7  8  1  0
  8  9  2  0
  9 10  1  0
 10 11  2  0
 11 12  1  0
 11 14  1  0
 12 13  2  0
 14 15  1  0
 14 26  2  0
 14 27  2  0
 15 16  1  0
 16 17  1  0
 17 18  1  0
 18 19  1  0
 19 20  1  0
 20 21  1  0
 21 22  2  0
 21 23  1  0
 23 24  1  0
 24 25  1  0
  2 28  1  0
  5 29  1  0
  5 30  1  0
  5 31  1  0
  6 32  1  0
  6 33  1  0
  6 34  1  0
  7 35  1  0
  8 36  1  0
  9 37  1  0
 12 38  1  0
 13 39  1  0
 15 40  1  0
 16 41  1  0
 16 42  1  0
 17 43  1  0
 17 44  1  0
 18 45  1  0
 18 46  1  0
 19 47  1  0
 19 48  1  0
 20 49  1  0
 23 50  1  0
 23 51  1  0
 24 52  1  0
 24 53  1  0
 25 54  1  0
A    1
C1
A    2
C2
A    3
C3
A    4
N4
A    5
C5
A    6
C6
A    7
C7
A    8
C8
A    9
C9
A   10
C10
A   11
C11
A   12
C12
A   13
C13
A   14
S14
A   15
N15
A   16
C16
A   17
C17
A   18
C18
A   19
C19
A   20
N20
A   21
C21
A   22
O22
A   23
C23
A   24
C24
A   25
S25
A   26
O26
A   27
O27
M  END
