1G0C_CBI_A_585
     RDKit          3D

 45 46  0  0  0  0  0  0  0  0999 V2000
    4.4380   42.0430   35.6210 C   0  0  0  0  0  0  0  0  0  0  0  0
    3.1910   41.1670   35.8060 C   0  0  0  0  0  0  0  0  0  0  0  0
    3.6160   39.7580   36.1900 C   0  0  0  0  0  0  0  0  0  0  0  0
    4.5700   39.2070   35.1380 C   0  0  0  0  0  0  0  0  0  0  0  0
    5.7530   40.1620   34.9860 C   0  0  0  0  0  0  0  0  0  0  0  0
    6.7750   39.7270   33.9520 C   0  0  0  0  0  0  0  0  0  0  0  0
    2.3760   41.7170   36.8390 O   0  0  0  0  0  0  0  0  0  0  0  0
    2.4630   38.9430   36.2830 O   0  0  0  0  0  0  0  0  0  0  0  0
    5.0340   37.9340   35.5580 O   0  0  0  0  0  0  0  0  0  0  0  0
    5.2990   41.4780   34.6270 O   0  0  0  0  0  0  0  0  0  0  0  0
    6.2550   39.7930   32.6310 O   0  0  0  0  0  0  0  0  0  0  0  0
    5.8740   47.1110   36.0540 C   0  0  0  0  0  0  0  0  0  0  0  0
    6.1360   46.4370   34.6870 C   0  0  0  0  0  0  0  0  0  0  0  0
    5.1750   45.2760   34.3390 C   0  0  0  0  0  0  0  0  0  0  0  0
    5.0160   44.3470   35.5190 C   0  0  0  0  0  0  0  0  0  0  0  0
    4.5300   45.2130   36.6650 C   0  0  0  0  0  0  0  0  0  0  0  0
    4.0860   44.4400   37.8950 C   0  0  0  0  0  0  0  0  0  0  0  0
    4.6840   47.8160   35.9030 O   0  0  0  0  0  0  0  0  0  0  0  0
    6.0450   47.4170   33.6700 O   0  0  0  0  0  0  0  0  0  0  0  0
    5.6760   44.5390   33.2330 O   0  0  0  0  0  0  0  0  0  0  0  0
    4.0640   43.3110   35.2160 O   0  0  0  0  0  0  0  0  0  0  0  0
    5.5770   46.1200   37.0480 O   0  0  0  0  0  0  0  0  0  0  0  0
    5.1470   44.2840   38.8370 O   0  0  0  0  0  0  0  0  0  0  0  0
    4.9713   42.0965   36.5816 H   0  0  0  0  0  0  0  0  0  0  0  0
    2.6201   41.1342   34.8663 H   0  0  0  0  0  0  0  0  0  0  0  0
    4.1337   39.7705   37.1605 H   0  0  0  0  0  0  0  0  0  0  0  0
    4.0528   39.1097   34.1721 H   0  0  0  0  0  0  0  0  0  0  0  0
    6.2457   40.1576   35.9695 H   0  0  0  0  0  0  0  0  0  0  0  0
    7.6534   40.3855   34.0215 H   0  0  0  0  0  0  0  0  0  0  0  0
    7.0453   38.6811   34.1596 H   0  0  0  0  0  0  0  0  0  0  0  0
    2.7478   41.4661   37.7215 H   0  0  0  0  0  0  0  0  0  0  0  0
    2.2442   38.7883   37.2361 H   0  0  0  0  0  0  0  0  0  0  0  0
    5.0473   37.8975   36.5472 H   0  0  0  0  0  0  0  0  0  0  0  0
    5.2736   39.9176   32.6685 H   0  0  0  0  0  0  0  0  0  0  0  0
    6.7451   47.7158   36.3463 H   0  0  0  0  0  0  0  0  0  0  0  0
    7.1402   45.9934   34.7570 H   0  0  0  0  0  0  0  0  0  0  0  0
    4.1964   45.7079   34.0826 H   0  0  0  0  0  0  0  0  0  0  0  0
    5.9608   43.8444   35.7735 H   0  0  0  0  0  0  0  0  0  0  0  0
    3.6411   45.7403   36.2885 H   0  0  0  0  0  0  0  0  0  0  0  0
    3.2594   44.9827   38.3769 H   0  0  0  0  0  0  0  0  0  0  0  0
    3.7672   43.4382   37.5715 H   0  0  0  0  0  0  0  0  0  0  0  0
    4.3146   48.0348   36.7951 H   0  0  0  0  0  0  0  0  0  0  0  0
    5.9618   48.3134   34.0820 H   0  0  0  0  0  0  0  0  0  0  0  0
    6.2010   43.7667   33.5617 H   0  0  0  0  0  0  0  0  0  0  0  0
    4.7829   44.3375   39.7560 H   0  0  0  0  0  0  0  0  0  0  0  0
  1  2  1  0
  1 10  1  0
  1 21  1  0
  2  3  1  0
  2  7  1  0
  3  4  1  0
  3  8  1  0
  4  5  1  0
  4  9  1  0
  5  6  1  0
  5 10  1  0
  6 11  1  0
 12 13  1  0
 12 18  1  0
 12 22  1  0
 13 14  1  0
 13 19  1  0
 14 15  1  0
 14 20  1  0
 15 16  1  0
 15 21  1  0
 16 17  1  0
 16 22  1  0
 17 23  1  0
  1 24  1  0
  2 25  1  0
  3 26  1  0
  4 27  1  0
  5 28  1  0
  6 29  1  0
  6 30  1  0
  7 31  1  0
  8 32  1  0
  9 33  1  0
 11 34  1  0
 12 35  1  0
 13 36  1  0
 14 37  1  0
 15 38  1  0
 16 39  1  0
 17 40  1  0
 17 41  1  0
 18 42  1  0
 19 43  1  0
 20 44  1  0
 23 45  1  0
A    1
C1
A    2
C2
A    3
C3
A    4
C4
A    5
C5
A    6
C6
A    7
O2
A    8
O3
A    9
O4
A   10
O5
A   11
O6
A   12
C1'
A   13
C2'
A   14
C3'
A   15
C4'
A   16
C5'
A   17
C6'
A   18
O1'
A   19
O2'
A   20
O3'
A   21
O4'
A   22
O5'
A   23
O6'
M  END
