1ABE_ARA_A_307
     RDKit          3D

 20 20  0  0  0  0  0  0  0  0999 V2000
   14.3120   56.5670   55.2040 C   0  0  0  0  0  0  0  0  0  0  0  0
   12.8970   57.0410   54.9240 C   0  0  0  0  0  0  0  0  0  0  0  0
   12.3320   56.2800   53.7250 C   0  0  0  0  0  0  0  0  0  0  0  0
   13.2800   56.3730   52.5190 C   0  0  0  0  0  0  0  0  0  0  0  0
   14.6610   55.8770   52.9310 C   0  0  0  0  0  0  0  0  0  0  0  0
   14.7660   57.3640   56.2550 O   0  0  0  0  0  0  0  0  0  0  0  0
   12.0600   56.8900   56.0760 O   0  0  0  0  0  0  0  0  0  0  0  0
   11.0560   56.7750   53.3360 O   0  0  0  0  0  0  0  0  0  0  0  0
   13.3190   57.7020   51.9740 O   0  0  0  0  0  0  0  0  0  0  0  0
   15.1210   56.7460   54.0290 O   0  0  0  0  0  0  0  0  0  0  0  0
   14.3584   55.4999   55.4668 H   0  0  0  0  0  0  0  0  0  0  0  0
   12.9231   58.1143   54.6844 H   0  0  0  0  0  0  0  0  0  0  0  0
   12.2282   55.2317   54.0415 H   0  0  0  0  0  0  0  0  0  0  0  0
   12.9019   55.7289   51.7114 H   0  0  0  0  0  0  0  0  0  0  0  0
   14.6007   54.8338   53.2747 H   0  0  0  0  0  0  0  0  0  0  0  0
   15.3603   55.9129   52.0826 H   0  0  0  0  0  0  0  0  0  0  0  0
   14.5253   56.9415   57.1174 H   0  0  0  0  0  0  0  0  0  0  0  0
   12.6061   56.9885   56.8959 H   0  0  0  0  0  0  0  0  0  0  0  0
   10.5222   56.9821   54.1436 H   0  0  0  0  0  0  0  0  0  0  0  0
   13.3383   58.3611   52.7125 H   0  0  0  0  0  0  0  0  0  0  0  0
  1  2  1  0
  1  6  1  0
  1 10  1  0
  2  3  1  0
  2  7  1  0
  3  4  1  0
  3  8  1  0
  4  5  1  0
  4  9  1  0
  5 10  1  0
  1 11  1  0
  2 12  1  0
  3 13  1  0
  4 14  1  0
  5 15  1  0
  5 16  1  0
  6 17  1  0
  7 18  1  0
  8 19  1  0
  9 20  1  0
A    1
C1
A    2
C2
A    3
C3
A    4
C4
A    5
C5
A    6
O1
A    7
O2
A    8
O3
A    9
O4
A   10
O5
M  END
