2E3O_16C_A_600
     RDKit          3D

105104  0  0  0  0  0  0  0  0999 V2000
   18.3320   -0.2340   -1.8540 O   0  0  0  0  0  0  0  0  0  0  0  0
   18.2690   -1.2880   -2.4870 C   0  0  0  0  0  0  0  0  0  0  0  0
   19.0740   -2.3410   -2.2910 N   0  0  0  0  0  0  0  0  0  0  0  0
   20.1500   -2.4100   -1.3030 C   0  0  0  0  0  0  0  0  0  0  0  0
   20.6830   -3.8400   -1.1720 C   0  0  0  0  0  0  0  0  0  0  0  0
   21.2140   -4.3010   -2.4230 O   0  0  0  0  0  0  0  0  0  0  0  0
   21.2690   -1.3990   -1.5750 C   0  0  0  0  0  0  0  0  0  0  0  0
   21.4440   -1.1930   -3.0770 C   0  0  0  0  0  0  0  0  0  0  0  0
   21.3710   -0.0090   -3.6850 C   0  0  0  0  0  0  0  0  0  0  0  0
   21.5280    0.0290   -5.1950 C   0  0  0  0  0  0  0  0  0  0  0  0
   22.7070    0.8850   -5.6230 C   0  0  0  0  0  0  0  0  0  0  0  0
   22.7580    1.0440   -7.1390 C   0  0  0  0  0  0  0  0  0  0  0  0
   24.1530    0.6500   -7.6190 C   0  0  0  0  0  0  0  0  0  0  0  0
   24.5730    1.3050   -8.9340 C   0  0  0  0  0  0  0  0  0  0  0  0
   23.5780    1.0810  -10.0650 C   0  0  0  0  0  0  0  0  0  0  0  0
   23.5170   -0.3530  -10.5890 C   0  0  0  0  0  0  0  0  0  0  0  0
   22.1070   -0.6360  -11.1030 C   0  0  0  0  0  0  0  0  0  0  0  0
   21.9450   -2.0370  -11.6780 C   0  0  0  0  0  0  0  0  0  0  0  0
   20.5060   -2.2260  -12.1350 C   0  0  0  0  0  0  0  0  0  0  0  0
   20.3030   -3.5660  -12.8230 C   0  0  0  0  0  0  0  0  0  0  0  0
   18.8480   -3.7760  -13.2160 C   0  0  0  0  0  0  0  0  0  0  0  0
   18.6860   -5.0820  -13.9670 C   0  0  0  0  0  0  0  0  0  0  0  0
   20.8950   -0.1900   -0.9040 O   0  0  0  0  0  0  0  0  0  0  0  0
   17.2400   -1.4680   -3.5800 C   0  0  0  0  0  0  0  0  0  0  0  0
   17.7130   -0.7380   -4.8350 C   0  0  0  0  0  0  0  0  0  0  0  0
   16.9510   -1.2540   -6.0510 C   0  0  0  0  0  0  0  0  0  0  0  0
   16.9880   -0.2720   -7.2110 C   0  0  0  0  0  0  0  0  0  0  0  0
   18.3690   -0.2080   -7.8340 C   0  0  0  0  0  0  0  0  0  0  0  0
   18.2690    0.2750   -9.2730 C   0  0  0  0  0  0  0  0  0  0  0  0
   19.2380    1.4180   -9.5230 C   0  0  0  0  0  0  0  0  0  0  0  0
   19.1850    1.8040  -10.9930 C   0  0  0  0  0  0  0  0  0  0  0  0
   19.9970    3.0650  -11.2560 C   0  0  0  0  0  0  0  0  0  0  0  0
   20.0440    3.4090  -12.7470 C   0  0  0  0  0  0  0  0  0  0  0  0
   20.9570    2.4910  -13.5660 C   0  0  0  0  0  0  0  0  0  0  0  0
   22.4220    2.6050  -13.1570 C   0  0  0  0  0  0  0  0  0  0  0  0
   23.3370    1.8050  -14.0760 C   0  0  0  0  0  0  0  0  0  0  0  0
   24.7030    2.4770  -14.1750 C   0  0  0  0  0  0  0  0  0  0  0  0
   25.3200    2.2090  -15.5430 C   0  0  0  0  0  0  0  0  0  0  0  0
   18.9227   -3.1692   -2.8844 H   0  0  0  0  0  0  0  0  0  0  0  0
   19.7173   -2.1236   -0.3331 H   0  0  0  0  0  0  0  0  0  0  0  0
   21.4787   -3.8605   -0.4127 H   0  0  0  0  0  0  0  0  0  0  0  0
   19.8545   -4.5000   -0.8752 H   0  0  0  0  0  0  0  0  0  0  0  0
   21.9505   -4.9404   -2.2533 H   0  0  0  0  0  0  0  0  0  0  0  0
   22.2407   -1.7529   -1.2001 H   0  0  0  0  0  0  0  0  0  0  0  0
   21.6433   -2.0788   -3.6980 H   0  0  0  0  0  0  0  0  0  0  0  0
   21.2020    0.9133   -3.1099 H   0  0  0  0  0  0  0  0  0  0  0  0
   21.6819   -0.9965   -5.5620 H   0  0  0  0  0  0  0  0  0  0  0  0
   20.6150    0.4710   -5.6205 H   0  0  0  0  0  0  0  0  0  0  0  0
   22.6135    1.8793   -5.1618 H   0  0  0  0  0  0  0  0  0  0  0  0
   23.6323    0.3883   -5.2957 H   0  0  0  0  0  0  0  0  0  0  0  0
   22.0062    0.3910   -7.6064 H   0  0  0  0  0  0  0  0  0  0  0  0
   22.5435    2.0865   -7.4168 H   0  0  0  0  0  0  0  0  0  0  0  0
   24.8783    0.9377   -6.8436 H   0  0  0  0  0  0  0  0  0  0  0  0
   24.1294   -0.4347   -7.8004 H   0  0  0  0  0  0  0  0  0  0  0  0
   24.6743    2.3876   -8.7678 H   0  0  0  0  0  0  0  0  0  0  0  0
   25.5225    0.8412   -9.2396 H   0  0  0  0  0  0  0  0  0  0  0  0
   22.5772    1.3549   -9.6998 H   0  0  0  0  0  0  0  0  0  0  0  0
   23.9184    1.7039  -10.9053 H   0  0  0  0  0  0  0  0  0  0  0  0
   24.2400   -0.4770  -11.4087 H   0  0  0  0  0  0  0  0  0  0  0  0
   23.7648   -1.0550   -9.7792 H   0  0  0  0  0  0  0  0  0  0  0  0
   21.4007   -0.5175  -10.2680 H   0  0  0  0  0  0  0  0  0  0  0  0
   21.9086    0.0755  -11.9181 H   0  0  0  0  0  0  0  0  0  0  0  0
   22.6230   -2.1638  -12.5349 H   0  0  0  0  0  0  0  0  0  0  0  0
   22.1897   -2.7835  -10.9080 H   0  0  0  0  0  0  0  0  0  0  0  0
   19.8441   -2.1722  -11.2581 H   0  0  0  0  0  0  0  0  0  0  0  0
   20.2701   -1.4314  -12.8582 H   0  0  0  0  0  0  0  0  0  0  0  0
   20.9265   -3.6010  -13.7285 H   0  0  0  0  0  0  0  0  0  0  0  0
   20.5890   -4.3620  -12.1198 H   0  0  0  0  0  0  0  0  0  0  0  0
   18.2275   -3.8008  -12.3081 H   0  0  0  0  0  0  0  0  0  0  0  0
   18.5319   -2.9483  -13.8680 H   0  0  0  0  0  0  0  0  0  0  0  0
   18.5835   -5.9081  -13.2480 H   0  0  0  0  0  0  0  0  0  0  0  0
   17.7871   -5.0324  -14.5991 H   0  0  0  0  0  0  0  0  0  0  0  0
   19.5697   -5.2535  -14.5991 H   0  0  0  0  0  0  0  0  0  0  0  0
   20.9381   -0.3292    0.0752 H   0  0  0  0  0  0  0  0  0  0  0  0
   17.1195   -2.5390   -3.8000 H   0  0  0  0  0  0  0  0  0  0  0  0
   16.2745   -1.0552   -3.2523 H   0  0  0  0  0  0  0  0  0  0  0  0
   17.5307    0.3407   -4.7205 H   0  0  0  0  0  0  0  0  0  0  0  0
   18.7887   -0.9191   -4.9768 H   0  0  0  0  0  0  0  0  0  0  0  0
   17.4027   -2.2030   -6.3757 H   0  0  0  0  0  0  0  0  0  0  0  0
   15.8997   -1.3908   -5.7577 H   0  0  0  0  0  0  0  0  0  0  0  0
   16.2646   -0.5925   -7.9751 H   0  0  0  0  0  0  0  0  0  0  0  0
   16.7327    0.7273   -6.8286 H   0  0  0  0  0  0  0  0  0  0  0  0
   18.9962    0.4889   -7.2587 H   0  0  0  0  0  0  0  0  0  0  0  0
   18.8179   -1.2121   -7.8207 H   0  0  0  0  0  0  0  0  0  0  0  0
   18.5093   -0.5572   -9.9510 H   0  0  0  0  0  0  0  0  0  0  0  0
   17.2449    0.6323   -9.4563 H   0  0  0  0  0  0  0  0  0  0  0  0
   18.9548    2.2827   -8.9048 H   0  0  0  0  0  0  0  0  0  0  0  0
   20.2584    1.1026   -9.2596 H   0  0  0  0  0  0  0  0  0  0  0  0
   19.5944    0.9802  -11.5961 H   0  0  0  0  0  0  0  0  0  0  0  0
   18.1375    1.9985  -11.2666 H   0  0  0  0  0  0  0  0  0  0  0  0
   19.5391    3.9037  -10.7111 H   0  0  0  0  0  0  0  0  0  0  0  0
   21.0269    2.8868  -10.9131 H   0  0  0  0  0  0  0  0  0  0  0  0
   19.0241    3.3345  -13.1522 H   0  0  0  0  0  0  0  0  0  0  0  0
   20.4567    4.4254  -12.8279 H   0  0  0  0  0  0  0  0  0  0  0  0
   20.6309    1.4503  -13.4222 H   0  0  0  0  0  0  0  0  0  0  0  0
   20.8801    2.7981  -14.6195 H   0  0  0  0  0  0  0  0  0  0  0  0
   22.7194    3.6634  -13.1940 H   0  0  0  0  0  0  0  0  0  0  0  0
   22.5227    2.1977  -12.1401 H   0  0  0  0  0  0  0  0  0  0  0  0
   23.4602    0.7895  -13.6717 H   0  0  0  0  0  0  0  0  0  0  0  0
   22.8867    1.7582  -15.0785 H   0  0  0  0  0  0  0  0  0  0  0  0
   24.5860    3.5617  -14.0347 H   0  0  0  0  0  0  0  0  0  0  0  0
   25.3630    2.0682  -13.3957 H   0  0  0  0  0  0  0  0  0  0  0  0
   26.3220    1.7738  -15.4144 H   0  0  0  0  0  0  0  0  0  0  0  0
   24.6838    1.5061  -16.1009 H   0  0  0  0  0  0  0  0  0  0  0  0
   25.3994    3.1537  -16.1009 H   0  0  0  0  0  0  0  0  0  0  0  0
  1  2  2  0
  2  3  1  0
  2 24  1  0
  3  4  1  0
  4  5  1  0
  4  7  1  0
  5  6  1  0
  7  8  1  0
  7 23  1  0
  8  9  2  0
  9 10  1  0
 10 11  1  0
 11 12  1  0
 12 13  1  0
 13 14  1  0
 14 15  1  0
 15 16  1  0
 16 17  1  0
 17 18  1  0
 18 19  1  0
 19 20  1  0
 20 21  1  0
 21 22  1  0
 24 25  1  0
 25 26  1  0
 26 27  1  0
 27 28  1  0
 28 29  1  0
 29 30  1  0
 30 31  1  0
 31 32  1  0
 32 33  1  0
 33 34  1  0
 34 35  1  0
 35 36  1  0
 36 37  1  0
 37 38  1  0
  3 39  1  0
  4 40  1  0
  5 41  1  0
  5 42  1  0
  6 43  1  0
  7 44  1  0
  8 45  1  0
  9 46  1  0
 10 47  1  0
 10 48  1  0
 11 49  1  0
 11 50  1  0
 12 51  1  0
 12 52  1  0
 13 53  1  0
 13 54  1  0
 14 55  1  0
 14 56  1  0
 15 57  1  0
 15 58  1  0
 16 59  1  0
 16 60  1  0
 17 61  1  0
 17 62  1  0
 18 63  1  0
 18 64  1  0
 19 65  1  0
 19 66  1  0
 20 67  1  0
 20 68  1  0
 21 69  1  0
 21 70  1  0
 22 71  1  0
 22 72  1  0
 22 73  1  0
 23 74  1  0
 24 75  1  0
 24 76  1  0
 25 77  1  0
 25 78  1  0
 26 79  1  0
 26 80  1  0
 27 81  1  0
 27 82  1  0
 28 83  1  0
 28 84  1  0
 29 85  1  0
 29 86  1  0
 30 87  1  0
 30 88  1  0
 31 89  1  0
 31 90  1  0
 32 91  1  0
 32 92  1  0
 33 93  1  0
 33 94  1  0
 34 95  1  0
 34 96  1  0
 35 97  1  0
 35 98  1  0
 36 99  1  0
 36100  1  0
 37101  1  0
 37102  1  0
 38103  1  0
 38104  1  0
 38105  1  0
A    1
O19
A    2
C19
A    3
N2
A    4
C2
A    5
C1
A    6
O1
A    7
C3
A    8
C4
A    9
C5
A   10
C6
A   11
C7
A   12
C8
A   13
C9
A   14
C10
A   15
C11
A   16
C12
A   17
C13
A   18
C14
A   19
C15
A   20
C16
A   21
C17
A   22
C18
A   23
O3
A   24
C20
A   25
C21
A   26
C22
A   27
C23
A   28
C24
A   29
C25
A   30
C26
A   31
C27
A   32
C28
A   33
C29
A   34
C30
A   35
C31
A   36
C32
A   37
C33
A   38
C34
M  END
