2E49_MH6_A_352
     RDKit          3D

 12 11  0  0  0  0  0  0  0  0999 V2000
    6.7390   57.9850   15.6380 N   0  0  0  0  0  0  0  0  0  0  0  0
    7.0570   57.9710   16.9130 C   0  0  0  0  0  0  0  0  0  0  0  0
    7.4400   59.2320   17.6410 C   0  0  0  0  0  0  0  0  0  0  0  0
    6.9310   56.6450   17.6250 C   0  0  0  0  0  0  0  0  0  0  0  0
    5.5140   56.3870   17.7890 O   0  0  0  0  0  0  0  0  0  0  0  0
    7.8360   59.2040   18.8440 O   0  0  0  0  0  0  0  0  0  0  0  0
    7.3540   60.3400   17.0400 O   0  0  0  0  0  0  0  0  0  0  0  0
    6.4804   57.1089   15.1621 H   0  0  0  0  0  0  0  0  0  0  0  0
    7.3934   55.8479   17.0243 H   0  0  0  0  0  0  0  0  0  0  0  0
    7.4413   56.6716   18.5991 H   0  0  0  0  0  0  0  0  0  0  0  0
    5.2953   56.3472   18.7537 H   0  0  0  0  0  0  0  0  0  0  0  0
    7.2887   61.1807   17.5587 H   0  0  0  0  0  0  0  0  0  0  0  0
  1  2  2  3
  2  3  1  0
  2  4  1  0
  3  6  2  0
  3  7  1  0
  4  5  1  0
  1  8  1  0
  4  9  1  0
  4 10  1  0
  5 11  1  0
  7 12  1  0
A    1
N
A    2
CA
A    3
C
A    4
CB
A    5
OG
A    6
O
A    7
OXT
M  END
