2E4Y_52A_A_1001
     RDKit          3D

 22 22  0  0  0  0  0  0  0  0999 V2000
   19.7840    6.9510   53.3510 N   0  0  0  0  0  0  0  0  0  0  0  0
   21.0060    7.7330   53.1790 C   0  0  0  0  0  0  0  0  0  0  0  0
   20.9250    8.4220   51.8130 C   0  0  0  0  0  0  0  0  0  0  0  0
   21.2180    9.6230   51.7080 O   0  0  0  0  0  0  0  0  0  0  0  0
   20.5640    7.7730   50.8130 O   0  0  0  0  0  0  0  0  0  0  0  0
   22.2380    6.8380   53.2580 C   0  0  0  0  0  0  0  0  0  0  0  0
   21.1970    8.7610   54.3100 C   0  0  0  0  0  0  0  0  0  0  0  0
   23.2600    7.7740   53.8690 C   0  0  0  0  0  0  0  0  0  0  0  0
   22.5480    8.5700   54.8480 N   0  0  0  0  0  0  0  0  0  0  0  0
   24.3330    6.9710   54.5490 C   0  0  0  0  0  0  0  0  0  0  0  0
   25.3700    7.5400   54.9160 O   0  0  0  0  0  0  0  0  0  0  0  0
   24.1520    5.7530   54.7400 O   0  0  0  0  0  0  0  0  0  0  0  0
   19.5931    6.8289   54.3558 H   0  0  0  0  0  0  0  0  0  0  0  0
   18.9954    7.4448   52.9093 H   0  0  0  0  0  0  0  0  0  0  0  0
   20.0859    6.9136   50.9268 H   0  0  0  0  0  0  0  0  0  0  0  0
   22.0584    5.9648   53.9024 H   0  0  0  0  0  0  0  0  0  0  0  0
   22.5440    6.4136   52.2904 H   0  0  0  0  0  0  0  0  0  0  0  0
   21.0903    9.7815   53.9134 H   0  0  0  0  0  0  0  0  0  0  0  0
   20.4407    8.6205   55.0963 H   0  0  0  0  0  0  0  0  0  0  0  0
   23.7358    8.4082   53.1065 H   0  0  0  0  0  0  0  0  0  0  0  0
   23.0138    9.4796   54.9765 H   0  0  0  0  0  0  0  0  0  0  0  0
   24.0994    5.3992   55.6631 H   0  0  0  0  0  0  0  0  0  0  0  0
  1  2  1  0
  2  3  1  0
  2  6  1  0
  2  7  1  0
  3  4  2  0
  3  5  1  0
  6  8  1  0
  7  9  1  0
  8  9  1  0
  8 10  1  0
 10 11  2  0
 10 12  1  0
  1 13  1  0
  1 14  1  0
  5 15  1  0
  6 16  1  0
  6 17  1  0
  7 18  1  0
  7 19  1  0
  8 20  1  0
  9 21  1  0
 12 22  1  0
A    1
N
A    2
CA
A    3
C
A    4
O
A    5
OXT
A    6
CB1
A    7
CB2
A    8
CG1
A    9
NG2
A   10
CD
A   11
OE1
A   12
OE2
M  END
