2E99_B08_A_505
     RDKit          3D

 49 51  0  0  0  0  0  0  0  0999 V2000
   42.6190   33.7910   54.9880 C   0  0  0  0  0  0  0  0  0  0  0  0
   42.9660   32.5750   54.4090 C   0  0  0  0  0  0  0  0  0  0  0  0
   43.7130   31.6490   55.1330 C   0  0  0  0  0  0  0  0  0  0  0  0
   44.0990   31.9560   56.4330 C   0  0  0  0  0  0  0  0  0  0  0  0
   43.7490   33.1770   57.0060 C   0  0  0  0  0  0  0  0  0  0  0  0
   43.0060   34.1090   56.2860 C   0  0  0  0  0  0  0  0  0  0  0  0
   42.6420   35.3240   56.8650 C   0  0  0  0  0  0  0  0  0  0  0  0
   41.6060   36.0950   56.3410 C   0  0  0  0  0  0  0  0  0  0  0  0
   43.2980   35.7740   58.0060 C   0  0  0  0  0  0  0  0  0  0  0  0
   42.9180   36.9700   58.6070 C   0  0  0  0  0  0  0  0  0  0  0  0
   41.8830   37.7320   58.0730 C   0  0  0  0  0  0  0  0  0  0  0  0
   41.2220   37.2970   56.9300 C   0  0  0  0  0  0  0  0  0  0  0  0
   40.1830   38.0590   56.3950 C   0  0  0  0  0  0  0  0  0  0  0  0
   40.3040   39.4420   56.2790 C   0  0  0  0  0  0  0  0  0  0  0  0
   39.0610   37.4320   55.8650 C   0  0  0  0  0  0  0  0  0  0  0  0
   38.0800   38.1760   55.2120 C   0  0  0  0  0  0  0  0  0  0  0  0
   38.2130   39.5550   55.0880 C   0  0  0  0  0  0  0  0  0  0  0  0
   39.3280   40.1920   55.6250 C   0  0  0  0  0  0  0  0  0  0  0  0
   39.5280   41.6920   55.3810 C   0  0  0  0  0  0  0  0  0  0  0  0
   38.9660   42.5710   56.5020 C   0  0  0  0  0  0  0  0  0  0  0  0
   39.6910   44.2850   56.3820 P   0  0  0  0  0  0  0  0  0  0  0  0
   41.2880   44.0990   56.4360 O   0  0  0  0  0  0  0  0  0  0  0  0
   39.3830   44.8280   54.8980 O   0  0  0  0  0  0  0  0  0  0  0  0
   39.1530   45.1370   57.4660 O   0  0  0  0  0  0  0  0  0  0  0  0
   37.1090   42.7670   56.4460 P   0  0  0  0  0  0  0  0  0  0  0  0
   36.7220   43.1150   54.9210 O   0  0  0  0  0  0  0  0  0  0  0  0
   36.5210   41.3120   56.8120 O   0  0  0  0  0  0  0  0  0  0  0  0
   36.6180   43.8180   57.3700 O   0  0  0  0  0  0  0  0  0  0  0  0
   39.3840   42.0180   57.7510 O   0  0  0  0  0  0  0  0  0  0  0  0
   42.0273   34.5151   54.4087 H   0  0  0  0  0  0  0  0  0  0  0  0
   42.6509   32.3449   53.3805 H   0  0  0  0  0  0  0  0  0  0  0  0
   43.9943   30.6861   54.6817 H   0  0  0  0  0  0  0  0  0  0  0  0
   44.6855   31.2290   57.0139 H   0  0  0  0  0  0  0  0  0  0  0  0
   44.0621   33.4065   58.0352 H   0  0  0  0  0  0  0  0  0  0  0  0
   41.0791   35.7458   55.4408 H   0  0  0  0  0  0  0  0  0  0  0  0
   44.1202   35.1822   58.4348 H   0  0  0  0  0  0  0  0  0  0  0  0
   43.4398   37.3160   59.5114 H   0  0  0  0  0  0  0  0  0  0  0  0
   41.5887   38.6763   58.5543 H   0  0  0  0  0  0  0  0  0  0  0  0
   41.1807   39.9485   56.7089 H   0  0  0  0  0  0  0  0  0  0  0  0
   38.9469   36.3422   55.9616 H   0  0  0  0  0  0  0  0  0  0  0  0
   37.1972   37.6708   54.7931 H   0  0  0  0  0  0  0  0  0  0  0  0
   37.4401   40.1398   54.5677 H   0  0  0  0  0  0  0  0  0  0  0  0
   40.6063   41.8897   55.2903 H   0  0  0  0  0  0  0  0  0  0  0  0
   38.9796   41.9474   54.4623 H   0  0  0  0  0  0  0  0  0  0  0  0
   38.8954   45.6877   54.9557 H   0  0  0  0  0  0  0  0  0  0  0  0
   39.3980   44.7489   58.3432 H   0  0  0  0  0  0  0  0  0  0  0  0
   36.4800   41.2106   57.7959 H   0  0  0  0  0  0  0  0  0  0  0  0
   36.7549   43.5250   58.3057 H   0  0  0  0  0  0  0  0  0  0  0  0
   38.9885   42.5413   58.4925 H   0  0  0  0  0  0  0  0  0  0  0  0
  1  2  2  0
  1  6  1  0
  2  3  1  0
  3  4  2  0
  4  5  1  0
  5  6  2  0
  6  7  1  0
  7  9  1  0
  7  8  2  0
  8 12  1  0
  9 10  2  0
 10 11  1  0
 11 12  2  0
 12 13  1  0
 13 14  2  0
 13 15  1  0
 14 18  1  0
 15 16  2  0
 16 17  1  0
 17 18  2  0
 18 19  1  0
 19 20  1  0
 20 21  1  0
 20 29  1  0
 20 25  1  0
 21 22  2  0
 21 23  1  0
 21 24  1  0
 25 26  2  0
 25 27  1  0
 25 28  1  0
  1 30  1  0
  2 31  1  0
  3 32  1  0
  4 33  1  0
  5 34  1  0
  8 35  1  0
  9 36  1  0
 10 37  1  0
 11 38  1  0
 14 39  1  0
 15 40  1  0
 16 41  1  0
 17 42  1  0
 19 43  1  0
 19 44  1  0
 23 45  1  0
 24 46  1  0
 27 47  1  0
 28 48  1  0
 29 49  1  0
A    1
CAN
A    2
CAI
A    3
CAH
A    4
CAJ
A    5
CAO
A    6
CAW
A    7
CAY
A    8
CAT
A    9
CAQ
A   10
CAL
A   11
CAR
A   12
CAZ
A   13
CAX
A   14
CAS
A   15
CAP
A   16
CAK
A   17
CAM
A   18
CAV
A   19
CAU
A   20
CBA
A   21
PBB
A   22
OAD
A   23
OAE
A   24
OAA
A   25
PBC
A   26
OAF
A   27
OAG
A   28
OAB
A   29
OAC
M  END
