2E9U_A25_A_1001
     RDKit          3D

 41 43  0  0  0  0  0  0  0  0999 V2000
   -0.7220    8.0620  -18.4090 C   0  0  0  0  0  0  0  0  0  0  0  0
   -2.0890    8.4990  -18.2990 C   0  0  0  0  0  0  0  0  0  0  0  0
   -2.5220    9.6350  -19.0550 C   0  0  0  0  0  0  0  0  0  0  0  0
   -1.5840   10.3100  -19.9000 C   0  0  0  0  0  0  0  0  0  0  0  0
   -0.2530    9.8530  -19.9820 C   0  0  0  0  0  0  0  0  0  0  0  0
    0.1910    8.7380  -19.2490 C   0  0  0  0  0  0  0  0  0  0  0  0
    0.8580   10.6870  -21.0100 Cl  0  0  0  0  0  0  0  0  0  0  0  0
   -3.0670    7.8880  -17.4890 O   0  0  0  0  0  0  0  0  0  0  0  0
   -2.6230    7.1160  -16.3810 C   0  0  0  0  0  0  0  0  0  0  0  0
   -3.8570   10.0630  -18.9460 N   0  0  0  0  0  0  0  0  0  0  0  0
   -4.4910   11.0210  -19.7270 C   0  0  0  0  0  0  0  0  0  0  0  0
   -5.7980   11.2770  -19.4340 N   0  0  0  0  0  0  0  0  0  0  0  0
   -3.9380   11.6280  -20.6380 O   0  0  0  0  0  0  0  0  0  0  0  0
   -6.6400   10.7530  -18.4770 C   0  0  0  0  0  0  0  0  0  0  0  0
   -6.3130    9.5120  -17.9960 N   0  0  0  0  0  0  0  0  0  0  0  0
   -7.1220    8.9440  -17.0440 C   0  0  0  0  0  0  0  0  0  0  0  0
   -8.2790    9.6390  -16.5680 C   0  0  0  0  0  0  0  0  0  0  0  0
   -8.6090   10.8730  -17.0400 N   0  0  0  0  0  0  0  0  0  0  0  0
   -7.7980   11.4260  -17.9880 C   0  0  0  0  0  0  0  0  0  0  0  0
   -6.7120    7.6720  -16.6140 O   0  0  0  0  0  0  0  0  0  0  0  0
   -6.7320    7.3930  -15.2070 C   0  0  0  0  0  0  0  0  0  0  0  0
   -5.4230    7.8650  -14.5490 C   0  0  0  0  0  0  0  0  0  0  0  0
   -3.7500    6.2040  -15.9100 C   0  0  0  0  0  0  0  0  0  0  0  0
   -4.3770    6.7850  -14.6370 C   0  0  0  0  0  0  0  0  0  0  0  0
   -0.3834    7.1895  -17.8310 H   0  0  0  0  0  0  0  0  0  0  0  0
   -1.9019   11.1854  -20.4854 H   0  0  0  0  0  0  0  0  0  0  0  0
    1.2338    8.3972  -19.3285 H   0  0  0  0  0  0  0  0  0  0  0  0
   -1.7594    6.5052  -16.6828 H   0  0  0  0  0  0  0  0  0  0  0  0
   -2.3296    7.7881  -15.5611 H   0  0  0  0  0  0  0  0  0  0  0  0
   -4.4245    9.6195  -18.2096 H   0  0  0  0  0  0  0  0  0  0  0  0
   -6.2342   11.9899  -20.0360 H   0  0  0  0  0  0  0  0  0  0  0  0
   -8.9150    9.1665  -15.8049 H   0  0  0  0  0  0  0  0  0  0  0  0
   -8.0451   12.4209  -18.3869 H   0  0  0  0  0  0  0  0  0  0  0  0
   -7.5804    7.9191  -14.7450 H   0  0  0  0  0  0  0  0  0  0  0  0
   -6.8351    6.3079  -15.0593 H   0  0  0  0  0  0  0  0  0  0  0  0
   -5.0602    8.7651  -15.0668 H   0  0  0  0  0  0  0  0  0  0  0  0
   -5.6155    8.0924  -13.4901 H   0  0  0  0  0  0  0  0  0  0  0  0
   -4.5160    6.1312  -16.6961 H   0  0  0  0  0  0  0  0  0  0  0  0
   -3.3477    5.2025  -15.6974 H   0  0  0  0  0  0  0  0  0  0  0  0
   -3.5270    7.1666  -14.0522 H   0  0  0  0  0  0  0  0  0  0  0  0
   -4.9899    5.9230  -14.3348 H   0  0  0  0  0  0  0  0  0  0  0  0
  1  2  2  0
  1  6  1  0
  2  8  1  0
  2  3  1  0
  3  4  2  0
  3 10  1  0
  4  5  1  0
  5  6  2  0
  5  7  1  0
  8  9  1  0
  9 23  1  0
 10 11  1  0
 11 13  2  0
 11 12  1  0
 12 14  1  0
 14 19  2  0
 14 15  1  0
 15 16  2  0
 16 17  1  0
 16 20  1  0
 17 18  2  0
 18 19  1  0
 20 21  1  0
 21 22  1  0
 22 24  1  0
 23 24  1  0
  1 25  1  0
  4 26  1  0
  6 27  1  0
  9 28  1  0
  9 29  1  0
 10 30  1  0
 12 31  1  0
 17 32  1  0
 19 33  1  0
 21 34  1  0
 21 35  1  0
 22 36  1  0
 22 37  1  0
 23 38  1  0
 23 39  1  0
 24 40  1  0
 24 41  1  0
A    1
C1
A    2
C2
A    3
C3
A    4
C4
A    5
C5
A    6
C6
A    7
CL7
A    8
O8
A    9
C9
A   10
N10
A   11
C11
A   12
N12
A   13
O13
A   14
C14
A   15
N15
A   16
C16
A   17
C17
A   18
N18
A   19
C19
A   20
O20
A   21
C21
A   22
C22
A   23
C23
A   24
C24
M  END
