2EA2_F77_A_482
     RDKit          3D

 39 40  0  0  0  0  0  0  0  0999 V2000
   19.9380   34.1400   16.4480 C   0  0  0  0  0  0  0  0  0  0  0  0
   19.0920   33.5110   15.3240 C   0  0  0  0  0  0  0  0  0  0  0  0
   18.1750   32.4030   15.8190 C   0  0  0  0  0  0  0  0  0  0  0  0
   16.7760   32.6880   16.0440 C   0  0  0  0  0  0  0  0  0  0  0  0
   15.8790   31.6690   16.5100 C   0  0  0  0  0  0  0  0  0  0  0  0
   16.3490   30.3280   16.7710 C   0  0  0  0  0  0  0  0  0  0  0  0
   17.7540   30.0170   16.5550 C   0  0  0  0  0  0  0  0  0  0  0  0
   18.6610   31.0510   16.0750 C   0  0  0  0  0  0  0  0  0  0  0  0
   20.1560   30.7190   15.8360 C   0  0  0  0  0  0  0  0  0  0  0  0
   18.2950   28.6650   16.8110 C   0  0  0  0  0  0  0  0  0  0  0  0
   17.8230   27.6520   16.0710 O   0  0  0  0  0  0  0  0  0  0  0  0
   19.0990   28.4970   17.6750 O   0  0  0  0  0  0  0  0  0  0  0  0
   15.4730   29.3430   17.2220 N   0  0  0  0  0  0  0  0  0  0  0  0
   14.8530   29.1810   18.7260 S   0  0  0  0  0  0  0  0  0  0  0  0
   13.9540   28.0640   18.6920 O   0  0  0  0  0  0  0  0  0  0  0  0
   14.2850   30.4760   19.0650 O   0  0  0  0  0  0  0  0  0  0  0  0
   16.1930   28.8130   19.8010 C   0  0  0  0  0  0  0  0  0  0  0  0
   16.6840   27.4840   19.8840 C   0  0  0  0  0  0  0  0  0  0  0  0
   17.7690   27.1900   20.7450 C   0  0  0  0  0  0  0  0  0  0  0  0
   18.3340   28.2370   21.5030 C   0  0  0  0  0  0  0  0  0  0  0  0
   17.8560   29.5530   21.4310 C   0  0  0  0  0  0  0  0  0  0  0  0
   16.7760   29.8410   20.5710 C   0  0  0  0  0  0  0  0  0  0  0  0
   19.3510   27.9740   22.3150 F   0  0  0  0  0  0  0  0  0  0  0  0
   19.5323   33.8383   17.4249 H   0  0  0  0  0  0  0  0  0  0  0  0
   20.9787   33.7946   16.3607 H   0  0  0  0  0  0  0  0  0  0  0  0
   19.9069   35.2361   16.3607 H   0  0  0  0  0  0  0  0  0  0  0  0
   18.4749   34.2987   14.8671 H   0  0  0  0  0  0  0  0  0  0  0  0
   19.7882   33.0628   14.5999 H   0  0  0  0  0  0  0  0  0  0  0  0
   16.3928   33.7016   15.8552 H   0  0  0  0  0  0  0  0  0  0  0  0
   14.8184   31.9126   16.6707 H   0  0  0  0  0  0  0  0  0  0  0  0
   20.6658   30.6058   16.8041 H   0  0  0  0  0  0  0  0  0  0  0  0
   20.2369   29.7810   15.2671 H   0  0  0  0  0  0  0  0  0  0  0  0
   20.6263   31.5346   15.2671 H   0  0  0  0  0  0  0  0  0  0  0  0
   18.8246   28.5543   18.6245 H   0  0  0  0  0  0  0  0  0  0  0  0
   15.1834   28.6373   16.5299 H   0  0  0  0  0  0  0  0  0  0  0  0
   16.2239   26.6862   19.2824 H   0  0  0  0  0  0  0  0  0  0  0  0
   18.1633   26.1659   20.8213 H   0  0  0  0  0  0  0  0  0  0  0  0
   18.3161   30.3484   22.0357 H   0  0  0  0  0  0  0  0  0  0  0  0
   16.3881   30.8679   20.5007 H   0  0  0  0  0  0  0  0  0  0  0  0
  1  2  1  0
  2  3  1  0
  3  4  2  0
  3  8  1  0
  4  5  1  0
  5  6  2  0
  6  7  1  0
  6 13  1  0
  7  8  2  0
  7 10  1  0
  8  9  1  0
 10 11  2  0
 10 12  1  0
 13 14  1  0
 14 15  2  0
 14 16  2  0
 14 17  1  0
 17 18  2  0
 17 22  1  0
 18 19  1  0
 19 20  2  0
 20 21  1  0
 20 23  1  0
 21 22  2  0
  1 24  1  0
  1 25  1  0
  1 26  1  0
  2 27  1  0
  2 28  1  0
  4 29  1  0
  5 30  1  0
  9 31  1  0
  9 32  1  0
  9 33  1  0
 12 34  1  0
 13 35  1  0
 18 36  1  0
 19 37  1  0
 21 38  1  0
 22 39  1  0
A    1
C1
A    2
C2
A    3
C3
A    4
C4
A    5
C5
A    6
C6
A    7
C7
A    8
C8
A    9
C9
A   10
C10
A   11
O11
A   12
O12
A   13
N13
A   14
S14
A   15
O15
A   16
O16
A   17
C17
A   18
C18
A   19
C19
A   20
C20
A   21
C21
A   22
C22
A   23
F23
M  END
