2EEP_AIO_A_801
     RDKit          3D

 47 47  0  0  0  0  0  0  0  0999 V2000
   -7.2690   43.5860   67.0440 O   0  0  0  0  0  0  0  0  0  0  0  0
   -7.4960   43.4970   65.8620 C   0  0  0  0  0  0  0  0  0  0  0  0
   -7.0760   44.6040   64.9320 C   0  0  0  0  0  0  0  0  0  0  0  0
   -5.5370   44.5690   64.9420 C   0  0  0  0  0  0  0  0  0  0  0  0
   -4.8600   45.6980   64.1670 C   0  0  0  0  0  0  0  0  0  0  0  0
   -5.1740   45.6940   62.7070 C   0  0  0  0  0  0  0  0  0  0  0  0
   -4.9800   43.2060   64.5100 C   0  0  0  0  0  0  0  0  0  0  0  0
   -7.4780   45.8550   65.5150 N   0  0  0  0  0  0  0  0  0  0  0  0
   -8.6960   46.3900   65.3370 C   0  0  0  0  0  0  0  0  0  0  0  0
   -9.6350   45.7640   64.8660 O   0  0  0  0  0  0  0  0  0  0  0  0
   -8.8930   47.8280   65.7670 C   0  0  0  0  0  0  0  0  0  0  0  0
   -9.3030   47.7630   67.2480 C   0  0  0  0  0  0  0  0  0  0  0  0
   -9.9680   48.4590   64.9700 N   0  0  0  0  0  0  0  0  0  0  0  0
   -8.1170   42.4260   65.4310 N   0  0  0  0  0  0  0  0  0  0  0  0
   -8.4860   42.0360   64.0710 C   0  0  0  0  0  0  0  0  0  0  0  0
   -9.2600   40.7240   64.2730 C   0  0  0  0  0  0  0  0  0  0  0  0
   -9.5930   40.6500   65.7550 C   0  0  0  0  0  0  0  0  0  0  0  0
   -8.5390   41.4710   66.4720 C   0  0  0  0  0  0  0  0  0  0  0  0
   -7.2270   40.6280   66.9520 B   0  0  0  0  0  0  0  0  0  0  0  0
   -6.2740   41.1110   68.0600 O   0  0  0  0  0  0  0  0  0  0  0  0
   -6.5120   39.7740   65.9190 O   0  0  0  0  0  0  0  0  0  0  0  0
   -7.5070   44.4943   63.9259 H   0  0  0  0  0  0  0  0  0  0  0  0
   -5.2799   44.7369   65.9983 H   0  0  0  0  0  0  0  0  0  0  0  0
   -5.1906   46.6576   64.5910 H   0  0  0  0  0  0  0  0  0  0  0  0
   -3.7744   45.5493   64.2635 H   0  0  0  0  0  0  0  0  0  0  0  0
   -6.2649   45.6801   62.5666 H   0  0  0  0  0  0  0  0  0  0  0  0
   -4.7556   46.5975   62.2395 H   0  0  0  0  0  0  0  0  0  0  0  0
   -4.7327   44.8014   62.2395 H   0  0  0  0  0  0  0  0  0  0  0  0
   -4.7365   42.6100   65.4019 H   0  0  0  0  0  0  0  0  0  0  0  0
   -5.7335   42.6757   63.9092 H   0  0  0  0  0  0  0  0  0  0  0  0
   -4.0707   43.3552   63.9092 H   0  0  0  0  0  0  0  0  0  0  0  0
   -6.7987   46.3653   66.0973 H   0  0  0  0  0  0  0  0  0  0  0  0
   -7.9814   48.4256   65.6190 H   0  0  0  0  0  0  0  0  0  0  0  0
   -8.4145   47.9039   67.8810 H   0  0  0  0  0  0  0  0  0  0  0  0
  -10.0345   48.5564   67.4611 H   0  0  0  0  0  0  0  0  0  0  0  0
   -9.7533   46.7823   67.4611 H   0  0  0  0  0  0  0  0  0  0  0  0
  -10.6686   48.8702   65.6032 H   0  0  0  0  0  0  0  0  0  0  0  0
   -9.5662   49.1983   64.3760 H   0  0  0  0  0  0  0  0  0  0  0  0
   -9.1229   42.8003   63.6017 H   0  0  0  0  0  0  0  0  0  0  0  0
   -7.6168   41.9233   63.4063 H   0  0  0  0  0  0  0  0  0  0  0  0
  -10.1831   40.7302   63.6749 H   0  0  0  0  0  0  0  0  0  0  0  0
   -8.6660   39.8554   63.9524 H   0  0  0  0  0  0  0  0  0  0  0  0
  -10.5931   41.0683   65.9416 H   0  0  0  0  0  0  0  0  0  0  0  0
   -9.5983   39.6092   66.1111 H   0  0  0  0  0  0  0  0  0  0  0  0
   -8.9521   41.9000   67.3969 H   0  0  0  0  0  0  0  0  0  0  0  0
   -6.6690   40.9108   68.9454 H   0  0  0  0  0  0  0  0  0  0  0  0
   -5.9492   39.1018   66.3790 H   0  0  0  0  0  0  0  0  0  0  0  0
  1  2  2  0
  2  3  1  0
  2 14  1  0
  3  4  1  0
  3  8  1  0
  4  5  1  0
  4  7  1  0
  5  6  1  0
  8  9  1  0
  9 10  2  0
  9 11  1  0
 11 13  1  0
 11 12  1  0
 14 15  1  0
 14 18  1  0
 15 16  1  0
 16 17  1  0
 17 18  1  0
 18 19  1  0
 19 21  1  0
 19 20  1  0
  3 22  1  0
  4 23  1  0
  5 24  1  0
  5 25  1  0
  6 26  1  0
  6 27  1  0
  6 28  1  0
  7 29  1  0
  7 30  1  0
  7 31  1  0
  8 32  1  0
 11 33  1  0
 12 34  1  0
 12 35  1  0
 12 36  1  0
 13 37  1  0
 13 38  1  0
 15 39  1  0
 15 40  1  0
 16 41  1  0
 16 42  1  0
 17 43  1  0
 17 44  1  0
 18 45  1  0
 20 46  1  0
 21 47  1  0
A    1
O2
A    2
C9
A    3
C4
A    4
C5
A    5
C7
A    6
C8
A    7
C6
A    8
N2
A    9
C3
A   10
O1
A   11
C1
A   12
C2
A   13
N1
A   14
N3
A   15
C13
A   16
C12
A   17
C11
A   18
C10
A   19
B
A   20
O4
A   21
O3
M  END
