1NIV_MDM_A_110
     RDKit          3D

 27 27  0  0  0  0  0  0  0  0999 V2000
  139.6080   55.0070  136.3900 C   0  0  0  0  0  0  0  0  0  0  0  0
  139.4730   53.9480  135.2830 C   0  0  0  0  0  0  0  0  0  0  0  0
  138.3580   54.3450  134.3150 C   0  0  0  0  0  0  0  0  0  0  0  0
  137.0670   54.5440  135.0950 C   0  0  0  0  0  0  0  0  0  0  0  0
  137.2900   55.6310  136.1490 C   0  0  0  0  0  0  0  0  0  0  0  0
  136.0590   55.9180  136.9950 C   0  0  0  0  0  0  0  0  0  0  0  0
  140.5030   57.2270  136.7760 C   0  0  0  0  0  0  0  0  0  0  0  0
  140.0470   56.2140  135.8520 O   0  0  0  0  0  0  0  0  0  0  0  0
  139.1700   52.6920  135.8710 O   0  0  0  0  0  0  0  0  0  0  0  0
  138.1730   53.3420  133.3310 O   0  0  0  0  0  0  0  0  0  0  0  0
  136.0210   54.9150  134.2080 O   0  0  0  0  0  0  0  0  0  0  0  0
  138.3460   55.2270  137.0530 O   0  0  0  0  0  0  0  0  0  0  0  0
  136.4150   56.3540  138.3000 O   0  0  0  0  0  0  0  0  0  0  0  0
  140.3400   54.6331  137.1210 H   0  0  0  0  0  0  0  0  0  0  0  0
  140.4201   53.8777  134.7280 H   0  0  0  0  0  0  0  0  0  0  0  0
  138.6376   55.2812  133.8098 H   0  0  0  0  0  0  0  0  0  0  0  0
  136.7794   53.6072  135.5946 H   0  0  0  0  0  0  0  0  0  0  0  0
  137.5467   56.5423  135.5890 H   0  0  0  0  0  0  0  0  0  0  0  0
  135.4639   56.7031  136.5056 H   0  0  0  0  0  0  0  0  0  0  0  0
  135.4789   54.9880  137.0877 H   0  0  0  0  0  0  0  0  0  0  0  0
  140.3465   56.8793  137.8078 H   0  0  0  0  0  0  0  0  0  0  0  0
  141.5738   57.4178  136.6118 H   0  0  0  0  0  0  0  0  0  0  0  0
  139.9358   58.1551  136.6118 H   0  0  0  0  0  0  0  0  0  0  0  0
  139.1902   52.7759  136.8572 H   0  0  0  0  0  0  0  0  0  0  0  0
  138.0124   52.4711  133.7736 H   0  0  0  0  0  0  0  0  0  0  0  0
  135.2288   55.1960  134.7311 H   0  0  0  0  0  0  0  0  0  0  0  0
  135.9556   55.7914  138.9727 H   0  0  0  0  0  0  0  0  0  0  0  0
  1  2  1  0
  1  8  1  0
  1 12  1  0
  2  3  1  0
  2  9  1  0
  3  4  1  0
  3 10  1  0
  4  5  1  0
  4 11  1  0
  5  6  1  0
  5 12  1  0
  6 13  1  0
  7  8  1  0
  1 14  1  0
  2 15  1  0
  3 16  1  0
  4 17  1  0
  5 18  1  0
  6 19  1  0
  6 20  1  0
  7 21  1  0
  7 22  1  0
  7 23  1  0
  9 24  1  0
 10 25  1  0
 11 26  1  0
 13 27  1  0
A    1
C1'
A    2
C2'
A    3
C3'
A    4
C4'
A    5
C5'
A    6
C6'
A    7
C7'
A    8
O1'
A    9
O2'
A   10
O3'
A   11
O4'
A   12
O5'
A   13
O6'
M  END
