2EI6_D92_A_700
     RDKit          3D

 58 62  0  0  0  0  0  0  0  0999 V2000
   14.0770    7.7180   26.5680 Cl  0  0  0  0  0  0  0  0  0  0  0  0
   12.3270    7.8370   26.5040 C   0  0  0  0  0  0  0  0  0  0  0  0
   11.6240    7.5030   27.6670 C   0  0  0  0  0  0  0  0  0  0  0  0
   10.2400    7.5420   27.7080 C   0  0  0  0  0  0  0  0  0  0  0  0
    9.5830    7.9160   26.5340 C   0  0  0  0  0  0  0  0  0  0  0  0
    8.2360    8.0270   26.3520 N   0  0  0  0  0  0  0  0  0  0  0  0
   11.7000    8.2250   25.3240 C   0  0  0  0  0  0  0  0  0  0  0  0
   10.2930    8.2640   25.3350 C   0  0  0  0  0  0  0  0  0  0  0  0
    9.3760    8.5820   24.3380 C   0  0  0  0  0  0  0  0  0  0  0  0
    8.1160    8.4280   24.9900 C   0  0  0  0  0  0  0  0  0  0  0  0
    6.7270    8.7670   24.4790 C   0  0  0  0  0  0  0  0  0  0  0  0
    5.7740    8.6560   25.2400 O   0  0  0  0  0  0  0  0  0  0  0  0
    6.5760    9.1670   23.2220 N   0  0  0  0  0  0  0  0  0  0  0  0
    5.2150    9.1900   22.6150 C   0  0  0  0  0  0  0  0  0  0  0  0
    5.3070    9.8700   21.2070 C   0  0  0  0  0  0  0  0  0  0  0  0
    4.2090    9.4060   20.2050 C   0  0  0  0  0  0  0  0  0  0  0  0
    2.9310    8.9470   20.9560 C   0  0  0  0  0  0  0  0  0  0  0  0
    3.1650    7.7310   21.9360 C   0  0  0  0  0  0  0  0  0  0  0  0
    4.6070    7.7120   22.5180 C   0  0  0  0  0  0  0  0  0  0  0  0
    5.3980    6.7500   21.7000 N   0  0  0  0  0  0  0  0  0  0  0  0
    5.4950    5.4190   21.8810 C   0  0  0  0  0  0  0  0  0  0  0  0
    4.9370    4.8300   22.7780 O   0  0  0  0  0  0  0  0  0  0  0  0
    6.3900    4.6510   20.9340 C   0  0  0  0  0  0  0  0  0  0  0  0
    6.5400    2.9290   21.0340 S   0  0  0  0  0  0  0  0  0  0  0  0
    7.6460    3.0170   19.7250 C   0  0  0  0  0  0  0  0  0  0  0  0
    8.3200    1.7890   19.1180 C   0  0  0  0  0  0  0  0  0  0  0  0
    8.9010    2.0930   17.7690 N   0  0  0  0  0  0  0  0  0  0  0  0
    9.7450    1.0050   17.2170 C   0  0  0  0  0  0  0  0  0  0  0  0
    9.5740    3.4330   17.5840 C   0  0  0  0  0  0  0  0  0  0  0  0
    8.8020    4.6480   18.1630 C   0  0  0  0  0  0  0  0  0  0  0  0
    7.8530    4.3070   19.3040 C   0  0  0  0  0  0  0  0  0  0  0  0
    7.1460    5.2510   19.9800 N   0  0  0  0  0  0  0  0  0  0  0  0
   12.1817    7.2035   28.5666 H   0  0  0  0  0  0  0  0  0  0  0  0
    9.6841    7.2900   28.6232 H   0  0  0  0  0  0  0  0  0  0  0  0
    7.4843    7.8606   27.0362 H   0  0  0  0  0  0  0  0  0  0  0  0
   12.2766    8.4888   24.4251 H   0  0  0  0  0  0  0  0  0  0  0  0
    9.5745    8.8802   23.2980 H   0  0  0  0  0  0  0  0  0  0  0  0
    7.3946    9.4597   22.6696 H   0  0  0  0  0  0  0  0  0  0  0  0
    4.5322    9.7716   23.2518 H   0  0  0  0  0  0  0  0  0  0  0  0
    5.2145   10.9578   21.3418 H   0  0  0  0  0  0  0  0  0  0  0  0
    6.2753    9.5768   20.7753 H   0  0  0  0  0  0  0  0  0  0  0  0
    3.9537   10.2426   19.5380 H   0  0  0  0  0  0  0  0  0  0  0  0
    4.5994    8.5568   19.6249 H   0  0  0  0  0  0  0  0  0  0  0  0
    2.5506    9.7961   21.5428 H   0  0  0  0  0  0  0  0  0  0  0  0
    2.2168    8.6073   20.1915 H   0  0  0  0  0  0  0  0  0  0  0  0
    2.4487    7.8038   22.7676 H   0  0  0  0  0  0  0  0  0  0  0  0
    3.0211    6.8035   21.3623 H   0  0  0  0  0  0  0  0  0  0  0  0
    4.6271    7.3619   23.5606 H   0  0  0  0  0  0  0  0  0  0  0  0
    5.9280    7.1459   20.9106 H   0  0  0  0  0  0  0  0  0  0  0  0
    9.1263    1.4558   19.7879 H   0  0  0  0  0  0  0  0  0  0  0  0
    7.5610    1.0019   18.9981 H   0  0  0  0  0  0  0  0  0  0  0  0
   10.1901    0.4312   18.0432 H   0  0  0  0  0  0  0  0  0  0  0  0
    9.1257    0.3380   16.5993 H   0  0  0  0  0  0  0  0  0  0  0  0
   10.5450    1.4390   16.5993 H   0  0  0  0  0  0  0  0  0  0  0  0
   10.5575    3.3900   18.0748 H   0  0  0  0  0  0  0  0  0  0  0  0
    9.6304    3.5978   16.4979 H   0  0  0  0  0  0  0  0  0  0  0  0
    9.5372    5.3773   18.5338 H   0  0  0  0  0  0  0  0  0  0  0  0
    8.1801    5.0421   17.3457 H   0  0  0  0  0  0  0  0  0  0  0  0
  1  2  1  0
  2  7  2  0
  2  3  1  0
  3  4  2  0
  4  5  1  0
  5  8  2  0
  5  6  1  0
  6 10  1  0
  7  8  1  0
  8  9  1  0
  9 10  2  0
 10 11  1  0
 11 13  1  0
 11 12  2  0
 13 14  1  0
 14 15  1  0
 14 19  1  0
 15 16  1  0
 16 17  1  0
 17 18  1  0
 18 19  1  0
 19 20  1  0
 20 21  1  0
 21 23  1  0
 21 22  2  0
 23 32  2  0
 23 24  1  0
 24 25  1  0
 25 26  1  0
 25 31  2  0
 26 27  1  0
 27 28  1  0
 27 29  1  0
 29 30  1  0
 30 31  1  0
 31 32  1  0
  3 33  1  0
  4 34  1  0
  6 35  1  0
  7 36  1  0
  9 37  1  0
 13 38  1  0
 14 39  1  0
 15 40  1  0
 15 41  1  0
 16 42  1  0
 16 43  1  0
 17 44  1  0
 17 45  1  0
 18 46  1  0
 18 47  1  0
 19 48  1  0
 20 49  1  0
 26 50  1  0
 26 51  1  0
 28 52  1  0
 28 53  1  0
 28 54  1  0
 29 55  1  0
 29 56  1  0
 30 57  1  0
 30 58  1  0
A    1
CL1
A    2
C16
A    3
C17
A    4
C18
A    5
C12
A    6
N11
A    7
C15
A    8
C13
A    9
C14
A   10
C10
A   11
C9
A   12
O19
A   13
N7
A   14
C1
A   15
C6
A   16
C5
A   17
C4
A   18
C3
A   19
C2
A   20
N8
A   21
C20
A   22
O31
A   23
C21
A   24
S25
A   25
C24
A   26
C26
A   27
N27
A   28
C30
A   29
C28
A   30
C29
A   31
C23
A   32
N22
M  END
