1PWU_GM6_A_1001
     RDKit          3D

 56 57  0  0  0  0  0  0  0  0999 V2000
   83.0400   40.3340  139.6050 O   0  0  0  0  0  0  0  0  0  0  0  0
   82.8470   39.7140  138.4090 N   0  0  0  0  0  0  0  0  0  0  0  0
   83.4510   38.5590  138.1410 C   0  0  0  0  0  0  0  0  0  0  0  0
   84.2060   37.9780  138.9180 O   0  0  0  0  0  0  0  0  0  0  0  0
   83.1440   37.9800  136.7580 C   0  0  0  0  0  0  0  0  0  0  0  0
   83.0880   36.4500  136.7520 C   0  0  0  0  0  0  0  0  0  0  0  0
   82.9290   35.9770  135.3050 C   0  0  0  0  0  0  0  0  0  0  0  0
   81.9300   36.2720  134.6480 O   0  0  0  0  0  0  0  0  0  0  0  0
   83.9380   35.2420  134.8450 N   0  0  0  0  0  0  0  0  0  0  0  0
   84.0040   34.7120  133.4740 C   0  0  0  0  0  0  0  0  0  0  0  0
   82.8580   33.7340  133.1990 C   0  0  0  0  0  0  0  0  0  0  0  0
   82.7720   32.6730  133.8090 O   0  0  0  0  0  0  0  0  0  0  0  0
   81.9870   34.1380  132.2750 N   0  0  0  0  0  0  0  0  0  0  0  0
   82.2120   33.6980  130.8910 C   0  0  0  0  0  0  0  0  0  0  0  0
   85.3460   34.0060  133.2670 C   0  0  0  0  0  0  0  0  0  0  0  0
   86.5130   34.9570  133.5530 C   0  0  0  0  0  0  0  0  0  0  0  0
   87.2120   35.0510  134.6840 C   0  0  0  0  0  0  0  0  0  0  0  0
   88.1280   36.0140  134.5890 N   0  0  0  0  0  0  0  0  0  0  0  0
   88.0720   36.5930  133.3890 C   0  0  0  0  0  0  0  0  0  0  0  0
   88.7810   37.6230  132.7800 C   0  0  0  0  0  0  0  0  0  0  0  0
   88.4640   37.9950  131.4760 C   0  0  0  0  0  0  0  0  0  0  0  0
   87.4440   37.3330  130.7970 C   0  0  0  0  0  0  0  0  0  0  0  0
   86.7420   36.3060  131.4170 C   0  0  0  0  0  0  0  0  0  0  0  0
   87.0520   35.9260  132.7260 C   0  0  0  0  0  0  0  0  0  0  0  0
   81.9410   35.9560  137.6390 C   0  0  0  0  0  0  0  0  0  0  0  0
   82.0860   34.4710  137.9870 C   0  0  0  0  0  0  0  0  0  0  0  0
   81.7850   33.5750  136.7830 C   0  0  0  0  0  0  0  0  0  0  0  0
   81.1490   34.1110  139.1410 C   0  0  0  0  0  0  0  0  0  0  0  0
   82.8430   39.7011  140.3404 H   0  0  0  0  0  0  0  0  0  0  0  0
   82.2284   40.1422  137.7056 H   0  0  0  0  0  0  0  0  0  0  0  0
   82.1708   38.3682  136.4230 H   0  0  0  0  0  0  0  0  0  0  0  0
   83.9593   38.2832  136.0846 H   0  0  0  0  0  0  0  0  0  0  0  0
   84.0176   36.0311  137.1648 H   0  0  0  0  0  0  0  0  0  0  0  0
   84.7173   35.0320  135.4850 H   0  0  0  0  0  0  0  0  0  0  0  0
   83.9088   35.5536  132.7721 H   0  0  0  0  0  0  0  0  0  0  0  0
   81.1858   34.7364  132.5216 H   0  0  0  0  0  0  0  0  0  0  0  0
   82.7128   32.7186  130.8944 H   0  0  0  0  0  0  0  0  0  0  0  0
   81.2461   33.6141  130.3713 H   0  0  0  0  0  0  0  0  0  0  0  0
   82.8455   34.4319  130.3713 H   0  0  0  0  0  0  0  0  0  0  0  0
   85.4085   33.1441  133.9476 H   0  0  0  0  0  0  0  0  0  0  0  0
   85.4111   33.6740  132.2203 H   0  0  0  0  0  0  0  0  0  0  0  0
   87.0546   34.4213  135.5721 H   0  0  0  0  0  0  0  0  0  0  0  0
   88.7865   36.2745  135.3370 H   0  0  0  0  0  0  0  0  0  0  0  0
   89.5856   38.1395  133.3239 H   0  0  0  0  0  0  0  0  0  0  0  0
   89.0172   38.8087  130.9841 H   0  0  0  0  0  0  0  0  0  0  0  0
   87.1930   37.6240  129.7663 H   0  0  0  0  0  0  0  0  0  0  0  0
   85.9372   35.7889  130.8740 H   0  0  0  0  0  0  0  0  0  0  0  0
   81.9350   36.5406  138.5708 H   0  0  0  0  0  0  0  0  0  0  0  0
   81.0006   36.0854  137.0833 H   0  0  0  0  0  0  0  0  0  0  0  0
   83.1304   34.2994  138.2865 H   0  0  0  0  0  0  0  0  0  0  0  0
   81.4531   32.5871  137.1350 H   0  0  0  0  0  0  0  0  0  0  0  0
   80.9914   34.0330  136.1744 H   0  0  0  0  0  0  0  0  0  0  0  0
   82.6942   33.4610  136.1744 H   0  0  0  0  0  0  0  0  0  0  0  0
   81.6548   34.3053  140.0983 H   0  0  0  0  0  0  0  0  0  0  0  0
   80.2370   34.7228  139.0773 H   0  0  0  0  0  0  0  0  0  0  0  0
   80.8813   33.0460  139.0773 H   0  0  0  0  0  0  0  0  0  0  0  0
  1  2  1  0
  2  3  1  0
  3  4  2  0
  3  5  1  0
  5  6  1  0
  6  7  1  0
  6 25  1  0
  7  8  2  0
  7  9  1  0
  9 10  1  0
 10 11  1  0
 10 15  1  0
 11 12  2  0
 11 13  1  0
 13 14  1  0
 15 16  1  0
 16 17  2  0
 16 24  1  0
 17 18  1  0
 18 19  1  0
 19 20  1  0
 19 24  2  0
 20 21  2  0
 21 22  1  0
 22 23  2  0
 23 24  1  0
 25 26  1  0
 26 27  1  0
 26 28  1  0
  1 29  1  0
  2 30  1  0
  5 31  1  0
  5 32  1  0
  6 33  1  0
  9 34  1  0
 10 35  1  0
 13 36  1  0
 14 37  1  0
 14 38  1  0
 14 39  1  0
 15 40  1  0
 15 41  1  0
 17 42  1  0
 18 43  1  0
 20 44  1  0
 21 45  1  0
 22 46  1  0
 23 47  1  0
 25 48  1  0
 25 49  1  0
 26 50  1  0
 27 51  1  0
 27 52  1  0
 27 53  1  0
 28 54  1  0
 28 55  1  0
 28 56  1  0
A    1
OAG
A    2
NAF
A    3
CAD
A    4
OAE
A    5
CAC
A    6
CAB
A    7
CAK
A    8
OAL
A    9
NAM
A   10
CAN
A   11
CAY
A   12
OAZ
A   13
NBB
A   14
CBA
A   15
CAO
A   16
CAP
A   17
CAT
A   18
NAU
A   19
CAR
A   20
CAV
A   21
CAX
A   22
CAW
A   23
CAS
A   24
CAQ
A   25
CAA
A   26
CAH
A   27
CAJ
A   28
CAI
M  END
