1Q8W_M77_A_960
     RDKit          3D

 37 39  0  0  0  0  0  0  0  0999 V2000
   26.9940   26.9540    9.2830 O   0  0  0  0  0  0  0  0  0  0  0  0
   27.1860   25.7920    8.4080 S   0  0  0  0  0  0  0  0  0  0  0  0
   27.9860   26.0500    7.2280 O   0  0  0  0  0  0  0  0  0  0  0  0
   27.9080   24.6030    9.2490 N   0  0  0  0  0  0  0  0  0  0  0  0
   27.4130   24.2840   10.6350 C   0  0  0  0  0  0  0  0  0  0  0  0
   28.4790   24.0170   11.7230 C   0  0  0  0  0  0  0  0  0  0  0  0
   29.7220   24.8500   11.4750 N   0  0  0  0  0  0  0  0  0  0  0  0
   30.6460   24.1750   10.4640 C   0  0  0  0  0  0  0  0  0  0  0  0
   30.3290   24.5740    9.0120 C   0  0  0  0  0  0  0  0  0  0  0  0
   29.0210   23.8900    8.5770 C   0  0  0  0  0  0  0  0  0  0  0  0
   25.7240   24.8810    7.9650 C   0  0  0  0  0  0  0  0  0  0  0  0
   25.7800   23.4940    7.8520 C   0  0  0  0  0  0  0  0  0  0  0  0
   24.6130   22.7330    7.5170 C   0  0  0  0  0  0  0  0  0  0  0  0
   23.3990   23.3610    7.3210 C   0  0  0  0  0  0  0  0  0  0  0  0
   23.3330   24.7720    7.4130 C   0  0  0  0  0  0  0  0  0  0  0  0
   24.4820   25.5390    7.7340 C   0  0  0  0  0  0  0  0  0  0  0  0
   24.3120   26.9510    7.8040 C   0  0  0  0  0  0  0  0  0  0  0  0
   22.1280   25.4500    7.1710 C   0  0  0  0  0  0  0  0  0  0  0  0
   21.9990   26.7680    7.2870 N   0  0  0  0  0  0  0  0  0  0  0  0
   23.0920   27.5280    7.5800 C   0  0  0  0  0  0  0  0  0  0  0  0
   26.8023   25.1345   10.9720 H   0  0  0  0  0  0  0  0  0  0  0  0
   26.8710   23.3326   10.5301 H   0  0  0  0  0  0  0  0  0  0  0  0
   28.0621   24.2756   12.7075 H   0  0  0  0  0  0  0  0  0  0  0  0
   28.7557   22.9528   11.6919 H   0  0  0  0  0  0  0  0  0  0  0  0
   29.4416   25.7718   11.1108 H   0  0  0  0  0  0  0  0  0  0  0  0
   31.6838   24.4618   10.6893 H   0  0  0  0  0  0  0  0  0  0  0  0
   30.4966   23.0886   10.5505 H   0  0  0  0  0  0  0  0  0  0  0  0
   30.2132   25.6659    8.9468 H   0  0  0  0  0  0  0  0  0  0  0  0
   31.1504   24.2573    8.3525 H   0  0  0  0  0  0  0  0  0  0  0  0
   29.0294   22.8329    8.8812 H   0  0  0  0  0  0  0  0  0  0  0  0
   28.9054   23.9285    7.4838 H   0  0  0  0  0  0  0  0  0  0  0  0
   26.7346   22.9748    8.0225 H   0  0  0  0  0  0  0  0  0  0  0  0
   24.6848   21.6401    7.4152 H   0  0  0  0  0  0  0  0  0  0  0  0
   22.4965   22.7735    7.0967 H   0  0  0  0  0  0  0  0  0  0  0  0
   25.1762   27.5886    8.0422 H   0  0  0  0  0  0  0  0  0  0  0  0
   21.2479   24.8623    6.8709 H   0  0  0  0  0  0  0  0  0  0  0  0
   22.9915   28.6219    7.6372 H   0  0  0  0  0  0  0  0  0  0  0  0
  1  2  2  0
  2  3  2  0
  2  4  1  0
  2 11  1  0
  4  5  1  0
  4 10  1  0
  5  6  1  0
  6  7  1  0
  7  8  1  0
  8  9  1  0
  9 10  1  0
 11 12  2  0
 11 16  1  0
 12 13  1  0
 13 14  2  0
 14 15  1  0
 15 16  2  0
 15 18  1  0
 16 17  1  0
 17 20  2  0
 18 19  2  0
 19 20  1  0
  5 21  1  0
  5 22  1  0
  6 23  1  0
  6 24  1  0
  7 25  1  0
  8 26  1  0
  8 27  1  0
  9 28  1  0
  9 29  1  0
 10 30  1  0
 10 31  1  0
 12 32  1  0
 13 33  1  0
 14 34  1  0
 17 35  1  0
 18 36  1  0
 20 37  1  0
A    1
O1
A    2
S1
A    3
O2
A    4
N4
A    5
C22
A    6
C21
A    7
N17
A    8
C16
A    9
C20
A   10
C15
A   11
C5
A   12
C6
A   13
C7
A   14
C8
A   15
C9
A   16
C10
A   17
C11
A   18
C14
A   19
N13
A   20
C12
M  END
