2EUF_LQQ_B_401
     RDKit          3D

 62 66  0  0  0  0  0  0  0  0999 V2000
   32.4090   28.5440   60.1410 O   0  0  0  0  0  0  0  0  0  0  0  0
   33.0080   27.5190   59.9010 C   0  0  0  0  0  0  0  0  0  0  0  0
   34.3120   27.5070   59.1620 C   0  0  0  0  0  0  0  0  0  0  0  0
   32.4150   26.2120   60.3390 C   0  0  0  0  0  0  0  0  0  0  0  0
   32.6480   25.6900   61.6150 C   0  0  0  0  0  0  0  0  0  0  0  0
   33.4290   26.4260   62.6690 C   0  0  0  0  0  0  0  0  0  0  0  0
   31.9290   24.4600   62.0050 C   0  0  0  0  0  0  0  0  0  0  0  0
   32.1990   23.7830   63.2720 C   0  0  0  0  0  0  0  0  0  0  0  0
   31.5880   22.6260   63.5420 N   0  0  0  0  0  0  0  0  0  0  0  0
   30.8720   21.9680   62.6070 C   0  0  0  0  0  0  0  0  0  0  0  0
   30.7030   22.5010   61.3540 N   0  0  0  0  0  0  0  0  0  0  0  0
   31.2660   23.6800   60.9670 C   0  0  0  0  0  0  0  0  0  0  0  0
   31.0700   24.2300   59.7410 N   0  0  0  0  0  0  0  0  0  0  0  0
   30.2950   23.4750   58.7390 C   0  0  0  0  0  0  0  0  0  0  0  0
   29.2130   24.2680   58.0150 C   0  0  0  0  0  0  0  0  0  0  0  0
   29.2870   23.8720   56.5360 C   0  0  0  0  0  0  0  0  0  0  0  0
   30.5060   22.9550   56.3320 C   0  0  0  0  0  0  0  0  0  0  0  0
   31.2520   22.9450   57.6650 C   0  0  0  0  0  0  0  0  0  0  0  0
   31.6630   25.4930   59.4060 C   0  0  0  0  0  0  0  0  0  0  0  0
   31.5220   26.0010   58.2620 O   0  0  0  0  0  0  0  0  0  0  0  0
   30.3500   20.7760   63.0170 N   0  0  0  0  0  0  0  0  0  0  0  0
   29.6660   19.8610   62.2880 C   0  0  0  0  0  0  0  0  0  0  0  0
   29.5140   18.6170   62.8010 N   0  0  0  0  0  0  0  0  0  0  0  0
   28.8440   17.6710   62.1330 C   0  0  0  0  0  0  0  0  0  0  0  0
   28.2800   17.9460   60.8870 C   0  0  0  0  0  0  0  0  0  0  0  0
   28.4240   19.2200   60.3470 C   0  0  0  0  0  0  0  0  0  0  0  0
   29.1170   20.1840   61.0520 C   0  0  0  0  0  0  0  0  0  0  0  0
   27.5710   16.9530   60.1740 N   0  0  0  0  0  0  0  0  0  0  0  0
   28.4660   15.8000   59.9060 C   0  0  0  0  0  0  0  0  0  0  0  0
   27.7120   14.6830   59.1890 C   0  0  0  0  0  0  0  0  0  0  0  0
   27.0440   15.1960   58.0030 N   0  0  0  0  0  0  0  0  0  0  0  0
   26.3410   16.4760   58.0250 C   0  0  0  0  0  0  0  0  0  0  0  0
   26.9860   17.5260   58.9330 C   0  0  0  0  0  0  0  0  0  0  0  0
   35.1423   27.4994   59.8835 H   0  0  0  0  0  0  0  0  0  0  0  0
   34.3671   26.6083   58.5301 H   0  0  0  0  0  0  0  0  0  0  0  0
   34.3836   28.4045   58.5301 H   0  0  0  0  0  0  0  0  0  0  0  0
   33.0905   26.1070   63.6658 H   0  0  0  0  0  0  0  0  0  0  0  0
   34.4998   26.2010   62.5560 H   0  0  0  0  0  0  0  0  0  0  0  0
   33.2678   27.5082   62.5560 H   0  0  0  0  0  0  0  0  0  0  0  0
   32.8996   24.2226   63.9973 H   0  0  0  0  0  0  0  0  0  0  0  0
   29.7879   22.6838   59.3107 H   0  0  0  0  0  0  0  0  0  0  0  0
   28.2230   24.0187   58.4245 H   0  0  0  0  0  0  0  0  0  0  0  0
   29.3658   25.3500   58.1416 H   0  0  0  0  0  0  0  0  0  0  0  0
   28.3694   23.3374   56.2494 H   0  0  0  0  0  0  0  0  0  0  0  0
   29.3858   24.7719   55.9112 H   0  0  0  0  0  0  0  0  0  0  0  0
   30.1797   21.9380   56.0688 H   0  0  0  0  0  0  0  0  0  0  0  0
   31.1476   23.3132   55.5135 H   0  0  0  0  0  0  0  0  0  0  0  0
   32.1397   23.5915   57.6023 H   0  0  0  0  0  0  0  0  0  0  0  0
   31.5833   21.9259   57.9133 H   0  0  0  0  0  0  0  0  0  0  0  0
   30.4946   20.5411   64.0094 H   0  0  0  0  0  0  0  0  0  0  0  0
   28.7369   16.6673   62.5702 H   0  0  0  0  0  0  0  0  0  0  0  0
   27.9888   19.4577   59.3651 H   0  0  0  0  0  0  0  0  0  0  0  0
   29.2336   21.1972   60.6400 H   0  0  0  0  0  0  0  0  0  0  0  0
   29.3033   16.1326   59.2749 H   0  0  0  0  0  0  0  0  0  0  0  0
   28.8395   15.4134   60.8657 H   0  0  0  0  0  0  0  0  0  0  0  0
   28.4240   13.8988   58.8922 H   0  0  0  0  0  0  0  0  0  0  0  0
   26.9549   14.2706   59.8722 H   0  0  0  0  0  0  0  0  0  0  0  0
   27.7651   15.2714   57.2714 H   0  0  0  0  0  0  0  0  0  0  0  0
   26.3155   16.8741   56.9999 H   0  0  0  0  0  0  0  0  0  0  0  0
   25.3368   16.2802   58.4289 H   0  0  0  0  0  0  0  0  0  0  0  0
   26.2183   18.2611   59.2163 H   0  0  0  0  0  0  0  0  0  0  0  0
   27.8102   17.9837   58.3663 H   0  0  0  0  0  0  0  0  0  0  0  0
  1  2  2  0
  2  3  1  0
  2  4  1  0
  4  5  2  0
  4 19  1  0
  5  6  1  0
  5  7  1  0
  7  8  2  0
  7 12  1  0
  8  9  1  0
  9 10  2  0
 10 11  1  0
 10 21  1  0
 11 12  2  0
 12 13  1  0
 13 14  1  0
 13 19  1  0
 14 15  1  0
 14 18  1  0
 15 16  1  0
 16 17  1  0
 17 18  1  0
 19 20  2  0
 21 22  1  0
 22 23  2  0
 22 27  1  0
 23 24  1  0
 24 25  2  0
 25 26  1  0
 25 28  1  0
 26 27  2  0
 28 29  1  0
 28 33  1  0
 29 30  1  0
 30 31  1  0
 31 32  1  0
 32 33  1  0
  3 34  1  0
  3 35  1  0
  3 36  1  0
  6 37  1  0
  6 38  1  0
  6 39  1  0
  8 40  1  0
 14 41  1  0
 15 42  1  0
 15 43  1  0
 16 44  1  0
 16 45  1  0
 17 46  1  0
 17 47  1  0
 18 48  1  0
 18 49  1  0
 21 50  1  0
 24 51  1  0
 26 52  1  0
 27 53  1  0
 29 54  1  0
 29 55  1  0
 30 56  1  0
 30 57  1  0
 31 58  1  0
 32 59  1  0
 32 60  1  0
 33 61  1  0
 33 62  1  0
A    1
O01
A    2
C02
A    3
C01
A    4
C03
A    5
C04
A    6
C05
A    7
C06
A    8
C07
A    9
N01
A   10
C08
A   11
N02
A   12
C09
A   13
N03
A   14
C10
A   15
C11
A   16
C12
A   17
C13
A   18
C14
A   19
C15
A   20
O02
A   21
N04
A   22
C16
A   23
N05
A   24
C17
A   25
C18
A   26
C19
A   27
C20
A   28
N06
A   29
C21
A   30
C22
A   31
N07
A   32
C23
A   33
C24
M  END
