2EVO_CT0_A_503
     RDKit          3D

 29 30  0  0  0  0  0  0  0  0999 V2000
   -3.9250    2.1300   38.5270 O   0  0  0  0  0  0  0  0  0  0  0  0
   -3.7830    1.7280   37.3500 C   0  0  0  0  0  0  0  0  0  0  0  0
   -2.8770    2.3250   36.4850 N   0  0  0  0  0  0  0  0  0  0  0  0
   -2.0880    3.3710   36.8300 C   0  0  0  0  0  0  0  0  0  0  0  0
   -1.2060    3.9750   36.0320 N   0  0  0  0  0  0  0  0  0  0  0  0
   -2.0200    4.1420   38.3150 S   0  0  0  0  0  0  0  0  0  0  0  0
   -0.8580    5.2730   37.9590 C   0  0  0  0  0  0  0  0  0  0  0  0
   -0.5030    5.0470   36.6410 C   0  0  0  0  0  0  0  0  0  0  0  0
   -4.4540    0.1800   35.6890 O   0  0  0  0  0  0  0  0  0  0  0  0
   -4.5980    0.5850   36.8610 C   0  0  0  0  0  0  0  0  0  0  0  0
   -5.4970   -0.0140   37.7150 N   0  0  0  0  0  0  0  0  0  0  0  0
   -6.3190   -1.1520   37.2810 C   0  0  0  0  0  0  0  0  0  0  0  0
   -5.9970   -2.5120   37.9180 C   0  0  0  0  0  0  0  0  0  0  0  0
   -7.8310   -1.0560   37.5400 C   0  0  0  0  0  0  0  0  0  0  0  0
   -8.0120   -1.5870   38.9730 C   0  0  0  0  0  0  0  0  0  0  0  0
   -6.8180   -2.5290   39.2230 C   0  0  0  0  0  0  0  0  0  0  0  0
   -2.8001    1.9524   35.5278 H   0  0  0  0  0  0  0  0  0  0  0  0
   -0.4537    6.0433   38.6322 H   0  0  0  0  0  0  0  0  0  0  0  0
    0.2552    5.6440   36.1131 H   0  0  0  0  0  0  0  0  0  0  0  0
   -5.5951    0.3425   38.6764 H   0  0  0  0  0  0  0  0  0  0  0  0
   -6.0583   -1.0931   36.2140 H   0  0  0  0  0  0  0  0  0  0  0  0
   -6.3032   -3.3345   37.2549 H   0  0  0  0  0  0  0  0  0  0  0  0
   -4.9202   -2.6457   38.0986 H   0  0  0  0  0  0  0  0  0  0  0  0
   -8.1725   -0.0130   37.4660 H   0  0  0  0  0  0  0  0  0  0  0  0
   -8.4179   -1.6271   36.8055 H   0  0  0  0  0  0  0  0  0  0  0  0
   -8.0025   -0.7562   39.6939 H   0  0  0  0  0  0  0  0  0  0  0  0
   -8.9728   -2.1087   39.0942 H   0  0  0  0  0  0  0  0  0  0  0  0
   -7.1715   -3.5476   39.4412 H   0  0  0  0  0  0  0  0  0  0  0  0
   -6.2177   -2.2054   40.0861 H   0  0  0  0  0  0  0  0  0  0  0  0
  1  2  2  0
  2  3  1  0
  2 10  1  0
  3  4  1  0
  4  5  2  0
  4  6  1  0
  5  8  1  0
  6  7  1  0
  7  8  2  0
  9 10  2  0
 10 11  1  0
 11 12  1  0
 12 13  1  0
 12 14  1  0
 13 16  1  0
 14 15  1  0
 15 16  1  0
  3 17  1  0
  7 18  1  0
  8 19  1  0
 11 20  1  0
 12 21  1  0
 13 22  1  0
 13 23  1  0
 14 24  1  0
 14 25  1  0
 15 26  1  0
 15 27  1  0
 16 28  1  0
 16 29  1  0
A    1
O
A    2
C1
A    3
N2
A    4
C3
A    5
N
A    6
S
A    7
C5
A    8
C4
A    9
O2
A   10
C6
A   11
N7
A   12
C8
A   13
C9
A   14
C10
A   15
C11
A   16
C12
M  END
