2EWB_ZED_A_2000
     RDKit          3D

 40 41  0  0  0  0  0  0  0  0999 V2000
   70.8920   50.9340   21.6910 C   0  0  0  0  0  0  0  0  0  0  0  0
   69.5490   50.6460   21.9880 C   0  0  0  0  0  0  0  0  0  0  0  0
   69.2400   49.4540   22.6750 C   0  0  0  0  0  0  0  0  0  0  0  0
   70.2630   48.5460   23.0640 C   0  0  0  0  0  0  0  0  0  0  0  0
   71.6150   48.8420   22.7620 C   0  0  0  0  0  0  0  0  0  0  0  0
   71.9330   50.0410   22.0750 C   0  0  0  0  0  0  0  0  0  0  0  0
   66.2400   49.9210   19.6000 C   0  0  0  0  0  0  0  0  0  0  0  0
   65.8970   49.4130   21.0150 C   0  0  0  0  0  0  0  0  0  0  0  0
   67.7420   49.9840   19.3070 C   0  0  0  0  0  0  0  0  0  0  0  0
   68.1060   51.4100   19.7000 C   0  0  0  0  0  0  0  0  0  0  0  0
   66.9760   52.1600   19.0450 C   0  0  0  0  0  0  0  0  0  0  0  0
   62.6680   53.2860   19.3200 C   0  0  0  0  0  0  0  0  0  0  0  0
   64.0380   52.9360   18.6940 C   0  0  0  0  0  0  0  0  0  0  0  0
   64.4920   51.5100   19.0410 C   0  0  0  0  0  0  0  0  0  0  0  0
   64.0020   53.2110   17.1850 C   0  0  0  0  0  0  0  0  0  0  0  0
   66.1820   48.2540   21.3310 O   0  0  0  0  0  0  0  0  0  0  0  0
   65.3420   50.1800   21.8110 O   0  0  0  0  0  0  0  0  0  0  0  0
   63.6610   50.5940   19.0620 O   0  0  0  0  0  0  0  0  0  0  0  0
   65.8040   51.3010   19.3300 N   0  0  0  0  0  0  0  0  0  0  0  0
   68.2350   51.7890   21.4790 S   0  0  0  0  0  0  0  0  0  0  0  0
   63.0650   52.0510   16.2040 S   0  0  0  0  0  0  0  0  0  0  0  0
   71.1426   51.8613   21.1549 H   0  0  0  0  0  0  0  0  0  0  0  0
   68.1914   49.2229   22.9137 H   0  0  0  0  0  0  0  0  0  0  0  0
   70.0058   47.6186   23.5967 H   0  0  0  0  0  0  0  0  0  0  0  0
   72.4134   48.1459   23.0587 H   0  0  0  0  0  0  0  0  0  0  0  0
   72.9804   50.2807   21.8394 H   0  0  0  0  0  0  0  0  0  0  0  0
   65.7128   49.1805   18.9806 H   0  0  0  0  0  0  0  0  0  0  0  0
   68.2948   49.2526   19.9149 H   0  0  0  0  0  0  0  0  0  0  0  0
   67.9913   49.7442   18.2628 H   0  0  0  0  0  0  0  0  0  0  0  0
   69.1284   51.6664   19.3853 H   0  0  0  0  0  0  0  0  0  0  0  0
   66.8529   53.1586   19.4896 H   0  0  0  0  0  0  0  0  0  0  0  0
   67.1354   52.3372   17.9711 H   0  0  0  0  0  0  0  0  0  0  0  0
   62.7499   53.2651   20.4167 H   0  0  0  0  0  0  0  0  0  0  0  0
   62.3621   54.2911   18.9943 H   0  0  0  0  0  0  0  0  0  0  0  0
   61.9175   52.5508   18.9943 H   0  0  0  0  0  0  0  0  0  0  0  0
   64.8053   53.5893   19.1350 H   0  0  0  0  0  0  0  0  0  0  0  0
   63.5656   54.2095   17.0346 H   0  0  0  0  0  0  0  0  0  0  0  0
   65.0427   53.1200   16.8407 H   0  0  0  0  0  0  0  0  0  0  0  0
   66.2439   48.0024   22.2865 H   0  0  0  0  0  0  0  0  0  0  0  0
   62.3792   51.2020   17.0321 H   0  0  0  0  0  0  0  0  0  0  0  0
  1  2  2  0
  1  6  1  0
  2  3  1  0
  2 20  1  0
  3  4  2  0
  4  5  1  0
  5  6  2  0
  7  8  1  0
  7  9  1  0
  7 19  1  0
  8 16  1  0
  8 17  2  0
  9 10  1  0
 10 11  1  0
 10 20  1  0
 11 19  1  0
 12 13  1  0
 13 14  1  0
 13 15  1  0
 14 18  2  0
 14 19  1  0
 15 21  1  0
  1 22  1  0
  3 23  1  0
  4 24  1  0
  5 25  1  0
  6 26  1  0
  7 27  1  0
  9 28  1  0
  9 29  1  0
 10 30  1  0
 11 31  1  0
 11 32  1  0
 12 33  1  0
 12 34  1  0
 12 35  1  0
 13 36  1  0
 15 37  1  0
 15 38  1  0
 16 39  1  0
 21 40  1  0
A    1
CZ1
A    2
CZ2
A    3
CZ3
A    4
CZ4
A    5
CZ5
A    6
CZ6
A    7
CZ7
A    8
CZ8
A    9
CZ9
A   10
CZA
A   11
CZB
A   12
CZC
A   13
CZD
A   14
CZE
A   15
CZF
A   16
OZ1
A   17
OZ2
A   18
OZ3
A   19
NZ1
A   20
SZ1
A   21
SZ2
M  END
