2EZT_TDM_A_1611
     RDKit          3D

 51 52  0  0  0  0  0  0  0  0999 V2000
   85.0100   62.8430   -0.2430 O   0  0  0  0  0  0  0  0  0  0  0  0
   83.7440   62.6470    0.5610 P   0  0  0  0  0  0  0  0  0  0  0  0
   83.3900   63.7020    1.5610 O   0  0  0  0  0  0  0  0  0  0  0  0
   83.8560   61.2790    1.3770 O   0  0  0  0  0  0  0  0  0  0  0  0
   84.5450   59.8670    1.0190 P   0  0  0  0  0  0  0  0  0  0  0  0
   85.4110   59.6030    2.2610 O   0  0  0  0  0  0  0  0  0  0  0  0
   85.3600   59.9990   -0.2580 O   0  0  0  0  0  0  0  0  0  0  0  0
   83.3240   58.9820    0.9600 O   0  0  0  0  0  0  0  0  0  0  0  0
   82.4780   62.4380   -0.3620 O   0  0  0  0  0  0  0  0  0  0  0  0
   81.1940   62.2290    0.2280 C   0  0  0  0  0  0  0  0  0  0  0  0
   80.3570   61.6680   -0.9120 C   0  0  0  0  0  0  0  0  0  0  0  0
   78.8640   61.8560   -0.7270 C   0  0  0  0  0  0  0  0  0  0  0  0
   78.1320   61.0300    0.6270 S   0  0  0  0  0  0  0  0  0  0  0  0
   76.5450   61.6310    0.1440 C   0  0  0  0  0  0  0  0  0  0  0  0
   75.3870   61.1780    1.0030 C   0  0  0  0  0  0  0  0  0  0  0  0
   75.6130   60.2720    2.1760 C   0  0  0  0  0  0  0  0  0  0  0  0
   74.1320   61.5770    0.7880 O   0  0  0  0  0  0  0  0  0  0  0  0
   76.6170   62.4490   -0.9690 N   0  0  0  0  0  0  0  0  0  0  0  0
   77.8970   62.5780   -1.4650 C   0  0  0  0  0  0  0  0  0  0  0  0
   78.2650   63.3880   -2.6940 C   0  0  0  0  0  0  0  0  0  0  0  0
   75.4730   63.1630   -1.5830 C   0  0  0  0  0  0  0  0  0  0  0  0
   75.5350   64.6370   -1.1120 C   0  0  0  0  0  0  0  0  0  0  0  0
   75.3200   65.0340    0.2260 C   0  0  0  0  0  0  0  0  0  0  0  0
   75.0280   64.1510    1.2220 N   0  0  0  0  0  0  0  0  0  0  0  0
   75.3900   66.3500    0.5660 N   0  0  0  0  0  0  0  0  0  0  0  0
   75.6640   67.2950   -0.3600 C   0  0  0  0  0  0  0  0  0  0  0  0
   75.7440   68.7280    0.0800 C   0  0  0  0  0  0  0  0  0  0  0  0
   75.8750   66.9580   -1.6530 N   0  0  0  0  0  0  0  0  0  0  0  0
   75.8160   65.6640   -2.0290 C   0  0  0  0  0  0  0  0  0  0  0  0
   83.5104   63.3432    2.4758 H   0  0  0  0  0  0  0  0  0  0  0  0
   84.8755   59.7663    3.0775 H   0  0  0  0  0  0  0  0  0  0  0  0
   86.3106   60.1530   -0.0284 H   0  0  0  0  0  0  0  0  0  0  0  0
   81.2567   61.5104    1.0584 H   0  0  0  0  0  0  0  0  0  0  0  0
   80.7679   63.1485    0.6557 H   0  0  0  0  0  0  0  0  0  0  0  0
   80.6570   62.1718   -1.8427 H   0  0  0  0  0  0  0  0  0  0  0  0
   80.5416   60.5840   -0.9408 H   0  0  0  0  0  0  0  0  0  0  0  0
   75.4719   60.8377    3.1088 H   0  0  0  0  0  0  0  0  0  0  0  0
   74.8950   59.4394    2.1399 H   0  0  0  0  0  0  0  0  0  0  0  0
   76.6379   59.8742    2.1399 H   0  0  0  0  0  0  0  0  0  0  0  0
   73.5348   61.7669    1.5544 H   0  0  0  0  0  0  0  0  0  0  0  0
   78.7014   64.3486   -2.3829 H   0  0  0  0  0  0  0  0  0  0  0  0
   78.9979   62.8298   -3.2951 H   0  0  0  0  0  0  0  0  0  0  0  0
   77.3625   63.5728   -3.2951 H   0  0  0  0  0  0  0  0  0  0  0  0
   75.5462   63.1160   -2.6796 H   0  0  0  0  0  0  0  0  0  0  0  0
   74.5216   62.7004   -1.2816 H   0  0  0  0  0  0  0  0  0  0  0  0
   75.1223   64.4363    2.2072 H   0  0  0  0  0  0  0  0  0  0  0  0
   74.7129   63.1983    0.9896 H   0  0  0  0  0  0  0  0  0  0  0  0
   75.7466   68.7745    1.1790 H   0  0  0  0  0  0  0  0  0  0  0  0
   76.6688   69.1797   -0.3083 H   0  0  0  0  0  0  0  0  0  0  0  0
   74.8753   69.2798   -0.3083 H   0  0  0  0  0  0  0  0  0  0  0  0
   75.9929   65.4053   -3.0834 H   0  0  0  0  0  0  0  0  0  0  0  0
  1  2  2  0
  2  3  1  0
  2  4  1  0
  2  9  1  0
  4  5  1  0
  5  6  1  0
  5  7  1  0
  5  8  2  0
  9 10  1  0
 10 11  1  0
 11 12  1  0
 12 13  1  0
 12 19  2  0
 13 14  1  0
 14 15  2  0
 14 18  1  0
 15 16  1  0
 15 17  1  0
 18 19  1  0
 18 21  1  0
 19 20  1  0
 21 22  1  0
 22 23  2  0
 22 29  1  0
 23 24  1  0
 23 25  1  0
 25 26  2  0
 26 27  1  0
 26 28  1  0
 28 29  2  0
  3 30  1  0
  6 31  1  0
  7 32  1  0
 10 33  1  0
 10 34  1  0
 11 35  1  0
 11 36  1  0
 16 37  1  0
 16 38  1  0
 16 39  1  0
 17 40  1  0
 20 41  1  0
 20 42  1  0
 20 43  1  0
 21 44  1  0
 21 45  1  0
 24 46  1  0
 24 47  1  0
 27 48  1  0
 27 49  1  0
 27 50  1  0
 29 51  1  0
A    1
O1A
A    2
PA
A    3
O2A
A    4
O3A
A    5
PB
A    6
O2B
A    7
O3B
A    8
O1B
A    9
O7
A   10
C7
A   11
C6
A   12
C5
A   13
S1
A   14
C2
A   15
C27
A   16
C29
A   17
O28
A   18
N3
A   19
C4
A   20
CM4
A   21
C7'
A   22
C5'
A   23
C4'
A   24
N4'
A   25
N3'
A   26
C2'
A   27
CM2
A   28
N1'
A   29
C6'
M  END
