2F17_PYI_A_902
     RDKit          3D

 48 49  0  0  0  0  0  0  0  0999 V2000
   19.9160   38.9770   23.2480 C   0  0  0  0  0  0  0  0  0  0  0  0
   20.8280   39.2820   22.0930 C   0  0  0  0  0  0  0  0  0  0  0  0
   20.3180   39.8680   21.0040 N   0  0  0  0  0  0  0  0  0  0  0  0
   21.0920   40.1610   19.9410 C   0  0  0  0  0  0  0  0  0  0  0  0
   22.4600   39.8550   19.9660 C   0  0  0  0  0  0  0  0  0  0  0  0
   23.3220   40.1860   18.7600 C   0  0  0  0  0  0  0  0  0  0  0  0
   24.3450   41.2630   18.9650 N   0  0  0  0  0  0  0  0  0  0  0  0
   24.1340   42.2350   19.8950 C   0  0  0  0  0  0  0  0  0  0  0  0
   25.0600   43.2530   20.1040 C   0  0  0  0  0  0  0  0  0  0  0  0
   26.2290   43.2830   19.3230 C   0  0  0  0  0  0  0  0  0  0  0  0
   26.4570   42.2850   18.3530 C   0  0  0  0  0  0  0  0  0  0  0  0
   27.7230   42.3500   17.5190 C   0  0  0  0  0  0  0  0  0  0  0  0
   27.4070   43.1030   16.2170 C   0  0  0  0  0  0  0  0  0  0  0  0
   27.9410   44.4280   16.2650 O   0  0  0  0  0  0  0  0  0  0  0  0
   28.4970   44.8130   14.7900 P   0  0  0  0  0  0  0  0  0  0  0  0
   28.0070   46.2350   14.4120 O   0  0  0  0  0  0  0  0  0  0  0  0
   30.0220   44.8260   14.8390 O   0  0  0  0  0  0  0  0  0  0  0  0
   28.0310   43.6910   13.6720 O   0  0  0  0  0  0  0  0  0  0  0  0
   26.7890   44.2090   12.7480 P   0  0  0  0  0  0  0  0  0  0  0  0
   25.8890   45.2260   13.5270 O   0  0  0  0  0  0  0  0  0  0  0  0
   27.3610   44.8900   11.4570 O   0  0  0  0  0  0  0  0  0  0  0  0
   25.8880   42.9880   12.3440 O   0  0  0  0  0  0  0  0  0  0  0  0
   25.4770   41.2600   18.1810 C   0  0  0  0  0  0  0  0  0  0  0  0
   25.6930   40.1610   17.1360 C   0  0  0  0  0  0  0  0  0  0  0  0
   22.9740   39.2290   21.1440 C   0  0  0  0  0  0  0  0  0  0  0  0
   24.3130   38.8950   21.2420 N   0  0  0  0  0  0  0  0  0  0  0  0
   22.1300   38.9670   22.1710 N   0  0  0  0  0  0  0  0  0  0  0  0
   20.4494   39.1554   24.1934 H   0  0  0  0  0  0  0  0  0  0  0  0
   19.0307   39.6280   23.1980 H   0  0  0  0  0  0  0  0  0  0  0  0
   19.6004   37.9244   23.1980 H   0  0  0  0  0  0  0  0  0  0  0  0
   20.6511   40.6399   19.0543 H   0  0  0  0  0  0  0  0  0  0  0  0
   23.8521   39.2693   18.4622 H   0  0  0  0  0  0  0  0  0  0  0  0
   22.6312   40.5717   17.9958 H   0  0  0  0  0  0  0  0  0  0  0  0
   23.2117   42.2153   20.4941 H   0  0  0  0  0  0  0  0  0  0  0  0
   24.8800   44.0228   20.8689 H   0  0  0  0  0  0  0  0  0  0  0  0
   26.9666   44.0859   19.4688 H   0  0  0  0  0  0  0  0  0  0  0  0
   28.5078   42.8832   18.0756 H   0  0  0  0  0  0  0  0  0  0  0  0
   28.0789   41.3343   17.2918 H   0  0  0  0  0  0  0  0  0  0  0  0
   27.8530   42.5631   15.3687 H   0  0  0  0  0  0  0  0  0  0  0  0
   26.3154   43.1627   16.0955 H   0  0  0  0  0  0  0  0  0  0  0  0
   30.3218   44.8286   15.7825 H   0  0  0  0  0  0  0  0  0  0  0  0
   27.9758   45.6219   11.7148 H   0  0  0  0  0  0  0  0  0  0  0  0
   25.5561   42.5382   13.1611 H   0  0  0  0  0  0  0  0  0  0  0  0
   25.8811   39.2037   17.6442 H   0  0  0  0  0  0  0  0  0  0  0  0
   24.7952   40.0718   16.5067 H   0  0  0  0  0  0  0  0  0  0  0  0
   26.5578   40.4183   16.5067 H   0  0  0  0  0  0  0  0  0  0  0  0
   24.7501   38.7860   22.1682 H   0  0  0  0  0  0  0  0  0  0  0  0
   24.8727   38.7554   20.3887 H   0  0  0  0  0  0  0  0  0  0  0  0
  1  2  1  0
  2  3  2  0
  2 27  1  0
  3  4  1  0
  4  5  2  0
  5  6  1  0
  5 25  1  0
  6  7  1  0
  7  8  2  0
  7 23  1  0
  8  9  1  0
  9 10  2  0
 10 11  1  0
 11 12  1  0
 11 23  2  0
 12 13  1  0
 13 14  1  0
 14 15  1  0
 15 16  2  0
 15 17  1  0
 15 18  1  0
 18 19  1  0
 19 20  2  0
 19 21  1  0
 19 22  1  0
 23 24  1  0
 25 26  1  0
 25 27  2  0
  1 28  1  0
  1 29  1  0
  1 30  1  0
  4 31  1  0
  6 32  1  0
  6 33  1  0
  8 34  1  0
  9 35  1  0
 10 36  1  0
 12 37  1  0
 12 38  1  0
 13 39  1  0
 13 40  1  0
 17 41  1  0
 21 42  1  0
 22 43  1  0
 24 44  1  0
 24 45  1  0
 24 46  1  0
 26 47  1  0
 26 48  1  0
M  CHG  1   7   1
A    1
CM2
A    2
C2A
A    3
N1A
A    4
C6A
A    5
C5A
A    6
C7A
A    7
N3
A    8
C2
A    9
C1
A   10
C6
A   11
C5
A   12
CM6
A   13
CM7
A   14
OM7
A   15
PA
A   16
O1A
A   17
O2A
A   18
O3A
A   19
PB
A   20
O1B
A   21
O2B
A   22
O3B
A   23
C4
A   24
CM4
A   25
C4A
A   26
N4A
A   27
N3A
M  END
