2F1A_GB2_A_1804
     RDKit          3D

 38 39  0  0  0  0  0  0  0  0999 V2000
   29.0140   65.2650   12.1290 C   0  0  0  0  0  0  0  0  0  0  0  0
   29.8940   65.0670   10.9780 N   0  0  0  0  0  0  0  0  0  0  0  0
   29.8080   65.7580    9.7000 C   0  0  0  0  0  0  0  0  0  0  0  0
   30.9570   65.2300    8.8420 C   0  0  0  0  0  0  0  0  0  0  0  0
   30.7550   65.3650    7.4150 N   0  0  0  0  0  0  0  0  0  0  0  0
   31.3260   66.5690    6.8130 C   0  0  0  0  0  0  0  0  0  0  0  0
   32.6510   66.5270    7.5750 C   0  0  0  0  0  0  0  0  0  0  0  0
   33.6810   65.7670    6.9670 O   0  0  0  0  0  0  0  0  0  0  0  0
   32.2540   66.0200    8.9760 C   0  0  0  0  0  0  0  0  0  0  0  0
   33.2080   65.1240    9.5290 O   0  0  0  0  0  0  0  0  0  0  0  0
   27.3820   67.3270   11.6680 C   0  0  0  0  0  0  0  0  0  0  0  0
   27.0730   68.7150   11.8230 C   0  0  0  0  0  0  0  0  0  0  0  0
   27.9240   69.5600   12.5720 C   0  0  0  0  0  0  0  0  0  0  0  0
   29.0640   68.9690   13.1400 C   0  0  0  0  0  0  0  0  0  0  0  0
   29.4170   67.5960   13.0170 C   0  0  0  0  0  0  0  0  0  0  0  0
   28.5560   66.7360   12.2590 C   0  0  0  0  0  0  0  0  0  0  0  0
   27.8510   64.2850   12.0030 C   0  0  0  0  0  0  0  0  0  0  0  0
   28.3270   63.1030   11.3630 O   0  0  0  0  0  0  0  0  0  0  0  0
   29.5569   65.0583   13.0631 H   0  0  0  0  0  0  0  0  0  0  0  0
   30.8424   65.2652   11.3275 H   0  0  0  0  0  0  0  0  0  0  0  0
   28.8434   65.5439    9.2166 H   0  0  0  0  0  0  0  0  0  0  0  0
   29.8788   66.8478    9.8319 H   0  0  0  0  0  0  0  0  0  0  0  0
   31.0011   64.1931    9.2065 H   0  0  0  0  0  0  0  0  0  0  0  0
   31.1799   64.5473    6.9549 H   0  0  0  0  0  0  0  0  0  0  0  0
   31.4599   66.4759    5.7252 H   0  0  0  0  0  0  0  0  0  0  0  0
   30.7352   67.4936    6.8910 H   0  0  0  0  0  0  0  0  0  0  0  0
   33.1222   67.5207    7.5973 H   0  0  0  0  0  0  0  0  0  0  0  0
   34.2431   65.3523    7.6685 H   0  0  0  0  0  0  0  0  0  0  0  0
   32.1700   66.9014    9.6288 H   0  0  0  0  0  0  0  0  0  0  0  0
   33.1648   65.1646   10.5172 H   0  0  0  0  0  0  0  0  0  0  0  0
   26.7032   66.6917   11.0801 H   0  0  0  0  0  0  0  0  0  0  0  0
   26.1667   69.1280   11.3561 H   0  0  0  0  0  0  0  0  0  0  0  0
   27.7034   70.6296   12.7035 H   0  0  0  0  0  0  0  0  0  0  0  0
   29.7348   69.6162   13.7241 H   0  0  0  0  0  0  0  0  0  0  0  0
   30.3284   67.2040   13.4920 H   0  0  0  0  0  0  0  0  0  0  0  0
   27.4644   64.0366   13.0024 H   0  0  0  0  0  0  0  0  0  0  0  0
   27.0396   64.7347   11.4119 H   0  0  0  0  0  0  0  0  0  0  0  0
   28.5937   62.4409   12.0490 H   0  0  0  0  0  0  0  0  0  0  0  0
  1  2  1  0
  1 16  1  0
  1 17  1  0
  2  3  1  0
  3  4  1  0
  4  5  1  0
  4  9  1  0
  5  6  1  0
  6  7  1  0
  7  8  1  0
  7  9  1  0
  9 10  1  0
 11 12  2  0
 11 16  1  0
 12 13  1  0
 13 14  2  0
 14 15  1  0
 15 16  2  0
 17 18  1  0
  1 19  1  0
  2 20  1  0
  3 21  1  0
  3 22  1  0
  4 23  1  0
  5 24  1  0
  6 25  1  0
  6 26  1  0
  7 27  1  0
  8 28  1  0
  9 29  1  0
 10 30  1  0
 11 31  1  0
 12 32  1  0
 13 33  1  0
 14 34  1  0
 15 35  1  0
 17 36  1  0
 17 37  1  0
 18 38  1  0
A    1
C8
A    2
N7
A    3
C6
A    4
C5
A    5
N1
A    6
C2
A    7
C3
A    8
O3
A    9
C4
A   10
O4
A   11
C15
A   12
C14
A   13
C13
A   14
C12
A   15
C11
A   16
C10
A   17
C9
A   18
O9
M  END
