2F1B_GB3_A_1803
     RDKit          3D

 41 42  0  0  0  0  0  0  0  0999 V2000
   27.4810   68.3060   12.0960 C   0  0  0  0  0  0  0  0  0  0  0  0
   27.3250   69.7320   12.1940 C   0  0  0  0  0  0  0  0  0  0  0  0
   28.3190   70.5480   12.7780 C   0  0  0  0  0  0  0  0  0  0  0  0
   29.4780   69.9120   13.2620 C   0  0  0  0  0  0  0  0  0  0  0  0
   29.6910   68.5010   13.1980 C   0  0  0  0  0  0  0  0  0  0  0  0
   28.6690   67.6640   12.6020 C   0  0  0  0  0  0  0  0  0  0  0  0
   28.8020   66.1330   12.5260 C   0  0  0  0  0  0  0  0  0  0  0  0
   28.9440   65.5020   13.9280 C   0  0  0  0  0  0  0  0  0  0  0  0
   28.9820   64.0920   13.7690 O   0  0  0  0  0  0  0  0  0  0  0  0
   29.9360   65.9340   11.6160 N   0  0  0  0  0  0  0  0  0  0  0  0
   30.0320   66.3680   10.2220 C   0  0  0  0  0  0  0  0  0  0  0  0
   31.1520   65.7870    9.3650 C   0  0  0  0  0  0  0  0  0  0  0  0
   30.7950   65.9120    7.9400 N   0  0  0  0  0  0  0  0  0  0  0  0
   31.2730   67.1820    7.4060 C   0  0  0  0  0  0  0  0  0  0  0  0
   32.6690   67.1900    7.9950 C   0  0  0  0  0  0  0  0  0  0  0  0
   33.7240   66.5390    7.2960 O   0  0  0  0  0  0  0  0  0  0  0  0
   32.4220   66.6410    9.4000 C   0  0  0  0  0  0  0  0  0  0  0  0
   33.4740   65.7680    9.7860 O   0  0  0  0  0  0  0  0  0  0  0  0
   31.3380   67.1790    5.8990 C   0  0  0  0  0  0  0  0  0  0  0  0
   26.6886   67.7005   11.6318 H   0  0  0  0  0  0  0  0  0  0  0  0
   26.4085   70.1992   11.8044 H   0  0  0  0  0  0  0  0  0  0  0  0
   28.1925   71.6382   12.8518 H   0  0  0  0  0  0  0  0  0  0  0  0
   30.2628   70.5361   13.7144 H   0  0  0  0  0  0  0  0  0  0  0  0
   30.6159   68.0569   13.5947 H   0  0  0  0  0  0  0  0  0  0  0  0
   27.9108   65.6168   12.1397 H   0  0  0  0  0  0  0  0  0  0  0  0
   29.8735   65.8500   14.4023 H   0  0  0  0  0  0  0  0  0  0  0  0
   28.0975   65.7933   14.5673 H   0  0  0  0  0  0  0  0  0  0  0  0
   28.9937   63.6597   14.6595 H   0  0  0  0  0  0  0  0  0  0  0  0
   30.7364   66.3782   12.0881 H   0  0  0  0  0  0  0  0  0  0  0  0
   29.0803   66.1116    9.7336 H   0  0  0  0  0  0  0  0  0  0  0  0
   30.2636   67.4415   10.2846 H   0  0  0  0  0  0  0  0  0  0  0  0
   31.2985   64.7655    9.7460 H   0  0  0  0  0  0  0  0  0  0  0  0
   31.2255   65.1387    7.4131 H   0  0  0  0  0  0  0  0  0  0  0  0
   30.6384   68.0469    7.6494 H   0  0  0  0  0  0  0  0  0  0  0  0
   33.0908   68.2048    7.9465 H   0  0  0  0  0  0  0  0  0  0  0  0
   34.3588   66.1473    7.9470 H   0  0  0  0  0  0  0  0  0  0  0  0
   32.3464   67.4878   10.0980 H   0  0  0  0  0  0  0  0  0  0  0  0
   33.5232   65.7272   10.7739 H   0  0  0  0  0  0  0  0  0  0  0  0
   32.3888   67.1305    5.5774 H   0  0  0  0  0  0  0  0  0  0  0  0
   30.7949   66.3050    5.5103 H   0  0  0  0  0  0  0  0  0  0  0  0
   30.8777   68.0993    5.5103 H   0  0  0  0  0  0  0  0  0  0  0  0
  1  2  2  0
  1  6  1  0
  2  3  1  0
  3  4  2  0
  4  5  1  0
  5  6  2  0
  6  7  1  0
  7  8  1  0
  7 10  1  0
  8  9  1  0
 10 11  1  0
 11 12  1  0
 12 13  1  0
 12 17  1  0
 13 14  1  0
 14 15  1  0
 14 19  1  0
 15 16  1  0
 15 17  1  0
 17 18  1  0
  1 20  1  0
  2 21  1  0
  3 22  1  0
  4 23  1  0
  5 24  1  0
  7 25  1  0
  8 26  1  0
  8 27  1  0
  9 28  1  0
 10 29  1  0
 11 30  1  0
 11 31  1  0
 12 32  1  0
 13 33  1  0
 14 34  1  0
 15 35  1  0
 16 36  1  0
 17 37  1  0
 18 38  1  0
 19 39  1  0
 19 40  1  0
 19 41  1  0
A    1
C15
A    2
C14
A    3
C13
A    4
C12
A    5
C11
A    6
C10
A    7
C8
A    8
C9
A    9
O9
A   10
N7
A   11
C6
A   12
C5
A   13
N1
A   14
C2
A   15
C3
A   16
O3
A   17
C4
A   18
O4
A   19
C21
M  END
