1OOQ_DTC_B_222
     RDKit          3D

 37 40  0  0  0  0  0  0  0  0999 V2000
   19.6540  -36.6820   52.2010 O   0  0  0  0  0  0  0  0  0  0  0  0
   19.3750  -35.7700   53.2550 C   0  0  0  0  0  0  0  0  0  0  0  0
   20.3590  -35.5580   54.3150 C   0  0  0  0  0  0  0  0  0  0  0  0
   21.5790  -36.2880   54.2730 C   0  0  0  0  0  0  0  0  0  0  0  0
   22.5330  -36.1060   55.2840 O   0  0  0  0  0  0  0  0  0  0  0  0
   21.8610  -37.2270   53.2140 C   0  0  0  0  0  0  0  0  0  0  0  0
   23.1840  -38.0660   53.3110 C   0  0  0  0  0  0  0  0  0  0  0  0
   20.8750  -37.4210   52.1710 C   0  0  0  0  0  0  0  0  0  0  0  0
   21.0960  -38.2990   51.1070 O   0  0  0  0  0  0  0  0  0  0  0  0
   20.0530  -34.6370   55.3520 C   0  0  0  0  0  0  0  0  0  0  0  0
   18.8080  -33.9470   55.3710 C   0  0  0  0  0  0  0  0  0  0  0  0
   17.8580  -34.1660   54.3420 C   0  0  0  0  0  0  0  0  0  0  0  0
   18.1530  -35.0770   53.2820 C   0  0  0  0  0  0  0  0  0  0  0  0
   25.8680  -34.9770   50.2150 C   0  0  0  0  0  0  0  0  0  0  0  0
   25.6200  -36.2250   50.8830 C   0  0  0  0  0  0  0  0  0  0  0  0
   26.5710  -37.2810   50.7300 C   0  0  0  0  0  0  0  0  0  0  0  0
   27.7960  -37.0590   50.0300 C   0  0  0  0  0  0  0  0  0  0  0  0
   28.0040  -35.8390   49.3180 C   0  0  0  0  0  0  0  0  0  0  0  0
   27.0270  -34.7940   49.4040 C   0  0  0  0  0  0  0  0  0  0  0  0
   26.3800  -38.5350   51.4080 O   0  0  0  0  0  0  0  0  0  0  0  0
   25.2590  -38.7870   52.2510 C   0  0  0  0  0  0  0  0  0  0  0  0
   25.1920  -40.0170   52.9420 O   0  0  0  0  0  0  0  0  0  0  0  0
   24.2550  -37.7990   52.4240 C   0  0  0  0  0  0  0  0  0  0  0  0
   24.4760  -36.4260   51.7360 C   0  0  0  0  0  0  0  0  0  0  0  0
   23.6020  -35.3760   51.9570 O   0  0  0  0  0  0  0  0  0  0  0  0
   22.3990  -36.4425   52.6617 H   0  0  0  0  0  0  0  0  0  0  0  0
   23.5736  -37.9291   54.3305 H   0  0  0  0  0  0  0  0  0  0  0  0
   22.8641  -39.0791   53.0257 H   0  0  0  0  0  0  0  0  0  0  0  0
   20.7873  -34.4546   56.1505 H   0  0  0  0  0  0  0  0  0  0  0  0
   18.5828  -33.2428   56.1855 H   0  0  0  0  0  0  0  0  0  0  0  0
   16.8948  -33.6351   54.3597 H   0  0  0  0  0  0  0  0  0  0  0  0
   17.4173  -35.2373   52.4801 H   0  0  0  0  0  0  0  0  0  0  0  0
   25.1525  -34.1496   50.3310 H   0  0  0  0  0  0  0  0  0  0  0  0
   28.5809  -37.8296   50.0394 H   0  0  0  0  0  0  0  0  0  0  0  0
   28.9085  -35.7020   48.7072 H   0  0  0  0  0  0  0  0  0  0  0  0
   27.1702  -33.8559   48.8476 H   0  0  0  0  0  0  0  0  0  0  0  0
   24.8307  -37.3589   53.2516 H   0  0  0  0  0  0  0  0  0  0  0  0
  1  2  1  0
  1  8  1  0
  2  3  2  0
  2 13  1  0
  3  4  1  0
  3 10  1  0
  4  5  2  0
  4  6  1  0
  6  7  1  0
  6  8  1  0
  7 23  1  0
  8  9  2  0
 10 11  2  0
 11 12  1  0
 12 13  2  0
 14 15  2  0
 14 19  1  0
 15 16  1  0
 15 24  1  0
 16 17  2  0
 16 20  1  0
 17 18  1  0
 18 19  2  0
 20 21  1  0
 21 22  2  0
 21 23  1  0
 23 24  1  0
 24 25  2  0
  6 26  1  0
  7 27  1  0
  7 28  1  0
 10 29  1  0
 11 30  1  0
 12 31  1  0
 13 32  1  0
 14 33  1  0
 17 34  1  0
 18 35  1  0
 19 36  1  0
 23 37  1  0
A    1
O5
A    2
C10
A    3
C9
A    4
C8
A    5
O17
A    6
C7
A    7
C15
A    8
C6
A    9
O16
A   10
C1
A   11
C2
A   12
C3
A   13
C4
A   14
C5
A   15
C20
A   16
C19
A   17
C18
A   18
C17
A   19
C16
A   20
O21
A   21
C12
A   22
O32
A   23
C13
A   24
C14
A   25
O38
M  END
