2F2H_XTG_A_3015
     RDKit          3D

 53 55  0  0  0  0  0  0  0  0999 V2000
  141.3860   60.1150  132.6660 C   0  0  0  0  0  0  0  0  0  0  0  0
  141.3370   58.7280  132.6660 C   0  0  0  0  0  0  0  0  0  0  0  0
  142.4670   57.9860  132.3270 C   0  0  0  0  0  0  0  0  0  0  0  0
  142.4460   56.6300  132.3060 N   0  0  0  0  0  0  0  0  0  0  0  0
  143.6040   55.9920  131.8150 O   0  0  0  0  0  0  0  0  0  0  0  0
  141.3180   55.8260  132.7560 O   0  0  0  0  0  0  0  0  0  0  0  0
  143.6300   58.6740  131.9720 C   0  0  0  0  0  0  0  0  0  0  0  0
  143.6770   60.0560  131.9790 C   0  0  0  0  0  0  0  0  0  0  0  0
  142.5500   60.7890  132.3310 C   0  0  0  0  0  0  0  0  0  0  0  0
  142.5250   62.1500  132.3940 O   0  0  0  0  0  0  0  0  0  0  0  0
  143.7900   62.8490  132.7010 C   0  0  0  0  0  0  0  0  0  0  0  0
  144.6050   62.2950  133.7470 O   0  0  0  0  0  0  0  0  0  0  0  0
  143.5230   64.3130  133.1030 C   0  0  0  0  0  0  0  0  0  0  0  0
  142.7280   64.9010  132.1130 O   0  0  0  0  0  0  0  0  0  0  0  0
  144.8330   65.0720  133.2410 C   0  0  0  0  0  0  0  0  0  0  0  0
  144.6250   66.3780  133.6620 O   0  0  0  0  0  0  0  0  0  0  0  0
  145.6810   64.2860  134.1930 C   0  0  0  0  0  0  0  0  0  0  0  0
  146.9590   64.8320  134.3220 O   0  0  0  0  0  0  0  0  0  0  0  0
  145.8420   62.9300  133.5620 C   0  0  0  0  0  0  0  0  0  0  0  0
  147.1050   62.3560  134.1110 C   0  0  0  0  0  0  0  0  0  0  0  0
  146.8700   60.9700  135.2510 S   0  0  0  0  0  0  0  0  0  0  0  0
  147.7090   61.1920  136.9100 C   0  0  0  0  0  0  0  0  0  0  0  0
  146.9010   60.7380  138.0030 O   0  0  0  0  0  0  0  0  0  0  0  0
  146.7780   59.2870  138.0820 C   0  0  0  0  0  0  0  0  0  0  0  0
  148.1020   58.4950  138.1180 C   0  0  0  0  0  0  0  0  0  0  0  0
  147.7750   57.0960  137.8880 O   0  0  0  0  0  0  0  0  0  0  0  0
  149.0790   59.0220  137.0360 C   0  0  0  0  0  0  0  0  0  0  0  0
  150.3650   58.3390  137.1410 O   0  0  0  0  0  0  0  0  0  0  0  0
  149.1200   60.5820  137.1120 C   0  0  0  0  0  0  0  0  0  0  0  0
  149.9970   61.2920  136.2080 O   0  0  0  0  0  0  0  0  0  0  0  0
  140.4870   60.6885  132.9361 H   0  0  0  0  0  0  0  0  0  0  0  0
  140.4031   58.2125  132.9345 H   0  0  0  0  0  0  0  0  0  0  0  0
  144.5256   58.1053  131.6813 H   0  0  0  0  0  0  0  0  0  0  0  0
  144.6072   60.5756  131.7057 H   0  0  0  0  0  0  0  0  0  0  0  0
  144.3476   62.7391  131.7592 H   0  0  0  0  0  0  0  0  0  0  0  0
  143.0067   64.3465  134.0737 H   0  0  0  0  0  0  0  0  0  0  0  0
  142.0096   65.4324  132.5391 H   0  0  0  0  0  0  0  0  0  0  0  0
  145.3425   65.1670  132.2707 H   0  0  0  0  0  0  0  0  0  0  0  0
  144.6201   66.4089  134.6515 H   0  0  0  0  0  0  0  0  0  0  0  0
  145.2097   64.2710  135.1868 H   0  0  0  0  0  0  0  0  0  0  0  0
  147.1818   64.9272  135.2819 H   0  0  0  0  0  0  0  0  0  0  0  0
  146.0099   62.8545  132.4775 H   0  0  0  0  0  0  0  0  0  0  0  0
  147.7180   62.0061  133.2673 H   0  0  0  0  0  0  0  0  0  0  0  0
  147.5858   63.1580  134.6904 H   0  0  0  0  0  0  0  0  0  0  0  0
  147.8432   62.2837  136.9009 H   0  0  0  0  0  0  0  0  0  0  0  0
  146.2174   59.0465  138.9973 H   0  0  0  0  0  0  0  0  0  0  0  0
  146.2759   58.9817  137.1521 H   0  0  0  0  0  0  0  0  0  0  0  0
  148.6022   58.6148  139.0903 H   0  0  0  0  0  0  0  0  0  0  0  0
  147.6673   56.6350  138.7575 H   0  0  0  0  0  0  0  0  0  0  0  0
  148.7348   58.7850  136.0185 H   0  0  0  0  0  0  0  0  0  0  0  0
  150.5964   58.2161  138.0957 H   0  0  0  0  0  0  0  0  0  0  0  0
  149.5338   60.7250  138.1211 H   0  0  0  0  0  0  0  0  0  0  0  0
  150.6507   61.8213  136.7301 H   0  0  0  0  0  0  0  0  0  0  0  0
  1  2  2  0
  1  9  1  0
  2  3  1  0
  3  4  1  0
  3  7  2  0
  4  5  1  0
  4  6  2  0
  7  8  1  0
  8  9  2  0
  9 10  1  0
 10 11  1  0
 11 12  1  0
 11 13  1  0
 12 19  1  0
 13 14  1  0
 13 15  1  0
 15 16  1  0
 15 17  1  0
 17 18  1  0
 17 19  1  0
 19 20  1  0
 20 21  1  0
 21 22  1  0
 22 23  1  0
 22 29  1  0
 23 24  1  0
 24 25  1  0
 25 26  1  0
 25 27  1  0
 27 28  1  0
 27 29  1  0
 29 30  1  0
  1 31  1  0
  2 32  1  0
  7 33  1  0
  8 34  1  0
 11 35  1  0
 13 36  1  0
 14 37  1  0
 15 38  1  0
 16 39  1  0
 17 40  1  0
 18 41  1  0
 19 42  1  0
 20 43  1  0
 20 44  1  0
 22 45  1  0
 24 46  1  0
 24 47  1  0
 25 48  1  0
 26 49  1  0
 27 50  1  0
 28 51  1  0
 29 52  1  0
 30 53  1  0
M  CHG  2   4   1   5  -1
A    1
C14
A    2
C13
A    3
C12
A    4
N1
A    5
O10
A    6
O11
A    7
C17
A    8
C16
A    9
C15
A   10
O1
A   11
C1
A   12
O5
A   13
C2
A   14
O2
A   15
C3
A   16
O3
A   17
C4
A   18
O4
A   19
C5
A   20
C6
A   21
S6
A   22
C7
A   23
O9
A   24
C11
A   25
C10
A   26
O8
A   27
C9
A   28
O7
A   29
C8
A   30
O6
M  END
