2F2K_TGG_A_351
     RDKit          3D

 49 48  0  0  0  0  0  0  0  0999 V2000
   38.2730   48.0190   15.9300 O   0  0  0  0  0  0  0  0  0  0  0  0
   37.8930   46.9280   15.5080 C   0  0  0  0  0  0  0  0  0  0  0  0
   37.3730   46.8730   14.3940 O   0  0  0  0  0  0  0  0  0  0  0  0
   38.1170   45.6610   16.3400 C   0  0  0  0  0  0  0  0  0  0  0  0
   39.4900   45.1880   16.1080 N   0  0  0  0  0  0  0  0  0  0  0  0
   37.9450   45.9340   17.8370 C   0  0  0  0  0  0  0  0  0  0  0  0
   36.4850   46.0550   18.2880 C   0  0  0  0  0  0  0  0  0  0  0  0
   35.7950   44.7020   18.4840 C   0  0  0  0  0  0  0  0  0  0  0  0
   34.5700   44.6080   18.4080 O   0  0  0  0  0  0  0  0  0  0  0  0
   36.6080   43.6880   18.7720 N   0  0  0  0  0  0  0  0  0  0  0  0
   36.1300   42.3150   18.9990 C   0  0  0  0  0  0  0  0  0  0  0  0
   36.0130   42.0920   20.5100 C   0  0  0  0  0  0  0  0  0  0  0  0
   36.9910   42.2490   21.2400 O   0  0  0  0  0  0  0  0  0  0  0  0
   34.8120   41.7390   20.9620 N   0  0  0  0  0  0  0  0  0  0  0  0
   34.5500   41.4920   22.3890 C   0  0  0  0  0  0  0  0  0  0  0  0
   33.8300   42.7030   22.9870 C   0  0  0  0  0  0  0  0  0  0  0  0
   32.6200   42.8550   22.8220 O   0  0  0  0  0  0  0  0  0  0  0  0
   34.4510   43.5440   23.6360 O   0  0  0  0  0  0  0  0  0  0  0  0
   37.1200   41.3240   18.3760 C   0  0  0  0  0  0  0  0  0  0  0  0
   38.7120   41.1640   19.2700 S   0  0  0  0  0  0  0  0  0  0  0  0
   40.0040   41.1090   17.9710 C   0  0  0  0  0  0  0  0  0  0  0  0
   39.5750   41.8630   16.7110 C   0  0  0  0  0  0  0  0  0  0  0  0
   39.5260   43.0910   16.7220 O   0  0  0  0  0  0  0  0  0  0  0  0
   39.2940   41.2500   15.6810 O   0  0  0  0  0  0  0  0  0  0  0  0
   40.3900   39.6730   17.6040 C   0  0  0  0  0  0  0  0  0  0  0  0
   41.5900   39.6310   16.6540 C   0  0  0  0  0  0  0  0  0  0  0  0
   42.6450   40.1930   16.9430 O   0  0  0  0  0  0  0  0  0  0  0  0
   41.5240   39.0170   15.5920 O   0  0  0  0  0  0  0  0  0  0  0  0
   36.3920   46.7692   14.3102 H   0  0  0  0  0  0  0  0  0  0  0  0
   37.3742   44.9090   16.0355 H   0  0  0  0  0  0  0  0  0  0  0  0
   39.9554   45.0277   17.0128 H   0  0  0  0  0  0  0  0  0  0  0  0
   39.4642   44.3074   15.5744 H   0  0  0  0  0  0  0  0  0  0  0  0
   38.4113   45.1083   18.3944 H   0  0  0  0  0  0  0  0  0  0  0  0
   38.4206   46.9052   18.0388 H   0  0  0  0  0  0  0  0  0  0  0  0
   36.4590   46.6012   19.2425 H   0  0  0  0  0  0  0  0  0  0  0  0
   35.9418   46.5842   17.4912 H   0  0  0  0  0  0  0  0  0  0  0  0
   37.6190   43.8732   18.8391 H   0  0  0  0  0  0  0  0  0  0  0  0
   35.1467   42.1598   18.5309 H   0  0  0  0  0  0  0  0  0  0  0  0
   34.0388   41.6350   20.2895 H   0  0  0  0  0  0  0  0  0  0  0  0
   33.9181   40.5981   22.4974 H   0  0  0  0  0  0  0  0  0  0  0  0
   35.5018   41.3312   22.9164 H   0  0  0  0  0  0  0  0  0  0  0  0
   34.4322   43.5185   24.6255 H   0  0  0  0  0  0  0  0  0  0  0  0
   36.6417   40.3338   18.3488 H   0  0  0  0  0  0  0  0  0  0  0  0
   37.3635   41.7157   17.3774 H   0  0  0  0  0  0  0  0  0  0  0  0
   40.8865   41.6081   18.3977 H   0  0  0  0  0  0  0  0  0  0  0  0
   38.8821   40.3515   15.7365 H   0  0  0  0  0  0  0  0  0  0  0  0
   40.6452   39.1269   18.5241 H   0  0  0  0  0  0  0  0  0  0  0  0
   39.5335   39.2091   17.0930 H   0  0  0  0  0  0  0  0  0  0  0  0
   41.4182   38.0327   15.5951 H   0  0  0  0  0  0  0  0  0  0  0  0
  1  2  2  0
  2  3  1  0
  2  4  1  0
  4  5  1  0
  4  6  1  0
  6  7  1  0
  7  8  1  0
  8  9  2  0
  8 10  1  0
 10 11  1  0
 11 12  1  0
 11 19  1  0
 12 13  2  0
 12 14  1  0
 14 15  1  0
 15 16  1  0
 16 17  2  0
 16 18  1  0
 19 20  1  0
 20 21  1  0
 21 22  1  0
 21 25  1  0
 22 23  2  0
 22 24  1  0
 25 26  1  0
 26 27  2  0
 26 28  1  0
  3 29  1  0
  4 30  1  0
  5 31  1  0
  5 32  1  0
  6 33  1  0
  6 34  1  0
  7 35  1  0
  7 36  1  0
 10 37  1  0
 11 38  1  0
 14 39  1  0
 15 40  1  0
 15 41  1  0
 18 42  1  0
 19 43  1  0
 19 44  1  0
 21 45  1  0
 24 46  1  0
 25 47  1  0
 25 48  1  0
 28 49  1  0
A    1
OC1
A    2
CO1
A    3
OT1
A    4
CA1
A    5
NN1
A    6
CB1
A    7
CG1
A    8
CD1
A    9
OE1
A   10
NN2
A   11
CA2
A   12
CO2
A   13
OC2
A   14
NN3
A   15
CA3
A   16
CO3
A   17
OC3
A   18
OT3
A   19
CB2
A   20
SG2
A   21
CD2
A   22
CE2
A   23
OE2
A   24
OF2
A   25
CF2
A   26
CH2
A   27
OI2
A   28
OJ2
M  END
