2F38_15M_A_325
     RDKit          3D

 67 68  0  0  0  0  0  0  0  0999 V2000
   25.4460  -11.6840   37.4540 C   0  0  0  0  0  0  0  0  0  0  0  0
   24.0880  -11.1160   37.9410 C   0  0  0  0  0  0  0  0  0  0  0  0
   22.9590  -12.0970   37.5670 C   0  0  0  0  0  0  0  0  0  0  0  0
   21.5580  -11.4500   37.7290 C   0  0  0  0  0  0  0  0  0  0  0  0
   21.1910  -11.1600   39.1600 C   0  0  0  0  0  0  0  0  0  0  0  0
   20.7850  -12.1020   40.0670 C   0  0  0  0  0  0  0  0  0  0  0  0
   20.6680  -13.5730   39.7420 C   0  0  0  0  0  0  0  0  0  0  0  0
   19.2390  -14.2070   39.8770 C   0  0  0  0  0  0  0  0  0  0  0  0
   18.7080  -14.4080   41.3220 C   0  0  0  0  0  0  0  0  0  0  0  0
   17.2810  -13.8290   41.3650 C   0  0  0  0  0  0  0  0  0  0  0  0
   16.8550  -13.5870   39.9140 C   0  0  0  0  0  0  0  0  0  0  0  0
   18.1530  -13.4160   39.1180 C   0  0  0  0  0  0  0  0  0  0  0  0
   18.0000  -13.9600   37.7530 C   0  0  0  0  0  0  0  0  0  0  0  0
   17.8300  -13.1380   36.7180 C   0  0  0  0  0  0  0  0  0  0  0  0
   17.6640  -13.6980   35.3520 C   0  0  0  0  0  0  0  0  0  0  0  0
   18.6320  -13.0020   34.3910 C   0  0  0  0  0  0  0  0  0  0  0  0
   20.0690  -13.5480   34.5710 C   0  0  0  0  0  0  0  0  0  0  0  0
   20.9470  -13.0430   33.4660 C   0  0  0  0  0  0  0  0  0  0  0  0
   21.4020  -11.6890   33.4660 C   0  0  0  0  0  0  0  0  0  0  0  0
   22.2270  -11.2080   32.4170 C   0  0  0  0  0  0  0  0  0  0  0  0
   22.6030  -12.0860   31.3500 C   0  0  0  0  0  0  0  0  0  0  0  0
   22.1560  -13.4400   31.3370 C   0  0  0  0  0  0  0  0  0  0  0  0
   21.3290  -13.9200   32.3980 C   0  0  0  0  0  0  0  0  0  0  0  0
   27.1830  -14.3950   36.6720 C   0  0  0  0  0  0  0  0  0  0  0  0
   27.1650  -13.2760   37.7330 C   0  0  0  0  0  0  0  0  0  0  0  0
   25.9950  -12.7360   38.1070 N   0  0  0  0  0  0  0  0  0  0  0  0
   26.0460  -11.1450   36.4200 O   0  0  0  0  0  0  0  0  0  0  0  0
   19.4940  -13.7400   42.2700 O   0  0  0  0  0  0  0  0  0  0  0  0
   16.0890  -12.4130   39.8220 O   0  0  0  0  0  0  0  0  0  0  0  0
   16.3420  -13.4890   34.8990 O   0  0  0  0  0  0  0  0  0  0  0  0
   24.1148  -10.9864   39.0330 H   0  0  0  0  0  0  0  0  0  0  0  0
   23.9034  -10.1433   37.4616 H   0  0  0  0  0  0  0  0  0  0  0  0
   23.0891  -12.4075   36.5198 H   0  0  0  0  0  0  0  0  0  0  0  0
   23.0176  -12.9612   38.2451 H   0  0  0  0  0  0  0  0  0  0  0  0
   21.5446  -10.5040   37.1678 H   0  0  0  0  0  0  0  0  0  0  0  0
   20.8222  -12.1729   37.3469 H   0  0  0  0  0  0  0  0  0  0  0  0
   21.2535  -10.1162   39.5015 H   0  0  0  0  0  0  0  0  0  0  0  0
   20.5309  -11.7708   41.0847 H   0  0  0  0  0  0  0  0  0  0  0  0
   20.9993  -13.7132   38.7025 H   0  0  0  0  0  0  0  0  0  0  0  0
   21.2874  -14.0875   40.4915 H   0  0  0  0  0  0  0  0  0  0  0  0
   19.4092  -15.1987   39.4325 H   0  0  0  0  0  0  0  0  0  0  0  0
   18.7333  -15.4797   41.5688 H   0  0  0  0  0  0  0  0  0  0  0  0
   16.5971  -14.5439   41.8458 H   0  0  0  0  0  0  0  0  0  0  0  0
   17.2526  -12.8946   41.9447 H   0  0  0  0  0  0  0  0  0  0  0  0
   16.2441  -14.4183   39.5323 H   0  0  0  0  0  0  0  0  0  0  0  0
   18.4176  -12.3524   39.0243 H   0  0  0  0  0  0  0  0  0  0  0  0
   18.0265  -15.0476   37.5904 H   0  0  0  0  0  0  0  0  0  0  0  0
   17.8127  -12.0493   36.8744 H   0  0  0  0  0  0  0  0  0  0  0  0
   17.8752  -14.7771   35.3836 H   0  0  0  0  0  0  0  0  0  0  0  0
   18.3047  -13.1811   33.3562 H   0  0  0  0  0  0  0  0  0  0  0  0
   18.6334  -11.9240   34.6097 H   0  0  0  0  0  0  0  0  0  0  0  0
   20.4692  -13.2105   35.5384 H   0  0  0  0  0  0  0  0  0  0  0  0
   20.0457  -14.6474   34.5423 H   0  0  0  0  0  0  0  0  0  0  0  0
   21.1107  -11.0148   34.2849 H   0  0  0  0  0  0  0  0  0  0  0  0
   22.5764  -10.1650   32.4232 H   0  0  0  0  0  0  0  0  0  0  0  0
   23.2409  -11.7134   30.5350 H   0  0  0  0  0  0  0  0  0  0  0  0
   22.4463  -14.1107   30.5149 H   0  0  0  0  0  0  0  0  0  0  0  0
   20.9845  -14.9646   32.3957 H   0  0  0  0  0  0  0  0  0  0  0  0
   27.1988  -15.3745   37.1724 H   0  0  0  0  0  0  0  0  0  0  0  0
   26.2835  -14.3188   36.0434 H   0  0  0  0  0  0  0  0  0  0  0  0
   28.0796  -14.2899   36.0434 H   0  0  0  0  0  0  0  0  0  0  0  0
   27.6310  -13.6883   38.6401 H   0  0  0  0  0  0  0  0  0  0  0  0
   27.6859  -12.4434   37.2375 H   0  0  0  0  0  0  0  0  0  0  0  0
   25.4984  -13.1343   38.9167 H   0  0  0  0  0  0  0  0  0  0  0  0
   19.1979  -13.9917   43.1805 H   0  0  0  0  0  0  0  0  0  0  0  0
   15.8757  -12.0860   40.7318 H   0  0  0  0  0  0  0  0  0  0  0  0
   15.7377  -13.3935   35.6773 H   0  0  0  0  0  0  0  0  0  0  0  0
  1  2  1  0
  1 26  1  0
  1 27  2  0
  2  3  1  0
  3  4  1  0
  4  5  1  0
  5  6  2  0
  6  7  1  0
  7  8  1  0
  8  9  1  0
  8 12  1  0
  9 10  1  0
  9 28  1  0
 10 11  1  0
 11 12  1  0
 11 29  1  0
 12 13  1  0
 13 14  2  0
 14 15  1  0
 15 16  1  0
 15 30  1  0
 16 17  1  0
 17 18  1  0
 18 19  2  0
 18 23  1  0
 19 20  1  0
 20 21  2  0
 21 22  1  0
 22 23  2  0
 24 25  1  0
 25 26  1  0
  2 31  1  0
  2 32  1  0
  3 33  1  0
  3 34  1  0
  4 35  1  0
  4 36  1  0
  5 37  1  0
  6 38  1  0
  7 39  1  0
  7 40  1  0
  8 41  1  0
  9 42  1  0
 10 43  1  0
 10 44  1  0
 11 45  1  0
 12 46  1  0
 13 47  1  0
 14 48  1  0
 15 49  1  0
 16 50  1  0
 16 51  1  0
 17 52  1  0
 17 53  1  0
 19 54  1  0
 20 55  1  0
 21 56  1  0
 22 57  1  0
 23 58  1  0
 24 59  1  0
 24 60  1  0
 24 61  1  0
 25 62  1  0
 25 63  1  0
 26 64  1  0
 28 65  1  0
 29 66  1  0
 30 67  1  0
A    1
C1
A    2
C2
A    3
C3
A    4
C4
A    5
C5
A    6
C6
A    7
C7
A    8
C8
A    9
C9
A   10
C10
A   11
C11
A   12
C12
A   13
C13
A   14
C14
A   15
C15
A   16
C16
A   17
C17
A   18
C18
A   19
C19
A   20
C20
A   21
C21
A   22
C22
A   23
C23
A   24
C24
A   25
C25
A   26
N
A   27
O1
A   28
O9
A   29
O11
A   30
O15
M  END
