2CDZ_23D_A_1591
     RDKit          3D

 51 54  0  0  0  0  0  0  0  0999 V2000
   41.9710   34.5680   20.1180 C   0  0  0  0  0  0  0  0  0  0  0  0
   40.6860   35.0210   20.4150 C   0  0  0  0  0  0  0  0  0  0  0  0
   39.8820   34.5010   21.8760 Cl  0  0  0  0  0  0  0  0  0  0  0  0
   40.0460   35.9030   19.5480 C   0  0  0  0  0  0  0  0  0  0  0  0
   40.6820   36.3050   18.3890 C   0  0  0  0  0  0  0  0  0  0  0  0
   41.9590   35.8430   18.0990 C   0  0  0  0  0  0  0  0  0  0  0  0
   42.6260   34.9610   18.9470 C   0  0  0  0  0  0  0  0  0  0  0  0
   43.8790   34.5450   18.6130 N   0  0  0  0  0  0  0  0  0  0  0  0
   44.5710   33.6350   19.3020 C   0  0  0  0  0  0  0  0  0  0  0  0
   43.9120   32.8230   20.1050 N   0  0  0  0  0  0  0  0  0  0  0  0
   45.9500   33.4830   19.2240 C   0  0  0  0  0  0  0  0  0  0  0  0
   46.8890   34.1140   18.5260 N   0  0  0  0  0  0  0  0  0  0  0  0
   48.0610   33.5740   18.8240 C   0  0  0  0  0  0  0  0  0  0  0  0
   47.8530   32.5980   19.7120 N   0  0  0  0  0  0  0  0  0  0  0  0
   48.9270   31.7740   20.2810 C   0  0  0  0  0  0  0  0  0  0  0  0
   49.4470   30.8930   19.1620 C   0  0  0  0  0  0  0  0  0  0  0  0
   46.5540   32.4890   19.9960 C   0  0  0  0  0  0  0  0  0  0  0  0
   45.8120   31.6760   20.8080 N   0  0  0  0  0  0  0  0  0  0  0  0
   44.4830   31.8800   20.8520 C   0  0  0  0  0  0  0  0  0  0  0  0
   43.5270   31.2150   21.5050 N   0  0  0  0  0  0  0  0  0  0  0  0
   43.4810   30.4600   22.7580 C   0  0  0  0  0  0  0  0  0  0  0  0
   44.8250   30.2360   23.4270 C   0  0  0  0  0  0  0  0  0  0  0  0
   44.6620   29.3230   24.6610 C   0  0  0  0  0  0  0  0  0  0  0  0
   43.2180   28.8700   24.8820 C   0  0  0  0  0  0  0  0  0  0  0  0
   42.6390   28.2140   23.6150 C   0  0  0  0  0  0  0  0  0  0  0  0
   42.7520   29.1560   22.4060 C   0  0  0  0  0  0  0  0  0  0  0  0
   41.4060   29.5090   21.9380 N   0  0  0  0  0  0  0  0  0  0  0  0
   42.4789   33.8886   20.8183 H   0  0  0  0  0  0  0  0  0  0  0  0
   39.0392   36.2778   19.7846 H   0  0  0  0  0  0  0  0  0  0  0  0
   40.1759   36.9921   17.6949 H   0  0  0  0  0  0  0  0  0  0  0  0
   42.4560   36.1813   17.1778 H   0  0  0  0  0  0  0  0  0  0  0  0
   44.3193   34.9575   17.7782 H   0  0  0  0  0  0  0  0  0  0  0  0
   49.0352   33.8763   18.4123 H   0  0  0  0  0  0  0  0  0  0  0  0
   49.7343   32.4161   20.6630 H   0  0  0  0  0  0  0  0  0  0  0  0
   48.5549   31.1667   21.1193 H   0  0  0  0  0  0  0  0  0  0  0  0
   49.9618   30.0208   19.5912 H   0  0  0  0  0  0  0  0  0  0  0  0
   48.6048   30.5530   18.5415 H   0  0  0  0  0  0  0  0  0  0  0  0
   50.1517   31.4661   18.5415 H   0  0  0  0  0  0  0  0  0  0  0  0
   42.6195   31.2386   21.0185 H   0  0  0  0  0  0  0  0  0  0  0  0
   42.9515   31.0368   23.5306 H   0  0  0  0  0  0  0  0  0  0  0  0
   45.5120   29.7604   22.7116 H   0  0  0  0  0  0  0  0  0  0  0  0
   45.2307   31.2061   23.7500 H   0  0  0  0  0  0  0  0  0  0  0  0
   45.2919   28.4318   24.5234 H   0  0  0  0  0  0  0  0  0  0  0  0
   44.9630   29.9059   25.5439 H   0  0  0  0  0  0  0  0  0  0  0  0
   43.1927   28.1420   25.7063 H   0  0  0  0  0  0  0  0  0  0  0  0
   42.6096   29.7535   25.1253 H   0  0  0  0  0  0  0  0  0  0  0  0
   43.1947   27.2886   23.4031 H   0  0  0  0  0  0  0  0  0  0  0  0
   41.5755   27.9937   23.7893 H   0  0  0  0  0  0  0  0  0  0  0  0
   43.3249   28.6257   21.6310 H   0  0  0  0  0  0  0  0  0  0  0  0
   40.7918   29.6701   22.7490 H   0  0  0  0  0  0  0  0  0  0  0  0
   41.4543   30.3658   21.3683 H   0  0  0  0  0  0  0  0  0  0  0  0
  1  2  2  0
  1  7  1  0
  2  3  1  0
  2  4  1  0
  4  5  2  0
  5  6  1  0
  6  7  2  0
  7  8  1  0
  8  9  1  0
  9 10  2  0
  9 11  1  0
 10 19  1  0
 11 12  1  0
 11 17  2  0
 12 13  2  0
 13 14  1  0
 14 15  1  0
 14 17  1  0
 15 16  1  0
 17 18  1  0
 18 19  2  0
 19 20  1  0
 20 21  1  0
 21 22  1  0
 21 26  1  0
 22 23  1  0
 23 24  1  0
 24 25  1  0
 25 26  1  0
 26 27  1  0
  1 28  1  0
  4 29  1  0
  5 30  1  0
  6 31  1  0
  8 32  1  0
 13 33  1  0
 15 34  1  0
 15 35  1  0
 16 36  1  0
 16 37  1  0
 16 38  1  0
 20 39  1  0
 21 40  1  0
 22 41  1  0
 22 42  1  0
 23 43  1  0
 23 44  1  0
 24 45  1  0
 24 46  1  0
 25 47  1  0
 25 48  1  0
 26 49  1  0
 27 50  1  0
 27 51  1  0
A    1
CAS
A    2
CAQ
A    3
CL1
A    4
CAP
A    5
CAO
A    6
CAN
A    7
CAM
A    8
N6
A    9
C6
A   10
N1
A   11
C5
A   12
N7
A   13
C8
A   14
N9
A   15
CAZ
A   16
CBA
A   17
C4
A   18
N3
A   19
C2
A   20
N2
A   21
CAG
A   22
CAF
A   23
CAE
A   24
CAD
A   25
CAC
A   26
CAA
A   27
NAB
M  END
