2F7R_SK3_A_5009
     RDKit          3D

 34 35  0  0  0  0  0  0  0  0999 V2000
   31.1660   66.0880    9.3840 C   0  0  0  0  0  0  0  0  0  0  0  0
   30.7410   64.9140   10.1680 N   0  0  0  0  0  0  0  0  0  0  0  0
   32.6890   66.2100    9.2730 C   0  0  0  0  0  0  0  0  0  0  0  0
   33.3630   65.0010    9.5860 O   0  0  0  0  0  0  0  0  0  0  0  0
   32.9940   66.6320    7.8250 C   0  0  0  0  0  0  0  0  0  0  0  0
   33.6270   65.6100    7.0610 O   0  0  0  0  0  0  0  0  0  0  0  0
   31.6070   66.9820    7.2930 C   0  0  0  0  0  0  0  0  0  0  0  0
   31.4810   67.0820    5.8940 O   0  0  0  0  0  0  0  0  0  0  0  0
   30.6080   66.0520    7.9710 C   0  0  0  0  0  0  0  0  0  0  0  0
   30.5290   64.7760    7.3920 O   0  0  0  0  0  0  0  0  0  0  0  0
   29.3570   65.0710   10.6230 C   0  0  0  0  0  0  0  0  0  0  0  0
   28.7790   63.9150   11.4650 C   0  0  0  0  0  0  0  0  0  0  0  0
   28.8370   64.0190   12.8490 C   0  0  0  0  0  0  0  0  0  0  0  0
   28.3020   62.8980   13.4950 C   0  0  0  0  0  0  0  0  0  0  0  0
   28.3100   62.9210   10.5900 C   0  0  0  0  0  0  0  0  0  0  0  0
   27.7920   61.8130   11.3060 C   0  0  0  0  0  0  0  0  0  0  0  0
   27.8110   61.8540   12.7060 C   0  0  0  0  0  0  0  0  0  0  0  0
   30.7698   66.9541    9.9344 H   0  0  0  0  0  0  0  0  0  0  0  0
   30.8104   64.0712    9.5800 H   0  0  0  0  0  0  0  0  0  0  0  0
   33.0504   66.9499   10.0024 H   0  0  0  0  0  0  0  0  0  0  0  0
   33.4195   64.8997   10.5692 H   0  0  0  0  0  0  0  0  0  0  0  0
   33.7145   67.4610    7.7640 H   0  0  0  0  0  0  0  0  0  0  0  0
   34.0373   64.9476    7.6718 H   0  0  0  0  0  0  0  0  0  0  0  0
   31.3848   68.0246    7.5643 H   0  0  0  0  0  0  0  0  0  0  0  0
   30.7252   67.6819    5.6728 H   0  0  0  0  0  0  0  0  0  0  0  0
   29.5528   66.3526    7.8919 H   0  0  0  0  0  0  0  0  0  0  0  0
   30.4866   64.0916    8.1061 H   0  0  0  0  0  0  0  0  0  0  0  0
   29.3058   65.9864   11.2308 H   0  0  0  0  0  0  0  0  0  0  0  0
   28.7486   65.0993    9.7070 H   0  0  0  0  0  0  0  0  0  0  0  0
   29.2570   64.8866   13.3790 H   0  0  0  0  0  0  0  0  0  0  0  0
   28.2690   62.8405   14.5930 H   0  0  0  0  0  0  0  0  0  0  0  0
   28.3408   62.9932    9.4928 H   0  0  0  0  0  0  0  0  0  0  0  0
   27.3843   60.9406   10.7743 H   0  0  0  0  0  0  0  0  0  0  0  0
   27.4003   60.9813   13.2349 H   0  0  0  0  0  0  0  0  0  0  0  0
  1  2  1  0
  1  3  1  0
  1  9  1  0
  2 11  1  0
  3  4  1  0
  3  5  1  0
  5  6  1  0
  5  7  1  0
  7  8  1  0
  7  9  1  0
  9 10  1  0
 11 12  1  0
 12 13  2  0
 12 15  1  0
 13 14  1  0
 14 17  2  0
 15 16  2  0
 16 17  1  0
  1 18  1  0
  2 19  1  0
  3 20  1  0
  4 21  1  0
  5 22  1  0
  6 23  1  0
  7 24  1  0
  8 25  1  0
  9 26  1  0
 10 27  1  0
 11 28  1  0
 11 29  1  0
 13 30  1  0
 14 31  1  0
 15 32  1  0
 16 33  1  0
 17 34  1  0
A    1
C5
A    2
N5
A    3
C4
A    4
O4
A    5
C3
A    6
O3
A    7
C2
A    8
O2
A    9
C1
A   10
O1
A   11
C6
A   12
C7
A   13
C12
A   14
C11
A   15
C8
A   16
C9
A   17
C10
M  END
