2FAF_20S_B_1001
     RDKit          3D

 68 69  0  0  0  0  0  0  0  0999 V2000
   21.3620  -56.5520   40.8020 C   0  0  0  0  0  0  0  0  0  0  0  0
   22.8470  -56.6630   40.5430 C   0  0  0  0  0  0  0  0  0  0  0  0
   23.4950  -55.2940   40.7800 C   0  0  0  0  0  0  0  0  0  0  0  0
   23.4040  -54.9210   42.2520 C   0  0  0  0  0  0  0  0  0  0  0  0
   23.7820  -53.4710   42.4520 C   0  0  0  0  0  0  0  0  0  0  0  0
   22.9110  -52.5780   42.2860 C   0  0  0  0  0  0  0  0  0  0  0  0
   21.9800  -51.7680   42.0840 C   0  0  0  0  0  0  0  0  0  0  0  0
   15.7850  -52.6650   41.9360 C   0  0  0  0  0  0  0  0  0  0  0  0
   14.8980  -51.8860   40.9810 C   0  0  0  0  0  0  0  0  0  0  0  0
   15.8520  -50.7460   40.6110 C   0  0  0  0  0  0  0  0  0  0  0  0
   17.2110  -51.4450   40.5310 C   0  0  0  0  0  0  0  0  0  0  0  0
   17.0990  -52.6210   41.3430 O   0  0  0  0  0  0  0  0  0  0  0  0
   13.7550  -51.3080   41.6420 O   0  0  0  0  0  0  0  0  0  0  0  0
   15.4330  -54.1210   42.2260 C   0  0  0  0  0  0  0  0  0  0  0  0
   14.5600  -54.6350   41.2340 O   0  0  0  0  0  0  0  0  0  0  0  0
   18.3590  -50.5870   41.0610 C   0  0  0  0  0  0  0  0  0  0  0  0
   18.3900  -49.3280   40.3670 O   0  0  0  0  0  0  0  0  0  0  0  0
   15.5100  -50.1400   39.3570 O   0  0  0  0  0  0  0  0  0  0  0  0
   18.7190  -52.1820   38.7120 C   0  0  0  0  0  0  0  0  0  0  0  0
   18.6330  -52.5880   37.2300 C   0  0  0  0  0  0  0  0  0  0  0  0
   18.0410  -53.9860   37.0110 C   0  0  0  0  0  0  0  0  0  0  0  0
   18.7300  -54.9800   37.9440 C   0  0  0  0  0  0  0  0  0  0  0  0
   18.6250  -54.4530   39.3700 C   0  0  0  0  0  0  0  0  0  0  0  0
   17.8830  -51.6170   36.4680 O   0  0  0  0  0  0  0  0  0  0  0  0
   18.2030  -54.4120   35.6400 O   0  0  0  0  0  0  0  0  0  0  0  0
   18.1570  -56.3070   37.8340 O   0  0  0  0  0  0  0  0  0  0  0  0
   19.3410  -53.2100   39.4810 O   0  0  0  0  0  0  0  0  0  0  0  0
   17.3790  -51.8970   39.1660 O   0  0  0  0  0  0  0  0  0  0  0  0
   19.2020  -55.4120   40.3920 C   0  0  0  0  0  0  0  0  0  0  0  0
   20.6050  -55.5140   40.1450 O   0  0  0  0  0  0  0  0  0  0  0  0
   22.1780  -50.2890   42.3130 C   0  0  0  0  0  0  0  0  0  0  0  0
   20.7620  -57.3070   41.5630 O   0  0  0  0  0  0  0  0  0  0  0  0
   23.2870  -57.4034   41.2272 H   0  0  0  0  0  0  0  0  0  0  0  0
   23.0219  -56.9840   39.5055 H   0  0  0  0  0  0  0  0  0  0  0  0
   24.5524  -55.3350   40.4797 H   0  0  0  0  0  0  0  0  0  0  0  0
   22.9657  -54.5367   40.1831 H   0  0  0  0  0  0  0  0  0  0  0  0
   22.3735  -55.0787   42.6029 H   0  0  0  0  0  0  0  0  0  0  0  0
   24.0988  -55.5533   42.8242 H   0  0  0  0  0  0  0  0  0  0  0  0
   24.1474  -53.3744   43.4850 H   0  0  0  0  0  0  0  0  0  0  0  0
   24.5082  -53.2784   41.6485 H   0  0  0  0  0  0  0  0  0  0  0  0
   22.9925  -52.2645   43.3372 H   0  0  0  0  0  0  0  0  0  0  0  0
   23.2833  -52.4045   41.2656 H   0  0  0  0  0  0  0  0  0  0  0  0
   21.6851  -51.8855   41.0308 H   0  0  0  0  0  0  0  0  0  0  0  0
   21.2485  -52.0390   42.8596 H   0  0  0  0  0  0  0  0  0  0  0  0
   15.6735  -52.1889   42.9213 H   0  0  0  0  0  0  0  0  0  0  0  0
   14.4966  -52.4990   40.1606 H   0  0  0  0  0  0  0  0  0  0  0  0
   15.8236  -49.9206   41.3375 H   0  0  0  0  0  0  0  0  0  0  0  0
   13.8753  -51.3688   42.6228 H   0  0  0  0  0  0  0  0  0  0  0  0
   16.3559  -54.7194   42.2394 H   0  0  0  0  0  0  0  0  0  0  0  0
   14.9281  -54.1741   43.2019 H   0  0  0  0  0  0  0  0  0  0  0  0
   13.7941  -55.0860   41.6700 H   0  0  0  0  0  0  0  0  0  0  0  0
   18.2136  -50.4072   42.1364 H   0  0  0  0  0  0  0  0  0  0  0  0
   19.3105  -51.1142   40.8974 H   0  0  0  0  0  0  0  0  0  0  0  0
   18.4082  -48.5887   41.0252 H   0  0  0  0  0  0  0  0  0  0  0  0
   15.0302  -49.2898   39.5213 H   0  0  0  0  0  0  0  0  0  0  0  0
   19.3438  -51.2853   38.8366 H   0  0  0  0  0  0  0  0  0  0  0  0
   19.6726  -52.6182   36.8719 H   0  0  0  0  0  0  0  0  0  0  0  0
   16.9643  -53.9472   37.2326 H   0  0  0  0  0  0  0  0  0  0  0  0
   19.7875  -55.0738   37.6562 H   0  0  0  0  0  0  0  0  0  0  0  0
   17.5528  -54.3232   39.5786 H   0  0  0  0  0  0  0  0  0  0  0  0
   17.4106  -51.0054   37.0868 H   0  0  0  0  0  0  0  0  0  0  0  0
   18.5548  -55.3372   35.6213 H   0  0  0  0  0  0  0  0  0  0  0  0
   17.9985  -56.6741   38.7397 H   0  0  0  0  0  0  0  0  0  0  0  0
   19.0270  -55.0276   41.4077 H   0  0  0  0  0  0  0  0  0  0  0  0
   18.7226  -56.3986   40.3096 H   0  0  0  0  0  0  0  0  0  0  0  0
   22.2052  -50.0857   43.3937 H   0  0  0  0  0  0  0  0  0  0  0  0
   23.1267  -49.9710   41.8561 H   0  0  0  0  0  0  0  0  0  0  0  0
   21.3463  -49.7326   41.8561 H   0  0  0  0  0  0  0  0  0  0  0  0
  1  2  1  0
  1 30  1  0
  1 32  2  0
  2  3  1  0
  3  4  1  0
  4  5  1  0
  5  6  1  0
  6  7  1  0
  7 31  1  0
  8  9  1  0
  8 12  1  0
  8 14  1  0
  9 10  1  0
  9 13  1  0
 10 11  1  0
 10 18  1  0
 11 12  1  0
 11 16  1  0
 11 28  1  0
 14 15  1  0
 16 17  1  0
 19 20  1  0
 19 27  1  0
 19 28  1  0
 20 21  1  0
 20 24  1  0
 21 22  1  0
 21 25  1  0
 22 23  1  0
 22 26  1  0
 23 27  1  0
 23 29  1  0
 29 30  1  0
  2 33  1  0
  2 34  1  0
  3 35  1  0
  3 36  1  0
  4 37  1  0
  4 38  1  0
  5 39  1  0
  5 40  1  0
  6 41  1  0
  6 42  1  0
  7 43  1  0
  7 44  1  0
  8 45  1  0
  9 46  1  0
 10 47  1  0
 13 48  1  0
 14 49  1  0
 14 50  1  0
 15 51  1  0
 16 52  1  0
 16 53  1  0
 17 54  1  0
 18 55  1  0
 19 56  1  0
 20 57  1  0
 21 58  1  0
 22 59  1  0
 23 60  1  0
 24 61  1  0
 25 62  1  0
 26 63  1  0
 29 64  1  0
 29 65  1  0
 31 66  1  0
 31 67  1  0
 31 68  1  0
A    1
C4
A    2
C7
A    3
C8
A    4
C9
A    5
C10
A    6
C11
A    7
C12
A    8
C1
A    9
C2
A   10
C3
A   11
C13
A   12
O2
A   13
O4
A   14
C17
A   15
O1
A   16
C18
A   17
O3
A   18
O5
A   19
C21
A   20
C24
A   21
C27
A   22
C16
A   23
C29
A   24
O9
A   25
O11
A   26
O13
A   27
O15
A   28
O6
A   29
C32
A   30
O17
A   31
C31
A   32
O7
M  END
