2FB8_215_A_102
     RDKit          3D

 61 65  0  0  0  0  0  0  0  0999 V2000
  -40.2150   28.1860   -1.2220 C   0  0  0  0  0  0  0  0  0  0  0  0
  -40.0400   30.3740   -1.0660 C   0  0  0  0  0  0  0  0  0  0  0  0
  -40.3950   31.8590   -1.0180 C   0  0  0  0  0  0  0  0  0  0  0  0
  -41.7370   32.3100   -0.9810 C   0  0  0  0  0  0  0  0  0  0  0  0
  -41.1560   37.0120    0.2430 C   0  0  0  0  0  0  0  0  0  0  0  0
  -41.9050   22.3800   -0.0430 C   0  0  0  0  0  0  0  0  0  0  0  0
  -42.5880   22.9610   -1.2680 C   0  0  0  0  0  0  0  0  0  0  0  0
  -44.0520   22.6690   -3.0790 O   0  0  0  0  0  0  0  0  0  0  0  0
  -43.4000   22.2460   -1.9310 N   0  0  0  0  0  0  0  0  0  0  0  0
  -40.9450   23.4730    0.4440 C   0  0  0  0  0  0  0  0  0  0  0  0
  -41.1920   24.6410   -0.5050 C   0  0  0  0  0  0  0  0  0  0  0  0
  -40.5810   25.8900   -0.4460 C   0  0  0  0  0  0  0  0  0  0  0  0
  -42.1260   24.3710   -1.4790 C   0  0  0  0  0  0  0  0  0  0  0  0
  -42.4830   25.3530   -2.4220 C   0  0  0  0  0  0  0  0  0  0  0  0
  -41.8510   26.6170   -2.3630 C   0  0  0  0  0  0  0  0  0  0  0  0
  -40.8810   26.8680   -1.3890 C   0  0  0  0  0  0  0  0  0  0  0  0
  -38.8780   28.4470   -0.9090 C   0  0  0  0  0  0  0  0  0  0  0  0
  -37.7210   27.4730   -0.6630 C   0  0  0  0  0  0  0  0  0  0  0  0
  -37.7670   26.1150   -1.0170 C   0  0  0  0  0  0  0  0  0  0  0  0
  -36.7040   25.2790   -0.7270 C   0  0  0  0  0  0  0  0  0  0  0  0
  -35.6290   25.7380   -0.0900 N   0  0  0  0  0  0  0  0  0  0  0  0
  -35.5430   27.0090    0.2830 C   0  0  0  0  0  0  0  0  0  0  0  0
  -36.5820   27.8980    0.0210 C   0  0  0  0  0  0  0  0  0  0  0  0
  -40.8830   29.3550   -1.3000 N   0  0  0  0  0  0  0  0  0  0  0  0
  -38.8260   29.7950   -0.8210 N   0  0  0  0  0  0  0  0  0  0  0  0
  -42.0980   33.6850   -0.9090 C   0  0  0  0  0  0  0  0  0  0  0  0
  -41.0950   34.6630   -0.8070 C   0  0  0  0  0  0  0  0  0  0  0  0
  -39.7560   34.1980   -0.8300 C   0  0  0  0  0  0  0  0  0  0  0  0
  -39.4040   32.8330   -0.9160 C   0  0  0  0  0  0  0  0  0  0  0  0
  -41.3980   36.0270   -0.7640 O   0  0  0  0  0  0  0  0  0  0  0  0
  -42.3800   37.9000    0.0650 C   0  0  0  0  0  0  0  0  0  0  0  0
  -43.6490   37.3560    0.6590 N   0  0  0  0  0  0  0  0  0  0  0  0
  -44.5760   36.5610   -0.2100 C   0  0  0  0  0  0  0  0  0  0  0  0
  -43.3550   36.6260    1.9160 C   0  0  0  0  0  0  0  0  0  0  0  0
  -42.5410   31.5598   -1.0093 H   0  0  0  0  0  0  0  0  0  0  0  0
  -41.1214   36.5653    1.2476 H   0  0  0  0  0  0  0  0  0  0  0  0
  -40.1932   37.5356    0.1491 H   0  0  0  0  0  0  0  0  0  0  0  0
  -42.6458   22.1436    0.7350 H   0  0  0  0  0  0  0  0  0  0  0  0
  -41.3759   21.4439   -0.2747 H   0  0  0  0  0  0  0  0  0  0  0  0
  -44.8804   23.2064   -3.0083 H   0  0  0  0  0  0  0  0  0  0  0  0
  -41.1736   23.7586    1.4814 H   0  0  0  0  0  0  0  0  0  0  0  0
  -39.8957   23.1430    0.4405 H   0  0  0  0  0  0  0  0  0  0  0  0
  -39.8554   26.1056    0.3522 H   0  0  0  0  0  0  0  0  0  0  0  0
  -43.2402   25.1412   -3.1913 H   0  0  0  0  0  0  0  0  0  0  0  0
  -42.1230   27.4022   -3.0837 H   0  0  0  0  0  0  0  0  0  0  0  0
  -38.6543   25.7134   -1.5283 H   0  0  0  0  0  0  0  0  0  0  0  0
  -36.7474   24.2215   -1.0265 H   0  0  0  0  0  0  0  0  0  0  0  0
  -34.6417   27.3635    0.8044 H   0  0  0  0  0  0  0  0  0  0  0  0
  -36.5041   28.9429    0.3558 H   0  0  0  0  0  0  0  0  0  0  0  0
  -37.9715   30.3241   -0.5957 H   0  0  0  0  0  0  0  0  0  0  0  0
  -43.1574   33.9802   -0.9331 H   0  0  0  0  0  0  0  0  0  0  0  0
  -38.9467   34.9412   -0.7780 H   0  0  0  0  0  0  0  0  0  0  0  0
  -38.3444   32.5380   -0.9024 H   0  0  0  0  0  0  0  0  0  0  0  0
  -42.1698   38.8704    0.5385 H   0  0  0  0  0  0  0  0  0  0  0  0
  -42.5533   37.9724   -1.0188 H   0  0  0  0  0  0  0  0  0  0  0  0
  -45.2592   35.9751    0.4224 H   0  0  0  0  0  0  0  0  0  0  0  0
  -45.1593   37.2440   -0.8451 H   0  0  0  0  0  0  0  0  0  0  0  0
  -43.9899   35.8805   -0.8451 H   0  0  0  0  0  0  0  0  0  0  0  0
  -43.6107   37.2609    2.7771 H   0  0  0  0  0  0  0  0  0  0  0  0
  -43.9512   35.7023    1.9516 H   0  0  0  0  0  0  0  0  0  0  0  0
  -42.2850   36.3734    1.9516 H   0  0  0  0  0  0  0  0  0  0  0  0
  1 16  1  0
  1 17  2  0
  1 24  1  0
  2  3  1  0
  2 24  2  0
  2 25  1  0
  3  4  2  0
  3 29  1  0
  4 26  1  0
  5 30  1  0
  5 31  1  0
  6  7  1  0
  6 10  1  0
  7  9  2  0
  7 13  1  0
  8  9  1  0
 10 11  1  0
 11 12  1  0
 11 13  2  0
 12 16  2  0
 13 14  1  0
 14 15  2  0
 15 16  1  0
 17 18  1  0
 17 25  1  0
 18 19  2  0
 18 23  1  0
 19 20  1  0
 20 21  2  0
 21 22  1  0
 22 23  2  0
 26 27  2  0
 27 28  1  0
 27 30  1  0
 28 29  2  0
 31 32  1  0
 32 33  1  0
 32 34  1  0
  4 35  1  0
  5 36  1  0
  5 37  1  0
  6 38  1  0
  6 39  1  0
  8 40  1  0
 10 41  1  0
 10 42  1  0
 12 43  1  0
 14 44  1  0
 15 45  1  0
 19 46  1  0
 20 47  1  0
 22 48  1  0
 23 49  1  0
 25 50  1  0
 26 51  1  0
 28 52  1  0
 29 53  1  0
 31 54  1  0
 31 55  1  0
 33 56  1  0
 33 57  1  0
 33 58  1  0
 34 59  1  0
 34 60  1  0
 34 61  1  0
A    1
C3
A    2
C5
A    3
C6
A    4
C21
A    5
C23
A    6
C31
A    7
C32
A    8
O34
A    9
N33
A   10
C30
A   11
C29
A   12
C9
A   13
C28
A   14
C10
A   15
C11
A   16
C8
A   17
C2
A   18
C7
A   19
C16
A   20
C15
A   21
N14
A   22
C13
A   23
C12
A   24
N4
A   25
N1
A   26
C20
A   27
C19
A   28
C18
A   29
C17
A   30
O22
A   31
C24
A   32
N25
A   33
C27
A   34
C26
M  END
