2FDU_D1G_A_501
     RDKit          3D

 29 30  0  0  0  0  0  0  0  0999 V2000
   56.0800   77.5020   60.5660 C   0  0  0  0  0  0  0  0  0  0  0  0
   56.5120   76.1540   60.8440 C   0  0  0  0  0  0  0  0  0  0  0  0
   57.8580   75.9290   61.1990 C   0  0  0  0  0  0  0  0  0  0  0  0
   58.7390   77.0660   61.2700 C   0  0  0  0  0  0  0  0  0  0  0  0
   58.3320   78.3220   61.0060 N   0  0  0  0  0  0  0  0  0  0  0  0
   57.0420   78.5430   60.6630 C   0  0  0  0  0  0  0  0  0  0  0  0
   54.7500   77.7860   60.2090 C   0  0  0  0  0  0  0  0  0  0  0  0
   53.6470   76.9970   60.0410 C   0  0  0  0  0  0  0  0  0  0  0  0
   52.5620   77.8640   59.6730 C   0  0  0  0  0  0  0  0  0  0  0  0
   53.0890   79.1440   59.6370 C   0  0  0  0  0  0  0  0  0  0  0  0
   54.4210   79.1370   59.9570 O   0  0  0  0  0  0  0  0  0  0  0  0
   52.4880   80.4590   59.2950 C   0  0  0  0  0  0  0  0  0  0  0  0
   52.7740   80.8910   57.9150 N   0  0  0  0  0  0  0  0  0  0  0  0
   54.1610   81.0130   57.7150 C   0  0  0  0  0  0  0  0  0  0  0  0
   52.2540   80.0130   56.9250 C   0  0  0  0  0  0  0  0  0  0  0  0
   55.8030   75.3154   60.7801 H   0  0  0  0  0  0  0  0  0  0  0  0
   58.2244   74.9146   61.4154 H   0  0  0  0  0  0  0  0  0  0  0  0
   59.7894   76.9013   61.5520 H   0  0  0  0  0  0  0  0  0  0  0  0
   56.7240   79.5742   60.4498 H   0  0  0  0  0  0  0  0  0  0  0  0
   53.5989   75.9050   60.1642 H   0  0  0  0  0  0  0  0  0  0  0  0
   51.5230   77.5704   59.4625 H   0  0  0  0  0  0  0  0  0  0  0  0
   51.3974   80.3870   59.4191 H   0  0  0  0  0  0  0  0  0  0  0  0
   52.9342   81.2055   59.9685 H   0  0  0  0  0  0  0  0  0  0  0  0
   54.6694   81.0577   58.6894 H   0  0  0  0  0  0  0  0  0  0  0  0
   54.5278   80.1437   57.1496 H   0  0  0  0  0  0  0  0  0  0  0  0
   54.3704   81.9330   57.1496 H   0  0  0  0  0  0  0  0  0  0  0  0
   51.7519   79.1652   57.4140 H   0  0  0  0  0  0  0  0  0  0  0  0
   51.5311   80.5549   56.2975 H   0  0  0  0  0  0  0  0  0  0  0  0
   53.0767   79.6396   56.2975 H   0  0  0  0  0  0  0  0  0  0  0  0
  1  2  2  0
  1  6  1  0
  1  7  1  0
  2  3  1  0
  3  4  2  0
  4  5  1  0
  5  6  2  0
  7  8  2  0
  7 11  1  0
  8  9  1  0
  9 10  2  0
 10 11  1  0
 10 12  1  0
 12 13  1  0
 13 14  1  0
 13 15  1  0
  2 16  1  0
  3 17  1  0
  4 18  1  0
  6 19  1  0
  8 20  1  0
  9 21  1  0
 12 22  1  0
 12 23  1  0
 14 24  1  0
 14 25  1  0
 14 26  1  0
 15 27  1  0
 15 28  1  0
 15 29  1  0
A    1
C_1
A    2
C_2
A    3
C_3
A    4
C_4
A    5
N_1
A    6
C_5
A    7
C_6
A    8
C_7
A    9
C_8
A   10
C_9
A   11
O_1
A   12
C10
A   13
N_2
A   14
C11
A   15
C12
M  END
