2FDW_D3G_A_501
     RDKit          3D

 23 24  0  0  0  0  0  0  0  0999 V2000
   56.4930   76.2930   60.8580 C   0  0  0  0  0  0  0  0  0  0  0  0
   57.7780   76.1240   61.4300 C   0  0  0  0  0  0  0  0  0  0  0  0
   58.5890   77.2810   61.6180 C   0  0  0  0  0  0  0  0  0  0  0  0
   58.1820   78.5470   61.2740 N   0  0  0  0  0  0  0  0  0  0  0  0
   56.9430   78.7050   60.7250 C   0  0  0  0  0  0  0  0  0  0  0  0
   56.0440   77.6050   60.4890 C   0  0  0  0  0  0  0  0  0  0  0  0
   54.7410   77.8060   59.9030 C   0  0  0  0  0  0  0  0  0  0  0  0
   53.7010   76.9490   59.5660 C   0  0  0  0  0  0  0  0  0  0  0  0
   52.6480   77.7600   59.0120 C   0  0  0  0  0  0  0  0  0  0  0  0
   53.0990   79.0620   59.0400 C   0  0  0  0  0  0  0  0  0  0  0  0
   54.3850   79.1190   59.5820 O   0  0  0  0  0  0  0  0  0  0  0  0
   52.5170   80.3640   58.6300 C   0  0  0  0  0  0  0  0  0  0  0  0
   53.2450   81.1330   57.6470 N   0  0  0  0  0  0  0  0  0  0  0  0
   55.8416   75.4213   60.6973 H   0  0  0  0  0  0  0  0  0  0  0  0
   58.1401   75.1269   61.7212 H   0  0  0  0  0  0  0  0  0  0  0  0
   59.5884   77.1540   62.0596 H   0  0  0  0  0  0  0  0  0  0  0  0
   56.6159   79.7186   60.4502 H   0  0  0  0  0  0  0  0  0  0  0  0
   53.6849   75.8570   59.6975 H   0  0  0  0  0  0  0  0  0  0  0  0
   51.6743   77.4091   58.6394 H   0  0  0  0  0  0  0  0  0  0  0  0
   51.5164   80.1643   58.2190 H   0  0  0  0  0  0  0  0  0  0  0  0
   52.5329   80.9808   59.5407 H   0  0  0  0  0  0  0  0  0  0  0  0
   53.8722   81.7955   58.1251 H   0  0  0  0  0  0  0  0  0  0  0  0
   53.8016   80.4977   57.0576 H   0  0  0  0  0  0  0  0  0  0  0  0
  1  2  2  0
  1  6  1  0
  2  3  1  0
  3  4  2  0
  4  5  1  0
  5  6  2  0
  6  7  1  0
  7  8  2  0
  7 11  1  0
  8  9  1  0
  9 10  2  0
 10 11  1  0
 10 12  1  0
 12 13  1  0
  1 14  1  0
  2 15  1  0
  3 16  1  0
  5 17  1  0
  8 18  1  0
  9 19  1  0
 12 20  1  0
 12 21  1  0
 13 22  1  0
 13 23  1  0
A    1
C_1
A    2
C_2
A    3
C_3
A    4
N_1
A    5
C_4
A    6
C_5
A    7
C_6
A    8
C_7
A    9
C_8
A   10
C_9
A   11
O_1
A   12
C10
A   13
N_2
M  END
