2FGI_PD1_A_1001
     RDKit          3D

 79 81  0  0  0  0  0  0  0  0999 V2000
    9.7300    6.0540   29.1360 C   0  0  0  0  0  0  0  0  0  0  0  0
   11.1620    5.7790   28.6910 C   0  0  0  0  0  0  0  0  0  0  0  0
   13.0390    4.6910   30.8380 C   0  0  0  0  0  0  0  0  0  0  0  0
   12.8670    4.0160   29.4650 C   0  0  0  0  0  0  0  0  0  0  0  0
   10.8880    3.3130   27.9900 C   0  0  0  0  0  0  0  0  0  0  0  0
   10.4530    3.8870   26.6560 C   0  0  0  0  0  0  0  0  0  0  0  0
    9.4540    2.9910   25.9730 C   0  0  0  0  0  0  0  0  0  0  0  0
    8.9500    3.6270   24.6840 C   0  0  0  0  0  0  0  0  0  0  0  0
    7.1310    3.0720   22.9050 C   0  0  0  0  0  0  0  0  0  0  0  0
    5.7400    2.2150   21.2950 C   0  0  0  0  0  0  0  0  0  0  0  0
    6.0240    3.3180   20.4860 C   0  0  0  0  0  0  0  0  0  0  0  0
    6.9000    4.3240   20.9760 C   0  0  0  0  0  0  0  0  0  0  0  0
    5.4770    3.4670   19.1980 C   0  0  0  0  0  0  0  0  0  0  0  0
    5.8210    4.5680   18.4330 C   0  0  0  0  0  0  0  0  0  0  0  0
    6.6830    5.4990   18.9790 C   0  0  0  0  0  0  0  0  0  0  0  0
    5.2980    4.6730   17.1530 C   0  0  0  0  0  0  0  0  0  0  0  0
    5.8270    3.8790   16.1330 C   0  0  0  0  0  0  0  0  0  0  0  0
    5.3200    3.9650   14.8510 C   0  0  0  0  0  0  0  0  0  0  0  0
    4.2880    4.8070   14.5410 C   0  0  0  0  0  0  0  0  0  0  0  0
    3.7620    5.5890   15.5520 C   0  0  0  0  0  0  0  0  0  0  0  0
    4.2470    5.5340   16.8560 C   0  0  0  0  0  0  0  0  0  0  0  0
    5.0810    2.5360   12.8020 C   0  0  0  0  0  0  0  0  0  0  0  0
    1.7620    6.2110   14.1600 C   0  0  0  0  0  0  0  0  0  0  0  0
    7.9120    7.6430   18.4980 C   0  0  0  0  0  0  0  0  0  0  0  0
    9.2370    8.8210   20.2280 C   0  0  0  0  0  0  0  0  0  0  0  0
   10.5680    8.7190   19.5510 C   0  0  0  0  0  0  0  0  0  0  0  0
    8.6280   10.1930   19.9490 C   0  0  0  0  0  0  0  0  0  0  0  0
    9.4340    8.6440   21.7060 C   0  0  0  0  0  0  0  0  0  0  0  0
   11.4990    4.3260   28.9210 N   0  0  0  0  0  0  0  0  0  0  0  0
    7.7510    2.9590   24.1820 N   0  0  0  0  0  0  0  0  0  0  0  0
    6.3230    2.0940   22.5420 N   0  0  0  0  0  0  0  0  0  0  0  0
    7.4290    4.1450   22.1800 N   0  0  0  0  0  0  0  0  0  0  0  0
    7.1900    5.3550   20.2030 N   0  0  0  0  0  0  0  0  0  0  0  0
    7.0700    6.6520   18.2320 N   0  0  0  0  0  0  0  0  0  0  0  0
    8.3600    7.7640   19.7500 N   0  0  0  0  0  0  0  0  0  0  0  0
    5.8570    3.1510   13.8580 O   0  0  0  0  0  0  0  0  0  0  0  0
    2.6890    6.4300   15.2610 O   0  0  0  0  0  0  0  0  0  0  0  0
    8.2250    8.4490   17.6210 O   0  0  0  0  0  0  0  0  0  0  0  0
    9.6829    6.0630   30.2350 H   0  0  0  0  0  0  0  0  0  0  0  0
    9.4063    7.0307   28.7471 H   0  0  0  0  0  0  0  0  0  0  0  0
    9.0676    5.2667   28.7471 H   0  0  0  0  0  0  0  0  0  0  0  0
   11.2629    6.0123   27.6208 H   0  0  0  0  0  0  0  0  0  0  0  0
   11.8506    6.4081   29.2741 H   0  0  0  0  0  0  0  0  0  0  0  0
   12.8516    3.9555   31.6342 H   0  0  0  0  0  0  0  0  0  0  0  0
   14.0645    5.0781   30.9304 H   0  0  0  0  0  0  0  0  0  0  0  0
   12.3238    5.5216   30.9304 H   0  0  0  0  0  0  0  0  0  0  0  0
   13.6319    4.3955   28.7715 H   0  0  0  0  0  0  0  0  0  0  0  0
   12.9794    2.9273   29.5752 H   0  0  0  0  0  0  0  0  0  0  0  0
   10.0067    2.8770   28.4831 H   0  0  0  0  0  0  0  0  0  0  0  0
   11.6664    2.5655   27.7769 H   0  0  0  0  0  0  0  0  0  0  0  0
    9.9945    4.8729   26.8228 H   0  0  0  0  0  0  0  0  0  0  0  0
   11.3393    3.9735   26.0103 H   0  0  0  0  0  0  0  0  0  0  0  0
    9.9338    2.0296   25.7373 H   0  0  0  0  0  0  0  0  0  0  0  0
    8.5992    2.8369   26.6479 H   0  0  0  0  0  0  0  0  0  0  0  0
    8.7144    4.6840   24.8769 H   0  0  0  0  0  0  0  0  0  0  0  0
    9.7390    3.5303   23.9237 H   0  0  0  0  0  0  0  0  0  0  0  0
    5.0482    1.4382   20.9372 H   0  0  0  0  0  0  0  0  0  0  0  0
    4.7806    2.7134   18.8018 H   0  0  0  0  0  0  0  0  0  0  0  0
    6.6502    3.1828   16.3513 H   0  0  0  0  0  0  0  0  0  0  0  0
    3.8884    4.8603   13.5175 H   0  0  0  0  0  0  0  0  0  0  0  0
    3.8043    6.1639   17.6417 H   0  0  0  0  0  0  0  0  0  0  0  0
    4.2915    1.9103   13.2439 H   0  0  0  0  0  0  0  0  0  0  0  0
    4.6230    3.3191   12.1798 H   0  0  0  0  0  0  0  0  0  0  0  0
    5.7388    1.9113   12.1798 H   0  0  0  0  0  0  0  0  0  0  0  0
    0.7652    5.9755   14.5612 H   0  0  0  0  0  0  0  0  0  0  0  0
    1.7037    7.1201   13.5434 H   0  0  0  0  0  0  0  0  0  0  0  0
    2.1167    5.3719   13.5434 H   0  0  0  0  0  0  0  0  0  0  0  0
   11.3618    8.6582   20.3101 H   0  0  0  0  0  0  0  0  0  0  0  0
   10.5916    7.8164   18.9227 H   0  0  0  0  0  0  0  0  0  0  0  0
   10.7288    9.6075   18.9227 H   0  0  0  0  0  0  0  0  0  0  0  0
    8.4049   10.6957   20.9016 H   0  0  0  0  0  0  0  0  0  0  0  0
    9.3411   10.8003   19.3722 H   0  0  0  0  0  0  0  0  0  0  0  0
    7.6993   10.0715   19.3722 H   0  0  0  0  0  0  0  0  0  0  0  0
    8.7228    9.2830   22.2498 H   0  0  0  0  0  0  0  0  0  0  0  0
    9.2615    7.5916   21.9755 H   0  0  0  0  0  0  0  0  0  0  0  0
   10.4620    8.9277   21.9755 H   0  0  0  0  0  0  0  0  0  0  0  0
    7.2906    2.3176   24.8435 H   0  0  0  0  0  0  0  0  0  0  0  0
    6.6093    6.7296   17.3140 H   0  0  0  0  0  0  0  0  0  0  0  0
    8.0606    7.0521   20.4315 H   0  0  0  0  0  0  0  0  0  0  0  0
  1  2  1  0
  2 29  1  0
  3  4  1  0
  4 29  1  0
  5  6  1  0
  5 29  1  0
  6  7  1  0
  7  8  1  0
  8 30  1  0
  9 30  1  0
  9 31  2  0
  9 32  1  0
 10 11  2  0
 10 31  1  0
 11 12  1  0
 11 13  1  0
 12 32  2  0
 12 33  1  0
 13 14  2  0
 14 15  1  0
 14 16  1  0
 15 33  2  0
 15 34  1  0
 16 17  2  0
 16 21  1  0
 17 18  1  0
 18 19  2  0
 18 36  1  0
 19 20  1  0
 20 21  2  0
 20 37  1  0
 22 36  1  0
 23 37  1  0
 24 34  1  0
 24 35  1  0
 24 38  2  0
 25 26  1  0
 25 27  1  0
 25 28  1  0
 25 35  1  0
  1 39  1  0
  1 40  1  0
  1 41  1  0
  2 42  1  0
  2 43  1  0
  3 44  1  0
  3 45  1  0
  3 46  1  0
  4 47  1  0
  4 48  1  0
  5 49  1  0
  5 50  1  0
  6 51  1  0
  6 52  1  0
  7 53  1  0
  7 54  1  0
  8 55  1  0
  8 56  1  0
 10 57  1  0
 13 58  1  0
 17 59  1  0
 19 60  1  0
 21 61  1  0
 22 62  1  0
 22 63  1  0
 22 64  1  0
 23 65  1  0
 23 66  1  0
 23 67  1  0
 26 68  1  0
 26 69  1  0
 26 70  1  0
 27 71  1  0
 27 72  1  0
 27 73  1  0
 28 74  1  0
 28 75  1  0
 28 76  1  0
 30 77  1  0
 34 78  1  0
 35 79  1  0
A    1
C1
A    2
C2
A    3
C3
A    4
C4
A    5
C5
A    6
C6
A    7
C7
A    8
C8
A    9
C9
A   10
C10
A   11
C11
A   12
C12
A   13
C13
A   14
C14
A   15
C15
A   16
C16
A   17
C17
A   18
C18
A   19
C19
A   20
C20
A   21
C21
A   22
C22
A   23
C23
A   24
C24
A   25
C25
A   26
C26
A   27
C27
A   28
C28
A   29
N1
A   30
N2
A   31
N3
A   32
N4
A   33
N5
A   34
N6
A   35
N7
A   36
O1
A   37
O2
A   38
O3
M  END
