2FIM_3DP_A_1003
     RDKit          3D

 47 46  0  0  0  0  0  0  0  0999 V2000
   77.6580    4.6150   16.0090 C   0  0  0  0  0  0  0  0  0  0  0  0
   76.2020    4.6390   16.4040 C   0  0  0  0  0  0  0  0  0  0  0  0
   75.8330    5.9460   17.0480 C   0  0  0  0  0  0  0  0  0  0  0  0
   74.3760    5.8940   17.4920 C   0  0  0  0  0  0  0  0  0  0  0  0
   73.5900    7.0920   16.9940 C   0  0  0  0  0  0  0  0  0  0  0  0
   73.6390    8.2460   17.9700 C   0  0  0  0  0  0  0  0  0  0  0  0
   72.7610    9.3880   17.4870 C   0  0  0  0  0  0  0  0  0  0  0  0
   73.4720   10.7320   17.5320 C   0  0  0  0  0  0  0  0  0  0  0  0
   72.4890   11.8100   17.3910 N   0  0  0  0  0  0  0  0  0  0  0  0
   71.1340   11.3500   17.7530 C   0  0  0  0  0  0  0  0  0  0  0  0
   72.4780   12.2960   16.0070 C   0  0  0  0  0  0  0  0  0  0  0  0
   72.9020   12.9160   18.2540 C   0  0  0  0  0  0  0  0  0  0  0  0
   73.9820   12.4240   19.2060 C   0  0  0  0  0  0  0  0  0  0  0  0
   73.5900   12.6850   20.6580 C   0  0  0  0  0  0  0  0  0  0  0  0
   74.3430   14.2080   21.2990 S   0  0  0  0  0  0  0  0  0  0  0  0
   74.1900   14.2750   22.6980 O   0  0  0  0  0  0  0  0  0  0  0  0
   75.7930   14.2400   20.9580 O   0  0  0  0  0  0  0  0  0  0  0  0
   73.6590   15.3760   20.6870 O   0  0  0  0  0  0  0  0  0  0  0  0
   78.2833    4.6047   16.9139 H   0  0  0  0  0  0  0  0  0  0  0  0
   77.8613    3.7134   15.4125 H   0  0  0  0  0  0  0  0  0  0  0  0
   77.8909    5.5094   15.4125 H   0  0  0  0  0  0  0  0  0  0  0  0
   75.5843    4.4953   15.5052 H   0  0  0  0  0  0  0  0  0  0  0  0
   76.0256    3.8318   17.1302 H   0  0  0  0  0  0  0  0  0  0  0  0
   76.4777    6.1201   17.9221 H   0  0  0  0  0  0  0  0  0  0  0  0
   75.9696    6.7646   16.3260 H   0  0  0  0  0  0  0  0  0  0  0  0
   73.9159    4.9769   17.0954 H   0  0  0  0  0  0  0  0  0  0  0  0
   74.3541    5.9050   18.5917 H   0  0  0  0  0  0  0  0  0  0  0  0
   74.0138    7.4207   16.0336 H   0  0  0  0  0  0  0  0  0  0  0  0
   72.5394    6.7864   16.8810 H   0  0  0  0  0  0  0  0  0  0  0  0
   73.2812    7.9047   18.9526 H   0  0  0  0  0  0  0  0  0  0  0  0
   74.6766    8.6028   18.0477 H   0  0  0  0  0  0  0  0  0  0  0  0
   72.4575    9.1846   16.4494 H   0  0  0  0  0  0  0  0  0  0  0  0
   71.8925    9.4479   18.1594 H   0  0  0  0  0  0  0  0  0  0  0  0
   73.9963   10.8374   18.4932 H   0  0  0  0  0  0  0  0  0  0  0  0
   74.1996   10.7895   16.7090 H   0  0  0  0  0  0  0  0  0  0  0  0
   71.0383   11.3175   18.8483 H   0  0  0  0  0  0  0  0  0  0  0  0
   70.3883   12.0453   17.3402 H   0  0  0  0  0  0  0  0  0  0  0  0
   70.9657   10.3444   17.3402 H   0  0  0  0  0  0  0  0  0  0  0  0
   72.4531   13.3957   16.0047 H   0  0  0  0  0  0  0  0  0  0  0  0
   73.3842   11.9487   15.4892 H   0  0  0  0  0  0  0  0  0  0  0  0
   71.5884   11.9080   15.4892 H   0  0  0  0  0  0  0  0  0  0  0  0
   73.2990   13.7362   17.6379 H   0  0  0  0  0  0  0  0  0  0  0  0
   72.0383   13.2819   18.8286 H   0  0  0  0  0  0  0  0  0  0  0  0
   74.1249   11.3431   19.0605 H   0  0  0  0  0  0  0  0  0  0  0  0
   74.9137   12.9677   18.9909 H   0  0  0  0  0  0  0  0  0  0  0  0
   72.4955   12.7759   20.7201 H   0  0  0  0  0  0  0  0  0  0  0  0
   73.9530   11.8431   21.2658 H   0  0  0  0  0  0  0  0  0  0  0  0
  1  2  1  0
  2  3  1  0
  3  4  1  0
  4  5  1  0
  5  6  1  0
  6  7  1  0
  7  8  1  0
  8  9  1  0
  9 10  1  0
  9 11  1  0
  9 12  1  0
 12 13  1  0
 13 14  1  0
 14 15  1  0
 15 16  2  0
 15 17  2  0
 15 18  1  0
  1 19  1  0
  1 20  1  0
  1 21  1  0
  2 22  1  0
  2 23  1  0
  3 24  1  0
  3 25  1  0
  4 26  1  0
  4 27  1  0
  5 28  1  0
  5 29  1  0
  6 30  1  0
  6 31  1  0
  7 32  1  0
  7 33  1  0
  8 34  1  0
  8 35  1  0
 10 36  1  0
 10 37  1  0
 10 38  1  0
 11 39  1  0
 11 40  1  0
 11 41  1  0
 12 42  1  0
 12 43  1  0
 13 44  1  0
 13 45  1  0
 14 46  1  0
 14 47  1  0
M  CHG  2   9   1  18  -1
A    1
CAA
A    2
CAG
A    3
CAH
A    4
CAI
A    5
CAJ
A    6
CAK
A    7
CAL
A    8
CAN
A    9
NAQ
A   10
CAB
A   11
CAC
A   12
CAO
A   13
CAM
A   14
CAP
A   15
SAR
A   16
OAF
A   17
OAE
A   18
OAD
M  END
