2FJP_S14_A_1001
     RDKit          3D

 56 59  0  0  0  0  0  0  0  0999 V2000
   47.5750   52.1530   33.8220 C   0  0  0  0  0  0  0  0  0  0  0  0
   46.4920   52.6560   32.9590 C   0  0  0  0  0  0  0  0  0  0  0  0
   45.1990   52.4720   33.3700 C   0  0  0  0  0  0  0  0  0  0  0  0
   44.8740   51.8040   34.6720 C   0  0  0  0  0  0  0  0  0  0  0  0
   45.8940   51.3480   35.4530 C   0  0  0  0  0  0  0  0  0  0  0  0
   47.2840   51.5540   35.0120 N   0  0  0  0  0  0  0  0  0  0  0  0
   48.3290   51.2050   35.5900 N   0  0  0  0  0  0  0  0  0  0  0  0
   49.3290   51.6060   34.7910 C   0  0  0  0  0  0  0  0  0  0  0  0
   48.9020   52.2150   33.6670 N   0  0  0  0  0  0  0  0  0  0  0  0
   43.4820   51.6330   35.1370 C   0  0  0  0  0  0  0  0  0  0  0  0
   42.5980   52.7380   35.0280 C   0  0  0  0  0  0  0  0  0  0  0  0
   41.2820   52.6580   35.4820 C   0  0  0  0  0  0  0  0  0  0  0  0
   40.7780   51.4710   36.0630 C   0  0  0  0  0  0  0  0  0  0  0  0
   41.6620   50.3360   36.1660 C   0  0  0  0  0  0  0  0  0  0  0  0
   43.0040   50.4110   35.7080 C   0  0  0  0  0  0  0  0  0  0  0  0
   39.3180   51.4860   36.5720 C   0  0  0  0  0  0  0  0  0  0  0  0
   38.3460   50.9900   35.4420 C   0  0  0  0  0  0  0  0  0  0  0  0
   36.8970   51.0300   36.0240 C   0  0  0  0  0  0  0  0  0  0  0  0
   36.1220   49.9680   35.7960 N   0  0  0  0  0  0  0  0  0  0  0  0
   39.2940   50.4530   37.7980 C   0  0  0  0  0  0  0  0  0  0  0  0
   38.4220   51.8230   34.2480 N   0  0  0  0  0  0  0  0  0  0  0  0
   36.5100   51.9960   36.6630 O   0  0  0  0  0  0  0  0  0  0  0  0
   38.6650   49.3860   37.8000 O   0  0  0  0  0  0  0  0  0  0  0  0
   39.9030   50.9550   38.9830 N   0  0  0  0  0  0  0  0  0  0  0  0
   39.8980   50.0390   40.1500 C   0  0  0  0  0  0  0  0  0  0  0  0
   40.5090   52.2830   39.1860 C   0  0  0  0  0  0  0  0  0  0  0  0
   36.5690   48.5480   35.4690 C   0  0  0  0  0  0  0  0  0  0  0  0
   35.3620   47.6860   35.5160 C   0  0  0  0  0  0  0  0  0  0  0  0
   34.1870   48.6370   35.5250 C   0  0  0  0  0  0  0  0  0  0  0  0
   34.6860   50.0130   35.9680 C   0  0  0  0  0  0  0  0  0  0  0  0
   35.3670   47.0210   36.7240 F   0  0  0  0  0  0  0  0  0  0  0  0
   46.7161   53.1655   32.0102 H   0  0  0  0  0  0  0  0  0  0  0  0
   44.3776   52.8234   32.7283 H   0  0  0  0  0  0  0  0  0  0  0  0
   45.6814   50.8324   36.4011 H   0  0  0  0  0  0  0  0  0  0  0  0
   50.3919   51.4530   35.0294 H   0  0  0  0  0  0  0  0  0  0  0  0
   42.9576   53.6747   34.5771 H   0  0  0  0  0  0  0  0  0  0  0  0
   40.6237   53.5341   35.3865 H   0  0  0  0  0  0  0  0  0  0  0  0
   41.2911   49.3985   36.6058 H   0  0  0  0  0  0  0  0  0  0  0  0
   43.6692   49.5389   35.7913 H   0  0  0  0  0  0  0  0  0  0  0  0
   38.9949   52.4951   36.8674 H   0  0  0  0  0  0  0  0  0  0  0  0
   38.6322   49.9724   35.1377 H   0  0  0  0  0  0  0  0  0  0  0  0
   38.5122   52.8112   34.5240 H   0  0  0  0  0  0  0  0  0  0  0  0
   39.2413   51.5467   33.6882 H   0  0  0  0  0  0  0  0  0  0  0  0
   39.9012   50.6284   41.0788 H   0  0  0  0  0  0  0  0  0  0  0  0
   38.9964   49.4096   40.1183 H   0  0  0  0  0  0  0  0  0  0  0  0
   40.7927   49.3998   40.1183 H   0  0  0  0  0  0  0  0  0  0  0  0
   40.6005   52.4834   40.2637 H   0  0  0  0  0  0  0  0  0  0  0  0
   41.5065   52.3055   38.7229 H   0  0  0  0  0  0  0  0  0  0  0  0
   39.8723   53.0512   38.7229 H   0  0  0  0  0  0  0  0  0  0  0  0
   37.0163   48.5156   34.4646 H   0  0  0  0  0  0  0  0  0  0  0  0
   37.3248   48.2011   36.1890 H   0  0  0  0  0  0  0  0  0  0  0  0
   35.3230   46.9712   34.6808 H   0  0  0  0  0  0  0  0  0  0  0  0
   33.7559   48.7051   34.5153 H   0  0  0  0  0  0  0  0  0  0  0  0
   33.4116   48.2747   36.2160 H   0  0  0  0  0  0  0  0  0  0  0  0
   34.4291   50.1958   37.0218 H   0  0  0  0  0  0  0  0  0  0  0  0
   34.2268   50.8247   35.3847 H   0  0  0  0  0  0  0  0  0  0  0  0
  1  2  1  0
  1  6  1  0
  1  9  2  0
  2  3  2  0
  3  4  1  0
  4  5  2  0
  4 10  1  0
  5  6  1  0
  6  7  1  0
  7  8  2  0
  8  9  1  0
 10 11  2  0
 10 15  1  0
 11 12  1  0
 12 13  2  0
 13 14  1  0
 13 16  1  0
 14 15  2  0
 16 17  1  0
 16 20  1  0
 17 18  1  0
 17 21  1  0
 18 19  1  0
 18 22  2  0
 19 27  1  0
 19 30  1  0
 20 23  2  0
 20 24  1  0
 24 25  1  0
 24 26  1  0
 27 28  1  0
 28 29  1  0
 28 31  1  0
 29 30  1  0
  2 32  1  0
  3 33  1  0
  5 34  1  0
  8 35  1  0
 11 36  1  0
 12 37  1  0
 14 38  1  0
 15 39  1  0
 16 40  1  0
 17 41  1  0
 21 42  1  0
 21 43  1  0
 25 44  1  0
 25 45  1  0
 25 46  1  0
 26 47  1  0
 26 48  1  0
 26 49  1  0
 27 50  1  0
 27 51  1  0
 28 52  1  0
 29 53  1  0
 29 54  1  0
 30 55  1  0
 30 56  1  0
A    1
C1
A    2
C2
A    3
C3
A    4
C4
A    5
C5
A    6
N6
A    7
N7
A    8
C8
A    9
N9
A   10
C14
A   11
C15
A   12
C16
A   13
C17
A   14
C18
A   15
C19
A   16
C24
A   17
C25
A   18
C26
A   19
N27
A   20
C28
A   21
N30
A   22
O32
A   23
O33
A   24
N34
A   25
C35
A   26
C39
A   27
C43
A   28
C44
A   29
C45
A   30
C46
A   31
F53
M  END
