2FKY_N2T_A_604
     RDKit          3D

 54 57  0  0  0  0  0  0  0  0999 V2000
   22.0270   16.3490  105.6450 C   0  0  0  0  0  0  0  0  0  0  0  0
   20.9050   16.1340  106.4990 C   0  0  0  0  0  0  0  0  0  0  0  0
   20.9060   14.9220  107.2920 C   0  0  0  0  0  0  0  0  0  0  0  0
   22.0270   14.0560  107.1950 C   0  0  0  0  0  0  0  0  0  0  0  0
   23.1530   14.2680  106.3120 C   0  0  0  0  0  0  0  0  0  0  0  0
   23.1200   15.4480  105.5060 C   0  0  0  0  0  0  0  0  0  0  0  0
   19.7310   14.6070  108.1400 C   0  0  0  0  0  0  0  0  0  0  0  0
   18.5190   15.4940  108.1760 C   0  0  0  0  0  0  0  0  0  0  0  0
   17.7860   15.0500  109.3940 N   0  0  0  0  0  0  0  0  0  0  0  0
   18.4430   13.9430  110.0540 C   0  0  0  0  0  0  0  0  0  0  0  0
   19.5280   13.5160  109.1100 C   0  0  0  0  0  0  0  0  0  0  0  0
   18.3550   13.5460  111.4860 C   0  0  0  0  0  0  0  0  0  0  0  0
   17.4590   12.4730  111.9060 C   0  0  0  0  0  0  0  0  0  0  0  0
   17.4300   12.0460  113.2920 C   0  0  0  0  0  0  0  0  0  0  0  0
   18.3150   12.7240  114.2380 C   0  0  0  0  0  0  0  0  0  0  0  0
   19.2300   13.7900  113.8460 C   0  0  0  0  0  0  0  0  0  0  0  0
   19.2250   14.2150  112.4450 C   0  0  0  0  0  0  0  0  0  0  0  0
   16.5380   15.5200  109.6260 C   0  0  0  0  0  0  0  0  0  0  0  0
   16.4810   16.8900  109.7040 N   0  0  0  0  0  0  0  0  0  0  0  0
   15.3550   17.7300  109.4030 C   0  0  0  0  0  0  0  0  0  0  0  0
   21.9500   12.9980  107.9800 F   0  0  0  0  0  0  0  0  0  0  0  0
   22.0560   17.4310  104.9330 F   0  0  0  0  0  0  0  0  0  0  0  0
   15.5810   14.7580  109.7290 O   0  0  0  0  0  0  0  0  0  0  0  0
   14.1030   17.3760  110.2070 C   0  0  0  0  0  0  0  0  0  0  0  0
   17.6490   17.6700  110.1070 C   0  0  0  0  0  0  0  0  0  0  0  0
   14.9520   17.6680  107.9380 C   0  0  0  0  0  0  0  0  0  0  0  0
   12.9200   18.2980  109.9040 C   0  0  0  0  0  0  0  0  0  0  0  0
   13.7960   18.6170  107.5940 C   0  0  0  0  0  0  0  0  0  0  0  0
   12.6390   18.2580  108.4360 N   0  0  0  0  0  0  0  0  0  0  0  0
   20.0767   16.8558  106.5529 H   0  0  0  0  0  0  0  0  0  0  0  0
   23.9915   13.5577  106.2633 H   0  0  0  0  0  0  0  0  0  0  0  0
   23.9275   15.6567  104.7888 H   0  0  0  0  0  0  0  0  0  0  0  0
   18.8103   16.5515  108.2583 H   0  0  0  0  0  0  0  0  0  0  0  0
   17.9101   15.4175  107.2631 H   0  0  0  0  0  0  0  0  0  0  0  0
   17.7306   13.2171  110.4731 H   0  0  0  0  0  0  0  0  0  0  0  0
   20.0735   12.5612  109.1369 H   0  0  0  0  0  0  0  0  0  0  0  0
   16.8034   11.9864  111.1688 H   0  0  0  0  0  0  0  0  0  0  0  0
   16.7622   11.2364  113.6215 H   0  0  0  0  0  0  0  0  0  0  0  0
   18.2896   12.4160  115.2937 H   0  0  0  0  0  0  0  0  0  0  0  0
   19.9022   14.2595  114.5793 H   0  0  0  0  0  0  0  0  0  0  0  0
   19.8769   15.0380  112.1167 H   0  0  0  0  0  0  0  0  0  0  0  0
   15.7074   18.7369  109.6712 H   0  0  0  0  0  0  0  0  0  0  0  0
   13.8127   16.3424  109.9674 H   0  0  0  0  0  0  0  0  0  0  0  0
   14.3501   17.4955  111.2722 H   0  0  0  0  0  0  0  0  0  0  0  0
   17.7042   17.7069  111.2050 H   0  0  0  0  0  0  0  0  0  0  0  0
   18.5598   17.1983  109.7097 H   0  0  0  0  0  0  0  0  0  0  0  0
   17.5622   18.6921  109.7097 H   0  0  0  0  0  0  0  0  0  0  0  0
   15.8229   17.9389  107.3230 H   0  0  0  0  0  0  0  0  0  0  0  0
   14.6085   16.6431  107.7341 H   0  0  0  0  0  0  0  0  0  0  0  0
   12.0339   17.9564  110.4591 H   0  0  0  0  0  0  0  0  0  0  0  0
   13.1612   19.3268  110.2096 H   0  0  0  0  0  0  0  0  0  0  0  0
   14.0949   19.6563  107.7953 H   0  0  0  0  0  0  0  0  0  0  0  0
   13.5340   18.5265  106.5295 H   0  0  0  0  0  0  0  0  0  0  0  0
   12.3423   17.3031  108.1888 H   0  0  0  0  0  0  0  0  0  0  0  0
  1  2  2  0
  1  6  1  0
  1 22  1  0
  2  3  1  0
  3  4  2  0
  3  7  1  0
  4  5  1  0
  4 21  1  0
  5  6  2  0
  7  8  1  0
  7 11  2  0
  8  9  1  0
  9 10  1  0
  9 18  1  0
 10 11  1  0
 10 12  1  0
 12 13  2  0
 12 17  1  0
 13 14  1  0
 14 15  2  0
 15 16  1  0
 16 17  2  0
 18 19  1  0
 18 23  2  0
 19 20  1  0
 19 25  1  0
 20 24  1  0
 20 26  1  0
 24 27  1  0
 26 28  1  0
 27 29  1  0
 28 29  1  0
  2 30  1  0
  5 31  1  0
  6 32  1  0
  8 33  1  0
  8 34  1  0
 10 35  1  0
 11 36  1  0
 13 37  1  0
 14 38  1  0
 15 39  1  0
 16 40  1  0
 17 41  1  0
 20 42  1  0
 24 43  1  0
 24 44  1  0
 25 45  1  0
 25 46  1  0
 25 47  1  0
 26 48  1  0
 26 49  1  0
 27 50  1  0
 27 51  1  0
 28 52  1  0
 28 53  1  0
 29 54  1  0
A    1
C1
A    2
C2
A    3
C3
A    4
C4
A    5
C5
A    6
C6
A    7
C10
A    8
C11
A    9
N12
A   10
C13
A   11
C14
A   12
C17
A   13
C19
A   14
C20
A   15
C21
A   16
C22
A   17
C23
A   18
C8
A   19
N1
A   20
C35
A   21
F40
A   22
F41
A   23
O2
A   24
C15
A   25
C26
A   26
C12
A   27
C9
A   28
C16
A   29
N2
M  END
