2FME_3QC_A_370
     RDKit          3D

 48 50  0  0  0  0  0  0  0  0999 V2000
   22.9670   81.5930   47.9630 C   0  0  0  0  0  0  0  0  0  0  0  0
   22.7600   82.5180   49.1080 C   0  0  0  0  0  0  0  0  0  0  0  0
   24.0810   79.6240   46.8990 C   0  0  0  0  0  0  0  0  0  0  0  0
   23.4630   79.9680   45.6570 C   0  0  0  0  0  0  0  0  0  0  0  0
   22.5800   81.1010   45.6000 C   0  0  0  0  0  0  0  0  0  0  0  0
   22.3320   81.9160   46.7440 C   0  0  0  0  0  0  0  0  0  0  0  0
   26.4090   79.2240   50.5910 C   0  0  0  0  0  0  0  0  0  0  0  0
   27.8490   79.0390   50.6980 C   0  0  0  0  0  0  0  0  0  0  0  0
   28.7670   79.7170   49.7950 C   0  0  0  0  0  0  0  0  0  0  0  0
   28.3130   80.6120   48.7770 C   0  0  0  0  0  0  0  0  0  0  0  0
   28.3720   78.1980   51.6600 O   0  0  0  0  0  0  0  0  0  0  0  0
   21.4410   83.0720   46.6850 C   0  0  0  0  0  0  0  0  0  0  0  0
   23.5850   82.2700   50.2630 N   0  0  0  0  0  0  0  0  0  0  0  0
   23.6520   80.8460   50.5570 C   0  0  0  0  0  0  0  0  0  0  0  0
   24.4760   80.3120   49.3840 C   0  0  0  0  0  0  0  0  0  0  0  0
   23.8090   80.4480   48.0500 C   0  0  0  0  0  0  0  0  0  0  0  0
   25.9410   80.1200   49.5580 C   0  0  0  0  0  0  0  0  0  0  0  0
   26.8880   80.8110   48.6890 C   0  0  0  0  0  0  0  0  0  0  0  0
   21.8600   81.4320   44.3460 C   0  0  0  0  0  0  0  0  0  0  0  0
   24.0240   83.2370   51.1190 C   0  0  0  0  0  0  0  0  0  0  0  0
   24.3780   84.4740   50.6530 N   0  0  0  0  0  0  0  0  0  0  0  0
   24.7910   84.8580   49.2910 C   0  0  0  0  0  0  0  0  0  0  0  0
   24.3540   85.5280   51.6640 C   0  0  0  0  0  0  0  0  0  0  0  0
   24.1010   82.9910   52.3200 O   0  0  0  0  0  0  0  0  0  0  0  0
   22.9647   83.5408   48.7587 H   0  0  0  0  0  0  0  0  0  0  0  0
   21.7226   82.3616   49.4388 H   0  0  0  0  0  0  0  0  0  0  0  0
   24.7475   78.7522   46.9746 H   0  0  0  0  0  0  0  0  0  0  0  0
   23.6610   79.3719   44.7540 H   0  0  0  0  0  0  0  0  0  0  0  0
   25.7101   78.7063   51.2645 H   0  0  0  0  0  0  0  0  0  0  0  0
   29.8467   79.5346   49.8993 H   0  0  0  0  0  0  0  0  0  0  0  0
   29.0128   81.1210   48.0979 H   0  0  0  0  0  0  0  0  0  0  0  0
   28.2440   78.4038   52.6199 H   0  0  0  0  0  0  0  0  0  0  0  0
   21.1918   83.3954   47.7064 H   0  0  0  0  0  0  0  0  0  0  0  0
   21.9415   83.8939   46.1521 H   0  0  0  0  0  0  0  0  0  0  0  0
   20.5188   82.7973   46.1521 H   0  0  0  0  0  0  0  0  0  0  0  0
   24.1570   80.6602   51.5164 H   0  0  0  0  0  0  0  0  0  0  0  0
   22.6659   80.3690   50.6571 H   0  0  0  0  0  0  0  0  0  0  0  0
   24.4736   79.2123   49.4087 H   0  0  0  0  0  0  0  0  0  0  0  0
   26.4986   81.5122   47.9362 H   0  0  0  0  0  0  0  0  0  0  0  0
   20.8855   81.8800   44.5901 H   0  0  0  0  0  0  0  0  0  0  0  0
   22.4555   82.1468   43.7590 H   0  0  0  0  0  0  0  0  0  0  0  0
   21.7052   80.5147   43.7590 H   0  0  0  0  0  0  0  0  0  0  0  0
   25.5955   85.6060   49.3490 H   0  0  0  0  0  0  0  0  0  0  0  0
   25.1544   83.9695   48.7539 H   0  0  0  0  0  0  0  0  0  0  0  0
   23.9313   85.2850   48.7539 H   0  0  0  0  0  0  0  0  0  0  0  0
   24.3643   85.0750   52.6663 H   0  0  0  0  0  0  0  0  0  0  0  0
   25.2377   86.1718   51.5435 H   0  0  0  0  0  0  0  0  0  0  0  0
   23.4419   86.1309   51.5435 H   0  0  0  0  0  0  0  0  0  0  0  0
  1  2  1  0
  1  6  1  0
  1 16  2  0
  2 13  1  0
  3  4  2  0
  3 16  1  0
  4  5  1  0
  5  6  2  0
  5 19  1  0
  6 12  1  0
  7  8  2  0
  7 17  1  0
  8  9  1  0
  8 11  1  0
  9 10  2  0
 10 18  1  0
 13 14  1  0
 13 20  1  0
 14 15  1  0
 15 16  1  0
 15 17  1  0
 17 18  2  0
 20 21  1  0
 20 24  2  0
 21 22  1  0
 21 23  1  0
  2 25  1  0
  2 26  1  0
  3 27  1  0
  4 28  1  0
  7 29  1  0
  9 30  1  0
 10 31  1  0
 11 32  1  0
 12 33  1  0
 12 34  1  0
 12 35  1  0
 14 36  1  0
 14 37  1  0
 15 38  1  0
 18 39  1  0
 19 40  1  0
 19 41  1  0
 19 42  1  0
 22 43  1  0
 22 44  1  0
 22 45  1  0
 23 46  1  0
 23 47  1  0
 23 48  1  0
A    1
C1
A    2
C2
A    3
C11
A    4
C12
A    5
C13
A    6
C14
A    7
C19
A    8
C20
A    9
C21
A   10
C22
A   11
O28
A   12
C33
A   13
N3
A   14
C4
A   15
C5
A   16
C6
A   17
C17
A   18
C23
A   19
C29
A   20
C38
A   21
N39
A   22
C40
A   23
C44
A   24
O48
M  END
