2FR5_TYU_A_1001
     RDKit          3D

 33 34  0  0  0  0  0  0  0  0999 V2000
   14.7060    1.2910   63.3510 O   0  0  0  0  0  0  0  0  0  0  0  0
   13.5940    0.6350   64.0100 C   0  0  0  0  0  0  0  0  0  0  0  0
   13.6790    0.5880   65.5060 C   0  0  0  0  0  0  0  0  0  0  0  0
   14.7470   -0.2840   65.8950 O   0  0  0  0  0  0  0  0  0  0  0  0
   15.7230    0.3960   66.6910 C   0  0  0  0  0  0  0  0  0  0  0  0
   17.0560   -0.1820   66.5380 N   0  0  0  0  0  0  0  0  0  0  0  0
   17.4010   -0.5970   65.1780 C   0  0  0  0  0  0  0  0  0  0  0  0
   17.8260   -0.3770   67.6240 C   0  0  0  0  0  0  0  0  0  0  0  0
   17.4210   -0.1690   68.7590 O   0  0  0  0  0  0  0  0  0  0  0  0
   19.0730   -0.8480   67.4490 N   0  0  0  0  0  0  0  0  0  0  0  0
   19.7370   -0.9560   66.1590 C   0  0  0  0  0  0  0  0  0  0  0  0
   20.9850   -0.2360   66.2570 O   0  0  0  0  0  0  0  0  0  0  0  0
   18.8990   -0.3520   65.0300 C   0  0  0  0  0  0  0  0  0  0  0  0
   15.5390    1.8320   66.2960 C   0  0  0  0  0  0  0  0  0  0  0  0
   16.1490    2.8800   67.1000 O   0  0  0  0  0  0  0  0  0  0  0  0
   14.0960    1.9110   66.0660 C   0  0  0  0  0  0  0  0  0  0  0  0
   13.3880    2.3000   67.2720 O   0  0  0  0  0  0  0  0  0  0  0  0
   15.3246    1.6560   64.0323 H   0  0  0  0  0  0  0  0  0  0  0  0
   12.6726    1.1706   63.7377 H   0  0  0  0  0  0  0  0  0  0  0  0
   13.6099   -0.4108   63.6694 H   0  0  0  0  0  0  0  0  0  0  0  0
   12.6884    0.2736   65.8664 H   0  0  0  0  0  0  0  0  0  0  0  0
   15.5960    0.2945   67.7789 H   0  0  0  0  0  0  0  0  0  0  0  0
   17.1722   -1.6633   65.0343 H   0  0  0  0  0  0  0  0  0  0  0  0
   16.8252   -0.0355   64.4275 H   0  0  0  0  0  0  0  0  0  0  0  0
   19.5931   -1.1528   68.2841 H   0  0  0  0  0  0  0  0  0  0  0  0
   19.8906   -2.0189   65.9209 H   0  0  0  0  0  0  0  0  0  0  0  0
   21.2153   -0.1031   67.2106 H   0  0  0  0  0  0  0  0  0  0  0  0
   19.2303   -0.7925   64.0781 H   0  0  0  0  0  0  0  0  0  0  0  0
   19.0510    0.7369   65.0648 H   0  0  0  0  0  0  0  0  0  0  0  0
   16.1384    2.0784   65.4072 H   0  0  0  0  0  0  0  0  0  0  0  0
   16.0279    2.6719   68.0603 H   0  0  0  0  0  0  0  0  0  0  0  0
   13.8377    2.6997   65.3440 H   0  0  0  0  0  0  0  0  0  0  0  0
   13.9067    2.0150   68.0656 H   0  0  0  0  0  0  0  0  0  0  0  0
  1  2  1  0
  2  3  1  0
  3  4  1  0
  3 16  1  0
  4  5  1  0
  5  6  1  0
  5 14  1  0
  6  7  1  0
  6  8  1  0
  7 13  1  0
  8  9  2  0
  8 10  1  0
 10 11  1  0
 11 12  1  0
 11 13  1  0
 14 15  1  0
 14 16  1  0
 16 17  1  0
  1 18  1  0
  2 19  1  0
  2 20  1  0
  3 21  1  0
  5 22  1  0
  7 23  1  0
  7 24  1  0
 10 25  1  0
 11 26  1  0
 12 27  1  0
 13 28  1  0
 13 29  1  0
 14 30  1  0
 15 31  1  0
 16 32  1  0
 17 33  1  0
A    1
O5'
A    2
C5'
A    3
C4'
A    4
O4'
A    5
C1'
A    6
N1
A    7
C6
A    8
C2
A    9
O2
A   10
N3
A   11
C4
A   12
O4
A   13
C5
A   14
C2'
A   15
O2'
A   16
C3'
A   17
O3'
M  END
