2FU9_MP2_A_1410
     RDKit          3D

 37 37  0  0  0  0  0  0  0  0999 V2000
   14.3980   26.4420   31.2410 O   0  0  0  0  0  0  0  0  0  0  0  0
   14.5090   27.0310   30.1760 C   0  0  0  0  0  0  0  0  0  0  0  0
   14.0650   28.2670   29.9830 N   0  0  0  0  0  0  0  0  0  0  0  0
   13.3910   28.9760   31.0400 C   0  0  0  0  0  0  0  0  0  0  0  0
   13.3170   30.4380   30.6260 C   0  0  0  0  0  0  0  0  0  0  0  0
   12.8000   31.5280   31.9750 S   0  0  0  0  0  0  0  0  0  0  0  0
   12.0280   28.3410   31.2170 C   0  0  0  0  0  0  0  0  0  0  0  0
   11.4670   27.8770   30.2300 O   0  0  0  0  0  0  0  0  0  0  0  0
   11.4460   28.2370   32.4060 N   0  0  0  0  0  0  0  0  0  0  0  0
   12.0480   28.6310   33.6530 C   0  0  0  0  0  0  0  0  0  0  0  0
   11.0390   29.0460   34.6870 C   0  0  0  0  0  0  0  0  0  0  0  0
    9.8060   28.9190   34.4590 O   0  0  0  0  0  0  0  0  0  0  0  0
   11.5190   29.5090   35.7460 O   0  0  0  0  0  0  0  0  0  0  0  0
   15.1620   26.3850   29.0560 O   0  0  0  0  0  0  0  0  0  0  0  0
   15.7850   25.1160   29.2860 C   0  0  0  0  0  0  0  0  0  0  0  0
   16.3200   24.6010   27.9790 C   0  0  0  0  0  0  0  0  0  0  0  0
   17.6840   24.3570   27.8270 C   0  0  0  0  0  0  0  0  0  0  0  0
   18.1570   23.8810   26.6130 C   0  0  0  0  0  0  0  0  0  0  0  0
   17.2760   23.6490   25.5610 C   0  0  0  0  0  0  0  0  0  0  0  0
   15.9130   23.9020   25.7210 C   0  0  0  0  0  0  0  0  0  0  0  0
   15.4320   24.3820   26.9300 C   0  0  0  0  0  0  0  0  0  0  0  0
   14.2037   28.7228   29.0698 H   0  0  0  0  0  0  0  0  0  0  0  0
   13.9137   28.9224   32.0064 H   0  0  0  0  0  0  0  0  0  0  0  0
   14.3118   30.7554   30.2802 H   0  0  0  0  0  0  0  0  0  0  0  0
   12.5618   30.5174   29.8302 H   0  0  0  0  0  0  0  0  0  0  0  0
   13.0822   30.9331   33.1764 H   0  0  0  0  0  0  0  0  0  0  0  0
   10.4938   27.8457   32.4385 H   0  0  0  0  0  0  0  0  0  0  0  0
   12.6251   27.7817   34.0474 H   0  0  0  0  0  0  0  0  0  0  0  0
   12.6874   29.5025   33.4489 H   0  0  0  0  0  0  0  0  0  0  0  0
    9.1674   28.8532   35.2127 H   0  0  0  0  0  0  0  0  0  0  0  0
   16.6101   25.2329   30.0040 H   0  0  0  0  0  0  0  0  0  0  0  0
   15.0522   24.4066   29.6980 H   0  0  0  0  0  0  0  0  0  0  0  0
   18.3778   24.5400   28.6608 H   0  0  0  0  0  0  0  0  0  0  0  0
   19.2316   23.6863   26.4814 H   0  0  0  0  0  0  0  0  0  0  0  0
   17.6546   23.2656   24.6020 H   0  0  0  0  0  0  0  0  0  0  0  0
   15.2191   23.7205   24.8870 H   0  0  0  0  0  0  0  0  0  0  0  0
   14.3591   24.5876   27.0586 H   0  0  0  0  0  0  0  0  0  0  0  0
  1  2  2  0
  2  3  1  0
  2 14  1  0
  3  4  1  0
  4  5  1  0
  4  7  1  0
  5  6  1  0
  7  8  2  0
  7  9  1  0
  9 10  1  0
 10 11  1  0
 11 12  1  0
 11 13  2  0
 14 15  1  0
 15 16  1  0
 16 17  2  0
 16 21  1  0
 17 18  1  0
 18 19  2  0
 19 20  1  0
 20 21  2  0
  3 22  1  0
  4 23  1  0
  5 24  1  0
  5 25  1  0
  6 26  1  0
  9 27  1  0
 10 28  1  0
 10 29  1  0
 12 30  1  0
 15 31  1  0
 15 32  1  0
 17 33  1  0
 18 34  1  0
 19 35  1  0
 20 36  1  0
 21 37  1  0
A    1
O20
A    2
C19
A    3
N18
A    4
C15
A    5
C17
A    6
S21
A    7
C13
A    8
O14
A    9
N
A   10
CA
A   11
C
A   12
O1
A   13
O2
A   14
O22
A   15
C23
A   16
C24
A   17
C29
A   18
C28
A   19
C27
A   20
C26
A   21
C25
M  END
