1U4L_H1S_A_301
     RDKit          3D

 50 51  0  0  0  0  0  0  0  0999 V2000
   18.6040    7.7440   35.0470 C   0  0  0  0  0  0  0  0  0  0  0  0
   18.5620    8.9230   34.0090 C   0  0  0  0  0  0  0  0  0  0  0  0
   18.4090    8.2450   36.3980 O   0  0  0  0  0  0  0  0  0  0  0  0
   17.5780    6.6810   34.5810 C   0  0  0  0  0  0  0  0  0  0  0  0
   18.7830    8.4780   32.6390 O   0  0  0  0  0  0  0  0  0  0  0  0
   19.5970   10.0060   34.3920 C   0  0  0  0  0  0  0  0  0  0  0  0
   17.0810    8.8400   36.5810 C   0  0  0  0  0  0  0  0  0  0  0  0
   17.9020    6.2340   33.1530 C   0  0  0  0  0  0  0  0  0  0  0  0
   17.6250    5.5710   35.4850 O   0  0  0  0  0  0  0  0  0  0  0  0
   17.8260    7.4650   32.2300 C   0  0  0  0  0  0  0  0  0  0  0  0
   20.8940    9.7150   33.8510 O   0  0  0  0  0  0  0  0  0  0  0  0
   16.5330    8.5720   38.0150 C   0  0  0  0  0  0  0  0  0  0  0  0
   17.1560   10.2960   36.4020 O   0  0  0  0  0  0  0  0  0  0  0  0
   16.9310    5.2330   32.7260 N   0  0  0  0  0  0  0  0  0  0  0  0
   16.4950    8.0160   32.2570 O   0  0  0  0  0  0  0  0  0  0  0  0
   21.9520   10.2980   34.8060 S   0  0  0  0  0  0  0  0  0  0  0  0
   17.4990    9.2280   39.0570 C   0  0  0  0  0  0  0  0  0  0  0  0
   15.2330    9.1990   38.1340 O   0  0  0  0  0  0  0  0  0  0  0  0
   17.7810   11.0650   37.3470 C   0  0  0  0  0  0  0  0  0  0  0  0
   17.3860    3.6490   32.6360 S   0  0  0  0  0  0  0  0  0  0  0  0
   21.8500    9.6820   36.0910 O   0  0  0  0  0  0  0  0  0  0  0  0
   23.2410   10.0410   34.2840 O   0  0  0  0  0  0  0  0  0  0  0  0
   21.7440   11.9390   34.9610 O   0  0  0  0  0  0  0  0  0  0  0  0
   17.9700   10.6110   38.6090 C   0  0  0  0  0  0  0  0  0  0  0  0
   18.6410    8.3830   39.2520 O   0  0  0  0  0  0  0  0  0  0  0  0
   14.0950    8.1670   38.0260 S   0  0  0  0  0  0  0  0  0  0  0  0
   18.2320   12.4090   36.9610 C   0  0  0  0  0  0  0  0  0  0  0  0
   17.6590    3.1540   33.9410 O   0  0  0  0  0  0  0  0  0  0  0  0
   16.3330    2.8890   32.0580 O   0  0  0  0  0  0  0  0  0  0  0  0
   18.7440    3.5250   31.6920 O   0  0  0  0  0  0  0  0  0  0  0  0
   12.8690    8.8300   38.3060 O   0  0  0  0  0  0  0  0  0  0  0  0
   14.0380    7.6260   36.7050 O   0  0  0  0  0  0  0  0  0  0  0  0
   14.3150    6.9430   39.1280 O   0  0  0  0  0  0  0  0  0  0  0  0
   17.7020   12.9700   36.0250 O   0  0  0  0  0  0  0  0  0  0  0  0
   19.2550   13.0540   37.6670 O   0  0  0  0  0  0  0  0  0  0  0  0
   19.5887    7.2552   35.0856 H   0  0  0  0  0  0  0  0  0  0  0  0
   17.5481    9.3479   34.0471 H   0  0  0  0  0  0  0  0  0  0  0  0
   16.5638    7.1069   34.5819 H   0  0  0  0  0  0  0  0  0  0  0  0
   19.2578   10.9771   34.0023 H   0  0  0  0  0  0  0  0  0  0  0  0
   19.6799   10.0288   35.4886 H   0  0  0  0  0  0  0  0  0  0  0  0
   16.4125    8.3829   35.8366 H   0  0  0  0  0  0  0  0  0  0  0  0
   18.9092    5.7941   33.1087 H   0  0  0  0  0  0  0  0  0  0  0  0
   17.6109    5.9038   36.4173 H   0  0  0  0  0  0  0  0  0  0  0  0
   18.0713    7.1454   31.2064 H   0  0  0  0  0  0  0  0  0  0  0  0
   16.4577    7.4898   38.1970 H   0  0  0  0  0  0  0  0  0  0  0  0
   16.1409    5.2812   33.3851 H   0  0  0  0  0  0  0  0  0  0  0  0
   16.2063    8.1355   33.1964 H   0  0  0  0  0  0  0  0  0  0  0  0
   16.9417    9.3463   39.9980 H   0  0  0  0  0  0  0  0  0  0  0  0
   18.4799   11.2599   39.3362 H   0  0  0  0  0  0  0  0  0  0  0  0
   18.8018    8.2640   40.2216 H   0  0  0  0  0  0  0  0  0  0  0  0
  1  2  1  0
  1  3  1  0
  1  4  1  0
  2  5  1  0
  2  6  1  0
  3  7  1  0
  4  8  1  0
  4  9  1  0
  5 10  1  0
  6 11  1  0
  7 12  1  0
  7 13  1  0
  8 10  1  0
  8 14  1  0
 10 15  1  0
 11 16  1  0
 12 17  1  0
 12 18  1  0
 13 19  1  0
 14 20  1  0
 16 21  2  0
 16 22  2  0
 16 23  1  0
 17 24  1  0
 17 25  1  0
 18 26  1  0
 19 24  2  0
 19 27  1  0
 20 28  2  0
 20 29  2  0
 20 30  1  0
 26 31  2  0
 26 32  2  0
 26 33  1  0
 27 34  1  0
 27 35  2  0
  1 36  1  0
  2 37  1  0
  4 38  1  0
  6 39  1  0
  6 40  1  0
  7 41  1  0
  8 42  1  0
  9 43  1  0
 10 44  1  0
 12 45  1  0
 14 46  1  0
 15 47  1  0
 17 48  1  0
 24 49  1  0
 25 50  1  0
M  CHG  4  23  -1  30  -1  33  -1  34  -1
A    1
C1
A    2
C2
A    3
O3
A    4
C4
A    5
O5
A    6
C6
A    7
C7
A    8
C8
A    9
O9
A   10
C10
A   11
O11
A   12
C12
A   13
O13
A   14
N14
A   15
O15
A   16
S16
A   17
C17
A   18
O18
A   19
C19
A   20
S20
A   21
O21
A   22
O22
A   23
O23
A   24
C24
A   25
O25
A   26
S26
A   27
C27
A   28
O28
A   29
O29
A   30
O30
A   31
O31
A   32
O32
A   33
O33
A   34
O34
A   35
O35
M  END
