2FVC_888_A_901
     RDKit          3D

 50 53  0  0  0  0  0  0  0  0999 V2000
    9.4220   43.8660   46.6730 C   0  0  0  0  0  0  0  0  0  0  0  0
    8.7810   42.7530   46.0700 C   0  0  0  0  0  0  0  0  0  0  0  0
    8.7180   42.6470   44.6610 C   0  0  0  0  0  0  0  0  0  0  0  0
    9.2970   43.6510   43.8480 C   0  0  0  0  0  0  0  0  0  0  0  0
    9.9400   44.7690   44.4500 C   0  0  0  0  0  0  0  0  0  0  0  0
    9.9920   44.8630   45.8540 C   0  0  0  0  0  0  0  0  0  0  0  0
   10.7820   46.2330   46.6650 S   0  0  0  0  0  0  0  0  0  0  0  0
   10.4200   46.1220   48.2460 N   0  0  0  0  0  0  0  0  0  0  0  0
    9.9560   44.9680   48.8020 C   0  0  0  0  0  0  0  0  0  0  0  0
    9.4990   43.9480   48.0190 N   0  0  0  0  0  0  0  0  0  0  0  0
    9.9960   44.7030   50.2850 C   0  0  0  0  0  0  0  0  0  0  0  0
   10.8600   45.4330   51.0770 C   0  0  0  0  0  0  0  0  0  0  0  0
   10.9310   45.1330   52.5230 C   0  0  0  0  0  0  0  0  0  0  0  0
   10.1030   44.0990   53.0960 C   0  0  0  0  0  0  0  0  0  0  0  0
    9.1890   43.3580   52.2830 N   0  0  0  0  0  0  0  0  0  0  0  0
    9.1170   43.6210   50.9090 C   0  0  0  0  0  0  0  0  0  0  0  0
   11.8400   45.8670   53.3400 C   0  0  0  0  0  0  0  0  0  0  0  0
   11.9540   45.6010   54.7130 C   0  0  0  0  0  0  0  0  0  0  0  0
   11.1620   44.5950   55.2880 C   0  0  0  0  0  0  0  0  0  0  0  0
   10.2470   43.8590   54.4980 C   0  0  0  0  0  0  0  0  0  0  0  0
   11.6860   46.4310   50.5940 O   0  0  0  0  0  0  0  0  0  0  0  0
    8.3730   43.0060   50.1480 O   0  0  0  0  0  0  0  0  0  0  0  0
    8.3170   42.2770   52.8790 C   0  0  0  0  0  0  0  0  0  0  0  0
    6.9650   42.6370   53.5720 C   0  0  0  0  0  0  0  0  0  0  0  0
    6.0320   43.5710   52.7610 C   0  0  0  0  0  0  0  0  0  0  0  0
    4.9230   44.1220   53.6690 C   0  0  0  0  0  0  0  0  0  0  0  0
   10.1890   47.4500   46.2130 O   0  0  0  0  0  0  0  0  0  0  0  0
   12.1910   46.0730   46.5170 O   0  0  0  0  0  0  0  0  0  0  0  0
    5.3930   42.8330   51.5650 C   0  0  0  0  0  0  0  0  0  0  0  0
    8.3320   41.9708   46.6998 H   0  0  0  0  0  0  0  0  0  0  0  0
    8.2188   41.7838   44.1966 H   0  0  0  0  0  0  0  0  0  0  0  0
    9.2500   43.5671   42.7522 H   0  0  0  0  0  0  0  0  0  0  0  0
   10.3922   45.5525   43.8242 H   0  0  0  0  0  0  0  0  0  0  0  0
    9.1635   43.1187   48.5295 H   0  0  0  0  0  0  0  0  0  0  0  0
   12.4613   46.6537   52.8872 H   0  0  0  0  0  0  0  0  0  0  0  0
   12.6577   46.1757   55.3331 H   0  0  0  0  0  0  0  0  0  0  0  0
   11.2533   44.3767   56.3622 H   0  0  0  0  0  0  0  0  0  0  0  0
    9.6309   43.0825   54.9749 H   0  0  0  0  0  0  0  0  0  0  0  0
   12.1727   47.0190   51.2244 H   0  0  0  0  0  0  0  0  0  0  0  0
    8.0760   41.5812   52.0618 H   0  0  0  0  0  0  0  0  0  0  0  0
    8.9278   41.9003   53.7127 H   0  0  0  0  0  0  0  0  0  0  0  0
    6.4225   41.6999   53.7656 H   0  0  0  0  0  0  0  0  0  0  0  0
    7.2297   43.1905   54.4850 H   0  0  0  0  0  0  0  0  0  0  0  0
    6.6437   44.3981   52.3715 H   0  0  0  0  0  0  0  0  0  0  0  0
    5.2074   43.9807   54.7222 H   0  0  0  0  0  0  0  0  0  0  0  0
    4.7832   45.1943   53.4676 H   0  0  0  0  0  0  0  0  0  0  0  0
    3.9840   43.5857   53.4676 H   0  0  0  0  0  0  0  0  0  0  0  0
    4.7153   42.0503   51.9367 H   0  0  0  0  0  0  0  0  0  0  0  0
    4.8252   43.5493   50.9531 H   0  0  0  0  0  0  0  0  0  0  0  0
    6.1832   42.3735   50.9531 H   0  0  0  0  0  0  0  0  0  0  0  0
  1  2  2  0
  1  6  1  0
  1 10  1  0
  2  3  1  0
  3  4  2  0
  4  5  1  0
  5  6  2  0
  6  7  1  0
  7  8  1  0
  7 27  2  0
  7 28  2  0
  8  9  2  0
  9 10  1  0
  9 11  1  0
 11 12  2  0
 11 16  1  0
 12 13  1  0
 12 21  1  0
 13 14  2  0
 13 17  1  0
 14 15  1  0
 14 20  1  0
 15 16  1  0
 15 23  1  0
 16 22  2  0
 17 18  2  0
 18 19  1  0
 19 20  2  0
 23 24  1  0
 24 25  1  0
 25 26  1  0
 25 29  1  0
  2 30  1  0
  3 31  1  0
  4 32  1  0
  5 33  1  0
 10 34  1  0
 17 35  1  0
 18 36  1  0
 19 37  1  0
 20 38  1  0
 21 39  1  0
 23 40  1  0
 23 41  1  0
 24 42  1  0
 24 43  1  0
 25 44  1  0
 26 45  1  0
 26 46  1  0
 26 47  1  0
 29 48  1  0
 29 49  1  0
 29 50  1  0
A    1
C1
A    2
C2
A    3
C3
A    4
C4
A    5
C5
A    6
C6
A    7
S11
A    8
N12
A    9
C13
A   10
N14
A   11
C15
A   12
C16
A   13
C17
A   14
C18
A   15
N19
A   16
C20
A   17
C21
A   18
C22
A   19
C23
A   20
C24
A   21
O29
A   22
O30
A   23
C31
A   24
C32
A   25
C35
A   26
C38
A   27
O46
A   28
O47
A   29
C7
M  END
