2FVD_LIA_A_299
     RDKit          3D

 51 53  0  0  0  0  0  0  0  0999 V2000
    6.0060   26.4970    6.9800 N   0  0  0  0  0  0  0  0  0  0  0  0
    5.2280   26.2350    5.7370 C   0  0  0  0  0  0  0  0  0  0  0  0
    4.4250   27.4970    5.3560 C   0  0  0  0  0  0  0  0  0  0  0  0
    3.4740   27.9120    6.5080 C   0  0  0  0  0  0  0  0  0  0  0  0
    4.2630   28.0220    7.8590 C   0  0  0  0  0  0  0  0  0  0  0  0
    5.0840   26.7430    8.1290 C   0  0  0  0  0  0  0  0  0  0  0  0
    2.8530   29.1930    6.1450 N   0  0  0  0  0  0  0  0  0  0  0  0
    1.7690   29.5320    6.9000 C   0  0  0  0  0  0  0  0  0  0  0  0
    1.0690   28.5960    7.5970 N   0  0  0  0  0  0  0  0  0  0  0  0
    0.0490   28.9490    8.3170 C   0  0  0  0  0  0  0  0  0  0  0  0
   -0.4000   30.3250    8.4220 C   0  0  0  0  0  0  0  0  0  0  0  0
    0.3640   31.2870    7.6590 C   0  0  0  0  0  0  0  0  0  0  0  0
    1.4370   30.8560    6.9140 N   0  0  0  0  0  0  0  0  0  0  0  0
   -1.5430   30.6550    9.2600 C   0  0  0  0  0  0  0  0  0  0  0  0
   -1.9700   31.8210    9.3190 O   0  0  0  0  0  0  0  0  0  0  0  0
   -2.1970   29.6470   10.0640 C   0  0  0  0  0  0  0  0  0  0  0  0
   -3.5480   29.2590    9.7500 C   0  0  0  0  0  0  0  0  0  0  0  0
   -4.2120   28.2570   10.5240 C   0  0  0  0  0  0  0  0  0  0  0  0
   -3.5480   27.6250   11.6160 C   0  0  0  0  0  0  0  0  0  0  0  0
   -2.2140   27.9920   11.9500 C   0  0  0  0  0  0  0  0  0  0  0  0
   -1.5100   29.0040   11.1890 C   0  0  0  0  0  0  0  0  0  0  0  0
   -0.1880   29.4010   11.4900 O   0  0  0  0  0  0  0  0  0  0  0  0
    0.5550   28.3980   12.2270 C   0  0  0  0  0  0  0  0  0  0  0  0
   -4.2020   29.8250    8.7400 F   0  0  0  0  0  0  0  0  0  0  0  0
   -5.4500   27.9070   10.2290 F   0  0  0  0  0  0  0  0  0  0  0  0
    0.0830   32.6030    7.6390 N   0  0  0  0  0  0  0  0  0  0  0  0
    7.0630   25.2110    7.3100 S   0  0  0  0  0  0  0  0  0  0  0  0
    6.1790   23.6620    7.7100 C   0  0  0  0  0  0  0  0  0  0  0  0
    7.8710   25.5860    8.4490 O   0  0  0  0  0  0  0  0  0  0  0  0
    7.9110   25.0020    6.1680 O   0  0  0  0  0  0  0  0  0  0  0  0
    5.9183   25.9792    4.9196 H   0  0  0  0  0  0  0  0  0  0  0  0
    4.5353   25.3978    5.9080 H   0  0  0  0  0  0  0  0  0  0  0  0
    5.1241   28.3211    5.1507 H   0  0  0  0  0  0  0  0  0  0  0  0
    3.8220   27.2755    4.4630 H   0  0  0  0  0  0  0  0  0  0  0  0
    2.6921   27.1520    6.6531 H   0  0  0  0  0  0  0  0  0  0  0  0
    4.9458   28.8829    7.8072 H   0  0  0  0  0  0  0  0  0  0  0  0
    3.5389   28.1514    8.6769 H   0  0  0  0  0  0  0  0  0  0  0  0
    4.4032   25.8867    8.2438 H   0  0  0  0  0  0  0  0  0  0  0  0
    5.6699   26.8689    9.0514 H   0  0  0  0  0  0  0  0  0  0  0  0
    3.2076   29.7871    5.3820 H   0  0  0  0  0  0  0  0  0  0  0  0
   -0.4986   28.1725    8.8712 H   0  0  0  0  0  0  0  0  0  0  0  0
   -4.0677   26.8523   12.2015 H   0  0  0  0  0  0  0  0  0  0  0  0
   -1.7113   27.5012   12.7964 H   0  0  0  0  0  0  0  0  0  0  0  0
    0.4291   28.5680   13.3065 H   0  0  0  0  0  0  0  0  0  0  0  0
    0.1782   27.3978   11.9669 H   0  0  0  0  0  0  0  0  0  0  0  0
    1.6216   28.4671   11.9669 H   0  0  0  0  0  0  0  0  0  0  0  0
   -0.0273   33.1196    8.5233 H   0  0  0  0  0  0  0  0  0  0  0  0
   -0.0218   33.0936    6.7394 H   0  0  0  0  0  0  0  0  0  0  0  0
    6.1142   23.5484    8.8022 H   0  0  0  0  0  0  0  0  0  0  0  0
    5.1654   23.6979    7.2843 H   0  0  0  0  0  0  0  0  0  0  0  0
    6.7255   22.8075    7.2843 H   0  0  0  0  0  0  0  0  0  0  0  0
  1  2  1  0
  1  6  1  0
  1 27  1  0
  2  3  1  0
  3  4  1  0
  4  5  1  0
  4  7  1  0
  5  6  1  0
  7  8  1  0
  8  9  2  0
  8 13  1  0
  9 10  1  0
 10 11  2  0
 11 12  1  0
 11 14  1  0
 12 13  2  0
 12 26  1  0
 14 15  2  0
 14 16  1  0
 16 17  2  0
 16 21  1  0
 17 18  1  0
 17 24  1  0
 18 19  2  0
 18 25  1  0
 19 20  1  0
 20 21  2  0
 21 22  1  0
 22 23  1  0
 27 28  1  0
 27 29  2  0
 27 30  2  0
  2 31  1  0
  2 32  1  0
  3 33  1  0
  3 34  1  0
  4 35  1  0
  5 36  1  0
  5 37  1  0
  6 38  1  0
  6 39  1  0
  7 40  1  0
 10 41  1  0
 19 42  1  0
 20 43  1  0
 23 44  1  0
 23 45  1  0
 23 46  1  0
 26 47  1  0
 26 48  1  0
 28 49  1  0
 28 50  1  0
 28 51  1  0
A    1
N1
A    2
C2
A    3
C3
A    4
C4
A    5
C5
A    6
C6
A    7
N7
A    8
C8
A    9
N9
A   10
C10
A   11
C11
A   12
C12
A   13
N13
A   14
C14
A   15
O15
A   16
C16
A   17
C17
A   18
C18
A   19
C19
A   20
C20
A   21
C21
A   22
O22
A   23
C23
A   24
F24
A   25
F25
A   26
N26
A   27
S27
A   28
C28
A   29
O29
A   30
O30
M  END
