2AQU_DR7_B_300
     RDKit          3D

103105  0  0  0  0  0  0  0  0999 V2000
  -45.0210   66.8550   34.7460 C   0  0  0  0  0  0  0  0  0  0  0  0
  -43.8670   66.7520   33.9760 O   0  0  0  0  0  0  0  0  0  0  0  0
  -43.1830   67.9500   33.6470 C   0  0  0  0  0  0  0  0  0  0  0  0
  -43.6320   68.9740   34.0370 O   0  0  0  0  0  0  0  0  0  0  0  0
  -41.8900   67.7960   32.8730 N   0  0  0  0  0  0  0  0  0  0  0  0
  -41.4390   69.1780   32.8030 C   0  0  0  0  0  0  0  0  0  0  0  0
  -40.1190   69.3160   33.4190 C   0  0  0  0  0  0  0  0  0  0  0  0
  -39.3070   68.0220   33.5070 C   0  0  0  0  0  0  0  0  0  0  0  0
  -40.4890   69.7990   34.7420 C   0  0  0  0  0  0  0  0  0  0  0  0
  -39.2710   70.4060   32.8270 C   0  0  0  0  0  0  0  0  0  0  0  0
  -41.0630   68.9260   31.1660 C   0  0  0  0  0  0  0  0  0  0  0  0
  -40.2980   68.1220   30.8040 O   0  0  0  0  0  0  0  0  0  0  0  0
  -41.7600   69.6930   30.3810 N   0  0  0  0  0  0  0  0  0  0  0  0
  -41.7920   69.7640   28.9370 C   0  0  0  0  0  0  0  0  0  0  0  0
  -43.1110   69.1810   28.5780 C   0  0  0  0  0  0  0  0  0  0  0  0
  -43.4340   67.8420   29.1750 C   0  0  0  0  0  0  0  0  0  0  0  0
  -42.9210   66.6620   28.7080 C   0  0  0  0  0  0  0  0  0  0  0  0
  -43.2470   65.4620   29.3210 C   0  0  0  0  0  0  0  0  0  0  0  0
  -44.1050   65.4320   30.4300 C   0  0  0  0  0  0  0  0  0  0  0  0
  -44.6220   66.5990   30.8970 C   0  0  0  0  0  0  0  0  0  0  0  0
  -44.2820   67.7960   30.2760 C   0  0  0  0  0  0  0  0  0  0  0  0
  -41.7090   71.1310   28.3130 C   0  0  0  0  0  0  0  0  0  0  0  0
  -42.5190   72.0820   28.8920 O   0  0  0  0  0  0  0  0  0  0  0  0
  -40.5340   71.9140   28.4970 C   0  0  0  0  0  0  0  0  0  0  0  0
  -39.3690   71.4510   27.7980 N   0  0  0  0  0  0  0  0  0  0  0  0
  -39.3260   70.9700   26.4690 N   0  0  0  0  0  0  0  0  0  0  0  0
  -39.1420   69.8930   25.7680 C   0  0  0  0  0  0  0  0  0  0  0  0
  -38.9260   68.8230   26.1450 O   0  0  0  0  0  0  0  0  0  0  0  0
  -39.1960   70.2620   24.3010 C   0  0  0  0  0  0  0  0  0  0  0  0
  -40.0060   69.3460   23.3680 C   0  0  0  0  0  0  0  0  0  0  0  0
  -40.1780   70.0150   22.0300 C   0  0  0  0  0  0  0  0  0  0  0  0
  -41.3840   69.1140   23.9010 C   0  0  0  0  0  0  0  0  0  0  0  0
  -39.3070   68.0320   23.1910 C   0  0  0  0  0  0  0  0  0  0  0  0
  -37.8290   70.4700   23.8110 N   0  0  0  0  0  0  0  0  0  0  0  0
  -37.3500   71.4990   23.1780 C   0  0  0  0  0  0  0  0  0  0  0  0
  -37.9470   72.4590   22.8800 O   0  0  0  0  0  0  0  0  0  0  0  0
  -35.9760   71.4210   22.8170 O   0  0  0  0  0  0  0  0  0  0  0  0
  -35.3470   72.5670   22.3190 C   0  0  0  0  0  0  0  0  0  0  0  0
  -38.0910   71.6970   28.4680 C   0  0  0  0  0  0  0  0  0  0  0  0
  -36.8610   71.4480   27.6420 C   0  0  0  0  0  0  0  0  0  0  0  0
  -36.2500   72.3820   26.7990 C   0  0  0  0  0  0  0  0  0  0  0  0
  -35.0870   72.0460   26.0900 C   0  0  0  0  0  0  0  0  0  0  0  0
  -36.3230   70.1990   27.7600 C   0  0  0  0  0  0  0  0  0  0  0  0
  -35.2010   69.8820   27.0650 C   0  0  0  0  0  0  0  0  0  0  0  0
  -34.5660   70.7800   26.2330 C   0  0  0  0  0  0  0  0  0  0  0  0
  -33.4380   70.2880   25.6040 C   0  0  0  0  0  0  0  0  0  0  0  0
  -33.0370   68.9280   25.8390 C   0  0  0  0  0  0  0  0  0  0  0  0
  -31.9230   68.3400   25.2540 C   0  0  0  0  0  0  0  0  0  0  0  0
  -31.1850   69.0980   24.4140 C   0  0  0  0  0  0  0  0  0  0  0  0
  -31.5720   70.4110   24.1770 C   0  0  0  0  0  0  0  0  0  0  0  0
  -32.6590   70.9930   24.7430 N   0  0  0  0  0  0  0  0  0  0  0  0
  -44.7534   66.8311   35.8127 H   0  0  0  0  0  0  0  0  0  0  0  0
  -45.5312   67.8023   34.5171 H   0  0  0  0  0  0  0  0  0  0  0  0
  -45.6909   66.0131   34.5171 H   0  0  0  0  0  0  0  0  0  0  0  0
  -41.4493   66.9440   32.4978 H   0  0  0  0  0  0  0  0  0  0  0  0
  -42.0859   69.9760   33.1964 H   0  0  0  0  0  0  0  0  0  0  0  0
  -39.1441   67.7625   34.5635 H   0  0  0  0  0  0  0  0  0  0  0  0
  -39.8573   67.2093   33.0104 H   0  0  0  0  0  0  0  0  0  0  0  0
  -38.3358   68.1641   33.0104 H   0  0  0  0  0  0  0  0  0  0  0  0
  -40.0092   69.1726   35.5084 H   0  0  0  0  0  0  0  0  0  0  0  0
  -40.1557   70.8408   34.8585 H   0  0  0  0  0  0  0  0  0  0  0  0
  -41.5816   69.7484   34.8585 H   0  0  0  0  0  0  0  0  0  0  0  0
  -38.8132   70.9945   33.6357 H   0  0  0  0  0  0  0  0  0  0  0  0
  -38.4806   69.9592   32.2059 H   0  0  0  0  0  0  0  0  0  0  0  0
  -39.8984   71.0622   32.2059 H   0  0  0  0  0  0  0  0  0  0  0  0
  -42.3872   70.3530   30.8627 H   0  0  0  0  0  0  0  0  0  0  0  0
  -40.8970   69.2483   28.5588 H   0  0  0  0  0  0  0  0  0  0  0  0
  -43.8888   69.8882   28.9020 H   0  0  0  0  0  0  0  0  0  0  0  0
  -43.0707   69.0143   27.4915 H   0  0  0  0  0  0  0  0  0  0  0  0
  -42.2452   66.6659   27.8401 H   0  0  0  0  0  0  0  0  0  0  0  0
  -42.8276   64.5221   28.9329 H   0  0  0  0  0  0  0  0  0  0  0  0
  -44.3560   64.4772   30.9151 H   0  0  0  0  0  0  0  0  0  0  0  0
  -45.3043   66.5967   31.7598 H   0  0  0  0  0  0  0  0  0  0  0  0
  -44.6971   68.7362   30.6682 H   0  0  0  0  0  0  0  0  0  0  0  0
  -41.9020   70.7782   27.2891 H   0  0  0  0  0  0  0  0  0  0  0  0
  -42.4586   72.0111   29.8776 H   0  0  0  0  0  0  0  0  0  0  0  0
  -40.7508   72.9367   28.1548 H   0  0  0  0  0  0  0  0  0  0  0  0
  -40.2908   71.8479   29.5677 H   0  0  0  0  0  0  0  0  0  0  0  0
  -39.5047   71.7556   25.8272 H   0  0  0  0  0  0  0  0  0  0  0  0
  -39.7834   71.1913   24.2630 H   0  0  0  0  0  0  0  0  0  0  0  0
  -40.4493   71.0704   22.1799 H   0  0  0  0  0  0  0  0  0  0  0  0
  -39.2353   69.9553   21.4663 H   0  0  0  0  0  0  0  0  0  0  0  0
  -40.9750   69.5080   21.4663 H   0  0  0  0  0  0  0  0  0  0  0  0
  -41.3574   69.1185   25.0007 H   0  0  0  0  0  0  0  0  0  0  0  0
  -42.0532   69.9121   23.5472 H   0  0  0  0  0  0  0  0  0  0  0  0
  -41.7550   68.1408   23.5472 H   0  0  0  0  0  0  0  0  0  0  0  0
  -39.0785   67.6024   24.1775 H   0  0  0  0  0  0  0  0  0  0  0  0
  -39.9577   67.3428   22.6328 H   0  0  0  0  0  0  0  0  0  0  0  0
  -38.3718   68.1864   22.6328 H   0  0  0  0  0  0  0  0  0  0  0  0
  -37.1649   69.7036   23.9915 H   0  0  0  0  0  0  0  0  0  0  0  0
  -35.0045   73.1910   23.1576 H   0  0  0  0  0  0  0  0  0  0  0  0
  -34.4836   72.2734   21.7039 H   0  0  0  0  0  0  0  0  0  0  0  0
  -36.0583   73.1377   21.7039 H   0  0  0  0  0  0  0  0  0  0  0  0
  -38.0750   72.7492   28.7885 H   0  0  0  0  0  0  0  0  0  0  0  0
  -38.0449   70.9759   29.2974 H   0  0  0  0  0  0  0  0  0  0  0  0
  -36.6843   73.3869   26.6912 H   0  0  0  0  0  0  0  0  0  0  0  0
  -34.6004   72.7808   25.4318 H   0  0  0  0  0  0  0  0  0  0  0  0
  -36.7965   69.4530   28.4152 H   0  0  0  0  0  0  0  0  0  0  0  0
  -34.7822   68.8702   27.1694 H   0  0  0  0  0  0  0  0  0  0  0  0
  -33.6473   68.3179   26.5212 H   0  0  0  0  0  0  0  0  0  0  0  0
  -31.6516   67.2955   25.4669 H   0  0  0  0  0  0  0  0  0  0  0  0
  -30.2916   68.6821   23.9253 H   0  0  0  0  0  0  0  0  0  0  0  0
  -30.9609   71.0145   23.4897 H   0  0  0  0  0  0  0  0  0  0  0  0
  1  2  1  0
  2  3  1  0
  3  4  2  0
  3  5  1  0
  5  6  1  0
  6  7  1  0
  6 11  1  0
  7  8  1  0
  7  9  1  0
  7 10  1  0
 11 12  2  0
 11 13  1  0
 13 14  1  0
 14 15  1  0
 14 22  1  0
 15 16  1  0
 16 17  2  0
 16 21  1  0
 17 18  1  0
 18 19  2  0
 19 20  1  0
 20 21  2  0
 22 23  1  0
 22 24  1  0
 24 25  1  0
 25 26  1  0
 25 39  1  0
 26 27  1  0
 27 28  2  0
 27 29  1  0
 29 30  1  0
 29 34  1  0
 30 31  1  0
 30 32  1  0
 30 33  1  0
 34 35  1  0
 35 36  2  0
 35 37  1  0
 37 38  1  0
 39 40  1  0
 40 41  2  0
 40 43  1  0
 41 42  1  0
 42 45  2  0
 43 44  2  0
 44 45  1  0
 45 46  1  0
 46 47  2  0
 46 51  1  0
 47 48  1  0
 48 49  2  0
 49 50  1  0
 50 51  2  0
  1 52  1  0
  1 53  1  0
  1 54  1  0
  5 55  1  0
  6 56  1  0
  8 57  1  0
  8 58  1  0
  8 59  1  0
  9 60  1  0
  9 61  1  0
  9 62  1  0
 10 63  1  0
 10 64  1  0
 10 65  1  0
 13 66  1  0
 14 67  1  0
 15 68  1  0
 15 69  1  0
 17 70  1  0
 18 71  1  0
 19 72  1  0
 20 73  1  0
 21 74  1  0
 22 75  1  0
 23 76  1  0
 24 77  1  0
 24 78  1  0
 26 79  1  0
 29 80  1  0
 31 81  1  0
 31 82  1  0
 31 83  1  0
 32 84  1  0
 32 85  1  0
 32 86  1  0
 33 87  1  0
 33 88  1  0
 33 89  1  0
 34 90  1  0
 38 91  1  0
 38 92  1  0
 38 93  1  0
 39 94  1  0
 39 95  1  0
 41 96  1  0
 42 97  1  0
 43 98  1  0
 44 99  1  0
 47100  1  0
 48101  1  0
 49102  1  0
 50103  1  0
A    1
CAA
A    2
OBI
A    3
CBK
A    4
OAI
A    5
N
A    6
CA
A    7
CB
A    8
CAE
A    9
CG2
A   10
CG1
A   11
C
A   12
O
A   13
NBG
A   14
CBT
A   15
CBA
A   16
CBO
A   17
CAT
A   18
CAP
A   19
CAN
A   20
CAQ
A   21
CAU
A   22
CBS
A   23
OAM
A   24
CBC
A   25
NBW
A   26
NBH
A   27
CBN
A   28
OAL
A   29
CBV
A   30
CBY
A   31
CAH
A   32
CAF
A   33
CAG
A   34
NBF
A   35
CBL
A   36
OAJ
A   37
OBJ
A   38
CAB
A   39
CBB
A   40
CBP
A   41
CAW
A   42
CAY
A   43
CAX
A   44
CAZ
A   45
CBQ
A   46
CBR
A   47
CAV
A   48
CAR
A   49
CAO
A   50
CAS
A   51
NBD
M  END
