2FXS_RDA_A_1001
     RDKit          3D

 46 47  0  0  0  0  0  0  0  0999 V2000
   19.4390   35.7150    7.9830 C   0  0  0  0  0  0  0  0  0  0  0  0
   19.5700   34.8980    6.8150 O   0  0  0  0  0  0  0  0  0  0  0  0
   18.3630   34.6030    6.2580 C   0  0  0  0  0  0  0  0  0  0  0  0
   17.3240   35.0640    6.7280 O   0  0  0  0  0  0  0  0  0  0  0  0
   18.3240   33.7300    5.0000 C   0  0  0  0  0  0  0  0  0  0  0  0
   17.3560   32.7330    4.9060 C   0  0  0  0  0  0  0  0  0  0  0  0
   16.4430   32.5690    5.9000 O   0  0  0  0  0  0  0  0  0  0  0  0
   17.3310   31.8790    3.8090 C   0  0  0  0  0  0  0  0  0  0  0  0
   18.2870   32.0340    2.8100 C   0  0  0  0  0  0  0  0  0  0  0  0
   18.2990   31.1870    1.7460 O   0  0  0  0  0  0  0  0  0  0  0  0
   19.2470   33.0350    2.9110 C   0  0  0  0  0  0  0  0  0  0  0  0
   20.3870   33.2070    1.6210 Cl  0  0  0  0  0  0  0  0  0  0  0  0
   19.2860   33.9000    4.0050 C   0  0  0  0  0  0  0  0  0  0  0  0
   20.3420   35.0080    4.0990 C   0  0  0  0  0  0  0  0  0  0  0  0
   21.6830   34.4570    4.5910 C   0  0  0  0  0  0  0  0  0  0  0  0
   22.7690   35.5340    4.6240 C   0  0  0  0  0  0  0  0  0  0  0  0
   23.2910   35.9330    3.5840 O   0  0  0  0  0  0  0  0  0  0  0  0
   23.0650   35.9930    5.8390 N   0  0  0  0  0  0  0  0  0  0  0  0
   23.9910   36.9160    6.0970 C   0  0  0  0  0  0  0  0  0  0  0  0
   24.8080   37.4450    5.1010 C   0  0  0  0  0  0  0  0  0  0  0  0
   25.8140   38.3530    5.4210 C   0  0  0  0  0  0  0  0  0  0  0  0
   26.5400   38.8020    4.5330 O   0  0  0  0  0  0  0  0  0  0  0  0
   26.0100   38.7420    6.7430 C   0  0  0  0  0  0  0  0  0  0  0  0
   27.0150   39.5990    7.0650 O   0  0  0  0  0  0  0  0  0  0  0  0
   26.5750   40.9610    7.0320 C   0  0  0  0  0  0  0  0  0  0  0  0
   25.1900   38.2190    7.7410 C   0  0  0  0  0  0  0  0  0  0  0  0
   24.1860   37.3120    7.4180 C   0  0  0  0  0  0  0  0  0  0  0  0
   23.4610   36.8620    8.3050 O   0  0  0  0  0  0  0  0  0  0  0  0
   19.5394   35.0887    8.8817 H   0  0  0  0  0  0  0  0  0  0  0  0
   20.2253   36.4843    7.9824 H   0  0  0  0  0  0  0  0  0  0  0  0
   18.4516   36.1999    7.9824 H   0  0  0  0  0  0  0  0  0  0  0  0
   16.7275   32.6201    6.8468 H   0  0  0  0  0  0  0  0  0  0  0  0
   16.5663   31.0920    3.7320 H   0  0  0  0  0  0  0  0  0  0  0  0
   18.3129   30.2080    1.8927 H   0  0  0  0  0  0  0  0  0  0  0  0
   20.4817   35.4554    3.1039 H   0  0  0  0  0  0  0  0  0  0  0  0
   19.9911   35.7623    4.8186 H   0  0  0  0  0  0  0  0  0  0  0  0
   21.5506   34.0552    5.6064 H   0  0  0  0  0  0  0  0  0  0  0  0
   22.0048   33.6721    3.8907 H   0  0  0  0  0  0  0  0  0  0  0  0
   22.5403   35.6066    6.6367 H   0  0  0  0  0  0  0  0  0  0  0  0
   24.6575   37.1434    4.0539 H   0  0  0  0  0  0  0  0  0  0  0  0
   27.3574   39.3075    4.7703 H   0  0  0  0  0  0  0  0  0  0  0  0
   26.4550   41.3326    8.0604 H   0  0  0  0  0  0  0  0  0  0  0  0
   27.3206   41.5745    6.5051 H   0  0  0  0  0  0  0  0  0  0  0  0
   25.6113   41.0223    6.5051 H   0  0  0  0  0  0  0  0  0  0  0  0
   25.3371   38.5244    8.7875 H   0  0  0  0  0  0  0  0  0  0  0  0
   23.6944   37.0069    9.2561 H   0  0  0  0  0  0  0  0  0  0  0  0
  1  2  1  0
  2  3  1  0
  3  4  2  0
  3  5  1  0
  5  6  2  0
  5 13  1  0
  6  7  1  0
  6  8  1  0
  8  9  2  0
  9 10  1  0
  9 11  1  0
 11 12  1  0
 11 13  2  0
 13 14  1  0
 14 15  1  0
 15 16  1  0
 16 17  2  0
 16 18  1  0
 18 19  1  0
 19 20  2  0
 19 27  1  0
 20 21  1  0
 21 22  1  0
 21 23  2  0
 23 24  1  0
 23 26  1  0
 24 25  1  0
 26 27  2  0
 27 28  1  0
  1 29  1  0
  1 30  1  0
  1 31  1  0
  7 32  1  0
  8 33  1  0
 10 34  1  0
 14 35  1  0
 14 36  1  0
 15 37  1  0
 15 38  1  0
 18 39  1  0
 20 40  1  0
 22 41  1  0
 25 42  1  0
 25 43  1  0
 25 44  1  0
 26 45  1  0
 28 46  1  0
A    1
C7
A    2
O4
A    3
C6
A    4
O3
A    5
C5
A    6
C4
A    7
O2
A    8
C3
A    9
C2
A   10
O1
A   11
C1
A   12
CL
A   13
C8
A   14
C9
A   15
C10
A   16
C11
A   17
O5
A   18
N1
A   19
C12
A   20
C18
A   21
C17
A   22
O8
A   23
C15
A   24
O7
A   25
C16
A   26
C14
A   27
C13
A   28
O6
M  END
