2FYV_W72_A_2000
     RDKit          3D

 42 42  0  0  0  0  0  0  0  0999 V2000
   31.5140   66.2070    7.1750 C   0  0  0  0  0  0  0  0  0  0  0  0
   31.6230   67.1410    6.1300 O   0  0  0  0  0  0  0  0  0  0  0  0
   32.5920   66.0980    8.2440 C   0  0  0  0  0  0  0  0  0  0  0  0
   33.8250   65.4390    8.0020 O   0  0  0  0  0  0  0  0  0  0  0  0
   31.9480   65.5570    9.5040 C   0  0  0  0  0  0  0  0  0  0  0  0
   30.5800   65.0330    9.1330 N   0  0  0  0  0  0  0  0  0  0  0  0
   30.3020   66.0380    8.0800 C   0  0  0  0  0  0  0  0  0  0  0  0
   29.0140   65.9060    7.2820 C   0  0  0  0  0  0  0  0  0  0  0  0
   27.8510   65.9350    8.0890 O   0  0  0  0  0  0  0  0  0  0  0  0
   29.7210   65.3550   10.3330 C   0  0  0  0  0  0  0  0  0  0  0  0
   30.0090   64.1550   11.2320 C   0  0  0  0  0  0  0  0  0  0  0  0
   29.7750   62.9510   10.5020 O   0  0  0  0  0  0  0  0  0  0  0  0
   29.2540   64.0490   12.5610 C   0  0  0  0  0  0  0  0  0  0  0  0
   29.1600   65.3380   13.1660 O   0  0  0  0  0  0  0  0  0  0  0  0
   27.8750   63.3860   12.3810 C   0  0  0  0  0  0  0  0  0  0  0  0
   27.0690   64.4690   11.9180 O   0  0  0  0  0  0  0  0  0  0  0  0
   27.0410   62.7060   13.4730 C   0  0  0  0  0  0  0  0  0  0  0  0
   25.6600   62.6430   13.1080 O   0  0  0  0  0  0  0  0  0  0  0  0
   27.2300   63.4410   14.8140 C   0  0  0  0  0  0  0  0  0  0  0  0
   26.3060   64.3510   15.3680 O   0  0  0  0  0  0  0  0  0  0  0  0
   28.3560   63.2350   15.2990 O   0  0  0  0  0  0  0  0  0  0  0  0
   31.5298   65.4850    6.3453 H   0  0  0  0  0  0  0  0  0  0  0  0
   31.7290   68.0494    6.5090 H   0  0  0  0  0  0  0  0  0  0  0  0
   32.9572   67.1341    8.3009 H   0  0  0  0  0  0  0  0  0  0  0  0
   34.2522   65.2107    8.8654 H   0  0  0  0  0  0  0  0  0  0  0  0
   32.5612   64.7431    9.9182 H   0  0  0  0  0  0  0  0  0  0  0  0
   31.8642   66.3481   10.2637 H   0  0  0  0  0  0  0  0  0  0  0  0
   30.1095   66.9564    8.6540 H   0  0  0  0  0  0  0  0  0  0  0  0
   28.9615   66.7372    6.5635 H   0  0  0  0  0  0  0  0  0  0  0  0
   29.0393   64.9270    6.7812 H   0  0  0  0  0  0  0  0  0  0  0  0
   28.1118   65.9285    9.0440 H   0  0  0  0  0  0  0  0  0  0  0  0
   30.0289   66.2981   10.8081 H   0  0  0  0  0  0  0  0  0  0  0  0
   28.6557   65.5006   10.1006 H   0  0  0  0  0  0  0  0  0  0  0  0
   31.0586   64.3124   11.5211 H   0  0  0  0  0  0  0  0  0  0  0  0
   29.6298   62.2040   11.1353 H   0  0  0  0  0  0  0  0  0  0  0  0
   29.8203   63.3932   13.2387 H   0  0  0  0  0  0  0  0  0  0  0  0
   29.1670   65.2414   14.1513 H   0  0  0  0  0  0  0  0  0  0  0  0
   28.1290   62.4997   11.7811 H   0  0  0  0  0  0  0  0  0  0  0  0
   26.7019   64.9623   12.6938 H   0  0  0  0  0  0  0  0  0  0  0  0
   27.3944   61.6707   13.5879 H   0  0  0  0  0  0  0  0  0  0  0  0
   25.1032   62.6176   13.9262 H   0  0  0  0  0  0  0  0  0  0  0  0
   26.2216   64.4341   16.3509 H   0  0  0  0  0  0  0  0  0  0  0  0
  1  2  1  0
  1  3  1  0
  1  7  1  0
  3  4  1  0
  3  5  1  0
  5  6  1  0
  6  7  1  0
  6 10  1  0
  7  8  1  0
  8  9  1  0
 10 11  1  0
 11 12  1  0
 11 13  1  0
 13 14  1  0
 13 15  1  0
 15 16  1  0
 15 17  1  0
 17 18  1  0
 17 19  1  0
 19 20  1  0
 19 21  2  0
  1 22  1  0
  2 23  1  0
  3 24  1  0
  4 25  1  0
  5 26  1  0
  5 27  1  0
  7 28  1  0
  8 29  1  0
  8 30  1  0
  9 31  1  0
 10 32  1  0
 10 33  1  0
 11 34  1  0
 12 35  1  0
 13 36  1  0
 14 37  1  0
 15 38  1  0
 16 39  1  0
 17 40  1  0
 18 41  1  0
 20 42  1  0
A    1
C1
A    2
O1
A    3
C2
A    4
O2
A    5
C3
A    6
N4
A    7
C5
A    8
C6
A    9
O6
A   10
C7
A   11
C8
A   12
O8
A   13
C9
A   14
O9
A   15
C10
A   16
O10
A   17
C11
A   18
O11
A   19
C12
A   20
O12
A   21
O13
M  END
