2FZC_EOP_A_811
     RDKit          3D

 32 31  0  0  0  0  0  0  0  0999 V2000
   43.9000   28.8450   19.8860 O   0  0  0  0  0  0  0  0  0  0  0  0
   45.0640   29.7360   19.2190 P   0  0  0  0  0  0  0  0  0  0  0  0
   44.9990   31.1810   19.9280 O   0  0  0  0  0  0  0  0  0  0  0  0
   46.3990   29.1130   19.3640 O   0  0  0  0  0  0  0  0  0  0  0  0
   44.6130   29.9730   17.4830 C   0  0  0  0  0  0  0  0  0  0  0  0
   43.1100   29.9490   17.1570 C   0  0  0  0  0  0  0  0  0  0  0  0
   42.5070   30.9910   16.9300 O   0  0  0  0  0  0  0  0  0  0  0  0
   42.5660   28.7380   17.1040 N   0  0  0  0  0  0  0  0  0  0  0  0
   41.1560   28.4780   16.7570 C   0  0  0  0  0  0  0  0  0  0  0  0
   40.2370   28.4380   17.9790 C   0  0  0  0  0  0  0  0  0  0  0  0
   39.5550   29.7360   18.0740 N   0  0  0  0  0  0  0  0  0  0  0  0
   39.3290   30.4010   19.2060 C   0  0  0  0  0  0  0  0  0  0  0  0
   38.8590   31.5390   19.2290 O   0  0  0  0  0  0  0  0  0  0  0  0
   39.8080   29.7370   20.4980 C   0  0  0  0  0  0  0  0  0  0  0  0
   41.4480   30.3720   20.9160 P   0  0  0  0  0  0  0  0  0  0  0  0
   41.1920   31.5600   21.9730 O   0  0  0  0  0  0  0  0  0  0  0  0
   42.0120   31.0590   19.5720 O   0  0  0  0  0  0  0  0  0  0  0  0
   42.3530   29.3250   21.4400 O   0  0  0  0  0  0  0  0  0  0  0  0
   43.9685   28.8974   20.8722 H   0  0  0  0  0  0  0  0  0  0  0  0
   45.0041   31.0666   20.9114 H   0  0  0  0  0  0  0  0  0  0  0  0
   45.0089   30.9487   17.1647 H   0  0  0  0  0  0  0  0  0  0  0  0
   45.0412   29.1114   16.9498 H   0  0  0  0  0  0  0  0  0  0  0  0
   43.1669   27.9295   17.3188 H   0  0  0  0  0  0  0  0  0  0  0  0
   40.8083   29.2747   16.0830 H   0  0  0  0  0  0  0  0  0  0  0  0
   41.1119   27.4879   16.2798 H   0  0  0  0  0  0  0  0  0  0  0  0
   39.4955   27.6338   17.8628 H   0  0  0  0  0  0  0  0  0  0  0  0
   40.8206   28.2442   18.8911 H   0  0  0  0  0  0  0  0  0  0  0  0
   39.2261   30.1651   17.1973 H   0  0  0  0  0  0  0  0  0  0  0  0
   39.1054   29.9666   21.3126 H   0  0  0  0  0  0  0  0  0  0  0  0
   39.8569   28.6470   20.3586 H   0  0  0  0  0  0  0  0  0  0  0  0
   41.2686   31.2046   22.8938 H   0  0  0  0  0  0  0  0  0  0  0  0
   42.6215   31.8014   19.8116 H   0  0  0  0  0  0  0  0  0  0  0  0
  1  2  1  0
  2  3  1  0
  2  4  2  0
  2  5  1  0
  5  6  1  0
  6  7  2  0
  6  8  1  0
  8  9  1  0
  9 10  1  0
 10 11  1  0
 11 12  1  0
 12 13  2  0
 12 14  1  0
 14 15  1  0
 15 16  1  0
 15 17  1  0
 15 18  2  0
  1 19  1  0
  3 20  1  0
  5 21  1  0
  5 22  1  0
  8 23  1  0
  9 24  1  0
  9 25  1  0
 10 26  1  0
 10 27  1  0
 11 28  1  0
 14 29  1  0
 14 30  1  0
 16 31  1  0
 17 32  1  0
A    1
OAD
A    2
PAR
A    3
OAH
A    4
OAG
A    5
CAL
A    6
CAP
A    7
OAB
A    8
NAN
A    9
CAJ
A   10
CAI
A   11
NAM
A   12
CAO
A   13
OAA
A   14
CAK
A   15
PAQ
A   16
OAF
A   17
OAE
A   18
OAC
M  END
