2FZG_EOB_A_611
     RDKit          3D

 36 36  0  0  0  0  0  0  0  0999 V2000
   39.6630   26.7050   20.5870 O   0  0  0  0  0  0  0  0  0  0  0  0
   38.0620   26.6550   20.7670 P   0  0  0  0  0  0  0  0  0  0  0  0
   37.5950   25.2270   20.1840 O   0  0  0  0  0  0  0  0  0  0  0  0
   37.6260   26.8580   22.1750 O   0  0  0  0  0  0  0  0  0  0  0  0
   37.4030   27.9190   19.6500 C   0  0  0  0  0  0  0  0  0  0  0  0
   37.3050   29.2890   20.3340 C   0  0  0  0  0  0  0  0  0  0  0  0
   36.3640   29.5170   21.0980 O   0  0  0  0  0  0  0  0  0  0  0  0
   38.2480   30.1960   20.0820 N   0  0  0  0  0  0  0  0  0  0  0  0
   39.3050   30.0950   19.2740 C   0  0  0  0  0  0  0  0  0  0  0  0
   39.5790   28.9730   18.4990 C   0  0  0  0  0  0  0  0  0  0  0  0
   40.1540   31.2010   19.1800 C   0  0  0  0  0  0  0  0  0  0  0  0
   41.2430   31.1810   18.3200 C   0  0  0  0  0  0  0  0  0  0  0  0
   41.4990   30.0580   17.5410 C   0  0  0  0  0  0  0  0  0  0  0  0
   40.6640   28.9430   17.6300 C   0  0  0  0  0  0  0  0  0  0  0  0
   40.8830   27.8270   16.9340 N   0  0  0  0  0  0  0  0  0  0  0  0
   41.8350   27.6080   16.0290 C   0  0  0  0  0  0  0  0  0  0  0  0
   41.9730   26.5330   15.4440 O   0  0  0  0  0  0  0  0  0  0  0  0
   42.7920   28.7640   15.7210 C   0  0  0  0  0  0  0  0  0  0  0  0
   44.3710   28.5490   16.5720 P   0  0  0  0  0  0  0  0  0  0  0  0
   44.7920   30.0220   17.0630 O   0  0  0  0  0  0  0  0  0  0  0  0
   45.4210   28.1190   15.4300 O   0  0  0  0  0  0  0  0  0  0  0  0
   44.2920   27.5880   17.7010 O   0  0  0  0  0  0  0  0  0  0  0  0
   40.0950   26.7185   21.4777 H   0  0  0  0  0  0  0  0  0  0  0  0
   37.3944   24.6137   20.9348 H   0  0  0  0  0  0  0  0  0  0  0  0
   38.0668   28.0036   18.7769 H   0  0  0  0  0  0  0  0  0  0  0  0
   36.3900   27.6142   19.3485 H   0  0  0  0  0  0  0  0  0  0  0  0
   38.1477   31.0940   20.5764 H   0  0  0  0  0  0  0  0  0  0  0  0
   38.9245   28.0922   18.5751 H   0  0  0  0  0  0  0  0  0  0  0  0
   39.9577   32.0937   19.7920 H   0  0  0  0  0  0  0  0  0  0  0  0
   41.9058   32.0564   18.2544 H   0  0  0  0  0  0  0  0  0  0  0  0
   42.3589   30.0483   16.8551 H   0  0  0  0  0  0  0  0  0  0  0  0
   40.2409   27.0428   17.1178 H   0  0  0  0  0  0  0  0  0  0  0  0
   42.9712   28.8022   14.6364 H   0  0  0  0  0  0  0  0  0  0  0  0
   42.3320   29.6998   16.0712 H   0  0  0  0  0  0  0  0  0  0  0  0
   44.8001   30.0502   18.0526 H   0  0  0  0  0  0  0  0  0  0  0  0
   46.2490   27.7799   15.8538 H   0  0  0  0  0  0  0  0  0  0  0  0
  1  2  1  0
  2  3  1  0
  2  4  2  0
  2  5  1  0
  5  6  1  0
  6  7  2  0
  6  8  1  0
  8  9  1  0
  9 10  2  0
  9 11  1  0
 10 14  1  0
 11 12  2  0
 12 13  1  0
 13 14  2  0
 14 15  1  0
 15 16  1  0
 16 17  2  0
 16 18  1  0
 18 19  1  0
 19 20  1  0
 19 21  1  0
 19 22  2  0
  1 23  1  0
  3 24  1  0
  5 25  1  0
  5 26  1  0
  8 27  1  0
 10 28  1  0
 11 29  1  0
 12 30  1  0
 13 31  1  0
 15 32  1  0
 18 33  1  0
 18 34  1  0
 20 35  1  0
 21 36  1  0
A    1
OAF
A    2
PAU
A    3
OAE
A    4
OAC
A    5
CAM
A    6
CAQ
A    7
OAA
A    8
NAO
A    9
CAS
A   10
CAL
A   11
CAJ
A   12
CAI
A   13
CAK
A   14
CAT
A   15
NAP
A   16
CAR
A   17
OAB
A   18
CAN
A   19
PAV
A   20
OAH
A   21
OAG
A   22
OAD
M  END
