2FZK_EOZ_A_611
     RDKit          3D

 39 39  0  0  0  0  0  0  0  0999 V2000
   37.0020   26.3050   20.5930 O   0  0  0  0  0  0  0  0  0  0  0  0
   38.2680   27.0160   21.2910 P   0  0  0  0  0  0  0  0  0  0  0  0
   39.5190   26.6380   20.3470 O   0  0  0  0  0  0  0  0  0  0  0  0
   38.4320   26.5620   22.6910 O   0  0  0  0  0  0  0  0  0  0  0  0
   38.0400   28.8080   21.1310 C   0  0  0  0  0  0  0  0  0  0  0  0
   37.6120   29.0480   19.6920 C   0  0  0  0  0  0  0  0  0  0  0  0
   36.4160   28.8910   19.3890 O   0  0  0  0  0  0  0  0  0  0  0  0
   38.5210   29.4460   18.8040 N   0  0  0  0  0  0  0  0  0  0  0  0
   39.8020   29.7760   18.9440 C   0  0  0  0  0  0  0  0  0  0  0  0
   40.5450   29.8130   17.7720 C   0  0  0  0  0  0  0  0  0  0  0  0
   40.4700   29.8990   20.1670 C   0  0  0  0  0  0  0  0  0  0  0  0
   41.8500   30.0980   20.1920 C   0  0  0  0  0  0  0  0  0  0  0  0
   42.5870   30.4070   21.4990 C   0  0  0  0  0  0  0  0  0  0  0  0
   43.8350   30.3480   21.4850 O   0  0  0  0  0  0  0  0  0  0  0  0
   41.9070   30.7180   22.5050 O   0  0  0  0  0  0  0  0  0  0  0  0
   42.5840   30.1070   19.0110 C   0  0  0  0  0  0  0  0  0  0  0  0
   41.9340   29.9490   17.7900 C   0  0  0  0  0  0  0  0  0  0  0  0
   42.6740   29.6940   16.7170 N   0  0  0  0  0  0  0  0  0  0  0  0
   42.1440   29.2480   15.5770 C   0  0  0  0  0  0  0  0  0  0  0  0
   40.9470   28.9990   15.4290 O   0  0  0  0  0  0  0  0  0  0  0  0
   43.1510   29.0040   14.4490 C   0  0  0  0  0  0  0  0  0  0  0  0
   42.3240   28.7270   12.8580 P   0  0  0  0  0  0  0  0  0  0  0  0
   41.3230   27.4810   13.0950 O   0  0  0  0  0  0  0  0  0  0  0  0
   43.4530   28.2010   11.8310 O   0  0  0  0  0  0  0  0  0  0  0  0
   41.6370   29.9430   12.3570 O   0  0  0  0  0  0  0  0  0  0  0  0
   36.3901   25.9613   21.2913 H   0  0  0  0  0  0  0  0  0  0  0  0
   40.2983   26.4025   20.9104 H   0  0  0  0  0  0  0  0  0  0  0  0
   37.2615   29.1579   21.8249 H   0  0  0  0  0  0  0  0  0  0  0  0
   38.9627   29.3553   21.3740 H   0  0  0  0  0  0  0  0  0  0  0  0
   38.1701   29.5096   17.8377 H   0  0  0  0  0  0  0  0  0  0  0  0
   40.0263   29.7332   16.8053 H   0  0  0  0  0  0  0  0  0  0  0  0
   39.9063   29.8387   21.1096 H   0  0  0  0  0  0  0  0  0  0  0  0
   44.3390   30.3242   22.3368 H   0  0  0  0  0  0  0  0  0  0  0  0
   43.6757   30.2386   19.0414 H   0  0  0  0  0  0  0  0  0  0  0  0
   43.6915   29.8458   16.7668 H   0  0  0  0  0  0  0  0  0  0  0  0
   43.8074   29.8823   14.3612 H   0  0  0  0  0  0  0  0  0  0  0  0
   43.7298   28.1018   14.6958 H   0  0  0  0  0  0  0  0  0  0  0  0
   41.2043   27.3333   14.0667 H   0  0  0  0  0  0  0  0  0  0  0  0
   44.2220   27.8427   12.3412 H   0  0  0  0  0  0  0  0  0  0  0  0
  1  2  1  0
  2  3  1  0
  2  4  2  0
  2  5  1  0
  5  6  1  0
  6  7  2  0
  6  8  1  0
  8  9  1  0
  9 10  2  0
  9 11  1  0
 10 17  1  0
 11 12  2  0
 12 13  1  0
 12 16  1  0
 13 14  1  0
 13 15  2  0
 16 17  2  0
 17 18  1  0
 18 19  1  0
 19 20  2  0
 19 21  1  0
 21 22  1  0
 22 23  1  0
 22 24  1  0
 22 25  2  0
  1 26  1  0
  3 27  1  0
  5 28  1  0
  5 29  1  0
  8 30  1  0
 10 31  1  0
 11 32  1  0
 14 33  1  0
 16 34  1  0
 18 35  1  0
 21 36  1  0
 21 37  1  0
 23 38  1  0
 24 39  1  0
A    1
OAD
A    2
PAX
A    3
OAH
A    4
OAG
A    5
CAN
A    6
CAS
A    7
OAB
A    8
NAP
A    9
CAU
A   10
CAK
A   11
CAL
A   12
CAW
A   13
CAR
A   14
OAA
A   15
OAF
A   16
CAM
A   17
CAV
A   18
NAQ
A   19
CAT
A   20
OAC
A   21
CAO
A   22
PAY
A   23
OAI
A   24
OAE
A   25
OAJ
M  END
