2G0H_SP3_A_101
     RDKit          3D

 47 50  0  0  0  0  0  0  0  0999 V2000
  -10.3540   11.3820   35.5830 C   0  0  0  0  0  0  0  0  0  0  0  0
   -9.7910   12.2560   34.6640 C   0  0  0  0  0  0  0  0  0  0  0  0
   -8.7570   11.7870   33.8600 C   0  0  0  0  0  0  0  0  0  0  0  0
   -8.1890   12.5950   32.9480 F   0  0  0  0  0  0  0  0  0  0  0  0
   -8.2680   10.4920   33.9720 C   0  0  0  0  0  0  0  0  0  0  0  0
   -8.8510    9.6350   34.8910 C   0  0  0  0  0  0  0  0  0  0  0  0
   -9.8870   10.0760   35.7010 C   0  0  0  0  0  0  0  0  0  0  0  0
  -10.4450    9.2390   36.5790 N   0  0  0  0  0  0  0  0  0  0  0  0
  -10.9410    9.5710   37.6570 N   0  0  0  0  0  0  0  0  0  0  0  0
  -11.4550    8.5000   38.2680 C   0  0  0  0  0  0  0  0  0  0  0  0
  -12.1240    8.5130   39.4910 C   0  0  0  0  0  0  0  0  0  0  0  0
  -12.9840    7.6440   40.0240 C   0  0  0  0  0  0  0  0  0  0  0  0
  -13.5190    7.9830   41.2050 C   0  0  0  0  0  0  0  0  0  0  0  0
  -13.1600    9.1580   41.7170 C   0  0  0  0  0  0  0  0  0  0  0  0
  -12.0660    9.8170   40.5920 S   0  0  0  0  0  0  0  0  0  0  0  0
  -11.2470    7.4430   37.4870 C   0  0  0  0  0  0  0  0  0  0  0  0
  -10.6190    7.9280   36.4180 C   0  0  0  0  0  0  0  0  0  0  0  0
  -10.1940    7.2380   35.3590 N   0  0  0  0  0  0  0  0  0  0  0  0
  -10.6220    5.7300   34.9010 S   0  0  0  0  0  0  0  0  0  0  0  0
  -12.0770    5.5250   35.1850 O   0  0  0  0  0  0  0  0  0  0  0  0
  -10.3000    5.6180   33.4360 O   0  0  0  0  0  0  0  0  0  0  0  0
   -9.5950    4.6140   35.7050 C   0  0  0  0  0  0  0  0  0  0  0  0
   -8.4110    4.3180   35.0560 C   0  0  0  0  0  0  0  0  0  0  0  0
   -9.8990    4.0880   36.9530 C   0  0  0  0  0  0  0  0  0  0  0  0
   -9.0080    3.2050   37.5590 C   0  0  0  0  0  0  0  0  0  0  0  0
   -9.3510    2.5840   38.9290 C   0  0  0  0  0  0  0  0  0  0  0  0
   -8.2250    2.0440   39.3990 F   0  0  0  0  0  0  0  0  0  0  0  0
   -9.8920    3.4760   39.7490 F   0  0  0  0  0  0  0  0  0  0  0  0
  -10.2880    1.6320   38.9470 F   0  0  0  0  0  0  0  0  0  0  0  0
   -7.8090    2.8900   36.9130 C   0  0  0  0  0  0  0  0  0  0  0  0
   -7.5220    3.4460   35.6650 C   0  0  0  0  0  0  0  0  0  0  0  0
   -6.2470    3.1730   34.8830 C   0  0  0  0  0  0  0  0  0  0  0  0
   -6.6360    2.8410   33.6770 F   0  0  0  0  0  0  0  0  0  0  0  0
   -5.5390    4.2850   34.7820 F   0  0  0  0  0  0  0  0  0  0  0  0
   -5.5520    2.1500   35.3470 F   0  0  0  0  0  0  0  0  0  0  0  0
  -11.1785   11.7250   36.2254 H   0  0  0  0  0  0  0  0  0  0  0  0
  -10.1522   13.2911   34.5737 H   0  0  0  0  0  0  0  0  0  0  0  0
   -7.4325   10.1528   33.3421 H   0  0  0  0  0  0  0  0  0  0  0  0
   -8.4905    8.5995   34.9788 H   0  0  0  0  0  0  0  0  0  0  0  0
  -13.2404    6.6998   39.5212 H   0  0  0  0  0  0  0  0  0  0  0  0
  -14.2236    7.3197   41.7280 H   0  0  0  0  0  0  0  0  0  0  0  0
  -13.4975    9.6064   42.6631 H   0  0  0  0  0  0  0  0  0  0  0  0
  -11.5313    6.3984   37.6817 H   0  0  0  0  0  0  0  0  0  0  0  0
   -9.5105    7.7158   34.7544 H   0  0  0  0  0  0  0  0  0  0  0  0
   -8.1793    4.7646   34.0778 H   0  0  0  0  0  0  0  0  0  0  0  0
  -10.8353    4.3659   37.4591 H   0  0  0  0  0  0  0  0  0  0  0  0
   -7.0919    2.2043   37.3879 H   0  0  0  0  0  0  0  0  0  0  0  0
  1  2  2  0
  1  7  1  0
  2  3  1  0
  3  4  1  0
  3  5  2  0
  5  6  1  0
  6  7  2  0
  7  8  1  0
  8  9  1  0
  8 17  1  0
  9 10  2  0
 10 11  1  0
 10 16  1  0
 11 12  2  0
 11 15  1  0
 12 13  1  0
 13 14  2  0
 14 15  1  0
 16 17  2  0
 17 18  1  0
 18 19  1  0
 19 20  2  0
 19 21  2  0
 19 22  1  0
 22 23  2  0
 22 24  1  0
 23 31  1  0
 24 25  2  0
 25 26  1  0
 25 30  1  0
 26 27  1  0
 26 28  1  0
 26 29  1  0
 30 31  2  0
 31 32  1  0
 32 33  1  0
 32 34  1  0
 32 35  1  0
  1 36  1  0
  2 37  1  0
  5 38  1  0
  6 39  1  0
 12 40  1  0
 13 41  1  0
 14 42  1  0
 16 43  1  0
 18 44  1  0
 23 45  1  0
 24 46  1  0
 30 47  1  0
A    1
C30
A    2
C31
A    3
C32
A    4
F35
A    5
C33
A    6
C34
A    7
C29
A    8
N8
A    9
N7
A   10
C6
A   11
C3
A   12
C2
A   13
C1
A   14
C5
A   15
S4
A   16
C10
A   17
C9
A   18
N11
A   19
S12
A   20
O13
A   21
O14
A   22
C15
A   23
C16
A   24
C20
A   25
C19
A   26
C25
A   27
F28
A   28
F26
A   29
F27
A   30
C18
A   31
C17
A   32
C21
A   33
F24
A   34
F22
A   35
F23
M  END
