2G1A_5HG_A_700
     RDKit          3D

 30 31  0  0  0  0  0  0  0  0999 V2000
   16.7190    9.0680   10.9120 O   0  0  0  0  0  0  0  0  0  0  0  0
   17.5240    7.9570   11.5920 P   0  0  0  0  0  0  0  0  0  0  0  0
   17.3950    6.5820   10.9460 O   0  0  0  0  0  0  0  0  0  0  0  0
   17.3400    7.9120   13.1010 O   0  0  0  0  0  0  0  0  0  0  0  0
   19.2520    8.4620   11.4140 C   0  0  0  0  0  0  0  0  0  0  0  0
   20.0370    7.3700   11.9100 O   0  0  0  0  0  0  0  0  0  0  0  0
   21.1720    7.7550   12.6870 C   0  0  0  0  0  0  0  0  0  0  0  0
   22.4100    7.6530   11.7890 C   0  0  0  0  0  0  0  0  0  0  0  0
   23.6010    8.0930   12.5100 N   0  0  0  0  0  0  0  0  0  0  0  0
   24.5600    7.2730   12.9900 C   0  0  0  0  0  0  0  0  0  0  0  0
   25.5510    7.9740   13.6150 N   0  0  0  0  0  0  0  0  0  0  0  0
   25.2110    9.2750   13.5440 C   0  0  0  0  0  0  0  0  0  0  0  0
   23.9220    9.3510   12.8220 C   0  0  0  0  0  0  0  0  0  0  0  0
   23.3410   10.5660   12.6240 N   0  0  0  0  0  0  0  0  0  0  0  0
   23.9320   11.6890   13.0690 C   0  0  0  0  0  0  0  0  0  0  0  0
   25.1160   11.6900   13.7350 N   0  0  0  0  0  0  0  0  0  0  0  0
   25.8060   10.5440   14.0040 C   0  0  0  0  0  0  0  0  0  0  0  0
   26.9870   10.5500   14.6800 N   0  0  0  0  0  0  0  0  0  0  0  0
   17.3301    5.8906   11.6516 H   0  0  0  0  0  0  0  0  0  0  0  0
   18.1997    8.1222   13.5447 H   0  0  0  0  0  0  0  0  0  0  0  0
   19.4874    8.6523   10.3565 H   0  0  0  0  0  0  0  0  0  0  0  0
   19.4590    9.3902   11.9668 H   0  0  0  0  0  0  0  0  0  0  0  0
   21.0502    8.7895   13.0405 H   0  0  0  0  0  0  0  0  0  0  0  0
   21.2780    7.0995   13.5639 H   0  0  0  0  0  0  0  0  0  0  0  0
   22.5433    6.6078   11.4732 H   0  0  0  0  0  0  0  0  0  0  0  0
   22.2668    8.2988   10.9101 H   0  0  0  0  0  0  0  0  0  0  0  0
   24.5449    6.1776   12.8901 H   0  0  0  0  0  0  0  0  0  0  0  0
   23.4333   12.6520   12.8851 H   0  0  0  0  0  0  0  0  0  0  0  0
   26.9908   10.5500   15.7100 H   0  0  0  0  0  0  0  0  0  0  0  0
   27.8771   10.5545   14.1617 H   0  0  0  0  0  0  0  0  0  0  0  0
  1  2  2  0
  2  3  1  0
  2  4  1  0
  2  5  1  0
  5  6  1  0
  6  7  1  0
  7  8  1  0
  8  9  1  0
  9 10  1  0
  9 13  1  0
 10 11  2  0
 11 12  1  0
 12 13  2  0
 12 17  1  0
 13 14  1  0
 14 15  2  0
 15 16  1  0
 16 17  2  0
 17 18  1  0
  3 19  1  0
  4 20  1  0
  5 21  1  0
  5 22  1  0
  7 23  1  0
  7 24  1  0
  8 25  1  0
  8 26  1  0
 10 27  1  0
 15 28  1  0
 18 29  1  0
 18 30  1  0
A    1
O36
A    2
P30
A    3
O32
A    4
O34
A    5
C28
A    6
O26
A    7
C24
A    8
C22
A    9
N17
A   10
C15
A   11
N13
A   12
C2
A   13
C3
A   14
N4
A   15
C5
A   16
N6
A   17
C1
A   18
N20
M  END
