2G19_4HG_A_801
     RDKit          3D

 28 29  0  0  0  0  0  0  0  0999 V2000
    6.4020   47.7320   23.9480 C   0  0  0  0  0  0  0  0  0  0  0  0
    5.6050   48.9260   24.1480 C   0  0  0  0  0  0  0  0  0  0  0  0
    4.3480   48.7720   24.8660 C   0  0  0  0  0  0  0  0  0  0  0  0
    5.8940   46.4670   24.4650 C   0  0  0  0  0  0  0  0  0  0  0  0
    4.6200   46.3470   25.1780 C   0  0  0  0  0  0  0  0  0  0  0  0
    3.8010   47.5370   25.4050 C   0  0  0  0  0  0  0  0  0  0  0  0
    2.5610   47.4220   26.1700 C   0  0  0  0  0  0  0  0  0  0  0  0
    2.1230   46.1910   26.7020 N   0  0  0  0  0  0  0  0  0  0  0  0
    2.9090   45.0360   26.4740 C   0  0  0  0  0  0  0  0  0  0  0  0
    4.1520   45.0730   25.7050 C   0  0  0  0  0  0  0  0  0  0  0  0
    3.2550   50.4520   25.2810 I   0  0  0  0  0  0  0  0  0  0  0  0
    4.8320   43.9350   25.5240 O   0  0  0  0  0  0  0  0  0  0  0  0
    2.3220   43.7880   27.0580 C   0  0  0  0  0  0  0  0  0  0  0  0
    2.0190   41.4360   26.9670 C   0  0  0  0  0  0  0  0  0  0  0  0
    2.6390   40.2040   26.3130 C   0  0  0  0  0  0  0  0  0  0  0  0
    2.2230   39.0850   26.6550 O   0  0  0  0  0  0  0  0  0  0  0  0
    1.4080   43.8810   27.8750 O   0  0  0  0  0  0  0  0  0  0  0  0
    3.5930   40.3510   25.5120 O   0  0  0  0  0  0  0  0  0  0  0  0
    2.7750   42.5910   26.6780 N   0  0  0  0  0  0  0  0  0  0  0  0
    7.3656   47.7791   23.4196 H   0  0  0  0  0  0  0  0  0  0  0  0
    5.9356   49.9060   23.7735 H   0  0  0  0  0  0  0  0  0  0  0  0
    6.4962   45.5592   24.3124 H   0  0  0  0  0  0  0  0  0  0  0  0
    1.9510   48.3222   26.3359 H   0  0  0  0  0  0  0  0  0  0  0  0
    5.1431   43.4144   26.3065 H   0  0  0  0  0  0  0  0  0  0  0  0
    0.9959   41.5701   26.5859 H   0  0  0  0  0  0  0  0  0  0  0  0
    2.0055   41.2873   28.0568 H   0  0  0  0  0  0  0  0  0  0  0  0
    2.1395   38.8603   27.6155 H   0  0  0  0  0  0  0  0  0  0  0  0
    3.6713   42.5115   26.1767 H   0  0  0  0  0  0  0  0  0  0  0  0
  1  2  2  0
  1  4  1  0
  2  3  1  0
  3  6  2  0
  3 11  1  0
  4  5  2  0
  5  6  1  0
  5 10  1  0
  6  7  1  0
  7  8  2  0
  8  9  1  0
  9 10  2  0
  9 13  1  0
 10 12  1  0
 13 17  2  0
 13 19  1  0
 14 15  1  0
 14 19  1  0
 15 16  1  0
 15 18  2  0
  1 20  1  0
  2 21  1  0
  4 22  1  0
  7 23  1  0
 12 24  1  0
 14 25  1  0
 14 26  1  0
 16 27  1  0
 19 28  1  0
A    1
C1
A    2
C2
A    3
C3
A    4
C4
A    5
C5
A    6
C6
A    7
C7
A    8
N1
A    9
C8
A   10
C9
A   11
I1
A   12
O1
A   13
C10
A   14
C11
A   15
C12
A   16
O2
A   17
O3
A   18
O4
A   19
N2
M  END
