2G27_4LG_A_804
     RDKit          3D

 80 84  0  0  0  0  0  0  0  0999 V2000
   24.3250  112.6740  124.8310 C   0  0  0  0  0  0  0  0  0  0  0  0
   24.8700  111.6570  124.0160 O   0  0  0  0  0  0  0  0  0  0  0  0
   24.5800  111.7790  122.6560 C   0  0  0  0  0  0  0  0  0  0  0  0
   25.3310  112.5950  121.7540 C   0  0  0  0  0  0  0  0  0  0  0  0
   26.5070  113.3840  122.2540 C   0  0  0  0  0  0  0  0  0  0  0  0
   27.1640  114.1300  121.2630 O   0  0  0  0  0  0  0  0  0  0  0  0
   23.4800  111.0330  122.1720 C   0  0  0  0  0  0  0  0  0  0  0  0
   23.1200  111.0890  120.8040 C   0  0  0  0  0  0  0  0  0  0  0  0
   23.8540  111.8900  119.9160 C   0  0  0  0  0  0  0  0  0  0  0  0
   24.9450  112.6310  120.3930 C   0  0  0  0  0  0  0  0  0  0  0  0
   27.0370  109.8400  128.0960 C   0  0  0  0  0  0  0  0  0  0  0  0
   26.1210  109.3330  128.9920 C   0  0  0  0  0  0  0  0  0  0  0  0
   25.2580  108.3440  128.6890 C   0  0  0  0  0  0  0  0  0  0  0  0
   25.2190  107.7520  127.4060 C   0  0  0  0  0  0  0  0  0  0  0  0
   26.1230  108.2280  126.4230 C   0  0  0  0  0  0  0  0  0  0  0  0
   27.0450  109.2870  126.7640 C   0  0  0  0  0  0  0  0  0  0  0  0
   24.3350  107.7950  129.5020 N   0  0  0  0  0  0  0  0  0  0  0  0
   23.6520  106.8180  128.8220 C   0  0  0  0  0  0  0  0  0  0  0  0
   24.1680  106.7490  127.5040 C   0  0  0  0  0  0  0  0  0  0  0  0
   24.3030  108.3880  130.8650 C   0  0  0  0  0  0  0  0  0  0  0  0
   23.3500  107.9590  131.8840 C   0  0  0  0  0  0  0  0  0  0  0  0
   23.6670  108.5600  133.0330 O   0  0  0  0  0  0  0  0  0  0  0  0
   22.4450  107.2330  131.7010 O   0  0  0  0  0  0  0  0  0  0  0  0
   22.8800  108.3340  134.1980 C   0  0  0  0  0  0  0  0  0  0  0  0
   29.2790  111.7720  130.5120 C   0  0  0  0  0  0  0  0  0  0  0  0
   29.5570  111.0990  131.8770 C   0  0  0  0  0  0  0  0  0  0  0  0
   30.3870  111.9560  132.6590 N   0  0  0  0  0  0  0  0  0  0  0  0
   31.6930  112.3010  132.0970 C   0  0  0  0  0  0  0  0  0  0  0  0
   31.6680  112.6020  130.5580 C   0  0  0  0  0  0  0  0  0  0  0  0
   30.4970  112.3410  129.8180 N   0  0  0  0  0  0  0  0  0  0  0  0
   32.7010  113.0690  130.0810 O   0  0  0  0  0  0  0  0  0  0  0  0
   28.4300  110.6760  129.8440 C   0  0  0  0  0  0  0  0  0  0  0  0
   27.9320  110.8190  128.5080 O   0  0  0  0  0  0  0  0  0  0  0  0
   30.6810  111.6100  127.4700 C   0  0  0  0  0  0  0  0  0  0  0  0
   30.4330  112.6170  128.4500 C   0  0  0  0  0  0  0  0  0  0  0  0
   30.0830  113.9180  127.9510 C   0  0  0  0  0  0  0  0  0  0  0  0
   29.9850  114.1910  126.5610 C   0  0  0  0  0  0  0  0  0  0  0  0
   30.2230  113.1600  125.6080 C   0  0  0  0  0  0  0  0  0  0  0  0
   30.5660  111.8750  126.0880 C   0  0  0  0  0  0  0  0  0  0  0  0
   30.1640  113.2560  124.2050 O   0  0  0  0  0  0  0  0  0  0  0  0
   29.8420  114.4870  123.5810 C   0  0  0  0  0  0  0  0  0  0  0  0
   29.5350  114.2940  122.0890 C   0  0  0  0  0  0  0  0  0  0  0  0
   28.2600  114.9660  121.5670 C   0  0  0  0  0  0  0  0  0  0  0  0
   24.4662  112.4106  125.8896 H   0  0  0  0  0  0  0  0  0  0  0  0
   24.8339  113.6259  124.6190 H   0  0  0  0  0  0  0  0  0  0  0  0
   23.2506  112.7774  124.6190 H   0  0  0  0  0  0  0  0  0  0  0  0
   26.1516  114.0785  123.0295 H   0  0  0  0  0  0  0  0  0  0  0  0
   27.2368  112.6549  122.6360 H   0  0  0  0  0  0  0  0  0  0  0  0
   22.8999  110.4046  122.8638 H   0  0  0  0  0  0  0  0  0  0  0  0
   22.2639  110.5039  120.4368 H   0  0  0  0  0  0  0  0  0  0  0  0
   23.5756  111.9364  118.8528 H   0  0  0  0  0  0  0  0  0  0  0  0
   25.5156  113.2566  119.6908 H   0  0  0  0  0  0  0  0  0  0  0  0
   26.0931  109.7575  130.0064 H   0  0  0  0  0  0  0  0  0  0  0  0
   26.1225  107.7957  125.4115 H   0  0  0  0  0  0  0  0  0  0  0  0
   27.7498  109.6697  126.0111 H   0  0  0  0  0  0  0  0  0  0  0  0
   22.8425  106.1950  129.2302 H   0  0  0  0  0  0  0  0  0  0  0  0
   23.8374  106.0673  126.7065 H   0  0  0  0  0  0  0  0  0  0  0  0
   25.3029  108.2239  131.2932 H   0  0  0  0  0  0  0  0  0  0  0  0
   23.9648  109.4138  130.6571 H   0  0  0  0  0  0  0  0  0  0  0  0
   23.4929  108.5100  135.0943 H   0  0  0  0  0  0  0  0  0  0  0  0
   22.0217  109.0220  134.1998 H   0  0  0  0  0  0  0  0  0  0  0  0
   22.5175  107.2955  134.1998 H   0  0  0  0  0  0  0  0  0  0  0  0
   28.7404  112.7310  130.5250 H   0  0  0  0  0  0  0  0  0  0  0  0
   28.6065  110.9263  132.4030 H   0  0  0  0  0  0  0  0  0  0  0  0
   30.0635  110.1354  131.7190 H   0  0  0  0  0  0  0  0  0  0  0  0
   29.8715  112.8345  132.8119 H   0  0  0  0  0  0  0  0  0  0  0  0
   32.0682  113.1943  132.6178 H   0  0  0  0  0  0  0  0  0  0  0  0
   32.3412  111.4236  132.2383 H   0  0  0  0  0  0  0  0  0  0  0  0
   29.0435  109.7630  129.8494 H   0  0  0  0  0  0  0  0  0  0  0  0
   27.5068  110.6978  130.4417 H   0  0  0  0  0  0  0  0  0  0  0  0
   30.9693  110.6010  127.7998 H   0  0  0  0  0  0  0  0  0  0  0  0
   29.8847  114.7281  128.6683 H   0  0  0  0  0  0  0  0  0  0  0  0
   29.7241  115.2034  126.2188 H   0  0  0  0  0  0  0  0  0  0  0  0
   30.7474  111.0632  125.3682 H   0  0  0  0  0  0  0  0  0  0  0  0
   28.9593  114.9189  124.0753 H   0  0  0  0  0  0  0  0  0  0  0  0
   30.7079  115.1591  123.6727 H   0  0  0  0  0  0  0  0  0  0  0  0
   30.3843  114.6960  121.5171 H   0  0  0  0  0  0  0  0  0  0  0  0
   29.3720  113.2138  121.9597 H   0  0  0  0  0  0  0  0  0  0  0  0
   28.5256  115.5093  120.6482 H   0  0  0  0  0  0  0  0  0  0  0  0
   27.9120  115.5952  122.3995 H   0  0  0  0  0  0  0  0  0  0  0  0
  1  2  1  0
  2  3  1  0
  3  4  2  0
  3  7  1  0
  4  5  1  0
  4 10  1  0
  5  6  1  0
  6 43  1  0
  7  8  2  0
  8  9  1  0
  9 10  2  0
 11 12  2  0
 11 16  1  0
 11 33  1  0
 12 13  1  0
 13 14  2  0
 13 17  1  0
 14 15  1  0
 14 19  1  0
 15 16  2  0
 17 18  1  0
 17 20  1  0
 18 19  2  0
 20 21  1  0
 21 22  1  0
 21 23  2  0
 22 24  1  0
 25 26  1  0
 25 30  1  0
 25 32  1  0
 26 27  1  0
 27 28  1  0
 28 29  1  0
 29 30  1  0
 29 31  2  0
 30 35  1  0
 32 33  1  0
 34 35  2  0
 34 39  1  0
 35 36  1  0
 36 37  2  0
 37 38  1  0
 38 39  2  0
 38 40  1  0
 40 41  1  0
 41 42  1  0
 42 43  1  0
  1 44  1  0
  1 45  1  0
  1 46  1  0
  5 47  1  0
  5 48  1  0
  7 49  1  0
  8 50  1  0
  9 51  1  0
 10 52  1  0
 12 53  1  0
 15 54  1  0
 16 55  1  0
 18 56  1  0
 19 57  1  0
 20 58  1  0
 20 59  1  0
 24 60  1  0
 24 61  1  0
 24 62  1  0
 25 63  1  0
 26 64  1  0
 26 65  1  0
 27 66  1  0
 28 67  1  0
 28 68  1  0
 32 69  1  0
 32 70  1  0
 34 71  1  0
 36 72  1  0
 37 73  1  0
 39 74  1  0
 41 75  1  0
 41 76  1  0
 42 77  1  0
 42 78  1  0
 43 79  1  0
 43 80  1  0
A    1
C1
A    2
O1
A    3
C2
A    4
C3
A    5
C4
A    6
O2
A    7
C5
A    8
C6
A    9
C7
A   10
C8
A   11
C9
A   12
C10
A   13
C11
A   14
C12
A   15
C13
A   16
C14
A   17
N1
A   18
C15
A   19
C16
A   20
C17
A   21
C18
A   22
O3
A   23
O4
A   24
C19
A   25
C20
A   26
C21
A   27
N2
A   28
C22
A   29
C23
A   30
N3
A   31
O5
A   32
C24
A   33
O6
A   34
C25
A   35
C26
A   36
C27
A   37
C28
A   38
C29
A   39
C30
A   40
O7
A   41
C31
A   42
C32
A   43
C33
M  END
