2G5N_23M_A_301
     RDKit          3D

 34 36  0  0  0  0  0  0  0  0999 V2000
   -3.7170   49.0780    1.4520 C   0  0  0  0  0  0  0  0  0  0  0  0
   -3.7120   48.8250    2.8480 C   0  0  0  0  0  0  0  0  0  0  0  0
   -2.4500   48.8900    3.2940 N   0  0  0  0  0  0  0  0  0  0  0  0
   -1.6380   49.1690    2.2520 C   0  0  0  0  0  0  0  0  0  0  0  0
   -2.3990   49.2940    1.0870 C   0  0  0  0  0  0  0  0  0  0  0  0
   -0.1390   49.3090    2.3710 C   0  0  0  0  0  0  0  0  0  0  0  0
    0.5980   50.1950    1.5240 C   0  0  0  0  0  0  0  0  0  0  0  0
    2.0130   50.3040    1.6570 C   0  0  0  0  0  0  0  0  0  0  0  0
    2.6990   49.5310    2.6320 C   0  0  0  0  0  0  0  0  0  0  0  0
    1.9840   48.6430    3.4850 C   0  0  0  0  0  0  0  0  0  0  0  0
    0.5650   48.5360    3.3480 C   0  0  0  0  0  0  0  0  0  0  0  0
    2.7190   47.8320    4.5110 C   0  0  0  0  0  0  0  0  0  0  0  0
   -4.9420   48.5580    3.5280 C   0  0  0  0  0  0  0  0  0  0  0  0
   -6.1450   48.5470    2.7700 C   0  0  0  0  0  0  0  0  0  0  0  0
   -6.1190   48.8030    1.3610 C   0  0  0  0  0  0  0  0  0  0  0  0
   -4.9020   49.0770    0.6620 C   0  0  0  0  0  0  0  0  0  0  0  0
   -7.3750   48.7690    0.6130 C   0  0  0  0  0  0  0  0  0  0  0  0
   -8.2780   47.6950    0.8010 N   0  0  0  0  0  0  0  0  0  0  0  0
   -7.7000   49.7850   -0.3160 N   0  0  0  0  0  0  0  0  0  0  0  0
   -2.1495   48.7504    4.2693 H   0  0  0  0  0  0  0  0  0  0  0  0
   -2.0245   49.5198    0.0777 H   0  0  0  0  0  0  0  0  0  0  0  0
    0.0709   50.7945    0.7672 H   0  0  0  0  0  0  0  0  0  0  0  0
    2.5748   50.9877    1.0037 H   0  0  0  0  0  0  0  0  0  0  0  0
    3.7912   49.6193    2.7286 H   0  0  0  0  0  0  0  0  0  0  0  0
    0.0068   47.8503    4.0024 H   0  0  0  0  0  0  0  0  0  0  0  0
    2.4223   48.1593    5.5184 H   0  0  0  0  0  0  0  0  0  0  0  0
    2.4713   46.7679    4.3835 H   0  0  0  0  0  0  0  0  0  0  0  0
    3.8023   47.9741    4.3835 H   0  0  0  0  0  0  0  0  0  0  0  0
   -4.9568   48.3659    4.6110 H   0  0  0  0  0  0  0  0  0  0  0  0
   -7.1030   48.3403    3.2696 H   0  0  0  0  0  0  0  0  0  0  0  0
   -4.8823   49.2749   -0.4199 H   0  0  0  0  0  0  0  0  0  0  0  0
   -9.1634   47.6686    0.2754 H   0  0  0  0  0  0  0  0  0  0  0  0
   -7.9968   50.7129    0.0184 H   0  0  0  0  0  0  0  0  0  0  0  0
   -7.6398   49.5969   -1.3269 H   0  0  0  0  0  0  0  0  0  0  0  0
  1  2  2  0
  1  5  1  0
  1 16  1  0
  2  3  1  0
  2 13  1  0
  3  4  1  0
  4  5  2  0
  4  6  1  0
  6  7  2  0
  6 11  1  0
  7  8  1  0
  8  9  2  0
  9 10  1  0
 10 11  2  0
 10 12  1  0
 13 14  2  0
 14 15  1  0
 15 16  2  0
 15 17  1  0
 17 18  2  3
 17 19  1  0
  3 20  1  0
  5 21  1  0
  7 22  1  0
  8 23  1  0
  9 24  1  0
 11 25  1  0
 12 26  1  0
 12 27  1  0
 12 28  1  0
 13 29  1  0
 14 30  1  0
 16 31  1  0
 18 32  1  0
 19 33  1  0
 19 34  1  0
A    1
C1
A    2
C2
A    3
N3
A    4
C4
A    5
C5
A    6
C6
A    7
C7
A    8
C8
A    9
C9
A   10
C10
A   11
C11
A   12
C12
A   13
C13
A   14
C14
A   15
C15
A   16
C16
A   17
C17
A   18
N18
A   19
N19
M  END
