2G6P_HM2_A_410
     RDKit          3D

 40 42  0  0  0  0  0  0  0  0999 V2000
   22.0290   19.5340   11.4170 N   0  0  0  0  0  0  0  0  0  0  0  0
   21.4760   19.2310   15.0800 N   0  0  0  0  0  0  0  0  0  0  0  0
   20.8520   20.8110   13.4480 N   0  0  0  0  0  0  0  0  0  0  0  0
   21.3220   19.4520   17.2330 N   0  0  0  0  0  0  0  0  0  0  0  0
   22.7090   18.8170   10.3050 C   0  0  0  0  0  0  0  0  0  0  0  0
   23.2950   17.6110   10.4890 C   0  0  0  0  0  0  0  0  0  0  0  0
   23.2620   16.9900   11.8510 C   0  0  0  0  0  0  0  0  0  0  0  0
   22.6620   17.6510   12.9130 C   0  0  0  0  0  0  0  0  0  0  0  0
   22.0560   18.8780   12.7340 C   0  0  0  0  0  0  0  0  0  0  0  0
   21.4230   19.6660   13.8260 C   0  0  0  0  0  0  0  0  0  0  0  0
   20.9150   20.0850   16.0530 C   0  0  0  0  0  0  0  0  0  0  0  0
   20.2840   21.6180   14.3460 C   0  0  0  0  0  0  0  0  0  0  0  0
   20.3090   21.2710   15.7570 C   0  0  0  0  0  0  0  0  0  0  0  0
   21.4910   18.0300   17.6200 C   0  0  0  0  0  0  0  0  0  0  0  0
   20.2570   17.2690   18.0420 C   0  0  0  0  0  0  0  0  0  0  0  0
   19.2750   17.2230   16.9230 C   0  0  0  0  0  0  0  0  0  0  0  0
   19.4280   16.2820   15.8820 C   0  0  0  0  0  0  0  0  0  0  0  0
   18.5010   16.2590   14.8480 C   0  0  0  0  0  0  0  0  0  0  0  0
   17.4270   17.1130   14.7740 C   0  0  0  0  0  0  0  0  0  0  0  0
   17.2890   18.0170   15.7830 C   0  0  0  0  0  0  0  0  0  0  0  0
   18.1850   18.1090   16.8760 C   0  0  0  0  0  0  0  0  0  0  0  0
   19.6420   22.8800   13.8860 C   0  0  0  0  0  0  0  0  0  0  0  0
   19.6220   22.3620   16.8860 Cl  0  0  0  0  0  0  0  0  0  0  0  0
   21.5521   20.1108   17.9906 H   0  0  0  0  0  0  0  0  0  0  0  0
   22.7362   19.2791    9.3071 H   0  0  0  0  0  0  0  0  0  0  0  0
   23.7876   17.0954    9.6514 H   0  0  0  0  0  0  0  0  0  0  0  0
   23.7173   16.0015   12.0109 H   0  0  0  0  0  0  0  0  0  0  0  0
   22.6694   17.1906   13.9120 H   0  0  0  0  0  0  0  0  0  0  0  0
   21.9234   17.5031   16.7566 H   0  0  0  0  0  0  0  0  0  0  0  0
   22.1229   18.0586   18.5199 H   0  0  0  0  0  0  0  0  0  0  0  0
   20.5399   16.2430   18.3199 H   0  0  0  0  0  0  0  0  0  0  0  0
   19.7978   17.7774   18.9026 H   0  0  0  0  0  0  0  0  0  0  0  0
   20.2711   15.5755   15.8896 H   0  0  0  0  0  0  0  0  0  0  0  0
   18.6336   15.5180   14.0459 H   0  0  0  0  0  0  0  0  0  0  0  0
   16.7123   17.0685   13.9390 H   0  0  0  0  0  0  0  0  0  0  0  0
   16.4372   18.7121   15.7473 H   0  0  0  0  0  0  0  0  0  0  0  0
   18.0315   18.8558   17.6689 H   0  0  0  0  0  0  0  0  0  0  0  0
   19.3386   23.4764   14.7591 H   0  0  0  0  0  0  0  0  0  0  0  0
   20.3570   23.4552   13.2795 H   0  0  0  0  0  0  0  0  0  0  0  0
   18.7560   22.6408   13.2795 H   0  0  0  0  0  0  0  0  0  0  0  0
  1  5  2  0
  1  9  1  0
  2 10  2  0
  2 11  1  0
  3 10  1  0
  3 12  2  0
  4 11  1  0
  4 14  1  0
  5  6  1  0
  6  7  2  0
  7  8  1  0
  8  9  2  0
  9 10  1  0
 11 13  2  0
 12 13  1  0
 12 22  1  0
 13 23  1  0
 14 15  1  0
 15 16  1  0
 16 17  2  0
 16 21  1  0
 17 18  1  0
 18 19  2  0
 19 20  1  0
 20 21  2  0
  4 24  1  0
  5 25  1  0
  6 26  1  0
  7 27  1  0
  8 28  1  0
 14 29  1  0
 14 30  1  0
 15 31  1  0
 15 32  1  0
 17 33  1  0
 18 34  1  0
 19 35  1  0
 20 36  1  0
 21 37  1  0
 22 38  1  0
 22 39  1  0
 22 40  1  0
A    1
N1
A    2
N2
A    3
N3
A    4
N4
A    5
C1
A    6
C2
A    7
C3
A    8
C4
A    9
C5
A   10
C6
A   11
C7
A   12
C8
A   13
C9
A   14
C10
A   15
C11
A   16
C12
A   17
C13
A   18
C14
A   19
C15
A   20
C16
A   21
C17
A   22
C18
A   23
CL1
M  END
