2G7Y_MO9_A_999
     RDKit          3D

 52 53  0  0  0  0  0  0  0  0999 V2000
   30.6080   24.0480   24.2240 C   0  0  0  0  0  0  0  0  0  0  0  0
   30.8580   22.9270   23.3800 C   0  0  0  0  0  0  0  0  0  0  0  0
   29.9160   22.5740   22.3830 C   0  0  0  0  0  0  0  0  0  0  0  0
   28.7320   23.3250   22.2200 C   0  0  0  0  0  0  0  0  0  0  0  0
   28.4820   24.4360   23.0530 C   0  0  0  0  0  0  0  0  0  0  0  0
   29.4100   24.7970   24.0490 C   0  0  0  0  0  0  0  0  0  0  0  0
   32.1440   22.0850   23.5300 C   0  0  0  0  0  0  0  0  0  0  0  0
   33.9580   20.4880   25.3160 C   0  0  0  0  0  0  0  0  0  0  0  0
   34.9210   21.6130   25.8110 C   0  0  0  0  0  0  0  0  0  0  0  0
   36.2490   21.0370   25.9330 C   0  0  0  0  0  0  0  0  0  0  0  0
   32.2830   21.1830   25.1190 S   0  0  0  0  0  0  0  0  0  0  0  0
   34.9560   22.7600   24.9310 O   0  0  0  0  0  0  0  0  0  0  0  0
   31.3900   20.0870   25.0340 O   0  0  0  0  0  0  0  0  0  0  0  0
   31.9060   21.9950   26.2630 O   0  0  0  0  0  0  0  0  0  0  0  0
   36.7550   20.8960   27.2090 N   0  0  0  0  0  0  0  0  0  0  0  0
   36.8870   20.7110   24.9490 O   0  0  0  0  0  0  0  0  0  0  0  0
   38.0750   20.3580   27.6000 C   0  0  0  0  0  0  0  0  0  0  0  0
   39.0790   21.4330   27.5930 C   0  0  0  0  0  0  0  0  0  0  0  0
   35.5990   23.9140   25.3590 C   0  0  0  0  0  0  0  0  0  0  0  0
   35.8070   24.9580   24.4720 N   0  0  0  0  0  0  0  0  0  0  0  0
   35.9780   24.0290   26.5240 O   0  0  0  0  0  0  0  0  0  0  0  0
   36.5680   26.2010   24.8540 C   0  0  0  0  0  0  0  0  0  0  0  0
   37.5260   26.7130   23.7160 C   0  0  0  0  0  0  0  0  0  0  0  0
   36.8730   26.7540   22.4250 O   0  0  0  0  0  0  0  0  0  0  0  0
   36.3750   25.4530   22.0550 C   0  0  0  0  0  0  0  0  0  0  0  0
   35.2890   24.9550   23.0670 C   0  0  0  0  0  0  0  0  0  0  0  0
   31.5270   24.3780   25.2040 O   0  0  0  0  0  0  0  0  0  0  0  0
   32.0720   25.6860   25.4570 C   0  0  0  0  0  0  0  0  0  0  0  0
   33.0890   25.5870   26.3850 F   0  0  0  0  0  0  0  0  0  0  0  0
   31.1440   26.4240   25.9850 F   0  0  0  0  0  0  0  0  0  0  0  0
   39.8620   22.2880   27.5770 N   0  0  0  0  0  0  0  0  0  0  0  0
   30.1083   21.7089   21.7314 H   0  0  0  0  0  0  0  0  0  0  0  0
   28.0047   23.0443   21.4440 H   0  0  0  0  0  0  0  0  0  0  0  0
   27.5599   25.0217   22.9242 H   0  0  0  0  0  0  0  0  0  0  0  0
   29.2078   25.6634   24.6960 H   0  0  0  0  0  0  0  0  0  0  0  0
   32.1690   21.3481   22.7137 H   0  0  0  0  0  0  0  0  0  0  0  0
   32.9857   22.7924   23.4980 H   0  0  0  0  0  0  0  0  0  0  0  0
   34.3116   20.0987   24.3499 H   0  0  0  0  0  0  0  0  0  0  0  0
   33.9361   19.6686   26.0495 H   0  0  0  0  0  0  0  0  0  0  0  0
   34.5514   21.9851   26.7779 H   0  0  0  0  0  0  0  0  0  0  0  0
   36.1417   21.2010   27.9782 H   0  0  0  0  0  0  0  0  0  0  0  0
   38.0084   19.9284   28.6105 H   0  0  0  0  0  0  0  0  0  0  0  0
   38.3745   19.5798   26.8825 H   0  0  0  0  0  0  0  0  0  0  0  0
   35.8448   26.9964   25.0868 H   0  0  0  0  0  0  0  0  0  0  0  0
   37.1954   25.9476   25.7213 H   0  0  0  0  0  0  0  0  0  0  0  0
   37.8685   27.7266   23.9714 H   0  0  0  0  0  0  0  0  0  0  0  0
   38.3690   26.0100   23.6444 H   0  0  0  0  0  0  0  0  0  0  0  0
   35.9301   25.5112   21.0507 H   0  0  0  0  0  0  0  0  0  0  0  0
   37.2143   24.7421   22.0661 H   0  0  0  0  0  0  0  0  0  0  0  0
   34.9920   23.9307   22.7975 H   0  0  0  0  0  0  0  0  0  0  0  0
   34.4286   25.6383   23.0145 H   0  0  0  0  0  0  0  0  0  0  0  0
   32.4441   26.1154   24.5151 H   0  0  0  0  0  0  0  0  0  0  0  0
  1  2  2  0
  1  6  1  0
  1 27  1  0
  2  3  1  0
  2  7  1  0
  3  4  2  0
  4  5  1  0
  5  6  2  0
  7 11  1  0
  8  9  1  0
  8 11  1  0
  9 10  1  0
  9 12  1  0
 10 15  1  0
 10 16  2  0
 11 13  2  0
 11 14  2  0
 12 19  1  0
 15 17  1  0
 17 18  1  0
 18 31  3  0
 19 20  1  0
 19 21  2  0
 20 22  1  0
 20 26  1  0
 22 23  1  0
 23 24  1  0
 24 25  1  0
 25 26  1  0
 27 28  1  0
 28 29  1  0
 28 30  1  0
  3 32  1  0
  4 33  1  0
  5 34  1  0
  6 35  1  0
  7 36  1  0
  7 37  1  0
  8 38  1  0
  8 39  1  0
  9 40  1  0
 15 41  1  0
 17 42  1  0
 17 43  1  0
 22 44  1  0
 22 45  1  0
 23 46  1  0
 23 47  1  0
 25 48  1  0
 25 49  1  0
 26 50  1  0
 26 51  1  0
 28 52  1  0
A    1
C1
A    2
C2
A    3
C3
A    4
C4
A    5
C5
A    6
C6
A    7
C7
A    8
C9
A    9
C10
A   10
C12
A   11
S8
A   12
O11
A   13
O13
A   14
O14
A   15
N15
A   16
O16
A   17
C17
A   18
C18
A   19
C19
A   20
N20
A   21
O21
A   22
C22
A   23
C23
A   24
O24
A   25
C25
A   26
C26
A   27
O27
A   28
C28
A   29
F29
A   30
F30
A   31
N31
M  END
