2G8R_N3E_A_998
     RDKit          3D

 46 48  0  0  0  0  0  0  0  0999 V2000
   34.8040   -5.7070   13.9980 O   0  0  0  0  0  0  0  0  0  0  0  0
   35.6110   -5.1090   14.7610 C   0  0  0  0  0  0  0  0  0  0  0  0
   35.9170   -3.8110   14.4670 N   0  0  0  0  0  0  0  0  0  0  0  0
   36.7800   -3.0990   15.2300 C   0  0  0  0  0  0  0  0  0  0  0  0
   37.0320   -1.9100   14.9320 O   0  0  0  0  0  0  0  0  0  0  0  0
   37.3680   -3.7000   16.3340 C   0  0  0  0  0  0  0  0  0  0  0  0
   37.0400   -5.0250   16.6230 C   0  0  0  0  0  0  0  0  0  0  0  0
   36.1790   -5.7130   15.8370 N   0  0  0  0  0  0  0  0  0  0  0  0
   35.8450   -7.1130   16.1730 C   0  0  0  0  0  0  0  0  0  0  0  0
   35.5660   -7.2150   17.5740 O   0  0  0  0  0  0  0  0  0  0  0  0
   36.0580   -8.4410   18.1080 C   0  0  0  0  0  0  0  0  0  0  0  0
   36.7280   -8.1970   19.4610 C   0  0  0  0  0  0  0  0  0  0  0  0
   37.6820   -7.1370   19.3450 O   0  0  0  0  0  0  0  0  0  0  0  0
   36.9380   -8.1350   15.8560 C   0  0  0  0  0  0  0  0  0  0  0  0
   38.1930   -7.4720   15.6760 O   0  0  0  0  0  0  0  0  0  0  0  0
   37.0300   -9.0280   17.0840 C   0  0  0  0  0  0  0  0  0  0  0  0
   36.6020  -10.4010   16.7830 N   0  0  0  0  0  0  0  0  0  0  0  0
   36.2460  -11.2070   17.9660 C   0  0  0  0  0  0  0  0  0  0  0  0
   36.6260  -10.8290   15.3710 C   0  0  0  0  0  0  0  0  0  0  0  0
   36.7340  -12.3500   15.2740 C   0  0  0  0  0  0  0  0  0  0  0  0
   35.8520  -13.0350   16.3120 C   0  0  0  0  0  0  0  0  0  0  0  0
   36.3870  -12.7010   17.6940 C   0  0  0  0  0  0  0  0  0  0  0  0
   35.7650  -14.5210   16.0850 C   0  0  0  0  0  0  0  0  0  0  0  0
   36.4070  -15.3140   16.8150 O   0  0  0  0  0  0  0  0  0  0  0  0
   35.0170  -14.9100   15.1670 O   0  0  0  0  0  0  0  0  0  0  0  0
   35.4821   -3.3639   13.6473 H   0  0  0  0  0  0  0  0  0  0  0  0
   38.0762   -3.1447   16.9665 H   0  0  0  0  0  0  0  0  0  0  0  0
   37.4864   -5.5164   17.5001 H   0  0  0  0  0  0  0  0  0  0  0  0
   34.9779   -7.3547   15.5408 H   0  0  0  0  0  0  0  0  0  0  0  0
   35.2405   -9.1548   18.2873 H   0  0  0  0  0  0  0  0  0  0  0  0
   35.9638   -7.9210   20.2025 H   0  0  0  0  0  0  0  0  0  0  0  0
   37.2420   -9.1148   19.7826 H   0  0  0  0  0  0  0  0  0  0  0  0
   37.9527   -6.8363   20.2486 H   0  0  0  0  0  0  0  0  0  0  0  0
   36.7078   -8.6969   14.9388 H   0  0  0  0  0  0  0  0  0  0  0  0
   38.5863   -7.2642   16.5604 H   0  0  0  0  0  0  0  0  0  0  0  0
   38.0686   -9.0664   17.4442 H   0  0  0  0  0  0  0  0  0  0  0  0
   36.9109  -10.9318   18.7980 H   0  0  0  0  0  0  0  0  0  0  0  0
   35.1948  -11.0019   18.2169 H   0  0  0  0  0  0  0  0  0  0  0  0
   35.6998  -10.4998   14.8773 H   0  0  0  0  0  0  0  0  0  0  0  0
   37.4999  -10.3784   14.8777 H   0  0  0  0  0  0  0  0  0  0  0  0
   36.4185  -12.6683   14.2694 H   0  0  0  0  0  0  0  0  0  0  0  0
   37.7791  -12.6367   15.4626 H   0  0  0  0  0  0  0  0  0  0  0  0
   34.8220  -12.6601   16.2197 H   0  0  0  0  0  0  0  0  0  0  0  0
   37.4490  -12.9820   17.7503 H   0  0  0  0  0  0  0  0  0  0  0  0
   35.8107  -13.2590   18.4467 H   0  0  0  0  0  0  0  0  0  0  0  0
   36.3464  -15.2391   17.8003 H   0  0  0  0  0  0  0  0  0  0  0  0
  1  2  2  0
  2  3  1  0
  2  8  1  0
  3  4  1  0
  4  5  2  0
  4  6  1  0
  6  7  2  0
  7  8  1  0
  8  9  1  0
  9 10  1  0
  9 14  1  0
 10 11  1  0
 11 12  1  0
 11 16  1  0
 12 13  1  0
 14 15  1  0
 14 16  1  0
 16 17  1  0
 17 18  1  0
 17 19  1  0
 18 22  1  0
 19 20  1  0
 20 21  1  0
 21 22  1  0
 21 23  1  0
 23 24  1  0
 23 25  2  0
  3 26  1  0
  6 27  1  0
  7 28  1  0
  9 29  1  0
 11 30  1  0
 12 31  1  0
 12 32  1  0
 13 33  1  0
 14 34  1  0
 15 35  1  0
 16 36  1  0
 18 37  1  0
 18 38  1  0
 19 39  1  0
 19 40  1  0
 20 41  1  0
 20 42  1  0
 21 43  1  0
 22 44  1  0
 22 45  1  0
 24 46  1  0
A    1
O2
A    2
C2
A    3
N3
A    4
C4
A    5
O4
A    6
C5
A    7
C6
A    8
N1
A    9
C1'
A   10
O4'
A   11
C4'
A   12
C5'
A   13
O5'
A   14
C2'
A   15
O2'
A   16
C3'
A   17
N7
A   18
C13
A   19
C8
A   20
C9
A   21
C10
A   22
C12
A   23
C11
A   24
O13
A   25
O12
M  END
