2G8T_MI2_A_401
     RDKit          3D

 34 36  0  0  0  0  0  0  0  0999 V2000
   -3.5840   49.2440    1.4630 C   0  0  0  0  0  0  0  0  0  0  0  0
   -3.5940   48.9990    2.8780 C   0  0  0  0  0  0  0  0  0  0  0  0
   -2.3410   49.1110    3.3420 N   0  0  0  0  0  0  0  0  0  0  0  0
   -1.5270   49.4150    2.3010 C   0  0  0  0  0  0  0  0  0  0  0  0
   -2.2700   49.5060    1.1180 C   0  0  0  0  0  0  0  0  0  0  0  0
   -0.0250   49.6130    2.4220 C   0  0  0  0  0  0  0  0  0  0  0  0
    0.5640   50.7740    1.7610 C   0  0  0  0  0  0  0  0  0  0  0  0
    1.9850   51.0120    1.8380 C   0  0  0  0  0  0  0  0  0  0  0  0
    2.8370   50.1100    2.5660 C   0  0  0  0  0  0  0  0  0  0  0  0
    2.2720   48.9590    3.2250 C   0  0  0  0  0  0  0  0  0  0  0  0
    0.8460   48.6840    3.1720 C   0  0  0  0  0  0  0  0  0  0  0  0
    0.3590   47.4600    3.8930 C   0  0  0  0  0  0  0  0  0  0  0  0
   -4.8460   48.6870    3.5460 C   0  0  0  0  0  0  0  0  0  0  0  0
   -6.0590   48.6300    2.7550 C   0  0  0  0  0  0  0  0  0  0  0  0
   -6.0110   48.8820    1.3240 C   0  0  0  0  0  0  0  0  0  0  0  0
   -4.7710   49.2000    0.6410 C   0  0  0  0  0  0  0  0  0  0  0  0
   -7.2450   48.8080    0.5390 C   0  0  0  0  0  0  0  0  0  0  0  0
   -8.1900   47.7940    0.8230 N   0  0  0  0  0  0  0  0  0  0  0  0
   -7.5000   49.7210   -0.5030 N   0  0  0  0  0  0  0  0  0  0  0  0
   -2.0471   48.9873    4.3214 H   0  0  0  0  0  0  0  0  0  0  0  0
   -1.8857   49.7393    0.1141 H   0  0  0  0  0  0  0  0  0  0  0  0
   -0.0784   51.4703    1.2019 H   0  0  0  0  0  0  0  0  0  0  0  0
    2.4199   51.8892    1.3366 H   0  0  0  0  0  0  0  0  0  0  0  0
    3.9194   50.2985    2.6198 H   0  0  0  0  0  0  0  0  0  0  0  0
    2.9329   48.2758    3.7786 H   0  0  0  0  0  0  0  0  0  0  0  0
    0.4242   47.6238    4.9788 H   0  0  0  0  0  0  0  0  0  0  0  0
   -0.6865   47.2619    3.6142 H   0  0  0  0  0  0  0  0  0  0  0  0
    0.9826   46.5978    3.6142 H   0  0  0  0  0  0  0  0  0  0  0  0
   -4.8726   48.4980    4.6293 H   0  0  0  0  0  0  0  0  0  0  0  0
   -7.0187   48.3954    3.2387 H   0  0  0  0  0  0  0  0  0  0  0  0
   -4.7368   49.3963   -0.4408 H   0  0  0  0  0  0  0  0  0  0  0  0
   -9.0609   47.7339    0.2763 H   0  0  0  0  0  0  0  0  0  0  0  0
   -7.7707   50.6903   -0.2837 H   0  0  0  0  0  0  0  0  0  0  0  0
   -7.4157   49.4193   -1.4842 H   0  0  0  0  0  0  0  0  0  0  0  0
  1  2  2  0
  1  5  1  0
  1 16  1  0
  2  3  1  0
  2 13  1  0
  3  4  1  0
  4  5  2  0
  4  6  1  0
  6  7  2  0
  6 11  1  0
  7  8  1  0
  8  9  2  0
  9 10  1  0
 10 11  2  0
 11 12  1  0
 13 14  2  0
 14 15  1  0
 15 16  2  0
 15 17  1  0
 17 18  2  3
 17 19  1  0
  3 20  1  0
  5 21  1  0
  7 22  1  0
  8 23  1  0
  9 24  1  0
 10 25  1  0
 12 26  1  0
 12 27  1  0
 12 28  1  0
 13 29  1  0
 14 30  1  0
 16 31  1  0
 18 32  1  0
 19 33  1  0
 19 34  1  0
A    1
C1
A    2
C2
A    3
N3
A    4
C4
A    5
C5
A    6
C6
A    7
C7
A    8
C8
A    9
C9
A   10
C10
A   11
C11
A   12
C12
A   13
C13
A   14
C14
A   15
C15
A   16
C16
A   17
C17
A   18
N18
A   19
N19
M  END
