2G9X_NU5_A_299
     RDKit          3D

 66 69  0  0  0  0  0  0  0  0999 V2000
   -2.9360  -28.3320   26.8310 O   0  0  0  0  0  0  0  0  0  0  0  0
   -2.8770  -27.5210   25.6500 S   0  0  0  0  0  0  0  0  0  0  0  0
   -2.7900  -28.4260   24.5250 O   0  0  0  0  0  0  0  0  0  0  0  0
   -1.5680  -26.4910   25.7520 C   0  0  0  0  0  0  0  0  0  0  0  0
   -0.4450  -26.9770   24.8550 C   0  0  0  0  0  0  0  0  0  0  0  0
   -0.5150  -26.4000   23.5210 N   0  0  0  0  0  0  0  0  0  0  0  0
    0.7140  -25.9890   22.8510 C   0  0  0  0  0  0  0  0  0  0  0  0
    0.8080  -26.5510   21.4330 C   0  0  0  0  0  0  0  0  0  0  0  0
    1.1280  -28.0470   21.4110 C   0  0  0  0  0  0  0  0  0  0  0  0
    0.0470  -28.7930   21.9940 O   0  0  0  0  0  0  0  0  0  0  0  0
   -4.2310  -26.6820   25.4720 C   0  0  0  0  0  0  0  0  0  0  0  0
   -5.3430  -27.0140   26.2290 C   0  0  0  0  0  0  0  0  0  0  0  0
   -6.5350  -26.3140   26.0770 C   0  0  0  0  0  0  0  0  0  0  0  0
   -6.6500  -25.2680   25.1710 C   0  0  0  0  0  0  0  0  0  0  0  0
   -5.5380  -24.9280   24.4000 C   0  0  0  0  0  0  0  0  0  0  0  0
   -4.3370  -25.6330   24.5530 C   0  0  0  0  0  0  0  0  0  0  0  0
   -7.8540  -24.6440   25.0980 N   0  0  0  0  0  0  0  0  0  0  0  0
   -8.2000  -23.6080   24.2970 C   0  0  0  0  0  0  0  0  0  0  0  0
   -7.2940  -23.0690   23.4500 N   0  0  0  0  0  0  0  0  0  0  0  0
   -7.5790  -22.0300   22.6460 C   0  0  0  0  0  0  0  0  0  0  0  0
   -8.9400  -21.4760   22.6850 C   0  0  0  0  0  0  0  0  0  0  0  0
   -9.5900  -20.4930   22.0490 N   0  0  0  0  0  0  0  0  0  0  0  0
  -10.8510  -20.4910   22.5400 C   0  0  0  0  0  0  0  0  0  0  0  0
  -11.0330  -21.4570   23.4810 N   0  0  0  0  0  0  0  0  0  0  0  0
   -9.8830  -22.1090   23.6190 C   0  0  0  0  0  0  0  0  0  0  0  0
   -9.4650  -23.1400   24.3780 N   0  0  0  0  0  0  0  0  0  0  0  0
   -6.6440  -21.5150   21.8070 O   0  0  0  0  0  0  0  0  0  0  0  0
   -5.3010  -21.3330   22.2350 C   0  0  0  0  0  0  0  0  0  0  0  0
   -4.4120  -21.9920   21.1740 C   0  0  0  0  0  0  0  0  0  0  0  0
   -4.9830  -21.7410   19.7550 C   0  0  0  0  0  0  0  0  0  0  0  0
   -4.0310  -21.2700   18.6500 C   0  0  0  0  0  0  0  0  0  0  0  0
   -2.5620  -21.5290   18.9600 C   0  0  0  0  0  0  0  0  0  0  0  0
   -2.2300  -20.9160   20.3190 C   0  0  0  0  0  0  0  0  0  0  0  0
   -2.9340  -21.6660   21.4450 C   0  0  0  0  0  0  0  0  0  0  0  0
   -1.8741  -25.4827   25.4364 H   0  0  0  0  0  0  0  0  0  0  0  0
   -1.2109  -26.4679   26.7921 H   0  0  0  0  0  0  0  0  0  0  0  0
    0.5170  -26.6993   25.3105 H   0  0  0  0  0  0  0  0  0  0  0  0
   -0.5421  -28.0682   24.7553 H   0  0  0  0  0  0  0  0  0  0  0  0
   -0.9669  -27.0998   22.9152 H   0  0  0  0  0  0  0  0  0  0  0  0
    0.7406  -24.8905   22.8002 H   0  0  0  0  0  0  0  0  0  0  0  0
    1.5638  -26.3811   23.4291 H   0  0  0  0  0  0  0  0  0  0  0  0
   -0.1547  -26.3895   20.9259 H   0  0  0  0  0  0  0  0  0  0  0  0
    1.6297  -26.0278   20.9220 H   0  0  0  0  0  0  0  0  0  0  0  0
    1.2746  -28.3722   20.3704 H   0  0  0  0  0  0  0  0  0  0  0  0
    2.0440  -28.2273   21.9927 H   0  0  0  0  0  0  0  0  0  0  0  0
    0.1104  -28.7492   22.9810 H   0  0  0  0  0  0  0  0  0  0  0  0
   -5.2825  -27.8375   26.9557 H   0  0  0  0  0  0  0  0  0  0  0  0
   -7.4057  -26.5950   26.6877 H   0  0  0  0  0  0  0  0  0  0  0  0
   -5.6043  -24.1062   23.6718 H   0  0  0  0  0  0  0  0  0  0  0  0
   -3.4650  -25.3576   23.9417 H   0  0  0  0  0  0  0  0  0  0  0  0
   -8.5897  -25.0000   25.7248 H   0  0  0  0  0  0  0  0  0  0  0  0
  -11.6359  -19.7914   22.2168 H   0  0  0  0  0  0  0  0  0  0  0  0
  -11.9053  -21.6485   23.9942 H   0  0  0  0  0  0  0  0  0  0  0  0
   -5.0689  -20.2605   22.3122 H   0  0  0  0  0  0  0  0  0  0  0  0
   -5.1356  -21.7808   23.2260 H   0  0  0  0  0  0  0  0  0  0  0  0
   -4.4297  -23.0900   21.2384 H   0  0  0  0  0  0  0  0  0  0  0  0
   -5.4312  -22.6862   19.4148 H   0  0  0  0  0  0  0  0  0  0  0  0
   -5.6728  -20.8950   19.8910 H   0  0  0  0  0  0  0  0  0  0  0  0
   -4.2887  -21.7983   17.7203 H   0  0  0  0  0  0  0  0  0  0  0  0
   -4.1547  -20.1807   18.5599 H   0  0  0  0  0  0  0  0  0  0  0  0
   -2.3756  -22.6127   18.9878 H   0  0  0  0  0  0  0  0  0  0  0  0
   -1.9304  -21.0762   18.1815 H   0  0  0  0  0  0  0  0  0  0  0  0
   -1.1428  -20.9647   20.4794 H   0  0  0  0  0  0  0  0  0  0  0  0
   -2.5747  -19.8714   20.3253 H   0  0  0  0  0  0  0  0  0  0  0  0
   -2.8804  -21.0486   22.3538 H   0  0  0  0  0  0  0  0  0  0  0  0
   -2.4165  -22.6313   21.5464 H   0  0  0  0  0  0  0  0  0  0  0  0
  1  2  2  0
  2  3  2  0
  2  4  1  0
  2 11  1  0
  4  5  1  0
  5  6  1  0
  6  7  1  0
  7  8  1  0
  8  9  1  0
  9 10  1  0
 11 12  2  0
 11 16  1  0
 12 13  1  0
 13 14  2  0
 14 15  1  0
 14 17  1  0
 15 16  2  0
 17 18  1  0
 18 19  2  0
 18 26  1  0
 19 20  1  0
 20 21  2  0
 20 27  1  0
 21 22  1  0
 21 25  1  0
 22 23  2  0
 23 24  1  0
 24 25  1  0
 25 26  2  0
 27 28  1  0
 28 29  1  0
 29 30  1  0
 29 34  1  0
 30 31  1  0
 31 32  1  0
 32 33  1  0
 33 34  1  0
  4 35  1  0
  4 36  1  0
  5 37  1  0
  5 38  1  0
  6 39  1  0
  7 40  1  0
  7 41  1  0
  8 42  1  0
  8 43  1  0
  9 44  1  0
  9 45  1  0
 10 46  1  0
 12 47  1  0
 13 48  1  0
 15 49  1  0
 16 50  1  0
 17 51  1  0
 23 52  1  0
 24 53  1  0
 28 54  1  0
 28 55  1  0
 29 56  1  0
 30 57  1  0
 30 58  1  0
 31 59  1  0
 31 60  1  0
 32 61  1  0
 32 62  1  0
 33 63  1  0
 33 64  1  0
 34 65  1  0
 34 66  1  0
A    1
O2
A    2
S1
A    3
O3
A    4
C22
A    5
C23
A    6
N6
A    7
C24
A    8
C25
A    9
C26
A   10
O4
A   11
C19
A   12
C18
A   13
C17
A   14
C16
A   15
C21
A   16
C20
A   17
N2
A   18
C2
A   19
N1
A   20
C6
A   21
C5
A   22
N7
A   23
C8
A   24
N9
A   25
C4
A   26
N3
A   27
O6
A   28
C9
A   29
C10
A   30
C15
A   31
C14
A   32
C13
A   33
C12
A   34
C11
M  END
