2GC8_885_A_579
     RDKit          3D

 35 36  0  0  0  0  0  0  0  0999 V2000
    6.7990   43.0500   54.4950 C   0  0  0  0  0  0  0  0  0  0  0  0
    7.4540   43.5210   53.2210 C   0  0  0  0  0  0  0  0  0  0  0  0
    8.6050   44.3390   53.3300 C   0  0  0  0  0  0  0  0  0  0  0  0
    9.2780   44.8240   52.1750 C   0  0  0  0  0  0  0  0  0  0  0  0
    8.8090   44.5050   50.8520 C   0  0  0  0  0  0  0  0  0  0  0  0
    7.6400   43.6870   50.7430 C   0  0  0  0  0  0  0  0  0  0  0  0
    6.9620   43.2010   51.9040 C   0  0  0  0  0  0  0  0  0  0  0  0
    5.5500   42.2330   51.6510 Cl  0  0  0  0  0  0  0  0  0  0  0  0
    9.4300   44.9510   49.6860 N   0  0  0  0  0  0  0  0  0  0  0  0
   10.6940   45.8720   52.4530 S   0  0  0  0  0  0  0  0  0  0  0  0
   10.2540   47.2250   52.1370 O   0  0  0  0  0  0  0  0  0  0  0  0
   11.2330   45.5830   53.7710 O   0  0  0  0  0  0  0  0  0  0  0  0
   11.8410   45.3750   51.2710 N   0  0  0  0  0  0  0  0  0  0  0  0
   12.4760   44.0230   51.4280 C   0  0  0  0  0  0  0  0  0  0  0  0
   13.8930   44.3280   51.8810 C   0  0  0  0  0  0  0  0  0  0  0  0
   14.2450   45.5630   51.0660 C   0  0  0  0  0  0  0  0  0  0  0  0
   12.9470   46.3690   51.0060 C   0  0  0  0  0  0  0  0  0  0  0  0
   12.6050   47.0470   49.6610 C   0  0  0  0  0  0  0  0  0  0  0  0
   11.7970   46.4450   48.8900 O   0  0  0  0  0  0  0  0  0  0  0  0
   13.1770   48.1610   49.4910 O   0  0  0  0  0  0  0  0  0  0  0  0
    7.3511   43.4470   55.3596 H   0  0  0  0  0  0  0  0  0  0  0  0
    5.7597   43.4089   54.5274 H   0  0  0  0  0  0  0  0  0  0  0  0
    6.8084   41.9505   54.5274 H   0  0  0  0  0  0  0  0  0  0  0  0
    8.9857   44.6043   54.3273 H   0  0  0  0  0  0  0  0  0  0  0  0
    7.2553   43.4269   49.7458 H   0  0  0  0  0  0  0  0  0  0  0  0
   10.2652   45.5509   49.7445 H   0  0  0  0  0  0  0  0  0  0  0  0
    9.0535   44.6806   48.7662 H   0  0  0  0  0  0  0  0  0  0  0  0
   11.9441   43.4275   52.1846 H   0  0  0  0  0  0  0  0  0  0  0  0
   12.4478   43.4336   50.4996 H   0  0  0  0  0  0  0  0  0  0  0  0
   13.9276   44.5412   52.9596 H   0  0  0  0  0  0  0  0  0  0  0  0
   14.5901   43.4908   51.7288 H   0  0  0  0  0  0  0  0  0  0  0  0
   15.0388   46.1416   51.5611 H   0  0  0  0  0  0  0  0  0  0  0  0
   14.6241   45.3081   50.0654 H   0  0  0  0  0  0  0  0  0  0  0  0
   13.0623   47.1905   51.7283 H   0  0  0  0  0  0  0  0  0  0  0  0
   11.0640   45.8988   49.2701 H   0  0  0  0  0  0  0  0  0  0  0  0
  1  2  1  0
  2  3  2  0
  2  7  1  0
  3  4  1  0
  4  5  2  0
  4 10  1  0
  5  6  1  0
  5  9  1  0
  6  7  2  0
  7  8  1  0
 10 11  2  0
 10 12  2  0
 10 13  1  0
 13 14  1  0
 13 17  1  0
 14 15  1  0
 15 16  1  0
 16 17  1  0
 17 18  1  0
 18 19  1  0
 18 20  2  0
  1 21  1  0
  1 22  1  0
  1 23  1  0
  3 24  1  0
  6 25  1  0
  9 26  1  0
  9 27  1  0
 14 28  1  0
 14 29  1  0
 15 30  1  0
 15 31  1  0
 16 32  1  0
 16 33  1  0
 17 34  1  0
 19 35  1  0
A    1
C1
A    2
C2
A    3
C3
A    4
C4
A    5
C5
A    6
C6
A    7
C7
A    8
CL
A    9
N1
A   10
S1
A   11
O1
A   12
O2
A   13
N2
A   14
C8
A   15
C9
A   16
C10
A   17
C11
A   18
C12
A   19
O3
A   20
O4
M  END
