2DGN_DOI_A_1451
     RDKit          3D

 40 42  0  0  0  0  0  0  0  0999 V2000
   60.7580   66.5450   39.9990 P   0  0  0  0  0  0  0  0  0  0  0  0
   59.3470   65.9790   40.0690 O   0  0  0  0  0  0  0  0  0  0  0  0
   60.8910   67.8680   40.7330 O   0  0  0  0  0  0  0  0  0  0  0  0
   61.7890   65.5190   40.4320 O   0  0  0  0  0  0  0  0  0  0  0  0
   61.0290   66.8630   38.4190 O   0  0  0  0  0  0  0  0  0  0  0  0
   63.3280   57.4710   38.1970 P   0  0  0  0  0  0  0  0  0  0  0  0
   61.9560   56.9680   37.7440 O   0  0  0  0  0  0  0  0  0  0  0  0
   63.6680   57.0070   39.6100 O   0  0  0  0  0  0  0  0  0  0  0  0
   64.4390   57.1800   37.1880 O   0  0  0  0  0  0  0  0  0  0  0  0
   62.2580   67.4730   37.9650 C   0  0  0  0  0  0  0  0  0  0  0  0
   62.8090   66.7160   36.7760 C   0  0  0  0  0  0  0  0  0  0  0  0
   63.1910   65.3860   37.1860 O   0  0  0  0  0  0  0  0  0  0  0  0
   62.7550   64.4500   36.2300 C   0  0  0  0  0  0  0  0  0  0  0  0
   62.3790   63.2380   36.9500 N   0  0  0  0  0  0  0  0  0  0  0  0
   62.5520   61.9640   36.4690 C   0  0  0  0  0  0  0  0  0  0  0  0
   62.6560   61.5850   35.1830 N   0  0  0  0  0  0  0  0  0  0  0  0
   62.8340   60.2660   35.0960 C   0  0  0  0  0  0  0  0  0  0  0  0
   62.9170   59.3580   36.0740 N   0  0  0  0  0  0  0  0  0  0  0  0
   62.8160   59.7730   37.3570 C   0  0  0  0  0  0  0  0  0  0  0  0
   63.2180   59.0840   38.2940 O   0  0  0  0  0  0  0  0  0  0  0  0
   62.6090   61.1440   37.5840 C   0  0  0  0  0  0  0  0  0  0  0  0
   62.4540   61.8850   38.7470 N   0  0  0  0  0  0  0  0  0  0  0  0
   62.3200   63.1150   38.3190 C   0  0  0  0  0  0  0  0  0  0  0  0
   61.5610   65.0740   35.5130 C   0  0  0  0  0  0  0  0  0  0  0  0
   61.8740   66.5650   35.5770 C   0  0  0  0  0  0  0  0  0  0  0  0
   62.4820   67.0330   34.3780 O   0  0  0  0  0  0  0  0  0  0  0  0
   60.8748   67.7066   41.7096 H   0  0  0  0  0  0  0  0  0  0  0  0
   61.8244   65.4838   41.4207 H   0  0  0  0  0  0  0  0  0  0  0  0
   63.2306   57.6040   40.2676 H   0  0  0  0  0  0  0  0  0  0  0  0
   65.2748   56.9611   37.6714 H   0  0  0  0  0  0  0  0  0  0  0  0
   62.0602   68.5148   37.6725 H   0  0  0  0  0  0  0  0  0  0  0  0
   62.9952   67.4455   38.7810 H   0  0  0  0  0  0  0  0  0  0  0  0
   63.6538   67.3338   36.4375 H   0  0  0  0  0  0  0  0  0  0  0  0
   63.5255   64.1932   35.4881 H   0  0  0  0  0  0  0  0  0  0  0  0
   62.9255   59.8687   34.0744 H   0  0  0  0  0  0  0  0  0  0  0  0
   62.1736   63.9721   38.9927 H   0  0  0  0  0  0  0  0  0  0  0  0
   61.4977   64.7263   34.4713 H   0  0  0  0  0  0  0  0  0  0  0  0
   60.5936   64.8110   35.9657 H   0  0  0  0  0  0  0  0  0  0  0  0
   60.9604   67.1679   35.6861 H   0  0  0  0  0  0  0  0  0  0  0  0
   63.2460   67.6210   34.6031 H   0  0  0  0  0  0  0  0  0  0  0  0
  1  2  2  0
  1  3  1  0
  1  4  1  0
  1  5  1  0
  5 10  1  0
  6  7  2  0
  6  8  1  0
  6  9  1  0
  6 20  1  0
 10 11  1  0
 11 12  1  0
 11 25  1  0
 12 13  1  0
 13 14  1  0
 13 24  1  0
 14 15  1  0
 14 23  1  0
 15 16  2  0
 15 21  1  0
 16 17  1  0
 17 18  2  0
 18 19  1  0
 19 20  1  0
 19 21  2  0
 21 22  1  0
 22 23  2  0
 24 25  1  0
 25 26  1  0
  3 27  1  0
  4 28  1  0
  8 29  1  0
  9 30  1  0
 10 31  1  0
 10 32  1  0
 11 33  1  0
 13 34  1  0
 17 35  1  0
 23 36  1  0
 24 37  1  0
 24 38  1  0
 25 39  1  0
 26 40  1  0
A    1
PA
A    2
O1A
A    3
O2A
A    4
O3A
A    5
O5'
A    6
P6
A    7
O16
A    8
O26
A    9
O36
A   10
C5'
A   11
C4'
A   12
O4'
A   13
C1'
A   14
N9
A   15
C4
A   16
N3
A   17
C2
A   18
N1
A   19
C6
A   20
O6
A   21
C5
A   22
N7
A   23
C8
A   24
C2'
A   25
C3'
A   26
O3'
M  END
