2GDO_12C_A_298
     RDKit          3D

 52 57  0  0  0  0  0  0  0  0999 V2000
    4.9190   -1.4740   46.0170 C   0  0  0  0  0  0  0  0  0  0  0  0
    5.7240   -2.3230   45.2280 C   0  0  0  0  0  0  0  0  0  0  0  0
    7.0500   -2.0020   44.9310 C   0  0  0  0  0  0  0  0  0  0  0  0
    7.9820   -3.0800   43.9710 Cl  0  0  0  0  0  0  0  0  0  0  0  0
    7.6190   -0.8190   45.4080 C   0  0  0  0  0  0  0  0  0  0  0  0
    6.8460    0.0470   46.2000 C   0  0  0  0  0  0  0  0  0  0  0  0
    5.5110   -0.2840   46.4980 C   0  0  0  0  0  0  0  0  0  0  0  0
    4.7610    0.5870   47.3010 N   0  0  0  0  0  0  0  0  0  0  0  0
    3.4510    0.3510   47.6640 C   0  0  0  0  0  0  0  0  0  0  0  0
    2.8410    1.1550   48.3750 O   0  0  0  0  0  0  0  0  0  0  0  0
    2.8010   -0.9050   47.1480 C   0  0  0  0  0  0  0  0  0  0  0  0
    1.4280   -1.2210   47.4900 C   0  0  0  0  0  0  0  0  0  0  0  0
    3.5020   -1.7810   46.3620 C   0  0  0  0  0  0  0  0  0  0  0  0
    2.8960   -2.9400   45.8680 N   0  0  0  0  0  0  0  0  0  0  0  0
    2.8120   -3.5020   44.5280 C   0  0  0  0  0  0  0  0  0  0  0  0
    0.6910   -2.2720   47.1330 N   0  0  0  0  0  0  0  0  0  0  0  0
   -0.5410   -2.0940   47.7090 C   0  0  0  0  0  0  0  0  0  0  0  0
   -0.5810   -0.9050   48.4350 C   0  0  0  0  0  0  0  0  0  0  0  0
    0.6740   -0.3690   48.2810 N   0  0  0  0  0  0  0  0  0  0  0  0
   -1.6910   -2.9130   47.6500 C   0  0  0  0  0  0  0  0  0  0  0  0
   -2.8470   -2.5020   48.3340 C   0  0  0  0  0  0  0  0  0  0  0  0
   -2.8590   -1.3000   49.0600 C   0  0  0  0  0  0  0  0  0  0  0  0
   -1.7210   -0.4710   49.1290 C   0  0  0  0  0  0  0  0  0  0  0  0
    1.4170   -3.1860   43.9150 C   0  0  0  0  0  0  0  0  0  0  0  0
    0.7180   -4.4950   43.5420 N   0  0  0  0  0  0  0  0  0  0  0  0
    1.5400   -5.2440   42.5060 C   0  0  0  0  0  0  0  0  0  0  0  0
    2.9130   -5.5700   43.1130 C   0  0  0  0  0  0  0  0  0  0  0  0
    0.5150   -5.3690   44.7760 C   0  0  0  0  0  0  0  0  0  0  0  0
    1.8830   -5.6980   45.3820 C   0  0  0  0  0  0  0  0  0  0  0  0
    3.0100   -5.0400   44.5640 C   0  0  0  0  0  0  0  0  0  0  0  0
    5.2972   -3.2589   44.8381 H   0  0  0  0  0  0  0  0  0  0  0  0
    8.6622   -0.5676   45.1660 H   0  0  0  0  0  0  0  0  0  0  0  0
    7.2827    0.9801   46.5856 H   0  0  0  0  0  0  0  0  0  0  0  0
    5.2123    1.4494   47.6380 H   0  0  0  0  0  0  0  0  0  0  0  0
    2.4193   -3.5019   46.5877 H   0  0  0  0  0  0  0  0  0  0  0  0
    3.6062   -3.0526   43.9138 H   0  0  0  0  0  0  0  0  0  0  0  0
    0.9876   -3.0615   46.5418 H   0  0  0  0  0  0  0  0  0  0  0  0
   -1.6812   -3.8536   47.0798 H   0  0  0  0  0  0  0  0  0  0  0  0
   -3.7512   -3.1275   48.3006 H   0  0  0  0  0  0  0  0  0  0  0  0
   -3.7767   -0.9987   49.5864 H   0  0  0  0  0  0  0  0  0  0  0  0
   -1.7262    0.4699   49.6988 H   0  0  0  0  0  0  0  0  0  0  0  0
    0.8075   -2.6412   44.6510 H   0  0  0  0  0  0  0  0  0  0  0  0
    1.5428   -2.5669   43.0145 H   0  0  0  0  0  0  0  0  0  0  0  0
    1.0264   -6.1764   42.2288 H   0  0  0  0  0  0  0  0  0  0  0  0
    1.6644   -4.6248   41.6054 H   0  0  0  0  0  0  0  0  0  0  0  0
    3.0563   -6.6606   43.1167 H   0  0  0  0  0  0  0  0  0  0  0  0
    3.6918   -5.0845   42.5066 H   0  0  0  0  0  0  0  0  0  0  0  0
   -0.0957   -4.8289   45.5145 H   0  0  0  0  0  0  0  0  0  0  0  0
   -0.0006   -6.2987   44.4933 H   0  0  0  0  0  0  0  0  0  0  0  0
    1.9202   -5.3233   46.4156 H   0  0  0  0  0  0  0  0  0  0  0  0
    2.0244   -6.7888   45.3677 H   0  0  0  0  0  0  0  0  0  0  0  0
    3.9842   -5.2745   45.0179 H   0  0  0  0  0  0  0  0  0  0  0  0
  1  2  1  0
  1  7  2  0
  1 13  1  0
  2  3  2  0
  3  4  1  0
  3  5  1  0
  5  6  2  0
  6  7  1  0
  7  8  1  0
  8  9  1  0
  9 10  2  0
  9 11  1  0
 11 12  1  0
 11 13  2  0
 12 16  1  0
 12 19  2  0
 13 14  1  0
 14 15  1  0
 15 24  1  0
 15 30  1  0
 16 17  1  0
 17 18  2  0
 17 20  1  0
 18 19  1  0
 18 23  1  0
 20 21  2  0
 21 22  1  0
 22 23  2  0
 24 25  1  0
 25 26  1  0
 25 28  1  0
 26 27  1  0
 27 30  1  0
 28 29  1  0
 29 30  1  0
  2 31  1  0
  5 32  1  0
  6 33  1  0
  8 34  1  0
 14 35  1  0
 15 36  1  0
 16 37  1  0
 20 38  1  0
 21 39  1  0
 22 40  1  0
 23 41  1  0
 24 42  1  0
 24 43  1  0
 26 44  1  0
 26 45  1  0
 27 46  1  0
 27 47  1  0
 28 48  1  0
 28 49  1  0
 29 50  1  0
 29 51  1  0
 30 52  1  0
A    1
C1
A    2
C2
A    3
C3
A    4
CL
A    5
C4
A    6
C5
A    7
C6
A    8
N1
A    9
C7
A   10
O1
A   11
C8
A   12
C9
A   13
C10
A   14
N2
A   15
C11
A   16
N3
A   17
C12
A   18
C13
A   19
N4
A   20
C14
A   21
C15
A   22
C16
A   23
C17
A   24
C18
A   25
N5
A   26
C19
A   27
C20
A   28
C21
A   29
C22
A   30
C23
M  END
