2GG3_U13_A_501
     RDKit          3D

 23 24  0  0  0  0  0  0  0  0999 V2000
   -8.4270   -1.7810    7.6520 F   0  0  0  0  0  0  0  0  0  0  0  0
   -7.1880   -1.4290    8.0680 C   0  0  0  0  0  0  0  0  0  0  0  0
   -6.0540   -2.0670    7.5690 C   0  0  0  0  0  0  0  0  0  0  0  0
   -4.7900   -1.6780    8.0160 C   0  0  0  0  0  0  0  0  0  0  0  0
   -4.6830   -0.6810    8.9910 C   0  0  0  0  0  0  0  0  0  0  0  0
   -5.8130   -0.0250    9.4630 C   0  0  0  0  0  0  0  0  0  0  0  0
   -7.0660   -0.4170    9.0120 C   0  0  0  0  0  0  0  0  0  0  0  0
   -3.4480   -0.2000    9.4460 N   0  0  0  0  0  0  0  0  0  0  0  0
   -2.4850   -0.4760    8.7240 N   0  0  0  0  0  0  0  0  0  0  0  0
   -1.2090   -0.0390    8.9890 C   0  0  0  0  0  0  0  0  0  0  0  0
   -0.6660    0.8020   10.0640 C   0  0  0  0  0  0  0  0  0  0  0  0
   -1.3420    1.3480   11.1300 N   0  0  0  0  0  0  0  0  0  0  0  0
    0.6700    0.9860    9.8930 N   0  0  0  0  0  0  0  0  0  0  0  0
    1.0850    0.3020    8.7360 N   0  0  0  0  0  0  0  0  0  0  0  0
   -0.0100   -0.2930    8.1920 C   0  0  0  0  0  0  0  0  0  0  0  0
    0.0010   -1.0490    7.0650 N   0  0  0  0  0  0  0  0  0  0  0  0
   -6.1543   -2.8728    6.8269 H   0  0  0  0  0  0  0  0  0  0  0  0
   -3.8862   -2.1514    7.6050 H   0  0  0  0  0  0  0  0  0  0  0  0
   -5.7158    0.7972   10.1872 H   0  0  0  0  0  0  0  0  0  0  0  0
   -7.9674    0.0765    9.4043 H   0  0  0  0  0  0  0  0  0  0  0  0
   -1.0573    1.1180   12.0928 H   0  0  0  0  0  0  0  0  0  0  0  0
   -2.1330    1.9869   10.9656 H   0  0  0  0  0  0  0  0  0  0  0  0
    0.8806   -1.1898    6.5479 H   0  0  0  0  0  0  0  0  0  0  0  0
  1  2  1  0
  2  3  2  0
  2  7  1  0
  3  4  1  0
  4  5  2  0
  5  6  1  0
  5  8  1  0
  6  7  2  0
  8  9  2  0
  9 10  1  0
 10 11  2  0
 10 15  1  0
 11 12  1  0
 11 13  1  0
 13 14  2  0
 14 15  1  0
 15 16  2  3
  3 17  1  0
  4 18  1  0
  6 19  1  0
  7 20  1  0
 12 21  1  0
 12 22  1  0
 16 23  1  0
A    1
F7
A    2
C3
A    3
C6
A    4
C2
A    5
C5
A    6
C4
A    7
C1
A    8
N9
A    9
N13
A   10
C14
A   11
C19
A   12
N16
A   13
N20
A   14
N17
A   15
C15
A   16
N18
M  END
