2GG8_U15_A_501
     RDKit          3D

 59 59  0  0  0  0  0  0  0  0999 V2000
   -5.1170   -6.4560    6.1520 O   0  0  0  0  0  0  0  0  0  0  0  0
   -4.3440   -5.6440    5.6570 C   0  0  0  0  0  0  0  0  0  0  0  0
   -3.2140   -6.3070    5.0140 O   0  0  0  0  0  0  0  0  0  0  0  0
   -3.3390   -7.7360    4.9190 C   0  0  0  0  0  0  0  0  0  0  0  0
   -4.5550   -4.1400    5.7200 C   0  0  0  0  0  0  0  0  0  0  0  0
   -5.4910   -3.7020    6.8390 C   0  0  0  0  0  0  0  0  0  0  0  0
   -6.5400   -2.6540    6.4330 C   0  0  0  0  0  0  0  0  0  0  0  0
   -6.0620   -1.2400    6.7200 C   0  0  0  0  0  0  0  0  0  0  0  0
   -7.8660   -2.8200    7.1580 C   0  0  0  0  0  0  0  0  0  0  0  0
   -3.2950   -3.4130    5.8690 N   0  0  0  0  0  0  0  0  0  0  0  0
   -2.5900   -3.2890    6.9930 C   0  0  0  0  0  0  0  0  0  0  0  0
   -2.8700   -3.7810    8.0800 O   0  0  0  0  0  0  0  0  0  0  0  0
   -1.3100   -2.5010    6.9140 C   0  0  0  0  0  0  0  0  0  0  0  0
   -0.1770   -3.4410    6.4710 C   0  0  0  0  0  0  0  0  0  0  0  0
   -1.0270   -1.9100    8.2230 N   0  0  0  0  0  0  0  0  0  0  0  0
   -0.2910   -0.8300    8.2560 C   0  0  0  0  0  0  0  0  0  0  0  0
    0.1560   -0.2580    7.2640 O   0  0  0  0  0  0  0  0  0  0  0  0
    0.0280   -0.2030    9.5970 C   0  0  0  0  0  0  0  0  0  0  0  0
    1.4540    0.1220    9.4950 O   0  0  0  0  0  0  0  0  0  0  0  0
   -0.7240    1.1260    9.5910 C   0  0  0  0  0  0  0  0  0  0  0  0
   -0.3570    2.1110   10.6230 N   0  0  0  0  0  0  0  0  0  0  0  0
   -2.1910    0.8480    9.7060 C   0  0  0  0  0  0  0  0  0  0  0  0
   -2.7510    0.3990   10.9100 C   0  0  0  0  0  0  0  0  0  0  0  0
   -4.1210    0.1110   11.0150 C   0  0  0  0  0  0  0  0  0  0  0  0
   -4.9740    0.2640    9.9290 C   0  0  0  0  0  0  0  0  0  0  0  0
   -6.4200   -0.0360   10.0530 C   0  0  0  0  0  0  0  0  0  0  0  0
   -4.4410    0.7000    8.7120 C   0  0  0  0  0  0  0  0  0  0  0  0
   -3.0670    0.9870    8.6190 C   0  0  0  0  0  0  0  0  0  0  0  0
   -3.3769   -8.1687    5.9296 H   0  0  0  0  0  0  0  0  0  0  0  0
   -4.2626   -7.9881    4.3774 H   0  0  0  0  0  0  0  0  0  0  0  0
   -2.4732   -8.1446    4.3774 H   0  0  0  0  0  0  0  0  0  0  0  0
   -5.0230   -3.8918    4.7560 H   0  0  0  0  0  0  0  0  0  0  0  0
   -6.0221   -4.5918    7.2080 H   0  0  0  0  0  0  0  0  0  0  0  0
   -4.8578   -3.2251    7.6016 H   0  0  0  0  0  0  0  0  0  0  0  0
   -6.6846   -2.8157    5.3546 H   0  0  0  0  0  0  0  0  0  0  0  0
   -6.0094   -1.0844    7.8077 H   0  0  0  0  0  0  0  0  0  0  0  0
   -5.0645   -1.0938    6.2800 H   0  0  0  0  0  0  0  0  0  0  0  0
   -6.7662   -0.5185    6.2800 H   0  0  0  0  0  0  0  0  0  0  0  0
   -7.6951   -2.7986    8.2444 H   0  0  0  0  0  0  0  0  0  0  0  0
   -8.5427   -1.9996    6.8771 H   0  0  0  0  0  0  0  0  0  0  0  0
   -8.3196   -3.7819    6.8771 H   0  0  0  0  0  0  0  0  0  0  0  0
   -2.9176   -2.9544    5.0275 H   0  0  0  0  0  0  0  0  0  0  0  0
   -1.3990   -1.6863    6.1803 H   0  0  0  0  0  0  0  0  0  0  0  0
    0.3232   -3.8560    7.3584 H   0  0  0  0  0  0  0  0  0  0  0  0
   -0.5952   -4.2610    5.8688 H   0  0  0  0  0  0  0  0  0  0  0  0
    0.5517   -2.8786    5.8688 H   0  0  0  0  0  0  0  0  0  0  0  0
   -1.3950   -2.3305    9.0882 H   0  0  0  0  0  0  0  0  0  0  0  0
   -0.2180   -0.8219   10.4725 H   0  0  0  0  0  0  0  0  0  0  0  0
    1.8383    0.2096   10.4032 H   0  0  0  0  0  0  0  0  0  0  0  0
   -0.4344    1.5973    8.6402 H   0  0  0  0  0  0  0  0  0  0  0  0
   -0.5090    1.7031   11.5565 H   0  0  0  0  0  0  0  0  0  0  0  0
    0.6354    2.3657   10.5171 H   0  0  0  0  0  0  0  0  0  0  0  0
   -2.1040    0.2697   11.7902 H   0  0  0  0  0  0  0  0  0  0  0  0
   -4.5265   -0.2422   11.9746 H   0  0  0  0  0  0  0  0  0  0  0  0
   -6.6928   -0.0926   11.1171 H   0  0  0  0  0  0  0  0  0  0  0  0
   -7.0027    0.7604    9.5670 H   0  0  0  0  0  0  0  0  0  0  0  0
   -6.6378   -0.9985    9.5670 H   0  0  0  0  0  0  0  0  0  0  0  0
   -5.0919    0.8178    7.8331 H   0  0  0  0  0  0  0  0  0  0  0  0
   -2.6636    1.3340    7.6563 H   0  0  0  0  0  0  0  0  0  0  0  0
  1  2  2  0
  2  3  1  0
  2  5  1  0
  3  4  1  0
  5  6  1  0
  5 10  1  0
  6  7  1  0
  7  8  1  0
  7  9  1  0
 10 11  1  0
 11 12  2  0
 11 13  1  0
 13 14  1  0
 13 15  1  0
 15 16  1  0
 16 17  2  0
 16 18  1  0
 18 19  1  0
 18 20  1  0
 20 21  1  0
 20 22  1  0
 22 23  2  0
 22 28  1  0
 23 24  1  0
 24 25  2  0
 25 26  1  0
 25 27  1  0
 27 28  2  0
  4 29  1  0
  4 30  1  0
  4 31  1  0
  5 32  1  0
  6 33  1  0
  6 34  1  0
  7 35  1  0
  8 36  1  0
  8 37  1  0
  8 38  1  0
  9 39  1  0
  9 40  1  0
  9 41  1  0
 10 42  1  0
 13 43  1  0
 14 44  1  0
 14 45  1  0
 14 46  1  0
 15 47  1  0
 18 48  1  0
 19 49  1  0
 20 50  1  0
 21 51  1  0
 21 52  1  0
 23 53  1  0
 24 54  1  0
 26 55  1  0
 26 56  1  0
 26 57  1  0
 27 58  1  0
 28 59  1  0
A    1
O42
A    2
C41
A    3
O43
A    4
C44
A    5
C37
A    6
C39
A    7
C48
A    8
C53
A    9
C51
A   10
N36
A   11
C27
A   12
O35
A   13
C24
A   14
C28
A   15
N23
A   16
C20
A   17
O22
A   18
C14
A   19
O19
A   20
C7
A   21
N15
A   22
C3
A   23
C6
A   24
C2
A   25
C5
A   26
C9
A   27
C4
A   28
C1
M  END
