1G6S_S3P_A_601
     RDKit          3D

 27 27  0  0  0  0  0  0  0  0999 V2000
   55.9200   12.3110   28.0800 C   0  0  0  0  0  0  0  0  0  0  0  0
   54.8520   11.4170   28.1900 C   0  0  0  0  0  0  0  0  0  0  0  0
   54.9570   10.1530   29.0090 C   0  0  0  0  0  0  0  0  0  0  0  0
   56.1720   10.1590   29.9640 C   0  0  0  0  0  0  0  0  0  0  0  0
   57.4210   10.6520   29.2270 C   0  0  0  0  0  0  0  0  0  0  0  0
   57.1640   12.1000   28.7920 C   0  0  0  0  0  0  0  0  0  0  0  0
   55.7340   13.5390   27.2470 C   0  0  0  0  0  0  0  0  0  0  0  0
   54.9510    8.9680   28.1100 O   0  0  0  0  0  0  0  0  0  0  0  0
   56.3380    8.8390   30.4950 O   0  0  0  0  0  0  0  0  0  0  0  0
   58.5520   10.6080   30.1070 O   0  0  0  0  0  0  0  0  0  0  0  0
   54.8180   13.5330   26.3810 O   0  0  0  0  0  0  0  0  0  0  0  0
   56.4720   14.4900   27.4930 O   0  0  0  0  0  0  0  0  0  0  0  0
   53.5890    8.0280   27.8830 P   0  0  0  0  0  0  0  0  0  0  0  0
   52.5400    8.8970   27.3000 O   0  0  0  0  0  0  0  0  0  0  0  0
   53.2750    7.5200   29.2850 O   0  0  0  0  0  0  0  0  0  0  0  0
   54.0720    6.9740   26.9310 O   0  0  0  0  0  0  0  0  0  0  0  0
   53.9105   11.6397   27.6665 H   0  0  0  0  0  0  0  0  0  0  0  0
   54.0748   10.0980   29.6638 H   0  0  0  0  0  0  0  0  0  0  0  0
   56.0052   10.8527   30.8012 H   0  0  0  0  0  0  0  0  0  0  0  0
   57.6298   10.0157   28.3544 H   0  0  0  0  0  0  0  0  0  0  0  0
   57.9903   12.4116   28.1361 H   0  0  0  0  0  0  0  0  0  0  0  0
   57.0949   12.6923   29.7163 H   0  0  0  0  0  0  0  0  0  0  0  0
   56.3331    8.8782   31.4842 H   0  0  0  0  0  0  0  0  0  0  0  0
   58.2399   10.6201   31.0464 H   0  0  0  0  0  0  0  0  0  0  0  0
   53.8693   13.5268   26.6640 H   0  0  0  0  0  0  0  0  0  0  0  0
   53.6585    8.1404   29.9544 H   0  0  0  0  0  0  0  0  0  0  0  0
   54.4250    6.2037   27.4429 H   0  0  0  0  0  0  0  0  0  0  0  0
  1  2  2  0
  1  6  1  0
  1  7  1  0
  2  3  1  0
  3  4  1  0
  3  8  1  0
  4  5  1  0
  4  9  1  0
  5  6  1  0
  5 10  1  0
  7 11  1  0
  7 12  2  0
  8 13  1  0
 13 14  2  0
 13 15  1  0
 13 16  1  0
  2 17  1  0
  3 18  1  0
  4 19  1  0
  5 20  1  0
  6 21  1  0
  6 22  1  0
  9 23  1  0
 10 24  1  0
 11 25  1  0
 15 26  1  0
 16 27  1  0
A    1
C1
A    2
C2
A    3
C3
A    4
C4
A    5
C5
A    6
C6
A    7
C7
A    8
O1
A    9
O2
A   10
O3
A   11
O4
A   12
O5
A   13
P1
A   14
O6
A   15
O7
A   16
O8
M  END
