2GGB_U17_A_304
     RDKit          3D

 59 58  0  0  0  0  0  0  0  0999 V2000
   11.7200    0.1630   18.2710 O   0  0  0  0  0  0  0  0  0  0  0  0
   11.8330   -0.5760   17.3440 C   0  0  0  0  0  0  0  0  0  0  0  0
   11.3310    0.0510   16.0890 C   0  0  0  0  0  0  0  0  0  0  0  0
   12.1140    1.3370   15.8870 C   0  0  0  0  0  0  0  0  0  0  0  0
   13.6030    1.1350   16.1440 C   0  0  0  0  0  0  0  0  0  0  0  0
   14.6520    0.8930   15.4580 C   0  0  0  0  0  0  0  0  0  0  0  0
   15.8260    0.8810   15.1350 C   0  0  0  0  0  0  0  0  0  0  0  0
   17.0790    1.0250   15.0260 C   0  0  0  0  0  0  0  0  0  0  0  0
   11.5590    2.2330   14.8480 N   0  0  0  0  0  0  0  0  0  0  0  0
    9.9660    0.3670   16.3480 O   0  0  0  0  0  0  0  0  0  0  0  0
   12.3270   -1.8050   17.4010 N   0  0  0  0  0  0  0  0  0  0  0  0
   12.6730   -2.5020   18.6490 C   0  0  0  0  0  0  0  0  0  0  0  0
   11.5530   -3.4290   19.2040 C   0  0  0  0  0  0  0  0  0  0  0  0
   11.9070   -4.6400   19.9070 O   0  0  0  0  0  0  0  0  0  0  0  0
   13.9840   -3.1920   18.3740 C   0  0  0  0  0  0  0  0  0  0  0  0
   13.9350   -3.8170   17.3340 O   0  0  0  0  0  0  0  0  0  0  0  0
   15.0520   -3.0880   19.1930 N   0  0  0  0  0  0  0  0  0  0  0  0
   16.2600   -3.9270   19.2180 C   0  0  0  0  0  0  0  0  0  0  0  0
   17.4030   -3.0110   19.6870 C   0  0  0  0  0  0  0  0  0  0  0  0
   18.7160   -2.9570   18.8890 C   0  0  0  0  0  0  0  0  0  0  0  0
   18.9710   -1.4930   18.5410 C   0  0  0  0  0  0  0  0  0  0  0  0
   19.9340   -3.5930   19.5860 C   0  0  0  0  0  0  0  0  0  0  0  0
   16.1670   -5.1550   20.1320 C   0  0  0  0  0  0  0  0  0  0  0  0
   15.7340   -5.0330   21.2750 O   0  0  0  0  0  0  0  0  0  0  0  0
   16.5750   -6.5220   19.7510 O   0  0  0  0  0  0  0  0  0  0  0  0
   16.4580   -7.6700   20.6100 C   0  0  0  0  0  0  0  0  0  0  0  0
   11.4360   -0.5927   15.2032 H   0  0  0  0  0  0  0  0  0  0  0  0
   11.9428    2.0783   16.6815 H   0  0  0  0  0  0  0  0  0  0  0  0
   13.8759    2.0668   16.6610 H   0  0  0  0  0  0  0  0  0  0  0  0
   13.4796    0.0877   16.4568 H   0  0  0  0  0  0  0  0  0  0  0  0
   14.5133   -0.1976   15.4203 H   0  0  0  0  0  0  0  0  0  0  0  0
   14.6308    1.9484   15.1487 H   0  0  0  0  0  0  0  0  0  0  0  0
   15.8796   -0.2174   15.1082 H   0  0  0  0  0  0  0  0  0  0  0  0
   15.7343    1.9604   14.9440 H   0  0  0  0  0  0  0  0  0  0  0  0
   17.5306    1.0769   16.0277 H   0  0  0  0  0  0  0  0  0  0  0  0
   17.5001    0.1693   14.4778 H   0  0  0  0  0  0  0  0  0  0  0  0
   17.2950    1.9539   14.4778 H   0  0  0  0  0  0  0  0  0  0  0  0
   11.0713    3.0204   15.2985 H   0  0  0  0  0  0  0  0  0  0  0  0
   12.3247    2.5939   14.2612 H   0  0  0  0  0  0  0  0  0  0  0  0
    9.8152    0.4019   17.3258 H   0  0  0  0  0  0  0  0  0  0  0  0
   12.4784   -2.3044   16.5130 H   0  0  0  0  0  0  0  0  0  0  0  0
   12.7775   -1.7882   19.4794 H   0  0  0  0  0  0  0  0  0  0  0  0
   10.9517   -2.8224   19.8972 H   0  0  0  0  0  0  0  0  0  0  0  0
   11.0535   -3.7977   18.2959 H   0  0  0  0  0  0  0  0  0  0  0  0
   11.8604   -4.4806   20.8830 H   0  0  0  0  0  0  0  0  0  0  0  0
   15.0167   -2.3270   19.8862 H   0  0  0  0  0  0  0  0  0  0  0  0
   16.4179   -4.3427   18.2119 H   0  0  0  0  0  0  0  0  0  0  0  0
   17.0017   -1.9871   19.7094 H   0  0  0  0  0  0  0  0  0  0  0  0
   17.7065   -3.4536   20.6472 H   0  0  0  0  0  0  0  0  0  0  0  0
   18.5905   -3.5763   17.9886 H   0  0  0  0  0  0  0  0  0  0  0  0
   19.0728   -0.9083   19.4672 H   0  0  0  0  0  0  0  0  0  0  0  0
   19.8968   -1.4119   17.9525 H   0  0  0  0  0  0  0  0  0  0  0  0
   18.1272   -1.1036   17.9525 H   0  0  0  0  0  0  0  0  0  0  0  0
   19.8080   -3.5272   20.6768 H   0  0  0  0  0  0  0  0  0  0  0  0
   20.0161   -4.6491   19.2894 H   0  0  0  0  0  0  0  0  0  0  0  0
   20.8475   -3.0568   19.2894 H   0  0  0  0  0  0  0  0  0  0  0  0
   16.4910   -7.3465   21.6608 H   0  0  0  0  0  0  0  0  0  0  0  0
   15.5033   -8.1796   20.4130 H   0  0  0  0  0  0  0  0  0  0  0  0
   17.2903   -8.3617   20.4130 H   0  0  0  0  0  0  0  0  0  0  0  0
  1  2  2  0
  2  3  1  0
  2 11  1  0
  3  4  1  0
  3 10  1  0
  4  5  1  0
  4  9  1  0
  5  6  1  0
  6  7  1  0
  7  8  1  0
 11 12  1  0
 12 13  1  0
 12 15  1  0
 13 14  1  0
 15 16  2  0
 15 17  1  0
 17 18  1  0
 18 19  1  0
 18 23  1  0
 19 20  1  0
 20 21  1  0
 20 22  1  0
 23 24  2  0
 23 25  1  0
 25 26  1  0
  3 27  1  0
  4 28  1  0
  5 29  1  0
  5 30  1  0
  6 31  1  0
  6 32  1  0
  7 33  1  0
  7 34  1  0
  8 35  1  0
  8 36  1  0
  8 37  1  0
  9 38  1  0
  9 39  1  0
 10 40  1  0
 11 41  1  0
 12 42  1  0
 13 43  1  0
 13 44  1  0
 14 45  1  0
 17 46  1  0
 18 47  1  0
 19 48  1  0
 19 49  1  0
 20 50  1  0
 21 51  1  0
 21 52  1  0
 21 53  1  0
 22 54  1  0
 22 55  1  0
 22 56  1  0
 26 57  1  0
 26 58  1  0
 26 59  1  0
A    1
O2
A    2
C10
A    3
C9
A    4
C7
A    5
C3
A    6
C6
A    7
C2
A    8
C5
A    9
N1
A   10
O1
A   11
N2
A   12
C11
A   13
C13
A   14
O6
A   15
C12
A   16
O3
A   17
N3
A   18
C14
A   19
C15
A   20
C17
A   21
C18
A   22
C19
A   23
C16
A   24
O4
A   25
O5
A   26
C20
M  END
