2GHG_A53_A_1
     RDKit          3D

 61 66  0  0  0  0  0  0  0  0999 V2000
   -1.5120    8.8540  -19.4980 C   0  0  0  0  0  0  0  0  0  0  0  0
   -0.5240    7.9510  -19.4040 C   0  0  0  0  0  0  0  0  0  0  0  0
    0.6660    8.4330  -20.1190 C   0  0  0  0  0  0  0  0  0  0  0  0
    0.4120    9.6370  -20.6520 C   0  0  0  0  0  0  0  0  0  0  0  0
   -0.9730    9.9680  -20.2880 N   0  0  0  0  0  0  0  0  0  0  0  0
   -2.8710    8.7330  -18.9380 C   0  0  0  0  0  0  0  0  0  0  0  0
   -4.0650    9.6030  -19.2120 C   0  0  0  0  0  0  0  0  0  0  0  0
   -4.2370   10.8150  -20.0870 C   0  0  0  0  0  0  0  0  0  0  0  0
   -5.4970   11.2360  -19.9790 N   0  0  0  0  0  0  0  0  0  0  0  0
   -6.2450   10.4450  -19.0990 C   0  0  0  0  0  0  0  0  0  0  0  0
   -5.3760    9.3890  -18.5870 C   0  0  0  0  0  0  0  0  0  0  0  0
   -3.3670   11.3160  -20.7840 O   0  0  0  0  0  0  0  0  0  0  0  0
   -7.6270   10.4360  -18.6100 C   0  0  0  0  0  0  0  0  0  0  0  0
   -8.1090    9.4740  -17.6950 C   0  0  0  0  0  0  0  0  0  0  0  0
   -7.2810    8.4480  -17.1950 C   0  0  0  0  0  0  0  0  0  0  0  0
   -5.9370    8.4230  -17.6440 C   0  0  0  0  0  0  0  0  0  0  0  0
   -7.8010    7.4050  -16.2130 C   0  0  0  0  0  0  0  0  0  0  0  0
   -9.1680    7.2990  -15.8500 C   0  0  0  0  0  0  0  0  0  0  0  0
   -9.6210    6.3530  -14.9690 N   0  0  0  0  0  0  0  0  0  0  0  0
   -8.7520    5.4710  -14.4030 C   0  0  0  0  0  0  0  0  0  0  0  0
   -7.3730    5.4890  -14.6950 C   0  0  0  0  0  0  0  0  0  0  0  0
   -6.9190    6.4760  -15.6100 C   0  0  0  0  0  0  0  0  0  0  0  0
   -6.5510    4.5370  -14.0640 O   0  0  0  0  0  0  0  0  0  0  0  0
   -5.8870    3.5940  -14.9070 C   0  0  0  0  0  0  0  0  0  0  0  0
   -6.6830    2.2860  -14.9220 C   0  0  0  0  0  0  0  0  0  0  0  0
   -5.7890    1.0860  -15.2840 C   0  0  0  0  0  0  0  0  0  0  0  0
   -7.7910    2.4220  -15.8700 N   0  0  0  0  0  0  0  0  0  0  0  0
   -5.6500    0.1630  -14.0850 C   0  0  0  0  0  0  0  0  0  0  0  0
   -6.7010   -0.4440  -13.3830 C   0  0  0  0  0  0  0  0  0  0  0  0
   -6.2030   -1.2000  -12.3760 N   0  0  0  0  0  0  0  0  0  0  0  0
   -4.8170   -1.1340  -12.3590 C   0  0  0  0  0  0  0  0  0  0  0  0
   -4.4260   -0.2710  -13.4460 C   0  0  0  0  0  0  0  0  0  0  0  0
   -3.8460   -1.7180  -11.5450 C   0  0  0  0  0  0  0  0  0  0  0  0
   -2.4660   -1.4600  -11.7800 C   0  0  0  0  0  0  0  0  0  0  0  0
   -2.0750   -0.6060  -12.8510 C   0  0  0  0  0  0  0  0  0  0  0  0
   -3.0700   -0.0110  -13.6790 C   0  0  0  0  0  0  0  0  0  0  0  0
   -0.5944    6.9916  -18.8705 H   0  0  0  0  0  0  0  0  0  0  0  0
    1.6187    7.8897  -20.2039 H   0  0  0  0  0  0  0  0  0  0  0  0
    1.1032   10.2546  -21.2443 H   0  0  0  0  0  0  0  0  0  0  0  0
   -1.4767   10.8297  -20.5423 H   0  0  0  0  0  0  0  0  0  0  0  0
   -3.0301    7.9038  -18.2330 H   0  0  0  0  0  0  0  0  0  0  0  0
   -5.8764   12.0492  -20.4845 H   0  0  0  0  0  0  0  0  0  0  0  0
   -8.3182   11.2117  -18.9712 H   0  0  0  0  0  0  0  0  0  0  0  0
   -9.1567    9.5265  -17.3641 H   0  0  0  0  0  0  0  0  0  0  0  0
   -5.2775    7.6305  -17.2606 H   0  0  0  0  0  0  0  0  0  0  0  0
   -9.8901    8.0015  -16.2917 H   0  0  0  0  0  0  0  0  0  0  0  0
   -9.1377    4.7215  -13.6963 H   0  0  0  0  0  0  0  0  0  0  0  0
   -5.8482    6.5200  -15.8580 H   0  0  0  0  0  0  0  0  0  0  0  0
   -5.8207    3.9963  -15.9286 H   0  0  0  0  0  0  0  0  0  0  0  0
   -4.8729    3.4057  -14.5247 H   0  0  0  0  0  0  0  0  0  0  0  0
   -7.0801    2.0925  -13.9146 H   0  0  0  0  0  0  0  0  0  0  0  0
   -6.2425    0.5325  -16.1195 H   0  0  0  0  0  0  0  0  0  0  0  0
   -4.7936    1.4517  -15.5763 H   0  0  0  0  0  0  0  0  0  0  0  0
   -8.6747    2.5305  -15.3520 H   0  0  0  0  0  0  0  0  0  0  0  0
   -7.6363    3.2503  -16.4623 H   0  0  0  0  0  0  0  0  0  0  0  0
   -7.7695   -0.3241  -13.6154 H   0  0  0  0  0  0  0  0  0  0  0  0
   -6.7730   -1.7473  -11.7153 H   0  0  0  0  0  0  0  0  0  0  0  0
   -4.1476   -2.3795  -10.7195 H   0  0  0  0  0  0  0  0  0  0  0  0
   -1.7023   -1.9196  -11.1353 H   0  0  0  0  0  0  0  0  0  0  0  0
   -1.0094   -0.4068  -13.0379 H   0  0  0  0  0  0  0  0  0  0  0  0
   -2.7724    0.6541  -14.5031 H   0  0  0  0  0  0  0  0  0  0  0  0
  1  2  2  0
  1  5  1  0
  1  6  1  0
  2  3  1  0
  3  4  2  0
  4  5  1  0
  6  7  2  0
  7  8  1  0
  7 11  1  0
  8  9  1  0
  8 12  2  0
  9 10  1  0
 10 11  2  0
 10 13  1  0
 11 16  1  0
 13 14  2  0
 14 15  1  0
 15 16  2  0
 15 17  1  0
 17 18  2  0
 17 22  1  0
 18 19  1  0
 19 20  2  0
 20 21  1  0
 21 22  2  0
 21 23  1  0
 23 24  1  0
 24 25  1  0
 25 26  1  0
 25 27  1  0
 26 28  1  0
 28 29  2  0
 28 32  1  0
 29 30  1  0
 30 31  1  0
 31 32  2  0
 31 33  1  0
 32 36  1  0
 33 34  2  0
 34 35  1  0
 35 36  2  0
  2 37  1  0
  3 38  1  0
  4 39  1  0
  5 40  1  0
  6 41  1  0
  9 42  1  0
 13 43  1  0
 14 44  1  0
 16 45  1  0
 18 46  1  0
 20 47  1  0
 22 48  1  0
 24 49  1  0
 24 50  1  0
 25 51  1  0
 26 52  1  0
 26 53  1  0
 27 54  1  0
 27 55  1  0
 29 56  1  0
 30 57  1  0
 33 58  1  0
 34 59  1  0
 35 60  1  0
 36 61  1  0
A    1
C1
A    2
C2
A    3
C3
A    4
C4
A    5
N5
A    6
C6
A    7
C7
A    8
C8
A    9
N9
A   10
C10
A   11
C11
A   12
O12
A   13
C13
A   14
C14
A   15
C15
A   16
C16
A   17
C17
A   18
C18
A   19
N19
A   20
C20
A   21
C21
A   22
C22
A   23
O23
A   24
C24
A   25
C25
A   26
C26
A   27
N27
A   28
C28
A   29
C29
A   30
N30
A   31
C31
A   32
C32
A   33
C33
A   34
C34
A   35
C35
A   36
C36
M  END
