2GHL_LIB_A_401
     RDKit          3D

 58 60  0  0  0  0  0  0  0  0999 V2000
   -3.5670    0.1040   20.1890 N   0  0  0  0  0  0  0  0  0  0  0  0
   -5.5790   -0.1830   16.5440 C   0  0  0  0  0  0  0  0  0  0  0  0
   -5.5530   -0.3020   18.9490 C   0  0  0  0  0  0  0  0  0  0  0  0
   -3.5320    0.3250   17.7690 C   0  0  0  0  0  0  0  0  0  0  0  0
   -4.2290    0.2070   16.5680 C   0  0  0  0  0  0  0  0  0  0  0  0
   -6.2460   -0.4510   17.7510 C   0  0  0  0  0  0  0  0  0  0  0  0
   -2.3620    2.3560   22.6660 C   0  0  0  0  0  0  0  0  0  0  0  0
   -1.2790    4.5320   24.0170 C   0  0  0  0  0  0  0  0  0  0  0  0
   -2.7580    2.6580   23.9640 C   0  0  0  0  0  0  0  0  0  0  0  0
   -0.8840    4.2490   22.7080 C   0  0  0  0  0  0  0  0  0  0  0  0
   -3.9680    1.6500   24.7630 Cl  0  0  0  0  0  0  0  0  0  0  0  0
   -2.2180    3.7260   24.6580 C   0  0  0  0  0  0  0  0  0  0  0  0
   -1.4210    3.1570   22.0230 C   0  0  0  0  0  0  0  0  0  0  0  0
   -2.9570    1.2510   22.0500 N   0  0  0  0  0  0  0  0  0  0  0  0
   -3.2750    1.2490   20.7700 C   0  0  0  0  0  0  0  0  0  0  0  0
   -3.3030    2.2710   20.1190 O   0  0  0  0  0  0  0  0  0  0  0  0
   -4.2200    0.0560   18.9600 C   0  0  0  0  0  0  0  0  0  0  0  0
   -6.2750   -0.3600   15.3540 O   0  0  0  0  0  0  0  0  0  0  0  0
   -5.6040   -0.7890   14.1610 C   0  0  0  0  0  0  0  0  0  0  0  0
   -3.2590   -1.1730   20.7370 C   0  0  0  0  0  0  0  0  0  0  0  0
   -3.2620   -2.3070   19.9470 C   0  0  0  0  0  0  0  0  0  0  0  0
   -3.0490   -3.5430   20.5150 C   0  0  0  0  0  0  0  0  0  0  0  0
   -2.8140   -3.6420   21.8220 N   0  0  0  0  0  0  0  0  0  0  0  0
   -2.7740   -2.5620   22.5730 C   0  0  0  0  0  0  0  0  0  0  0  0
   -3.0150   -1.3360   22.0350 N   0  0  0  0  0  0  0  0  0  0  0  0
   -2.5090   -2.7440   23.8620 N   0  0  0  0  0  0  0  0  0  0  0  0
   -2.2610   -1.6550   24.8180 C   0  0  0  0  0  0  0  0  0  0  0  0
   -2.8020   -2.1540   26.1600 C   0  0  0  0  0  0  0  0  0  0  0  0
   -0.7790   -1.2600   24.9480 C   0  0  0  0  0  0  0  0  0  0  0  0
    0.0100   -2.4340   25.4400 C   0  0  0  0  0  0  0  0  0  0  0  0
   -0.2050   -0.7260   23.6110 C   0  0  0  0  0  0  0  0  0  0  0  0
   -0.6300   -0.2350   25.9690 O   0  0  0  0  0  0  0  0  0  0  0  0
   -6.0758   -0.4722   19.9017 H   0  0  0  0  0  0  0  0  0  0  0  0
   -2.4726    0.6207   17.7818 H   0  0  0  0  0  0  0  0  0  0  0  0
   -3.7128    0.4232   15.6210 H   0  0  0  0  0  0  0  0  0  0  0  0
   -7.2978   -0.7730   17.7494 H   0  0  0  0  0  0  0  0  0  0  0  0
   -0.8470    5.3951   24.5447 H   0  0  0  0  0  0  0  0  0  0  0  0
   -0.1427    4.8924   22.2116 H   0  0  0  0  0  0  0  0  0  0  0  0
   -2.5234    3.9346   25.6940 H   0  0  0  0  0  0  0  0  0  0  0  0
   -1.1063    2.9331   20.9930 H   0  0  0  0  0  0  0  0  0  0  0  0
   -3.1533    0.4116   22.6138 H   0  0  0  0  0  0  0  0  0  0  0  0
   -4.7058   -1.3633   14.4319 H   0  0  0  0  0  0  0  0  0  0  0  0
   -6.2796   -1.4231   13.5681 H   0  0  0  0  0  0  0  0  0  0  0  0
   -5.3120    0.0904   13.5681 H   0  0  0  0  0  0  0  0  0  0  0  0
   -3.4346   -2.2221   18.8640 H   0  0  0  0  0  0  0  0  0  0  0  0
   -3.0729   -4.4477   19.8898 H   0  0  0  0  0  0  0  0  0  0  0  0
   -2.4751   -3.7112   24.2146 H   0  0  0  0  0  0  0  0  0  0  0  0
   -2.7591   -0.7394   24.4665 H   0  0  0  0  0  0  0  0  0  0  0  0
   -2.2632   -1.6570   26.9802 H   0  0  0  0  0  0  0  0  0  0  0  0
   -3.8747   -1.9216   26.2321 H   0  0  0  0  0  0  0  0  0  0  0  0
   -2.6569   -3.2420   26.2321 H   0  0  0  0  0  0  0  0  0  0  0  0
    0.0131   -2.4387   26.5400 H   0  0  0  0  0  0  0  0  0  0  0  0
   -0.4472   -3.3638   25.0707 H   0  0  0  0  0  0  0  0  0  0  0  0
    1.0436   -2.3618   25.0707 H   0  0  0  0  0  0  0  0  0  0  0  0
    0.5858    0.0097   23.8193 H   0  0  0  0  0  0  0  0  0  0  0  0
    0.2150   -1.5619   23.0324 H   0  0  0  0  0  0  0  0  0  0  0  0
   -1.0085   -0.2468   23.0324 H   0  0  0  0  0  0  0  0  0  0  0  0
   -0.6905   -0.6509   26.8654 H   0  0  0  0  0  0  0  0  0  0  0  0
  1 15  1  0
  1 17  1  0
  1 20  1  0
  2  5  2  0
  2  6  1  0
  2 18  1  0
  3  6  2  0
  3 17  1  0
  4  5  1  0
  4 17  2  0
  7  9  1  0
  7 13  2  0
  7 14  1  0
  8 10  2  0
  8 12  1  0
  9 11  1  0
  9 12  2  0
 10 13  1  0
 14 15  1  0
 15 16  2  0
 18 19  1  0
 20 21  2  0
 20 25  1  0
 21 22  1  0
 22 23  2  0
 23 24  1  0
 24 25  2  0
 24 26  1  0
 26 27  1  0
 27 28  1  0
 27 29  1  0
 29 30  1  0
 29 31  1  0
 29 32  1  0
  3 33  1  0
  4 34  1  0
  5 35  1  0
  6 36  1  0
  8 37  1  0
 10 38  1  0
 12 39  1  0
 13 40  1  0
 14 41  1  0
 19 42  1  0
 19 43  1  0
 19 44  1  0
 21 45  1  0
 22 46  1  0
 26 47  1  0
 27 48  1  0
 28 49  1  0
 28 50  1  0
 28 51  1  0
 30 52  1  0
 30 53  1  0
 30 54  1  0
 31 55  1  0
 31 56  1  0
 31 57  1  0
 32 58  1  0
A    1
N1
A    2
C4
A    3
C5
A    4
C6
A    5
C7
A    6
C8
A    7
C20
A    8
C22
A    9
C24
A   10
C26
A   11
CL28
A   12
C25
A   13
C23
A   14
N19
A   15
C1
A   16
O18
A   17
C2
A   18
O13
A   19
C14
A   20
C3
A   21
C32
A   22
C37
A   23
N38
A   24
C34
A   25
N33
A   26
N35
A   27
C40
A   28
C43
A   29
C42
A   30
C47
A   31
C46
A   32
O45
M  END
