2GJ4_2TH_A_949
     RDKit          3D

 35 38  0  0  0  0  0  0  0  0999 V2000
   14.6580  111.3140   28.9950 O   0  0  0  0  0  0  0  0  0  0  0  0
   13.5350  110.7970   29.6810 C   0  0  0  0  0  0  0  0  0  0  0  0
   13.8790  110.1760   31.0060 C   0  0  0  0  0  0  0  0  0  0  0  0
   13.0310  109.0830   31.2370 C   0  0  0  0  0  0  0  0  0  0  0  0
   13.1320  108.3250   32.4060 C   0  0  0  0  0  0  0  0  0  0  0  0
   14.1030  108.6840   33.3520 C   0  0  0  0  0  0  0  0  0  0  0  0
   14.9530  109.7860   33.1230 C   0  0  0  0  0  0  0  0  0  0  0  0
   14.8400  110.5460   31.9460 C   0  0  0  0  0  0  0  0  0  0  0  0
   12.0960  108.9020   30.0730 C   0  0  0  0  0  0  0  0  0  0  0  0
   12.9350  109.5710   28.9540 C   0  0  0  0  0  0  0  0  0  0  0  0
   12.1550  109.8610   27.7330 N   0  0  0  0  0  0  0  0  0  0  0  0
   12.6070  109.5790   26.4460 C   0  0  0  0  0  0  0  0  0  0  0  0
   13.7230  109.0730   26.2810 O   0  0  0  0  0  0  0  0  0  0  0  0
   11.7400  109.8510   25.2950 C   0  0  0  0  0  0  0  0  0  0  0  0
   10.5320  110.5690   25.1160 C   0  0  0  0  0  0  0  0  0  0  0  0
   10.1890  110.4310   23.7640 C   0  0  0  0  0  0  0  0  0  0  0  0
   11.1050  109.6740   23.1410 C   0  0  0  0  0  0  0  0  0  0  0  0
   10.8140  109.4220   21.5150 S   0  0  0  0  0  0  0  0  0  0  0  0
    9.3790  110.3860   21.6430 C   0  0  0  0  0  0  0  0  0  0  0  0
    9.1470  110.8750   22.9270 C   0  0  0  0  0  0  0  0  0  0  0  0
    8.4310  110.6170   20.2140 Cl  0  0  0  0  0  0  0  0  0  0  0  0
   12.0380  109.3150   24.0480 N   0  0  0  0  0  0  0  0  0  0  0  0
   15.3315  111.6241   29.6510 H   0  0  0  0  0  0  0  0  0  0  0  0
   12.8733  111.6723   29.7579 H   0  0  0  0  0  0  0  0  0  0  0  0
   12.4659  107.4671   32.5803 H   0  0  0  0  0  0  0  0  0  0  0  0
   14.2025  108.1016   34.2799 H   0  0  0  0  0  0  0  0  0  0  0  0
   15.7119  110.0534   33.8730 H   0  0  0  0  0  0  0  0  0  0  0  0
   15.4945  111.4125   31.7706 H   0  0  0  0  0  0  0  0  0  0  0  0
   11.9063  107.8392   29.8621 H   0  0  0  0  0  0  0  0  0  0  0  0
   11.0897  109.3230   30.2148 H   0  0  0  0  0  0  0  0  0  0  0  0
   13.7211  108.9275   28.5321 H   0  0  0  0  0  0  0  0  0  0  0  0
   11.2270  110.2951   27.8393 H   0  0  0  0  0  0  0  0  0  0  0  0
    9.9744  111.1241   25.8847 H   0  0  0  0  0  0  0  0  0  0  0  0
    8.2959  111.5005   23.2342 H   0  0  0  0  0  0  0  0  0  0  0  0
   12.8575  108.7253   23.8440 H   0  0  0  0  0  0  0  0  0  0  0  0
  1  2  1  0
  2  3  1  0
  2 10  1  0
  3  4  2  0
  3  8  1  0
  4  5  1  0
  4  9  1  0
  5  6  2  0
  6  7  1  0
  7  8  2  0
  9 10  1  0
 10 11  1  0
 11 12  1  0
 12 13  2  0
 12 14  1  0
 14 15  2  0
 14 22  1  0
 15 16  1  0
 16 17  2  0
 16 20  1  0
 17 18  1  0
 17 22  1  0
 18 19  1  0
 19 20  2  0
 19 21  1  0
  1 23  1  0
  2 24  1  0
  5 25  1  0
  6 26  1  0
  7 27  1  0
  8 28  1  0
  9 29  1  0
  9 30  1  0
 10 31  1  0
 11 32  1  0
 15 33  1  0
 20 34  1  0
 22 35  1  0
A    1
O1
A    2
C1
A    3
C2
A    4
C3
A    5
C4
A    6
C5
A    7
C6
A    8
C7
A    9
C8
A   10
C9
A   11
N1
A   12
C10
A   13
O2
A   14
C11
A   15
C12
A   16
C13
A   17
C14
A   18
S1
A   19
C15
A   20
C16
A   21
CL1
A   22
N2
M  END
