2GM1_2AZ_A_371
     RDKit          3D

 66 70  0  0  0  0  0  0  0  0999 V2000
    6.3970   40.8070   28.9060 C   0  0  0  0  0  0  0  0  0  0  0  0
    7.8920   39.7690   30.7090 C   0  0  0  0  0  0  0  0  0  0  0  0
    7.9790   38.3350   30.0640 C   0  0  0  0  0  0  0  0  0  0  0  0
    8.0670   35.7620   29.1930 C   0  0  0  0  0  0  0  0  0  0  0  0
    7.7720   34.4930   28.9000 C   0  0  0  0  0  0  0  0  0  0  0  0
    6.4170   34.1960   29.3330 C   0  0  0  0  0  0  0  0  0  0  0  0
    9.2360   36.6080   28.9650 C   0  0  0  0  0  0  0  0  0  0  0  0
   10.2090   41.0440   28.1940 C   0  0  0  0  0  0  0  0  0  0  0  0
    9.6720   41.4030   25.8460 C   0  0  0  0  0  0  0  0  0  0  0  0
    9.5000   40.0260   25.6590 C   0  0  0  0  0  0  0  0  0  0  0  0
    9.6610   39.1650   26.7530 C   0  0  0  0  0  0  0  0  0  0  0  0
    6.5230   40.3570   30.3090 C   0  0  0  0  0  0  0  0  0  0  0  0
    6.3720   41.8060   30.0220 C   0  0  0  0  0  0  0  0  0  0  0  0
    6.8820   37.5070   30.1670 N   0  0  0  0  0  0  0  0  0  0  0  0
    6.9060   36.3170   29.8070 N   0  0  0  0  0  0  0  0  0  0  0  0
    5.8640   35.2940   29.8830 C   0  0  0  0  0  0  0  0  0  0  0  0
    8.7610   33.4300   28.0650 Cl  0  0  0  0  0  0  0  0  0  0  0  0
    9.1260   37.8830   29.4190 N   0  0  0  0  0  0  0  0  0  0  0  0
   10.2680   38.7380   29.1660 C   0  0  0  0  0  0  0  0  0  0  0  0
   10.0190   39.6640   28.0210 C   0  0  0  0  0  0  0  0  0  0  0  0
   10.0350   41.9060   27.1090 C   0  0  0  0  0  0  0  0  0  0  0  0
   10.2380   36.1850   28.3980 O   0  0  0  0  0  0  0  0  0  0  0  0
    8.1570   39.7310   32.2190 N   0  0  0  0  0  0  0  0  0  0  0  0
    7.2140   38.9430   33.0780 C   0  0  0  0  0  0  0  0  0  0  0  0
    7.7600   37.9830   34.2010 C   0  0  0  0  0  0  0  0  0  0  0  0
    9.1530   37.4080   33.9630 C   0  0  0  0  0  0  0  0  0  0  0  0
    9.3340   36.0730   34.4940 N   0  0  0  0  0  0  0  0  0  0  0  0
    9.1350   40.4410   32.9320 C   0  0  0  0  0  0  0  0  0  0  0  0
    9.1880   40.3440   34.1530 O   0  0  0  0  0  0  0  0  0  0  0  0
   10.1120   41.3110   32.2470 C   0  0  0  0  0  0  0  0  0  0  0  0
   11.3610   40.7850   31.8630 C   0  0  0  0  0  0  0  0  0  0  0  0
   12.2940   41.6210   31.2110 C   0  0  0  0  0  0  0  0  0  0  0  0
   12.0100   42.9890   30.9640 C   0  0  0  0  0  0  0  0  0  0  0  0
   10.7530   43.5090   31.3460 C   0  0  0  0  0  0  0  0  0  0  0  0
    9.8130   42.6830   31.9900 C   0  0  0  0  0  0  0  0  0  0  0  0
   13.0520   43.8680   30.3400 C   0  0  0  0  0  0  0  0  0  0  0  0
    7.2646   40.7566   28.2317 H   0  0  0  0  0  0  0  0  0  0  0  0
    5.7307   40.5609   28.0661 H   0  0  0  0  0  0  0  0  0  0  0  0
    8.6826   40.4335   30.3304 H   0  0  0  0  0  0  0  0  0  0  0  0
    5.9182   33.2213   29.2275 H   0  0  0  0  0  0  0  0  0  0  0  0
   10.4933   41.4442   29.1784 H   0  0  0  0  0  0  0  0  0  0  0  0
    9.5229   42.0937   25.0029 H   0  0  0  0  0  0  0  0  0  0  0  0
    9.2421   39.6257   24.6674 H   0  0  0  0  0  0  0  0  0  0  0  0
    9.5056   38.0842   26.6198 H   0  0  0  0  0  0  0  0  0  0  0  0
    5.9885   39.6710   30.9826 H   0  0  0  0  0  0  0  0  0  0  0  0
    7.2215   42.4890   30.1700 H   0  0  0  0  0  0  0  0  0  0  0  0
    5.6812   42.5985   30.3456 H   0  0  0  0  0  0  0  0  0  0  0  0
    4.8508   35.3983   30.2983 H   0  0  0  0  0  0  0  0  0  0  0  0
   10.4751   39.3330   30.0677 H   0  0  0  0  0  0  0  0  0  0  0  0
   11.1263   38.0990   28.9111 H   0  0  0  0  0  0  0  0  0  0  0  0
   10.1830   42.9877   27.2430 H   0  0  0  0  0  0  0  0  0  0  0  0
    6.5610   39.6728   33.5789 H   0  0  0  0  0  0  0  0  0  0  0  0
    6.7546   38.2459   32.3618 H   0  0  0  0  0  0  0  0  0  0  0  0
    7.7845   38.5473   35.1449 H   0  0  0  0  0  0  0  0  0  0  0  0
    7.0784   37.1197   34.2136 H   0  0  0  0  0  0  0  0  0  0  0  0
    9.3346   37.3772   32.8785 H   0  0  0  0  0  0  0  0  0  0  0  0
    9.8632   38.0613   34.4911 H   0  0  0  0  0  0  0  0  0  0  0  0
    9.3291   36.1093   35.5233 H   0  0  0  0  0  0  0  0  0  0  0  0
    8.5675   35.4671   34.1682 H   0  0  0  0  0  0  0  0  0  0  0  0
   11.6074   39.7329   32.0690 H   0  0  0  0  0  0  0  0  0  0  0  0
   13.2593   41.2036   30.8885 H   0  0  0  0  0  0  0  0  0  0  0  0
   10.5086   44.5615   31.1396 H   0  0  0  0  0  0  0  0  0  0  0  0
    8.8415   43.0973   32.2974 H   0  0  0  0  0  0  0  0  0  0  0  0
   13.6368   44.3613   31.1304 H   0  0  0  0  0  0  0  0  0  0  0  0
   13.7210   43.2573   29.7159 H   0  0  0  0  0  0  0  0  0  0  0  0
   12.5628   44.6303   29.7159 H   0  0  0  0  0  0  0  0  0  0  0  0
  1 12  1  0
  1 13  1  0
  2  3  1  0
  2 12  1  0
  2 23  1  0
  3 14  2  0
  3 18  1  0
  4  5  2  0
  4  7  1  0
  4 15  1  0
  5  6  1  0
  5 17  1  0
  6 16  2  0
  7 18  1  0
  7 22  2  0
  8 20  2  0
  8 21  1  0
  9 10  1  0
  9 21  2  0
 10 11  2  0
 11 20  1  0
 12 13  1  0
 14 15  1  0
 15 16  1  0
 18 19  1  0
 19 20  1  0
 23 24  1  0
 23 28  1  0
 24 25  1  0
 25 26  1  0
 26 27  1  0
 28 29  2  0
 28 30  1  0
 30 31  2  0
 30 35  1  0
 31 32  1  0
 32 33  2  0
 33 34  1  0
 33 36  1  0
 34 35  2  0
  1 37  1  0
  1 38  1  0
  2 39  1  0
  6 40  1  0
  8 41  1  0
  9 42  1  0
 10 43  1  0
 11 44  1  0
 12 45  1  0
 13 46  1  0
 13 47  1  0
 16 48  1  0
 19 49  1  0
 19 50  1  0
 21 51  1  0
 24 52  1  0
 24 53  1  0
 25 54  1  0
 25 55  1  0
 26 56  1  0
 26 57  1  0
 27 58  1  0
 27 59  1  0
 31 60  1  0
 32 61  1  0
 34 62  1  0
 35 63  1  0
 36 64  1  0
 36 65  1  0
 36 66  1  0
A    1
C1
A    2
C9
A    3
C11
A    4
C14
A    5
C15
A    6
C16
A    7
C21
A    8
C27
A    9
C31
A   10
C33
A   11
C35
A   12
C4
A   13
C6
A   14
N12
A   15
N13
A   16
C18
A   17
CL2
A   18
N22
A   19
C23
A   20
C26
A   21
C29
A   22
O37
A   23
N38
A   24
C39
A   25
C42
A   26
C45
A   27
N48
A   28
C51
A   29
O52
A   30
C53
A   31
C54
A   32
C56
A   33
C58
A   34
C59
A   35
C61
A   36
C63
M  END
