2GMV_UN8_A_703
     RDKit          3D

 68 72  0  0  0  0  0  0  0  0999 V2000
   21.8840   -3.3890   46.2810 O   0  0  0  0  0  0  0  0  0  0  0  0
   23.1200   -4.0540   46.2720 S   0  0  0  0  0  0  0  0  0  0  0  0
   23.9360   -4.3240   47.3720 O   0  0  0  0  0  0  0  0  0  0  0  0
   24.2070   -3.2650   45.1030 C   0  0  0  0  0  0  0  0  0  0  0  0
   24.1620   -2.0160   44.4040 C   0  0  0  0  0  0  0  0  0  0  0  0
   25.4010   -1.7600   43.8020 N   0  0  0  0  0  0  0  0  0  0  0  0
   25.7780   -0.6540   42.9610 C   0  0  0  0  0  0  0  0  0  0  0  0
   26.2430   -2.8120   44.2270 C   0  0  0  0  0  0  0  0  0  0  0  0
   25.5720   -3.6530   45.0360 N   0  0  0  0  0  0  0  0  0  0  0  0
   22.8180   -5.6470   45.7660 N   0  0  0  0  0  0  0  0  0  0  0  0
   22.3270   -6.1050   44.5150 C   0  0  0  0  0  0  0  0  0  0  0  0
   22.6110   -7.3960   43.9870 C   0  0  0  0  0  0  0  0  0  0  0  0
   22.1800   -7.8080   42.7220 C   0  0  0  0  0  0  0  0  0  0  0  0
   21.5770   -5.2840   43.6490 C   0  0  0  0  0  0  0  0  0  0  0  0
   21.1330   -5.7060   42.3990 C   0  0  0  0  0  0  0  0  0  0  0  0
   21.4070   -6.9880   41.8890 C   0  0  0  0  0  0  0  0  0  0  0  0
   20.9950   -7.3780   40.4980 C   0  0  0  0  0  0  0  0  0  0  0  0
   21.9070   -6.6990   39.4940 C   0  0  0  0  0  0  0  0  0  0  0  0
   23.1300   -7.2250   39.0510 N   0  0  0  0  0  0  0  0  0  0  0  0
   23.6890   -6.2850   38.1850 C   0  0  0  0  0  0  0  0  0  0  0  0
   24.9180   -6.3550   37.3990 C   0  0  0  0  0  0  0  0  0  0  0  0
   25.7200   -7.2940   37.4390 O   0  0  0  0  0  0  0  0  0  0  0  0
   22.7800   -5.1810   38.1460 C   0  0  0  0  0  0  0  0  0  0  0  0
   21.6810   -5.4560   38.9730 N   0  0  0  0  0  0  0  0  0  0  0  0
   23.0770   -4.0620   37.3740 N   0  0  0  0  0  0  0  0  0  0  0  0
   22.1160   -2.9860   37.1320 C   0  0  0  0  0  0  0  0  0  0  0  0
   21.4340   -3.1380   35.7690 C   0  0  0  0  0  0  0  0  0  0  0  0
   20.5680   -1.9700   35.3480 C   0  0  0  0  0  0  0  0  0  0  0  0
   20.0280   -2.2460   33.9640 C   0  0  0  0  0  0  0  0  0  0  0  0
   24.2670   -4.1270   36.5830 C   0  0  0  0  0  0  0  0  0  0  0  0
   24.5610   -3.1490   35.8580 O   0  0  0  0  0  0  0  0  0  0  0  0
   25.2190   -5.1950   36.6850 N   0  0  0  0  0  0  0  0  0  0  0  0
   26.2050   -5.1460   35.6180 C   0  0  0  0  0  0  0  0  0  0  0  0
   27.5480   -4.6870   36.0910 C   0  0  0  0  0  0  0  0  0  0  0  0
   28.7090   -5.4250   35.8220 C   0  0  0  0  0  0  0  0  0  0  0  0
   28.6140   -6.5740   35.1180 F   0  0  0  0  0  0  0  0  0  0  0  0
   29.9700   -4.9720   36.2510 C   0  0  0  0  0  0  0  0  0  0  0  0
   30.0770   -3.7890   36.9740 C   0  0  0  0  0  0  0  0  0  0  0  0
   28.9290   -3.0470   37.2560 C   0  0  0  0  0  0  0  0  0  0  0  0
   27.6840   -3.4900   36.8120 C   0  0  0  0  0  0  0  0  0  0  0  0
   23.2844   -1.3552   44.3480 H   0  0  0  0  0  0  0  0  0  0  0  0
   26.0695    0.2011   43.5886 H   0  0  0  0  0  0  0  0  0  0  0  0
   26.6264   -0.9488   42.3259 H   0  0  0  0  0  0  0  0  0  0  0  0
   24.9262   -0.3693   42.3259 H   0  0  0  0  0  0  0  0  0  0  0  0
   27.2980   -2.9275   43.9376 H   0  0  0  0  0  0  0  0  0  0  0  0
   23.0182   -6.3803   46.4610 H   0  0  0  0  0  0  0  0  0  0  0  0
   23.1940   -8.0992   44.5998 H   0  0  0  0  0  0  0  0  0  0  0  0
   22.4577   -8.8118   42.3681 H   0  0  0  0  0  0  0  0  0  0  0  0
   21.3312   -4.2629   43.9759 H   0  0  0  0  0  0  0  0  0  0  0  0
   20.5440   -5.0087   41.7851 H   0  0  0  0  0  0  0  0  0  0  0  0
   21.0723   -8.4694   40.3847 H   0  0  0  0  0  0  0  0  0  0  0  0
   19.9555   -7.0648   40.3210 H   0  0  0  0  0  0  0  0  0  0  0  0
   23.5378   -8.1332   39.3152 H   0  0  0  0  0  0  0  0  0  0  0  0
   21.3488   -3.0082   37.9200 H   0  0  0  0  0  0  0  0  0  0  0  0
   22.6594   -2.0296   37.1411 H   0  0  0  0  0  0  0  0  0  0  0  0
   22.2181   -3.2716   35.0091 H   0  0  0  0  0  0  0  0  0  0  0  0
   20.7587   -4.0016   35.8601 H   0  0  0  0  0  0  0  0  0  0  0  0
   19.7335   -1.8533   36.0551 H   0  0  0  0  0  0  0  0  0  0  0  0
   21.1618   -1.0440   35.3425 H   0  0  0  0  0  0  0  0  0  0  0  0
   19.0511   -2.7453   34.0444 H   0  0  0  0  0  0  0  0  0  0  0  0
   19.9111   -1.2971   33.4200 H   0  0  0  0  0  0  0  0  0  0  0  0
   20.7286   -2.8966   33.4200 H   0  0  0  0  0  0  0  0  0  0  0  0
   26.3089   -6.1535   35.1888 H   0  0  0  0  0  0  0  0  0  0  0  0
   25.8503   -4.4195   34.8721 H   0  0  0  0  0  0  0  0  0  0  0  0
   30.8726   -5.5545   36.0142 H   0  0  0  0  0  0  0  0  0  0  0  0
   31.0606   -3.4401   37.3216 H   0  0  0  0  0  0  0  0  0  0  0  0
   29.0067   -2.1115   37.8293 H   0  0  0  0  0  0  0  0  0  0  0  0
   26.7892   -2.8890   37.0312 H   0  0  0  0  0  0  0  0  0  0  0  0
  1  2  2  0
  2  3  2  0
  2  4  1  0
  2 10  1  0
  4  5  2  0
  4  9  1  0
  5  6  1  0
  6  7  1  0
  6  8  1  0
  8  9  2  0
 10 11  1  0
 11 12  2  0
 11 14  1  0
 12 13  1  0
 13 16  2  0
 14 15  2  0
 15 16  1  0
 16 17  1  0
 17 18  1  0
 18 19  1  0
 18 24  2  0
 19 20  1  0
 20 21  1  0
 20 23  2  0
 21 22  2  0
 21 32  1  0
 23 24  1  0
 23 25  1  0
 25 26  1  0
 25 30  1  0
 26 27  1  0
 27 28  1  0
 28 29  1  0
 30 31  2  0
 30 32  1  0
 32 33  1  0
 33 34  1  0
 34 35  2  0
 34 40  1  0
 35 36  1  0
 35 37  1  0
 37 38  2  0
 38 39  1  0
 39 40  2  0
  5 41  1  0
  7 42  1  0
  7 43  1  0
  7 44  1  0
  8 45  1  0
 10 46  1  0
 12 47  1  0
 13 48  1  0
 14 49  1  0
 15 50  1  0
 17 51  1  0
 17 52  1  0
 19 53  1  0
 26 54  1  0
 26 55  1  0
 27 56  1  0
 27 57  1  0
 28 58  1  0
 28 59  1  0
 29 60  1  0
 29 61  1  0
 29 62  1  0
 33 63  1  0
 33 64  1  0
 37 65  1  0
 38 66  1  0
 39 67  1  0
 40 68  1  0
A    1
O2
A    2
S1
A    3
O1
A    4
C1
A    5
C2
A    6
N5
A    7
C4
A    8
C3
A    9
N7
A   10
N4
A   11
C8
A   12
C9
A   13
C30
A   14
C7
A   15
C6
A   16
C5
A   17
C16
A   18
C14
A   19
N15
A   20
C55
A   21
C56
A   22
O57
A   23
C54
A   24
N13
A   25
N53
A   26
C59
A   27
C10
A   28
C11
A   29
C12
A   30
C52
A   31
O58
A   32
N51
A   33
C17
A   34
C18
A   35
C19
A   36
F24
A   37
C20
A   38
C21
A   39
C22
A   40
C23
M  END
