1Q8U_H52_A_961
     RDKit          3D

 43 45  0  0  0  0  0  0  0  0999 V2000
    9.0020   11.3030    4.8480 O   0  0  0  0  0  0  0  0  0  0  0  0
    8.8080    9.9310    4.3060 S   0  0  0  0  0  0  0  0  0  0  0  0
    8.5320    8.8530    5.2640 O   0  0  0  0  0  0  0  0  0  0  0  0
   10.1290    9.3450    3.3860 N   0  0  0  0  0  0  0  0  0  0  0  0
   10.5140    7.8890    3.6060 C   0  0  0  0  0  0  0  0  0  0  0  0
    9.5510    6.9010    2.9710 C   0  0  0  0  0  0  0  0  0  0  0  0
   11.9540    7.5010    3.2490 C   0  0  0  0  0  0  0  0  0  0  0  0
   12.8840    8.2120    4.2120 N   0  0  0  0  0  0  0  0  0  0  0  0
   13.3440    9.5160    3.5810 C   0  0  0  0  0  0  0  0  0  0  0  0
   12.2700   10.6190    3.5870 C   0  0  0  0  0  0  0  0  0  0  0  0
   11.0890   10.2490    2.6990 C   0  0  0  0  0  0  0  0  0  0  0  0
    7.3940    9.9380    3.2180 C   0  0  0  0  0  0  0  0  0  0  0  0
    5.9780    9.8950    3.6190 C   0  0  0  0  0  0  0  0  0  0  0  0
    5.3680    9.9110    4.9390 C   0  0  0  0  0  0  0  0  0  0  0  0
    6.0680   10.0340    6.2580 C   0  0  0  0  0  0  0  0  0  0  0  0
    5.0230    9.8180    2.5610 C   0  0  0  0  0  0  0  0  0  0  0  0
    5.4370    9.7960    1.2000 C   0  0  0  0  0  0  0  0  0  0  0  0
    6.7620    9.8350    0.8680 C   0  0  0  0  0  0  0  0  0  0  0  0
    7.7460    9.8780    1.8860 C   0  0  0  0  0  0  0  0  0  0  0  0
    3.6240    9.7490    2.8360 C   0  0  0  0  0  0  0  0  0  0  0  0
    3.1610    9.7220    4.0620 N   0  0  0  0  0  0  0  0  0  0  0  0
    4.0030    9.8280    5.1100 C   0  0  0  0  0  0  0  0  0  0  0  0
   10.4424    7.8159    4.7012 H   0  0  0  0  0  0  0  0  0  0  0  0
    9.0159    6.3520    3.7598 H   0  0  0  0  0  0  0  0  0  0  0  0
    8.8267    7.4446    2.3466 H   0  0  0  0  0  0  0  0  0  0  0  0
   10.1130    6.1908    2.3466 H   0  0  0  0  0  0  0  0  0  0  0  0
   12.0812    6.4124    3.3425 H   0  0  0  0  0  0  0  0  0  0  0  0
   12.1821    7.7919    2.2130 H   0  0  0  0  0  0  0  0  0  0  0  0
   12.3853    8.4104    5.0911 H   0  0  0  0  0  0  0  0  0  0  0  0
   14.2199    9.8811    4.1374 H   0  0  0  0  0  0  0  0  0  0  0  0
   13.5763    9.2992    2.5279 H   0  0  0  0  0  0  0  0  0  0  0  0
   11.9118   10.7643    4.6169 H   0  0  0  0  0  0  0  0  0  0  0  0
   12.7207   11.5434    3.1966 H   0  0  0  0  0  0  0  0  0  0  0  0
   11.4680    9.7441    1.7982 H   0  0  0  0  0  0  0  0  0  0  0  0
   10.5552   11.1765    2.4445 H   0  0  0  0  0  0  0  0  0  0  0  0
    5.3401    9.9061    7.0727 H   0  0  0  0  0  0  0  0  0  0  0  0
    6.8443    9.2585    6.3348 H   0  0  0  0  0  0  0  0  0  0  0  0
    6.5335   11.0277    6.3348 H   0  0  0  0  0  0  0  0  0  0  0  0
    4.6797    9.7469    0.4037 H   0  0  0  0  0  0  0  0  0  0  0  0
    7.0644    9.8330   -0.1896 H   0  0  0  0  0  0  0  0  0  0  0  0
    8.8104    9.8633    1.6090 H   0  0  0  0  0  0  0  0  0  0  0  0
    2.9148    9.7176    1.9958 H   0  0  0  0  0  0  0  0  0  0  0  0
    3.5891    9.8488    6.1290 H   0  0  0  0  0  0  0  0  0  0  0  0
  1  2  2  0
  2  3  2  0
  2  4  1  0
  2 12  1  0
  4  5  1  0
  4 11  1  0
  5  6  1  0
  5  7  1  0
  7  8  1  0
  8  9  1  0
  9 10  1  0
 10 11  1  0
 12 13  1  0
 12 19  2  0
 13 14  2  0
 13 16  1  0
 14 15  1  0
 14 22  1  0
 16 17  1  0
 16 20  2  0
 17 18  2  0
 18 19  1  0
 20 21  1  0
 21 22  2  0
  5 23  1  0
  6 24  1  0
  6 25  1  0
  6 26  1  0
  7 27  1  0
  7 28  1  0
  8 29  1  0
  9 30  1  0
  9 31  1  0
 10 32  1  0
 10 33  1  0
 11 34  1  0
 11 35  1  0
 15 36  1  0
 15 37  1  0
 15 38  1  0
 17 39  1  0
 18 40  1  0
 19 41  1  0
 20 42  1  0
 22 43  1  0
A    1
O1
A    2
S5
A    3
O2
A    4
N21
A    5
C22
A    6
C2M
A    7
C23
A    8
N24
A    9
C25
A   10
C26
A   11
C27
A   12
C5
A   13
C10
A   14
C4
A   15
CM
A   16
C9
A   17
C8
A   18
C7
A   19
C6
A   20
C1
A   21
N2
A   22
C3
M  END
