2GPP_1BA_A_459
     RDKit          3D

 41 42  0  0  0  0  0  0  0  0999 V2000
  -53.3290  121.8760    1.9500 N   0  0  0  0  0  0  0  0  0  0  0  0
  -51.6320  118.5440    5.4370 C   0  0  0  0  0  0  0  0  0  0  0  0
  -53.0070  118.5670    5.4900 C   0  0  0  0  0  0  0  0  0  0  0  0
  -53.7010  119.3920    4.6320 C   0  0  0  0  0  0  0  0  0  0  0  0
  -53.0340  120.1940    3.7310 C   0  0  0  0  0  0  0  0  0  0  0  0
  -53.8220  121.0710    2.8430 C   0  0  0  0  0  0  0  0  0  0  0  0
  -54.7030  124.5600   -0.1350 C   0  0  0  0  0  0  0  0  0  0  0  0
  -56.3330  126.5250   -1.0340 C   0  0  0  0  0  0  0  0  0  0  0  0
  -54.9730  124.6460   -1.4780 C   0  0  0  0  0  0  0  0  0  0  0  0
  -50.9810  119.3480    4.5360 C   0  0  0  0  0  0  0  0  0  0  0  0
  -50.1640  118.4200    7.4610 C   0  0  0  0  0  0  0  0  0  0  0  0
  -50.7790  117.6680    6.3070 C   0  0  0  0  0  0  0  0  0  0  0  0
  -51.5370  116.4660    6.8320 C   0  0  0  0  0  0  0  0  0  0  0  0
  -54.2650  122.5990    1.2530 N   0  0  0  0  0  0  0  0  0  0  0  0
  -53.8050  123.4920    0.3050 C   0  0  0  0  0  0  0  0  0  0  0  0
  -52.7010  123.4780   -0.2100 O   0  0  0  0  0  0  0  0  0  0  0  0
  -55.2350  125.4480    0.7690 C   0  0  0  0  0  0  0  0  0  0  0  0
  -56.0650  126.4490    0.3150 C   0  0  0  0  0  0  0  0  0  0  0  0
  -57.1570  127.5150   -1.5070 O   0  0  0  0  0  0  0  0  0  0  0  0
  -55.7990  125.6380   -1.9380 C   0  0  0  0  0  0  0  0  0  0  0  0
  -51.6670  120.1790    3.6830 C   0  0  0  0  0  0  0  0  0  0  0  0
  -52.7010  122.5387    2.4267 H   0  0  0  0  0  0  0  0  0  0  0  0
  -53.5462  117.9335    6.2097 H   0  0  0  0  0  0  0  0  0  0  0  0
  -54.8003  119.4108    4.6665 H   0  0  0  0  0  0  0  0  0  0  0  0
  -54.4148  121.7091    3.5149 H   0  0  0  0  0  0  0  0  0  0  0  0
  -54.2875  120.3182    2.1899 H   0  0  0  0  0  0  0  0  0  0  0  0
  -54.5297  123.9241   -2.1797 H   0  0  0  0  0  0  0  0  0  0  0  0
  -49.8820  119.3270    4.4953 H   0  0  0  0  0  0  0  0  0  0  0  0
  -50.5168  117.9886    8.4094 H   0  0  0  0  0  0  0  0  0  0  0  0
  -49.0681  118.3413    7.4076 H   0  0  0  0  0  0  0  0  0  0  0  0
  -50.4586  119.4785    7.4076 H   0  0  0  0  0  0  0  0  0  0  0  0
  -49.9676  117.3135    5.6543 H   0  0  0  0  0  0  0  0  0  0  0  0
  -51.5288  116.4791    7.9319 H   0  0  0  0  0  0  0  0  0  0  0  0
  -52.5760  116.5021    6.4727 H   0  0  0  0  0  0  0  0  0  0  0  0
  -51.0566  115.5440    6.4727 H   0  0  0  0  0  0  0  0  0  0  0  0
  -55.2726  122.4800    1.4304 H   0  0  0  0  0  0  0  0  0  0  0  0
  -55.0012  125.3605    1.8403 H   0  0  0  0  0  0  0  0  0  0  0  0
  -56.5052  127.1735    1.0159 H   0  0  0  0  0  0  0  0  0  0  0  0
  -57.6433  128.0993   -0.8728 H   0  0  0  0  0  0  0  0  0  0  0  0
  -56.0302  125.7228   -3.0101 H   0  0  0  0  0  0  0  0  0  0  0  0
  -51.1256  120.8217    2.9732 H   0  0  0  0  0  0  0  0  0  0  0  0
  1  6  1  0
  1 14  1  0
  2  3  2  0
  2 10  1  0
  2 12  1  0
  3  4  1  0
  4  5  2  0
  5  6  1  0
  5 21  1  0
  7  9  1  0
  7 15  1  0
  7 17  2  0
  8 18  2  0
  8 19  1  0
  8 20  1  0
  9 20  2  0
 10 21  2  0
 11 12  1  0
 12 13  1  0
 14 15  1  0
 15 16  2  0
 17 18  1  0
  1 22  1  0
  3 23  1  0
  4 24  1  0
  6 25  1  0
  6 26  1  0
  9 27  1  0
 10 28  1  0
 11 29  1  0
 11 30  1  0
 11 31  1  0
 12 32  1  0
 13 33  1  0
 13 34  1  0
 13 35  1  0
 14 36  1  0
 17 37  1  0
 18 38  1  0
 19 39  1  0
 20 40  1  0
 21 41  1  0
A    1
N1
A    2
C4
A    3
C5
A    4
C6
A    5
C7
A    6
C8
A    7
C10
A    8
C13
A    9
C15
A   10
C17
A   11
C1
A   12
C2
A   13
C3
A   14
N2
A   15
C9
A   16
O1
A   17
C11
A   18
C12
A   19
O2
A   20
C14
A   21
C16
M  END
