2GRU_EXO_A_607
     RDKit          3D

 23 23  0  0  0  0  0  0  0  0999 V2000
   11.4980   16.0160   12.3280 O   0  0  0  0  0  0  0  0  0  0  0  0
   10.7730   17.0690   11.6660 C   0  0  0  0  0  0  0  0  0  0  0  0
   10.7040   18.2730   12.5850 C   0  0  0  0  0  0  0  0  0  0  0  0
   10.1250   17.9140   13.8460 O   0  0  0  0  0  0  0  0  0  0  0  0
   11.5340   17.5320   10.4530 C   0  0  0  0  0  0  0  0  0  0  0  0
   12.5670   16.8230   10.0420 C   0  0  0  0  0  0  0  0  0  0  0  0
   11.1380   18.8040    9.6950 C   0  0  0  0  0  0  0  0  0  0  0  0
   10.7240   19.9860   10.6000 C   0  0  0  0  0  0  0  0  0  0  0  0
    9.9680   20.8870    9.7400 O   0  0  0  0  0  0  0  0  0  0  0  0
   10.0110   19.4880   11.9100 C   0  0  0  0  0  0  0  0  0  0  0  0
    9.7640   20.4680   12.9520 O   0  0  0  0  0  0  0  0  0  0  0  0
   11.4208   16.1281   13.3086 H   0  0  0  0  0  0  0  0  0  0  0  0
    9.7773   16.6864   11.3974 H   0  0  0  0  0  0  0  0  0  0  0  0
   11.7315   18.6079   12.7905 H   0  0  0  0  0  0  0  0  0  0  0  0
   10.6896   18.2641   14.5800 H   0  0  0  0  0  0  0  0  0  0  0  0
   13.1372   17.1435    9.1576 H   0  0  0  0  0  0  0  0  0  0  0  0
   12.8586   15.9110   10.5836 H   0  0  0  0  0  0  0  0  0  0  0  0
   11.9966   19.1222    9.0855 H   0  0  0  0  0  0  0  0  0  0  0  0
   10.2546   18.5469    9.0921 H   0  0  0  0  0  0  0  0  0  0  0  0
   11.5753   20.5460   11.0143 H   0  0  0  0  0  0  0  0  0  0  0  0
    9.4427   21.5131   10.2987 H   0  0  0  0  0  0  0  0  0  0  0  0
    9.0365   19.2081   11.4834 H   0  0  0  0  0  0  0  0  0  0  0  0
    9.8716   20.0411   13.8387 H   0  0  0  0  0  0  0  0  0  0  0  0
  1  2  1  0
  2  3  1  0
  2  5  1  0
  3  4  1  0
  3 10  1  0
  5  6  2  3
  5  7  1  0
  7  8  1  0
  8  9  1  0
  8 10  1  0
 10 11  1  0
  1 12  1  0
  2 13  1  0
  3 14  1  0
  4 15  1  0
  6 16  1  0
  6 17  1  0
  7 18  1  0
  7 19  1  0
  8 20  1  0
  9 21  1  0
 10 22  1  0
 11 23  1  0
A    1
OBG
A    2
CBA
A    3
CBB
A    4
OBI
A    5
CBF
A    6
CBH
A    7
CBE
A    8
CBD
A    9
OBK
A   10
CBC
A   11
OBJ
M  END
