2GTE_VA_A_501
     RDKit          3D

 60 59  0  0  0  0  0  0  0  0999 V2000
   -5.3850   10.2920   -4.4910 O   0  0  0  0  0  0  0  0  0  0  0  0
   -4.9090    9.5610   -5.3410 C   0  0  0  0  0  0  0  0  0  0  0  0
   -4.2030   10.0770   -6.5510 C   0  0  0  0  0  0  0  0  0  0  0  0
   -5.0600    8.1270   -5.1840 O   0  0  0  0  0  0  0  0  0  0  0  0
   -5.9620    7.6460   -4.1720 C   0  0  0  0  0  0  0  0  0  0  0  0
   -6.5120    6.2800   -4.5620 C   0  0  0  0  0  0  0  0  0  0  0  0
   -7.2060    5.5930   -3.3910 C   0  0  0  0  0  0  0  0  0  0  0  0
   -7.7780    4.2300   -3.7820 C   0  0  0  0  0  0  0  0  0  0  0  0
   -7.0280    3.1040   -3.0680 C   0  0  0  0  0  0  0  0  0  0  0  0
   -6.7950    1.9090   -3.9920 C   0  0  0  0  0  0  0  0  0  0  0  0
   -5.4260    1.9680   -4.6650 C   0  0  0  0  0  0  0  0  0  0  0  0
   -4.3080    1.7300   -3.6560 C   0  0  0  0  0  0  0  0  0  0  0  0
   -3.4130    0.5810   -4.0830 C   0  0  0  0  0  0  0  0  0  0  0  0
   -2.1230    1.1380   -4.6620 C   0  0  0  0  0  0  0  0  0  0  0  0
   -0.9950    0.9400   -3.6750 C   0  0  0  0  0  0  0  0  0  0  0  0
   -0.0450    1.8490   -3.4570 C   0  0  0  0  0  0  0  0  0  0  0  0
    0.0240    3.1850   -4.1590 C   0  0  0  0  0  0  0  0  0  0  0  0
   -0.1800    4.3000   -3.1450 C   0  0  0  0  0  0  0  0  0  0  0  0
   -1.6330    4.7540   -3.1490 C   0  0  0  0  0  0  0  0  0  0  0  0
   -2.1300    5.0100   -1.7360 C   0  0  0  0  0  0  0  0  0  0  0  0
   -3.5840    5.4590   -1.7670 C   0  0  0  0  0  0  0  0  0  0  0  0
   -3.7570    6.7800   -1.0520 C   0  0  0  0  0  0  0  0  0  0  0  0
   -3.3510   10.6997   -6.2407 H   0  0  0  0  0  0  0  0  0  0  0  0
   -3.8389    9.2306   -7.1519 H   0  0  0  0  0  0  0  0  0  0  0  0
   -4.8989   10.6809   -7.1519 H   0  0  0  0  0  0  0  0  0  0  0  0
   -5.4238    7.5614   -3.2164 H   0  0  0  0  0  0  0  0  0  0  0  0
   -6.7981    8.3536   -4.0715 H   0  0  0  0  0  0  0  0  0  0  0  0
   -7.2366    6.4082   -5.3797 H   0  0  0  0  0  0  0  0  0  0  0  0
   -5.6678    5.6489   -4.8768 H   0  0  0  0  0  0  0  0  0  0  0  0
   -6.4770    5.4523   -2.5794 H   0  0  0  0  0  0  0  0  0  0  0  0
   -8.0417    6.2320   -3.0698 H   0  0  0  0  0  0  0  0  0  0  0  0
   -8.8409    4.1905   -3.5015 H   0  0  0  0  0  0  0  0  0  0  0  0
   -7.6648    4.0973   -4.8681 H   0  0  0  0  0  0  0  0  0  0  0  0
   -6.0548    3.4849   -2.7247 H   0  0  0  0  0  0  0  0  0  0  0  0
   -7.6401    2.7677   -2.2182 H   0  0  0  0  0  0  0  0  0  0  0  0
   -6.8609    0.9839   -3.4004 H   0  0  0  0  0  0  0  0  0  0  0  0
   -7.5630    1.9320   -4.7792 H   0  0  0  0  0  0  0  0  0  0  0  0
   -5.3759    1.1949   -5.4459 H   0  0  0  0  0  0  0  0  0  0  0  0
   -5.2946    2.9685   -5.1028 H   0  0  0  0  0  0  0  0  0  0  0  0
   -3.7016    2.6438   -3.5714 H   0  0  0  0  0  0  0  0  0  0  0  0
   -4.7635    1.4732   -2.6882 H   0  0  0  0  0  0  0  0  0  0  0  0
   -3.1826   -0.0490   -3.2112 H   0  0  0  0  0  0  0  0  0  0  0  0
   -3.9276   -0.0240   -4.8440 H   0  0  0  0  0  0  0  0  0  0  0  0
   -1.8857    0.6126   -5.5988 H   0  0  0  0  0  0  0  0  0  0  0  0
   -2.2475    2.2124   -4.8627 H   0  0  0  0  0  0  0  0  0  0  0  0
   -0.9564   -0.0019   -3.1082 H   0  0  0  0  0  0  0  0  0  0  0  0
    0.7370    1.6119   -2.7206 H   0  0  0  0  0  0  0  0  0  0  0  0
    1.0087    3.2984   -4.6360 H   0  0  0  0  0  0  0  0  0  0  0  0
   -0.7625    3.2378   -4.9262 H   0  0  0  0  0  0  0  0  0  0  0  0
    0.0831    3.9320   -2.1423 H   0  0  0  0  0  0  0  0  0  0  0  0
    0.4631    5.1513   -3.4130 H   0  0  0  0  0  0  0  0  0  0  0  0
   -1.7178    5.6821   -3.7333 H   0  0  0  0  0  0  0  0  0  0  0  0
   -2.2465    3.9581   -3.5963 H   0  0  0  0  0  0  0  0  0  0  0  0
   -2.0475    4.0841   -1.1478 H   0  0  0  0  0  0  0  0  0  0  0  0
   -1.5185    5.8006   -1.2767 H   0  0  0  0  0  0  0  0  0  0  0  0
   -3.9038    5.5715   -2.8135 H   0  0  0  0  0  0  0  0  0  0  0  0
   -4.1965    4.7009   -1.2570 H   0  0  0  0  0  0  0  0  0  0  0  0
   -3.7353    6.6141    0.0352 H   0  0  0  0  0  0  0  0  0  0  0  0
   -2.9403    7.4601   -1.3355 H   0  0  0  0  0  0  0  0  0  0  0  0
   -4.7213    7.2269   -1.3355 H   0  0  0  0  0  0  0  0  0  0  0  0
  1  2  2  0
  2  3  1  0
  2  4  1  0
  4  5  1  0
  5  6  1  0
  6  7  1  0
  7  8  1  0
  8  9  1  0
  9 10  1  0
 10 11  1  0
 11 12  1  0
 12 13  1  0
 13 14  1  0
 14 15  1  0
 15 16  2  0
 16 17  1  0
 17 18  1  0
 18 19  1  0
 19 20  1  0
 20 21  1  0
 21 22  1  0
  3 23  1  0
  3 24  1  0
  3 25  1  0
  5 26  1  0
  5 27  1  0
  6 28  1  0
  6 29  1  0
  7 30  1  0
  7 31  1  0
  8 32  1  0
  8 33  1  0
  9 34  1  0
  9 35  1  0
 10 36  1  0
 10 37  1  0
 11 38  1  0
 11 39  1  0
 12 40  1  0
 12 41  1  0
 13 42  1  0
 13 43  1  0
 14 44  1  0
 14 45  1  0
 15 46  1  0
 16 47  1  0
 17 48  1  0
 17 49  1  0
 18 50  1  0
 18 51  1  0
 19 52  1  0
 19 53  1  0
 20 54  1  0
 20 55  1  0
 21 56  1  0
 21 57  1  0
 22 58  1  0
 22 59  1  0
 22 60  1  0
A    1
O21
A    2
C20
A    3
C22
A    4
O19
A    5
C1
A    6
C2
A    7
C3
A    8
C4
A    9
C5
A   10
C6
A   11
C7
A   12
C8
A   13
C9
A   14
C10
A   15
C11
A   16
C12
A   17
C13
A   18
C14
A   19
C15
A   20
C16
A   21
C17
A   22
C18
M  END
