2GTN_LIE_A_354
     RDKit          3D

 45 48  0  0  0  0  0  0  0  0999 V2000
   -1.6120   -3.2020   22.6350 C   0  0  0  0  0  0  0  0  0  0  0  0
   -2.3210   -1.3800   21.3880 C   0  0  0  0  0  0  0  0  0  0  0  0
   -2.3840    1.0750   21.9590 C   0  0  0  0  0  0  0  0  0  0  0  0
   -3.0640   -0.2450   19.8160 C   0  0  0  0  0  0  0  0  0  0  0  0
   -3.4760    0.8380   19.1410 N   0  0  0  0  0  0  0  0  0  0  0  0
   -0.7850   -2.7840   24.8120 C   0  0  0  0  0  0  0  0  0  0  0  0
   -1.5490   -2.8490   25.9460 C   0  0  0  0  0  0  0  0  0  0  0  0
    0.5280   -0.9750   25.7670 C   0  0  0  0  0  0  0  0  0  0  0  0
   -2.9800    0.9110   23.3360 C   0  0  0  0  0  0  0  0  0  0  0  0
   -6.0740   -0.1700   18.7670 F   0  0  0  0  0  0  0  0  0  0  0  0
   -5.3430    0.1770   17.6870 C   0  0  0  0  0  0  0  0  0  0  0  0
   -5.9070    0.0290   16.4230 C   0  0  0  0  0  0  0  0  0  0  0  0
   -5.1390    0.4440   15.3220 C   0  0  0  0  0  0  0  0  0  0  0  0
   -3.8640    0.9840   15.4900 C   0  0  0  0  0  0  0  0  0  0  0  0
   -3.3050    1.0990   16.7490 C   0  0  0  0  0  0  0  0  0  0  0  0
   -4.0530    0.7020   17.8420 C   0  0  0  0  0  0  0  0  0  0  0  0
   -3.1510   -1.4870   19.2970 N   0  0  0  0  0  0  0  0  0  0  0  0
   -2.6500   -2.2100   20.3600 C   0  0  0  0  0  0  0  0  0  0  0  0
   -2.4180   -3.5680   20.4920 C   0  0  0  0  0  0  0  0  0  0  0  0
   -2.5960   -0.1390   21.0970 N   0  0  0  0  0  0  0  0  0  0  0  0
   -0.9250    1.5590   21.9580 C   0  0  0  0  0  0  0  0  0  0  0  0
   -1.7540   -1.8820   22.5160 N   0  0  0  0  0  0  0  0  0  0  0  0
   -1.8970   -4.0760   21.6350 N   0  0  0  0  0  0  0  0  0  0  0  0
   -1.0740   -3.6730   23.7970 O   0  0  0  0  0  0  0  0  0  0  0  0
   -2.5200   -3.7520   25.9210 F   0  0  0  0  0  0  0  0  0  0  0  0
   -1.3210   -1.9780   27.0020 C   0  0  0  0  0  0  0  0  0  0  0  0
   -0.2840   -1.0530   26.9080 C   0  0  0  0  0  0  0  0  0  0  0  0
    0.2570   -1.8590   24.7170 C   0  0  0  0  0  0  0  0  0  0  0  0
    0.9590   -1.8610   23.5860 F   0  0  0  0  0  0  0  0  0  0  0  0
   -2.9494    1.8972   21.4960 H   0  0  0  0  0  0  0  0  0  0  0  0
   -3.3757    1.7728   19.5618 H   0  0  0  0  0  0  0  0  0  0  0  0
    1.3483   -0.2451   25.7001 H   0  0  0  0  0  0  0  0  0  0  0  0
   -2.2126    1.1222   24.0952 H   0  0  0  0  0  0  0  0  0  0  0  0
   -3.8192    1.6116   23.4581 H   0  0  0  0  0  0  0  0  0  0  0  0
   -3.3426   -0.1203   23.4581 H   0  0  0  0  0  0  0  0  0  0  0  0
   -6.9132   -0.3956   16.2914 H   0  0  0  0  0  0  0  0  0  0  0  0
   -5.5514    0.3410   14.3075 H   0  0  0  0  0  0  0  0  0  0  0  0
   -3.2967    1.3223   14.6104 H   0  0  0  0  0  0  0  0  0  0  0  0
   -2.2879    1.4974   16.8784 H   0  0  0  0  0  0  0  0  0  0  0  0
   -2.6597   -4.2436   19.6583 H   0  0  0  0  0  0  0  0  0  0  0  0
   -0.5763    1.6747   22.9949 H   0  0  0  0  0  0  0  0  0  0  0  0
   -0.2945    0.8219   21.4392 H   0  0  0  0  0  0  0  0  0  0  0  0
   -0.8601    2.5268   21.4392 H   0  0  0  0  0  0  0  0  0  0  0  0
   -1.9516   -2.0177   27.9024 H   0  0  0  0  0  0  0  0  0  0  0  0
   -0.0975   -0.3678   27.7480 H   0  0  0  0  0  0  0  0  0  0  0  0
  1 22  2  0
  1 23  1  0
  1 24  1  0
  2 18  2  0
  2 20  1  0
  2 22  1  0
  3  9  1  0
  3 20  1  0
  3 21  1  0
  4  5  1  0
  4 17  2  0
  4 20  1  0
  5 16  1  0
  6  7  2  0
  6 24  1  0
  6 28  1  0
  7 25  1  0
  7 26  1  0
  8 27  1  0
  8 28  2  0
 10 11  1  0
 11 12  2  0
 11 16  1  0
 12 13  1  0
 13 14  2  0
 14 15  1  0
 15 16  2  0
 17 18  1  0
 18 19  1  0
 19 23  2  0
 26 27  2  0
 28 29  1  0
  3 30  1  0
  5 31  1  0
  8 32  1  0
  9 33  1  0
  9 34  1  0
  9 35  1  0
 12 36  1  0
 13 37  1  0
 14 38  1  0
 15 39  1  0
 19 40  1  0
 21 41  1  0
 21 42  1  0
 21 43  1  0
 26 44  1  0
 27 45  1  0
A    1
C5
A    2
C6
A    3
C7
A    4
C10
A    5
N12
A    6
C13
A    7
C15
A    8
C17
A    9
C26
A   10
F40
A   11
C36
A   12
C39
A   13
C35
A   14
C38
A   15
C37
A   16
C34
A   17
N11
A   18
C3
A   19
C1
A   20
N8
A   21
C25
A   22
N2
A   23
N4
A   24
O9
A   25
F19
A   26
C18
A   27
C14
A   28
C16
A   29
F20
M  END
