1C27_NLP_A_300
     RDKit          3D

 24 23  0  0  0  0  0  0  0  0999 V2000
   20.3340  -15.2650    9.2340 N   0  0  0  0  0  0  0  0  0  0  0  0
   20.8950  -13.9080    8.8830 C   0  0  0  0  0  0  0  0  0  0  0  0
   22.2400  -14.0100    8.1620 C   0  0  0  0  0  0  0  0  0  0  0  0
   23.5040  -14.1630    9.1070 C   0  0  0  0  0  0  0  0  0  0  0  0
   24.7730  -13.5860    8.4590 C   0  0  0  0  0  0  0  0  0  0  0  0
   25.8620  -14.4820    9.0800 C   0  0  0  0  0  0  0  0  0  0  0  0
   19.7920  -13.0050    7.8390 P   0  0  0  0  0  0  0  0  0  0  0  0
   18.3240  -13.1610    8.4490 O   0  0  0  0  0  0  0  0  0  0  0  0
   19.9080  -13.5830    6.3490 O   0  0  0  0  0  0  0  0  0  0  0  0
   20.1260  -11.4650    7.8850 O   0  0  0  0  0  0  0  0  0  0  0  0
   20.2927  -15.3650   10.2583 H   0  0  0  0  0  0  0  0  0  0  0  0
   19.3861  -15.3566    8.8416 H   0  0  0  0  0  0  0  0  0  0  0  0
   21.0294  -13.3836    9.8406 H   0  0  0  0  0  0  0  0  0  0  0  0
   22.2041  -14.8859    7.4976 H   0  0  0  0  0  0  0  0  0  0  0  0
   22.3724  -13.0576    7.6278 H   0  0  0  0  0  0  0  0  0  0  0  0
   23.3110  -13.6294   10.0493 H   0  0  0  0  0  0  0  0  0  0  0  0
   23.6689  -15.2355    9.2873 H   0  0  0  0  0  0  0  0  0  0  0  0
   24.7465  -13.6845    7.3637 H   0  0  0  0  0  0  0  0  0  0  0  0
   24.9199  -12.5101    8.6350 H   0  0  0  0  0  0  0  0  0  0  0  0
   25.7984  -14.4297   10.1769 H   0  0  0  0  0  0  0  0  0  0  0  0
   25.7119  -15.5215    8.7532 H   0  0  0  0  0  0  0  0  0  0  0  0
   26.8532  -14.1344    8.7532 H   0  0  0  0  0  0  0  0  0  0  0  0
   20.1027  -14.5530    6.3855 H   0  0  0  0  0  0  0  0  0  0  0  0
   20.1901  -11.1693    8.8276 H   0  0  0  0  0  0  0  0  0  0  0  0
  1  2  1  0
  2  3  1  0
  2  7  1  0
  3  4  1  0
  4  5  1  0
  5  6  1  0
  7  8  2  0
  7  9  1  0
  7 10  1  0
  1 11  1  0
  1 12  1  0
  2 13  1  0
  3 14  1  0
  3 15  1  0
  4 16  1  0
  4 17  1  0
  5 18  1  0
  5 19  1  0
  6 20  1  0
  6 21  1  0
  6 22  1  0
  9 23  1  0
 10 24  1  0
A    1
N
A    2
CA
A    3
CB
A    4
CG
A    5
CD
A    6
CE
A    7
P
A    8
O1
A    9
O2
A   10
O3
M  END
