2GU8_796_A_1001
     RDKit          3D

 47 49  0  0  0  0  0  0  0  0999 V2000
   -9.6900   -9.2610    0.6840 O   0  0  0  0  0  0  0  0  0  0  0  0
  -10.0940   -9.5220    1.8320 C   0  0  0  0  0  0  0  0  0  0  0  0
   -9.1420   -9.7940    2.9270 C   0  0  0  0  0  0  0  0  0  0  0  0
   -7.4760   -9.9170    2.3660 S   0  0  0  0  0  0  0  0  0  0  0  0
   -9.2430  -10.0010    4.2890 C   0  0  0  0  0  0  0  0  0  0  0  0
   -8.0150  -10.2540    4.9150 C   0  0  0  0  0  0  0  0  0  0  0  0
   -6.9350  -10.2680    4.0330 C   0  0  0  0  0  0  0  0  0  0  0  0
   -5.4560  -10.3730    4.2130 C   0  0  0  0  0  0  0  0  0  0  0  0
   -4.8850  -10.4440    5.4910 C   0  0  0  0  0  0  0  0  0  0  0  0
   -4.6670  -10.2940    3.1150 N   0  0  0  0  0  0  0  0  0  0  0  0
   -3.3130  -10.3060    3.2990 C   0  0  0  0  0  0  0  0  0  0  0  0
   -2.5670  -10.2390    2.2320 N   0  0  0  0  0  0  0  0  0  0  0  0
   -3.2340   -9.9220    0.9880 C   0  0  0  0  0  0  0  0  0  0  0  0
   -2.7590  -10.4040    4.5180 N   0  0  0  0  0  0  0  0  0  0  0  0
   -3.4870  -10.4710    5.6370 C   0  0  0  0  0  0  0  0  0  0  0  0
  -11.3640   -9.5860    2.2010 N   0  0  0  0  0  0  0  0  0  0  0  0
  -12.3920   -8.9870    1.3750 C   0  0  0  0  0  0  0  0  0  0  0  0
  -12.5970   -7.5230    1.7500 C   0  0  0  0  0  0  0  0  0  0  0  0
  -13.3690   -6.7970    0.7530 N   0  0  0  0  0  0  0  0  0  0  0  0
  -13.5920   -9.8620    1.6990 C   0  0  0  0  0  0  0  0  0  0  0  0
  -13.4750  -11.1960    0.9510 C   0  0  0  0  0  0  0  0  0  0  0  0
  -13.8750  -11.3060   -0.3710 C   0  0  0  0  0  0  0  0  0  0  0  0
  -13.7900  -12.5400   -1.0330 C   0  0  0  0  0  0  0  0  0  0  0  0
  -13.3070  -13.6450   -0.3650 C   0  0  0  0  0  0  0  0  0  0  0  0
  -13.1680  -15.2310   -1.1410 Cl  0  0  0  0  0  0  0  0  0  0  0  0
  -12.8850  -13.5670    0.9220 C   0  0  0  0  0  0  0  0  0  0  0  0
  -12.9660  -12.3430    1.5530 C   0  0  0  0  0  0  0  0  0  0  0  0
  -12.4060  -12.3460    3.2400 Cl  0  0  0  0  0  0  0  0  0  0  0  0
  -10.1991   -9.9701    4.8321 H   0  0  0  0  0  0  0  0  0  0  0  0
   -7.9130  -10.4249    5.9968 H   0  0  0  0  0  0  0  0  0  0  0  0
   -5.5312  -10.4786    6.3805 H   0  0  0  0  0  0  0  0  0  0  0  0
   -1.5511  -10.4039    2.2727 H   0  0  0  0  0  0  0  0  0  0  0  0
   -4.2085   -9.4589    1.2021 H   0  0  0  0  0  0  0  0  0  0  0  0
   -2.6148   -9.2219    0.4080 H   0  0  0  0  0  0  0  0  0  0  0  0
   -3.3859  -10.8442    0.4080 H   0  0  0  0  0  0  0  0  0  0  0  0
   -3.0137  -10.5440    6.6273 H   0  0  0  0  0  0  0  0  0  0  0  0
  -11.6214  -10.0626    3.0771 H   0  0  0  0  0  0  0  0  0  0  0  0
  -12.1681   -8.9564    0.2985 H   0  0  0  0  0  0  0  0  0  0  0  0
  -13.1291   -7.4760    2.7116 H   0  0  0  0  0  0  0  0  0  0  0  0
  -11.6052   -7.0516    1.8142 H   0  0  0  0  0  0  0  0  0  0  0  0
  -14.0359   -6.1698    1.2250 H   0  0  0  0  0  0  0  0  0  0  0  0
  -12.7327   -6.2410    0.1641 H   0  0  0  0  0  0  0  0  0  0  0  0
  -13.6247  -10.0515    2.7821 H   0  0  0  0  0  0  0  0  0  0  0  0
  -14.5130   -9.3482    1.3863 H   0  0  0  0  0  0  0  0  0  0  0  0
  -14.2602  -10.4235   -0.9028 H   0  0  0  0  0  0  0  0  0  0  0  0
  -14.1080  -12.6256   -2.0825 H   0  0  0  0  0  0  0  0  0  0  0  0
  -12.4912  -14.4508    1.4452 H   0  0  0  0  0  0  0  0  0  0  0  0
  1  2  2  0
  2  3  1  0
  2 16  1  0
  3  4  1  0
  3  5  2  0
  4  7  1  0
  5  6  1  0
  6  7  2  0
  7  8  1  0
  8  9  2  0
  8 10  1  0
  9 15  1  0
 10 11  2  0
 11 12  1  0
 11 14  1  0
 12 13  1  0
 14 15  2  0
 16 17  1  0
 17 18  1  0
 17 20  1  0
 18 19  1  0
 20 21  1  0
 21 22  2  0
 21 27  1  0
 22 23  1  0
 23 24  2  0
 24 25  1  0
 24 26  1  0
 26 27  2  0
 27 28  1  0
  5 29  1  0
  6 30  1  0
  9 31  1  0
 12 32  1  0
 13 33  1  0
 13 34  1  0
 13 35  1  0
 15 36  1  0
 16 37  1  0
 17 38  1  0
 18 39  1  0
 18 40  1  0
 19 41  1  0
 19 42  1  0
 20 43  1  0
 20 44  1  0
 22 45  1  0
 23 46  1  0
 26 47  1  0
A    1
O23
A    2
C22
A    3
C18
A    4
S1
A    5
C17
A    6
C16
A    7
C15
A    8
C3
A    9
C2
A   10
N4
A   11
C5
A   12
N9
A   13
C10
A   14
N6
A   15
C1
A   16
N24
A   17
C25
A   18
C27
A   19
N43
A   20
C28
A   21
C30
A   22
C37
A   23
C36
A   24
C35
A   25
CL4
A   26
C34
A   27
C33
A   28
CL2
M  END
