2GV6_730_A_1
     RDKit          3D

 74 77  0  0  0  0  0  0  0  0999 V2000
   18.5000   64.1160   28.8110 S   0  0  0  0  0  0  0  0  0  0  0  0
   18.2950   63.4140   30.0570 O   0  0  0  0  0  0  0  0  0  0  0  0
   19.7530   64.8440   28.6360 O   0  0  0  0  0  0  0  0  0  0  0  0
   18.3320   63.0850   27.6160 N   0  0  0  0  0  0  0  0  0  0  0  0
   18.3940   63.4390   26.2220 C   0  0  0  0  0  0  0  0  0  0  0  0
   17.0350   63.0600   25.5950 C   0  0  0  0  0  0  0  0  0  0  0  0
   16.4110   63.7080   24.5120 N   0  0  0  0  0  0  0  0  0  0  0  0
   15.1150   63.1700   24.0230 C   0  0  0  0  0  0  0  0  0  0  0  0
   14.0500   64.2960   23.8850 C   0  0  0  0  0  0  0  0  0  0  0  0
   14.5530   65.6660   24.4040 C   0  0  0  0  0  0  0  0  0  0  0  0
   13.4180   66.7690   24.2700 C   0  0  0  0  0  0  0  0  0  0  0  0
   13.5250   67.8710   23.1550 C   0  0  0  0  0  0  0  0  0  0  0  0
   12.3330   68.7720   23.1870 N   0  0  0  0  0  0  0  0  0  0  0  0
   12.1240   69.8150   22.3640 C   0  0  0  0  0  0  0  0  0  0  0  0
   11.0110   70.5200   22.5010 N   0  0  0  0  0  0  0  0  0  0  0  0
   12.9730   70.1780   21.4220 N   0  0  0  0  0  0  0  0  0  0  0  0
   15.8930   66.0260   23.6570 C   0  0  0  0  0  0  0  0  0  0  0  0
   16.9920   64.8910   23.8180 C   0  0  0  0  0  0  0  0  0  0  0  0
   16.5000   62.0790   26.1410 O   0  0  0  0  0  0  0  0  0  0  0  0
   19.5480   62.8090   25.3560 C   0  0  0  0  0  0  0  0  0  0  0  0
   19.4040   61.3250   24.9740 C   0  0  0  0  0  0  0  0  0  0  0  0
   19.9150   60.2860   25.8220 C   0  0  0  0  0  0  0  0  0  0  0  0
   19.7750   58.9090   25.4620 C   0  0  0  0  0  0  0  0  0  0  0  0
   20.3190   57.8180   26.3490 C   0  0  0  0  0  0  0  0  0  0  0  0
   20.7730   58.1080   27.5460 N   0  0  0  0  0  0  0  0  0  0  0  0
   20.3360   56.5860   25.9180 N   0  0  0  0  0  0  0  0  0  0  0  0
   19.1120   58.5790   24.2400 C   0  0  0  0  0  0  0  0  0  0  0  0
   18.6030   59.5940   23.3920 C   0  0  0  0  0  0  0  0  0  0  0  0
   18.7470   60.9560   23.7510 C   0  0  0  0  0  0  0  0  0  0  0  0
   17.1400   65.2220   28.5100 C   0  0  0  0  0  0  0  0  0  0  0  0
   15.7870   64.7850   28.6180 C   0  0  0  0  0  0  0  0  0  0  0  0
   14.7200   65.6980   28.3440 C   0  0  0  0  0  0  0  0  0  0  0  0
   15.0070   67.0450   27.9590 C   0  0  0  0  0  0  0  0  0  0  0  0
   13.9580   67.9680   27.6780 C   0  0  0  0  0  0  0  0  0  0  0  0
   14.2660   69.3070   27.2930 C   0  0  0  0  0  0  0  0  0  0  0  0
   15.6240   69.7320   27.1910 C   0  0  0  0  0  0  0  0  0  0  0  0
   16.6760   68.8210   27.4680 C   0  0  0  0  0  0  0  0  0  0  0  0
   16.3810   67.4790   27.8520 C   0  0  0  0  0  0  0  0  0  0  0  0
   17.4250   66.5680   28.1250 C   0  0  0  0  0  0  0  0  0  0  0  0
   19.0668   62.3767   27.7553 H   0  0  0  0  0  0  0  0  0  0  0  0
   18.6236   64.5147   26.2073 H   0  0  0  0  0  0  0  0  0  0  0  0
   15.2699   62.7012   23.0400 H   0  0  0  0  0  0  0  0  0  0  0  0
   14.7480   62.4332   24.7527 H   0  0  0  0  0  0  0  0  0  0  0  0
   13.7834   64.3991   22.8228 H   0  0  0  0  0  0  0  0  0  0  0  0
   13.1830   64.0082   24.4977 H   0  0  0  0  0  0  0  0  0  0  0  0
   14.7804   65.6198   25.4792 H   0  0  0  0  0  0  0  0  0  0  0  0
   12.4727   66.2334   24.0983 H   0  0  0  0  0  0  0  0  0  0  0  0
   13.5097   67.3428   25.2040 H   0  0  0  0  0  0  0  0  0  0  0  0
   14.4335   68.4679   23.3232 H   0  0  0  0  0  0  0  0  0  0  0  0
   13.5692   67.3775   22.1729 H   0  0  0  0  0  0  0  0  0  0  0  0
   11.6127   68.5784   23.8974 H   0  0  0  0  0  0  0  0  0  0  0  0
   10.8304   71.3229   21.8816 H   0  0  0  0  0  0  0  0  0  0  0  0
   13.8902   70.5702   21.6786 H   0  0  0  0  0  0  0  0  0  0  0  0
   12.7187   70.0693   20.4298 H   0  0  0  0  0  0  0  0  0  0  0  0
   15.6770   66.1609   22.5869 H   0  0  0  0  0  0  0  0  0  0  0  0
   16.2918   66.9486   24.1039 H   0  0  0  0  0  0  0  0  0  0  0  0
   17.8340   65.2815   24.4084 H   0  0  0  0  0  0  0  0  0  0  0  0
   17.3423   64.5862   22.8208 H   0  0  0  0  0  0  0  0  0  0  0  0
   19.6158   63.3869   24.4225 H   0  0  0  0  0  0  0  0  0  0  0  0
   20.4422   62.8541   25.9951 H   0  0  0  0  0  0  0  0  0  0  0  0
   20.4212   60.5524   26.7616 H   0  0  0  0  0  0  0  0  0  0  0  0
   21.1443   57.3615   28.1508 H   0  0  0  0  0  0  0  0  0  0  0  0
   20.3468   55.8054   26.5899 H   0  0  0  0  0  0  0  0  0  0  0  0
   20.3386   56.3944   24.9060 H   0  0  0  0  0  0  0  0  0  0  0  0
   18.9952   57.5233   23.9537 H   0  0  0  0  0  0  0  0  0  0  0  0
   18.0957   59.3235   22.4542 H   0  0  0  0  0  0  0  0  0  0  0  0
   18.3520   61.7391   23.0871 H   0  0  0  0  0  0  0  0  0  0  0  0
   15.5641   63.7485   28.9112 H   0  0  0  0  0  0  0  0  0  0  0  0
   13.6758   65.3628   28.4297 H   0  0  0  0  0  0  0  0  0  0  0  0
   12.9088   67.6475   27.7581 H   0  0  0  0  0  0  0  0  0  0  0  0
   13.4528   70.0146   27.0739 H   0  0  0  0  0  0  0  0  0  0  0  0
   15.8557   70.7665   26.8975 H   0  0  0  0  0  0  0  0  0  0  0  0
   17.7223   69.1505   27.3864 H   0  0  0  0  0  0  0  0  0  0  0  0
   18.4706   66.8989   28.0402 H   0  0  0  0  0  0  0  0  0  0  0  0
  1  2  2  0
  1  3  2  0
  1  4  1  0
  1 30  1  0
  4  5  1  0
  5  6  1  0
  5 20  1  0
  6  7  1  0
  6 19  2  0
  7  8  1  0
  7 18  1  0
  8  9  1  0
  9 10  1  0
 10 11  1  0
 10 17  1  0
 11 12  1  0
 12 13  1  0
 13 14  1  0
 14 15  2  3
 14 16  1  0
 17 18  1  0
 20 21  1  0
 21 22  2  0
 21 29  1  0
 22 23  1  0
 23 24  1  0
 23 27  2  0
 24 25  2  3
 24 26  1  0
 27 28  1  0
 28 29  2  0
 30 31  2  0
 30 39  1  0
 31 32  1  0
 32 33  2  0
 33 34  1  0
 33 38  1  0
 34 35  2  0
 35 36  1  0
 36 37  2  0
 37 38  1  0
 38 39  2  0
  4 40  1  0
  5 41  1  0
  8 42  1  0
  8 43  1  0
  9 44  1  0
  9 45  1  0
 10 46  1  0
 11 47  1  0
 11 48  1  0
 12 49  1  0
 12 50  1  0
 13 51  1  0
 15 52  1  0
 16 53  1  0
 16 54  1  0
 17 55  1  0
 17 56  1  0
 18 57  1  0
 18 58  1  0
 20 59  1  0
 20 60  1  0
 22 61  1  0
 25 62  1  0
 26 63  1  0
 26 64  1  0
 27 65  1  0
 28 66  1  0
 29 67  1  0
 31 68  1  0
 32 69  1  0
 34 70  1  0
 35 71  1  0
 36 72  1  0
 37 73  1  0
 39 74  1  0
A    1
S1
A    2
O39
A    3
O38
A    4
N12
A    5
C13
A    6
C24
A    7
N26
A    8
C31
A    9
C30
A   10
C29
A   11
C32
A   12
C33
A   13
N34
A   14
C35
A   15
N37
A   16
N36
A   17
C28
A   18
C27
A   19
O25
A   20
C14
A   21
C15
A   22
C20
A   23
C19
A   24
C21
A   25
N23
A   26
N22
A   27
C18
A   28
C17
A   29
C16
A   30
C2
A   31
C7
A   32
C6
A   33
C5
A   34
C11
A   35
C10
A   36
C9
A   37
C8
A   38
C4
A   39
C3
M  END
