2GV7_672_A_245
     RDKit          3D

103106  0  0  0  0  0  0  0  0999 V2000
   13.2860   67.7070   27.4180 C   0  0  0  0  0  0  0  0  0  0  0  0
   13.5330   69.2330   27.4640 C   0  0  0  0  0  0  0  0  0  0  0  0
   14.6020   66.9120   27.5460 C   0  0  0  0  0  0  0  0  0  0  0  0
   14.5800   65.6700   28.2110 C   0  0  0  0  0  0  0  0  0  0  0  0
   15.7570   64.8720   28.3680 C   0  0  0  0  0  0  0  0  0  0  0  0
   15.6410   63.5290   29.1150 C   0  0  0  0  0  0  0  0  0  0  0  0
   14.3740   62.7220   28.7290 C   0  0  0  0  0  0  0  0  0  0  0  0
   15.6630   63.7950   30.6460 C   0  0  0  0  0  0  0  0  0  0  0  0
   17.0210   65.3370   27.8400 C   0  0  0  0  0  0  0  0  0  0  0  0
   18.5490   64.3310   28.0320 S   0  0  0  0  0  0  0  0  0  0  0  0
   18.3240   63.0430   27.0200 N   0  0  0  0  0  0  0  0  0  0  0  0
   17.9920   63.3230   25.6170 C   0  0  0  0  0  0  0  0  0  0  0  0
   19.0940   62.7470   24.6740 C   0  0  0  0  0  0  0  0  0  0  0  0
   18.9320   61.2500   24.3530 C   0  0  0  0  0  0  0  0  0  0  0  0
   19.5890   60.2850   25.1810 C   0  0  0  0  0  0  0  0  0  0  0  0
   19.4440   58.8960   24.9150 C   0  0  0  0  0  0  0  0  0  0  0  0
   20.1000   57.9320   25.7230 C   0  0  0  0  0  0  0  0  0  0  0  0
   20.0620   56.6140   25.4020 N   0  0  0  0  0  0  0  0  0  0  0  0
   20.7970   58.3000   26.8070 N   0  0  0  0  0  0  0  0  0  0  0  0
   18.6270   58.4870   23.8090 C   0  0  0  0  0  0  0  0  0  0  0  0
   17.9770   59.4390   22.9820 C   0  0  0  0  0  0  0  0  0  0  0  0
   18.1260   60.8180   23.2430 C   0  0  0  0  0  0  0  0  0  0  0  0
   16.6060   62.7970   25.3360 C   0  0  0  0  0  0  0  0  0  0  0  0
   15.7050   63.4740   24.3220 N   0  0  0  0  0  0  0  0  0  0  0  0
   16.2330   64.6340   23.6370 C   0  0  0  0  0  0  0  0  0  0  0  0
   15.1220   65.7200   23.4970 C   0  0  0  0  0  0  0  0  0  0  0  0
   13.7970   65.1170   23.6210 N   0  0  0  0  0  0  0  0  0  0  0  0
   12.7070   65.7180   22.8210 C   0  0  0  0  0  0  0  0  0  0  0  0
   12.9730   66.9540   21.9940 C   0  0  0  0  0  0  0  0  0  0  0  0
   13.0840   66.5060   20.5020 C   0  0  0  0  0  0  0  0  0  0  0  0
   13.2510   67.7160   19.5630 C   0  0  0  0  0  0  0  0  0  0  0  0
   12.0780   68.6850   19.8440 N   0  0  0  0  0  0  0  0  0  0  0  0
   11.1610   68.9890   18.8840 C   0  0  0  0  0  0  0  0  0  0  0  0
   11.3570   68.6040   17.6090 N   0  0  0  0  0  0  0  0  0  0  0  0
   10.0270   69.6620   19.1900 N   0  0  0  0  0  0  0  0  0  0  0  0
   11.9640   69.2320   21.2560 C   0  0  0  0  0  0  0  0  0  0  0  0
   11.8190   68.0190   22.2150 C   0  0  0  0  0  0  0  0  0  0  0  0
   11.5860   65.2140   22.8460 O   0  0  0  0  0  0  0  0  0  0  0  0
   13.3830   63.9740   24.4280 C   0  0  0  0  0  0  0  0  0  0  0  0
   14.3980   62.8590   24.1900 C   0  0  0  0  0  0  0  0  0  0  0  0
   16.2080   61.8010   25.9510 O   0  0  0  0  0  0  0  0  0  0  0  0
   18.6160   63.7980   29.3830 O   0  0  0  0  0  0  0  0  0  0  0  0
   19.7050   65.0690   27.5590 O   0  0  0  0  0  0  0  0  0  0  0  0
   17.0420   66.6290   27.1490 C   0  0  0  0  0  0  0  0  0  0  0  0
   18.3340   67.2300   26.5450 C   0  0  0  0  0  0  0  0  0  0  0  0
   18.8690   68.3860   27.4270 C   0  0  0  0  0  0  0  0  0  0  0  0
   18.1000   67.7630   25.1080 C   0  0  0  0  0  0  0  0  0  0  0  0
   15.8330   67.3840   27.0210 C   0  0  0  0  0  0  0  0  0  0  0  0
   12.5640   67.3620   26.1020 C   0  0  0  0  0  0  0  0  0  0  0  0
   12.6578   67.4213   28.2746 H   0  0  0  0  0  0  0  0  0  0  0  0
   13.5866   69.5643   28.5115 H   0  0  0  0  0  0  0  0  0  0  0  0
   14.4806   69.4665   26.9566 H   0  0  0  0  0  0  0  0  0  0  0  0
   12.7074   69.7535   26.9566 H   0  0  0  0  0  0  0  0  0  0  0  0
   13.6283   65.3025   28.6222 H   0  0  0  0  0  0  0  0  0  0  0  0
   16.5013   62.9114   28.8175 H   0  0  0  0  0  0  0  0  0  0  0  0
   13.8568   62.3926   29.6422 H   0  0  0  0  0  0  0  0  0  0  0  0
   13.7008   63.3581   28.1355 H   0  0  0  0  0  0  0  0  0  0  0  0
   14.6658   61.8430   28.1355 H   0  0  0  0  0  0  0  0  0  0  0  0
   15.5840   62.8396   31.1853 H   0  0  0  0  0  0  0  0  0  0  0  0
   16.6054   64.2928   30.9182 H   0  0  0  0  0  0  0  0  0  0  0  0
   14.8152   64.4409   30.9182 H   0  0  0  0  0  0  0  0  0  0  0  0
   19.1945   62.4925   27.0255 H   0  0  0  0  0  0  0  0  0  0  0  0
   17.9758   64.4052   25.4207 H   0  0  0  0  0  0  0  0  0  0  0  0
   19.0657   63.3075   23.7279 H   0  0  0  0  0  0  0  0  0  0  0  0
   20.0514   62.8542   25.2050 H   0  0  0  0  0  0  0  0  0  0  0  0
   20.2084   60.6193   26.0263 H   0  0  0  0  0  0  0  0  0  0  0  0
   20.0415   55.9029   26.1469 H   0  0  0  0  0  0  0  0  0  0  0  0
   20.0537   56.3247   24.4135 H   0  0  0  0  0  0  0  0  0  0  0  0
   21.2675   57.5875   27.3831 H   0  0  0  0  0  0  0  0  0  0  0  0
   18.5021   57.4147   23.5981 H   0  0  0  0  0  0  0  0  0  0  0  0
   17.3572   59.1025   22.1378 H   0  0  0  0  0  0  0  0  0  0  0  0
   17.6279   61.5589   22.6004 H   0  0  0  0  0  0  0  0  0  0  0  0
   17.0749   65.0457   24.2130 H   0  0  0  0  0  0  0  0  0  0  0  0
   16.5773   64.3372   22.6353 H   0  0  0  0  0  0  0  0  0  0  0  0
   15.2517   66.4742   24.2872 H   0  0  0  0  0  0  0  0  0  0  0  0
   15.2072   66.1898   22.5060 H   0  0  0  0  0  0  0  0  0  0  0  0
   13.9111   67.4423   22.2966 H   0  0  0  0  0  0  0  0  0  0  0  0
   13.9553   65.8438   20.3910 H   0  0  0  0  0  0  0  0  0  0  0  0
   12.1572   65.9805   20.2283 H   0  0  0  0  0  0  0  0  0  0  0  0
   14.2093   68.2177   19.7630 H   0  0  0  0  0  0  0  0  0  0  0  0
   13.2460   67.3948   18.5109 H   0  0  0  0  0  0  0  0  0  0  0  0
   11.8153   67.7038   17.4075 H   0  0  0  0  0  0  0  0  0  0  0  0
   11.0487   69.2096   16.8350 H   0  0  0  0  0  0  0  0  0  0  0  0
    9.3443   69.8835   18.4512 H   0  0  0  0  0  0  0  0  0  0  0  0
   12.8669   69.8064   21.5105 H   0  0  0  0  0  0  0  0  0  0  0  0
   11.0958   69.9017   21.3436 H   0  0  0  0  0  0  0  0  0  0  0  0
   10.8480   67.5351   22.0332 H   0  0  0  0  0  0  0  0  0  0  0  0
   11.8881   68.3893   23.2485 H   0  0  0  0  0  0  0  0  0  0  0  0
   13.3697   64.2500   25.4927 H   0  0  0  0  0  0  0  0  0  0  0  0
   12.3711   63.6458   24.1482 H   0  0  0  0  0  0  0  0  0  0  0  0
   14.2738   62.4378   23.1815 H   0  0  0  0  0  0  0  0  0  0  0  0
   14.2663   62.0344   24.9060 H   0  0  0  0  0  0  0  0  0  0  0  0
   19.0752   66.4181   26.5072 H   0  0  0  0  0  0  0  0  0  0  0  0
   18.7476   68.1238   28.4884 H   0  0  0  0  0  0  0  0  0  0  0  0
   19.9347   68.5502   27.2094 H   0  0  0  0  0  0  0  0  0  0  0  0
   18.3045   69.3047   27.2094 H   0  0  0  0  0  0  0  0  0  0  0  0
   17.6583   68.7692   25.1575 H   0  0  0  0  0  0  0  0  0  0  0  0
   19.0602   67.8100   24.5735 H   0  0  0  0  0  0  0  0  0  0  0  0
   17.4155   67.0879   24.5735 H   0  0  0  0  0  0  0  0  0  0  0  0
   15.8586   68.3540   26.5029 H   0  0  0  0  0  0  0  0  0  0  0  0
   11.5926   66.8978   26.3275 H   0  0  0  0  0  0  0  0  0  0  0  0
   12.4047   68.2813   25.5193 H   0  0  0  0  0  0  0  0  0  0  0  0
   13.1791   66.6605   25.5193 H   0  0  0  0  0  0  0  0  0  0  0  0
  1  2  1  0
  1  3  1  0
  1 49  1  0
  3  4  2  0
  3 48  1  0
  4  5  1  0
  5  6  1  0
  5  9  2  0
  6  7  1  0
  6  8  1  0
  9 10  1  0
  9 44  1  0
 10 11  1  0
 10 42  2  0
 10 43  2  0
 11 12  1  0
 12 13  1  0
 12 23  1  0
 13 14  1  0
 14 15  2  0
 14 22  1  0
 15 16  1  0
 16 17  1  0
 16 20  2  0
 17 18  1  0
 17 19  2  3
 20 21  1  0
 21 22  2  0
 23 24  1  0
 23 41  2  0
 24 25  1  0
 24 40  1  0
 25 26  1  0
 26 27  1  0
 27 28  1  0
 27 39  1  0
 28 29  1  0
 28 38  2  0
 29 30  1  0
 29 37  1  0
 30 31  1  0
 31 32  1  0
 32 33  1  0
 32 36  1  0
 33 34  1  0
 33 35  2  3
 36 37  1  0
 39 40  1  0
 44 45  1  0
 44 48  2  0
 45 46  1  0
 45 47  1  0
  1 50  1  0
  2 51  1  0
  2 52  1  0
  2 53  1  0
  4 54  1  0
  6 55  1  0
  7 56  1  0
  7 57  1  0
  7 58  1  0
  8 59  1  0
  8 60  1  0
  8 61  1  0
 11 62  1  0
 12 63  1  0
 13 64  1  0
 13 65  1  0
 15 66  1  0
 18 67  1  0
 18 68  1  0
 19 69  1  0
 20 70  1  0
 21 71  1  0
 22 72  1  0
 25 73  1  0
 25 74  1  0
 26 75  1  0
 26 76  1  0
 29 77  1  0
 30 78  1  0
 30 79  1  0
 31 80  1  0
 31 81  1  0
 34 82  1  0
 34 83  1  0
 35 84  1  0
 36 85  1  0
 36 86  1  0
 37 87  1  0
 37 88  1  0
 39 89  1  0
 39 90  1  0
 40 91  1  0
 40 92  1  0
 45 93  1  0
 46 94  1  0
 46 95  1  0
 46 96  1  0
 47 97  1  0
 47 98  1  0
 47 99  1  0
 48100  1  0
 49101  1  0
 49102  1  0
 49103  1  0
A    1
C2
A    2
C4
A    3
C3
A    4
C9
A    5
C8
A    6
C13
A    7
C15
A    8
C14
A    9
C7
A   10
S16
A   11
N19
A   12
C20
A   13
C23
A   14
C24
A   15
C29
A   16
C28
A   17
C30
A   18
N32
A   19
N31
A   20
C27
A   21
C26
A   22
C25
A   23
C21
A   24
N33
A   25
C38
A   26
C37
A   27
N36
A   28
C39
A   29
C41
A   30
C46
A   31
C45
A   32
N44
A   33
C47
A   34
N49
A   35
N48
A   36
C43
A   37
C42
A   38
O40
A   39
C35
A   40
C34
A   41
O22
A   42
O18
A   43
O17
A   44
C6
A   45
C10
A   46
C12
A   47
C11
A   48
C5
A   49
C1
M  END
