2GWC_BSC_A_2
     RDKit          3D

 34 33  0  0  0  0  0  0  0  0999 V2000
   34.4830   21.8730   43.8880 C   0  0  0  0  0  0  0  0  0  0  0  0
   34.9480   21.6420   42.4500 C   0  0  0  0  0  0  0  0  0  0  0  0
   35.2110   20.1880   42.0890 C   0  0  0  0  0  0  0  0  0  0  0  0
   33.9580   19.3140   42.0430 C   0  0  0  0  0  0  0  0  0  0  0  0
   33.1830   19.0750   40.3970 S   0  0  0  0  0  0  0  0  0  0  0  0
   34.2560   18.8340   39.2890 N   0  0  0  0  0  0  0  0  0  0  0  0
   32.2780   17.9130   40.5610 O   0  0  0  0  0  0  0  0  0  0  0  0
   32.1270   20.5000   40.0460 C   0  0  0  0  0  0  0  0  0  0  0  0
   31.2000   20.3260   38.8950 C   0  0  0  0  0  0  0  0  0  0  0  0
   30.6220   21.6940   38.5890 C   0  0  0  0  0  0  0  0  0  0  0  0
   30.0570   21.5700   37.1920 C   0  0  0  0  0  0  0  0  0  0  0  0
   28.9140   22.0120   37.0280 O   0  0  0  0  0  0  0  0  0  0  0  0
   30.7800   21.0210   36.3270 O   0  0  0  0  0  0  0  0  0  0  0  0
   29.5810   22.0820   39.5710 N   0  0  0  0  0  0  0  0  0  0  0  0
   35.2451   21.4944   44.5851 H   0  0  0  0  0  0  0  0  0  0  0  0
   34.3343   22.9498   44.0568 H   0  0  0  0  0  0  0  0  0  0  0  0
   33.5351   21.3410   44.0568 H   0  0  0  0  0  0  0  0  0  0  0  0
   34.1710   22.0272   41.7733 H   0  0  0  0  0  0  0  0  0  0  0  0
   35.9107   22.1645   42.3488 H   0  0  0  0  0  0  0  0  0  0  0  0
   35.6870   20.1600   41.0977 H   0  0  0  0  0  0  0  0  0  0  0  0
   35.8519   19.7776   42.8832 H   0  0  0  0  0  0  0  0  0  0  0  0
   34.2291   18.3213   42.4315 H   0  0  0  0  0  0  0  0  0  0  0  0
   33.2076   19.8511   42.6417 H   0  0  0  0  0  0  0  0  0  0  0  0
    0.0000    0.0000    0.0000 H   0  0  0  0  0  0  0  0  0  0  0  0
   35.1645   18.6300   39.7294 H   0  0  0  0  0  0  0  0  0  0  0  0
   33.9714   18.0360   38.7033 H   0  0  0  0  0  0  0  0  0  0  0  0
   31.5236   20.7068   40.9422 H   0  0  0  0  0  0  0  0  0  0  0  0
   32.8027   21.3247   39.7753 H   0  0  0  0  0  0  0  0  0  0  0  0
   31.7480   19.9422   38.0218 H   0  0  0  0  0  0  0  0  0  0  0  0
   30.4042   19.6051   39.1339 H   0  0  0  0  0  0  0  0  0  0  0  0
   31.3830   22.4856   38.6546 H   0  0  0  0  0  0  0  0  0  0  0  0
   31.5364   20.4466   36.6062 H   0  0  0  0  0  0  0  0  0  0  0  0
   29.9426   21.9472   40.5260 H   0  0  0  0  0  0  0  0  0  0  0  0
   29.3323   23.0722   39.4346 H   0  0  0  0  0  0  0  0  0  0  0  0
  1  2  1  0
  2  3  1  0
  3  4  1  0
  4  5  1  0
  5  6  1  0
  5  7  2  0
  5  8  1  0
  8  9  1  0
  9 10  1  0
 10 11  1  0
 10 14  1  0
 11 12  2  0
 11 13  1  0
  1 15  1  0
  1 16  1  0
  1 17  1  0
  2 18  1  0
  2 19  1  0
  3 20  1  0
  3 21  1  0
  4 22  1  0
  4 23  1  0
  5 24  1  0
  6 25  1  0
  6 26  1  0
  8 27  1  0
  8 28  1  0
  9 29  1  0
  9 30  1  0
 10 31  1  0
 13 32  1  0
 14 33  1  0
 14 34  1  0
A    1
CAB
A    2
CAC
A    3
CAD
A    4
CAE
A    5
SAF
A    6
NAA
A    7
OAG
A    8
CAH
A    9
CB
A   10
CA
A   11
C
A   12
O
A   13
OXT
A   14
N
M  END
