2GZ7_D3F_A_307
     RDKit          3D

 35 36  0  0  0  0  0  0  0  0999 V2000
  -22.9720  -45.6860    4.9680 C   0  0  0  0  0  0  0  0  0  0  0  0
  -23.3970  -45.4080    3.6950 C   0  0  0  0  0  0  0  0  0  0  0  0
  -24.0820  -44.2520    3.4050 C   0  0  0  0  0  0  0  0  0  0  0  0
  -24.3950  -43.3220    4.3830 C   0  0  0  0  0  0  0  0  0  0  0  0
  -23.9920  -43.6380    5.6900 C   0  0  0  0  0  0  0  0  0  0  0  0
  -23.3000  -44.8010    5.9990 C   0  0  0  0  0  0  0  0  0  0  0  0
  -22.9010  -45.1640    7.4390 C   0  0  0  0  0  0  0  0  0  0  0  0
  -25.2470  -41.8360    4.0400 S   0  0  0  0  0  0  0  0  0  0  0  0
  -26.7040  -42.2010    3.8130 O   0  0  0  0  0  0  0  0  0  0  0  0
  -24.7050  -41.4140    2.6720 O   0  0  0  0  0  0  0  0  0  0  0  0
  -25.1290  -40.4510    5.1270 C   0  0  0  0  0  0  0  0  0  0  0  0
  -25.2910  -40.5770    6.5120 C   0  0  0  0  0  0  0  0  0  0  0  0
  -25.2840  -39.4700    7.3630 C   0  0  0  0  0  0  0  0  0  0  0  0
  -25.1020  -38.1880    6.8510 C   0  0  0  0  0  0  0  0  0  0  0  0
  -24.9200  -38.0480    5.4780 C   0  0  0  0  0  0  0  0  0  0  0  0
  -24.9290  -39.1560    4.6270 C   0  0  0  0  0  0  0  0  0  0  0  0
  -24.7270  -38.9480    3.3210 N   0  0  0  0  0  0  0  0  0  0  0  0
  -25.8380  -38.9730    2.4170 O   0  0  0  0  0  0  0  0  0  0  0  0
  -23.4020  -38.6880    2.8340 O   0  0  0  0  0  0  0  0  0  0  0  0
  -25.0800  -36.9690    7.7920 C   0  0  0  0  0  0  0  0  0  0  0  0
  -24.7940  -35.8630    7.0910 F   0  0  0  0  0  0  0  0  0  0  0  0
  -26.2530  -36.8170    8.4450 F   0  0  0  0  0  0  0  0  0  0  0  0
  -24.1150  -37.1370    8.7080 F   0  0  0  0  0  0  0  0  0  0  0  0
  -25.4380  -41.7700    7.0830 N   0  0  0  0  0  0  0  0  0  0  0  0
  -26.6830  -42.4590    6.9510 O   0  0  0  0  0  0  0  0  0  0  0  0
  -24.3480  -42.3630    7.7950 O   0  0  0  0  0  0  0  0  0  0  0  0
  -24.8170  -43.8210    2.1090 Cl  0  0  0  0  0  0  0  0  0  0  0  0
  -22.0230  -47.0860    5.2810 Cl  0  0  0  0  0  0  0  0  0  0  0  0
  -23.1855  -46.1252    2.8882 H   0  0  0  0  0  0  0  0  0  0  0  0
  -24.2342  -42.9361    6.5016 H   0  0  0  0  0  0  0  0  0  0  0  0
  -23.5242  -44.5970    8.1462 H   0  0  0  0  0  0  0  0  0  0  0  0
  -23.0511  -46.2417    7.6005 H   0  0  0  0  0  0  0  0  0  0  0  0
  -21.8423  -44.9130    7.6005 H   0  0  0  0  0  0  0  0  0  0  0  0
  -25.4232  -39.6116    8.4449 H   0  0  0  0  0  0  0  0  0  0  0  0
  -24.7660  -37.0446    5.0545 H   0  0  0  0  0  0  0  0  0  0  0  0
  1  2  2  0
  1  6  1  0
  1 28  1  0
  2  3  1  0
  3  4  2  0
  3 27  1  0
  4  5  1  0
  4  8  1  0
  5  6  2  0
  6  7  1  0
  8  9  2  0
  8 10  2  0
  8 11  1  0
 11 12  2  0
 11 16  1  0
 12 13  1  0
 12 24  1  0
 13 14  2  0
 14 15  1  0
 14 20  1  0
 15 16  2  0
 16 17  1  0
 17 18  1  0
 17 19  2  0
 20 21  1  0
 20 22  1  0
 20 23  1  0
 24 25  1  0
 24 26  2  0
  2 29  1  0
  5 30  1  0
  7 31  1  0
  7 32  1  0
  7 33  1  0
 13 34  1  0
 15 35  1  0
M  CHG  4  17   1  18  -1  24   1  25  -1
A    1
C1
A    2
C2
A    3
C3
A    4
C4
A    5
C5
A    6
C6
A    7
C7
A    8
S1
A    9
O1
A   10
O2
A   11
C8
A   12
C9
A   13
C10
A   14
C11
A   15
C12
A   16
C13
A   17
N1
A   18
O3
A   19
O4
A   20
C14
A   21
F1
A   22
F2
A   23
F3
A   24
N2
A   25
O5
A   26
O6
A   27
CL1
A   28
CL2
M  END
