2GZ8_F3F_A_307
     RDKit          3D

 33 35  0  0  0  0  0  0  0  0999 V2000
  -24.7560  -35.0310    5.5060 C   0  0  0  0  0  0  0  0  0  0  0  0
  -25.2490  -34.4890    6.7000 C   0  0  0  0  0  0  0  0  0  0  0  0
  -25.8940  -35.3120    7.6310 C   0  0  0  0  0  0  0  0  0  0  0  0
  -26.0460  -36.6780    7.3640 C   0  0  0  0  0  0  0  0  0  0  0  0
  -25.5570  -37.2210    6.1650 C   0  0  0  0  0  0  0  0  0  0  0  0
  -24.9120  -36.4010    5.2340 C   0  0  0  0  0  0  0  0  0  0  0  0
  -24.3950  -36.9560    4.0080 C   0  0  0  0  0  0  0  0  0  0  0  0
  -23.9760  -37.5160    2.9550 C   0  0  0  0  0  0  0  0  0  0  0  0
  -23.3130  -37.9580    1.7540 C   0  0  0  0  0  0  0  0  0  0  0  0
  -22.2450  -38.8630    1.8760 O   0  0  0  0  0  0  0  0  0  0  0  0
  -23.4840  -37.6320    0.4720 C   0  0  0  0  0  0  0  0  0  0  0  0
  -22.6020  -38.3260   -0.2710 C   0  0  0  0  0  0  0  0  0  0  0  0
  -21.8780  -39.0890    0.5440 C   0  0  0  0  0  0  0  0  0  0  0  0
  -20.7490  -40.0400    0.1400 C   0  0  0  0  0  0  0  0  0  0  0  0
  -20.3180  -40.0490   -1.0160 O   0  0  0  0  0  0  0  0  0  0  0  0
  -20.0150  -41.1560    1.3150 S   0  0  0  0  0  0  0  0  0  0  0  0
  -20.9140  -42.5960    0.8640 C   0  0  0  0  0  0  0  0  0  0  0  0
  -20.5730  -43.8360    1.1650 N   0  0  0  0  0  0  0  0  0  0  0  0
  -21.5560  -44.5860    0.6630 C   0  0  0  0  0  0  0  0  0  0  0  0
  -21.6240  -46.1000    0.8380 C   0  0  0  0  0  0  0  0  0  0  0  0
  -22.3500  -46.7400   -0.0980 F   0  0  0  0  0  0  0  0  0  0  0  0
  -20.3730  -46.5440    0.7750 F   0  0  0  0  0  0  0  0  0  0  0  0
  -22.1450  -46.3600    2.0590 F   0  0  0  0  0  0  0  0  0  0  0  0
  -22.4380  -43.7950    0.0590 N   0  0  0  0  0  0  0  0  0  0  0  0
  -22.0550  -42.6210    0.1760 N   0  0  0  0  0  0  0  0  0  0  0  0
  -24.2452  -34.3823    4.7791 H   0  0  0  0  0  0  0  0  0  0  0  0
  -25.1292  -33.4152    6.9064 H   0  0  0  0  0  0  0  0  0  0  0  0
  -26.2801  -34.8868    8.5692 H   0  0  0  0  0  0  0  0  0  0  0  0
  -26.5497  -37.3273    8.0952 H   0  0  0  0  0  0  0  0  0  0  0  0
  -25.6816  -38.2941    5.9576 H   0  0  0  0  0  0  0  0  0  0  0  0
  -24.2233  -36.9148    0.0859 H   0  0  0  0  0  0  0  0  0  0  0  0
  -22.4976  -38.2717   -1.3647 H   0  0  0  0  0  0  0  0  0  0  0  0
  -19.7354  -44.1533    1.6736 H   0  0  0  0  0  0  0  0  0  0  0  0
  1  2  2  0
  1  6  1  0
  2  3  1  0
  3  4  2  0
  4  5  1  0
  5  6  2  0
  6  7  1  0
  7  8  3  0
  8  9  1  0
  9 10  1  0
  9 11  2  0
 10 13  1  0
 11 12  1  0
 12 13  2  0
 13 14  1  0
 14 15  2  0
 14 16  1  0
 16 17  1  0
 17 18  1  0
 17 25  2  0
 18 19  1  0
 19 20  1  0
 19 24  2  0
 20 21  1  0
 20 22  1  0
 20 23  1  0
 24 25  1  0
  1 26  1  0
  2 27  1  0
  3 28  1  0
  4 29  1  0
  5 30  1  0
 11 31  1  0
 12 32  1  0
 18 33  1  0
A    1
CAA
A    2
CAB
A    3
CAC
A    4
CAD
A    5
CAE
A    6
CAF
A    7
CAG
A    8
CAH
A    9
CAI
A   10
OAM
A   11
CAJ
A   12
CAK
A   13
CAL
A   14
CAN
A   15
OAY
A   16
SAO
A   17
CAP
A   18
NAT
A   19
CAS
A   20
CAU
A   21
FAW
A   22
FAX
A   23
FAV
A   24
NAR
A   25
NAQ
M  END
