2H02_2UN_A_402
     RDKit          3D

 49 50  0  0  0  0  0  0  0  0999 V2000
    6.7400    3.9860   41.0050 O   0  0  0  0  0  0  0  0  0  0  0  0
    7.3110    5.2190   40.4260 S   0  0  0  0  0  0  0  0  0  0  0  0
    8.7890    5.1150   40.5320 O   0  0  0  0  0  0  0  0  0  0  0  0
    6.9480    5.4930   39.0100 O   0  0  0  0  0  0  0  0  0  0  0  0
    6.8510    6.4710   41.3370 N   0  0  0  0  0  0  0  0  0  0  0  0
    5.5700    6.9030   41.3300 C   0  0  0  0  0  0  0  0  0  0  0  0
    5.1540    7.9000   40.4370 C   0  0  0  0  0  0  0  0  0  0  0  0
    4.6670    6.3030   42.2090 C   0  0  0  0  0  0  0  0  0  0  0  0
    3.3370    6.6980   42.2430 C   0  0  0  0  0  0  0  0  0  0  0  0
    2.9020    7.6830   41.3620 C   0  0  0  0  0  0  0  0  0  0  0  0
    3.8100    8.2740   40.4690 C   0  0  0  0  0  0  0  0  0  0  0  0
    1.4360    8.0830   41.4390 C   0  0  0  0  0  0  0  0  0  0  0  0
    1.1200    9.3290   42.2860 C   0  0  0  0  0  0  0  0  0  0  0  0
   -0.3830    9.6270   42.3600 C   0  0  0  0  0  0  0  0  0  0  0  0
   -0.8410   10.7570   42.2220 O   0  0  0  0  0  0  0  0  0  0  0  0
   -1.3900    8.6100   42.6200 O   0  0  0  0  0  0  0  0  0  0  0  0
   -2.8050    8.7370   42.8280 C   0  0  0  0  0  0  0  0  0  0  0  0
    1.8040   10.4760   41.5650 C   0  0  0  0  0  0  0  0  0  0  0  0
    1.3290   10.9060   40.2510 O   0  0  0  0  0  0  0  0  0  0  0  0
    2.0020   11.8520   39.4170 C   0  0  0  0  0  0  0  0  0  0  0  0
    2.7580   11.0580   42.0540 O   0  0  0  0  0  0  0  0  0  0  0  0
    1.7070    9.1150   43.6860 C   0  0  0  0  0  0  0  0  0  0  0  0
    1.0280    9.8910   44.7960 C   0  0  0  0  0  0  0  0  0  0  0  0
    1.5960   11.0850   45.2580 C   0  0  0  0  0  0  0  0  0  0  0  0
    1.0050   11.8370   46.2730 C   0  0  0  0  0  0  0  0  0  0  0  0
   -0.1910   11.3670   46.8070 C   0  0  0  0  0  0  0  0  0  0  0  0
   -0.7800   10.1840   46.3480 C   0  0  0  0  0  0  0  0  0  0  0  0
   -0.1670    9.4310   45.3480 C   0  0  0  0  0  0  0  0  0  0  0  0
    6.1582    6.0892   38.9812 H   0  0  0  0  0  0  0  0  0  0  0  0
    7.5439    6.9472   41.9320 H   0  0  0  0  0  0  0  0  0  0  0  0
    5.8605    8.3701   39.7371 H   0  0  0  0  0  0  0  0  0  0  0  0
    5.0141    5.5066   42.8837 H   0  0  0  0  0  0  0  0  0  0  0  0
    2.6368    6.2388   42.9563 H   0  0  0  0  0  0  0  0  0  0  0  0
    3.4530    9.0513   39.7773 H   0  0  0  0  0  0  0  0  0  0  0  0
    1.0852    8.2749   40.4142 H   0  0  0  0  0  0  0  0  0  0  0  0
    0.9264    7.2468   41.9401 H   0  0  0  0  0  0  0  0  0  0  0  0
   -3.0167    8.7560   43.9073 H   0  0  0  0  0  0  0  0  0  0  0  0
   -3.1609    9.6707   42.3680 H   0  0  0  0  0  0  0  0  0  0  0  0
   -3.3215    7.8816   42.3680 H   0  0  0  0  0  0  0  0  0  0  0  0
    2.5254   12.5877   40.0454 H   0  0  0  0  0  0  0  0  0  0  0  0
    2.7311   11.3275   38.7819 H   0  0  0  0  0  0  0  0  0  0  0  0
    1.2674   12.3688   38.7819 H   0  0  0  0  0  0  0  0  0  0  0  0
    1.6337    8.0439   43.9256 H   0  0  0  0  0  0  0  0  0  0  0  0
    2.7416    9.4861   43.6430 H   0  0  0  0  0  0  0  0  0  0  0  0
    2.5348   11.4396   44.8075 H   0  0  0  0  0  0  0  0  0  0  0  0
    1.4668   12.7664   46.6376 H   0  0  0  0  0  0  0  0  0  0  0  0
   -0.6840   11.9381   47.6075 H   0  0  0  0  0  0  0  0  0  0  0  0
   -1.7337    9.8457   46.7793 H   0  0  0  0  0  0  0  0  0  0  0  0
   -0.6182    8.4900   45.0002 H   0  0  0  0  0  0  0  0  0  0  0  0
  1  2  2  0
  2  3  2  0
  2  4  1  0
  2  5  1  0
  5  6  1  0
  6  7  2  0
  6  8  1  0
  7 11  1  0
  8  9  2  0
  9 10  1  0
 10 11  2  0
 10 12  1  0
 12 13  1  0
 13 14  1  0
 13 18  1  0
 13 22  1  0
 14 15  2  0
 14 16  1  0
 16 17  1  0
 18 19  1  0
 18 21  2  0
 19 20  1  0
 22 23  1  0
 23 24  2  0
 23 28  1  0
 24 25  1  0
 25 26  2  0
 26 27  1  0
 27 28  2  0
  4 29  1  0
  5 30  1  0
  7 31  1  0
  8 32  1  0
  9 33  1  0
 11 34  1  0
 12 35  1  0
 12 36  1  0
 17 37  1  0
 17 38  1  0
 17 39  1  0
 20 40  1  0
 20 41  1  0
 20 42  1  0
 22 43  1  0
 22 44  1  0
 24 45  1  0
 25 46  1  0
 26 47  1  0
 27 48  1  0
 28 49  1  0
A    1
O7
A    2
S1
A    3
O5
A    4
O6
A    5
N1
A    6
C5
A    7
C4
A    8
C2
A    9
C6
A   10
C3
A   11
C1
A   12
C19
A   13
C7
A   14
C8
A   15
O2
A   16
O1
A   17
C17
A   18
C9
A   19
O4
A   20
C18
A   21
O3
A   22
C10
A   23
C11
A   24
C13
A   25
C16
A   26
C12
A   27
C15
A   28
C14
M  END
