1WS2_URN_A_900
     RDKit          3D

 16 16  0  0  0  0  0  0  0  0999 V2000
   59.2320  -15.5080   10.6510 O   0  0  0  0  0  0  0  0  0  0  0  0
   59.6850  -15.1560    9.5780 C   0  0  0  0  0  0  0  0  0  0  0  0
   60.4910  -15.9930    8.8180 N   0  0  0  0  0  0  0  0  0  0  0  0
   59.3110  -13.7680    9.1670 C   0  0  0  0  0  0  0  0  0  0  0  0
   58.5000  -12.9280    9.9490 N   0  0  0  0  0  0  0  0  0  0  0  0
   59.8310  -13.3680    7.8160 C   0  0  0  0  0  0  0  0  0  0  0  0
   59.5610  -12.1380    7.3010 N   0  0  0  0  0  0  0  0  0  0  0  0
   60.6070  -14.2670    7.1160 N   0  0  0  0  0  0  0  0  0  0  0  0
   60.9560  -15.5330    7.5710 C   0  0  0  0  0  0  0  0  0  0  0  0
   61.6660  -16.2210    6.7780 O   0  0  0  0  0  0  0  0  0  0  0  0
   60.7437  -16.9313    9.1594 H   0  0  0  0  0  0  0  0  0  0  0  0
   58.5476  -12.9773   10.9767 H   0  0  0  0  0  0  0  0  0  0  0  0
   57.8580  -12.2631    9.4944 H   0  0  0  0  0  0  0  0  0  0  0  0
   59.3864  -11.3426    7.9317 H   0  0  0  0  0  0  0  0  0  0  0  0
   59.5312  -12.0022    6.2804 H   0  0  0  0  0  0  0  0  0  0  0  0
   60.9530  -13.9799    6.1893 H   0  0  0  0  0  0  0  0  0  0  0  0
  1  2  2  0
  2  3  1  0
  2  4  1  0
  3  9  1  0
  4  5  1  0
  4  6  2  0
  6  7  1  0
  6  8  1  0
  8  9  1  0
  9 10  2  0
  3 11  1  0
  5 12  1  0
  5 13  1  0
  7 14  1  0
  7 15  1  0
  8 16  1  0
A    1
O4
A    2
C4
A    3
N3
A    4
C5
A    5
N5
A    6
C6
A    7
N6
A    8
N1
A    9
C2
A   10
O2
M  END
