2H3E_6PR_A_331
     RDKit          3D

 27 26  0  0  0  0  0  0  0  0999 V2000
   46.3650   27.5090   15.7100 O   0  0  0  0  0  0  0  0  0  0  0  0
   45.2990   28.7120   15.6080 P   0  0  0  0  0  0  0  0  0  0  0  0
   45.2170   29.3690   17.0750 O   0  0  0  0  0  0  0  0  0  0  0  0
   45.6720   29.7000   14.5710 O   0  0  0  0  0  0  0  0  0  0  0  0
   43.7010   27.9190   15.3050 C   0  0  0  0  0  0  0  0  0  0  0  0
   42.5240   28.8330   15.6540 C   0  0  0  0  0  0  0  0  0  0  0  0
   42.2610   29.8150   14.9610 O   0  0  0  0  0  0  0  0  0  0  0  0
   41.8510   28.4790   16.7460 N   0  0  0  0  0  0  0  0  0  0  0  0
   40.6770   29.2100   17.2500 C   0  0  0  0  0  0  0  0  0  0  0  0
   39.9900   28.3940   18.3500 C   0  0  0  0  0  0  0  0  0  0  0  0
   40.8730   28.1250   19.5740 C   0  0  0  0  0  0  0  0  0  0  0  0
   41.8860   28.8400   19.7340 O   0  0  0  0  0  0  0  0  0  0  0  0
   40.5010   27.2120   20.3410 O   0  0  0  0  0  0  0  0  0  0  0  0
   41.0600   30.5980   17.7720 C   0  0  0  0  0  0  0  0  0  0  0  0
   42.2270   30.9840   17.7450 O   0  0  0  0  0  0  0  0  0  0  0  0
   40.0510   31.3230   18.2460 N   0  0  0  0  0  0  0  0  0  0  0  0
   46.5442   27.3068   16.6624 H   0  0  0  0  0  0  0  0  0  0  0  0
   45.9861   30.5321   15.0058 H   0  0  0  0  0  0  0  0  0  0  0  0
   43.6360   27.6493   14.2406 H   0  0  0  0  0  0  0  0  0  0  0  0
   43.6390   27.0295   15.9491 H   0  0  0  0  0  0  0  0  0  0  0  0
   42.1686   27.6489   17.2665 H   0  0  0  0  0  0  0  0  0  0  0  0
   39.9772   29.3535   16.4135 H   0  0  0  0  0  0  0  0  0  0  0  0
   39.0975   28.9446   18.6822 H   0  0  0  0  0  0  0  0  0  0  0  0
   39.7467   27.4143   17.9130 H   0  0  0  0  0  0  0  0  0  0  0  0
   42.1974   29.0598   20.6477 H   0  0  0  0  0  0  0  0  0  0  0  0
   39.9184   31.4182   19.2630 H   0  0  0  0  0  0  0  0  0  0  0  0
   39.4020   31.7893   17.5962 H   0  0  0  0  0  0  0  0  0  0  0  0
  1  2  1  0
  2  3  2  0
  2  4  1  0
  2  5  1  0
  5  6  1  0
  6  7  2  0
  6  8  1  0
  8  9  1  0
  9 10  1  0
  9 14  1  0
 10 11  1  0
 11 12  1  0
 11 13  2  0
 14 15  2  0
 14 16  1  0
  1 17  1  0
  4 18  1  0
  5 19  1  0
  5 20  1  0
  8 21  1  0
  9 22  1  0
 10 23  1  0
 10 24  1  0
 12 25  1  0
 16 26  1  0
 16 27  1  0
A    1
OAH
A    2
PAP
A    3
OAG
A    4
OAE
A    5
CAJ
A    6
CAN
A    7
OAD
A    8
N
A    9
CA
A   10
CB
A   11
CG
A   12
OD2
A   13
OD1
A   14
C
A   15
O
A   16
NAA
M  END
