2H8H_H8H_A_534
     RDKit          3D

 70 75  0  0  0  0  0  0  0  0999 V2000
   27.1610   14.9190   60.1170 C   0  0  0  0  0  0  0  0  0  0  0  0
   27.1230   16.3700   59.8410 N   0  0  0  0  0  0  0  0  0  0  0  0
   26.4230   16.5910   58.5480 C   0  0  0  0  0  0  0  0  0  0  0  0
   26.3740   18.1100   58.2720 C   0  0  0  0  0  0  0  0  0  0  0  0
   25.7090   18.8430   59.3760 N   0  0  0  0  0  0  0  0  0  0  0  0
   26.0190   20.2400   59.1190 C   0  0  0  0  0  0  0  0  0  0  0  0
   24.7550   21.0440   58.8870 C   0  0  0  0  0  0  0  0  0  0  0  0
   23.6390   20.2030   59.0860 O   0  0  0  0  0  0  0  0  0  0  0  0
   22.5160   20.8860   58.7490 C   0  0  0  0  0  0  0  0  0  0  0  0
   21.3050   20.1870   58.7360 C   0  0  0  0  0  0  0  0  0  0  0  0
   20.1260   20.8250   58.3890 C   0  0  0  0  0  0  0  0  0  0  0  0
   18.9230   20.1760   58.3460 O   0  0  0  0  0  0  0  0  0  0  0  0
   18.8930   18.9970   59.1450 C   0  0  0  0  0  0  0  0  0  0  0  0
   17.6710   19.1530   60.0500 C   0  0  0  0  0  0  0  0  0  0  0  0
   17.2150   17.8250   60.6710 C   0  0  0  0  0  0  0  0  0  0  0  0
   17.1820   16.7620   59.7110 O   0  0  0  0  0  0  0  0  0  0  0  0
   18.3720   16.5510   58.9550 C   0  0  0  0  0  0  0  0  0  0  0  0
   18.7040   17.8370   58.1730 C   0  0  0  0  0  0  0  0  0  0  0  0
   20.1480   22.2020   58.0760 C   0  0  0  0  0  0  0  0  0  0  0  0
   18.9680   22.9450   57.7350 C   0  0  0  0  0  0  0  0  0  0  0  0
   17.7110   22.3300   57.6890 N   0  0  0  0  0  0  0  0  0  0  0  0
   16.5270   23.0070   57.2880 C   0  0  0  0  0  0  0  0  0  0  0  0
   16.4740   23.7090   56.0740 C   0  0  0  0  0  0  0  0  0  0  0  0
   17.3970   23.9430   55.0710 O   0  0  0  0  0  0  0  0  0  0  0  0
   16.9720   25.1470   54.4240 C   0  0  0  0  0  0  0  0  0  0  0  0
   15.5540   24.9650   54.4830 O   0  0  0  0  0  0  0  0  0  0  0  0
   15.2960   24.3470   55.6850 C   0  0  0  0  0  0  0  0  0  0  0  0
   14.1760   24.3080   56.4990 C   0  0  0  0  0  0  0  0  0  0  0  0
   14.2070   23.6040   57.6940 C   0  0  0  0  0  0  0  0  0  0  0  0
   15.3640   22.9490   58.0830 C   0  0  0  0  0  0  0  0  0  0  0  0
   15.3560   22.0940   59.6070 Cl  0  0  0  0  0  0  0  0  0  0  0  0
   19.1010   24.2560   57.4940 N   0  0  0  0  0  0  0  0  0  0  0  0
   20.2600   24.8470   57.5280 C   0  0  0  0  0  0  0  0  0  0  0  0
   21.3810   24.2100   57.8210 N   0  0  0  0  0  0  0  0  0  0  0  0
   21.3850   22.9060   58.1070 C   0  0  0  0  0  0  0  0  0  0  0  0
   22.5640   22.2410   58.4410 C   0  0  0  0  0  0  0  0  0  0  0  0
   26.3440   18.5430   60.6840 C   0  0  0  0  0  0  0  0  0  0  0  0
   26.3870   17.0280   60.9570 C   0  0  0  0  0  0  0  0  0  0  0  0
   27.1654   14.7526   61.2043 H   0  0  0  0  0  0  0  0  0  0  0  0
   26.2751   14.4386   59.6761 H   0  0  0  0  0  0  0  0  0  0  0  0
   28.0708   14.4856   59.6761 H   0  0  0  0  0  0  0  0  0  0  0  0
   26.9691   16.0840   57.7388 H   0  0  0  0  0  0  0  0  0  0  0  0
   25.4026   16.1832   58.5967 H   0  0  0  0  0  0  0  0  0  0  0  0
   27.4017   18.4863   58.1615 H   0  0  0  0  0  0  0  0  0  0  0  0
   25.7950   18.2744   57.3513 H   0  0  0  0  0  0  0  0  0  0  0  0
   26.5550   20.6547   59.9855 H   0  0  0  0  0  0  0  0  0  0  0  0
   26.6427   20.2996   58.2149 H   0  0  0  0  0  0  0  0  0  0  0  0
   24.7159   21.8844   59.5957 H   0  0  0  0  0  0  0  0  0  0  0  0
   24.7467   21.4402   57.8608 H   0  0  0  0  0  0  0  0  0  0  0  0
   21.2888   19.1203   59.0039 H   0  0  0  0  0  0  0  0  0  0  0  0
   19.7952   18.8279   59.7511 H   0  0  0  0  0  0  0  0  0  0  0  0
   17.9219   19.8522   60.8613 H   0  0  0  0  0  0  0  0  0  0  0  0
   16.8448   19.5278   59.4280 H   0  0  0  0  0  0  0  0  0  0  0  0
   17.9123   17.5529   61.4771 H   0  0  0  0  0  0  0  0  0  0  0  0
   16.1939   17.9648   61.0554 H   0  0  0  0  0  0  0  0  0  0  0  0
   19.2023   16.3077   59.6343 H   0  0  0  0  0  0  0  0  0  0  0  0
   18.2236   15.7170   58.2532 H   0  0  0  0  0  0  0  0  0  0  0  0
   17.8788   18.0687   57.4836 H   0  0  0  0  0  0  0  0  0  0  0  0
   19.6320   17.6861   57.6020 H   0  0  0  0  0  0  0  0  0  0  0  0
   17.6407   21.3385   57.9589 H   0  0  0  0  0  0  0  0  0  0  0  0
   17.2931   26.0432   54.9750 H   0  0  0  0  0  0  0  0  0  0  0  0
   17.3804   25.3029   53.4146 H   0  0  0  0  0  0  0  0  0  0  0  0
   13.2597   24.8365   56.1972 H   0  0  0  0  0  0  0  0  0  0  0  0
   13.3124   23.5659   58.3329 H   0  0  0  0  0  0  0  0  0  0  0  0
   20.3091   25.9227   57.3033 H   0  0  0  0  0  0  0  0  0  0  0  0
   23.5214   22.7822   58.4606 H   0  0  0  0  0  0  0  0  0  0  0  0
   27.3719   18.9347   60.6804 H   0  0  0  0  0  0  0  0  0  0  0  0
   25.7459   19.0191   61.4750 H   0  0  0  0  0  0  0  0  0  0  0  0
   25.3626   16.6311   61.0115 H   0  0  0  0  0  0  0  0  0  0  0  0
   26.8943   16.8303   61.9128 H   0  0  0  0  0  0  0  0  0  0  0  0
  1  2  1  0
  2  3  1  0
  2 38  1  0
  3  4  1  0
  4  5  1  0
  5  6  1  0
  5 37  1  0
  6  7  1  0
  7  8  1  0
  8  9  1  0
  9 10  2  0
  9 36  1  0
 10 11  1  0
 11 12  1  0
 11 19  2  0
 12 13  1  0
 13 14  1  0
 13 18  1  0
 14 15  1  0
 15 16  1  0
 16 17  1  0
 17 18  1  0
 19 20  1  0
 19 35  1  0
 20 21  1  0
 20 32  2  0
 21 22  1  0
 22 23  2  0
 22 30  1  0
 23 24  1  0
 23 27  1  0
 24 25  1  0
 25 26  1  0
 26 27  1  0
 27 28  2  0
 28 29  1  0
 29 30  2  0
 30 31  1  0
 32 33  1  0
 33 34  2  0
 34 35  1  0
 35 36  2  0
 37 38  1  0
  1 39  1  0
  1 40  1  0
  1 41  1  0
  3 42  1  0
  3 43  1  0
  4 44  1  0
  4 45  1  0
  6 46  1  0
  6 47  1  0
  7 48  1  0
  7 49  1  0
 10 50  1  0
 13 51  1  0
 14 52  1  0
 14 53  1  0
 15 54  1  0
 15 55  1  0
 17 56  1  0
 17 57  1  0
 18 58  1  0
 18 59  1  0
 21 60  1  0
 25 61  1  0
 25 62  1  0
 28 63  1  0
 29 64  1  0
 33 65  1  0
 36 66  1  0
 37 67  1  0
 37 68  1  0
 38 69  1  0
 38 70  1  0
A    1
C1
A    2
N2
A    3
C3
A    4
C4
A    5
N5
A    6
C6
A    7
C7
A    8
O8
A    9
C9
A   10
C10
A   11
C11
A   12
O12
A   13
C13
A   14
C14
A   15
C15
A   16
O16
A   17
C17
A   18
C18
A   19
C19
A   20
C20
A   21
N21
A   22
C22
A   23
C23
A   24
O24
A   25
C25
A   26
O26
A   27
C27
A   28
C28
A   29
C29
A   30
C30
A   31
CL3
A   32
N32
A   33
C33
A   34
N34
A   35
C35
A   36
C36
A   37
C37
A   38
C38
M  END
