1Q8T_Y27_A_930
     RDKit          3D

 39 40  0  0  0  0  0  0  0  0999 V2000
    7.5670    9.6490    1.6590 O   0  0  0  0  0  0  0  0  0  0  0  0
    7.9850    9.4820    2.8080 C   0  0  0  0  0  0  0  0  0  0  0  0
    9.3900    9.0330    3.1220 C   0  0  0  0  0  0  0  0  0  0  0  0
    9.8020    7.9260    2.1470 C   0  0  0  0  0  0  0  0  0  0  0  0
   11.1770    7.3720    2.5330 C   0  0  0  0  0  0  0  0  0  0  0  0
   12.1910    8.5000    2.3070 C   0  0  0  0  0  0  0  0  0  0  0  0
   11.8850    9.6720    3.2770 C   0  0  0  0  0  0  0  0  0  0  0  0
   10.4100   10.1890    3.1380 C   0  0  0  0  0  0  0  0  0  0  0  0
   13.6350    7.9160    2.3770 C   0  0  0  0  0  0  0  0  0  0  0  0
   14.0090    7.2340    1.0480 C   0  0  0  0  0  0  0  0  0  0  0  0
   14.6510    8.9840    2.6880 N   0  0  0  0  0  0  0  0  0  0  0  0
    7.1750    9.6680    3.9630 N   0  0  0  0  0  0  0  0  0  0  0  0
    5.7350    9.7420    4.0100 C   0  0  0  0  0  0  0  0  0  0  0  0
    5.1650    9.6930    5.2930 C   0  0  0  0  0  0  0  0  0  0  0  0
    3.7700    9.7460    5.3480 C   0  0  0  0  0  0  0  0  0  0  0  0
    3.0100    9.8540    4.2380 N   0  0  0  0  0  0  0  0  0  0  0  0
    3.5410    9.9010    3.0060 C   0  0  0  0  0  0  0  0  0  0  0  0
    4.9180    9.8440    2.8470 C   0  0  0  0  0  0  0  0  0  0  0  0
    9.3913    8.6340    4.1471 H   0  0  0  0  0  0  0  0  0  0  0  0
    9.0597    7.1150    2.1821 H   0  0  0  0  0  0  0  0  0  0  0  0
    9.8531    8.3417    1.1298 H   0  0  0  0  0  0  0  0  0  0  0  0
   11.1791    7.0676    3.5900 H   0  0  0  0  0  0  0  0  0  0  0  0
   11.4295    6.4885    1.9283 H   0  0  0  0  0  0  0  0  0  0  0  0
   12.1077    8.9368    1.3009 H   0  0  0  0  0  0  0  0  0  0  0  0
   12.0434    9.3274    4.3096 H   0  0  0  0  0  0  0  0  0  0  0  0
   12.5589   10.5037    3.0238 H   0  0  0  0  0  0  0  0  0  0  0  0
   10.3194   10.7551    2.1992 H   0  0  0  0  0  0  0  0  0  0  0  0
   10.1897   10.8235    4.0091 H   0  0  0  0  0  0  0  0  0  0  0  0
   13.6452    7.1743    3.1893 H   0  0  0  0  0  0  0  0  0  0  0  0
   14.5284    6.2868    1.2554 H   0  0  0  0  0  0  0  0  0  0  0  0
   13.0954    7.0322    0.4696 H   0  0  0  0  0  0  0  0  0  0  0  0
   14.6704    7.8959    0.4696 H   0  0  0  0  0  0  0  0  0  0  0  0
   14.7444    9.0821    3.7091 H   0  0  0  0  0  0  0  0  0  0  0  0
   15.5610    8.7204    2.2838 H   0  0  0  0  0  0  0  0  0  0  0  0
    7.6697    9.7596    4.8617 H   0  0  0  0  0  0  0  0  0  0  0  0
    5.7810    9.6173    6.2012 H   0  0  0  0  0  0  0  0  0  0  0  0
    3.2745    9.6981    6.3289 H   0  0  0  0  0  0  0  0  0  0  0  0
    2.8867    9.9844    2.1257 H   0  0  0  0  0  0  0  0  0  0  0  0
    5.3695    9.8768    1.8445 H   0  0  0  0  0  0  0  0  0  0  0  0
  1  2  2  0
  2  3  1  0
  2 12  1  0
  3  4  1  0
  3  8  1  0
  4  5  1  0
  5  6  1  0
  6  7  1  0
  6  9  1  0
  7  8  1  0
  9 10  1  0
  9 11  1  0
 12 13  1  0
 13 14  2  0
 13 18  1  0
 14 15  1  0
 15 16  2  0
 16 17  1  0
 17 18  2  0
  3 19  1  0
  4 20  1  0
  4 21  1  0
  5 22  1  0
  5 23  1  0
  6 24  1  0
  7 25  1  0
  7 26  1  0
  8 27  1  0
  8 28  1  0
  9 29  1  0
 10 30  1  0
 10 31  1  0
 10 32  1  0
 11 33  1  0
 11 34  1  0
 12 35  1  0
 14 36  1  0
 15 37  1  0
 17 38  1  0
 18 39  1  0
A    1
O23
A    2
C22
A    3
C31
A    4
C36
A    5
C35
A    6
C34
A    7
C33
A    8
C32
A    9
C41
A   10
C42
A   11
N43
A   12
N21
A   13
C14
A   14
C15
A   15
C16
A   16
N11
A   17
C12
A   18
C13
M  END
