1QWZ_ETM_A_245
     RDKit          3D

 21 20  0  0  0  0  0  0  0  0999 V2000
   17.8930  -21.0400   33.7730 S   0  0  0  0  0  0  0  0  0  0  0  0
   16.6230  -21.0440   34.5230 C   0  0  0  0  0  0  0  0  0  0  0  0
   15.2660  -21.1180   33.7450 C   0  0  0  0  0  0  0  0  0  0  0  0
   14.7560  -22.5370   33.9450 N   0  0  0  0  0  0  0  0  0  0  0  0
   15.7300  -23.5940   33.4830 C   0  0  0  0  0  0  0  0  0  0  0  0
   13.5540  -22.6970   33.1510 C   0  0  0  0  0  0  0  0  0  0  0  0
   14.3220  -22.8210   35.3500 C   0  0  0  0  0  0  0  0  0  0  0  0
   18.9430  -21.0367   34.6530 H   0  0  0  0  0  0  0  0  0  0  0  0
   16.6527  -21.9128   35.1971 H   0  0  0  0  0  0  0  0  0  0  0  0
   16.5974  -20.0489   34.9912 H   0  0  0  0  0  0  0  0  0  0  0  0
   14.5489  -20.3911   34.1541 H   0  0  0  0  0  0  0  0  0  0  0  0
   15.3946  -20.8784   32.6791 H   0  0  0  0  0  0  0  0  0  0  0  0
   16.1816  -24.0841   34.3581 H   0  0  0  0  0  0  0  0  0  0  0  0
   15.1985  -24.3426   32.8771 H   0  0  0  0  0  0  0  0  0  0  0  0
   16.5195  -23.1254   32.8771 H   0  0  0  0  0  0  0  0  0  0  0  0
   12.6868  -22.8124   33.8178 H   0  0  0  0  0  0  0  0  0  0  0  0
   13.4130  -21.8097   32.5163 H   0  0  0  0  0  0  0  0  0  0  0  0
   13.6500  -23.5903   32.5163 H   0  0  0  0  0  0  0  0  0  0  0  0
   15.0299  -22.3578   36.0531 H   0  0  0  0  0  0  0  0  0  0  0  0
   13.3169  -22.4054   35.5144 H   0  0  0  0  0  0  0  0  0  0  0  0
   14.3005  -23.9084   35.5144 H   0  0  0  0  0  0  0  0  0  0  0  0
  1  2  1  0
  2  3  1  0
  3  4  1  0
  4  5  1  0
  4  6  1  0
  4  7  1  0
  1  8  1  0
  2  9  1  0
  2 10  1  0
  3 11  1  0
  3 12  1  0
  5 13  1  0
  5 14  1  0
  5 15  1  0
  6 16  1  0
  6 17  1  0
  6 18  1  0
  7 19  1  0
  7 20  1  0
  7 21  1  0
M  CHG  1   4   1
A    1
SD
A    2
C1
A    3
C2
A    4
N1
A    5
C3
A    6
C4
A    7
C5
M  END
