2HAI_PFI_A_601
     RDKit          3D

 53 55  0  0  0  0  0  0  0  0999 V2000
   39.1110   11.5860   60.6420 F   0  0  0  0  0  0  0  0  0  0  0  0
   40.2650   11.9050   60.0460 C   0  0  0  0  0  0  0  0  0  0  0  0
   41.4800   11.3840   60.5740 C   0  0  0  0  0  0  0  0  0  0  0  0
   41.4390   10.5910   61.6780 O   0  0  0  0  0  0  0  0  0  0  0  0
   42.0300   11.0530   62.8990 C   0  0  0  0  0  0  0  0  0  0  0  0
   41.2620   12.2940   63.4310 C   0  0  0  0  0  0  0  0  0  0  0  0
   42.0010    9.9160   63.9060 C   0  0  0  0  0  0  0  0  0  0  0  0
   42.7100   11.7240   59.9480 C   0  0  0  0  0  0  0  0  0  0  0  0
   42.7740   12.5580   58.8210 C   0  0  0  0  0  0  0  0  0  0  0  0
   41.5580   13.0580   58.2960 C   0  0  0  0  0  0  0  0  0  0  0  0
   40.3320   12.7240   58.9270 C   0  0  0  0  0  0  0  0  0  0  0  0
   41.5920   13.9510   57.0900 C   0  0  0  0  0  0  0  0  0  0  0  0
   41.1920   13.1240   55.8090 C   0  0  0  0  0  0  0  0  0  0  0  0
   40.9750   13.9630   54.5430 C   0  0  0  0  0  0  0  0  0  0  0  0
   42.1770   14.8980   54.1930 C   0  0  0  0  0  0  0  0  0  0  0  0
   39.7950   14.9540   54.6850 C   0  0  0  0  0  0  0  0  0  0  0  0
   38.4350   14.3430   55.1080 C   0  0  0  0  0  0  0  0  0  0  0  0
   39.4140   15.6830   53.3670 C   0  0  0  0  0  0  0  0  0  0  0  0
   38.1600   16.4720   53.8180 C   0  0  0  0  0  0  0  0  0  0  0  0
   37.4910   15.4880   54.7950 C   0  0  0  0  0  0  0  0  0  0  0  0
   40.6560   13.1010   53.3910 O   0  0  0  0  0  0  0  0  0  0  0  0
   41.6990   12.3680   52.8820 C   0  0  0  0  0  0  0  0  0  0  0  0
   41.5120   11.2790   52.3380 O   0  0  0  0  0  0  0  0  0  0  0  0
   43.0780   12.9270   53.0080 C   0  0  0  0  0  0  0  0  0  0  0  0
   43.3370   14.0930   53.7090 C   0  0  0  0  0  0  0  0  0  0  0  0
   44.6150   14.5000   53.9750 O   0  0  0  0  0  0  0  0  0  0  0  0
   43.0723   11.3591   62.7264 H   0  0  0  0  0  0  0  0  0  0  0  0
   41.2676   12.2849   64.5309 H   0  0  0  0  0  0  0  0  0  0  0  0
   41.7510   13.2106   63.0694 H   0  0  0  0  0  0  0  0  0  0  0  0
   40.2235   12.2653   63.0694 H   0  0  0  0  0  0  0  0  0  0  0  0
   42.0115   10.3288   64.9255 H   0  0  0  0  0  0  0  0  0  0  0  0
   41.0874    9.3208   63.7608 H   0  0  0  0  0  0  0  0  0  0  0  0
   42.8831    9.2750   63.7608 H   0  0  0  0  0  0  0  0  0  0  0  0
   43.6453   11.3189   60.3617 H   0  0  0  0  0  0  0  0  0  0  0  0
   43.7390   12.8152   58.3599 H   0  0  0  0  0  0  0  0  0  0  0  0
   39.3973   13.1301   58.5131 H   0  0  0  0  0  0  0  0  0  0  0  0
   40.8816   14.7794   57.2276 H   0  0  0  0  0  0  0  0  0  0  0  0
   42.6074   14.3544   56.9624 H   0  0  0  0  0  0  0  0  0  0  0  0
   41.9939   12.3990   55.6057 H   0  0  0  0  0  0  0  0  0  0  0  0
   40.2255   12.6502   56.0358 H   0  0  0  0  0  0  0  0  0  0  0  0
   41.8710   15.6028   53.4058 H   0  0  0  0  0  0  0  0  0  0  0  0
   42.4765   15.4486   55.0970 H   0  0  0  0  0  0  0  0  0  0  0  0
   40.2140   15.6116   55.4609 H   0  0  0  0  0  0  0  0  0  0  0  0
   38.1934   13.4475   54.5166 H   0  0  0  0  0  0  0  0  0  0  0  0
   38.3986   13.9989   56.1522 H   0  0  0  0  0  0  0  0  0  0  0  0
   40.2162   16.3567   53.0315 H   0  0  0  0  0  0  0  0  0  0  0  0
   39.2449   15.0134   52.5108 H   0  0  0  0  0  0  0  0  0  0  0  0
   38.4384   17.4086   54.3233 H   0  0  0  0  0  0  0  0  0  0  0  0
   37.5091   16.7799   52.9864 H   0  0  0  0  0  0  0  0  0  0  0  0
   36.5734   15.0888   54.3382 H   0  0  0  0  0  0  0  0  0  0  0  0
   37.2447   16.0172   55.7273 H   0  0  0  0  0  0  0  0  0  0  0  0
   43.9140   12.3962   52.5292 H   0  0  0  0  0  0  0  0  0  0  0  0
   44.9187   14.5967   54.9123 H   0  0  0  0  0  0  0  0  0  0  0  0
  1  2  1  0
  2  3  2  0
  2 11  1  0
  3  4  1  0
  3  8  1  0
  4  5  1  0
  5  6  1  0
  5  7  1  0
  8  9  2  0
  9 10  1  0
 10 11  2  0
 10 12  1  0
 12 13  1  0
 13 14  1  0
 14 15  1  0
 14 16  1  0
 14 21  1  0
 15 25  1  0
 16 17  1  0
 16 18  1  0
 17 20  1  0
 18 19  1  0
 19 20  1  0
 21 22  1  0
 22 23  2  0
 22 24  1  0
 24 25  2  0
 25 26  1  0
  5 27  1  0
  6 28  1  0
  6 29  1  0
  6 30  1  0
  7 31  1  0
  7 32  1  0
  7 33  1  0
  8 34  1  0
  9 35  1  0
 11 36  1  0
 12 37  1  0
 12 38  1  0
 13 39  1  0
 13 40  1  0
 15 41  1  0
 15 42  1  0
 16 43  1  0
 17 44  1  0
 17 45  1  0
 18 46  1  0
 18 47  1  0
 19 48  1  0
 19 49  1  0
 20 50  1  0
 20 51  1  0
 24 52  1  0
 26 53  1  0
A    1
F26
A    2
C23
A    3
C22
A    4
O24
A    5
C25
A    6
C2
A    7
C1
A    8
C21
A    9
C20
A   10
C19
A   11
C18
A   12
C12
A   13
C11
A   14
C5
A   15
C6
A   16
C17
A   17
C13
A   18
C16
A   19
C15
A   20
C14
A   21
O4
A   22
C3
A   23
O10
A   24
C8
A   25
C7
A   26
O9
M  END
