2HAR_OCC_A_1001
     RDKit          3D

 85 87  0  0  0  0  0  0  0  0999 V2000
   14.5800   19.4580   33.5080 C   0  0  0  0  0  0  0  0  0  0  0  0
   13.5470   18.7870   34.4560 C   0  0  0  0  0  0  0  0  0  0  0  0
   14.1990   17.6850   35.3620 C   0  0  0  0  0  0  0  0  0  0  0  0
   14.9060   16.6230   34.4220 C   0  0  0  0  0  0  0  0  0  0  0  0
   15.9990   17.2980   33.5270 C   0  0  0  0  0  0  0  0  0  0  0  0
   15.4340   18.4760   32.6700 C   0  0  0  0  0  0  0  0  0  0  0  0
   14.8300   20.7720   33.3240 C   0  0  0  0  0  0  0  0  0  0  0  0
   14.1720   21.8920   33.9860 C   0  0  0  0  0  0  0  0  0  0  0  0
   13.9110   23.0840   33.4670 C   0  0  0  0  0  0  0  0  0  0  0  0
   13.1960   24.2040   34.2480 C   0  0  0  0  0  0  0  0  0  0  0  0
   11.7920   24.5710   33.5700 C   0  0  0  0  0  0  0  0  0  0  0  0
   12.1470   25.0730   32.0760 C   0  0  0  0  0  0  0  0  0  0  0  0
   13.0650   24.1210   31.2150 C   0  0  0  0  0  0  0  0  0  0  0  0
   14.2750   23.5120   32.0040 C   0  0  0  0  0  0  0  0  0  0  0  0
   12.7780   23.9720   35.7860 C   0  0  0  0  0  0  0  0  0  0  0  0
   11.5260   24.8790   35.9660 C   0  0  0  0  0  0  0  0  0  0  0  0
   11.3660   25.6230   34.6000 C   0  0  0  0  0  0  0  0  0  0  0  0
   12.1820   19.0760   34.4820 C   0  0  0  0  0  0  0  0  0  0  0  0
   17.0450   17.8130   34.3740 O   0  0  0  0  0  0  0  0  0  0  0  0
   13.2030   17.0490   36.1350 O   0  0  0  0  0  0  0  0  0  0  0  0
    9.8810   26.2350   34.3920 C   0  0  0  0  0  0  0  0  0  0  0  0
    8.5950   25.5460   34.9580 C   0  0  0  0  0  0  0  0  0  0  0  0
   10.7860   23.2990   33.4010 C   0  0  0  0  0  0  0  0  0  0  0  0
    9.8670   27.6870   34.9330 C   0  0  0  0  0  0  0  0  0  0  0  0
    7.3800   25.6830   34.0460 C   0  0  0  0  0  0  0  0  0  0  0  0
    6.1920   24.7650   34.3900 C   0  0  0  0  0  0  0  0  0  0  0  0
    4.7980   25.2950   33.9590 C   0  0  0  0  0  0  0  0  0  0  0  0
    4.5500   26.5630   34.6030 O   0  0  0  0  0  0  0  0  0  0  0  0
    3.6990   24.3270   34.3730 C   0  0  0  0  0  0  0  0  0  0  0  0
    4.6820   25.5240   32.4430 C   0  0  0  0  0  0  0  0  0  0  0  0
   14.0210   16.0030   33.4360 O   0  0  0  0  0  0  0  0  0  0  0  0
   13.4590   14.7300   33.7610 C   0  0  0  0  0  0  0  0  0  0  0  0
   14.4250   13.5930   33.3800 C   0  0  0  0  0  0  0  0  0  0  0  0
   14.9030   12.7900   34.6080 C   0  0  0  0  0  0  0  0  0  0  0  0
   13.8030   12.4330   35.4770 O   0  0  0  0  0  0  0  0  0  0  0  0
   14.9345   18.1405   36.0414 H   0  0  0  0  0  0  0  0  0  0  0  0
   15.2925   15.8813   35.1364 H   0  0  0  0  0  0  0  0  0  0  0  0
   16.3763   16.5293   32.8366 H   0  0  0  0  0  0  0  0  0  0  0  0
   14.8080   18.0601   31.8668 H   0  0  0  0  0  0  0  0  0  0  0  0
   16.2893   19.0366   32.2648 H   0  0  0  0  0  0  0  0  0  0  0  0
   15.6149   21.0248   32.5960 H   0  0  0  0  0  0  0  0  0  0  0  0
   13.8584   21.7309   35.0280 H   0  0  0  0  0  0  0  0  0  0  0  0
   13.9914   24.9632   34.2185 H   0  0  0  0  0  0  0  0  0  0  0  0
   11.1993   25.2047   31.5332 H   0  0  0  0  0  0  0  0  0  0  0  0
   12.7283   25.9973   32.2090 H   0  0  0  0  0  0  0  0  0  0  0  0
   12.4466   23.2930   30.8382 H   0  0  0  0  0  0  0  0  0  0  0  0
   13.4901   24.7357   30.4079 H   0  0  0  0  0  0  0  0  0  0  0  0
   15.0759   24.2647   32.0498 H   0  0  0  0  0  0  0  0  0  0  0  0
   14.5885   22.6039   31.4682 H   0  0  0  0  0  0  0  0  0  0  0  0
   12.5282   22.9167   35.9702 H   0  0  0  0  0  0  0  0  0  0  0  0
   13.5871   24.2158   36.4902 H   0  0  0  0  0  0  0  0  0  0  0  0
   10.6354   24.2704   36.1815 H   0  0  0  0  0  0  0  0  0  0  0  0
   11.6400   25.5788   36.8070 H   0  0  0  0  0  0  0  0  0  0  0  0
   11.9853   26.5282   34.5156 H   0  0  0  0  0  0  0  0  0  0  0  0
   11.5220   18.5510   35.1882 H   0  0  0  0  0  0  0  0  0  0  0  0
   11.7660   19.8288   33.7963 H   0  0  0  0  0  0  0  0  0  0  0  0
   16.7924   17.6886   35.3231 H   0  0  0  0  0  0  0  0  0  0  0  0
   13.4009   17.1754   37.0968 H   0  0  0  0  0  0  0  0  0  0  0  0
    9.7699   26.0815   33.3084 H   0  0  0  0  0  0  0  0  0  0  0  0
    8.8064   24.4756   35.0980 H   0  0  0  0  0  0  0  0  0  0  0  0
    8.3478   26.0496   35.9042 H   0  0  0  0  0  0  0  0  0  0  0  0
   10.4931   22.9286   34.3945 H   0  0  0  0  0  0  0  0  0  0  0  0
    9.8887   23.6123   32.8472 H   0  0  0  0  0  0  0  0  0  0  0  0
   11.2976   22.4980   32.8472 H   0  0  0  0  0  0  0  0  0  0  0  0
    9.8672   27.6685   36.0328 H   0  0  0  0  0  0  0  0  0  0  0  0
   10.7600   28.2203   34.5751 H   0  0  0  0  0  0  0  0  0  0  0  0
    8.9638   28.2030   34.5751 H   0  0  0  0  0  0  0  0  0  0  0  0
    7.0310   26.7248   34.0991 H   0  0  0  0  0  0  0  0  0  0  0  0
    7.7169   25.3817   33.0432 H   0  0  0  0  0  0  0  0  0  0  0  0
    6.3558   23.7969   33.8941 H   0  0  0  0  0  0  0  0  0  0  0  0
    6.1664   24.6989   35.4877 H   0  0  0  0  0  0  0  0  0  0  0  0
    4.5732   26.4442   35.5856 H   0  0  0  0  0  0  0  0  0  0  0  0
    3.6459   24.2803   35.4707 H   0  0  0  0  0  0  0  0  0  0  0  0
    2.7347   24.6745   33.9738 H   0  0  0  0  0  0  0  0  0  0  0  0
    3.9220   23.3266   33.9738 H   0  0  0  0  0  0  0  0  0  0  0  0
    4.1923   26.4908   32.2546 H   0  0  0  0  0  0  0  0  0  0  0  0
    5.6866   25.5284   31.9949 H   0  0  0  0  0  0  0  0  0  0  0  0
    4.0842   24.7167   31.9949 H   0  0  0  0  0  0  0  0  0  0  0  0
   13.2615   14.6884   34.8423 H   0  0  0  0  0  0  0  0  0  0  0  0
   12.5238   14.6026   33.1960 H   0  0  0  0  0  0  0  0  0  0  0  0
   13.9103   12.9089   32.6893 H   0  0  0  0  0  0  0  0  0  0  0  0
   15.3103   14.0482   32.9120 H   0  0  0  0  0  0  0  0  0  0  0  0
   15.3965   11.8699   34.2618 H   0  0  0  0  0  0  0  0  0  0  0  0
   15.5997   13.4210   35.1794 H   0  0  0  0  0  0  0  0  0  0  0  0
   14.0854   12.5246   36.4214 H   0  0  0  0  0  0  0  0  0  0  0  0
  1  2  1  0
  1  6  1  0
  1  7  2  0
  2  3  1  0
  2 18  2  0
  3  4  1  0
  3 20  1  0
  4  5  1  0
  4 31  1  0
  5  6  1  0
  5 19  1  0
  7  8  1  0
  8  9  2  0
  9 10  1  0
  9 14  1  0
 10 11  1  0
 10 15  1  0
 11 12  1  0
 11 17  1  0
 11 23  1  0
 12 13  1  0
 13 14  1  0
 15 16  1  0
 16 17  1  0
 17 21  1  0
 21 22  1  0
 21 24  1  0
 22 25  1  0
 25 26  1  0
 26 27  1  0
 27 28  1  0
 27 29  1  0
 27 30  1  0
 31 32  1  0
 32 33  1  0
 33 34  1  0
 34 35  1  0
  3 36  1  0
  4 37  1  0
  5 38  1  0
  6 39  1  0
  6 40  1  0
  7 41  1  0
  8 42  1  0
 10 43  1  0
 12 44  1  0
 12 45  1  0
 13 46  1  0
 13 47  1  0
 14 48  1  0
 14 49  1  0
 15 50  1  0
 15 51  1  0
 16 52  1  0
 16 53  1  0
 17 54  1  0
 18 55  1  0
 18 56  1  0
 19 57  1  0
 20 58  1  0
 21 59  1  0
 22 60  1  0
 22 61  1  0
 23 62  1  0
 23 63  1  0
 23 64  1  0
 24 65  1  0
 24 66  1  0
 24 67  1  0
 25 68  1  0
 25 69  1  0
 26 70  1  0
 26 71  1  0
 28 72  1  0
 29 73  1  0
 29 74  1  0
 29 75  1  0
 30 76  1  0
 30 77  1  0
 30 78  1  0
 32 79  1  0
 32 80  1  0
 33 81  1  0
 33 82  1  0
 34 83  1  0
 34 84  1  0
 35 85  1  0
A    1
C5
A    2
C10
A    3
C1
A    4
C2
A    5
C3
A    6
C4
A    7
C6
A    8
C7
A    9
C8
A   10
C14
A   11
C13
A   12
C12
A   13
C11
A   14
C9
A   15
C15
A   16
C16
A   17
C17
A   18
C19
A   19
O2
A   20
O1
A   21
C20
A   22
C22
A   23
C18
A   24
C21
A   25
C23
A   26
C24
A   27
C25
A   28
O25
A   29
C27
A   30
C26
A   31
O28
A   32
C29
A   33
C30
A   34
C31
A   35
O32
M  END
