2HDQ_C21_A_501
     RDKit          3D

 12 12  0  0  0  0  0  0  0  0999 V2000
   30.8320   11.4570   22.1070 O   0  0  0  0  0  0  0  0  0  0  0  0
   30.5120   10.2720   21.8270 C   0  0  0  0  0  0  0  0  0  0  0  0
   31.2790    9.3350   22.0920 O   0  0  0  0  0  0  0  0  0  0  0  0
   29.1990    9.9330   21.1810 C   0  0  0  0  0  0  0  0  0  0  0  0
   28.1280   11.2510   20.8230 S   0  0  0  0  0  0  0  0  0  0  0  0
   28.6190    8.7280   20.7780 C   0  0  0  0  0  0  0  0  0  0  0  0
   27.3500    8.8930   20.2100 C   0  0  0  0  0  0  0  0  0  0  0  0
   26.9380   10.2120   20.1370 C   0  0  0  0  0  0  0  0  0  0  0  0
   31.4692    9.1027   23.0354 H   0  0  0  0  0  0  0  0  0  0  0  0
   29.1088    7.7500   20.8948 H   0  0  0  0  0  0  0  0  0  0  0  0
   26.7370    8.0517   19.8545 H   0  0  0  0  0  0  0  0  0  0  0  0
   25.9854   10.5491   19.7024 H   0  0  0  0  0  0  0  0  0  0  0  0
  1  2  2  0
  2  3  1  0
  2  4  1  0
  4  5  1  0
  4  6  2  0
  5  8  1  0
  6  7  1  0
  7  8  2  0
  3  9  1  0
  6 10  1  0
  7 11  1  0
  8 12  1  0
A    1
O8
A    2
C6
A    3
O7
A    4
C4
A    5
S5
A    6
C3
A    7
C2
A    8
C1
M  END
