2HDR_4A3_A_501
     RDKit          3D

 18 18  0  0  0  0  0  0  0  0999 V2000
   19.9420   -8.7900    4.2420 C   0  0  0  0  0  0  0  0  0  0  0  0
   18.1030   -7.2850    4.7000 C   0  0  0  0  0  0  0  0  0  0  0  0
   17.4990   -5.9130    4.6980 C   0  0  0  0  0  0  0  0  0  0  0  0
   17.1540  -10.6860    5.6590 O   0  0  0  0  0  0  0  0  0  0  0  0
   19.1820   -9.8580    4.7230 C   0  0  0  0  0  0  0  0  0  0  0  0
   19.4040   -7.5010    4.2310 C   0  0  0  0  0  0  0  0  0  0  0  0
   17.3530   -8.3590    5.1800 C   0  0  0  0  0  0  0  0  0  0  0  0
   17.8940   -9.6410    5.1860 C   0  0  0  0  0  0  0  0  0  0  0  0
   16.3350   -5.7700    5.1300 O   0  0  0  0  0  0  0  0  0  0  0  0
   18.1630   -4.9450    4.2690 O   0  0  0  0  0  0  0  0  0  0  0  0
   19.6990  -11.1110    4.7370 N   0  0  0  0  0  0  0  0  0  0  0  0
   20.9633   -8.9635    3.8721 H   0  0  0  0  0  0  0  0  0  0  0  0
   17.0573  -10.8225    6.6348 H   0  0  0  0  0  0  0  0  0  0  0  0
   20.0014   -6.6575    3.8546 H   0  0  0  0  0  0  0  0  0  0  0  0
   16.3322   -8.1921    5.5544 H   0  0  0  0  0  0  0  0  0  0  0  0
   18.5925   -4.3189    4.9044 H   0  0  0  0  0  0  0  0  0  0  0  0
   19.8919  -11.5785    5.6343 H   0  0  0  0  0  0  0  0  0  0  0  0
   19.8989  -11.5956    3.8504 H   0  0  0  0  0  0  0  0  0  0  0  0
  1  5  2  0
  1  6  1  0
  2  3  1  0
  2  6  2  0
  2  7  1  0
  3  9  2  0
  3 10  1  0
  4  8  1  0
  5  8  1  0
  5 11  1  0
  7  8  2  0
  1 12  1  0
  4 13  1  0
  6 14  1  0
  7 15  1  0
 10 16  1  0
 11 17  1  0
 11 18  1  0
A    1
C3
A    2
C5
A    3
C8
A    4
O9
A    5
C2
A    6
C4
A    7
C6
A    8
C7
A    9
O10
A   10
O11
A   11
N1
M  END
