2HGZ_PBF_A_308
     RDKit          3D

 35 36  0  0  0  0  0  0  0  0999 V2000
   24.3520   12.6700   22.0590 N   0  0  0  0  0  0  0  0  0  0  0  0
   23.9280   13.2560   19.6560 C   0  0  0  0  0  0  0  0  0  0  0  0
   24.5060   14.3890   19.9110 O   0  0  0  0  0  0  0  0  0  0  0  0
   24.0620   12.1200   20.7230 C   0  0  0  0  0  0  0  0  0  0  0  0
   22.7320   11.4410   20.7930 C   0  0  0  0  0  0  0  0  0  0  0  0
   22.6580   10.2750   21.7800 C   0  0  0  0  0  0  0  0  0  0  0  0
   21.5540   10.1130   22.6800 C   0  0  0  0  0  0  0  0  0  0  0  0
   23.7010    9.3500   21.7860 C   0  0  0  0  0  0  0  0  0  0  0  0
   21.5800    8.9830   23.5590 C   0  0  0  0  0  0  0  0  0  0  0  0
   23.7200    8.2760   22.6250 C   0  0  0  0  0  0  0  0  0  0  0  0
   22.6610    8.0880   23.5130 C   0  0  0  0  0  0  0  0  0  0  0  0
   22.7540    6.8650   24.4230 C   0  0  0  0  0  0  0  0  0  0  0  0
   22.5730    6.9490   25.6080 O   0  0  0  0  0  0  0  0  0  0  0  0
   23.0690    5.4840   23.9470 C   0  0  0  0  0  0  0  0  0  0  0  0
   22.5170    4.9690   22.7920 C   0  0  0  0  0  0  0  0  0  0  0  0
   23.9350    4.7920   24.7420 C   0  0  0  0  0  0  0  0  0  0  0  0
   22.8530    3.6630   22.3970 C   0  0  0  0  0  0  0  0  0  0  0  0
   24.2770    3.5030   24.3710 C   0  0  0  0  0  0  0  0  0  0  0  0
   23.7450    2.9210   23.1990 C   0  0  0  0  0  0  0  0  0  0  0  0
   23.2400   12.9400   18.5720 O   0  0  0  0  0  0  0  0  0  0  0  0
   24.0089   12.0194   22.7800 H   0  0  0  0  0  0  0  0  0  0  0  0
   25.3688   12.7953   22.1654 H   0  0  0  0  0  0  0  0  0  0  0  0
   24.8800   11.4420   20.4379 H   0  0  0  0  0  0  0  0  0  0  0  0
   21.9814   12.1885   21.0896 H   0  0  0  0  0  0  0  0  0  0  0  0
   22.5494   11.0144   19.7957 H   0  0  0  0  0  0  0  0  0  0  0  0
   20.7192   10.8291   22.6947 H   0  0  0  0  0  0  0  0  0  0  0  0
   24.5393    9.4921   21.0881 H   0  0  0  0  0  0  0  0  0  0  0  0
   20.7557    8.8165   24.2681 H   0  0  0  0  0  0  0  0  0  0  0  0
   24.5601    7.5663   22.6021 H   0  0  0  0  0  0  0  0  0  0  0  0
   21.8232    5.5727   22.1885 H   0  0  0  0  0  0  0  0  0  0  0  0
   24.3505    5.2462   25.6536 H   0  0  0  0  0  0  0  0  0  0  0  0
   22.4286    3.2278   21.4802 H   0  0  0  0  0  0  0  0  0  0  0  0
   24.9721    2.9243   24.9970 H   0  0  0  0  0  0  0  0  0  0  0  0
   24.0245    1.8961   22.9137 H   0  0  0  0  0  0  0  0  0  0  0  0
   22.3437   12.5283   18.6571 H   0  0  0  0  0  0  0  0  0  0  0  0
  1  4  1  0
  2  3  2  0
  2  4  1  0
  2 20  1  0
  4  5  1  0
  5  6  1  0
  6  7  2  0
  6  8  1  0
  7  9  1  0
  8 10  2  0
  9 11  2  0
 10 11  1  0
 11 12  1  0
 12 13  2  0
 12 14  1  0
 14 15  2  0
 14 16  1  0
 15 17  1  0
 16 18  2  0
 17 19  2  0
 18 19  1  0
  1 21  1  0
  1 22  1  0
  4 23  1  0
  5 24  1  0
  5 25  1  0
  7 26  1  0
  8 27  1  0
  9 28  1  0
 10 29  1  0
 15 30  1  0
 16 31  1  0
 17 32  1  0
 18 33  1  0
 19 34  1  0
 20 35  1  0
A    1
N
A    2
C
A    3
O
A    4
CA
A    5
CB
A    6
CG
A    7
CD1
A    8
CD2
A    9
CE1
A   10
CE2
A   11
CZ
A   12
CN1
A   13
ON2
A   14
CT
A   15
CI1
A   16
CI2
A   17
CK1
A   18
CK2
A   19
CL
A   20
OXT
M  END
