2HH5_GNQ_B_501
     RDKit          3D

 70 72  0  0  0  0  0  0  0  0999 V2000
   14.6730   -1.1680   -4.4990 O   0  0  0  0  0  0  0  0  0  0  0  0
   14.4340   -2.2650   -5.3770 S   0  0  0  0  0  0  0  0  0  0  0  0
   13.3910   -2.1160   -6.3140 O   0  0  0  0  0  0  0  0  0  0  0  0
   14.2960   -3.7040   -4.5030 C   0  0  0  0  0  0  0  0  0  0  0  0
   13.1660   -3.6720   -3.5070 C   0  0  0  0  0  0  0  0  0  0  0  0
   11.9170   -4.2050   -3.8220 C   0  0  0  0  0  0  0  0  0  0  0  0
   10.8990   -4.1590   -2.8810 C   0  0  0  0  0  0  0  0  0  0  0  0
   11.1390   -3.5950   -1.6420 C   0  0  0  0  0  0  0  0  0  0  0  0
   12.3780   -3.0770   -1.3200 C   0  0  0  0  0  0  0  0  0  0  0  0
   13.4000   -3.1050   -2.2650 C   0  0  0  0  0  0  0  0  0  0  0  0
   15.8400   -2.4890   -6.3140 C   0  0  0  0  0  0  0  0  0  0  0  0
   15.6420   -3.2530   -7.6340 C   0  0  0  0  0  0  0  0  0  0  0  0
   15.5470   -4.6770   -7.3600 N   0  0  0  0  0  0  0  0  0  0  0  0
   15.2180   -5.4600   -8.3910 C   0  0  0  0  0  0  0  0  0  0  0  0
   14.9720   -4.9440   -9.4720 O   0  0  0  0  0  0  0  0  0  0  0  0
   15.1590   -6.7850   -8.3010 N   0  0  0  0  0  0  0  0  0  0  0  0
   14.7600   -7.5830   -9.4650 C   0  0  0  0  0  0  0  0  0  0  0  0
   15.6370   -8.8070   -9.5840 C   0  0  0  0  0  0  0  0  0  0  0  0
   15.4990   -9.5630   -8.3880 O   0  0  0  0  0  0  0  0  0  0  0  0
   16.0570   -8.8220   -7.2860 C   0  0  0  0  0  0  0  0  0  0  0  0
   15.3570   -7.5040   -7.0510 C   0  0  0  0  0  0  0  0  0  0  0  0
   16.8260   -3.0280   -8.5700 C   0  0  0  0  0  0  0  0  0  0  0  0
   17.9360   -3.4500   -8.2840 O   0  0  0  0  0  0  0  0  0  0  0  0
   16.5950   -2.3290   -9.7040 N   0  0  0  0  0  0  0  0  0  0  0  0
   17.6370   -2.0440  -10.6530 C   0  0  0  0  0  0  0  0  0  0  0  0
   17.9450   -3.2960  -11.4550 C   0  0  0  0  0  0  0  0  0  0  0  0
   17.2050   -0.9100  -11.5950 C   0  0  0  0  0  0  0  0  0  0  0  0
   16.5480    0.2570  -10.9340 N   0  0  0  0  0  0  0  0  0  0  0  0
   16.0730    1.1760  -11.8060 C   0  0  0  0  0  0  0  0  0  0  0  0
   14.7270    1.5080  -11.8150 C   0  0  0  0  0  0  0  0  0  0  0  0
   14.2200    2.4400  -12.7070 C   0  0  0  0  0  0  0  0  0  0  0  0
   16.9100    1.7530  -12.7660 C   0  0  0  0  0  0  0  0  0  0  0  0
   16.3960    2.6880  -13.6650 C   0  0  0  0  0  0  0  0  0  0  0  0
   15.0300    3.0280  -13.6450 C   0  0  0  0  0  0  0  0  0  0  0  0
   14.4170    3.8990  -14.5290 O   0  0  0  0  0  0  0  0  0  0  0  0
   15.0880    4.9340  -15.2010 C   0  0  0  0  0  0  0  0  0  0  0  0
   15.8910    4.3830  -16.1210 F   0  0  0  0  0  0  0  0  0  0  0  0
   14.1960    5.7470  -15.7220 F   0  0  0  0  0  0  0  0  0  0  0  0
   15.7390    5.6490  -14.3110 F   0  0  0  0  0  0  0  0  0  0  0  0
   14.1200   -4.5292   -5.2088 H   0  0  0  0  0  0  0  0  0  0  0  0
   15.2312   -3.8428   -3.9408 H   0  0  0  0  0  0  0  0  0  0  0  0
   11.7402   -4.6583   -4.8086 H   0  0  0  0  0  0  0  0  0  0  0  0
    9.9065   -4.5690   -3.1193 H   0  0  0  0  0  0  0  0  0  0  0  0
   10.3285   -3.5581   -0.8992 H   0  0  0  0  0  0  0  0  0  0  0  0
   12.5561   -2.6454   -0.3240 H   0  0  0  0  0  0  0  0  0  0  0  0
   14.3862   -2.6799   -2.0271 H   0  0  0  0  0  0  0  0  0  0  0  0
   16.2482   -1.4964   -6.5550 H   0  0  0  0  0  0  0  0  0  0  0  0
   16.5132   -3.1095   -5.7043 H   0  0  0  0  0  0  0  0  0  0  0  0
   14.7211   -2.8847   -8.1096 H   0  0  0  0  0  0  0  0  0  0  0  0
   15.7239   -5.0619   -6.4211 H   0  0  0  0  0  0  0  0  0  0  0  0
   13.7122   -7.8968   -9.3485 H   0  0  0  0  0  0  0  0  0  0  0  0
   14.8706   -6.9727  -10.3734 H   0  0  0  0  0  0  0  0  0  0  0  0
   15.3197   -9.4114  -10.4466 H   0  0  0  0  0  0  0  0  0  0  0  0
   16.6866   -8.5127   -9.7316 H   0  0  0  0  0  0  0  0  0  0  0  0
   15.9730   -9.4318   -6.3743 H   0  0  0  0  0  0  0  0  0  0  0  0
   17.1054   -8.6000   -7.5340 H   0  0  0  0  0  0  0  0  0  0  0  0
   15.9686   -6.8880   -6.3753 H   0  0  0  0  0  0  0  0  0  0  0  0
   14.3721   -7.7064   -6.6049 H   0  0  0  0  0  0  0  0  0  0  0  0
   15.6414   -1.9895   -9.8944 H   0  0  0  0  0  0  0  0  0  0  0  0
   18.5397   -1.7241  -10.1119 H   0  0  0  0  0  0  0  0  0  0  0  0
   18.1502   -4.1302  -10.7680 H   0  0  0  0  0  0  0  0  0  0  0  0
   17.0818   -3.5469  -12.0890 H   0  0  0  0  0  0  0  0  0  0  0  0
   18.8261   -3.1178  -12.0890 H   0  0  0  0  0  0  0  0  0  0  0  0
   18.1006   -0.5437  -12.1181 H   0  0  0  0  0  0  0  0  0  0  0  0
   16.4482   -1.3443  -12.2648 H   0  0  0  0  0  0  0  0  0  0  0  0
   16.4645    0.3531   -9.9119 H   0  0  0  0  0  0  0  0  0  0  0  0
   14.0474    1.0218  -11.0996 H   0  0  0  0  0  0  0  0  0  0  0  0
   13.1550    2.7115  -12.6621 H   0  0  0  0  0  0  0  0  0  0  0  0
   17.9720    1.4702  -12.8124 H   0  0  0  0  0  0  0  0  0  0  0  0
   17.0649    3.1644  -14.3969 H   0  0  0  0  0  0  0  0  0  0  0  0
  1  2  2  0
  2  3  2  0
  2  4  1  0
  2 11  1  0
  4  5  1  0
  5  6  2  0
  5 10  1  0
  6  7  1  0
  7  8  2  0
  8  9  1  0
  9 10  2  0
 11 12  1  0
 12 13  1  0
 12 22  1  0
 13 14  1  0
 14 15  2  0
 14 16  1  0
 16 17  1  0
 16 21  1  0
 17 18  1  0
 18 19  1  0
 19 20  1  0
 20 21  1  0
 22 23  2  0
 22 24  1  0
 24 25  1  0
 25 26  1  0
 25 27  1  0
 27 28  1  0
 28 29  1  0
 29 30  2  0
 29 32  1  0
 30 31  1  0
 31 34  2  0
 32 33  2  0
 33 34  1  0
 34 35  1  0
 35 36  1  0
 36 37  1  0
 36 38  1  0
 36 39  1  0
  4 40  1  0
  4 41  1  0
  6 42  1  0
  7 43  1  0
  8 44  1  0
  9 45  1  0
 10 46  1  0
 11 47  1  0
 11 48  1  0
 12 49  1  0
 13 50  1  0
 17 51  1  0
 17 52  1  0
 18 53  1  0
 18 54  1  0
 20 55  1  0
 20 56  1  0
 21 57  1  0
 21 58  1  0
 24 59  1  0
 25 60  1  0
 26 61  1  0
 26 62  1  0
 26 63  1  0
 27 64  1  0
 27 65  1  0
 28 66  1  0
 30 67  1  0
 31 68  1  0
 32 69  1  0
 33 70  1  0
A    1
O5
A    2
S
A    3
O4
A    4
C17
A    5
C18
A    6
C20
A    7
C21
A    8
C22
A    9
C23
A   10
C19
A   11
C16
A   12
CA
A   13
N
A   14
C11
A   15
O3
A   16
N3
A   17
C15
A   18
C14
A   19
O2
A   20
C13
A   21
C12
A   22
C
A   23
O
A   24
N2
A   25
C9
A   26
C10
A   27
C8
A   28
N1
A   29
C7
A   30
C6
A   31
C5
A   32
C4
A   33
C3
A   34
C2
A   35
O1
A   36
C1
A   37
F1
A   38
F2
A   39
F3
M  END
