2HIW_7MP_A_531
     RDKit          3D

 51 54  0  0  0  0  0  0  0  0999 V2000
   -0.7650    8.9120   34.6580 O   0  0  0  0  0  0  0  0  0  0  0  0
   -1.6310    8.0410   34.8830 C   0  0  0  0  0  0  0  0  0  0  0  0
   -2.5920    8.1240   35.9480 N   0  0  0  0  0  0  0  0  0  0  0  0
   -2.5750    9.2780   36.8440 C   0  0  0  0  0  0  0  0  0  0  0  0
   -3.5800    7.0960   36.1450 C   0  0  0  0  0  0  0  0  0  0  0  0
   -4.5140    7.1230   37.1120 N   0  0  0  0  0  0  0  0  0  0  0  0
   -5.3970    6.1060   37.2150 C   0  0  0  0  0  0  0  0  0  0  0  0
   -6.3110    6.1660   38.2060 N   0  0  0  0  0  0  0  0  0  0  0  0
   -5.3860    5.0410   36.3630 N   0  0  0  0  0  0  0  0  0  0  0  0
   -4.4700    4.9620   35.3810 C   0  0  0  0  0  0  0  0  0  0  0  0
   -3.5640    6.0090   35.2800 C   0  0  0  0  0  0  0  0  0  0  0  0
   -2.6130    6.2280   34.4880 C   0  0  0  0  0  0  0  0  0  0  0  0
   -1.6620    6.9720   34.0960 N   0  0  0  0  0  0  0  0  0  0  0  0
   -0.7630    6.8270   33.0290 C   0  0  0  0  0  0  0  0  0  0  0  0
   -1.0840    7.3470   31.7760 C   0  0  0  0  0  0  0  0  0  0  0  0
   -2.4090    8.0310   31.5470 C   0  0  0  0  0  0  0  0  0  0  0  0
   -0.1760    7.2250   30.7230 C   0  0  0  0  0  0  0  0  0  0  0  0
    1.0460    6.5970   30.9390 C   0  0  0  0  0  0  0  0  0  0  0  0
    0.4590    6.2070   33.2470 C   0  0  0  0  0  0  0  0  0  0  0  0
    1.3660    6.0800   32.1970 C   0  0  0  0  0  0  0  0  0  0  0  0
    2.5670    5.4710   32.3770 N   0  0  0  0  0  0  0  0  0  0  0  0
    3.0230    4.9250   33.5120 C   0  0  0  0  0  0  0  0  0  0  0  0
    2.3800    4.9250   34.5490 O   0  0  0  0  0  0  0  0  0  0  0  0
    4.3950    4.2870   33.4570 C   0  0  0  0  0  0  0  0  0  0  0  0
    4.6880    3.1220   34.1780 C   0  0  0  0  0  0  0  0  0  0  0  0
    5.3770    4.8680   32.6520 C   0  0  0  0  0  0  0  0  0  0  0  0
    6.6440    4.3040   32.5710 C   0  0  0  0  0  0  0  0  0  0  0  0
    6.9270    3.1480   33.2970 C   0  0  0  0  0  0  0  0  0  0  0  0
    5.9630    2.5480   34.1070 C   0  0  0  0  0  0  0  0  0  0  0  0
    6.3000    1.2910   34.8840 C   0  0  0  0  0  0  0  0  0  0  0  0
    6.1140    1.5190   36.1700 F   0  0  0  0  0  0  0  0  0  0  0  0
    7.5780    0.9680   34.7170 F   0  0  0  0  0  0  0  0  0  0  0  0
    5.5250    0.2770   34.4930 F   0  0  0  0  0  0  0  0  0  0  0  0
   -2.5801    8.9317   37.8880 H   0  0  0  0  0  0  0  0  0  0  0  0
   -1.6680    9.8723   36.6593 H   0  0  0  0  0  0  0  0  0  0  0  0
   -3.4641    9.8988   36.6593 H   0  0  0  0  0  0  0  0  0  0  0  0
   -6.0062    6.1460   39.1897 H   0  0  0  0  0  0  0  0  0  0  0  0
   -7.3135    6.2318   37.9787 H   0  0  0  0  0  0  0  0  0  0  0  0
   -4.4402    4.1069   34.6897 H   0  0  0  0  0  0  0  0  0  0  0  0
   -2.5971    5.3609   33.8113 H   0  0  0  0  0  0  0  0  0  0  0  0
   -2.8709    8.2695   32.5164 H   0  0  0  0  0  0  0  0  0  0  0  0
   -2.2491    8.9592   30.9788 H   0  0  0  0  0  0  0  0  0  0  0  0
   -3.0731    7.3631   30.9788 H   0  0  0  0  0  0  0  0  0  0  0  0
   -0.4254    7.6231   29.7284 H   0  0  0  0  0  0  0  0  0  0  0  0
    1.7665    6.5066   30.1127 H   0  0  0  0  0  0  0  0  0  0  0  0
    0.7106    5.8174   34.2445 H   0  0  0  0  0  0  0  0  0  0  0  0
    3.1898    5.4244   31.5580 H   0  0  0  0  0  0  0  0  0  0  0  0
    3.9122    2.6558   34.8032 H   0  0  0  0  0  0  0  0  0  0  0  0
    5.1459    5.7778   32.0785 H   0  0  0  0  0  0  0  0  0  0  0  0
    7.4173    4.7656   31.9394 H   0  0  0  0  0  0  0  0  0  0  0  0
    7.9296    2.7006   33.2298 H   0  0  0  0  0  0  0  0  0  0  0  0
  1  2  2  0
  2  3  1  0
  2 13  1  0
  3  4  1  0
  3  5  2  0
  5  6  1  0
  5 11  1  0
  6  7  2  0
  7  8  1  0
  7  9  1  0
  9 10  2  0
 10 11  1  0
 11 12  2  0
 12 13  1  0
 13 14  1  0
 14 15  2  0
 14 19  1  0
 15 16  1  0
 15 17  1  0
 17 18  2  0
 18 20  1  0
 19 20  2  0
 20 21  1  0
 21 22  1  0
 22 23  2  0
 22 24  1  0
 24 25  2  0
 24 26  1  0
 25 29  1  0
 26 27  2  0
 27 28  1  0
 28 29  2  0
 29 30  1  0
 30 31  1  0
 30 32  1  0
 30 33  1  0
  4 34  1  0
  4 35  1  0
  4 36  1  0
  8 37  1  0
  8 38  1  0
 10 39  1  0
 12 40  1  0
 16 41  1  0
 16 42  1  0
 16 43  1  0
 17 44  1  0
 18 45  1  0
 19 46  1  0
 21 47  1  0
 25 48  1  0
 26 49  1  0
 27 50  1  0
 28 51  1  0
M  CHG  1   3   1
A    1
OAK
A    2
CAH
A    3
NAG
A    4
CAT
A    5
C4
A    6
N3
A    7
C2
A    8
NAS
A    9
N1
A   10
C6
A   11
C5
A   12
CAJ
A   13
NAI
A   14
CAL
A   15
CAQ
A   16
CAR
A   17
CAP
A   18
CAO
A   19
CAM
A   20
CAN
A   21
NAU
A   22
CAV
A   23
OAW
A   24
CAX
A   25
CBC
A   26
CAY
A   27
CAZ
A   28
CBA
A   29
CBB
A   30
CBD
A   31
FBE
A   32
FBF
A   33
FBG
M  END
