2C70_PNZ_A_601
     RDKit          3D

 19 19  0  0  0  0  0  0  0  0999 V2000
   51.8040  154.4970   27.3590 C   0  0  0  0  0  0  0  0  0  0  0  0
   51.7670  153.1320   27.0320 C   0  0  0  0  0  0  0  0  0  0  0  0
   52.3710  152.6930   25.8550 C   0  0  0  0  0  0  0  0  0  0  0  0
   52.9970  153.6090   24.9940 C   0  0  0  0  0  0  0  0  0  0  0  0
   53.0370  154.9700   25.3060 C   0  0  0  0  0  0  0  0  0  0  0  0
   52.4360  155.4060   26.4900 C   0  0  0  0  0  0  0  0  0  0  0  0
   53.4200  151.7750   23.4320 N   0  0  0  0  0  0  0  0  0  0  0  0
   53.6460  153.1250   23.7130 C   0  0  0  0  0  0  0  0  0  0  0  0
   51.1940  154.9610   28.5510 N   0  0  0  0  0  0  0  0  0  0  0  0
   51.1670  156.1540   28.8200 O   0  0  0  0  0  0  0  0  0  0  0  0
   50.6790  154.1710   29.3400 O   0  0  0  0  0  0  0  0  0  0  0  0
   51.2656  152.4152   27.6990 H   0  0  0  0  0  0  0  0  0  0  0  0
   52.3573  151.6233   25.5991 H   0  0  0  0  0  0  0  0  0  0  0  0
   53.5322  155.6850   24.6325 H   0  0  0  0  0  0  0  0  0  0  0  0
   52.4572  156.4755   26.7465 H   0  0  0  0  0  0  0  0  0  0  0  0
   53.3322  151.2507   24.3142 H   0  0  0  0  0  0  0  0  0  0  0  0
   52.5511  151.6785   22.8873 H   0  0  0  0  0  0  0  0  0  0  0  0
   53.2500  153.7222   22.8784 H   0  0  0  0  0  0  0  0  0  0  0  0
   54.7317  153.2436   23.8438 H   0  0  0  0  0  0  0  0  0  0  0  0
  1  2  2  0
  1  6  1  0
  1  9  1  0
  2  3  1  0
  3  4  2  0
  4  5  1  0
  4  8  1  0
  5  6  2  0
  7  8  1  0
  9 10  2  0
  9 11  1  0
  2 12  1  0
  3 13  1  0
  5 14  1  0
  6 15  1  0
  7 16  1  0
  7 17  1  0
  8 18  1  0
  8 19  1  0
M  CHG  2   9   1  11  -1
A    1
C6
A    2
C7
A    3
C8
A    4
C9
A    5
C4
A    6
C5
A    7
N2
A    8
C3
A    9
N10
A   10
O11
A   11
O12
M  END
