2HJB_PZM_D_1102
     RDKit          3D

 21 21  0  0  0  0  0  0  0  0999 V2000
   20.0500   14.3200   30.6080 N   0  0  0  0  0  0  0  0  0  0  0  0
   21.5070   14.4960   30.4990 C   0  0  0  0  0  0  0  0  0  0  0  0
   22.0690   15.3970   29.4490 C   0  0  0  0  0  0  0  0  0  0  0  0
   22.9340   16.4490   29.7790 C   0  0  0  0  0  0  0  0  0  0  0  0
   23.4610   17.3390   28.7970 C   0  0  0  0  0  0  0  0  0  0  0  0
   23.1310   17.2260   27.4200 C   0  0  0  0  0  0  0  0  0  0  0  0
   22.2670   16.2460   26.9900 C   0  0  0  0  0  0  0  0  0  0  0  0
   21.6680   15.2270   28.1330 C   0  0  0  0  0  0  0  0  0  0  0  0
   23.6530   18.1460   26.4930 O   0  0  0  0  0  0  0  0  0  0  0  0
   23.4930   19.3820   27.0110 C   0  0  0  0  0  0  0  0  0  0  0  0
   19.7815   14.2876   31.6019 H   0  0  0  0  0  0  0  0  0  0  0  0
   19.5735   15.1095   30.1492 H   0  0  0  0  0  0  0  0  0  0  0  0
   21.8548   14.8813   31.4688 H   0  0  0  0  0  0  0  0  0  0  0  0
   21.8625   13.4997   30.1972 H   0  0  0  0  0  0  0  0  0  0  0  0
   23.2164   16.5934   30.8323 H   0  0  0  0  0  0  0  0  0  0  0  0
   24.1452   18.1389   29.1163 H   0  0  0  0  0  0  0  0  0  0  0  0
   21.9895   16.1484   25.9301 H   0  0  0  0  0  0  0  0  0  0  0  0
   20.9640   14.4274   27.8592 H   0  0  0  0  0  0  0  0  0  0  0  0
   23.5006   19.3230   28.1094 H   0  0  0  0  0  0  0  0  0  0  0  0
   24.3147   20.0305   26.6729 H   0  0  0  0  0  0  0  0  0  0  0  0
   22.5333   19.7999   26.6729 H   0  0  0  0  0  0  0  0  0  0  0  0
  1  2  1  0
  2  3  1  0
  3  4  2  0
  3  8  1  0
  4  5  1  0
  5  6  2  0
  6  7  1  0
  6  9  1  0
  7  8  2  0
  9 10  1  0
  1 11  1  0
  1 12  1  0
  2 13  1  0
  2 14  1  0
  4 15  1  0
  5 16  1  0
  7 17  1  0
  8 18  1  0
 10 19  1  0
 10 20  1  0
 10 21  1  0
A    1
N1
A    2
CB
A    3
CG
A    4
CD1
A    5
CE1
A    6
CZ
A    7
CE2
A    8
CD2
A    9
O1
A   10
CF1
M  END
