2HK5_1BM_A_499
     RDKit          3D

 61 64  0  0  0  0  0  0  0  0999 V2000
   50.8600    8.9450    2.0930 O   0  0  0  0  0  0  0  0  0  0  0  0
   49.9570    9.8340    1.6810 C   0  0  0  0  0  0  0  0  0  0  0  0
   49.1740   10.5830    2.5600 C   0  0  0  0  0  0  0  0  0  0  0  0
   48.2310   11.4750    2.0540 C   0  0  0  0  0  0  0  0  0  0  0  0
   48.0640   11.6020    0.6760 C   0  0  0  0  0  0  0  0  0  0  0  0
   47.0630   12.5630    0.0980 C   0  0  0  0  0  0  0  0  0  0  0  0
   49.7910    9.9970    0.3110 C   0  0  0  0  0  0  0  0  0  0  0  0
   48.8480   10.8740   -0.2050 C   0  0  0  0  0  0  0  0  0  0  0  0
   48.7100   10.9980   -1.5470 N   0  0  0  0  0  0  0  0  0  0  0  0
   48.1220   10.0520   -2.3110 C   0  0  0  0  0  0  0  0  0  0  0  0
   48.0070   10.3040   -3.6290 N   0  0  0  0  0  0  0  0  0  0  0  0
   47.6200    8.8480   -1.8150 C   0  0  0  0  0  0  0  0  0  0  0  0
   47.0360    7.9120   -2.6660 C   0  0  0  0  0  0  0  0  0  0  0  0
   46.5400    6.7210   -2.2460 N   0  0  0  0  0  0  0  0  0  0  0  0
   46.5130    6.2580   -0.8700 C   0  0  0  0  0  0  0  0  0  0  0  0
   47.8170    5.7050   -0.2950 C   0  0  0  0  0  0  0  0  0  0  0  0
   48.0730    4.3820   -0.8520 N   0  0  0  0  0  0  0  0  0  0  0  0
   47.8700    3.2180    0.0070 C   0  0  0  0  0  0  0  0  0  0  0  0
   47.7360    1.9020   -0.7310 C   0  0  0  0  0  0  0  0  0  0  0  0
   48.5400    4.2820   -2.2280 C   0  0  0  0  0  0  0  0  0  0  0  0
   49.8750    4.9660   -2.4050 C   0  0  0  0  0  0  0  0  0  0  0  0
   46.9420    8.2130   -3.9820 N   0  0  0  0  0  0  0  0  0  0  0  0
   47.4250    9.3900   -4.4400 C   0  0  0  0  0  0  0  0  0  0  0  0
   47.3700    9.7520   -5.7880 N   0  0  0  0  0  0  0  0  0  0  0  0
   46.7260    9.1750   -6.8850 C   0  0  0  0  0  0  0  0  0  0  0  0
   45.9370    8.0330   -6.9750 C   0  0  0  0  0  0  0  0  0  0  0  0
   46.9940    9.9570   -7.9950 C   0  0  0  0  0  0  0  0  0  0  0  0
   47.7500   11.0340   -7.6980 N   0  0  0  0  0  0  0  0  0  0  0  0
   48.0310   10.9430   -6.2840 C   0  0  0  0  0  0  0  0  0  0  0  0
   46.4960    9.6290   -9.2480 C   0  0  0  0  0  0  0  0  0  0  0  0
   45.7160    8.4790   -9.3500 C   0  0  0  0  0  0  0  0  0  0  0  0
   45.4430    7.6880   -8.2310 C   0  0  0  0  0  0  0  0  0  0  0  0
   51.0065    8.8007    3.0614 H   0  0  0  0  0  0  0  0  0  0  0  0
   49.3006   10.4698    3.6468 H   0  0  0  0  0  0  0  0  0  0  0  0
   47.6192   12.0782    2.7409 H   0  0  0  0  0  0  0  0  0  0  0  0
   46.5312   13.0736    0.9144 H   0  0  0  0  0  0  0  0  0  0  0  0
   47.5847   13.3072   -0.5217 H   0  0  0  0  0  0  0  0  0  0  0  0
   46.3407   12.0114   -0.5217 H   0  0  0  0  0  0  0  0  0  0  0  0
   50.4214    9.4177   -0.3797 H   0  0  0  0  0  0  0  0  0  0  0  0
   49.0683   11.8489   -2.0036 H   0  0  0  0  0  0  0  0  0  0  0  0
   47.6863    8.6351   -0.7378 H   0  0  0  0  0  0  0  0  0  0  0  0
   46.1501    6.0928   -2.9631 H   0  0  0  0  0  0  0  0  0  0  0  0
   46.2072    7.1069   -0.2408 H   0  0  0  0  0  0  0  0  0  0  0  0
   45.8183    5.4051   -0.8706 H   0  0  0  0  0  0  0  0  0  0  0  0
   48.6468    6.3788   -0.5548 H   0  0  0  0  0  0  0  0  0  0  0  0
   47.7324    5.6313    0.7993 H   0  0  0  0  0  0  0  0  0  0  0  0
   48.7292    3.1420    0.6896 H   0  0  0  0  0  0  0  0  0  0  0  0
   46.9153    3.3799    0.5289 H   0  0  0  0  0  0  0  0  0  0  0  0
   47.6524    1.0808   -0.0040 H   0  0  0  0  0  0  0  0  0  0  0  0
   46.8356    1.9258   -1.3625 H   0  0  0  0  0  0  0  0  0  0  0  0
   48.6227    1.7438   -1.3625 H   0  0  0  0  0  0  0  0  0  0  0  0
   48.6432    3.2199   -2.4952 H   0  0  0  0  0  0  0  0  0  0  0  0
   47.8064    4.7777   -2.8808 H   0  0  0  0  0  0  0  0  0  0  0  0
   50.3072    5.1875   -1.4180 H   0  0  0  0  0  0  0  0  0  0  0  0
   50.5545    4.3050   -2.9629 H   0  0  0  0  0  0  0  0  0  0  0  0
   49.7355    5.9037   -2.9629 H   0  0  0  0  0  0  0  0  0  0  0  0
   45.7114    7.4245   -6.0868 H   0  0  0  0  0  0  0  0  0  0  0  0
   48.6349   11.6472   -5.6929 H   0  0  0  0  0  0  0  0  0  0  0  0
   46.7091   10.2537  -10.1280 H   0  0  0  0  0  0  0  0  0  0  0  0
   45.3077    8.1885  -10.3292 H   0  0  0  0  0  0  0  0  0  0  0  0
   44.8303    6.7814   -8.3433 H   0  0  0  0  0  0  0  0  0  0  0  0
  1  2  1  0
  2  3  2  0
  2  7  1  0
  3  4  1  0
  4  5  2  0
  5  6  1  0
  5  8  1  0
  7  8  2  0
  8  9  1  0
  9 10  1  0
 10 11  2  0
 10 12  1  0
 11 23  1  0
 12 13  2  0
 13 14  1  0
 13 22  1  0
 14 15  1  0
 15 16  1  0
 16 17  1  0
 17 18  1  0
 17 20  1  0
 18 19  1  0
 20 21  1  0
 22 23  2  0
 23 24  1  0
 24 25  1  0
 24 29  1  0
 25 26  2  0
 25 27  1  0
 26 32  1  0
 27 28  1  0
 27 30  2  0
 28 29  2  0
 30 31  1  0
 31 32  2  0
  1 33  1  0
  3 34  1  0
  4 35  1  0
  6 36  1  0
  6 37  1  0
  6 38  1  0
  7 39  1  0
  9 40  1  0
 12 41  1  0
 14 42  1  0
 15 43  1  0
 15 44  1  0
 16 45  1  0
 16 46  1  0
 18 47  1  0
 18 48  1  0
 19 49  1  0
 19 50  1  0
 19 51  1  0
 20 52  1  0
 20 53  1  0
 21 54  1  0
 21 55  1  0
 21 56  1  0
 26 57  1  0
 29 58  1  0
 30 59  1  0
 31 60  1  0
 32 61  1  0
A    1
O21
A    2
C17
A    3
C13
A    4
C16
A    5
C15
A    6
C19
A    7
C14
A    8
C11
A    9
N3
A   10
C2
A   11
N1
A   12
C9
A   13
C8
A   14
N10
A   15
C27
A   16
C30
A   17
N34
A   18
C36
A   19
C42
A   20
C35
A   21
C38
A   22
N6
A   23
C5
A   24
N7
A   25
C49
A   26
C54
A   27
C53
A   28
N51
A   29
C50
A   30
C55
A   31
C56
A   32
C58
M  END
