2HMM_AN3_A_801
     RDKit          3D

 24 26  0  0  0  0  0  0  0  0999 V2000
   13.6430   51.7630   80.1270 C   0  0  0  0  0  0  0  0  0  0  0  0
   13.2550   53.0680   80.3070 C   0  0  0  0  0  0  0  0  0  0  0  0
   13.7580   50.9040   81.1850 C   0  0  0  0  0  0  0  0  0  0  0  0
   12.9610   53.5210   81.5570 C   0  0  0  0  0  0  0  0  0  0  0  0
   13.4430   51.3590   82.4270 C   0  0  0  0  0  0  0  0  0  0  0  0
   13.0710   52.6600   82.6270 C   0  0  0  0  0  0  0  0  0  0  0  0
   15.1100   47.4280   78.2120 C   0  0  0  0  0  0  0  0  0  0  0  0
   15.0040   48.3090   77.1630 C   0  0  0  0  0  0  0  0  0  0  0  0
   14.8340   47.8730   79.4810 C   0  0  0  0  0  0  0  0  0  0  0  0
   14.6140   49.6050   77.4050 C   0  0  0  0  0  0  0  0  0  0  0  0
   14.4630   49.1730   79.7160 C   0  0  0  0  0  0  0  0  0  0  0  0
   14.3490   50.0320   78.6680 C   0  0  0  0  0  0  0  0  0  0  0  0
   13.9230   51.3060   78.8670 C   0  0  0  0  0  0  0  0  0  0  0  0
   14.1600   49.6100   80.9830 C   0  0  0  0  0  0  0  0  0  0  0  0
   13.1819   53.7456   79.4436 H   0  0  0  0  0  0  0  0  0  0  0  0
   12.6396   54.5617   81.7107 H   0  0  0  0  0  0  0  0  0  0  0  0
   13.4880   50.6706   83.2837 H   0  0  0  0  0  0  0  0  0  0  0  0
   12.8591   53.0198   83.6447 H   0  0  0  0  0  0  0  0  0  0  0  0
   15.4108   46.3843   78.0380 H   0  0  0  0  0  0  0  0  0  0  0  0
   15.2294   47.9801   76.1378 H   0  0  0  0  0  0  0  0  0  0  0  0
   14.9118   47.1735   80.3263 H   0  0  0  0  0  0  0  0  0  0  0  0
   14.5149   50.3069   76.5639 H   0  0  0  0  0  0  0  0  0  0  0  0
   13.8014   51.9790   78.0055 H   0  0  0  0  0  0  0  0  0  0  0  0
   14.2403   48.9201   81.8360 H   0  0  0  0  0  0  0  0  0  0  0  0
  1  2  2  0
  1  3  1  0
  1 13  1  0
  2  4  1  0
  3  5  2  0
  3 14  1  0
  4  6  2  0
  5  6  1  0
  7  8  1  0
  7  9  2  0
  8 10  2  0
  9 11  1  0
 10 12  1  0
 11 12  1  0
 11 14  2  0
 12 13  2  0
  2 15  1  0
  4 16  1  0
  5 17  1  0
  6 18  1  0
  7 19  1  0
  8 20  1  0
  9 21  1  0
 10 22  1  0
 13 23  1  0
 14 24  1  0
A    1
C1
A    2
C2
A    3
C3
A    4
C4
A    5
C5
A    6
C6
A    7
C7
A    8
C8
A    9
C9
A   10
C10
A   11
C11
A   12
C12
A   13
C13
A   14
C14
M  END
