2BMR_3NT_A_1442
     RDKit          3D

 17 17  0  0  0  0  0  0  0  0999 V2000
   53.5540   66.6440    2.8110 C   0  0  0  0  0  0  0  0  0  0  0  0
   53.3170   66.6100    1.4370 C   0  0  0  0  0  0  0  0  0  0  0  0
   53.1030   65.3910    0.7920 C   0  0  0  0  0  0  0  0  0  0  0  0
   53.1270   64.2040    1.5330 C   0  0  0  0  0  0  0  0  0  0  0  0
   53.3640   64.2370    2.9090 C   0  0  0  0  0  0  0  0  0  0  0  0
   53.5800   65.4600    3.5490 C   0  0  0  0  0  0  0  0  0  0  0  0
   53.7910   67.9650    3.4950 C   0  0  0  0  0  0  0  0  0  0  0  0
   52.8690   65.4020   -0.5480 N   0  0  0  0  0  0  0  0  0  0  0  0
   52.5070   66.4700   -1.0820 O   0  0  0  0  0  0  0  0  0  0  0  0
   53.0140   64.3860   -1.2570 O   0  0  0  0  0  0  0  0  0  0  0  0
   53.2987   67.5464    0.8602 H   0  0  0  0  0  0  0  0  0  0  0  0
   52.9584   63.2407    1.0294 H   0  0  0  0  0  0  0  0  0  0  0  0
   53.3806   63.3018    3.4878 H   0  0  0  0  0  0  0  0  0  0  0  0
   53.7701   65.4895    4.6320 H   0  0  0  0  0  0  0  0  0  0  0  0
   53.7655   67.8230    4.5855 H   0  0  0  0  0  0  0  0  0  0  0  0
   54.7743   68.3597    3.1995 H   0  0  0  0  0  0  0  0  0  0  0  0
   53.0062   68.6769    3.1995 H   0  0  0  0  0  0  0  0  0  0  0  0
  1  2  2  0
  1  6  1  0
  1  7  1  0
  2  3  1  0
  3  4  2  0
  3  8  1  0
  4  5  1  0
  5  6  2  0
  8  9  2  0
  8 10  1  0
  2 11  1  0
  4 12  1  0
  5 13  1  0
  6 14  1  0
  7 15  1  0
  7 16  1  0
  7 17  1  0
M  CHG  2   8   1  10  -1
A    1
C1
A    2
C2
A    3
C3
A    4
C4
A    5
C5
A    6
C6
A    7
C7
A    8
N3
A    9
O1N
A   10
O2N
M  END
