2HNZ_PC0_A_999
     RDKit          3D

 42 43  0  0  0  0  0  0  0  0999 V2000
   -0.2180  -36.8200   19.1470 C   0  0  0  0  0  0  0  0  0  0  0  0
   -0.0790  -36.9420   20.5100 N   0  0  0  0  0  0  0  0  0  0  0  0
   -1.0630  -36.4900   21.3740 C   0  0  0  0  0  0  0  0  0  0  0  0
   -2.2340  -35.8880   20.8660 C   0  0  0  0  0  0  0  0  0  0  0  0
   -2.3920  -35.7540   19.4780 C   0  0  0  0  0  0  0  0  0  0  0  0
   -1.3820  -36.2180   18.6200 C   0  0  0  0  0  0  0  0  0  0  0  0
   -3.4620  -35.3240   21.9270 C   0  0  0  0  0  0  0  0  0  0  0  0
    0.7210  -37.2570   18.2810 N   0  0  0  0  0  0  0  0  0  0  0  0
    1.8880  -37.8640   18.5120 C   0  0  0  0  0  0  0  0  0  0  0  0
    3.0990  -37.8660   17.2720 S   0  0  0  0  0  0  0  0  0  0  0  0
    2.0340  -38.4450   19.7030 N   0  0  0  0  0  0  0  0  0  0  0  0
    3.2480  -39.1610   20.0350 C   0  0  0  0  0  0  0  0  0  0  0  0
    3.2920  -39.4700   21.5080 C   0  0  0  0  0  0  0  0  0  0  0  0
    3.4010  -38.1730   22.2740 C   0  0  0  0  0  0  0  0  0  0  0  0
    4.5750  -37.4250   22.1980 N   0  0  0  0  0  0  0  0  0  0  0  0
    4.7300  -36.2410   22.8920 C   0  0  0  0  0  0  0  0  0  0  0  0
    3.6770  -35.7660   23.7040 C   0  0  0  0  0  0  0  0  0  0  0  0
    2.4720  -36.5070   23.8040 C   0  0  0  0  0  0  0  0  0  0  0  0
    2.3250  -37.7220   23.0770 C   0  0  0  0  0  0  0  0  0  0  0  0
    1.4380  -36.1030   24.6610 O   0  0  0  0  0  0  0  0  0  0  0  0
    0.8000  -34.8600   24.4420 C   0  0  0  0  0  0  0  0  0  0  0  0
   -0.0970  -34.6010   25.6480 C   0  0  0  0  0  0  0  0  0  0  0  0
    1.1910  -38.4260   23.1460 F   0  0  0  0  0  0  0  0  0  0  0  0
   -0.9311  -36.6008   22.4604 H   0  0  0  0  0  0  0  0  0  0  0  0
   -3.2997  -35.2893   19.0656 H   0  0  0  0  0  0  0  0  0  0  0  0
   -1.4979  -36.1121   17.5313 H   0  0  0  0  0  0  0  0  0  0  0  0
   -3.1421  -35.4709   22.9691 H   0  0  0  0  0  0  0  0  0  0  0  0
   -3.6402  -34.2538   21.7456 H   0  0  0  0  0  0  0  0  0  0  0  0
   -4.3899  -35.8862   21.7456 H   0  0  0  0  0  0  0  0  0  0  0  0
    0.5034  -37.0974   17.2870 H   0  0  0  0  0  0  0  0  0  0  0  0
    1.2740  -38.3838   20.3955 H   0  0  0  0  0  0  0  0  0  0  0  0
    3.2801  -40.1022   19.4666 H   0  0  0  0  0  0  0  0  0  0  0  0
    4.1133  -38.5327   19.7773 H   0  0  0  0  0  0  0  0  0  0  0  0
    2.3728  -39.9974   21.8028 H   0  0  0  0  0  0  0  0  0  0  0  0
    4.1591  -40.1094   21.7301 H   0  0  0  0  0  0  0  0  0  0  0  0
    5.6678  -35.6716   22.8127 H   0  0  0  0  0  0  0  0  0  0  0  0
    3.7912  -34.8227   24.2581 H   0  0  0  0  0  0  0  0  0  0  0  0
    1.5505  -34.0610   24.3508 H   0  0  0  0  0  0  0  0  0  0  0  0
    0.2124  -34.8786   23.5123 H   0  0  0  0  0  0  0  0  0  0  0  0
    0.4752  -34.7662   26.5728 H   0  0  0  0  0  0  0  0  0  0  0  0
   -0.4574  -33.5621   25.6205 H   0  0  0  0  0  0  0  0  0  0  0  0
   -0.9557  -35.2879   25.6205 H   0  0  0  0  0  0  0  0  0  0  0  0
  1  2  2  0
  1  6  1  0
  1  8  1  0
  2  3  1  0
  3  4  2  0
  4  5  1  0
  4  7  1  0
  5  6  2  0
  8  9  1  0
  9 10  2  0
  9 11  1  0
 11 12  1  0
 12 13  1  0
 13 14  1  0
 14 15  2  0
 14 19  1  0
 15 16  1  0
 16 17  2  0
 17 18  1  0
 18 19  2  0
 18 20  1  0
 19 23  1  0
 20 21  1  0
 21 22  1  0
  3 24  1  0
  5 25  1  0
  6 26  1  0
  7 27  1  0
  7 28  1  0
  7 29  1  0
  8 30  1  0
 11 31  1  0
 12 32  1  0
 12 33  1  0
 13 34  1  0
 13 35  1  0
 16 36  1  0
 17 37  1  0
 21 38  1  0
 21 39  1  0
 22 40  1  0
 22 41  1  0
 22 42  1  0
A    1
C1
A    2
N2
A    3
C3
A    4
C4
A    5
C5
A    6
C6
A    7
CL7
A    8
N8
A    9
C9
A   10
S9
A   11
N10
A   12
C11
A   13
C12
A   14
C13
A   15
N14
A   16
C15
A   17
C16
A   18
C17
A   19
C18
A   20
O17
A   21
CA
A   22
CB
A   23
F18
M  END
