2HOG_710_A_324
     RDKit          3D

 57 62  0  0  0  0  0  0  0  0999 V2000
   14.1590   -2.6780   11.8960 C   0  0  0  0  0  0  0  0  0  0  0  0
   12.9890   -1.8780   11.7570 C   0  0  0  0  0  0  0  0  0  0  0  0
   13.0200   -0.7140   10.9040 C   0  0  0  0  0  0  0  0  0  0  0  0
   15.3630   -2.3500   11.2170 C   0  0  0  0  0  0  0  0  0  0  0  0
   15.4060   -1.1850   10.3740 C   0  0  0  0  0  0  0  0  0  0  0  0
   14.2370   -0.4080   10.2400 C   0  0  0  0  0  0  0  0  0  0  0  0
   14.5730    0.6110    9.3930 N   0  0  0  0  0  0  0  0  0  0  0  0
   15.8420    0.5770    8.9690 N   0  0  0  0  0  0  0  0  0  0  0  0
   16.3620   -0.5080    9.5570 C   0  0  0  0  0  0  0  0  0  0  0  0
   17.7760   -0.8610    9.3190 C   0  0  0  0  0  0  0  0  0  0  0  0
   18.6860   -0.0870    8.6610 N   0  0  0  0  0  0  0  0  0  0  0  0
   18.4150   -2.0180    9.7130 C   0  0  0  0  0  0  0  0  0  0  0  0
   19.7480   -1.9530    9.2840 C   0  0  0  0  0  0  0  0  0  0  0  0
   19.9020   -0.7210    8.6150 C   0  0  0  0  0  0  0  0  0  0  0  0
   21.1360   -0.3100    8.0400 C   0  0  0  0  0  0  0  0  0  0  0  0
   22.2370   -1.2020    8.1480 C   0  0  0  0  0  0  0  0  0  0  0  0
   22.1150   -2.4550    8.8120 C   0  0  0  0  0  0  0  0  0  0  0  0
   20.8650   -2.8340    9.3850 C   0  0  0  0  0  0  0  0  0  0  0  0
   23.2870   -3.3990    8.8850 C   0  0  0  0  0  0  0  0  0  0  0  0
   23.6250   -4.0830    7.5290 N   0  0  0  0  0  0  0  0  0  0  0  0
   24.6910   -5.1640    7.7260 C   0  0  0  0  0  0  0  0  0  0  0  0
   25.0370   -5.8460    6.3840 C   0  0  0  0  0  0  0  0  0  0  0  0
   23.7880   -6.4160    5.6990 C   0  0  0  0  0  0  0  0  0  0  0  0
   22.7200   -5.3410    5.5140 C   0  0  0  0  0  0  0  0  0  0  0  0
   22.3620   -4.6780    6.8490 C   0  0  0  0  0  0  0  0  0  0  0  0
   11.7680   -2.2430   12.4990 C   0  0  0  0  0  0  0  0  0  0  0  0
   10.6950   -1.4370   13.0310 C   0  0  0  0  0  0  0  0  0  0  0  0
    9.8060   -2.2310   13.6370 N   0  0  0  0  0  0  0  0  0  0  0  0
   10.3510   -3.4310   13.4570 N   0  0  0  0  0  0  0  0  0  0  0  0
   11.5060   -3.5230   12.7970 N   0  0  0  0  0  0  0  0  0  0  0  0
   10.4630    0.0350   13.0030 C   0  0  0  0  0  0  0  0  0  0  0  0
    9.8800    0.5140   14.2080 O   0  0  0  0  0  0  0  0  0  0  0  0
   14.1299   -3.5678   12.5421 H   0  0  0  0  0  0  0  0  0  0  0  0
   12.1283   -0.0835   10.7725 H   0  0  0  0  0  0  0  0  0  0  0  0
   16.2556   -2.9820   11.3349 H   0  0  0  0  0  0  0  0  0  0  0  0
   13.9068    1.3422    9.1058 H   0  0  0  0  0  0  0  0  0  0  0  0
   18.4889    0.8397    8.2569 H   0  0  0  0  0  0  0  0  0  0  0  0
   17.9570   -2.8495   10.2688 H   0  0  0  0  0  0  0  0  0  0  0  0
   21.2344    0.6604    7.5315 H   0  0  0  0  0  0  0  0  0  0  0  0
   23.2047   -0.9179    7.7088 H   0  0  0  0  0  0  0  0  0  0  0  0
   20.7632   -3.7998    9.9016 H   0  0  0  0  0  0  0  0  0  0  0  0
   24.1692   -2.8322    9.2174 H   0  0  0  0  0  0  0  0  0  0  0  0
   23.0121   -4.1987    9.5886 H   0  0  0  0  0  0  0  0  0  0  0  0
   25.5995   -4.7029    8.1407 H   0  0  0  0  0  0  0  0  0  0  0  0
   24.2976   -5.9247    8.4163 H   0  0  0  0  0  0  0  0  0  0  0  0
   25.5027   -5.1053    5.7173 H   0  0  0  0  0  0  0  0  0  0  0  0
   25.7256   -6.6787    6.5898 H   0  0  0  0  0  0  0  0  0  0  0  0
   24.0699   -6.8149    4.7134 H   0  0  0  0  0  0  0  0  0  0  0  0
   23.3743   -7.2117    6.3359 H   0  0  0  0  0  0  0  0  0  0  0  0
   23.0994   -4.5738    4.8230 H   0  0  0  0  0  0  0  0  0  0  0  0
   21.8149   -5.8162    5.1079 H   0  0  0  0  0  0  0  0  0  0  0  0
   21.9144   -5.4297    7.5158 H   0  0  0  0  0  0  0  0  0  0  0  0
   21.6496   -3.8623    6.6562 H   0  0  0  0  0  0  0  0  0  0  0  0
    9.8881   -4.2758   13.8217 H   0  0  0  0  0  0  0  0  0  0  0  0
   11.4273    0.5419   12.8511 H   0  0  0  0  0  0  0  0  0  0  0  0
    9.7620    0.2489   12.1827 H   0  0  0  0  0  0  0  0  0  0  0  0
   10.3559    0.1230   14.9830 H   0  0  0  0  0  0  0  0  0  0  0  0
  1  2  2  0
  1  4  1  0
  2  3  1  0
  2 26  1  0
  3  6  2  0
  4  5  2  0
  5  6  1  0
  5  9  1  0
  6  7  1  0
  7  8  1  0
  8  9  2  0
  9 10  1  0
 10 11  1  0
 10 12  2  0
 11 14  1  0
 12 13  1  0
 13 14  2  0
 13 18  1  0
 14 15  1  0
 15 16  2  0
 16 17  1  0
 17 18  2  0
 17 19  1  0
 19 20  1  0
 20 21  1  0
 20 25  1  0
 21 22  1  0
 22 23  1  0
 23 24  1  0
 24 25  1  0
 26 27  1  0
 26 30  2  0
 27 28  2  0
 27 31  1  0
 28 29  1  0
 29 30  1  0
 31 32  1  0
  1 33  1  0
  3 34  1  0
  4 35  1  0
  7 36  1  0
 11 37  1  0
 12 38  1  0
 15 39  1  0
 16 40  1  0
 18 41  1  0
 19 42  1  0
 19 43  1  0
 21 44  1  0
 21 45  1  0
 22 46  1  0
 22 47  1  0
 23 48  1  0
 23 49  1  0
 24 50  1  0
 24 51  1  0
 25 52  1  0
 25 53  1  0
 29 54  1  0
 31 55  1  0
 31 56  1  0
 32 57  1  0
A    1
C
A    2
C1
A    3
C2
A    4
C3
A    5
C4
A    6
C5
A    7
N
A    8
N6
A    9
C7
A   10
C8
A   11
N9
A   12
C10
A   13
C11
A   14
C12
A   15
C13
A   16
C14
A   17
C15
A   18
C16
A   19
C17
A   20
N18
A   21
C19
A   22
C20
A   23
C21
A   24
C22
A   25
C23
A   26
C24
A   27
C25
A   28
N26
A   29
N27
A   30
N28
A   31
C29
A   32
O
M  END
