2HS3_FGR_A_2166
     RDKit          3D

 35 35  0  0  0  0  0  0  0  0999 V2000
   43.3620    9.4910   92.7070 C   0  0  0  0  0  0  0  0  0  0  0  0
   43.7230    8.1370   92.3010 O   0  0  0  0  0  0  0  0  0  0  0  0
   42.7400   10.4210   91.6600 C   0  0  0  0  0  0  0  0  0  0  0  0
   41.9190    9.7170   90.7050 O   0  0  0  0  0  0  0  0  0  0  0  0
   41.9760   11.3720   92.5190 C   0  0  0  0  0  0  0  0  0  0  0  0
   41.7870   10.7570   93.7830 O   0  0  0  0  0  0  0  0  0  0  0  0
   42.3290    9.4270   93.7910 C   0  0  0  0  0  0  0  0  0  0  0  0
   42.7450    9.1170   95.1950 C   0  0  0  0  0  0  0  0  0  0  0  0
   41.6180    9.0210   96.0600 O   0  0  0  0  0  0  0  0  0  0  0  0
   42.6690   12.6380   92.6830 N   0  0  0  0  0  0  0  0  0  0  0  0
   42.0640   13.8480   92.7710 C   0  0  0  0  0  0  0  0  0  0  0  0
   40.8540   13.9500   92.7180 O   0  0  0  0  0  0  0  0  0  0  0  0
   42.8960   15.0930   92.9340 C   0  0  0  0  0  0  0  0  0  0  0  0
   44.3460   14.7800   92.9720 N   0  0  0  0  0  0  0  0  0  0  0  0
   41.7840    8.3830   97.5270 P   0  0  0  0  0  0  0  0  0  0  0  0
   42.7380    9.3520   98.2550 O   0  0  0  0  0  0  0  0  0  0  0  0
   42.3310    6.9710   97.4530 O   0  0  0  0  0  0  0  0  0  0  0  0
   40.3670    8.4180   98.1150 O   0  0  0  0  0  0  0  0  0  0  0  0
   44.7010   15.2770   91.7700 C   0  0  0  0  0  0  0  0  0  0  0  0
   45.8630   15.1790   91.4660 O   0  0  0  0  0  0  0  0  0  0  0  0
   44.3407    9.9111   92.9821 H   0  0  0  0  0  0  0  0  0  0  0  0
   43.8716    7.5798   93.1057 H   0  0  0  0  0  0  0  0  0  0  0  0
   43.4748   10.9188   91.0102 H   0  0  0  0  0  0  0  0  0  0  0  0
   41.2622    9.1538   91.1862 H   0  0  0  0  0  0  0  0  0  0  0  0
   41.0130   11.5964   92.0371 H   0  0  0  0  0  0  0  0  0  0  0  0
   41.6708    8.5771   93.5576 H   0  0  0  0  0  0  0  0  0  0  0  0
   43.2868    8.1597   95.2050 H   0  0  0  0  0  0  0  0  0  0  0  0
   43.3894    9.9330   95.5541 H   0  0  0  0  0  0  0  0  0  0  0  0
   43.6973   12.6146   92.7364 H   0  0  0  0  0  0  0  0  0  0  0  0
   42.6985   15.7676   92.0879 H   0  0  0  0  0  0  0  0  0  0  0  0
   42.6215   15.5678   93.8875 H   0  0  0  0  0  0  0  0  0  0  0  0
   44.9122   14.3204   93.6994 H   0  0  0  0  0  0  0  0  0  0  0  0
   42.6330    9.2454   99.2336 H   0  0  0  0  0  0  0  0  0  0  0  0
   40.4198    8.4167   99.1036 H   0  0  0  0  0  0  0  0  0  0  0  0
   43.9667   15.7484   91.1003 H   0  0  0  0  0  0  0  0  0  0  0  0
  1  2  1  0
  1  3  1  0
  1  7  1  0
  3  4  1  0
  3  5  1  0
  5  6  1  0
  5 10  1  0
  6  7  1  0
  7  8  1  0
  8  9  1  0
  9 15  1  0
 10 11  1  0
 11 12  2  0
 11 13  1  0
 13 14  1  0
 14 19  1  0
 15 16  1  0
 15 17  2  0
 15 18  1  0
 19 20  2  0
  1 21  1  0
  2 22  1  0
  3 23  1  0
  4 24  1  0
  5 25  1  0
  7 26  1  0
  8 27  1  0
  8 28  1  0
 10 29  1  0
 13 30  1  0
 13 31  1  0
 14 32  1  0
 16 33  1  0
 18 34  1  0
 19 35  1  0
A    1
C1
A    2
O6
A    3
C2
A    4
O8
A    5
C3
A    6
O4
A    7
C5
A    8
C10
A    9
O12
A   10
N19
A   11
C21
A   12
O22
A   13
C23
A   14
N24
A   15
P15
A   16
O16
A   17
O17
A   18
O18
A   19
C19
A   20
O20
M  END
