2HUW_YVN_A_203
     RDKit          3D

 66 67  0  0  0  0  0  0  0  0999 V2000
    8.2350   63.7390   10.6730 O   0  0  0  0  0  0  0  0  0  0  0  0
    8.2490   62.1720   10.3480 P   0  0  0  0  0  0  0  0  0  0  0  0
    8.2420   62.0480    8.7420 O   0  0  0  0  0  0  0  0  0  0  0  0
    7.0960   61.4720   10.9650 O   0  0  0  0  0  0  0  0  0  0  0  0
    9.6910   61.6470   10.8750 O   0  0  0  0  0  0  0  0  0  0  0  0
   10.0850   60.4600   10.3110 C   0  0  0  0  0  0  0  0  0  0  0  0
    9.4450   59.2470   10.6470 C   0  0  0  0  0  0  0  0  0  0  0  0
    9.9710   58.0190   10.1910 C   0  0  0  0  0  0  0  0  0  0  0  0
   11.2440   60.4390    9.5100 C   0  0  0  0  0  0  0  0  0  0  0  0
   11.7670   59.2150    9.0560 C   0  0  0  0  0  0  0  0  0  0  0  0
   11.1360   57.9990    9.3970 C   0  0  0  0  0  0  0  0  0  0  0  0
   11.7600   56.6480    8.9590 C   0  0  0  0  0  0  0  0  0  0  0  0
   11.0140   55.8130    7.8890 C   0  0  0  0  0  0  0  0  0  0  0  0
    9.6700   56.3640    7.3670 C   0  0  0  0  0  0  0  0  0  0  0  0
    9.6210   57.3720    6.6630 O   0  0  0  0  0  0  0  0  0  0  0  0
    8.6000   55.6590    7.7340 N   0  0  0  0  0  0  0  0  0  0  0  0
    7.5730   55.5170    6.9080 C   0  0  0  0  0  0  0  0  0  0  0  0
   12.2690   56.6010    7.5070 C   0  0  0  0  0  0  0  0  0  0  0  0
   13.5300   55.7590    7.2630 C   0  0  0  0  0  0  0  0  0  0  0  0
   13.7200   54.6960    7.8600 O   0  0  0  0  0  0  0  0  0  0  0  0
   14.3950   56.3020    6.4010 N   0  0  0  0  0  0  0  0  0  0  0  0
   15.6610   55.6590    5.9810 C   0  0  0  0  0  0  0  0  0  0  0  0
   16.4190   56.5960    5.0170 C   0  0  0  0  0  0  0  0  0  0  0  0
   17.7310   55.9580    4.5270 C   0  0  0  0  0  0  0  0  0  0  0  0
   15.5390   56.9430    3.8140 C   0  0  0  0  0  0  0  0  0  0  0  0
   16.5550   55.2540    7.1720 C   0  0  0  0  0  0  0  0  0  0  0  0
   17.1560   54.1790    7.1480 O   0  0  0  0  0  0  0  0  0  0  0  0
   16.6360   56.1260    8.1830 N   0  0  0  0  0  0  0  0  0  0  0  0
   17.4730   55.8390    9.3740 C   0  0  0  0  0  0  0  0  0  0  0  0
   16.5980   55.4150   10.5710 C   0  0  0  0  0  0  0  0  0  0  0  0
   17.0320   55.4740   11.7240 O   0  0  0  0  0  0  0  0  0  0  0  0
   15.3740   54.9870   10.2580 N   0  0  0  0  0  0  0  0  0  0  0  0
   18.3380   57.0710    9.7400 C   0  0  0  0  0  0  0  0  0  0  0  0
   17.5000   58.2790   10.2040 C   0  0  0  0  0  0  0  0  0  0  0  0
   16.3350   58.4270    9.8380 O   0  0  0  0  0  0  0  0  0  0  0  0
   18.1290   59.1120   11.0290 N   0  0  0  0  0  0  0  0  0  0  0  0
    8.1881   61.0935    8.4850 H   0  0  0  0  0  0  0  0  0  0  0  0
    7.1714   61.5178   11.9511 H   0  0  0  0  0  0  0  0  0  0  0  0
    8.5351   59.2590   11.2651 H   0  0  0  0  0  0  0  0  0  0  0  0
    9.4709   57.0757   10.4557 H   0  0  0  0  0  0  0  0  0  0  0  0
   11.7409   61.3822    9.2391 H   0  0  0  0  0  0  0  0  0  0  0  0
   12.6727   59.2050    8.4318 H   0  0  0  0  0  0  0  0  0  0  0  0
   12.1681   56.4258    9.9560 H   0  0  0  0  0  0  0  0  0  0  0  0
   10.6934   54.7635    7.8123 H   0  0  0  0  0  0  0  0  0  0  0  0
    8.5709   55.2215    8.6660 H   0  0  0  0  0  0  0  0  0  0  0  0
    6.6488   55.3892    7.4907 H   0  0  0  0  0  0  0  0  0  0  0  0
    7.4860   56.4117    6.2740 H   0  0  0  0  0  0  0  0  0  0  0  0
    7.7320   54.6323    6.2740 H   0  0  0  0  0  0  0  0  0  0  0  0
   12.5111   57.3593    6.7478 H   0  0  0  0  0  0  0  0  0  0  0  0
   14.1669   57.2248    6.0043 H   0  0  0  0  0  0  0  0  0  0  0  0
   15.4022   54.7234    5.4636 H   0  0  0  0  0  0  0  0  0  0  0  0
   16.6657   57.5137    5.5710 H   0  0  0  0  0  0  0  0  0  0  0  0
   18.3405   55.6616    5.3934 H   0  0  0  0  0  0  0  0  0  0  0  0
   17.5023   55.0705    3.9187 H   0  0  0  0  0  0  0  0  0  0  0  0
   18.2879   56.6859    3.9187 H   0  0  0  0  0  0  0  0  0  0  0  0
   14.5697   57.3252    4.1668 H   0  0  0  0  0  0  0  0  0  0  0  0
   16.0368   57.7121    3.2052 H   0  0  0  0  0  0  0  0  0  0  0  0
   15.3779   56.0411    3.2052 H   0  0  0  0  0  0  0  0  0  0  0  0
   16.1095   57.0099    8.1340 H   0  0  0  0  0  0  0  0  0  0  0  0
   18.1444   55.0030    9.1283 H   0  0  0  0  0  0  0  0  0  0  0  0
   14.7039   54.7527   11.0043 H   0  0  0  0  0  0  0  0  0  0  0  0
   15.0990   54.8908    9.2701 H   0  0  0  0  0  0  0  0  0  0  0  0
   19.0249   56.7885   10.5514 H   0  0  0  0  0  0  0  0  0  0  0  0
   18.8786   57.3751    8.8315 H   0  0  0  0  0  0  0  0  0  0  0  0
   18.0392   58.9930   12.0482 H   0  0  0  0  0  0  0  0  0  0  0  0
   18.7058   59.8758   10.6485 H   0  0  0  0  0  0  0  0  0  0  0  0
  1  2  2  0
  2  3  1  0
  2  5  1  0
  2  4  1  0
  5  6  1  0
  6  9  2  0
  6  7  1  0
  7  8  2  0
  8 11  1  0
  9 10  1  0
 10 11  2  0
 11 12  1  0
 12 18  1  0
 12 13  1  0
 13 18  1  0
 13 14  1  0
 14 15  2  0
 14 16  1  0
 16 17  1  0
 18 19  1  0
 19 21  1  0
 19 20  2  0
 21 22  1  0
 22 23  1  0
 22 26  1  0
 23 25  1  0
 23 24  1  0
 26 28  1  0
 26 27  2  0
 28 29  1  0
 29 33  1  0
 29 30  1  0
 30 32  1  0
 30 31  2  0
 33 34  1  0
 34 36  1  0
 34 35  2  0
  3 37  1  0
  4 38  1  0
  7 39  1  0
  8 40  1  0
  9 41  1  0
 10 42  1  0
 12 43  1  0
 13 44  1  0
 16 45  1  0
 17 46  1  0
 17 47  1  0
 17 48  1  0
 18 49  1  0
 21 50  1  0
 22 51  1  0
 23 52  1  0
 24 53  1  0
 24 54  1  0
 24 55  1  0
 25 56  1  0
 25 57  1  0
 25 58  1  0
 28 59  1  0
 29 60  1  0
 32 61  1  0
 32 62  1  0
 33 63  1  0
 33 64  1  0
 36 65  1  0
 36 66  1  0
A    1
OBH
A    2
PBF
A    3
OBI
A    4
OBG
A    5
OBE
A    6
CBD
A    7
CBC
A    8
CBB
A    9
CBJ
A   10
CBK
A   11
CBA
A   12
CAZ
A   13
CAF
A   14
CAC
A   15
OAD
A   16
NAB
A   17
CAA
A   18
CAG
A   19
CAH
A   20
OAI
A   21
NAJ
A   22
CAK
A   23
CAW
A   24
CAX
A   25
CAY
A   26
CAL
A   27
OAM
A   28
NAN
A   29
CAO
A   30
CAT
A   31
OAV
A   32
NAU
A   33
CAP
A   34
CAQ
A   35
OAS
A   36
NAR
M  END
