2HWI_VRX_A_600
     RDKit          3D

 41 43  0  0  0  0  0  0  0  0999 V2000
    9.5050   36.6530   76.2440 C   0  0  0  0  0  0  0  0  0  0  0  0
   10.3280   37.3950   75.3650 C   0  0  0  0  0  0  0  0  0  0  0  0
    9.7640   38.3840   74.5220 C   0  0  0  0  0  0  0  0  0  0  0  0
    8.3630   38.5840   74.5000 C   0  0  0  0  0  0  0  0  0  0  0  0
    7.5190   37.7950   75.3320 C   0  0  0  0  0  0  0  0  0  0  0  0
    8.0850   36.8340   76.2360 C   0  0  0  0  0  0  0  0  0  0  0  0
   10.5820   39.1600   73.7560 F   0  0  0  0  0  0  0  0  0  0  0  0
    7.1750   35.9860   77.1850 C   0  0  0  0  0  0  0  0  0  0  0  0
    6.5690   36.9180   78.2590 C   0  0  0  0  0  0  0  0  0  0  0  0
    5.3080   37.3670   77.9640 O   0  0  0  0  0  0  0  0  0  0  0  0
    7.1580   37.2340   79.2790 O   0  0  0  0  0  0  0  0  0  0  0  0
    6.1020   35.2110   76.4660 N   0  0  0  0  0  0  0  0  0  0  0  0
    6.3700   34.0990   75.6060 C   0  0  0  0  0  0  0  0  0  0  0  0
    7.9640   33.5430   75.2530 S   0  0  0  0  0  0  0  0  0  0  0  0
    7.3000   32.3270   74.2520 C   0  0  0  0  0  0  0  0  0  0  0  0
    5.8080   32.3890   74.2370 C   0  0  0  0  0  0  0  0  0  0  0  0
    5.3580   33.4400   75.0340 N   0  0  0  0  0  0  0  0  0  0  0  0
    5.0890   31.6280   73.6130 O   0  0  0  0  0  0  0  0  0  0  0  0
    8.1610   31.3270   73.4920 C   0  0  0  0  0  0  0  0  0  0  0  0
    9.6660   31.1930   73.4490 C   0  0  0  0  0  0  0  0  0  0  0  0
   10.6040   31.7100   74.3380 C   0  0  0  0  0  0  0  0  0  0  0  0
   11.8550   31.3140   73.9120 C   0  0  0  0  0  0  0  0  0  0  0  0
   11.6960   30.5450   72.7700 C   0  0  0  0  0  0  0  0  0  0  0  0
   10.3500   30.4890   72.4930 O   0  0  0  0  0  0  0  0  0  0  0  0
   12.7710   29.8600   71.9420 C   0  0  0  0  0  0  0  0  0  0  0  0
   13.1250   30.6360   70.6690 C   0  0  0  0  0  0  0  0  0  0  0  0
    9.9595   35.9315   76.9389 H   0  0  0  0  0  0  0  0  0  0  0  0
   11.4108   37.2033   75.3358 H   0  0  0  0  0  0  0  0  0  0  0  0
    7.9265   39.3486   73.8405 H   0  0  0  0  0  0  0  0  0  0  0  0
    6.4276   37.9224   75.2819 H   0  0  0  0  0  0  0  0  0  0  0  0
    7.8092   35.2212   77.6570 H   0  0  0  0  0  0  0  0  0  0  0  0
    6.7652   37.0232   80.1629 H   0  0  0  0  0  0  0  0  0  0  0  0
    5.1217   35.4971   76.6007 H   0  0  0  0  0  0  0  0  0  0  0  0
    7.6068   30.5953   72.8858 H   0  0  0  0  0  0  0  0  0  0  0  0
   10.3864   32.3253   75.2234 H   0  0  0  0  0  0  0  0  0  0  0  0
   12.8113   31.5647   74.3943 H   0  0  0  0  0  0  0  0  0  0  0  0
   13.6779   29.7606   72.5566 H   0  0  0  0  0  0  0  0  0  0  0  0
   12.3773   28.8802   71.6338 H   0  0  0  0  0  0  0  0  0  0  0  0
   13.5673   31.6056   70.9417 H   0  0  0  0  0  0  0  0  0  0  0  0
   13.8480   30.0570   70.0757 H   0  0  0  0  0  0  0  0  0  0  0  0
   12.2138   30.8025   70.0757 H   0  0  0  0  0  0  0  0  0  0  0  0
  1  2  2  0
  1  6  1  0
  2  3  1  0
  3  4  2  0
  3  7  1  0
  4  5  1  0
  5  6  2  0
  6  8  1  0
  8 12  1  0
  8  9  1  0
  9 10  2  0
  9 11  1  0
 12 13  1  0
 13 14  1  0
 13 17  2  0
 14 15  1  0
 15 19  2  0
 15 16  1  0
 16 17  1  0
 16 18  2  0
 19 20  1  0
 20 21  2  0
 20 24  1  0
 21 22  1  0
 22 23  2  0
 23 25  1  0
 23 24  1  0
 25 26  1  0
  1 27  1  0
  2 28  1  0
  4 29  1  0
  5 30  1  0
  8 31  1  0
 11 32  1  0
 12 33  1  0
 19 34  1  0
 21 35  1  0
 22 36  1  0
 25 37  1  0
 25 38  1  0
 26 39  1  0
 26 40  1  0
 26 41  1  0
A    1
C1
A    2
C2
A    3
C3
A    4
C4
A    5
C5
A    6
C6
A    7
F
A    8
C8
A    9
C9
A   10
O10
A   11
O11
A   12
N12
A   13
C13
A   14
S14
A   15
C15
A   16
C16
A   17
N17
A   18
O18
A   19
C19
A   20
C20
A   21
C21
A   22
C22
A   23
C23
A   24
O24
A   25
C25
A   26
C26
M  END
