2HX2_3HX_A_793
     RDKit          3D

 39 38  0  0  0  0  0  0  0  0999 V2000
    7.3350   10.9520   29.4250 N   0  0  0  0  0  0  0  0  0  0  0  0
    8.1920   10.6400   28.5460 O   0  0  0  0  0  0  0  0  0  0  0  0
    6.0970   10.7640   29.1920 O   0  0  0  0  0  0  0  0  0  0  0  0
   11.8860   14.4140   35.6580 N   0  0  0  0  0  0  0  0  0  0  0  0
   11.5930   13.8000   34.3240 C   0  0  0  0  0  0  0  0  0  0  0  0
   12.9270   13.3240   33.6360 C   0  0  0  0  0  0  0  0  0  0  0  0
   10.7980   14.8810   33.5020 C   0  0  0  0  0  0  0  0  0  0  0  0
    9.3010   14.5490   33.2750 C   0  0  0  0  0  0  0  0  0  0  0  0
    9.0150   13.2830   32.4420 C   0  0  0  0  0  0  0  0  0  0  0  0
    7.5200   13.0130   32.3910 N   0  0  0  0  0  0  0  0  0  0  0  0
    6.9850   12.1550   31.5240 C   0  0  0  0  0  0  0  0  0  0  0  0
    7.7860   11.4680   30.6290 N   0  0  0  0  0  0  0  0  0  0  0  0
    5.6240   11.9900   31.5630 N   0  0  0  0  0  0  0  0  0  0  0  0
   14.0450   14.3070   33.5260 N   0  0  0  0  0  0  0  0  0  0  0  0
   13.8770   15.5720   32.9280 O   0  0  0  0  0  0  0  0  0  0  0  0
   17.0520   14.8530   35.6970 N   0  0  0  0  0  0  0  0  0  0  0  0
   15.3710   13.8390   34.0520 C   0  0  0  0  0  0  0  0  0  0  0  0
   16.4140   14.9540   34.3350 C   0  0  0  0  0  0  0  0  0  0  0  0
   11.5806   13.7740   36.4050 H   0  0  0  0  0  0  0  0  0  0  0  0
   12.8985   14.5830   35.7433 H   0  0  0  0  0  0  0  0  0  0  0  0
   10.9782   12.8912   34.4023 H   0  0  0  0  0  0  0  0  0  0  0  0
   13.3024   12.4636   34.2093 H   0  0  0  0  0  0  0  0  0  0  0  0
   12.6409   13.1138   32.5949 H   0  0  0  0  0  0  0  0  0  0  0  0
   10.8589   15.8366   34.0435 H   0  0  0  0  0  0  0  0  0  0  0  0
   11.2629   14.9182   32.5058 H   0  0  0  0  0  0  0  0  0  0  0  0
    8.8307   14.4182   34.2608 H   0  0  0  0  0  0  0  0  0  0  0  0
    8.8927   15.3888   32.6935 H   0  0  0  0  0  0  0  0  0  0  0  0
    9.3928   13.4283   31.4192 H   0  0  0  0  0  0  0  0  0  0  0  0
    9.5184   12.4245   32.9106 H   0  0  0  0  0  0  0  0  0  0  0  0
    6.9010   13.5093   33.0478 H   0  0  0  0  0  0  0  0  0  0  0  0
    8.7775   11.3320   30.8726 H   0  0  0  0  0  0  0  0  0  0  0  0
    5.1655   11.3370   30.9116 H   0  0  0  0  0  0  0  0  0  0  0  0
   13.7855   16.2608   33.6332 H   0  0  0  0  0  0  0  0  0  0  0  0
   16.3307   14.9672   36.4233 H   0  0  0  0  0  0  0  0  0  0  0  0
   17.4991   13.9308   35.7992 H   0  0  0  0  0  0  0  0  0  0  0  0
   15.1899   13.2988   34.9929 H   0  0  0  0  0  0  0  0  0  0  0  0
   15.8062   13.2158   33.2569 H   0  0  0  0  0  0  0  0  0  0  0  0
   15.9101   15.9288   34.2586 H   0  0  0  0  0  0  0  0  0  0  0  0
   17.2180   14.8389   33.5932 H   0  0  0  0  0  0  0  0  0  0  0  0
  1 12  1  0
  1  3  2  0
  1  2  1  0
  4  5  1  0
  5  7  1  0
  5  6  1  0
  6 14  1  0
  7  8  1  0
  8  9  1  0
  9 10  1  0
 10 11  1  0
 11 13  2  3
 11 12  1  0
 14 15  1  0
 14 17  1  0
 16 18  1  0
 17 18  1  0
  4 19  1  0
  4 20  1  0
  5 21  1  0
  6 22  1  0
  6 23  1  0
  7 24  1  0
  7 25  1  0
  8 26  1  0
  8 27  1  0
  9 28  1  0
  9 29  1  0
 10 30  1  0
 12 31  1  0
 13 32  1  0
 15 33  1  0
 16 34  1  0
 16 35  1  0
 17 36  1  0
 17 37  1  0
 18 38  1  0
 18 39  1  0
M  CHG  2   1   1   2  -1
A    1
NO
A    2
O2
A    3
O3
A    4
N
A    5
CA
A    6
C
A    7
CB
A    8
CG
A    9
CD
A   10
NE
A   11
CZ
A   12
NH1
A   13
NH2
A   14
NA
A   15
O1'
A   16
NB
A   17
C1'
A   18
C2'
M  END
