1N6X_ABN_A_246
     RDKit          3D

 17 17  0  0  0  0  0  0  0  0999 V2000
   30.1860  -12.1720   14.3790 N   0  0  0  0  0  0  0  0  0  0  0  0
   28.8220  -12.1040   14.9110 C   0  0  0  0  0  0  0  0  0  0  0  0
   28.6610  -12.9580   16.1500 C   0  0  0  0  0  0  0  0  0  0  0  0
   28.7400  -12.3730   17.4120 C   0  0  0  0  0  0  0  0  0  0  0  0
   28.5850  -13.1000   18.5860 C   0  0  0  0  0  0  0  0  0  0  0  0
   28.3590  -14.4570   18.4820 C   0  0  0  0  0  0  0  0  0  0  0  0
   28.2740  -15.0650   17.2220 C   0  0  0  0  0  0  0  0  0  0  0  0
   28.4280  -14.3240   16.0500 C   0  0  0  0  0  0  0  0  0  0  0  0
   30.8576  -12.2055   15.1592 H   0  0  0  0  0  0  0  0  0  0  0  0
   30.2876  -13.0191   13.8019 H   0  0  0  0  0  0  0  0  0  0  0  0
   28.5904  -11.0592   15.1656 H   0  0  0  0  0  0  0  0  0  0  0  0
   28.1344  -12.4839   14.1410 H   0  0  0  0  0  0  0  0  0  0  0  0
   28.9328  -11.2923   17.4818 H   0  0  0  0  0  0  0  0  0  0  0  0
   28.6408  -12.6085   19.5685 H   0  0  0  0  0  0  0  0  0  0  0  0
   28.2450  -15.0645   19.3919 H   0  0  0  0  0  0  0  0  0  0  0  0
   28.0824  -16.1462   17.1560 H   0  0  0  0  0  0  0  0  0  0  0  0
   28.3662  -14.8117   15.0660 H   0  0  0  0  0  0  0  0  0  0  0  0
  1  2  1  0
  2  3  1  0
  3  4  2  0
  3  8  1  0
  4  5  1  0
  5  6  2  0
  6  7  1  0
  7  8  2  0
  1  9  1  0
  1 10  1  0
  2 11  1  0
  2 12  1  0
  4 13  1  0
  5 14  1  0
  6 15  1  0
  7 16  1  0
  8 17  1  0
A    1
N
A    2
C
A    3
C1
A    4
C2
A    5
C3
A    6
C4
A    7
C5
A    8
C6
M  END
