2HXL_422_A_324
     RDKit          3D

 53 57  0  0  0  0  0  0  0  0999 V2000
   22.3830   -2.6350    8.8100 C   0  0  0  0  0  0  0  0  0  0  0  0
   21.1090   -3.0570    9.4290 C   0  0  0  0  0  0  0  0  0  0  0  0
   19.9420   -2.2050    9.2660 C   0  0  0  0  0  0  0  0  0  0  0  0
   20.0600   -0.9410    8.5040 C   0  0  0  0  0  0  0  0  0  0  0  0
   21.3280   -0.5220    7.8880 C   0  0  0  0  0  0  0  0  0  0  0  0
   22.5200   -1.3850    8.0400 C   0  0  0  0  0  0  0  0  0  0  0  0
   18.5830   -2.3730    9.7440 C   0  0  0  0  0  0  0  0  0  0  0  0
   17.9370   -1.1780    9.2580 C   0  0  0  0  0  0  0  0  0  0  0  0
   18.7690   -0.3610    8.5810 N   0  0  0  0  0  0  0  0  0  0  0  0
   16.4780   -0.7740    9.4700 C   0  0  0  0  0  0  0  0  0  0  0  0
   15.4320   -1.4030   10.2560 C   0  0  0  0  0  0  0  0  0  0  0  0
   14.2660   -0.5370   10.1570 C   0  0  0  0  0  0  0  0  0  0  0  0
   14.6020    0.4960    9.3680 N   0  0  0  0  0  0  0  0  0  0  0  0
   15.9110    0.4000    8.9840 N   0  0  0  0  0  0  0  0  0  0  0  0
   15.3090   -2.6190   11.1160 C   0  0  0  0  0  0  0  0  0  0  0  0
   14.0440   -2.9120   11.8440 C   0  0  0  0  0  0  0  0  0  0  0  0
   12.9160   -1.9550   11.7090 C   0  0  0  0  0  0  0  0  0  0  0  0
   12.9960   -0.7510   10.8540 C   0  0  0  0  0  0  0  0  0  0  0  0
   11.7150   -2.2030   12.4790 C   0  0  0  0  0  0  0  0  0  0  0  0
   23.6430   -3.4950    8.9560 C   0  0  0  0  0  0  0  0  0  0  0  0
   23.6910   -4.7480    8.1560 N   0  0  0  0  0  0  0  0  0  0  0  0
   22.7910   -4.8670    6.9890 C   0  0  0  0  0  0  0  0  0  0  0  0
   25.0750   -5.1650    7.7760 C   0  0  0  0  0  0  0  0  0  0  0  0
   25.0580   -6.6090    7.2790 C   0  0  0  0  0  0  0  0  0  0  0  0
   22.7700   -6.3180    6.5220 C   0  0  0  0  0  0  0  0  0  0  0  0
   24.1380   -6.8350    6.0790 C   0  0  0  0  0  0  0  0  0  0  0  0
   24.0680   -8.3270    5.7370 C   0  0  0  0  0  0  0  0  0  0  0  0
   23.1190   -8.4950    4.6220 N   0  0  0  0  0  0  0  0  0  0  0  0
   10.7350   -2.4220   13.0660 N   0  0  0  0  0  0  0  0  0  0  0  0
   21.0450   -3.9948   10.0003 H   0  0  0  0  0  0  0  0  0  0  0  0
   21.3893    0.4195    7.3224 H   0  0  0  0  0  0  0  0  0  0  0  0
   23.4831   -1.1016    7.5904 H   0  0  0  0  0  0  0  0  0  0  0  0
   18.1542   -3.2006   10.3282 H   0  0  0  0  0  0  0  0  0  0  0  0
   18.5054    0.5500    8.1792 H   0  0  0  0  0  0  0  0  0  0  0  0
   13.9631    1.2548    9.0907 H   0  0  0  0  0  0  0  0  0  0  0  0
   16.1631   -3.3055   11.2122 H   0  0  0  0  0  0  0  0  0  0  0  0
   13.9471   -3.8141   12.4660 H   0  0  0  0  0  0  0  0  0  0  0  0
   12.1500   -0.0560   10.7477 H   0  0  0  0  0  0  0  0  0  0  0  0
   24.5043   -2.8776    8.6611 H   0  0  0  0  0  0  0  0  0  0  0  0
   23.6510   -3.8213   10.0064 H   0  0  0  0  0  0  0  0  0  0  0  0
   21.7749   -4.5570    7.2742 H   0  0  0  0  0  0  0  0  0  0  0  0
   23.1515   -4.2207    6.1752 H   0  0  0  0  0  0  0  0  0  0  0  0
   25.4489   -4.5075    6.9773 H   0  0  0  0  0  0  0  0  0  0  0  0
   25.7329   -5.0892    8.6543 H   0  0  0  0  0  0  0  0  0  0  0  0
   26.0817   -6.8887    6.9894 H   0  0  0  0  0  0  0  0  0  0  0  0
   24.6709   -7.2278    8.1020 H   0  0  0  0  0  0  0  0  0  0  0  0
   22.4124   -6.9457    7.3515 H   0  0  0  0  0  0  0  0  0  0  0  0
   22.1063   -6.3667    5.6462 H   0  0  0  0  0  0  0  0  0  0  0  0
   24.4974   -6.3185    5.1768 H   0  0  0  0  0  0  0  0  0  0  0  0
   25.0630   -8.6884    5.4380 H   0  0  0  0  0  0  0  0  0  0  0  0
   23.7351   -8.9043    6.6122 H   0  0  0  0  0  0  0  0  0  0  0  0
   22.1745   -8.6622    4.9973 H   0  0  0  0  0  0  0  0  0  0  0  0
   23.1130   -7.6420    4.0447 H   0  0  0  0  0  0  0  0  0  0  0  0
  1  6  1  0
  1 20  1  0
  1  2  2  0
  2  3  1  0
  3  4  2  0
  3  7  1  0
  4  5  1  0
  4  9  1  0
  5  6  2  0
  7  8  2  0
  8  9  1  0
  8 10  1  0
 10 14  2  0
 10 11  1  0
 11 12  2  0
 11 15  1  0
 12 13  1  0
 12 18  1  0
 13 14  1  0
 15 16  2  0
 16 17  1  0
 17 18  2  0
 17 19  1  0
 19 29  3  0
 20 21  1  0
 21 22  1  0
 21 23  1  0
 22 25  1  0
 23 24  1  0
 24 26  1  0
 25 26  1  0
 26 27  1  0
 27 28  1  0
  2 30  1  0
  5 31  1  0
  6 32  1  0
  7 33  1  0
  9 34  1  0
 13 35  1  0
 15 36  1  0
 16 37  1  0
 18 38  1  0
 20 39  1  0
 20 40  1  0
 22 41  1  0
 22 42  1  0
 23 43  1  0
 23 44  1  0
 24 45  1  0
 24 46  1  0
 25 47  1  0
 25 48  1  0
 26 49  1  0
 27 50  1  0
 27 51  1  0
 28 52  1  0
 28 53  1  0
A    1
C1
A    2
C2
A    3
C3
A    4
C4
A    5
C5
A    6
C6
A    7
C11
A    8
C12
A    9
N13
A   10
C14
A   11
C15
A   12
C16
A   13
N17
A   14
N18
A   15
C19
A   16
C20
A   17
C21
A   18
C22
A   19
C23
A   20
C7
A   21
N2
A   22
C8
A   23
C9
A   24
C10
A   25
C13
A   26
C17
A   27
C18
A   28
N3
A   29
N1
M  END
