2HXT_EHM_A_501
     RDKit          3D

 19 18  0  0  0  0  0  0  0  0999 V2000
  -20.7910   66.5060   24.9180 O   0  0  0  0  0  0  0  0  0  0  0  0
  -22.0970   66.3870   25.4880 C   0  0  0  0  0  0  0  0  0  0  0  0
  -22.0250   66.6830   26.9860 C   0  0  0  0  0  0  0  0  0  0  0  0
  -21.0210   65.8650   27.5930 O   0  0  0  0  0  0  0  0  0  0  0  0
  -21.7110   68.1660   27.2690 C   0  0  0  0  0  0  0  0  0  0  0  0
  -22.7440   69.0100   26.7800 O   0  0  0  0  0  0  0  0  0  0  0  0
  -21.5500   68.3730   28.7470 C   0  0  0  0  0  0  0  0  0  0  0  0
  -22.2750   67.7810   29.5400 O   0  0  0  0  0  0  0  0  0  0  0  0
  -20.5960   69.2150   29.1290 N   0  0  0  0  0  0  0  0  0  0  0  0
  -20.5300   69.5950   30.4730 O   0  0  0  0  0  0  0  0  0  0  0  0
  -20.1191   66.5672   25.6425 H   0  0  0  0  0  0  0  0  0  0  0  0
  -22.7756   67.1048   25.0041 H   0  0  0  0  0  0  0  0  0  0  0  0
  -22.4745   65.3656   25.3326 H   0  0  0  0  0  0  0  0  0  0  0  0
  -23.0128   66.4573   27.4141 H   0  0  0  0  0  0  0  0  0  0  0  0
  -21.0965   65.9265   28.5782 H   0  0  0  0  0  0  0  0  0  0  0  0
  -20.7766   68.4267   26.7505 H   0  0  0  0  0  0  0  0  0  0  0  0
  -23.2327   69.4093   27.5428 H   0  0  0  0  0  0  0  0  0  0  0  0
  -19.9168   69.5815   28.4469 H   0  0  0  0  0  0  0  0  0  0  0  0
  -20.6679   68.8007   31.0477 H   0  0  0  0  0  0  0  0  0  0  0  0
  1  2  1  0
  2  3  1  0
  3  4  1  0
  3  5  1  0
  5  6  1  0
  5  7  1  0
  7  8  2  0
  7  9  1  0
  9 10  1  0
  1 11  1  0
  2 12  1  0
  2 13  1  0
  3 14  1  0
  4 15  1  0
  5 16  1  0
  6 17  1  0
  9 18  1  0
 10 19  1  0
A    1
O4
A    2
C4
A    3
C3
A    4
O3
A    5
C2
A    6
O2
A    7
C1
A    8
O1
A    9
N
A   10
ON
M  END
