1YVJ_4ST_A_2000
     RDKit          3D

 65 72  0  0  0  0  0  0  0  0999 V2000
    6.6260  -10.4760   -8.0690 C   0  0  0  0  0  0  0  0  0  0  0  0
    7.1620  -10.1860   -6.7470 O   0  0  0  0  0  0  0  0  0  0  0  0
    6.1930  -10.1430   -5.6510 C   0  0  0  0  0  0  0  0  0  0  0  0
    6.7250   -9.1420   -4.6950 C   0  0  0  0  0  0  0  0  0  0  0  0
    6.6370   -7.8200   -5.3190 N   0  0  0  0  0  0  0  0  0  0  0  0
    7.1680   -6.6290   -4.6100 C   0  0  0  0  0  0  0  0  0  0  0  0
    8.1490   -9.4880   -4.3560 C   0  0  0  0  0  0  0  0  0  0  0  0
    8.2820  -10.8970   -3.7940 C   0  0  0  0  0  0  0  0  0  0  0  0
    6.9730  -11.5230   -3.6970 O   0  0  0  0  0  0  0  0  0  0  0  0
    6.1200  -11.4340   -4.7870 C   0  0  0  0  0  0  0  0  0  0  0  0
    4.8000  -11.3760   -3.9970 C   0  0  0  0  0  0  0  0  0  0  0  0
    6.3930  -12.5690   -5.7260 N   0  0  0  0  0  0  0  0  0  0  0  0
    5.4660  -13.2610   -6.5090 C   0  0  0  0  0  0  0  0  0  0  0  0
    4.0390  -13.1460   -6.6320 C   0  0  0  0  0  0  0  0  0  0  0  0
    3.3520  -14.0260   -7.5510 C   0  0  0  0  0  0  0  0  0  0  0  0
    4.0240  -15.0060   -8.3450 C   0  0  0  0  0  0  0  0  0  0  0  0
    5.4370  -15.0920   -8.1990 C   0  0  0  0  0  0  0  0  0  0  0  0
    6.1350  -14.2180   -7.2840 C   0  0  0  0  0  0  0  0  0  0  0  0
    7.4700  -14.1920   -7.0420 C   0  0  0  0  0  0  0  0  0  0  0  0
    7.6140  -13.1420   -6.0550 C   0  0  0  0  0  0  0  0  0  0  0  0
    8.9400  -12.7780   -5.5120 C   0  0  0  0  0  0  0  0  0  0  0  0
    9.1650  -11.7940   -4.5590 N   0  0  0  0  0  0  0  0  0  0  0  0
   10.5450  -11.8520   -4.3860 C   0  0  0  0  0  0  0  0  0  0  0  0
   11.3890  -10.8080   -3.7570 C   0  0  0  0  0  0  0  0  0  0  0  0
   12.7450  -11.4420   -3.4340 C   0  0  0  0  0  0  0  0  0  0  0  0
   13.3960  -12.0300   -4.6910 C   0  0  0  0  0  0  0  0  0  0  0  0
   12.5760  -13.1780   -5.2890 C   0  0  0  0  0  0  0  0  0  0  0  0
   11.0580  -12.8720   -5.2410 C   0  0  0  0  0  0  0  0  0  0  0  0
   10.0630  -13.4970   -5.9950 C   0  0  0  0  0  0  0  0  0  0  0  0
    9.9580  -14.5260   -6.9520 C   0  0  0  0  0  0  0  0  0  0  0  0
    8.7060  -14.8910   -7.4770 C   0  0  0  0  0  0  0  0  0  0  0  0
    8.8540  -16.0510   -8.4230 C   0  0  0  0  0  0  0  0  0  0  0  0
   10.3330  -16.0890   -8.5570 N   0  0  0  0  0  0  0  0  0  0  0  0
   10.9490  -15.3560   -7.5770 C   0  0  0  0  0  0  0  0  0  0  0  0
   12.1270  -15.3970   -7.2680 O   0  0  0  0  0  0  0  0  0  0  0  0
    5.6626  -10.9972   -7.9678 H   0  0  0  0  0  0  0  0  0  0  0  0
    6.4778   -9.5350   -8.6191 H   0  0  0  0  0  0  0  0  0  0  0  0
    7.3326  -11.1149   -8.6191 H   0  0  0  0  0  0  0  0  0  0  0  0
    5.2094   -9.9567   -6.1069 H   0  0  0  0  0  0  0  0  0  0  0  0
    6.1424   -9.1394   -3.7620 H   0  0  0  0  0  0  0  0  0  0  0  0
    7.1391   -7.8805   -6.2163 H   0  0  0  0  0  0  0  0  0  0  0  0
    7.0974   -6.7872   -3.5237 H   0  0  0  0  0  0  0  0  0  0  0  0
    8.2203   -6.4743   -4.8904 H   0  0  0  0  0  0  0  0  0  0  0  0
    6.5797   -5.7428   -4.8904 H   0  0  0  0  0  0  0  0  0  0  0  0
    8.7586   -9.4119   -5.2685 H   0  0  0  0  0  0  0  0  0  0  0  0
    8.4925   -8.7835   -3.5842 H   0  0  0  0  0  0  0  0  0  0  0  0
    8.7480  -10.7599   -2.8071 H   0  0  0  0  0  0  0  0  0  0  0  0
    5.0173  -11.3855   -2.9187 H   0  0  0  0  0  0  0  0  0  0  0  0
    4.2592  -10.4532   -4.2539 H   0  0  0  0  0  0  0  0  0  0  0  0
    4.1803  -12.2478   -4.2539 H   0  0  0  0  0  0  0  0  0  0  0  0
    3.4816  -12.4050   -6.0402 H   0  0  0  0  0  0  0  0  0  0  0  0
    2.2595  -13.9368   -7.6434 H   0  0  0  0  0  0  0  0  0  0  0  0
    3.4752  -15.6626   -9.0361 H   0  0  0  0  0  0  0  0  0  0  0  0
    6.0024  -15.8297   -8.7874 H   0  0  0  0  0  0  0  0  0  0  0  0
   11.5245   -9.9661   -4.4519 H   0  0  0  0  0  0  0  0  0  0  0  0
   10.9132  -10.4259   -2.8418 H   0  0  0  0  0  0  0  0  0  0  0  0
   13.4091  -10.6732   -3.0123 H   0  0  0  0  0  0  0  0  0  0  0  0
   12.5855  -12.2559   -2.7114 H   0  0  0  0  0  0  0  0  0  0  0  0
   13.4923  -11.2344   -5.4445 H   0  0  0  0  0  0  0  0  0  0  0  0
   14.3784  -12.4328   -4.4036 H   0  0  0  0  0  0  0  0  0  0  0  0
   12.8784  -13.3265   -6.3361 H   0  0  0  0  0  0  0  0  0  0  0  0
   12.7657  -14.0849   -4.6961 H   0  0  0  0  0  0  0  0  0  0  0  0
    8.4593  -16.9826   -7.9912 H   0  0  0  0  0  0  0  0  0  0  0  0
    8.3058  -15.9479   -9.3711 H   0  0  0  0  0  0  0  0  0  0  0  0
   10.8338  -16.6032   -9.2958 H   0  0  0  0  0  0  0  0  0  0  0  0
  1  2  1  0
  2  3  1  0
  3  4  1  0
  3 10  1  0
  4  5  1  0
  4  7  1  0
  5  6  1  0
  7  8  1  0
  8  9  1  0
  8 22  1  0
  9 10  1  0
 10 11  1  0
 10 12  1  0
 12 13  1  0
 12 20  1  0
 13 14  2  0
 13 18  1  0
 14 15  1  0
 15 16  2  0
 16 17  1  0
 17 18  2  0
 18 19  1  0
 19 20  1  0
 19 31  2  0
 20 21  2  0
 21 22  1  0
 21 29  1  0
 22 23  1  0
 23 24  1  0
 23 28  2  0
 24 25  1  0
 25 26  1  0
 26 27  1  0
 27 28  1  0
 28 29  1  0
 29 30  2  0
 30 31  1  0
 30 34  1  0
 31 32  1  0
 32 33  1  0
 33 34  1  0
 34 35  2  0
  1 36  1  0
  1 37  1  0
  1 38  1  0
  3 39  1  0
  4 40  1  0
  5 41  1  0
  6 42  1  0
  6 43  1  0
  6 44  1  0
  7 45  1  0
  7 46  1  0
  8 47  1  0
 11 48  1  0
 11 49  1  0
 11 50  1  0
 14 51  1  0
 15 52  1  0
 16 53  1  0
 17 54  1  0
 24 55  1  0
 24 56  1  0
 25 57  1  0
 25 58  1  0
 26 59  1  0
 26 60  1  0
 27 61  1  0
 27 62  1  0
 32 63  1  0
 32 64  1  0
 33 65  1  0
A    1
CAB
A    2
OAQ
A    3
CBF
A    4
CBD
A    5
NAO
A    6
CAA
A    7
CAN
A    8
CBE
A    9
OAR
A   10
CBI
A   11
CAC
A   12
NBH
A   13
CAY
A   14
CAH
A   15
CAF
A   16
CAE
A   17
CAG
A   18
CAX
A   19
CBA
A   20
CBC
A   21
CBB
A   22
NBG
A   23
CAV
A   24
CAL
A   25
CAJ
A   26
CAI
A   27
CAK
A   28
CAT
A   29
CAZ
A   30
CAW
A   31
CAU
A   32
CAM
A   33
NAP
A   34
CAS
A   35
OAD
M  END
