2HZI_JIN_A_600
     RDKit          3D

 44 47  0  0  0  0  0  0  0  0999 V2000
   18.7180   14.5070    3.5840 C   0  0  0  0  0  0  0  0  0  0  0  0
   17.6050   16.1330    4.9300 C   0  0  0  0  0  0  0  0  0  0  0  0
   15.1530   16.0020    5.3110 C   0  0  0  0  0  0  0  0  0  0  0  0
   22.0520   16.8670    5.8630 C   0  0  0  0  0  0  0  0  0  0  0  0
   22.4560   17.8380    4.9110 C   0  0  0  0  0  0  0  0  0  0  0  0
   20.1290   16.3200    4.5030 C   0  0  0  0  0  0  0  0  0  0  0  0
   20.8670   16.1450    5.6450 C   0  0  0  0  0  0  0  0  0  0  0  0
   12.7210   12.4780    3.1580 C   0  0  0  0  0  0  0  0  0  0  0  0
    9.9420   13.0810    3.6230 C   0  0  0  0  0  0  0  0  0  0  0  0
   10.9270   13.7090    4.3430 C   0  0  0  0  0  0  0  0  0  0  0  0
    9.2220   11.4610    1.9550 C   0  0  0  0  0  0  0  0  0  0  0  0
    8.6710   13.3630    3.8870 F   0  0  0  0  0  0  0  0  0  0  0  0
   10.3390   12.1550    2.6880 C   0  0  0  0  0  0  0  0  0  0  0  0
   11.6930   11.7860    2.4860 C   0  0  0  0  0  0  0  0  0  0  0  0
   12.2820   13.4030    4.1210 C   0  0  0  0  0  0  0  0  0  0  0  0
   13.9880   12.0550    2.8670 N   0  0  0  0  0  0  0  0  0  0  0  0
   15.1360   12.7130    3.0870 C   0  0  0  0  0  0  0  0  0  0  0  0
   16.1630   12.1260    2.5210 N   0  0  0  0  0  0  0  0  0  0  0  0
   17.3840   12.6850    2.6400 C   0  0  0  0  0  0  0  0  0  0  0  0
   15.1830   13.8300    3.8310 N   0  0  0  0  0  0  0  0  0  0  0  0
   16.3920   14.4070    3.9860 C   0  0  0  0  0  0  0  0  0  0  0  0
   16.4410   15.4940    4.7440 N   0  0  0  0  0  0  0  0  0  0  0  0
   17.5860   17.1530    5.6210 O   0  0  0  0  0  0  0  0  0  0  0  0
   18.7910   15.6810    4.3350 C   0  0  0  0  0  0  0  0  0  0  0  0
   17.5060   13.8530    3.4140 C   0  0  0  0  0  0  0  0  0  0  0  0
   20.5380   17.2630    3.5440 C   0  0  0  0  0  0  0  0  0  0  0  0
   21.7110   18.0230    3.7110 C   0  0  0  0  0  0  0  0  0  0  0  0
   19.6970   17.5810    2.0470 Cl  0  0  0  0  0  0  0  0  0  0  0  0
   20.3770   14.9170    6.8500 Cl  0  0  0  0  0  0  0  0  0  0  0  0
   19.6286   14.0967    3.1231 H   0  0  0  0  0  0  0  0  0  0  0  0
   15.2030   15.9823    6.4097 H   0  0  0  0  0  0  0  0  0  0  0  0
   14.9841   17.0341    4.9701 H   0  0  0  0  0  0  0  0  0  0  0  0
   14.3250   15.3631    4.9701 H   0  0  0  0  0  0  0  0  0  0  0  0
   22.6594   16.6817    6.7612 H   0  0  0  0  0  0  0  0  0  0  0  0
   23.3493   18.4513    5.1004 H   0  0  0  0  0  0  0  0  0  0  0  0
   10.6546   14.4585    5.1006 H   0  0  0  0  0  0  0  0  0  0  0  0
    8.5211   11.0255    2.6824 H   0  0  0  0  0  0  0  0  0  0  0  0
    8.6904   12.1881    1.3235 H   0  0  0  0  0  0  0  0  0  0  0  0
    9.6384   10.6623    1.3235 H   0  0  0  0  0  0  0  0  0  0  0  0
   11.9415   10.9591    1.8044 H   0  0  0  0  0  0  0  0  0  0  0  0
   13.0385   13.9150    4.7338 H   0  0  0  0  0  0  0  0  0  0  0  0
   14.0704   11.1262    2.4294 H   0  0  0  0  0  0  0  0  0  0  0  0
   18.2602   12.2401    2.1457 H   0  0  0  0  0  0  0  0  0  0  0  0
   22.0412   18.7357    2.9409 H   0  0  0  0  0  0  0  0  0  0  0  0
  1 25  1  0
  1 24  2  0
  2 24  1  0
  2 22  1  0
  2 23  2  0
  3 22  1  0
  4  5  2  0
  4  7  1  0
  5 27  1  0
  6 26  1  0
  6 24  1  0
  6  7  2  0
  7 29  1  0
  8 14  2  0
  8 16  1  0
  8 15  1  0
  9 13  2  0
  9 12  1  0
  9 10  1  0
 10 15  2  0
 11 13  1  0
 13 14  1  0
 16 17  1  0
 17 18  2  0
 17 20  1  0
 18 19  1  0
 19 25  2  0
 20 21  2  0
 21 25  1  0
 21 22  1  0
 26 28  1  0
 26 27  2  0
  1 30  1  0
  3 31  1  0
  3 32  1  0
  3 33  1  0
  4 34  1  0
  5 35  1  0
 10 36  1  0
 11 37  1  0
 11 38  1  0
 11 39  1  0
 14 40  1  0
 15 41  1  0
 16 42  1  0
 19 43  1  0
 27 44  1  0
A    1
C10
A    2
C12
A    3
C13
A    4
C15
A    5
C16
A    6
C19
A    7
C20
A    8
C27
A    9
C30
A   10
C31
A   11
C34
A   12
F35
A   13
C29
A   14
C28
A   15
C26
A   16
N08
A   17
C04
A   18
N03
A   19
C02
A   20
N05
A   21
C06
A   22
N11
A   23
O14
A   24
C09
A   25
C01
A   26
C18
A   27
C17
A   28
CL4
A   29
CL5
M  END
