2HZN_KIN_A_600
     RDKit          3D

 41 43  0  0  0  0  0  0  0  0999 V2000
   47.5410   30.8440   43.6370 C   0  0  0  0  0  0  0  0  0  0  0  0
   47.7180   31.0870   42.2710 C   0  0  0  0  0  0  0  0  0  0  0  0
   48.0740   23.6850   43.3000 C   0  0  0  0  0  0  0  0  0  0  0  0
   49.2950   23.6190   42.5980 C   0  0  0  0  0  0  0  0  0  0  0  0
   49.8230   22.3920   42.1510 C   0  0  0  0  0  0  0  0  0  0  0  0
   47.9230   21.2530   43.1130 C   0  0  0  0  0  0  0  0  0  0  0  0
   49.4060   19.5470   40.7520 C   0  0  0  0  0  0  0  0  0  0  0  0
   48.3030   19.9870   40.0070 C   0  0  0  0  0  0  0  0  0  0  0  0
   48.1360   19.5210   38.7130 C   0  0  0  0  0  0  0  0  0  0  0  0
   47.9040   31.5700   39.5280 F   0  0  0  0  0  0  0  0  0  0  0  0
   47.9650   30.2390   39.8940 C   0  0  0  0  0  0  0  0  0  0  0  0
   49.2240   29.7680   39.6020 F   0  0  0  0  0  0  0  0  0  0  0  0
   47.0530   29.5380   39.1390 F   0  0  0  0  0  0  0  0  0  0  0  0
   47.7360   30.0130   41.3680 C   0  0  0  0  0  0  0  0  0  0  0  0
   47.5650   28.6970   41.8480 C   0  0  0  0  0  0  0  0  0  0  0  0
   47.3800   28.4350   43.2180 C   0  0  0  0  0  0  0  0  0  0  0  0
   47.3910   29.5280   44.1070 C   0  0  0  0  0  0  0  0  0  0  0  0
   47.2070   27.1220   43.7380 N   0  0  0  0  0  0  0  0  0  0  0  0
   47.7310   26.0460   43.1030 C   0  0  0  0  0  0  0  0  0  0  0  0
   48.3390   26.1070   41.9950 O   0  0  0  0  0  0  0  0  0  0  0  0
   47.5430   24.9000   43.7870 N   0  0  0  0  0  0  0  0  0  0  0  0
   49.1480   21.1950   42.4230 C   0  0  0  0  0  0  0  0  0  0  0  0
   47.3940   22.4850   43.5540 C   0  0  0  0  0  0  0  0  0  0  0  0
   49.6280   19.9910   42.0130 O   0  0  0  0  0  0  0  0  0  0  0  0
   48.9790   18.6650   38.1290 N   0  0  0  0  0  0  0  0  0  0  0  0
   50.0280   18.2370   38.8410 C   0  0  0  0  0  0  0  0  0  0  0  0
   50.2880   18.6480   40.1430 C   0  0  0  0  0  0  0  0  0  0  0  0
   47.5191   31.6852   44.3454 H   0  0  0  0  0  0  0  0  0  0  0  0
   47.8427   32.1170   41.9056 H   0  0  0  0  0  0  0  0  0  0  0  0
   49.8483   24.5477   42.3946 H   0  0  0  0  0  0  0  0  0  0  0  0
   50.7673   22.3737   41.5872 H   0  0  0  0  0  0  0  0  0  0  0  0
   47.3690   20.3237   43.3118 H   0  0  0  0  0  0  0  0  0  0  0  0
   47.5804   20.6922   40.4436 H   0  0  0  0  0  0  0  0  0  0  0  0
   47.2666   19.8731   38.1384 H   0  0  0  0  0  0  0  0  0  0  0  0
   47.5766   27.8584   41.1362 H   0  0  0  0  0  0  0  0  0  0  0  0
   47.2804   29.3484   45.1866 H   0  0  0  0  0  0  0  0  0  0  0  0
   46.6756   26.9875   44.6100 H   0  0  0  0  0  0  0  0  0  0  0  0
   47.0100   24.9102   44.6683 H   0  0  0  0  0  0  0  0  0  0  0  0
   46.4402   22.5041   44.1016 H   0  0  0  0  0  0  0  0  0  0  0  0
   50.7205   17.5228   38.3715 H   0  0  0  0  0  0  0  0  0  0  0  0
   51.1698   18.2738   40.6838 H   0  0  0  0  0  0  0  0  0  0  0  0
  1  2  2  0
  1 17  1  0
  2 14  1  0
  3  4  2  0
  3 23  1  0
  3 21  1  0
  4  5  1  0
  5 22  2  0
  6 22  1  0
  6 23  2  0
  7  8  2  0
  7 27  1  0
  7 24  1  0
  8  9  1  0
  9 25  2  0
 10 11  1  0
 11 13  1  0
 11 12  1  0
 11 14  1  0
 14 15  2  0
 15 16  1  0
 16 18  1  0
 16 17  2  0
 18 19  1  0
 19 20  2  0
 19 21  1  0
 22 24  1  0
 25 26  1  0
 26 27  2  0
  1 28  1  0
  2 29  1  0
  4 30  1  0
  5 31  1  0
  6 32  1  0
  8 33  1  0
  9 34  1  0
 15 35  1  0
 17 36  1  0
 18 37  1  0
 21 38  1  0
 23 39  1  0
 26 40  1  0
 27 41  1  0
A    1
C11
A    2
C13
A    3
C21
A    4
C22
A    5
C24
A    6
C27
A    7
C32
A    8
C33
A    9
C35
A   10
F01
A   11
C02
A   12
F03
A   13
F04
A   14
C05
A   15
C06
A   16
C08
A   17
C09
A   18
N15
A   19
C17
A   20
O18
A   21
N19
A   22
C26
A   23
C29
A   24
O31
A   25
N37
A   26
C38
A   27
C40
M  END
