2HZY_DHJ_A_1102
     RDKit          3D

 26 25  0  0  0  0  0  0  0  0999 V2000
   44.8640   38.0060   56.8800 O   0  0  0  0  0  0  0  0  0  0  0  0
   44.8400   38.1750   58.1640 C   0  0  0  0  0  0  0  0  0  0  0  0
   44.5620   37.2370   58.9030 O   0  0  0  0  0  0  0  0  0  0  0  0
   45.1590   39.4850   58.8520 C   0  0  0  0  0  0  0  0  0  0  0  0
   45.5090   40.5690   58.1480 C   0  0  0  0  0  0  0  0  0  0  0  0
   45.9190   42.1320   58.8410 P   0  0  0  0  0  0  0  0  0  0  0  0
   45.4810   43.1620   57.8250 O   0  0  0  0  0  0  0  0  0  0  0  0
   45.4760   42.3090   60.2550 O   0  0  0  0  0  0  0  0  0  0  0  0
   47.7410   42.1150   58.8500 C   0  0  0  0  0  0  0  0  0  0  0  0
   48.2450   43.2450   59.6880 C   0  0  0  0  0  0  0  0  0  0  0  0
   48.3430   44.4150   59.3010 O   0  0  0  0  0  0  0  0  0  0  0  0
   48.6590   42.9130   61.1300 C   0  0  0  0  0  0  0  0  0  0  0  0
   47.9130   43.7600   62.1640 C   0  0  0  0  0  0  0  0  0  0  0  0
   47.8810   45.0080   62.0050 O   0  0  0  0  0  0  0  0  0  0  0  0
   47.3650   43.1660   63.1360 O   0  0  0  0  0  0  0  0  0  0  0  0
   44.5966   37.3538   59.8855 H   0  0  0  0  0  0  0  0  0  0  0  0
   44.2630   39.7620   59.4269 H   0  0  0  0  0  0  0  0  0  0  0  0
   46.0806   39.2487   59.4041 H   0  0  0  0  0  0  0  0  0  0  0  0
   46.3905   40.2670   57.5633 H   0  0  0  0  0  0  0  0  0  0  0  0
   44.5501   40.8109   57.6663 H   0  0  0  0  0  0  0  0  0  0  0  0
   46.1993   42.0200   60.8661 H   0  0  0  0  0  0  0  0  0  0  0  0
   48.0968   41.1616   59.2676 H   0  0  0  0  0  0  0  0  0  0  0  0
   48.1140   42.2264   57.8212 H   0  0  0  0  0  0  0  0  0  0  0  0
   48.4449   41.8514   61.3229 H   0  0  0  0  0  0  0  0  0  0  0  0
   49.7321   43.1337   61.2288 H   0  0  0  0  0  0  0  0  0  0  0  0
   47.5974   43.4179   64.0648 H   0  0  0  0  0  0  0  0  0  0  0  0
  1  2  2  0
  2  4  1  0
  2  3  1  0
  4  5  1  0
  5  6  1  0
  6  7  2  0
  6  9  1  0
  6  8  1  0
  9 10  1  0
 10 11  2  0
 10 12  1  0
 12 13  1  0
 13 14  2  0
 13 15  1  0
  3 16  1  0
  4 17  1  0
  4 18  1  0
  5 19  1  0
  5 20  1  0
  8 21  1  0
  9 22  1  0
  9 23  1  0
 12 24  1  0
 12 25  1  0
 15 26  1  0
A    1
O2
A    2
C3
A    3
O4
A    4
C1
A    5
C7
A    6
P1
A    7
O6
A    8
O7
A    9
C6
A   10
C5
A   11
O5
A   12
C4
A   13
C2
A   14
O1
A   15
O3
M  END
