2I0G_I0G_A_1
     RDKit          3D

 39 42  0  0  0  0  0  0  0  0999 V2000
   77.0370   39.8630   67.5790 C   0  0  0  0  0  0  0  0  0  0  0  0
   77.8800   40.8900   68.3520 C   0  0  0  0  0  0  0  0  0  0  0  0
   78.7870   41.7320   67.6420 C   0  0  0  0  0  0  0  0  0  0  0  0
   79.5730   42.6830   68.3470 C   0  0  0  0  0  0  0  0  0  0  0  0
   79.4570   42.7880   69.7490 C   0  0  0  0  0  0  0  0  0  0  0  0
   75.6740   38.5710   72.3300 C   0  0  0  0  0  0  0  0  0  0  0  0
   74.1550   36.3510   71.4500 C   0  0  0  0  0  0  0  0  0  0  0  0
   74.9640   37.0520   70.5380 C   0  0  0  0  0  0  0  0  0  0  0  0
   74.7270   40.6460   67.1340 C   0  0  0  0  0  0  0  0  0  0  0  0
   74.7290   39.8970   68.4920 C   0  0  0  0  0  0  0  0  0  0  0  0
   76.0490   39.0640   68.5110 C   0  0  0  0  0  0  0  0  0  0  0  0
   80.4400   43.4980   67.6880 O   0  0  0  0  0  0  0  0  0  0  0  0
   78.5650   41.9630   70.4420 C   0  0  0  0  0  0  0  0  0  0  0  0
   77.7740   41.0120   69.7530 C   0  0  0  0  0  0  0  0  0  0  0  0
   76.9200   40.2500   70.5140 O   0  0  0  0  0  0  0  0  0  0  0  0
   76.6420   38.9490   69.9620 C   0  0  0  0  0  0  0  0  0  0  0  0
   75.7340   38.1700   70.9620 C   0  0  0  0  0  0  0  0  0  0  0  0
   74.8620   37.8620   73.2410 C   0  0  0  0  0  0  0  0  0  0  0  0
   74.1020   36.7480   72.7960 C   0  0  0  0  0  0  0  0  0  0  0  0
   73.3320   36.0650   73.6600 O   0  0  0  0  0  0  0  0  0  0  0  0
   76.1430   40.5400   66.5290 C   0  0  0  0  0  0  0  0  0  0  0  0
   77.7758   39.1899   67.1195 H   0  0  0  0  0  0  0  0  0  0  0  0
   78.8778   41.6450   66.5492 H   0  0  0  0  0  0  0  0  0  0  0  0
   80.0686   43.5193   70.2977 H   0  0  0  0  0  0  0  0  0  0  0  0
   76.2617   39.4344   72.6753 H   0  0  0  0  0  0  0  0  0  0  0  0
   73.5623   35.4897   71.1082 H   0  0  0  0  0  0  0  0  0  0  0  0
   75.0016   36.7324   69.4861 H   0  0  0  0  0  0  0  0  0  0  0  0
   74.4663   41.7031   67.2910 H   0  0  0  0  0  0  0  0  0  0  0  0
   73.9862   40.2012   66.4533 H   0  0  0  0  0  0  0  0  0  0  0  0
   74.7157   40.6142   69.3259 H   0  0  0  0  0  0  0  0  0  0  0  0
   73.8420   39.2561   68.6043 H   0  0  0  0  0  0  0  0  0  0  0  0
   75.8798   38.0319   68.1701 H   0  0  0  0  0  0  0  0  0  0  0  0
   81.0582   44.0791   68.1982 H   0  0  0  0  0  0  0  0  0  0  0  0
   78.4770   42.0541   71.5347 H   0  0  0  0  0  0  0  0  0  0  0  0
   77.5702   38.3716   69.8393 H   0  0  0  0  0  0  0  0  0  0  0  0
   74.8178   38.1722   74.2954 H   0  0  0  0  0  0  0  0  0  0  0  0
   73.4608   36.1792   74.6349 H   0  0  0  0  0  0  0  0  0  0  0  0
   76.5292   41.5433   66.2959 H   0  0  0  0  0  0  0  0  0  0  0  0
   76.1262   39.9568   65.5965 H   0  0  0  0  0  0  0  0  0  0  0  0
  1 21  1  0
  1  2  1  0
  1 11  1  0
  2  3  2  0
  2 14  1  0
  3  4  1  0
  4 12  1  0
  4  5  2  0
  5 13  1  0
  6 17  2  0
  6 18  1  0
  7  8  2  0
  7 19  1  0
  8 17  1  0
  9 21  1  0
  9 10  1  0
 10 11  1  0
 11 16  1  0
 13 14  2  0
 14 15  1  0
 15 16  1  0
 16 17  1  0
 18 19  2  0
 19 20  1  0
  1 22  1  0
  3 23  1  0
  5 24  1  0
  6 25  1  0
  7 26  1  0
  8 27  1  0
  9 28  1  0
  9 29  1  0
 10 30  1  0
 10 31  1  0
 11 32  1  0
 12 33  1  0
 13 34  1  0
 16 35  1  0
 18 36  1  0
 20 37  1  0
 21 38  1  0
 21 39  1  0
A    1
C4
A    2
C6
A    3
C7
A    4
C8
A    5
C10
A    6
C17
A    7
C21
A    8
C22
A    9
C24
A   10
C1
A   11
C2
A   12
O9
A   13
C11
A   14
C12
A   15
O13
A   16
C14
A   17
C16
A   18
C18
A   19
C19
A   20
O20
A   21
C23
M  END
