2I0V_6C3_A_1000
     RDKit          3D

 37 40  0  0  0  0  0  0  0  0999 V2000
    8.6990   25.9350    7.8890 C   0  0  0  0  0  0  0  0  0  0  0  0
    7.8980   26.6870    6.9720 C   0  0  0  0  0  0  0  0  0  0  0  0
    7.6680   26.1070    5.6790 C   0  0  0  0  0  0  0  0  0  0  0  0
    7.2920   28.0220    7.3900 C   0  0  0  0  0  0  0  0  0  0  0  0
    7.5420   28.4900    8.7370 C   0  0  0  0  0  0  0  0  0  0  0  0
    8.4250   27.6200    9.6670 C   0  0  0  0  0  0  0  0  0  0  0  0
    5.0730   28.7240    6.3350 C   0  0  0  0  0  0  0  0  0  0  0  0
    4.3540   29.4760    5.3790 C   0  0  0  0  0  0  0  0  0  0  0  0
    5.0360   30.2980    4.4500 C   0  0  0  0  0  0  0  0  0  0  0  0
    6.4450   30.3720    4.4710 C   0  0  0  0  0  0  0  0  0  0  0  0
    7.1740   29.6300    5.4250 C   0  0  0  0  0  0  0  0  0  0  0  0
    6.4950   28.8070    6.3750 C   0  0  0  0  0  0  0  0  0  0  0  0
    6.0920   30.5850    8.8630 C   0  0  0  0  0  0  0  0  0  0  0  0
    4.7470   32.6220    9.7320 C   0  0  0  0  0  0  0  0  0  0  0  0
    8.2090   24.8470    5.3410 C   0  0  0  0  0  0  0  0  0  0  0  0
    9.0000   24.1200    6.2570 C   0  0  0  0  0  0  0  0  0  0  0  0
    9.2490   24.6620    7.5360 C   0  0  0  0  0  0  0  0  0  0  0  0
    8.9220   26.4320    9.1730 N   0  0  0  0  0  0  0  0  0  0  0  0
    7.8720   24.1940    3.8030 Cl  0  0  0  0  0  0  0  0  0  0  0  0
    8.7180   27.9500   10.8330 O   0  0  0  0  0  0  0  0  0  0  0  0
    6.9910   29.6970    9.4580 C   0  0  0  0  0  0  0  0  0  0  0  0
    7.1850   30.2100   10.7360 O   0  0  0  0  0  0  0  0  0  0  0  0
    6.4370   31.3470   10.9590 N   0  0  0  0  0  0  0  0  0  0  0  0
    5.7720   31.5570    9.8210 C   0  0  0  0  0  0  0  0  0  0  0  0
    7.0615   26.6520    4.9407 H   0  0  0  0  0  0  0  0  0  0  0  0
    4.5373   28.0772    7.0454 H   0  0  0  0  0  0  0  0  0  0  0  0
    3.2555   29.4223    5.3565 H   0  0  0  0  0  0  0  0  0  0  0  0
    4.4666   30.8801    3.7104 H   0  0  0  0  0  0  0  0  0  0  0  0
    6.9743   31.0068    3.7452 H   0  0  0  0  0  0  0  0  0  0  0  0
    8.2725   29.6858    5.4371 H   0  0  0  0  0  0  0  0  0  0  0  0
    5.7068   30.5316    7.8341 H   0  0  0  0  0  0  0  0  0  0  0  0
    4.4500   32.9306   10.7452 H   0  0  0  0  0  0  0  0  0  0  0  0
    5.1619   33.4861    9.1924 H   0  0  0  0  0  0  0  0  0  0  0  0
    3.8677   32.2404    9.1924 H   0  0  0  0  0  0  0  0  0  0  0  0
    9.4177   23.1417    5.9768 H   0  0  0  0  0  0  0  0  0  0  0  0
    9.8643   24.1073    8.2597 H   0  0  0  0  0  0  0  0  0  0  0  0
    9.5060   25.8651    9.8043 H   0  0  0  0  0  0  0  0  0  0  0  0
  1  2  1  0
  1 17  2  0
  1 18  1  0
  2  3  2  0
  2  4  1  0
  3 15  1  0
  4 12  1  0
  4  5  2  0
  5 21  1  0
  5  6  1  0
  6 18  1  0
  6 20  2  0
  7  8  2  0
  7 12  1  0
  8  9  1  0
  9 10  2  0
 10 11  1  0
 11 12  2  0
 13 21  2  0
 13 24  1  0
 14 24  1  0
 15 19  1  0
 15 16  2  0
 16 17  1  0
 21 22  1  0
 22 23  1  0
 23 24  2  0
  3 25  1  0
  7 26  1  0
  8 27  1  0
  9 28  1  0
 10 29  1  0
 11 30  1  0
 13 31  1  0
 14 32  1  0
 14 33  1  0
 14 34  1  0
 16 35  1  0
 17 36  1  0
 18 37  1  0
A    1
C1
A    2
C2
A    3
C3
A    4
C7
A    5
C8
A    6
C9
A    7
C10
A    8
C11
A    9
C12
A   10
C13
A   11
C14
A   12
C15
A   13
C16
A   14
C19
A   15
C4
A   16
C5
A   17
C6
A   18
N1
A   19
CL1
A   20
O1
A   21
C17
A   22
O2
A   23
N2
A   24
C18
M  END
