2I1R_VXR_A_600
     RDKit          3D

 43 46  0  0  0  0  0  0  0  0999 V2000
   11.0790   30.9090   71.0880 C   0  0  0  0  0  0  0  0  0  0  0  0
   11.1420   30.7290   72.4440 C   0  0  0  0  0  0  0  0  0  0  0  0
    9.8400   31.0430   72.9390 C   0  0  0  0  0  0  0  0  0  0  0  0
    9.0670   31.3960   71.8640 C   0  0  0  0  0  0  0  0  0  0  0  0
    9.8340   31.3110   70.7360 O   0  0  0  0  0  0  0  0  0  0  0  0
   12.2520   30.6740   70.1590 C   0  0  0  0  0  0  0  0  0  0  0  0
   12.5220   31.8070   69.1720 C   0  0  0  0  0  0  0  0  0  0  0  0
    7.6590   31.7860   71.8670 C   0  0  0  0  0  0  0  0  0  0  0  0
    7.1470   32.8490   72.5030 C   0  0  0  0  0  0  0  0  0  0  0  0
    7.8420   34.0640   73.4660 S   0  0  0  0  0  0  0  0  0  0  0  0
    6.4420   34.9050   73.8070 C   0  0  0  0  0  0  0  0  0  0  0  0
    5.5230   34.2860   73.2140 N   0  0  0  0  0  0  0  0  0  0  0  0
    5.7310   33.1860   72.4890 C   0  0  0  0  0  0  0  0  0  0  0  0
    6.2600   35.9920   74.5230 N   0  0  0  0  0  0  0  0  0  0  0  0
    7.2710   36.7960   75.1970 C   0  0  0  0  0  0  0  0  0  0  0  0
    8.0200   37.6100   74.1440 C   0  0  0  0  0  0  0  0  0  0  0  0
    6.6440   37.7210   76.2150 C   0  0  0  0  0  0  0  0  0  0  0  0
    5.5880   38.5590   75.9720 N   0  0  0  0  0  0  0  0  0  0  0  0
    5.3130   39.2250   77.1170 N   0  0  0  0  0  0  0  0  0  0  0  0
    6.1700   38.8070   78.0230 N   0  0  0  0  0  0  0  0  0  0  0  0
    7.0170   37.8580   77.4710 N   0  0  0  0  0  0  0  0  0  0  0  0
    7.3180   38.5130   73.2820 C   0  0  0  0  0  0  0  0  0  0  0  0
    8.0210   39.2660   72.3110 C   0  0  0  0  0  0  0  0  0  0  0  0
    9.4290   39.1230   72.1890 C   0  0  0  0  0  0  0  0  0  0  0  0
   10.1260   38.2300   73.0370 C   0  0  0  0  0  0  0  0  0  0  0  0
    9.4220   37.4740   74.0120 C   0  0  0  0  0  0  0  0  0  0  0  0
   10.0880   39.8350   71.2820 F   0  0  0  0  0  0  0  0  0  0  0  0
    4.8650   32.5680   71.9020 O   0  0  0  0  0  0  0  0  0  0  0  0
   12.0155   30.4086   73.0309 H   0  0  0  0  0  0  0  0  0  0  0  0
    9.5169   31.0080   73.9899 H   0  0  0  0  0  0  0  0  0  0  0  0
   13.1531   30.5335   70.7740 H   0  0  0  0  0  0  0  0  0  0  0  0
   11.9975   29.7905   69.5552 H   0  0  0  0  0  0  0  0  0  0  0  0
   12.7423   32.7313   69.7262 H   0  0  0  0  0  0  0  0  0  0  0  0
   13.3828   31.5448   68.5393 H   0  0  0  0  0  0  0  0  0  0  0  0
   11.6355   31.9612   68.5393 H   0  0  0  0  0  0  0  0  0  0  0  0
    6.9601   31.1540   71.2994 H   0  0  0  0  0  0  0  0  0  0  0  0
    5.2863   36.3140   74.6191 H   0  0  0  0  0  0  0  0  0  0  0  0
    7.9640   36.1312   75.7335 H   0  0  0  0  0  0  0  0  0  0  0  0
    5.0911   38.6636   75.0759 H   0  0  0  0  0  0  0  0  0  0  0  0
    6.2274   38.6220   73.3749 H   0  0  0  0  0  0  0  0  0  0  0  0
    7.4782   39.9602   71.6526 H   0  0  0  0  0  0  0  0  0  0  0  0
   11.2163   38.1209   72.9409 H   0  0  0  0  0  0  0  0  0  0  0  0
    9.9691   36.7800   74.6670 H   0  0  0  0  0  0  0  0  0  0  0  0
  1  2  2  0
  1  5  1  0
  1  6  1  0
  2  3  1  0
  3  4  2  0
  4  8  1  0
  4  5  1  0
  6  7  1  0
  8  9  2  0
  9 10  1  0
  9 13  1  0
 10 11  1  0
 11 14  1  0
 11 12  2  0
 12 13  1  0
 13 28  2  0
 14 15  1  0
 15 17  1  0
 15 16  1  0
 16 26  1  0
 16 22  2  0
 17 21  2  0
 17 18  1  0
 18 19  1  0
 19 20  2  0
 20 21  1  0
 22 23  1  0
 23 24  2  0
 24 25  1  0
 24 27  1  0
 25 26  2  0
  2 29  1  0
  3 30  1  0
  6 31  1  0
  6 32  1  0
  7 33  1  0
  7 34  1  0
  7 35  1  0
  8 36  1  0
 14 37  1  0
 15 38  1  0
 18 39  1  0
 22 40  1  0
 23 41  1  0
 25 42  1  0
 26 43  1  0
A    1
C1
A    2
C2
A    3
C3
A    4
C4
A    5
O5
A    6
C6
A    7
C7
A    8
C8
A    9
C9
A   10
S10
A   11
C11
A   12
N12
A   13
C13
A   14
N14
A   15
C15
A   16
C16
A   17
C17
A   18
N18
A   19
N19
A   20
N20
A   21
N21
A   22
C22
A   23
C23
A   24
C24
A   25
C25
A   26
C26
A   27
F
A   28
O28
M  END
