2I22_I22_B_900
     RDKit          3D

 33 32  0  0  0  0  0  0  0  0999 V2000
   30.7760  -15.8240   25.1270 O   0  0  0  0  0  0  0  0  0  0  0  0
   30.1560  -14.5820   24.3240 P   0  0  0  0  0  0  0  0  0  0  0  0
   30.8880  -14.3830   22.9610 O   0  0  0  0  0  0  0  0  0  0  0  0
   28.5360  -14.7640   24.1340 O   0  0  0  0  0  0  0  0  0  0  0  0
   30.3400  -13.0820   25.4450 O   0  0  0  0  0  0  0  0  0  0  0  0
   29.1490  -12.7180   26.3630 C   0  0  0  0  0  0  0  0  0  0  0  0
   29.9050  -11.7530   27.3650 C   0  0  0  0  0  0  0  0  0  0  0  0
   30.8120  -11.0130   26.4270 O   0  0  0  0  0  0  0  0  0  0  0  0
   28.9420  -10.9420   28.2240 C   0  0  0  0  0  0  0  0  0  0  0  0
   28.3550  -10.1180   27.0640 O   0  0  0  0  0  0  0  0  0  0  0  0
   27.7870  -11.9820   28.5440 C   0  0  0  0  0  0  0  0  0  0  0  0
   28.6310  -12.9220   29.2780 O   0  0  0  0  0  0  0  0  0  0  0  0
   26.8460  -11.2630   29.4860 C   0  0  0  0  0  0  0  0  0  0  0  0
   25.8980  -12.3630   29.8490 O   0  0  0  0  0  0  0  0  0  0  0  0
   26.3120   -9.9930   28.7830 C   0  0  0  0  0  0  0  0  0  0  0  0
   25.1070   -9.9140   28.5710 O   0  0  0  0  0  0  0  0  0  0  0  0
   27.1560   -8.7630   28.5490 C   0  0  0  0  0  0  0  0  0  0  0  0
   28.6160   -8.9250   29.0920 O   0  0  0  0  0  0  0  0  0  0  0  0
   30.6948  -15.6614   26.1002 H   0  0  0  0  0  0  0  0  0  0  0  0
   28.1029  -14.8127   25.0229 H   0  0  0  0  0  0  0  0  0  0  0  0
   28.3477  -12.2003   25.8154 H   0  0  0  0  0  0  0  0  0  0  0  0
   28.6265  -13.5688   26.8246 H   0  0  0  0  0  0  0  0  0  0  0  0
   30.4869  -12.2326   28.1659 H   0  0  0  0  0  0  0  0  0  0  0  0
   31.4638  -10.4812   26.9490 H   0  0  0  0  0  0  0  0  0  0  0  0
   29.3232  -10.4212   29.1148 H   0  0  0  0  0  0  0  0  0  0  0  0
   27.8210   -9.3684   27.4288 H   0  0  0  0  0  0  0  0  0  0  0  0
   27.1843  -12.4115   27.7301 H   0  0  0  0  0  0  0  0  0  0  0  0
   28.5084  -12.7854   30.2508 H   0  0  0  0  0  0  0  0  0  0  0  0
   27.2434  -10.8297   30.4157 H   0  0  0  0  0  0  0  0  0  0  0  0
   25.8368  -12.4340   30.8345 H   0  0  0  0  0  0  0  0  0  0  0  0
   27.2016   -8.5670   27.4676 H   0  0  0  0  0  0  0  0  0  0  0  0
   26.6882   -7.9285   29.0920 H   0  0  0  0  0  0  0  0  0  0  0  0
   28.6020   -8.9234   30.0819 H   0  0  0  0  0  0  0  0  0  0  0  0
  1  2  1  0
  2  3  2  0
  2  4  1  0
  2  5  1  0
  5  6  1  0
  6  7  1  0
  7  8  1  0
  7  9  1  0
  9 10  1  0
  9 11  1  0
 11 12  1  0
 11 13  1  0
 13 15  1  0
 13 14  1  0
 15 17  1  0
 15 16  2  0
 17 18  1  0
  1 19  1  0
  4 20  1  0
  6 21  1  0
  6 22  1  0
  7 23  1  0
  8 24  1  0
  9 25  1  0
 10 26  1  0
 11 27  1  0
 12 28  1  0
 13 29  1  0
 14 30  1  0
 17 31  1  0
 17 32  1  0
 18 33  1  0
A    1
O8
A    2
P1
A    3
O9
A    4
O10
A    5
O7
A    6
C7
A    7
C6
A    8
O6
A    9
C5
A   10
O5
A   11
C4
A   12
O4
A   13
C3
A   14
O3
A   15
C2
A   16
O2
A   17
C1
A   18
O1
M  END
