2I2D_A2D_A_273
     RDKit          3D

 71 76  0  0  0  0  0  0  0  0999 V2000
   14.3060    7.5490   13.3880 P   0  0  0  0  0  0  0  0  0  0  0  0
   14.6490    8.5970   14.5740 O   0  0  0  0  0  0  0  0  0  0  0  0
   13.6970    6.3040   13.4610 O   0  0  0  0  0  0  0  0  0  0  0  0
   13.6780    8.4390   12.6580 O   0  0  0  0  0  0  0  0  0  0  0  0
   12.9040    9.6450   12.9120 P   0  0  0  0  0  0  0  0  0  0  0  0
   11.4220    9.4770   12.8620 O   0  0  0  0  0  0  0  0  0  0  0  0
   13.4090   10.7670   13.7680 O   0  0  0  0  0  0  0  0  0  0  0  0
   15.7290    7.5290   12.6280 O   0  0  0  0  0  0  0  0  0  0  0  0
   16.7020    6.5390   12.9460 C   0  0  0  0  0  0  0  0  0  0  0  0
   17.8600    7.2160   13.6550 C   0  0  0  0  0  0  0  0  0  0  0  0
   18.2580    8.3620   12.9100 O   0  0  0  0  0  0  0  0  0  0  0  0
   17.5090    7.7120   15.0530 C   0  0  0  0  0  0  0  0  0  0  0  0
   18.2790    6.9610   15.9940 O   0  0  0  0  0  0  0  0  0  0  0  0
   17.8690    9.1950   15.0590 C   0  0  0  0  0  0  0  0  0  0  0  0
   18.5480    9.6010   16.2570 O   0  0  0  0  0  0  0  0  0  0  0  0
   18.7800    9.2920   13.8470 C   0  0  0  0  0  0  0  0  0  0  0  0
   18.8950   10.6220   13.2040 N   0  0  0  0  0  0  0  0  0  0  0  0
   17.9310   11.4790   12.8220 C   0  0  0  0  0  0  0  0  0  0  0  0
   18.5250   12.5580   12.2670 N   0  0  0  0  0  0  0  0  0  0  0  0
   19.8740   12.3640   12.2910 C   0  0  0  0  0  0  0  0  0  0  0  0
   21.0020   13.0920   11.8750 C   0  0  0  0  0  0  0  0  0  0  0  0
   20.9070   14.3080   11.2790 N   0  0  0  0  0  0  0  0  0  0  0  0
   22.2280   12.5560   12.0720 N   0  0  0  0  0  0  0  0  0  0  0  0
   22.4020   11.3610   12.6510 C   0  0  0  0  0  0  0  0  0  0  0  0
   21.3540   10.6400   13.0590 N   0  0  0  0  0  0  0  0  0  0  0  0
   20.0890   11.1260   12.8820 C   0  0  0  0  0  0  0  0  0  0  0  0
   13.2670   10.4100   11.5630 O   0  0  0  0  0  0  0  0  0  0  0  0
   13.6660    9.6720   10.4190 C   0  0  0  0  0  0  0  0  0  0  0  0
   15.1260    9.9340   10.1400 C   0  0  0  0  0  0  0  0  0  0  0  0
   15.8530    8.7240   10.0260 O   0  0  0  0  0  0  0  0  0  0  0  0
   15.2750   10.6090    8.8120 C   0  0  0  0  0  0  0  0  0  0  0  0
   16.4900   11.3270    8.8900 O   0  0  0  0  0  0  0  0  0  0  0  0
   15.6220    9.5060    7.8840 C   0  0  0  0  0  0  0  0  0  0  0  0
   16.3930   10.1400    6.8760 O   0  0  0  0  0  0  0  0  0  0  0  0
   16.4960    8.6500    8.7670 C   0  0  0  0  0  0  0  0  0  0  0  0
   16.5330    7.2460    8.2960 N   0  0  0  0  0  0  0  0  0  0  0  0
   15.5060    6.5690    7.8030 C   0  0  0  0  0  0  0  0  0  0  0  0
   15.9030    5.3310    7.4740 N   0  0  0  0  0  0  0  0  0  0  0  0
   17.1970    5.2260    7.7750 C   0  0  0  0  0  0  0  0  0  0  0  0
   18.1180    4.2020    7.6620 C   0  0  0  0  0  0  0  0  0  0  0  0
   17.7800    2.9990    7.1610 N   0  0  0  0  0  0  0  0  0  0  0  0
   19.3700    4.4190    8.0690 N   0  0  0  0  0  0  0  0  0  0  0  0
   19.7220    5.6000    8.5630 C   0  0  0  0  0  0  0  0  0  0  0  0
   18.8570    6.5990    8.6860 N   0  0  0  0  0  0  0  0  0  0  0  0
   17.5850    6.4390    8.2950 C   0  0  0  0  0  0  0  0  0  0  0  0
   14.5063    8.1609   15.4512 H   0  0  0  0  0  0  0  0  0  0  0  0
   13.3014   10.5279   14.7227 H   0  0  0  0  0  0  0  0  0  0  0  0
   16.2568    5.7785   13.6043 H   0  0  0  0  0  0  0  0  0  0  0  0
   17.0561    6.0483   12.0274 H   0  0  0  0  0  0  0  0  0  0  0  0
   18.6520    6.4570   13.7365 H   0  0  0  0  0  0  0  0  0  0  0  0
   16.4499    7.5846   15.3215 H   0  0  0  0  0  0  0  0  0  0  0  0
   18.0168    7.2167   16.9138 H   0  0  0  0  0  0  0  0  0  0  0  0
   16.9882    9.8531   15.0245 H   0  0  0  0  0  0  0  0  0  0  0  0
   18.0356    9.2946   17.0467 H   0  0  0  0  0  0  0  0  0  0  0  0
   19.8052    9.0861   14.1884 H   0  0  0  0  0  0  0  0  0  0  0  0
   16.8480   11.3276   12.9408 H   0  0  0  0  0  0  0  0  0  0  0  0
   20.8405   15.1597   11.8543 H   0  0  0  0  0  0  0  0  0  0  0  0
   20.9015   14.3789   10.2515 H   0  0  0  0  0  0  0  0  0  0  0  0
   23.4198   10.9685   12.7923 H   0  0  0  0  0  0  0  0  0  0  0  0
   13.5141    8.5982   10.6032 H   0  0  0  0  0  0  0  0  0  0  0  0
   13.0640    9.9822    9.5522 H   0  0  0  0  0  0  0  0  0  0  0  0
   15.5027   10.5474   10.9718 H   0  0  0  0  0  0  0  0  0  0  0  0
   14.3995   11.2139    8.5334 H   0  0  0  0  0  0  0  0  0  0  0  0
   16.7293   11.4684    9.8402 H   0  0  0  0  0  0  0  0  0  0  0  0
   14.8043    8.9323    7.4234 H   0  0  0  0  0  0  0  0  0  0  0  0
   17.0846   10.7087    7.2983 H   0  0  0  0  0  0  0  0  0  0  0  0
   17.5419    8.9903    8.7814 H   0  0  0  0  0  0  0  0  0  0  0  0
   14.4856    6.9618    7.6823 H   0  0  0  0  0  0  0  0  0  0  0  0
   17.5609    2.2192    7.7973 H   0  0  0  0  0  0  0  0  0  0  0  0
   17.7405    2.8584    6.1414 H   0  0  0  0  0  0  0  0  0  0  0  0
   20.7637    5.7554    8.8804 H   0  0  0  0  0  0  0  0  0  0  0  0
  1  8  1  0
  1  4  1  0
  1  3  2  0
  1  2  1  0
  4  5  1  0
  5 27  1  0
  5  6  2  0
  5  7  1  0
  8  9  1  0
  9 10  1  0
 10 11  1  0
 10 12  1  0
 11 16  1  0
 12 14  1  0
 12 13  1  0
 14 16  1  0
 14 15  1  0
 16 17  1  0
 17 18  1  0
 17 26  1  0
 18 19  2  0
 19 20  1  0
 20 21  1  0
 20 26  2  0
 21 22  1  0
 21 23  2  0
 23 24  1  0
 24 25  2  0
 25 26  1  0
 27 28  1  0
 28 29  1  0
 29 31  1  0
 29 30  1  0
 30 35  1  0
 31 33  1  0
 31 32  1  0
 33 34  1  0
 33 35  1  0
 35 36  1  0
 36 37  1  0
 36 45  1  0
 37 38  2  0
 38 39  1  0
 39 40  1  0
 39 45  2  0
 40 41  1  0
 40 42  2  0
 42 43  1  0
 43 44  2  0
 44 45  1  0
  2 46  1  0
  7 47  1  0
  9 48  1  0
  9 49  1  0
 10 50  1  0
 12 51  1  0
 13 52  1  0
 14 53  1  0
 15 54  1  0
 16 55  1  0
 18 56  1  0
 22 57  1  0
 22 58  1  0
 24 59  1  0
 28 60  1  0
 28 61  1  0
 29 62  1  0
 31 63  1  0
 32 64  1  0
 33 65  1  0
 34 66  1  0
 35 67  1  0
 37 68  1  0
 41 69  1  0
 41 70  1  0
 43 71  1  0
A    1
PA
A    2
O1A
A    3
O2A
A    4
O3A
A    5
PB
A    6
O1B
A    7
O2B
A    8
O5D
A    9
C5D
A   10
C4D
A   11
O4D
A   12
C3D
A   13
O3D
A   14
C2D
A   15
O2D
A   16
C1D
A   17
N9A
A   18
C8A
A   19
N7A
A   20
C5A
A   21
C6A
A   22
N6A
A   23
N1A
A   24
C2A
A   25
N3A
A   26
C4A
A   27
O5E
A   28
C5E
A   29
C4E
A   30
O4E
A   31
C3E
A   32
O3E
A   33
C2E
A   34
O2E
A   35
C1E
A   36
N9B
A   37
C8B
A   38
N7B
A   39
C5B
A   40
C6B
A   41
N6B
A   42
N1B
A   43
C2B
A   44
N3B
A   45
C4B
M  END
