2I3I_618_A_501
     RDKit          3D

 67 70  0  0  0  0  0  0  0  0999 V2000
   84.6490   61.3310   12.9700 O   0  0  0  0  0  0  0  0  0  0  0  0
   84.0570   61.0430   13.9930 C   0  0  0  0  0  0  0  0  0  0  0  0
   84.8460   60.4470   15.1870 C   0  0  0  0  0  0  0  0  0  0  0  0
   86.2510   60.0790   14.8380 N   0  0  0  0  0  0  0  0  0  0  0  0
   86.3710   58.9560   13.8820 C   0  0  0  0  0  0  0  0  0  0  0  0
   84.8190   61.3510   16.4370 C   0  0  0  0  0  0  0  0  0  0  0  0
   82.7510   61.2480   14.1980 N   0  0  0  0  0  0  0  0  0  0  0  0
   81.5940   60.9910   13.2980 C   0  0  0  0  0  0  0  0  0  0  0  0
   80.5700   62.0900   13.7100 C   0  0  0  0  0  0  0  0  0  0  0  0
   80.3690   62.1550   14.9240 O   0  0  0  0  0  0  0  0  0  0  0  0
   81.9670   60.8170   11.8140 C   0  0  0  0  0  0  0  0  0  0  0  0
   80.8220   60.6120   10.8070 C   0  0  0  0  0  0  0  0  0  0  0  0
   79.8020   61.7620   10.6210 C   0  0  0  0  0  0  0  0  0  0  0  0
   80.0160   63.0610   11.4290 C   0  0  0  0  0  0  0  0  0  0  0  0
   79.8590   62.9270   12.8930 N   0  0  0  0  0  0  0  0  0  0  0  0
   78.7100   64.2060   10.9450 S   0  0  0  0  0  0  0  0  0  0  0  0
   78.5670   65.0050   12.5530 C   0  0  0  0  0  0  0  0  0  0  0  0
   77.2060   65.7210   12.6910 C   0  0  0  0  0  0  0  0  0  0  0  0
   79.6490   66.1010   12.7180 C   0  0  0  0  0  0  0  0  0  0  0  0
   78.7830   63.7860   13.4890 C   0  0  0  0  0  0  0  0  0  0  0  0
   77.5400   62.8530   13.7060 C   0  0  0  0  0  0  0  0  0  0  0  0
   77.3280   61.9020   12.9520 O   0  0  0  0  0  0  0  0  0  0  0  0
   76.7480   63.1890   14.7340 N   0  0  0  0  0  0  0  0  0  0  0  0
   75.3800   62.7940   15.0410 C   0  0  0  0  0  0  0  0  0  0  0  0
   74.4960   62.3450   14.0870 C   0  0  0  0  0  0  0  0  0  0  0  0
   73.2980   62.0660   14.7370 C   0  0  0  0  0  0  0  0  0  0  0  0
   72.0120   61.5450   14.1270 C   0  0  0  0  0  0  0  0  0  0  0  0
   73.4410   62.3330   16.0780 N   0  0  0  0  0  0  0  0  0  0  0  0
   74.7040   62.7850   16.2920 N   0  0  0  0  0  0  0  0  0  0  0  0
   75.1510   63.1330   17.4540 C   0  0  0  0  0  0  0  0  0  0  0  0
   74.3230   63.8860   18.3210 C   0  0  0  0  0  0  0  0  0  0  0  0
   74.7700   64.2680   19.5840 C   0  0  0  0  0  0  0  0  0  0  0  0
   76.0480   63.9020   19.9960 C   0  0  0  0  0  0  0  0  0  0  0  0
   76.8760   63.1590   19.1520 C   0  0  0  0  0  0  0  0  0  0  0  0
   76.4480   62.7700   17.8900 C   0  0  0  0  0  0  0  0  0  0  0  0
   84.3140   59.5169   15.4358 H   0  0  0  0  0  0  0  0  0  0  0  0
   86.7064   60.9046   14.4235 H   0  0  0  0  0  0  0  0  0  0  0  0
   86.4719   58.0115   14.4367 H   0  0  0  0  0  0  0  0  0  0  0  0
   85.4721   58.9154   13.2493 H   0  0  0  0  0  0  0  0  0  0  0  0
   87.2582   59.1063   13.2493 H   0  0  0  0  0  0  0  0  0  0  0  0
   84.8377   60.7260   17.3420 H   0  0  0  0  0  0  0  0  0  0  0  0
   85.6978   62.0126   16.4301 H   0  0  0  0  0  0  0  0  0  0  0  0
   83.9023   61.9590   16.4301 H   0  0  0  0  0  0  0  0  0  0  0  0
   82.5098   61.6436   15.1179 H   0  0  0  0  0  0  0  0  0  0  0  0
   81.1263   60.0029   13.4198 H   0  0  0  0  0  0  0  0  0  0  0  0
   83.0165   60.8386   11.4851 H   0  0  0  0  0  0  0  0  0  0  0  0
   80.7307   59.6762   10.2361 H   0  0  0  0  0  0  0  0  0  0  0  0
   79.8082   62.0352    9.5555 H   0  0  0  0  0  0  0  0  0  0  0  0
   78.8555   61.3535   11.0046 H   0  0  0  0  0  0  0  0  0  0  0  0
   81.0482   63.3769   11.2174 H   0  0  0  0  0  0  0  0  0  0  0  0
   76.9648   65.8479   13.7567 H   0  0  0  0  0  0  0  0  0  0  0  0
   77.2599   66.7075   12.2073 H   0  0  0  0  0  0  0  0  0  0  0  0
   76.4236   65.1177   12.2073 H   0  0  0  0  0  0  0  0  0  0  0  0
   79.8275   66.2818   13.7882 H   0  0  0  0  0  0  0  0  0  0  0  0
   80.5831   65.7688   12.2415 H   0  0  0  0  0  0  0  0  0  0  0  0
   79.3048   67.0307   12.2415 H   0  0  0  0  0  0  0  0  0  0  0  0
   79.0266   64.2203   14.4699 H   0  0  0  0  0  0  0  0  0  0  0  0
   77.1760   63.8301   15.4172 H   0  0  0  0  0  0  0  0  0  0  0  0
   74.6985   62.2285   13.0121 H   0  0  0  0  0  0  0  0  0  0  0  0
   71.3141   61.2622   14.9288 H   0  0  0  0  0  0  0  0  0  0  0  0
   71.5571   62.3297   13.5047 H   0  0  0  0  0  0  0  0  0  0  0  0
   72.2316   60.6649   13.5047 H   0  0  0  0  0  0  0  0  0  0  0  0
   73.3131   64.1733   17.9930 H   0  0  0  0  0  0  0  0  0  0  0  0
   74.1188   64.8536   20.2496 H   0  0  0  0  0  0  0  0  0  0  0  0
   76.4078   64.1996   20.9920 H   0  0  0  0  0  0  0  0  0  0  0  0
   77.8834   62.8775   19.4925 H   0  0  0  0  0  0  0  0  0  0  0  0
   77.1105   62.1852   17.2349 H   0  0  0  0  0  0  0  0  0  0  0  0
  1  2  2  0
  2  7  1  0
  2  3  1  0
  3  4  1  0
  3  6  1  0
  4  5  1  0
  7  8  1  0
  8 11  1  0
  8  9  1  0
  9 15  1  0
  9 10  2  0
 11 12  2  0
 12 13  1  0
 13 14  1  0
 14 16  1  0
 14 15  1  0
 15 20  1  0
 16 17  1  0
 17 18  1  0
 17 19  1  0
 17 20  1  0
 20 21  1  0
 21 22  2  0
 21 23  1  0
 23 24  1  0
 24 25  2  0
 24 29  1  0
 25 26  1  0
 26 27  1  0
 26 28  2  0
 28 29  1  0
 29 30  1  0
 30 35  1  0
 30 31  2  0
 31 32  1  0
 32 33  2  0
 33 34  1  0
 34 35  2  0
  3 36  1  0
  4 37  1  0
  5 38  1  0
  5 39  1  0
  5 40  1  0
  6 41  1  0
  6 42  1  0
  6 43  1  0
  7 44  1  0
  8 45  1  0
 11 46  1  0
 12 47  1  0
 13 48  1  0
 13 49  1  0
 14 50  1  0
 18 51  1  0
 18 52  1  0
 18 53  1  0
 19 54  1  0
 19 55  1  0
 19 56  1  0
 20 57  1  0
 23 58  1  0
 25 59  1  0
 27 60  1  0
 27 61  1  0
 27 62  1  0
 31 63  1  0
 32 64  1  0
 33 65  1  0
 34 66  1  0
 35 67  1  0
A    1
O6
A    2
C5
A    3
C3
A    4
N2
A    5
C1
A    6
C4
A    7
N7
A    8
C8
A    9
C9
A   10
O15
A   11
C14
A   12
C13
A   13
C12
A   14
C11
A   15
N10
A   16
S16
A   17
C17
A   18
C19
A   19
C20
A   20
C18
A   21
C21
A   22
O22
A   23
N23
A   24
C24
A   25
C25
A   26
C26
A   27
C29
A   28
N27
A   29
N28
A   30
C30
A   31
C31
A   32
C32
A   33
C33
A   34
C34
A   35
C35
M  END
