2I3Z_LIR_A_900
     RDKit          3D

 48 51  0  0  0  0  0  0  0  0999 V2000
   18.9310   39.7530  -78.2190 C   0  0  0  0  0  0  0  0  0  0  0  0
   15.3950   38.7980  -78.6020 C   0  0  0  0  0  0  0  0  0  0  0  0
   14.0610   38.3140  -78.4140 N   0  0  0  0  0  0  0  0  0  0  0  0
   13.9640   36.9110  -78.8170 C   0  0  0  0  0  0  0  0  0  0  0  0
   12.0480   36.5670  -77.2410 C   0  0  0  0  0  0  0  0  0  0  0  0
   13.5320   38.5860  -77.0460 C   0  0  0  0  0  0  0  0  0  0  0  0
   15.4000   39.2300  -82.2610 C   0  0  0  0  0  0  0  0  0  0  0  0
   15.2980   40.2200  -83.2540 C   0  0  0  0  0  0  0  0  0  0  0  0
   15.7600   39.9780  -84.5590 C   0  0  0  0  0  0  0  0  0  0  0  0
   16.4870   37.7420  -83.9140 C   0  0  0  0  0  0  0  0  0  0  0  0
   16.1880   36.9090  -81.6670 C   0  0  0  0  0  0  0  0  0  0  0  0
   18.2790   40.4220  -80.2700 C   0  0  0  0  0  0  0  0  0  0  0  0
   17.1550   39.7620  -79.6010 C   0  0  0  0  0  0  0  0  0  0  0  0
   17.5290   39.3780  -78.4130 C   0  0  0  0  0  0  0  0  0  0  0  0
   19.3060   40.3510  -79.3790 N   0  0  0  0  0  0  0  0  0  0  0  0
   15.7570   39.3800  -79.7600 N   0  0  0  0  0  0  0  0  0  0  0  0
   16.4080   38.7340  -77.7100 N   0  0  0  0  0  0  0  0  0  0  0  0
   18.2930   40.8990  -81.3970 O   0  0  0  0  0  0  0  0  0  0  0  0
   19.6100   39.5400  -77.2350 O   0  0  0  0  0  0  0  0  0  0  0  0
   20.6410   40.8950  -79.6240 C   0  0  0  0  0  0  0  0  0  0  0  0
   12.5580   36.3700  -78.6800 C   0  0  0  0  0  0  0  0  0  0  0  0
   12.0760   38.0710  -76.9130 C   0  0  0  0  0  0  0  0  0  0  0  0
   12.6090   34.9780  -79.1230 N   0  0  0  0  0  0  0  0  0  0  0  0
   14.8600   39.5620  -80.8990 C   0  0  0  0  0  0  0  0  0  0  0  0
   16.3660   38.7460  -84.8810 C   0  0  0  0  0  0  0  0  0  0  0  0
   16.0270   37.9790  -82.6080 C   0  0  0  0  0  0  0  0  0  0  0  0
   16.4010   36.1210  -80.8380 N   0  0  0  0  0  0  0  0  0  0  0  0
   14.2762   36.8225  -79.8681 H   0  0  0  0  0  0  0  0  0  0  0  0
   14.6163   36.3245  -78.1533 H   0  0  0  0  0  0  0  0  0  0  0  0
   11.0186   36.1883  -77.1573 H   0  0  0  0  0  0  0  0  0  0  0  0
   12.6881   36.0161  -76.5361 H   0  0  0  0  0  0  0  0  0  0  0  0
   14.1652   38.0758  -76.3053 H   0  0  0  0  0  0  0  0  0  0  0  0
   13.5420   39.6719  -76.8708 H   0  0  0  0  0  0  0  0  0  0  0  0
   14.8517   41.1946  -83.0068 H   0  0  0  0  0  0  0  0  0  0  0  0
   15.6485   40.7525  -85.3322 H   0  0  0  0  0  0  0  0  0  0  0  0
   16.9392   36.7737  -84.1746 H   0  0  0  0  0  0  0  0  0  0  0  0
   16.3979   38.3302  -76.7625 H   0  0  0  0  0  0  0  0  0  0  0  0
   21.1367   41.0970  -78.6630 H   0  0  0  0  0  0  0  0  0  0  0  0
   21.2342   40.1669  -80.1967 H   0  0  0  0  0  0  0  0  0  0  0  0
   20.5564   41.8304  -80.1967 H   0  0  0  0  0  0  0  0  0  0  0  0
   11.8286   36.9078  -79.3035 H   0  0  0  0  0  0  0  0  0  0  0  0
   11.4264   38.6143  -77.6150 H   0  0  0  0  0  0  0  0  0  0  0  0
   11.7142   38.2359  -75.8874 H   0  0  0  0  0  0  0  0  0  0  0  0
   12.6318   34.3569  -78.3016 H   0  0  0  0  0  0  0  0  0  0  0  0
   11.7752   34.7673  -79.6898 H   0  0  0  0  0  0  0  0  0  0  0  0
   14.5542   40.6185  -80.9133 H   0  0  0  0  0  0  0  0  0  0  0  0
   14.0452   38.8414  -80.7348 H   0  0  0  0  0  0  0  0  0  0  0  0
   16.7459   38.5733  -85.8987 H   0  0  0  0  0  0  0  0  0  0  0  0
  1 15  1  0
  1 14  1  0
  1 19  2  0
  2 16  2  0
  2  3  1  0
  2 17  1  0
  3  4  1  0
  3  6  1  0
  4 21  1  0
  5 21  1  0
  5 22  1  0
  6 22  1  0
  7  8  2  0
  7 26  1  0
  7 24  1  0
  8  9  1  0
  9 25  2  0
 10 25  1  0
 10 26  2  0
 11 26  1  0
 11 27  3  0
 12 18  2  0
 12 13  1  0
 12 15  1  0
 13 16  1  0
 13 14  2  0
 14 17  1  0
 15 20  1  0
 16 24  1  0
 21 23  1  0
  4 28  1  0
  4 29  1  0
  5 30  1  0
  5 31  1  0
  6 32  1  0
  6 33  1  0
  8 34  1  0
  9 35  1  0
 10 36  1  0
 17 37  1  0
 20 38  1  0
 20 39  1  0
 20 40  1  0
 21 41  1  0
 22 42  1  0
 22 43  1  0
 23 44  1  0
 23 45  1  0
 24 46  1  0
 24 47  1  0
 25 48  1  0
M  CHG  1  16   1
A    1
C4
A    2
C7
A    3
N12
A    4
C13
A    5
C15
A    6
C17
A    7
C20
A    8
C21
A    9
C22
A   10
C24
A   11
C26
A   12
C1
A   13
C2
A   14
C3
A   15
N5
A   16
N6
A   17
N8
A   18
O9
A   19
O10
A   20
C11
A   21
C14
A   22
C16
A   23
N18
A   24
C19
A   25
C23
A   26
C25
A   27
N27
M  END
