2I4D_QFI_B_300
     RDKit          3D

 86 89  0  0  0  0  0  0  0  0999 V2000
   11.8880   18.1870   18.3200 C   0  0  0  0  0  0  0  0  0  0  0  0
   10.7650   18.5040   20.4450 O   0  0  0  0  0  0  0  0  0  0  0  0
   12.7890   19.0500   19.2100 C   0  0  0  0  0  0  0  0  0  0  0  0
   12.7450   20.4310   18.8200 O   0  0  0  0  0  0  0  0  0  0  0  0
   13.8170   20.9230   18.1820 C   0  0  0  0  0  0  0  0  0  0  0  0
   13.5720   22.2150   17.8840 N   0  0  0  0  0  0  0  0  0  0  0  0
   14.5400   23.0230   17.1870 C   0  0  0  0  0  0  0  0  0  0  0  0
   14.8430   24.2050   18.1340 C   0  0  0  0  0  0  0  0  0  0  0  0
   16.0080   25.0840   17.6070 C   0  0  0  0  0  0  0  0  0  0  0  0
   17.2520   24.2810   17.5830 N   0  0  0  0  0  0  0  0  0  0  0  0
   18.2170   24.9380   18.4890 C   0  0  0  0  0  0  0  0  0  0  0  0
   18.2920   24.2540   19.8790 C   0  0  0  0  0  0  0  0  0  0  0  0
   17.3970   23.0000   19.9170 C   0  0  0  0  0  0  0  0  0  0  0  0
   19.7320   23.7940   20.1280 C   0  0  0  0  0  0  0  0  0  0  0  0
   17.8980   24.1240   16.0130 S   0  0  0  0  0  0  0  0  0  0  0  0
   18.7970   25.5560   15.5710 C   0  0  0  0  0  0  0  0  0  0  0  0
   18.1530   26.6210   14.9190 C   0  0  0  0  0  0  0  0  0  0  0  0
   18.8750   27.7800   14.5790 C   0  0  0  0  0  0  0  0  0  0  0  0
   20.2390   27.8860   14.8860 C   0  0  0  0  0  0  0  0  0  0  0  0
   20.9390   29.0520   14.5460 O   0  0  0  0  0  0  0  0  0  0  0  0
   22.3110   29.1180   14.9730 C   0  0  0  0  0  0  0  0  0  0  0  0
   20.8840   26.8120   15.5340 C   0  0  0  0  0  0  0  0  0  0  0  0
   20.1640   25.6510   15.8760 C   0  0  0  0  0  0  0  0  0  0  0  0
   16.7850   23.9020   15.0420 O   0  0  0  0  0  0  0  0  0  0  0  0
   18.8160   22.9420   15.9990 O   0  0  0  0  0  0  0  0  0  0  0  0
   13.6600   24.9760   18.2350 O   0  0  0  0  0  0  0  0  0  0  0  0
   13.9410   23.5430   15.8580 C   0  0  0  0  0  0  0  0  0  0  0  0
   13.3360   22.4110   15.0340 C   0  0  0  0  0  0  0  0  0  0  0  0
   14.1720   21.5410   14.3040 C   0  0  0  0  0  0  0  0  0  0  0  0
   13.6060   20.4980   13.5440 C   0  0  0  0  0  0  0  0  0  0  0  0
   12.2020   20.3270   13.5130 C   0  0  0  0  0  0  0  0  0  0  0  0
   11.6400   19.2980   12.7640 O   0  0  0  0  0  0  0  0  0  0  0  0
   11.9150   18.0090   13.2920 C   0  0  0  0  0  0  0  0  0  0  0  0
   11.0470   16.7420   12.3170 P   0  0  0  0  0  0  0  0  0  0  0  0
    9.4740   17.0070   12.3670 O   0  0  0  0  0  0  0  0  0  0  0  0
   11.3580   15.4140   12.8920 O   0  0  0  0  0  0  0  0  0  0  0  0
   11.5320   16.8010   10.7980 O   0  0  0  0  0  0  0  0  0  0  0  0
   11.3700   21.1990   14.2470 C   0  0  0  0  0  0  0  0  0  0  0  0
   11.9370   22.2400   15.0050 C   0  0  0  0  0  0  0  0  0  0  0  0
   14.8380   20.3070   17.9020 O   0  0  0  0  0  0  0  0  0  0  0  0
   12.1230   18.9920   20.6050 C   0  0  0  0  0  0  0  0  0  0  0  0
   10.5480   18.2190   19.0560 C   0  0  0  0  0  0  0  0  0  0  0  0
    9.7560   19.2330   18.4350 O   0  0  0  0  0  0  0  0  0  0  0  0
   10.0700   19.2190   17.0400 C   0  0  0  0  0  0  0  0  0  0  0  0
   11.5620   18.8440   16.9610 C   0  0  0  0  0  0  0  0  0  0  0  0
   12.3696   17.2137   18.1445 H   0  0  0  0  0  0  0  0  0  0  0  0
   13.8280   18.6922   19.1611 H   0  0  0  0  0  0  0  0  0  0  0  0
   12.6726   22.6337   18.1609 H   0  0  0  0  0  0  0  0  0  0  0  0
   15.4477   22.4544   16.9364 H   0  0  0  0  0  0  0  0  0  0  0  0
   15.1560   23.8198   19.1157 H   0  0  0  0  0  0  0  0  0  0  0  0
   15.7752   25.4321   16.5898 H   0  0  0  0  0  0  0  0  0  0  0  0
   16.1424   25.9537   18.2670 H   0  0  0  0  0  0  0  0  0  0  0  0
   19.2141   24.9044   18.0257 H   0  0  0  0  0  0  0  0  0  0  0  0
   17.8763   25.9722   18.6449 H   0  0  0  0  0  0  0  0  0  0  0  0
   17.9587   24.9757   20.6393 H   0  0  0  0  0  0  0  0  0  0  0  0
   17.1989   22.7225   20.9628 H   0  0  0  0  0  0  0  0  0  0  0  0
   16.4456   23.2130   19.4077 H   0  0  0  0  0  0  0  0  0  0  0  0
   17.9077   22.1695   19.4077 H   0  0  0  0  0  0  0  0  0  0  0  0
   19.9161   23.7352   21.2109 H   0  0  0  0  0  0  0  0  0  0  0  0
   19.8836   22.8027   19.6759 H   0  0  0  0  0  0  0  0  0  0  0  0
   20.4302   24.5138   19.6759 H   0  0  0  0  0  0  0  0  0  0  0  0
   17.0831   26.5487   14.6740 H   0  0  0  0  0  0  0  0  0  0  0  0
   18.3650   28.6099   14.0680 H   0  0  0  0  0  0  0  0  0  0  0  0
   22.3532   29.1200   16.0722 H   0  0  0  0  0  0  0  0  0  0  0  0
   22.8576   28.2451   14.5867 H   0  0  0  0  0  0  0  0  0  0  0  0
   22.7713   30.0393   14.5867 H   0  0  0  0  0  0  0  0  0  0  0  0
   21.9553   26.8816   15.7736 H   0  0  0  0  0  0  0  0  0  0  0  0
   20.6732   24.8179   16.3826 H   0  0  0  0  0  0  0  0  0  0  0  0
   13.4400   25.1194   19.1895 H   0  0  0  0  0  0  0  0  0  0  0  0
   13.1555   24.2791   16.0843 H   0  0  0  0  0  0  0  0  0  0  0  0
   14.7511   24.0008   15.2713 H   0  0  0  0  0  0  0  0  0  0  0  0
   15.2634   21.6762   14.3278 H   0  0  0  0  0  0  0  0  0  0  0  0
   14.2558   19.8169   12.9749 H   0  0  0  0  0  0  0  0  0  0  0  0
   12.9982   17.8218   13.2514 H   0  0  0  0  0  0  0  0  0  0  0  0
   11.5685   17.9636   14.3350 H   0  0  0  0  0  0  0  0  0  0  0  0
    9.1776   17.0569   13.3103 H   0  0  0  0  0  0  0  0  0  0  0  0
   11.3447   15.4710   13.8803 H   0  0  0  0  0  0  0  0  0  0  0  0
   10.2784   21.0649   14.2266 H   0  0  0  0  0  0  0  0  0  0  0  0
   11.2881   22.9209   15.5754 H   0  0  0  0  0  0  0  0  0  0  0  0
   12.1062   19.9975   21.0507 H   0  0  0  0  0  0  0  0  0  0  0  0
   12.6901   18.3208   21.2667 H   0  0  0  0  0  0  0  0  0  0  0  0
   10.0312   17.2497   18.9988 H   0  0  0  0  0  0  0  0  0  0  0  0
    9.4569   18.4718   16.5149 H   0  0  0  0  0  0  0  0  0  0  0  0
    9.8662   20.1899   16.5648 H   0  0  0  0  0  0  0  0  0  0  0  0
   12.1779   19.7427   16.8096 H   0  0  0  0  0  0  0  0  0  0  0  0
   11.7718   18.1694   16.1179 H   0  0  0  0  0  0  0  0  0  0  0  0
  1 45  1  0
  1 42  1  0
  1  3  1  0
  2 42  1  0
  2 41  1  0
  3  4  1  0
  3 41  1  0
  4  5  1  0
  5  6  1  0
  5 40  2  0
  6  7  1  0
  7 27  1  0
  7  8  1  0
  8  9  1  0
  8 26  1  0
  9 10  1  0
 10 15  1  0
 10 11  1  0
 11 12  1  0
 12 13  1  0
 12 14  1  0
 15 24  2  0
 15 16  1  0
 15 25  2  0
 16 17  2  0
 16 23  1  0
 17 18  1  0
 18 19  2  0
 19 20  1  0
 19 22  1  0
 20 21  1  0
 22 23  2  0
 27 28  1  0
 28 29  2  0
 28 39  1  0
 29 30  1  0
 30 31  2  0
 31 32  1  0
 31 38  1  0
 32 33  1  0
 33 34  1  0
 34 37  2  0
 34 35  1  0
 34 36  1  0
 38 39  2  0
 42 43  1  0
 43 44  1  0
 44 45  1  0
  1 46  1  0
  3 47  1  0
  6 48  1  0
  7 49  1  0
  8 50  1  0
  9 51  1  0
  9 52  1  0
 11 53  1  0
 11 54  1  0
 12 55  1  0
 13 56  1  0
 13 57  1  0
 13 58  1  0
 14 59  1  0
 14 60  1  0
 14 61  1  0
 17 62  1  0
 18 63  1  0
 21 64  1  0
 21 65  1  0
 21 66  1  0
 22 67  1  0
 23 68  1  0
 26 69  1  0
 27 70  1  0
 27 71  1  0
 29 72  1  0
 30 73  1  0
 33 74  1  0
 33 75  1  0
 35 76  1  0
 36 77  1  0
 38 78  1  0
 39 79  1  0
 41 80  1  0
 41 81  1  0
 42 82  1  0
 44 83  1  0
 44 84  1  0
 45 85  1  0
 45 86  1  0
A    1
C
A    2
O
A    3
C5
A    4
O4
A    5
C4
A    6
N1
A    7
C6
A    8
C7
A    9
C15
A   10
N2
A   11
C16
A   12
C17
A   13
C24
A   14
C25
A   15
S
A   16
C18
A   17
C19
A   18
C20
A   19
C21
A   20
O1
A   21
C26
A   22
C22
A   23
C23
A   24
O7
A   25
O8
A   26
O6
A   27
C8
A   28
C9
A   29
C10
A   30
C12
A   31
C14
A   32
O40
A   33
C41
A   34
P42
A   35
O45
A   36
O44
A   37
O43
A   38
C13
A   39
C11
A   40
O5
A   41
C3
A   42
C27
A   43
O9
A   44
C2
A   45
C1
M  END
