2I4J_DRJ_A_999
     RDKit          3D

 69 71  0  0  0  0  0  0  0  0999 V2000
   20.8460   20.1950   21.2420 C   0  0  0  0  0  0  0  0  0  0  0  0
   21.1950   19.3430   20.0180 C   0  0  0  0  0  0  0  0  0  0  0  0
   19.9780   18.6660   19.3810 C   0  0  0  0  0  0  0  0  0  0  0  0
   19.3140   17.7690   20.4310 C   0  0  0  0  0  0  0  0  0  0  0  0
   20.0500   16.9290   20.9940 O   0  0  0  0  0  0  0  0  0  0  0  0
   18.0950   17.9350   20.6490 O   0  0  0  0  0  0  0  0  0  0  0  0
   18.9850   19.7150   18.8690 C   0  0  0  0  0  0  0  0  0  0  0  0
   20.4570   17.8710   18.2870 O   0  0  0  0  0  0  0  0  0  0  0  0
   19.5840   17.2500   17.4440 C   0  0  0  0  0  0  0  0  0  0  0  0
   18.3590   16.7520   17.8890 C   0  0  0  0  0  0  0  0  0  0  0  0
   17.4790   16.1500   16.9980 C   0  0  0  0  0  0  0  0  0  0  0  0
   19.9300   17.1230   16.1030 C   0  0  0  0  0  0  0  0  0  0  0  0
   19.0500   16.5210   15.2060 C   0  0  0  0  0  0  0  0  0  0  0  0
   17.8220   16.0450   15.6510 C   0  0  0  0  0  0  0  0  0  0  0  0
   16.8100   15.5160   14.6370 C   0  0  0  0  0  0  0  0  0  0  0  0
   15.8270   16.6310   14.2680 C   0  0  0  0  0  0  0  0  0  0  0  0
   15.2460   16.3560   12.9500 N   0  0  0  0  0  0  0  0  0  0  0  0
   13.9130   15.7340   12.8380 C   0  0  0  0  0  0  0  0  0  0  0  0
   13.5730   14.9680   14.1190 C   0  0  0  0  0  0  0  0  0  0  0  0
   12.1800   14.3320   14.0800 C   0  0  0  0  0  0  0  0  0  0  0  0
   11.8140   13.8120   15.4750 C   0  0  0  0  0  0  0  0  0  0  0  0
   10.3230   13.4700   15.5750 C   0  0  0  0  0  0  0  0  0  0  0  0
    9.9320   13.2980   17.0470 C   0  0  0  0  0  0  0  0  0  0  0  0
    8.5590   12.6350   17.1800 C   0  0  0  0  0  0  0  0  0  0  0  0
   15.9860   16.6510   11.8880 C   0  0  0  0  0  0  0  0  0  0  0  0
   17.2570   17.1370   11.9940 O   0  0  0  0  0  0  0  0  0  0  0  0
   17.7260   17.2810   10.7210 C   0  0  0  0  0  0  0  0  0  0  0  0
   18.9350   17.7280   10.2130 C   0  0  0  0  0  0  0  0  0  0  0  0
   19.1360   17.7740    8.8310 C   0  0  0  0  0  0  0  0  0  0  0  0
   18.1210   17.3710    7.9770 C   0  0  0  0  0  0  0  0  0  0  0  0
   16.9030   16.9200    8.4950 C   0  0  0  0  0  0  0  0  0  0  0  0
   16.7020   16.8730    9.8640 C   0  0  0  0  0  0  0  0  0  0  0  0
   15.6620   16.4970   10.6100 N   0  0  0  0  0  0  0  0  0  0  0  0
   21.0766   19.6320   22.1584 H   0  0  0  0  0  0  0  0  0  0  0  0
   21.4365   21.1229   21.2233 H   0  0  0  0  0  0  0  0  0  0  0  0
   19.7743   20.4420   21.2233 H   0  0  0  0  0  0  0  0  0  0  0  0
   21.6672   19.9913   19.2651 H   0  0  0  0  0  0  0  0  0  0  0  0
   21.8690   18.5438   20.3602 H   0  0  0  0  0  0  0  0  0  0  0  0
   20.0870   16.8868   21.9824 H   0  0  0  0  0  0  0  0  0  0  0  0
   18.5092   20.2176   19.7240 H   0  0  0  0  0  0  0  0  0  0  0  0
   19.5188   20.4576   18.2577 H   0  0  0  0  0  0  0  0  0  0  0  0
   18.2143   19.2227   18.2577 H   0  0  0  0  0  0  0  0  0  0  0  0
   18.0882   16.8365   18.9518 H   0  0  0  0  0  0  0  0  0  0  0  0
   16.5151   15.7577   17.3543 H   0  0  0  0  0  0  0  0  0  0  0  0
   20.9014   17.4990   15.7494 H   0  0  0  0  0  0  0  0  0  0  0  0
   19.3269   16.4224   14.1460 H   0  0  0  0  0  0  0  0  0  0  0  0
   17.3385   15.1790   13.7330 H   0  0  0  0  0  0  0  0  0  0  0  0
   16.2586   14.6712   15.0756 H   0  0  0  0  0  0  0  0  0  0  0  0
   15.0252   16.6761   15.0197 H   0  0  0  0  0  0  0  0  0  0  0  0
   16.3589   17.5934   14.2400 H   0  0  0  0  0  0  0  0  0  0  0  0
   13.1595   16.5184   12.6738 H   0  0  0  0  0  0  0  0  0  0  0  0
   13.9169   15.0310   11.9919 H   0  0  0  0  0  0  0  0  0  0  0  0
   14.3187   14.1718   14.2605 H   0  0  0  0  0  0  0  0  0  0  0  0
   13.5836   15.6902   14.9487 H   0  0  0  0  0  0  0  0  0  0  0  0
   11.4424   15.0846   13.7645 H   0  0  0  0  0  0  0  0  0  0  0  0
   12.1799   13.4952   13.3661 H   0  0  0  0  0  0  0  0  0  0  0  0
   12.4030   12.9069   15.6847 H   0  0  0  0  0  0  0  0  0  0  0  0
   12.0361   14.6027   16.2068 H   0  0  0  0  0  0  0  0  0  0  0  0
    9.7303   14.2837   15.1316 H   0  0  0  0  0  0  0  0  0  0  0  0
   10.1262   12.5332   15.0331 H   0  0  0  0  0  0  0  0  0  0  0  0
   10.6839   12.6699   17.5471 H   0  0  0  0  0  0  0  0  0  0  0  0
    9.8856   14.2928   17.5141 H   0  0  0  0  0  0  0  0  0  0  0  0
    8.3112   12.5154   18.2450 H   0  0  0  0  0  0  0  0  0  0  0  0
    7.7989   13.2654   16.6953 H   0  0  0  0  0  0  0  0  0  0  0  0
    8.5800   11.6478   16.6953 H   0  0  0  0  0  0  0  0  0  0  0  0
   19.7357   18.0463   10.8968 H   0  0  0  0  0  0  0  0  0  0  0  0
   20.0942   18.1280    8.4229 H   0  0  0  0  0  0  0  0  0  0  0  0
   18.2743   17.4061    6.8883 H   0  0  0  0  0  0  0  0  0  0  0  0
   16.1016   16.6014    7.8122 H   0  0  0  0  0  0  0  0  0  0  0  0
  1  2  1  0
  2  3  1  0
  3  8  1  0
  3  7  1  0
  3  4  1  0
  4  6  2  0
  4  5  1  0
  8  9  1  0
  9 12  2  0
  9 10  1  0
 10 11  2  0
 11 14  1  0
 12 13  1  0
 13 14  2  0
 14 15  1  0
 15 16  1  0
 16 17  1  0
 17 25  1  0
 17 18  1  0
 18 19  1  0
 19 20  1  0
 20 21  1  0
 21 22  1  0
 22 23  1  0
 23 24  1  0
 25 33  2  0
 25 26  1  0
 26 27  1  0
 27 32  2  0
 27 28  1  0
 28 29  2  0
 29 30  1  0
 30 31  2  0
 31 32  1  0
 32 33  1  0
  1 34  1  0
  1 35  1  0
  1 36  1  0
  2 37  1  0
  2 38  1  0
  5 39  1  0
  7 40  1  0
  7 41  1  0
  7 42  1  0
 10 43  1  0
 11 44  1  0
 12 45  1  0
 13 46  1  0
 15 47  1  0
 15 48  1  0
 16 49  1  0
 16 50  1  0
 18 51  1  0
 18 52  1  0
 19 53  1  0
 19 54  1  0
 20 55  1  0
 20 56  1  0
 21 57  1  0
 21 58  1  0
 22 59  1  0
 22 60  1  0
 23 61  1  0
 23 62  1  0
 24 63  1  0
 24 64  1  0
 24 65  1  0
 28 66  1  0
 29 67  1  0
 30 68  1  0
 31 69  1  0
A    1
CAB
A    2
CAO
A    3
CBG
A    4
CAZ
A    5
OAE
A    6
OAD
A    7
CAC
A    8
OAX
A    9
CBB
A   10
CAK
A   11
CAI
A   12
CAJ
A   13
CAH
A   14
CBA
A   15
CAT
A   16
CAV
A   17
NBF
A   18
CAU
A   19
CAS
A   20
CAR
A   21
CAQ
A   22
CAP
A   23
CAN
A   24
CAA
A   25
CBC
A   26
OAY
A   27
CBE
A   28
CAM
A   29
CAG
A   30
CAF
A   31
CAL
A   32
CBD
A   33
NAW
M  END
