1NJ1_5CA_A_512
     RDKit          3D

 48 50  0  0  0  0  0  0  0  0999 V2000
  -35.9760  -79.8260  -41.0890 N   0  0  0  0  0  0  0  0  0  0  0  0
  -34.5200  -79.9190  -41.0260 C   0  0  0  0  0  0  0  0  0  0  0  0
  -33.8810  -78.5490  -40.9800 C   0  0  0  0  0  0  0  0  0  0  0  0
  -34.8610  -77.4050  -40.0070 S   0  0  0  0  0  0  0  0  0  0  0  0
  -34.1460  -80.6510  -39.7710 C   0  0  0  0  0  0  0  0  0  0  0  0
  -34.9160  -81.1100  -38.9640 O   0  0  0  0  0  0  0  0  0  0  0  0
  -32.9120  -81.2250  -39.8930 N   0  0  0  0  0  0  0  0  0  0  0  0
  -32.2610  -82.2960  -38.8900 S   0  0  0  0  0  0  0  0  0  0  0  0
  -33.1810  -83.4350  -38.7140 O   0  0  0  0  0  0  0  0  0  0  0  0
  -30.9160  -82.5760  -39.4920 O   0  0  0  0  0  0  0  0  0  0  0  0
  -32.0400  -81.5710  -37.4770 O   0  0  0  0  0  0  0  0  0  0  0  0
  -31.4750  -80.2500  -37.3870 C   0  0  0  0  0  0  0  0  0  0  0  0
  -30.3270  -80.1980  -36.4020 C   0  0  0  0  0  0  0  0  0  0  0  0
  -30.7980  -80.4420  -35.0510 O   0  0  0  0  0  0  0  0  0  0  0  0
  -29.2370  -81.2230  -36.6300 C   0  0  0  0  0  0  0  0  0  0  0  0
  -28.2750  -80.6930  -37.5440 O   0  0  0  0  0  0  0  0  0  0  0  0
  -28.6750  -81.4880  -35.2420 C   0  0  0  0  0  0  0  0  0  0  0  0
  -27.5650  -80.6710  -34.9240 O   0  0  0  0  0  0  0  0  0  0  0  0
  -29.8410  -81.1920  -34.3160 C   0  0  0  0  0  0  0  0  0  0  0  0
  -30.5320  -82.3740  -33.7320 N   0  0  0  0  0  0  0  0  0  0  0  0
  -31.1910  -83.4110  -34.3680 C   0  0  0  0  0  0  0  0  0  0  0  0
  -31.7090  -84.3000  -33.5380 N   0  0  0  0  0  0  0  0  0  0  0  0
  -31.3760  -83.8280  -32.2790 C   0  0  0  0  0  0  0  0  0  0  0  0
  -31.6320  -84.3100  -30.9510 C   0  0  0  0  0  0  0  0  0  0  0  0
  -32.3150  -85.4240  -30.6890 N   0  0  0  0  0  0  0  0  0  0  0  0
  -31.1510  -83.5890  -29.8880 N   0  0  0  0  0  0  0  0  0  0  0  0
  -30.4530  -82.4460  -30.1300 C   0  0  0  0  0  0  0  0  0  0  0  0
  -30.1550  -81.8980  -31.3360 N   0  0  0  0  0  0  0  0  0  0  0  0
  -30.6460  -82.6400  -32.3750 C   0  0  0  0  0  0  0  0  0  0  0  0
  -36.3601  -79.8015  -40.1336 H   0  0  0  0  0  0  0  0  0  0  0  0
  -36.2438  -78.9662  -41.5889 H   0  0  0  0  0  0  0  0  0  0  0  0
  -34.1651  -80.4445  -41.9249 H   0  0  0  0  0  0  0  0  0  0  0  0
  -32.8804  -78.6352  -40.5312 H   0  0  0  0  0  0  0  0  0  0  0  0
  -33.8147  -78.1623  -42.0076 H   0  0  0  0  0  0  0  0  0  0  0  0
  -34.6546  -77.6459  -38.6742 H   0  0  0  0  0  0  0  0  0  0  0  0
  -32.3456  -80.9437  -40.7060 H   0  0  0  0  0  0  0  0  0  0  0  0
  -31.1068  -79.9514  -38.3796 H   0  0  0  0  0  0  0  0  0  0  0  0
  -32.2601  -79.5645  -37.0351 H   0  0  0  0  0  0  0  0  0  0  0  0
  -29.9114  -79.1904  -36.5502 H   0  0  0  0  0  0  0  0  0  0  0  0
  -29.5838  -82.1623  -37.0854 H   0  0  0  0  0  0  0  0  0  0  0  0
  -27.5299  -80.2825  -37.0376 H   0  0  0  0  0  0  0  0  0  0  0  0
  -28.2920  -82.5157  -35.1574 H   0  0  0  0  0  0  0  0  0  0  0  0
  -27.4750  -80.6048  -33.9403 H   0  0  0  0  0  0  0  0  0  0  0  0
  -29.4098  -80.6541  -33.4588 H   0  0  0  0  0  0  0  0  0  0  0  0
  -31.2760  -83.4885  -35.4620 H   0  0  0  0  0  0  0  0  0  0  0  0
  -32.4873  -85.7050  -29.7132 H   0  0  0  0  0  0  0  0  0  0  0  0
  -32.6706  -86.0040  -31.4624 H   0  0  0  0  0  0  0  0  0  0  0  0
  -30.0878  -81.9030  -29.2458 H   0  0  0  0  0  0  0  0  0  0  0  0
  1  2  1  0
  2  3  1  0
  2  5  1  0
  3  4  1  0
  5  6  2  0
  5  7  1  0
  7  8  1  0
  8  9  2  0
  8 10  2  0
  8 11  1  0
 11 12  1  0
 12 13  1  0
 13 14  1  0
 13 15  1  0
 14 19  1  0
 15 16  1  0
 15 17  1  0
 17 18  1  0
 17 19  1  0
 19 20  1  0
 20 21  1  0
 20 29  1  0
 21 22  2  0
 22 23  1  0
 23 24  1  0
 23 29  2  0
 24 25  1  0
 24 26  2  0
 26 27  1  0
 27 28  2  0
 28 29  1  0
  1 30  1  0
  1 31  1  0
  2 32  1  0
  3 33  1  0
  3 34  1  0
  4 35  1  0
  7 36  1  0
 12 37  1  0
 12 38  1  0
 13 39  1  0
 15 40  1  0
 16 41  1  0
 17 42  1  0
 18 43  1  0
 19 44  1  0
 21 45  1  0
 25 46  1  0
 25 47  1  0
 27 48  1  0
A    1
N
A    2
CA
A    3
CB
A    4
SG
A    5
C
A    6
O
A    7
N3S
A    8
S
A    9
O1S
A   10
O2S
A   11
O5'
A   12
C5'
A   13
C4'
A   14
O4'
A   15
C3'
A   16
O3'
A   17
C2'
A   18
O2'
A   19
C1'
A   20
N9
A   21
C8
A   22
N7
A   23
C5
A   24
C6
A   25
N6
A   26
N1
A   27
C2
A   28
N3
A   29
C4
M  END
