2I5F_5IP_A_550
     RDKit          3D

 49 49  0  0  0  0  0  0  0  0999 V2000
    8.2380  -12.1180   -1.1220 O   0  0  0  0  0  0  0  0  0  0  0  0
    6.7460  -11.9940   -1.5930 P   0  0  0  0  0  0  0  0  0  0  0  0
    6.0610  -11.9810   -0.2150 O   0  0  0  0  0  0  0  0  0  0  0  0
    6.5320  -10.8890   -2.7230 O   0  0  0  0  0  0  0  0  0  0  0  0
    6.4800  -13.3750   -2.4520 O   0  0  0  0  0  0  0  0  0  0  0  0
    5.5470  -13.1170   -3.5690 C   0  0  0  0  0  0  0  0  0  0  0  0
    6.3110  -13.4070   -4.8190 C   0  0  0  0  0  0  0  0  0  0  0  0
    7.6520  -13.6940   -4.3980 O   0  0  0  0  0  0  0  0  0  0  0  0
    9.1930  -13.6790   -4.9380 P   0  0  0  0  0  0  0  0  0  0  0  0
    9.1830  -14.8520   -5.9030 O   0  0  0  0  0  0  0  0  0  0  0  0
    9.5240  -12.3360   -5.5690 O   0  0  0  0  0  0  0  0  0  0  0  0
    9.8530  -13.8860   -3.5820 O   0  0  0  0  0  0  0  0  0  0  0  0
    4.3270  -13.9740   -3.4360 C   0  0  0  0  0  0  0  0  0  0  0  0
    3.5100  -13.6330   -2.4900 O   0  0  0  0  0  0  0  0  0  0  0  0
    3.1210  -14.3000   -1.0760 P   0  0  0  0  0  0  0  0  0  0  0  0
    2.5210  -15.6970   -1.0350 O   0  0  0  0  0  0  0  0  0  0  0  0
    2.3250  -13.0160   -0.9970 O   0  0  0  0  0  0  0  0  0  0  0  0
    4.7410  -14.1120   -0.1150 O   0  0  0  0  0  0  0  0  0  0  0  0
    3.4240  -14.5710   -4.6550 C   0  0  0  0  0  0  0  0  0  0  0  0
    2.5270  -15.6900   -4.2220 O   0  0  0  0  0  0  0  0  0  0  0  0
    4.3190  -15.2390   -5.6470 C   0  0  0  0  0  0  0  0  0  0  0  0
    3.4120  -15.3670   -6.7740 O   0  0  0  0  0  0  0  0  0  0  0  0
    3.7230  -16.3320   -8.0050 P   0  0  0  0  0  0  0  0  0  0  0  0
    3.6860  -15.5280   -9.2890 O   0  0  0  0  0  0  0  0  0  0  0  0
    5.0450  -17.0370   -7.6940 O   0  0  0  0  0  0  0  0  0  0  0  0
    2.4670  -17.1930   -7.8360 O   0  0  0  0  0  0  0  0  0  0  0  0
    5.5910  -14.3390   -5.8600 C   0  0  0  0  0  0  0  0  0  0  0  0
    5.1660  -13.1550   -6.4360 O   0  0  0  0  0  0  0  0  0  0  0  0
    5.7630  -12.8790   -7.8900 P   0  0  0  0  0  0  0  0  0  0  0  0
    7.1810  -12.3030   -7.9580 O   0  0  0  0  0  0  0  0  0  0  0  0
    5.8820  -14.2270   -8.6340 O   0  0  0  0  0  0  0  0  0  0  0  0
    4.6830  -11.9190   -8.4710 O   0  0  0  0  0  0  0  0  0  0  0  0
    8.2726  -12.1209   -0.1326 H   0  0  0  0  0  0  0  0  0  0  0  0
    6.7497  -11.9941    0.4960 H   0  0  0  0  0  0  0  0  0  0  0  0
    5.1853  -12.0782   -3.5773 H   0  0  0  0  0  0  0  0  0  0  0  0
    6.3614  -12.5413   -5.4958 H   0  0  0  0  0  0  0  0  0  0  0  0
    9.6886  -11.6684   -4.8568 H   0  0  0  0  0  0  0  0  0  0  0  0
    9.2027  -13.6821   -2.8639 H   0  0  0  0  0  0  0  0  0  0  0  0
    4.9966  -14.8251   -3.2431 H   0  0  0  0  0  0  0  0  0  0  0  0
    2.1770  -12.7773   -0.0477 H   0  0  0  0  0  0  0  0  0  0  0  0
    4.5527  -14.1338    0.8567 H   0  0  0  0  0  0  0  0  0  0  0  0
    2.8508  -13.7149   -5.0404 H   0  0  0  0  0  0  0  0  0  0  0  0
    2.4981  -15.7260   -3.2331 H   0  0  0  0  0  0  0  0  0  0  0  0
    4.7540  -16.2155   -5.3877 H   0  0  0  0  0  0  0  0  0  0  0  0
    5.1627  -17.0998   -6.7130 H   0  0  0  0  0  0  0  0  0  0  0  0
    2.2814  -17.3202   -6.8719 H   0  0  0  0  0  0  0  0  0  0  0  0
    6.2147  -15.1698   -6.2216 H   0  0  0  0  0  0  0  0  0  0  0  0
    7.5248  -12.1633   -7.0402 H   0  0  0  0  0  0  0  0  0  0  0  0
    4.1939  -11.4843   -7.7281 H   0  0  0  0  0  0  0  0  0  0  0  0
  1  2  1  0
  2  4  2  0
  2  5  1  0
  2  3  1  0
  5  6  1  0
  6  7  1  0
  6 13  1  0
  7 27  1  0
  7  8  1  0
  8  9  1  0
  9 10  2  0
  9 11  1  0
  9 12  1  0
 13 19  1  0
 13 14  1  0
 14 15  1  0
 15 16  2  0
 15 17  1  0
 15 18  1  0
 19 21  1  0
 19 20  1  0
 21 22  1  0
 21 27  1  0
 22 23  1  0
 23 24  2  0
 23 26  1  0
 23 25  1  0
 27 28  1  0
 28 29  1  0
 29 31  2  0
 29 32  1  0
 29 30  1  0
  1 33  1  0
  3 34  1  0
  6 35  1  0
  7 36  1  0
 11 37  1  0
 12 38  1  0
 13 39  1  0
 17 40  1  0
 18 41  1  0
 19 42  1  0
 20 43  1  0
 21 44  1  0
 25 45  1  0
 26 46  1  0
 27 47  1  0
 30 48  1  0
 32 49  1  0
A    1
O46
A    2
P6
A    3
O26
A    4
O36
A    5
O16
A    6
C6
A    7
C1
A    8
O11
A    9
P1
A   10
O41
A   11
O31
A   12
O21
A   13
C5
A   14
O15
A   15
P5
A   16
O45
A   17
O35
A   18
O25
A   19
C4
A   20
O14
A   21
C3
A   22
O13
A   23
P3
A   24
O43
A   25
O33
A   26
O23
A   27
C2
A   28
O12
A   29
P2
A   30
O22
A   31
O32
A   32
O42
M  END
