2I80_G1L_A_400
     RDKit          3D

 31 31  0  0  0  0  0  0  0  0999 V2000
   15.3360    2.0630   -0.1630 F   0  0  0  0  0  0  0  0  0  0  0  0
   16.4260    1.3260   -0.0430 C   0  0  0  0  0  0  0  0  0  0  0  0
   17.2760    1.7380   -0.9760 F   0  0  0  0  0  0  0  0  0  0  0  0
   16.9770    1.3750    1.1750 F   0  0  0  0  0  0  0  0  0  0  0  0
   16.1500   -0.1220   -0.2740 C   0  0  0  0  0  0  0  0  0  0  0  0
   17.2630   -0.9290   -0.1880 C   0  0  0  0  0  0  0  0  0  0  0  0
   17.1530   -2.2800   -0.3650 C   0  0  0  0  0  0  0  0  0  0  0  0
   14.9050   -0.6920   -0.5420 C   0  0  0  0  0  0  0  0  0  0  0  0
   14.8020   -2.0760   -0.7380 C   0  0  0  0  0  0  0  0  0  0  0  0
   15.9370   -2.8890   -0.6450 C   0  0  0  0  0  0  0  0  0  0  0  0
   15.8780   -4.2370   -0.8630 N   0  0  0  0  0  0  0  0  0  0  0  0
   16.9310   -5.0830   -0.8170 C   0  0  0  0  0  0  0  0  0  0  0  0
   18.0900   -4.7490   -0.5930 O   0  0  0  0  0  0  0  0  0  0  0  0
   16.6490   -6.5530   -1.0350 C   0  0  0  0  0  0  0  0  0  0  0  0
   15.2320   -6.7900   -1.5260 C   0  0  0  0  0  0  0  0  0  0  0  0
   17.6100   -7.1930   -2.0330 C   0  0  0  0  0  0  0  0  0  0  0  0
   16.8890   -7.2260    0.2990 C   0  0  0  0  0  0  0  0  0  0  0  0
   18.3260   -6.7770    1.2240 Cl  0  0  0  0  0  0  0  0  0  0  0  0
   18.2461   -0.4837    0.0244 H   0  0  0  0  0  0  0  0  0  0  0  0
   18.0554   -2.9037   -0.2831 H   0  0  0  0  0  0  0  0  0  0  0  0
   14.0080   -0.0578   -0.5992 H   0  0  0  0  0  0  0  0  0  0  0  0
   13.8241   -2.5252   -0.9660 H   0  0  0  0  0  0  0  0  0  0  0  0
   14.9558   -4.6411   -1.0801 H   0  0  0  0  0  0  0  0  0  0  0  0
   14.5590   -6.9026   -0.6632 H   0  0  0  0  0  0  0  0  0  0  0  0
   14.9070   -5.9337   -2.1353 H   0  0  0  0  0  0  0  0  0  0  0  0
   15.2033   -7.7054   -2.1353 H   0  0  0  0  0  0  0  0  0  0  0  0
   18.4054   -7.7227   -1.4882 H   0  0  0  0  0  0  0  0  0  0  0  0
   17.0608   -7.9063   -2.6651 H   0  0  0  0  0  0  0  0  0  0  0  0
   18.0565   -6.4113   -2.6651 H   0  0  0  0  0  0  0  0  0  0  0  0
   16.0154   -7.0122    0.9323 H   0  0  0  0  0  0  0  0  0  0  0  0
   17.0541   -8.2826    0.0415 H   0  0  0  0  0  0  0  0  0  0  0  0
  1  2  1  0
  2  3  1  0
  2  5  1  0
  2  4  1  0
  5  8  2  0
  5  6  1  0
  6  7  2  0
  7 10  1  0
  8  9  1  0
  9 10  2  0
 10 11  1  0
 11 12  1  0
 12 14  1  0
 12 13  2  0
 14 16  1  0
 14 15  1  0
 14 17  1  0
 17 18  1  0
  6 19  1  0
  7 20  1  0
  8 21  1  0
  9 22  1  0
 11 23  1  0
 15 24  1  0
 15 25  1  0
 15 26  1  0
 16 27  1  0
 16 28  1  0
 16 29  1  0
 17 30  1  0
 17 31  1  0
A    1
F23
A    2
C20
A    3
F21
A    4
F22
A    5
C3
A    6
C2
A    7
C1
A    8
C4
A    9
C5
A   10
C6
A   11
N11
A   12
C12
A   13
O18
A   14
C13
A   15
C14
A   16
C15
A   17
C16
A   18
CL17
M  END
