2ICA_2IC_A_1
     RDKit          3D

 57 61  0  0  0  0  0  0  0  0999 V2000
   -5.9170   -0.3460   28.3750 C   0  0  0  0  0  0  0  0  0  0  0  0
   -5.3870   -0.1250   29.6500 C   0  0  0  0  0  0  0  0  0  0  0  0
   -7.8190    1.1030   28.8260 C   0  0  0  0  0  0  0  0  0  0  0  0
   -7.1200    0.2360   27.9440 C   0  0  0  0  0  0  0  0  0  0  0  0
  -10.1350    1.7020   29.1900 C   0  0  0  0  0  0  0  0  0  0  0  0
  -10.7030    2.5370   27.0990 C   0  0  0  0  0  0  0  0  0  0  0  0
  -10.9490    3.9460   26.5410 C   0  0  0  0  0  0  0  0  0  0  0  0
  -11.7360    3.7710   25.2940 N   0  0  0  0  0  0  0  0  0  0  0  0
  -11.4780    2.4260   24.8100 C   0  0  0  0  0  0  0  0  0  0  0  0
  -11.3600    1.6130   26.0770 C   0  0  0  0  0  0  0  0  0  0  0  0
  -10.8010    0.2210   25.9750 C   0  0  0  0  0  0  0  0  0  0  0  0
  -10.8020   -2.0610   26.8730 C   0  0  0  0  0  0  0  0  0  0  0  0
   -9.1710   -1.4240   25.1750 C   0  0  0  0  0  0  0  0  0  0  0  0
   -9.7220   -0.1330   25.1160 C   0  0  0  0  0  0  0  0  0  0  0  0
   -9.1980   -3.7090   26.0550 C   0  0  0  0  0  0  0  0  0  0  0  0
   -5.0550   -1.4000   27.3100 Cl  0  0  0  0  0  0  0  0  0  0  0  0
   -6.1080    0.7090   30.5060 C   0  0  0  0  0  0  0  0  0  0  0  0
   -7.2970    1.3340   30.1120 C   0  0  0  0  0  0  0  0  0  0  0  0
   -8.9920    1.6820   28.4480 N   0  0  0  0  0  0  0  0  0  0  0  0
  -11.1120    2.2600   28.4660 N   0  0  0  0  0  0  0  0  0  0  0  0
  -11.3580   -0.7730   26.8130 C   0  0  0  0  0  0  0  0  0  0  0  0
   -9.7150   -2.3790   26.0470 C   0  0  0  0  0  0  0  0  0  0  0  0
   -8.8040   -4.7980   26.0330 N   0  0  0  0  0  0  0  0  0  0  0  0
  -11.4910    4.6370   24.1370 C   0  0  0  0  0  0  0  0  0  0  0  0
  -12.1830    5.9530   24.2900 C   0  0  0  0  0  0  0  0  0  0  0  0
  -11.3500    7.2220   25.1550 S   0  0  0  0  0  0  0  0  0  0  0  0
  -12.7530    8.2560   25.0140 C   0  0  0  0  0  0  0  0  0  0  0  0
  -13.6670    7.7260   24.1900 C   0  0  0  0  0  0  0  0  0  0  0  0
  -13.3550    6.3550   23.7660 C   0  0  0  0  0  0  0  0  0  0  0  0
  -14.8570    8.4870   23.7440 C   0  0  0  0  0  0  0  0  0  0  0  0
  -15.6030    7.9730   22.8830 O   0  0  0  0  0  0  0  0  0  0  0  0
  -15.0660    9.6200   24.2290 O   0  0  0  0  0  0  0  0  0  0  0  0
   -9.2020    2.2330   27.2230 C   0  0  0  0  0  0  0  0  0  0  0  0
   -8.3850    2.4670   26.3330 O   0  0  0  0  0  0  0  0  0  0  0  0
  -12.4870    2.4400   28.9310 C   0  0  0  0  0  0  0  0  0  0  0  0
  -10.2820    1.2740   30.3330 O   0  0  0  0  0  0  0  0  0  0  0  0
   -5.5300    0.9450   32.1050 Cl  0  0  0  0  0  0  0  0  0  0  0  0
   -4.4409   -0.5893   29.9653 H   0  0  0  0  0  0  0  0  0  0  0  0
   -7.5149    0.0240   26.9394 H   0  0  0  0  0  0  0  0  0  0  0  0
  -11.5146    4.5492   27.2664 H   0  0  0  0  0  0  0  0  0  0  0  0
  -10.0011    4.4685   26.3446 H   0  0  0  0  0  0  0  0  0  0  0  0
  -12.3102    2.0656   24.1875 H   0  0  0  0  0  0  0  0  0  0  0  0
  -10.5818    2.3633   24.1752 H   0  0  0  0  0  0  0  0  0  0  0  0
  -12.3650    1.3105   26.4064 H   0  0  0  0  0  0  0  0  0  0  0  0
  -11.2153   -2.8129   27.5613 H   0  0  0  0  0  0  0  0  0  0  0  0
   -8.3135   -1.6859   24.5378 H   0  0  0  0  0  0  0  0  0  0  0  0
   -9.3197    0.6046   24.4060 H   0  0  0  0  0  0  0  0  0  0  0  0
   -7.8227    2.0051   30.8072 H   0  0  0  0  0  0  0  0  0  0  0  0
  -12.2392   -0.5337   27.4264 H   0  0  0  0  0  0  0  0  0  0  0  0
  -10.4089    4.8098   24.0410 H   0  0  0  0  0  0  0  0  0  0  0  0
  -11.8856    4.1385   23.2393 H   0  0  0  0  0  0  0  0  0  0  0  0
  -12.8702    9.2178   25.5348 H   0  0  0  0  0  0  0  0  0  0  0  0
  -13.9913    5.7419   23.1109 H   0  0  0  0  0  0  0  0  0  0  0  0
  -15.0884    9.7415   25.2113 H   0  0  0  0  0  0  0  0  0  0  0  0
  -12.5048    2.4423   30.0309 H   0  0  0  0  0  0  0  0  0  0  0  0
  -12.8786    3.3971   28.5559 H   0  0  0  0  0  0  0  0  0  0  0  0
  -13.1117    1.6160   28.5559 H   0  0  0  0  0  0  0  0  0  0  0  0
  1 16  1  0
  1  4  2  0
  1  2  1  0
  2 17  2  0
  3  4  1  0
  3 19  1  0
  3 18  2  0
  5 19  1  0
  5 20  1  0
  5 36  2  0
  6 10  1  0
  6  7  1  0
  6 33  1  0
  6 20  1  0
  7  8  1  0
  8 24  1  0
  8  9  1  0
  9 10  1  0
 10 11  1  0
 11 14  1  0
 11 21  2  0
 12 22  2  0
 12 21  1  0
 13 14  2  0
 13 22  1  0
 15 23  3  0
 15 22  1  0
 17 18  1  0
 17 37  1  0
 19 33  1  0
 20 35  1  0
 24 25  1  0
 25 29  2  0
 25 26  1  0
 26 27  1  0
 27 28  2  0
 28 30  1  0
 28 29  1  0
 30 31  2  0
 30 32  1  0
 33 34  2  0
  2 38  1  0
  4 39  1  0
  7 40  1  0
  7 41  1  0
  9 42  1  0
  9 43  1  0
 10 44  1  0
 12 45  1  0
 13 46  1  0
 14 47  1  0
 18 48  1  0
 21 49  1  0
 24 50  1  0
 24 51  1  0
 27 52  1  0
 29 53  1  0
 32 54  1  0
 35 55  1  0
 35 56  1  0
 35 57  1  0
A    1
C2
A    2
C3
A    3
C8
A    4
C9
A    5
C12
A    6
C14
A    7
C15
A    8
N18
A    9
C19
A   10
C22
A   11
C24
A   12
C27
A   13
C30
A   14
C32
A   15
C34
A   16
CL1
A   17
C5
A   18
C6
A   19
N11
A   20
N13
A   21
C25
A   22
C29
A   23
N35
A   24
C36
A   25
C39
A   26
S40
A   27
C41
A   28
C43
A   29
C44
A   30
C46
A   31
O47
A   32
O48
A   33
C50
A   34
O51
A   35
C52
A   36
O56
A   37
CL57
M  END
