2IEI_FRX_A_904
     RDKit          3D

 49 52  0  0  0  0  0  0  0  0999 V2000
   75.2350   20.4440   24.0820 O   0  0  0  0  0  0  0  0  0  0  0  0
   75.1830   19.5820   23.2170 C   0  0  0  0  0  0  0  0  0  0  0  0
   74.8880   18.3000   23.4590 N   0  0  0  0  0  0  0  0  0  0  0  0
   74.5650   17.6250   24.7140 C   0  0  0  0  0  0  0  0  0  0  0  0
   74.1380   16.2220   24.2730 C   0  0  0  0  0  0  0  0  0  0  0  0
   74.2380   15.2890   25.3470 O   0  0  0  0  0  0  0  0  0  0  0  0
   75.4730   19.9680   21.7830 C   0  0  0  0  0  0  0  0  0  0  0  0
   74.6340   19.2980   20.7830 N   0  0  0  0  0  0  0  0  0  0  0  0
   73.3660   19.6650   20.4840 C   0  0  0  0  0  0  0  0  0  0  0  0
   72.8280   20.6250   21.0050 O   0  0  0  0  0  0  0  0  0  0  0  0
   75.2500   18.2570   20.0570 C   0  0  0  0  0  0  0  0  0  0  0  0
   76.3940   17.6130   20.5440 C   0  0  0  0  0  0  0  0  0  0  0  0
   77.0010   16.5960   19.8010 C   0  0  0  0  0  0  0  0  0  0  0  0
   76.4680   16.2160   18.5740 C   0  0  0  0  0  0  0  0  0  0  0  0
   74.7300   17.8770   18.8220 C   0  0  0  0  0  0  0  0  0  0  0  0
   75.3310   16.8570   18.0820 C   0  0  0  0  0  0  0  0  0  0  0  0
   73.4950   18.5750   18.2870 C   0  0  0  0  0  0  0  0  0  0  0  0
   72.5700   18.9070   19.4500 C   0  0  0  0  0  0  0  0  0  0  0  0
   71.3810   19.6330   18.9930 N   0  0  0  0  0  0  0  0  0  0  0  0
   70.1390   19.1460   19.1270 C   0  0  0  0  0  0  0  0  0  0  0  0
   69.9550   17.9950   19.4990 O   0  0  0  0  0  0  0  0  0  0  0  0
   68.9170   19.9260   18.8490 C   0  0  0  0  0  0  0  0  0  0  0  0
   67.6620   19.5780   19.2620 N   0  0  0  0  0  0  0  0  0  0  0  0
   66.7970   20.5170   18.7760 C   0  0  0  0  0  0  0  0  0  0  0  0
   67.4650   21.4210   18.0970 C   0  0  0  0  0  0  0  0  0  0  0  0
   68.5970   20.9540   18.2410 C   0  0  0  0  0  0  0  0  0  0  0  0
   66.7420   22.4120   17.5770 C   0  0  0  0  0  0  0  0  0  0  0  0
   65.1510   20.7570   18.8680 S   0  0  0  0  0  0  0  0  0  0  0  0
   65.4570   22.1490   17.9520 C   0  0  0  0  0  0  0  0  0  0  0  0
   64.0920   23.1870   17.5210 Cl  0  0  0  0  0  0  0  0  0  0  0  0
   74.8886   17.6915   22.6280 H   0  0  0  0  0  0  0  0  0  0  0  0
   75.4453   17.5783   25.3720 H   0  0  0  0  0  0  0  0  0  0  0  0
   73.7859   18.1461   25.2898 H   0  0  0  0  0  0  0  0  0  0  0  0
   73.0951   16.2575   23.9250 H   0  0  0  0  0  0  0  0  0  0  0  0
   74.8069   15.8935   23.4639 H   0  0  0  0  0  0  0  0  0  0  0  0
   74.1862   15.7720   26.2096 H   0  0  0  0  0  0  0  0  0  0  0  0
   75.3228   21.0532   21.6838 H   0  0  0  0  0  0  0  0  0  0  0  0
   76.5071   19.6523   21.5808 H   0  0  0  0  0  0  0  0  0  0  0  0
   76.8170   17.9085   21.5155 H   0  0  0  0  0  0  0  0  0  0  0  0
   77.9013   16.0958   20.1874 H   0  0  0  0  0  0  0  0  0  0  0  0
   76.9421   15.4115   17.9926 H   0  0  0  0  0  0  0  0  0  0  0  0
   74.9080   16.5589   17.1113 H   0  0  0  0  0  0  0  0  0  0  0  0
   73.7889   19.5022   17.7733 H   0  0  0  0  0  0  0  0  0  0  0  0
   72.9753   17.9169   17.5751 H   0  0  0  0  0  0  0  0  0  0  0  0
   72.1867   17.9851   19.9117 H   0  0  0  0  0  0  0  0  0  0  0  0
   71.5049   20.5550   18.5509 H   0  0  0  0  0  0  0  0  0  0  0  0
   67.4138   18.7585   19.8344 H   0  0  0  0  0  0  0  0  0  0  0  0
   69.4181   21.5177   17.7741 H   0  0  0  0  0  0  0  0  0  0  0  0
   67.1032   23.2591   16.9754 H   0  0  0  0  0  0  0  0  0  0  0  0
  1  2  2  0
  2  7  1  0
  2  3  1  0
  3  4  1  0
  4  5  1  0
  5  6  1  0
  7  8  1  0
  8 11  1  0
  8  9  1  0
  9 18  1  0
  9 10  2  0
 11 15  2  0
 11 12  1  0
 12 13  2  0
 13 14  1  0
 14 16  2  0
 15 16  1  0
 15 17  1  0
 17 18  1  0
 18 19  1  0
 19 20  1  0
 20 22  1  0
 20 21  2  0
 22 26  2  0
 22 23  1  0
 23 24  1  0
 24 25  2  0
 24 28  1  0
 25 27  1  0
 25 26  1  0
 27 29  2  0
 28 29  1  0
 29 30  1  0
  3 31  1  0
  4 32  1  0
  4 33  1  0
  5 34  1  0
  5 35  1  0
  6 36  1  0
  7 37  1  0
  7 38  1  0
 12 39  1  0
 13 40  1  0
 14 41  1  0
 16 42  1  0
 17 43  1  0
 17 44  1  0
 18 45  1  0
 19 46  1  0
 23 47  1  0
 26 48  1  0
 27 49  1  0
A    1
O26
A    2
C22
A    3
N22
A    4
C24
A    5
C25
A    6
O25
A    7
C21
A    8
N17
A    9
C19
A   10
O19
A   11
C17
A   12
C31
A   13
C30
A   14
C29
A   15
C16
A   16
C28
A   17
C15
A   18
C13
A   19
N11
A   20
C11
A   21
O13
A   22
C7
A   23
N8
A   24
C3
A   25
C4
A   26
C6
A   27
C5
A   28
S2
A   29
C1
A   30
CL
M  END
