2IHV_GVA_A_603
     RDKit          3D

 24 23  0  0  0  0  0  0  0  0999 V2000
   30.3630   64.7970   11.0470 O   0  0  0  0  0  0  0  0  0  0  0  0
   31.4310   65.2950   10.6440 C   0  0  0  0  0  0  0  0  0  0  0  0
   31.9860   64.9280    9.5810 O   0  0  0  0  0  0  0  0  0  0  0  0
   32.0590   66.3730   11.5050 C   0  0  0  0  0  0  0  0  0  0  0  0
   33.3850   66.8570   10.9350 C   0  0  0  0  0  0  0  0  0  0  0  0
   33.1600   67.9560    9.9140 C   0  0  0  0  0  0  0  0  0  0  0  0
   34.4750   68.6400    9.5740 C   0  0  0  0  0  0  0  0  0  0  0  0
   34.3610   69.3800    8.3300 N   0  0  0  0  0  0  0  0  0  0  0  0
   35.3950   69.9920    7.7790 C   0  0  0  0  0  0  0  0  0  0  0  0
   36.6340   69.6220    8.1250 N   0  0  0  0  0  0  0  0  0  0  0  0
   35.1930   70.9130    6.9300 N   0  0  0  0  0  0  0  0  0  0  0  0
   32.8113   64.3823    9.6163 H   0  0  0  0  0  0  0  0  0  0  0  0
   31.3669   67.2257   11.5676 H   0  0  0  0  0  0  0  0  0  0  0  0
   32.2526   65.9441   12.4993 H   0  0  0  0  0  0  0  0  0  0  0  0
   34.0092   67.2461   11.7529 H   0  0  0  0  0  0  0  0  0  0  0  0
   33.8871   66.0122   10.4407 H   0  0  0  0  0  0  0  0  0  0  0  0
   32.7314   67.5194    8.9998 H   0  0  0  0  0  0  0  0  0  0  0  0
   32.4692   68.7003   10.3368 H   0  0  0  0  0  0  0  0  0  0  0  0
   34.7410   69.3346   10.3844 H   0  0  0  0  0  0  0  0  0  0  0  0
   35.2541   67.8721    9.4590 H   0  0  0  0  0  0  0  0  0  0  0  0
   33.4449   69.4297    7.8618 H   0  0  0  0  0  0  0  0  0  0  0  0
   36.8898   69.5456    9.1198 H   0  0  0  0  0  0  0  0  0  0  0  0
   37.3316   69.4137    7.3964 H   0  0  0  0  0  0  0  0  0  0  0  0
   35.9916   71.3963    6.4947 H   0  0  0  0  0  0  0  0  0  0  0  0
  1  2  2  0
  2  3  1  0
  2  4  1  0
  4  5  1  0
  5  6  1  0
  6  7  1  0
  7  8  1  0
  8  9  1  0
  9 10  1  0
  9 11  2  3
  3 12  1  0
  4 13  1  0
  4 14  1  0
  5 15  1  0
  5 16  1  0
  6 17  1  0
  6 18  1  0
  7 19  1  0
  7 20  1  0
  8 21  1  0
 10 22  1  0
 10 23  1  0
 11 24  1  0
A    1
OB
A    2
C
A    3
OA
A    4
CA
A    5
CB
A    6
CG
A    7
CD
A    8
NE
A    9
CZ
A   10
NH2
A   11
NH1
M  END
