2IIT_872_A_9001
     RDKit          3D

 47 48  0  0  0  0  0  0  0  0999 V2000
   34.5060   50.2940   36.6290 C   0  0  0  0  0  0  0  0  0  0  0  0
   35.8380   50.8090   36.6640 C   0  0  0  0  0  0  0  0  0  0  0  0
   37.0040   49.9930   36.3950 C   0  0  0  0  0  0  0  0  0  0  0  0
   36.8100   48.6200   36.0840 C   0  0  0  0  0  0  0  0  0  0  0  0
   35.4910   48.0950   36.0480 C   0  0  0  0  0  0  0  0  0  0  0  0
   34.3490   48.9130   36.3110 C   0  0  0  0  0  0  0  0  0  0  0  0
   35.3270   46.8250   35.7560 F   0  0  0  0  0  0  0  0  0  0  0  0
   36.0070   52.0830   36.9620 F   0  0  0  0  0  0  0  0  0  0  0  0
   38.3900   50.5640   36.4280 C   0  0  0  0  0  0  0  0  0  0  0  0
   39.0600   50.8350   34.9990 C   0  0  0  0  0  0  0  0  0  0  0  0
   40.3430   51.6390   35.2880 C   0  0  0  0  0  0  0  0  0  0  0  0
   41.5090   50.8440   36.0310 C   0  0  0  0  0  0  0  0  0  0  0  0
   42.6970   51.5460   36.3720 N   0  0  0  0  0  0  0  0  0  0  0  0
   38.2160   51.5680   34.3990 N   0  0  0  0  0  0  0  0  0  0  0  0
   41.3470   49.6470   36.3160 O   0  0  0  0  0  0  0  0  0  0  0  0
   43.2020   52.6530   35.4770 C   0  0  0  0  0  0  0  0  0  0  0  0
   44.1280   52.1160   34.3920 C   0  0  0  0  0  0  0  0  0  0  0  0
   45.3350   51.3840   34.9880 C   0  0  0  0  0  0  0  0  0  0  0  0
   45.0380   50.6120   36.1920 N   0  0  0  0  0  0  0  0  0  0  0  0
   44.8420   50.5180   37.4650 C   0  0  0  0  0  0  0  0  0  0  0  0
   43.3710   51.0860   37.6760 C   0  0  0  0  0  0  0  0  0  0  0  0
   42.9910   51.0400   39.2170 C   0  0  0  0  0  0  0  0  0  0  0  0
   45.5080   50.1230   38.3960 O   0  0  0  0  0  0  0  0  0  0  0  0
   33.1400   48.3780   36.2630 F   0  0  0  0  0  0  0  0  0  0  0  0
   41.7010   50.3040   39.6050 C   0  0  0  0  0  0  0  0  0  0  0  0
   41.5430   50.3580   40.9130 F   0  0  0  0  0  0  0  0  0  0  0  0
   41.7610   49.0300   39.2640 F   0  0  0  0  0  0  0  0  0  0  0  0
   40.6390   50.8310   39.0300 F   0  0  0  0  0  0  0  0  0  0  0  0
   33.6377   50.9360   36.8386 H   0  0  0  0  0  0  0  0  0  0  0  0
   37.6725   47.9706   35.8733 H   0  0  0  0  0  0  0  0  0  0  0  0
   38.3493   51.5205   36.9697 H   0  0  0  0  0  0  0  0  0  0  0  0
   39.0176   49.8035   36.9156 H   0  0  0  0  0  0  0  0  0  0  0  0
   39.3028   49.9365   34.4127 H   0  0  0  0  0  0  0  0  0  0  0  0
   40.7393   51.9987   34.3270 H   0  0  0  0  0  0  0  0  0  0  0  0
   40.0430   52.4418   35.9776 H   0  0  0  0  0  0  0  0  0  0  0  0
   37.6409   52.0675   35.0923 H   0  0  0  0  0  0  0  0  0  0  0  0
   38.7124   52.2507   33.8088 H   0  0  0  0  0  0  0  0  0  0  0  0
   42.3426   53.1476   35.0008 H   0  0  0  0  0  0  0  0  0  0  0  0
   43.7703   53.3639   36.0948 H   0  0  0  0  0  0  0  0  0  0  0  0
   43.5648   51.4164   33.7569 H   0  0  0  0  0  0  0  0  0  0  0  0
   44.4998   52.9691   33.8055 H   0  0  0  0  0  0  0  0  0  0  0  0
   45.7303   50.6955   34.2266 H   0  0  0  0  0  0  0  0  0  0  0  0
   46.0583   52.1588   35.2822 H   0  0  0  0  0  0  0  0  0  0  0  0
   44.9288   49.6466   35.8499 H   0  0  0  0  0  0  0  0  0  0  0  0
   42.9603   50.0758   37.5319 H   0  0  0  0  0  0  0  0  0  0  0  0
   43.8218   50.5515   39.7472 H   0  0  0  0  0  0  0  0  0  0  0  0
   42.8101   52.0892   39.4935 H   0  0  0  0  0  0  0  0  0  0  0  0
  1  2  2  0
  1  6  1  0
  2  8  1  0
  2  3  1  0
  3  9  1  0
  3  4  2  0
  4  5  1  0
  5  6  2  0
  5  7  1  0
  6 24  1  0
  9 10  1  0
 10 11  1  0
 10 14  1  0
 11 12  1  0
 12 13  1  0
 12 15  2  0
 13 16  1  0
 13 21  1  0
 16 17  1  0
 17 18  1  0
 18 19  1  0
 19 20  1  0
 20 21  1  0
 20 23  2  0
 21 22  1  0
 22 25  1  0
 25 28  1  0
 25 26  1  0
 25 27  1  0
  1 29  1  0
  4 30  1  0
  9 31  1  0
  9 32  1  0
 10 33  1  0
 11 34  1  0
 11 35  1  0
 14 36  1  0
 14 37  1  0
 16 38  1  0
 16 39  1  0
 17 40  1  0
 17 41  1  0
 18 42  1  0
 18 43  1  0
 19 44  1  0
 21 45  1  0
 22 46  1  0
 22 47  1  0
A    1
C1
A    2
C2
A    3
C3
A    4
C4
A    5
C5
A    6
C6
A    7
F9
A    8
F10
A    9
C11
A   10
C12
A   11
C15
A   12
C16
A   13
N19
A   14
N20
A   15
O22
A   16
C25
A   17
C26
A   18
C27
A   19
N28
A   20
C29
A   21
C30
A   22
C37
A   23
O39
A   24
F41
A   25
C42
A   26
F45
A   27
F46
A   28
F47
M  END
