2IKG_BTO_A_317
     RDKit          3D

 31 32  0  0  0  0  0  0  0  0999 V2000
   14.5990   -5.2950   11.4120 C   0  0  0  0  0  0  0  0  0  0  0  0
   15.2200   -4.3330   10.5700 C   0  0  0  0  0  0  0  0  0  0  0  0
   16.6170   -4.0490   10.7260 C   0  0  0  0  0  0  0  0  0  0  0  0
   17.4080   -4.6810   11.7230 C   0  0  0  0  0  0  0  0  0  0  0  0
   16.8590   -5.6570   12.5850 C   0  0  0  0  0  0  0  0  0  0  0  0
   15.3480   -5.9410   12.4100 C   0  0  0  0  0  0  0  0  0  0  0  0
   17.2900   -3.1280    9.9260 N   0  0  0  0  0  0  0  0  0  0  0  0
   18.4840   -2.9850   10.1740 O   0  0  0  0  0  0  0  0  0  0  0  0
   16.6490   -2.5540    9.0660 O   0  0  0  0  0  0  0  0  0  0  0  0
   17.7440   -6.0660   13.7480 C   0  0  0  0  0  0  0  0  0  0  0  0
   17.2930   -6.7410   14.9120 N   0  0  0  0  0  0  0  0  0  0  0  0
   18.2520   -6.9820   15.6660 C   0  0  0  0  0  0  0  0  0  0  0  0
   18.2140   -7.8660   16.8540 C   0  0  0  0  0  0  0  0  0  0  0  0
   16.9030   -7.9370   17.6860 C   0  0  0  0  0  0  0  0  0  0  0  0
   16.8720   -6.6070   18.4880 C   0  0  0  0  0  0  0  0  0  0  0  0
   15.4890   -6.1830   18.9680 C   0  0  0  0  0  0  0  0  0  0  0  0
   15.3580   -5.7710   20.1150 O   0  0  0  0  0  0  0  0  0  0  0  0
   14.5200   -6.2440   18.2500 O   0  0  0  0  0  0  0  0  0  0  0  0
   19.3790   -6.4930   15.0660 O   0  0  0  0  0  0  0  0  0  0  0  0
   19.0150   -5.9130   13.8370 N   0  0  0  0  0  0  0  0  0  0  0  0
   13.5330   -5.5336   11.2825 H   0  0  0  0  0  0  0  0  0  0  0  0
   14.6319   -3.8088    9.8023 H   0  0  0  0  0  0  0  0  0  0  0  0
   18.4679   -4.4053   11.8258 H   0  0  0  0  0  0  0  0  0  0  0  0
   14.8520   -6.6606   13.0780 H   0  0  0  0  0  0  0  0  0  0  0  0
   18.4332   -8.8863   16.5063 H   0  0  0  0  0  0  0  0  0  0  0  0
   18.9460   -7.4205   17.5437 H   0  0  0  0  0  0  0  0  0  0  0  0
   16.0273   -8.0115   17.0244 H   0  0  0  0  0  0  0  0  0  0  0  0
   16.8740   -8.8193   18.3422 H   0  0  0  0  0  0  0  0  0  0  0  0
   17.5195   -6.7237   19.3696 H   0  0  0  0  0  0  0  0  0  0  0  0
   17.2152   -5.8214   17.7988 H   0  0  0  0  0  0  0  0  0  0  0  0
   13.6140   -6.3010   18.6450 H   0  0  0  0  0  0  0  0  0  0  0  0
  1  6  2  0
  1  2  1  0
  2  3  2  0
  3  4  1  0
  3  7  1  0
  4  5  2  0
  5 10  1  0
  5  6  1  0
  7  8  1  0
  7  9  2  0
 10 11  1  0
 10 20  2  0
 11 12  2  0
 12 13  1  0
 12 19  1  0
 13 14  1  0
 14 15  1  0
 15 16  1  0
 16 17  2  0
 16 18  1  0
 19 20  1  0
  1 21  1  0
  2 22  1  0
  4 23  1  0
  6 24  1  0
 13 25  1  0
 13 26  1  0
 14 27  1  0
 14 28  1  0
 15 29  1  0
 15 30  1  0
 18 31  1  0
M  CHG  2   7   1   8  -1
A    1
C1
A    2
C2
A    3
C3
A    4
C4
A    5
C5
A    6
C6
A    7
N
A    8
O
A    9
O1
A   10
C7
A   11
N1
A   12
C8
A   13
C9
A   14
C10
A   15
C11
A   16
C12
A   17
O13
A   18
O14
A   19
O15
A   20
N2
M  END
