2IKH_LIT_A_600
     RDKit          3D

 23 24  0  0  0  0  0  0  0  0999 V2000
   16.2700   -4.2610   10.6880 C   0  0  0  0  0  0  0  0  0  0  0  0
   15.0170   -4.6900   10.7070 C   0  0  0  0  0  0  0  0  0  0  0  0
   15.0110   -5.5940   11.8700 C   0  0  0  0  0  0  0  0  0  0  0  0
   16.2620   -5.5190   12.3050 C   0  0  0  0  0  0  0  0  0  0  0  0
   16.8670   -6.2090   13.4510 C   0  0  0  0  0  0  0  0  0  0  0  0
   18.0390   -5.8980   13.8650 N   0  0  0  0  0  0  0  0  0  0  0  0
   18.1560   -6.5720   15.1020 N   0  0  0  0  0  0  0  0  0  0  0  0
   17.0630   -7.1940   15.2840 C   0  0  0  0  0  0  0  0  0  0  0  0
   16.5930   -8.2270   16.6460 S   0  0  0  0  0  0  0  0  0  0  0  0
   16.8620   -7.0390   18.0080 C   0  0  0  0  0  0  0  0  0  0  0  0
   15.7570   -6.0130   17.9590 C   0  0  0  0  0  0  0  0  0  0  0  0
   15.2050   -5.6500   19.1230 O   0  0  0  0  0  0  0  0  0  0  0  0
   15.2820   -5.7330   16.8740 O   0  0  0  0  0  0  0  0  0  0  0  0
   16.1960   -7.0070   14.2720 O   0  0  0  0  0  0  0  0  0  0  0  0
   17.0900   -4.7200   11.6270 O   0  0  0  0  0  0  0  0  0  0  0  0
   16.7690   -3.4080    9.8020 N   0  0  0  0  0  0  0  0  0  0  0  0
   16.1680   -2.8780    8.8620 O   0  0  0  0  0  0  0  0  0  0  0  0
   17.9750   -3.2530   10.1140 O   0  0  0  0  0  0  0  0  0  0  0  0
   14.1907   -4.4357   10.0269 H   0  0  0  0  0  0  0  0  0  0  0  0
   14.1767   -6.1844   12.2766 H   0  0  0  0  0  0  0  0  0  0  0  0
   16.8388   -7.5664   18.9730 H   0  0  0  0  0  0  0  0  0  0  0  0
   17.8415   -6.5502   17.8999 H   0  0  0  0  0  0  0  0  0  0  0  0
   15.6238   -5.9254   19.9767 H   0  0  0  0  0  0  0  0  0  0  0  0
  1  2  2  0
  1 15  1  0
  1 16  1  0
  2  3  1  0
  3  4  2  0
  4  5  1  0
  4 15  1  0
  5  6  2  0
  5 14  1  0
  6  7  1  0
  7  8  2  0
  8  9  1  0
  8 14  1  0
  9 10  1  0
 10 11  1  0
 11 12  1  0
 11 13  2  0
 16 17  1  0
 16 18  2  0
  2 19  1  0
  3 20  1  0
 10 21  1  0
 10 22  1  0
 12 23  1  0
M  CHG  2  16   1  17  -1
A    1
C1
A    2
C2
A    3
C3
A    4
C4
A    5
C5
A    6
N6
A    7
N7
A    8
C8
A    9
S9
A   10
C10
A   11
C11
A   12
O12
A   13
O13
A   14
O14
A   15
O15
A   16
N16
A   17
O17
A   18
O18
M  END
