2IMA_GB4_A_600
     RDKit          3D

 21 21  0  0  0  0  0  0  0  0999 V2000
   -5.0600   -6.0420   21.5510 O   0  0  0  0  0  0  0  0  0  0  0  0
   -4.4400   -6.6520   22.3990 C   0  0  0  0  0  0  0  0  0  0  0  0
   -3.9430   -5.9910   23.4490 N   0  0  0  0  0  0  0  0  0  0  0  0
   -4.0630   -4.6040   23.5210 O   0  0  0  0  0  0  0  0  0  0  0  0
   -4.1600   -8.0950   22.2090 C   0  0  0  0  0  0  0  0  0  0  0  0
   -4.4460   -8.6720   21.0240 C   0  0  0  0  0  0  0  0  0  0  0  0
   -4.1450  -10.1000   20.6790 C   0  0  0  0  0  0  0  0  0  0  0  0
   -4.3540  -10.5370   19.3750 C   0  0  0  0  0  0  0  0  0  0  0  0
   -5.0020   -9.4700   18.1250 Cl  0  0  0  0  0  0  0  0  0  0  0  0
   -4.0760  -11.8160   18.9550 C   0  0  0  0  0  0  0  0  0  0  0  0
   -3.6130  -11.0170   21.5920 C   0  0  0  0  0  0  0  0  0  0  0  0
   -3.3240  -12.3260   21.1810 C   0  0  0  0  0  0  0  0  0  0  0  0
   -3.5660  -12.7170   19.8650 C   0  0  0  0  0  0  0  0  0  0  0  0
   -3.2190  -14.3620   19.2950 Cl  0  0  0  0  0  0  0  0  0  0  0  0
   -3.4710   -6.5067   24.2054 H   0  0  0  0  0  0  0  0  0  0  0  0
   -4.0873   -4.3237   24.4702 H   0  0  0  0  0  0  0  0  0  0  0  0
   -3.7237   -8.6889   23.0256 H   0  0  0  0  0  0  0  0  0  0  0  0
   -4.9339   -8.0521   20.2574 H   0  0  0  0  0  0  0  0  0  0  0  0
   -4.2572  -12.1149   17.9120 H   0  0  0  0  0  0  0  0  0  0  0  0
   -3.4217  -10.7113   22.6312 H   0  0  0  0  0  0  0  0  0  0  0  0
   -2.9051  -13.0464   21.8990 H   0  0  0  0  0  0  0  0  0  0  0  0
  1  2  2  0
  2  5  1  0
  2  3  1  0
  3  4  1  0
  5  6  2  0
  6  7  1  0
  7  8  2  0
  7 11  1  0
  8  9  1  0
  8 10  1  0
 10 13  2  0
 11 12  2  0
 12 13  1  0
 13 14  1  0
  3 15  1  0
  4 16  1  0
  5 17  1  0
  6 18  1  0
 10 19  1  0
 11 20  1  0
 12 21  1  0
A    1
O12
A    2
C11
A    3
N13
A    4
O14
A    5
C10
A    6
C9
A    7
C1
A    8
C6
A    9
CL8
A   10
C5
A   11
C2
A   12
C3
A   13
C4
A   14
CL7
M  END
