2G7Q_AHL_A_500
     RDKit          3D

 28 27  0  0  0  0  0  0  0  0999 V2000
   12.6720   33.0100   63.0630 N   0  0  0  0  0  0  0  0  0  0  0  0
   11.2720   33.2990   63.1400 C   0  0  0  0  0  0  0  0  0  0  0  0
   10.7440   33.4320   61.7280 C   0  0  0  0  0  0  0  0  0  0  0  0
    9.3840   34.1140   61.7450 C   0  0  0  0  0  0  0  0  0  0  0  0
    8.7830   34.2950   60.3710 C   0  0  0  0  0  0  0  0  0  0  0  0
    8.3980   33.0160   59.7400 N   0  0  0  0  0  0  0  0  0  0  0  0
    8.4500   32.7200   58.4370 C   0  0  0  0  0  0  0  0  0  0  0  0
    9.2450   33.3820   57.6100 N   0  0  0  0  0  0  0  0  0  0  0  0
    7.6820   31.7460   57.9650 N   0  0  0  0  0  0  0  0  0  0  0  0
   10.5010   32.1780   63.8620 C   0  0  0  0  0  0  0  0  0  0  0  0
   10.3970   31.0540   63.3210 O   0  0  0  0  0  0  0  0  0  0  0  0
   10.0190   32.4040   64.9050 N   0  0  0  0  0  0  0  0  0  0  0  0
    9.3210   31.5200   65.6190 O   0  0  0  0  0  0  0  0  0  0  0  0
   13.0589   32.9301   64.0142 H   0  0  0  0  0  0  0  0  0  0  0  0
   12.8122   32.1223   62.5597 H   0  0  0  0  0  0  0  0  0  0  0  0
   11.1302   34.2280   63.7117 H   0  0  0  0  0  0  0  0  0  0  0  0
   11.4459   34.0332   61.1314 H   0  0  0  0  0  0  0  0  0  0  0  0
   10.6412   32.4307   61.2843 H   0  0  0  0  0  0  0  0  0  0  0  0
    8.6960   33.5035   62.3482 H   0  0  0  0  0  0  0  0  0  0  0  0
    9.5313   35.1185   62.1684 H   0  0  0  0  0  0  0  0  0  0  0  0
    7.8867   34.9264   60.4601 H   0  0  0  0  0  0  0  0  0  0  0  0
    9.5493   34.7605   59.7337 H   0  0  0  0  0  0  0  0  0  0  0  0
    8.0541   32.2760   60.3684 H   0  0  0  0  0  0  0  0  0  0  0  0
    9.9821   33.9958   57.9852 H   0  0  0  0  0  0  0  0  0  0  0  0
    9.1261   33.2830   56.5917 H   0  0  0  0  0  0  0  0  0  0  0  0
    7.7111   31.5066   56.9636 H   0  0  0  0  0  0  0  0  0  0  0  0
   10.1424   33.3484   65.2971 H   0  0  0  0  0  0  0  0  0  0  0  0
    9.4580   31.6935   66.5840 H   0  0  0  0  0  0  0  0  0  0  0  0
  1  2  1  0
  2  3  1  0
  2 10  1  0
  3  4  1  0
  4  5  1  0
  5  6  1  0
  6  7  1  0
  7  8  1  0
  7  9  2  3
 10 11  2  0
 10 12  1  0
 12 13  1  0
  1 14  1  0
  1 15  1  0
  2 16  1  0
  3 17  1  0
  3 18  1  0
  4 19  1  0
  4 20  1  0
  5 21  1  0
  5 22  1  0
  6 23  1  0
  8 24  1  0
  8 25  1  0
  9 26  1  0
 12 27  1  0
 13 28  1  0
A    1
N1
A    2
CA
A    3
CB
A    4
CG
A    5
CD
A    6
NE
A    7
CZ
A    8
NH1
A    9
NH2
A   10
C
A   11
O1
A   12
N2
A   13
O2
M  END
