2INX_FFP_A_132
     RDKit          3D

 13 13  0  0  0  0  0  0  0  0999 V2000
    2.9590   60.6510   32.5520 F   0  0  0  0  0  0  0  0  0  0  0  0
    3.1560   59.8450   31.5130 C   0  0  0  0  0  0  0  0  0  0  0  0
    2.4770   60.0440   30.3200 C   0  0  0  0  0  0  0  0  0  0  0  0
    2.6910   59.1740   29.2400 C   0  0  0  0  0  0  0  0  0  0  0  0
    3.5940   58.1220   29.3600 C   0  0  0  0  0  0  0  0  0  0  0  0
    4.2480   57.9690   30.5660 C   0  0  0  0  0  0  0  0  0  0  0  0
    5.0880   56.9840   30.6310 F   0  0  0  0  0  0  0  0  0  0  0  0
    4.0640   58.8090   31.6650 C   0  0  0  0  0  0  0  0  0  0  0  0
    4.7140   58.6400   32.8710 O   0  0  0  0  0  0  0  0  0  0  0  0
    1.7719   60.8824   30.2207 H   0  0  0  0  0  0  0  0  0  0  0  0
    2.1443   59.3238   28.2973 H   0  0  0  0  0  0  0  0  0  0  0  0
    3.7805   57.4350   28.5214 H   0  0  0  0  0  0  0  0  0  0  0  0
    4.2221   58.7679   33.7206 H   0  0  0  0  0  0  0  0  0  0  0  0
  1  2  1  0
  2  3  2  0
  2  8  1  0
  3  4  1  0
  4  5  2  0
  5  6  1  0
  6  7  1  0
  6  8  2  0
  8  9  1  0
  3 10  1  0
  4 11  1  0
  5 12  1  0
  9 13  1  0
A    1
F1
A    2
C6
A    3
C5
A    4
C4
A    5
C3
A    6
C2
A    7
F2
A    8
C1
A    9
O
M  END
