2INZ_OHP_A_317
     RDKit          3D

 19 19  0  0  0  0  0  0  0  0999 V2000
   16.6510   27.0660   63.6560 C   0  0  0  0  0  0  0  0  0  0  0  0
   17.6160   25.9070   63.7680 C   0  0  0  0  0  0  0  0  0  0  0  0
   17.1970   24.7190   62.9450 C   0  0  0  0  0  0  0  0  0  0  0  0
   17.5670   24.6630   61.6010 C   0  0  0  0  0  0  0  0  0  0  0  0
   17.2160   23.5550   60.8300 C   0  0  0  0  0  0  0  0  0  0  0  0
   16.4950   22.4940   61.3920 C   0  0  0  0  0  0  0  0  0  0  0  0
   16.1280   22.5470   62.7400 C   0  0  0  0  0  0  0  0  0  0  0  0
   16.4850   23.6660   63.5130 C   0  0  0  0  0  0  0  0  0  0  0  0
   18.2890   25.6990   61.0340 O   0  0  0  0  0  0  0  0  0  0  0  0
   16.0940   27.4580   64.6940 O   0  0  0  0  0  0  0  0  0  0  0  0
   16.4720   27.6040   62.5410 O   0  0  0  0  0  0  0  0  0  0  0  0
   18.6069   26.2401   63.4256 H   0  0  0  0  0  0  0  0  0  0  0  0
   17.6338   25.5909   64.8215 H   0  0  0  0  0  0  0  0  0  0  0  0
   17.5083   23.5141   59.7703 H   0  0  0  0  0  0  0  0  0  0  0  0
   16.2193   21.6247   60.7769 H   0  0  0  0  0  0  0  0  0  0  0  0
   15.5636   21.7186   63.1930 H   0  0  0  0  0  0  0  0  0  0  0  0
   16.1996   23.7098   64.5744 H   0  0  0  0  0  0  0  0  0  0  0  0
   18.7480   26.3576   61.6134 H   0  0  0  0  0  0  0  0  0  0  0  0
   16.1599   28.5420   62.4884 H   0  0  0  0  0  0  0  0  0  0  0  0
  1  2  1  0
  1 10  2  0
  1 11  1  0
  2  3  1  0
  3  4  2  0
  3  8  1  0
  4  5  1  0
  4  9  1  0
  5  6  2  0
  6  7  1  0
  7  8  2  0
  2 12  1  0
  2 13  1  0
  5 14  1  0
  6 15  1  0
  7 16  1  0
  8 17  1  0
  9 18  1  0
 11 19  1  0
A    1
C8
A    2
C7
A    3
C3
A    4
C4
A    5
C5
A    6
C6
A    7
C1
A    8
C2
A    9
O2
A   10
O9
A   11
O10
M  END
