2IOK_IOK_A_600
     RDKit          3D

 56 59  0  0  0  0  0  0  0  0999 V2000
   15.8130   35.8830   49.8880 C   0  0  0  0  0  0  0  0  0  0  0  0
   14.7030   36.0910   50.7260 C   0  0  0  0  0  0  0  0  0  0  0  0
   13.4320   36.2650   50.1780 C   0  0  0  0  0  0  0  0  0  0  0  0
   13.2600   36.2310   48.7960 C   0  0  0  0  0  0  0  0  0  0  0  0
   12.0210   36.3920   48.2900 O   0  0  0  0  0  0  0  0  0  0  0  0
   14.3680   36.0660   47.9580 C   0  0  0  0  0  0  0  0  0  0  0  0
   15.6420   35.8330   48.5130 C   0  0  0  0  0  0  0  0  0  0  0  0
   17.1660   35.7170   50.5440 C   0  0  0  0  0  0  0  0  0  0  0  0
   18.3040   35.7050   49.5170 C   0  0  0  0  0  0  0  0  0  0  0  0
   19.6700   35.7650   50.2260 C   0  0  0  0  0  0  0  0  0  0  0  0
   20.2190   37.1960   50.2740 C   0  0  0  0  0  0  0  0  0  0  0  0
   19.5080   35.2640   51.6000 N   0  0  0  0  0  0  0  0  0  0  0  0
   19.7070   33.9740   51.8590 C   0  0  0  0  0  0  0  0  0  0  0  0
   20.0400   33.1950   50.9300 O   0  0  0  0  0  0  0  0  0  0  0  0
   19.5540   33.4560   53.2550 C   0  0  0  0  0  0  0  0  0  0  0  0
   18.6170   34.2690   54.1110 C   0  0  0  0  0  0  0  0  0  0  0  0
   18.9210   35.1530   55.1780 C   0  0  0  0  0  0  0  0  0  0  0  0
   17.7520   35.6460   55.6650 N   0  0  0  0  0  0  0  0  0  0  0  0
   16.7130   35.1350   54.9380 C   0  0  0  0  0  0  0  0  0  0  0  0
   15.3360   35.3240   55.0830 C   0  0  0  0  0  0  0  0  0  0  0  0
   14.4810   34.6600   54.1970 C   0  0  0  0  0  0  0  0  0  0  0  0
   15.0160   33.8390   53.1800 C   0  0  0  0  0  0  0  0  0  0  0  0
   16.3820   33.6210   53.0720 C   0  0  0  0  0  0  0  0  0  0  0  0
   17.2400   34.3160   53.9610 C   0  0  0  0  0  0  0  0  0  0  0  0
   20.2230   35.5800   55.7620 C   0  0  0  0  0  0  0  0  0  0  0  0
   21.4750   35.2110   55.2730 C   0  0  0  0  0  0  0  0  0  0  0  0
   22.6520   35.6750   55.8940 C   0  0  0  0  0  0  0  0  0  0  0  0
   22.5730   36.4840   57.0220 C   0  0  0  0  0  0  0  0  0  0  0  0
   21.3200   36.8740   57.5120 C   0  0  0  0  0  0  0  0  0  0  0  0
   20.1570   36.4350   56.8730 C   0  0  0  0  0  0  0  0  0  0  0  0
   14.8374   36.1166   51.8175 H   0  0  0  0  0  0  0  0  0  0  0  0
   12.5663   36.4289   50.8366 H   0  0  0  0  0  0  0  0  0  0  0  0
   11.2469   36.4926   48.8989 H   0  0  0  0  0  0  0  0  0  0  0  0
   14.2447   36.1181   46.8662 H   0  0  0  0  0  0  0  0  0  0  0  0
   16.4976   35.6123   47.8579 H   0  0  0  0  0  0  0  0  0  0  0  0
   17.3268   36.5513   51.2426 H   0  0  0  0  0  0  0  0  0  0  0  0
   17.1726   34.7509   51.0700 H   0  0  0  0  0  0  0  0  0  0  0  0
   18.2451   34.7817   48.9220 H   0  0  0  0  0  0  0  0  0  0  0  0
   18.2031   36.5840   48.8634 H   0  0  0  0  0  0  0  0  0  0  0  0
   20.3838   35.1464   49.6622 H   0  0  0  0  0  0  0  0  0  0  0  0
   20.3386   37.5079   51.3221 H   0  0  0  0  0  0  0  0  0  0  0  0
   21.1946   37.2316   49.7672 H   0  0  0  0  0  0  0  0  0  0  0  0
   19.5175   37.8750   49.7672 H   0  0  0  0  0  0  0  0  0  0  0  0
   19.2418   35.9088   52.3578 H   0  0  0  0  0  0  0  0  0  0  0  0
   19.1691   32.4269   53.2019 H   0  0  0  0  0  0  0  0  0  0  0  0
   20.5463   33.5131   53.7263 H   0  0  0  0  0  0  0  0  0  0  0  0
   17.6630   36.3002   56.4556 H   0  0  0  0  0  0  0  0  0  0  0  0
   14.9353   35.9771   55.8723 H   0  0  0  0  0  0  0  0  0  0  0  0
   13.3915   34.7774   54.2925 H   0  0  0  0  0  0  0  0  0  0  0  0
   14.3358   33.3626   52.4587 H   0  0  0  0  0  0  0  0  0  0  0  0
   16.7872   32.9293   52.3188 H   0  0  0  0  0  0  0  0  0  0  0  0
   21.5450   34.5521   54.3950 H   0  0  0  0  0  0  0  0  0  0  0  0
   23.6347   35.3967   55.4856 H   0  0  0  0  0  0  0  0  0  0  0  0
   23.4913   36.8167   57.5279 H   0  0  0  0  0  0  0  0  0  0  0  0
   21.2515   37.5237   58.3970 H   0  0  0  0  0  0  0  0  0  0  0  0
   19.1760   36.7643   57.2462 H   0  0  0  0  0  0  0  0  0  0  0  0
  1  7  1  0
  1  8  1  0
  1  2  2  0
  2  3  1  0
  3  4  2  0
  4  6  1  0
  4  5  1  0
  6  7  2  0
  8  9  1  0
  9 10  1  0
 10 11  1  0
 10 12  1  0
 12 13  1  0
 13 14  2  0
 13 15  1  0
 15 16  1  0
 16 24  1  0
 16 17  2  0
 17 18  1  0
 17 25  1  0
 18 19  1  0
 19 24  2  0
 19 20  1  0
 20 21  2  0
 21 22  1  0
 22 23  2  0
 23 24  1  0
 25 26  2  0
 25 30  1  0
 26 27  1  0
 27 28  2  0
 28 29  1  0
 29 30  2  0
  2 31  1  0
  3 32  1  0
  5 33  1  0
  6 34  1  0
  7 35  1  0
  8 36  1  0
  8 37  1  0
  9 38  1  0
  9 39  1  0
 10 40  1  0
 11 41  1  0
 11 42  1  0
 11 43  1  0
 12 44  1  0
 15 45  1  0
 15 46  1  0
 18 47  1  0
 20 48  1  0
 21 49  1  0
 22 50  1  0
 23 51  1  0
 26 52  1  0
 27 53  1  0
 28 54  1  0
 29 55  1  0
 30 56  1  0
A    1
C1
A    2
C2
A    3
C3
A    4
C4
A    5
O5
A    6
C6
A    7
C7
A    8
C8
A    9
C9
A   10
C10
A   11
C11
A   12
N12
A   13
C13
A   14
O14
A   15
C15
A   16
C16
A   17
C17
A   18
N18
A   19
C19
A   20
C20
A   21
C21
A   22
C22
A   23
C23
A   24
C24
A   25
C25
A   26
C26
A   27
C27
A   28
C28
A   29
C29
A   30
C30
M  END
