2IPF_FFA_A_3
     RDKit          3D

 49 52  0  0  0  0  0  0  0  0999 V2000
   10.7710    5.0220   14.8710 C   0  0  0  0  0  0  0  0  0  0  0  0
   10.9650    5.8570   13.5810 C   0  0  0  0  0  0  0  0  0  0  0  0
   10.9420    5.0290   12.2980 C   0  0  0  0  0  0  0  0  0  0  0  0
   10.2800    3.6900   12.3280 C   0  0  0  0  0  0  0  0  0  0  0  0
    9.7190    3.1620   13.4550 C   0  0  0  0  0  0  0  0  0  0  0  0
    9.7030    3.8500   14.8440 C   0  0  0  0  0  0  0  0  0  0  0  0
   10.1200    2.8070   15.9780 C   0  0  0  0  0  0  0  0  0  0  0  0
    9.2970    1.4660   15.9040 C   0  0  0  0  0  0  0  0  0  0  0  0
    9.4570    0.8280   14.4950 C   0  0  0  0  0  0  0  0  0  0  0  0
    9.0440    1.7880   13.3600 C   0  0  0  0  0  0  0  0  0  0  0  0
   10.0440    3.4270   17.4320 C   0  0  0  0  0  0  0  0  0  0  0  0
   10.4830    2.3700   18.4930 C   0  0  0  0  0  0  0  0  0  0  0  0
    9.7330    0.4850   17.0440 C   0  0  0  0  0  0  0  0  0  0  0  0
    9.5630    1.1090   18.4550 C   0  0  0  0  0  0  0  0  0  0  0  0
    9.0630   -0.8890   17.2050 C   0  0  0  0  0  0  0  0  0  0  0  0
    9.5660   -1.3380   18.6050 C   0  0  0  0  0  0  0  0  0  0  0  0
    9.9450   -0.0590   19.3930 C   0  0  0  0  0  0  0  0  0  0  0  0
    8.1010    1.5240   18.8630 C   0  0  0  0  0  0  0  0  0  0  0  0
    8.2850    4.4580   15.0510 C   0  0  0  0  0  0  0  0  0  0  0  0
   11.4400    5.4600   11.2670 O   0  0  0  0  0  0  0  0  0  0  0  0
   11.3540   -0.0980   19.6760 O   0  0  0  0  0  0  0  0  0  0  0  0
   10.4736    5.7176   15.6696 H   0  0  0  0  0  0  0  0  0  0  0  0
   11.7350    4.5127   15.0169 H   0  0  0  0  0  0  0  0  0  0  0  0
   10.1580    6.6025   13.5265 H   0  0  0  0  0  0  0  0  0  0  0  0
   11.9619    6.3173   13.6458 H   0  0  0  0  0  0  0  0  0  0  0  0
   10.2429    3.1023   11.3989 H   0  0  0  0  0  0  0  0  0  0  0  0
   11.1727    2.5616   15.7738 H   0  0  0  0  0  0  0  0  0  0  0  0
    8.2302    1.6849   16.0588 H   0  0  0  0  0  0  0  0  0  0  0  0
   10.5109    0.5469   14.3529 H   0  0  0  0  0  0  0  0  0  0  0  0
    8.7941   -0.0486   14.4484 H   0  0  0  0  0  0  0  0  0  0  0  0
    7.9540    1.9303   13.4018 H   0  0  0  0  0  0  0  0  0  0  0  0
    9.3651    1.3310   12.4123 H   0  0  0  0  0  0  0  0  0  0  0  0
   10.7117    4.2992   17.4903 H   0  0  0  0  0  0  0  0  0  0  0  0
    9.0076    3.7327   17.6378 H   0  0  0  0  0  0  0  0  0  0  0  0
   11.5189    2.0637   18.2857 H   0  0  0  0  0  0  0  0  0  0  0  0
   10.4034    2.8268   19.4905 H   0  0  0  0  0  0  0  0  0  0  0  0
   10.7601    0.3172   16.6877 H   0  0  0  0  0  0  0  0  0  0  0  0
    7.9666   -0.8029   17.1840 H   0  0  0  0  0  0  0  0  0  0  0  0
    9.3088   -1.5970   16.3998 H   0  0  0  0  0  0  0  0  0  0  0  0
    8.7701   -1.8832   19.1335 H   0  0  0  0  0  0  0  0  0  0  0  0
   10.4339   -2.0071   18.5098 H   0  0  0  0  0  0  0  0  0  0  0  0
    9.4308    0.0433   20.3601 H   0  0  0  0  0  0  0  0  0  0  0  0
    8.0190    1.5473   19.9597 H   0  0  0  0  0  0  0  0  0  0  0  0
    7.8762    2.5214   18.4573 H   0  0  0  0  0  0  0  0  0  0  0  0
    7.3857    0.7934   18.4573 H   0  0  0  0  0  0  0  0  0  0  0  0
    8.0777    4.5469   16.1276 H   0  0  0  0  0  0  0  0  0  0  0  0
    8.2416    5.4539   14.5858 H   0  0  0  0  0  0  0  0  0  0  0  0
    7.5337    3.8029   14.5858 H   0  0  0  0  0  0  0  0  0  0  0  0
   11.4938   -0.1019   20.6561 H   0  0  0  0  0  0  0  0  0  0  0  0
  1  6  1  0
  1  2  1  0
  2  3  1  0
  3  4  1  0
  3 20  2  0
  4  5  2  0
  5  6  1  0
  5 10  1  0
  6  7  1  0
  6 19  1  0
  7 11  1  0
  7  8  1  0
  8 13  1  0
  8  9  1  0
  9 10  1  0
 11 12  1  0
 12 14  1  0
 13 14  1  0
 13 15  1  0
 14 17  1  0
 14 18  1  0
 15 16  1  0
 16 17  1  0
 17 21  1  0
  1 22  1  0
  1 23  1  0
  2 24  1  0
  2 25  1  0
  4 26  1  0
  7 27  1  0
  8 28  1  0
  9 29  1  0
  9 30  1  0
 10 31  1  0
 10 32  1  0
 11 33  1  0
 11 34  1  0
 12 35  1  0
 12 36  1  0
 13 37  1  0
 15 38  1  0
 15 39  1  0
 16 40  1  0
 16 41  1  0
 17 42  1  0
 18 43  1  0
 18 44  1  0
 18 45  1  0
 19 46  1  0
 19 47  1  0
 19 48  1  0
 21 49  1  0
A    1
C1
A    2
C2
A    3
C3
A    4
C4
A    5
C5
A    6
C6
A    7
C7
A    8
C8
A    9
C9
A   10
C10
A   11
C11
A   12
C12
A   13
C14
A   14
C13
A   15
C15
A   16
C16
A   17
C17
A   18
C18
A   19
C19
A   20
O3
A   21
O17
M  END
