1V54_PGV_A_3266
     RDKit          3D

128127  0  0  0  0  0  0  0  0999 V2000
   71.6680  324.3950  216.3920 P   0  0  0  0  0  0  0  0  0  0  0  0
   74.3160  322.6360  213.3810 C   0  0  0  0  0  0  0  0  0  0  0  0
   74.3840  324.1370  213.6780 C   0  0  0  0  0  0  0  0  0  0  0  0
   74.0260  324.4160  215.1560 C   0  0  0  0  0  0  0  0  0  0  0  0
   72.8720  323.4780  218.6230 C   0  0  0  0  0  0  0  0  0  0  0  0
   73.4750  324.1870  219.8310 C   0  0  0  0  0  0  0  0  0  0  0  0
   74.6720  325.0660  219.4150 C   0  0  0  0  0  0  0  0  0  0  0  0
   73.4320  324.7300  212.8030 O   0  0  0  0  0  0  0  0  0  0  0  0
   74.8700  326.4060  212.3370 O   0  0  0  0  0  0  0  0  0  0  0  0
   74.8550  322.2930  212.0800 O   0  0  0  0  0  0  0  0  0  0  0  0
   76.8210  322.3650  213.2290 O   0  0  0  0  0  0  0  0  0  0  0  0
   73.9250  323.1840  220.6840 O   0  0  0  0  0  0  0  0  0  0  0  0
   75.1460  325.9090  220.4700 O   0  0  0  0  0  0  0  0  0  0  0  0
   72.8230  323.7090  215.5080 O   0  0  0  0  0  0  0  0  0  0  0  0
   72.3670  324.5120  217.8090 O   0  0  0  0  0  0  0  0  0  0  0  0
   70.5150  323.4800  216.4340 O   0  0  0  0  0  0  0  0  0  0  0  0
   71.4230  325.7840  215.9510 O   0  0  0  0  0  0  0  0  0  0  0  0
   73.8300  325.8010  212.1600 C   0  0  0  0  0  0  0  0  0  0  0  0
   72.7300  326.1430  211.1530 C   0  0  0  0  0  0  0  0  0  0  0  0
   72.9800  327.5550  210.6690 C   0  0  0  0  0  0  0  0  0  0  0  0
   71.8920  328.0920  209.7340 C   0  0  0  0  0  0  0  0  0  0  0  0
   71.9670  329.6380  209.6300 C   0  0  0  0  0  0  0  0  0  0  0  0
   70.7800  330.2600  208.8850 C   0  0  0  0  0  0  0  0  0  0  0  0
   70.8820  330.1000  207.3650 C   0  0  0  0  0  0  0  0  0  0  0  0
   69.7580  329.3730  206.6430 C   0  0  0  0  0  0  0  0  0  0  0  0
   69.0650  330.2710  205.6300 C   0  0  0  0  0  0  0  0  0  0  0  0
   68.9910  329.7610  204.1700 C   0  0  0  0  0  0  0  0  0  0  0  0
   68.3470  328.3630  203.9800 C   0  0  0  0  0  0  0  0  0  0  0  0
   68.1070  327.8240  202.5480 C   0  0  0  0  0  0  0  0  0  0  0  0
   68.4920  328.6820  201.3220 C   0  0  0  0  0  0  0  0  0  0  0  0
   68.1270  327.9200  200.0280 C   0  0  0  0  0  0  0  0  0  0  0  0
   68.1410  328.8120  198.7980 C   0  0  0  0  0  0  0  0  0  0  0  0
   67.8230  328.1010  197.4890 C   0  0  0  0  0  0  0  0  0  0  0  0
   68.1380  328.9770  196.2740 C   0  0  0  0  0  0  0  0  0  0  0  0
   68.3390  330.4660  196.5700 C   0  0  0  0  0  0  0  0  0  0  0  0
   76.2060  322.1860  212.2000 C   0  0  0  0  0  0  0  0  0  0  0  0
   76.9090  321.8360  210.8700 C   0  0  0  0  0  0  0  0  0  0  0  0
   76.0910  322.1730  209.6220 C   0  0  0  0  0  0  0  0  0  0  0  0
   76.1060  323.6320  209.2220 C   0  0  0  0  0  0  0  0  0  0  0  0
   75.0590  323.9300  208.1600 C   0  0  0  0  0  0  0  0  0  0  0  0
   74.9380  325.4090  207.7800 C   0  0  0  0  0  0  0  0  0  0  0  0
   73.5800  325.7530  207.1770 C   0  0  0  0  0  0  0  0  0  0  0  0
   73.6580  326.2830  205.7590 C   0  0  0  0  0  0  0  0  0  0  0  0
   72.3320  326.2830  204.9560 C   0  0  0  0  0  0  0  0  0  0  0  0
   72.4660  326.0100  203.4320 C   0  0  0  0  0  0  0  0  0  0  0  0
   72.8430  324.5590  203.1330 C   0  0  0  0  0  0  0  0  0  0  0  0
   72.8010  324.1680  201.6600 C   0  0  0  0  0  0  0  0  0  0  0  0
   73.0270  322.6520  201.4400 C   0  0  0  0  0  0  0  0  0  0  0  0
   74.3970  322.3650  200.7850 C   0  0  0  0  0  0  0  0  0  0  0  0
   74.4880  321.1930  199.8020 C   0  0  0  0  0  0  0  0  0  0  0  0
   74.4480  321.6450  198.3610 C   0  0  0  0  0  0  0  0  0  0  0  0
   74.8898  322.0996  214.1511 H   0  0  0  0  0  0  0  0  0  0  0  0
   73.2547  322.3467  213.3851 H   0  0  0  0  0  0  0  0  0  0  0  0
   75.3932  324.5456  213.5211 H   0  0  0  0  0  0  0  0  0  0  0  0
   74.8502  324.0782  215.8014 H   0  0  0  0  0  0  0  0  0  0  0  0
   73.8662  325.4956  215.2934 H   0  0  0  0  0  0  0  0  0  0  0  0
   73.6424  322.9047  218.0866 H   0  0  0  0  0  0  0  0  0  0  0  0
   72.0903  322.7602  218.9123 H   0  0  0  0  0  0  0  0  0  0  0  0
   72.7285  324.8399  220.3069 H   0  0  0  0  0  0  0  0  0  0  0  0
   75.4945  324.4087  219.0965 H   0  0  0  0  0  0  0  0  0  0  0  0
   74.3287  325.7221  218.6015 H   0  0  0  0  0  0  0  0  0  0  0  0
   73.7975  323.4682  221.6237 H   0  0  0  0  0  0  0  0  0  0  0  0
   74.9181  325.5036  221.3440 H   0  0  0  0  0  0  0  0  0  0  0  0
   71.3199  326.3685  216.7434 H   0  0  0  0  0  0  0  0  0  0  0  0
   72.7662  325.4433  210.3050 H   0  0  0  0  0  0  0  0  0  0  0  0
   71.7377  326.0636  211.6210 H   0  0  0  0  0  0  0  0  0  0  0  0
   73.0404  328.2162  211.5460 H   0  0  0  0  0  0  0  0  0  0  0  0
   73.9158  327.5337  210.0912 H   0  0  0  0  0  0  0  0  0  0  0  0
   72.0295  327.6564  208.7333 H   0  0  0  0  0  0  0  0  0  0  0  0
   70.9089  327.8139  210.1416 H   0  0  0  0  0  0  0  0  0  0  0  0
   71.9959  330.0543  210.6478 H   0  0  0  0  0  0  0  0  0  0  0  0
   72.8725  329.8796  209.0541 H   0  0  0  0  0  0  0  0  0  0  0  0
   69.8555  329.7727  209.2282 H   0  0  0  0  0  0  0  0  0  0  0  0
   70.7797  331.3378  209.1048 H   0  0  0  0  0  0  0  0  0  0  0  0
   70.9471  331.1100  206.9341 H   0  0  0  0  0  0  0  0  0  0  0  0
   71.7625  329.4575  207.2165 H   0  0  0  0  0  0  0  0  0  0  0  0
   70.1766  328.5013  206.1187 H   0  0  0  0  0  0  0  0  0  0  0  0
   69.0139  329.0636  207.3917 H   0  0  0  0  0  0  0  0  0  0  0  0
   68.0337  330.4294  205.9784 H   0  0  0  0  0  0  0  0  0  0  0  0
   69.6846  331.1787  205.5834 H   0  0  0  0  0  0  0  0  0  0  0  0
   68.4036  330.4861  203.5877 H   0  0  0  0  0  0  0  0  0  0  0  0
   70.0334  329.6602  203.8334 H   0  0  0  0  0  0  0  0  0  0  0  0
   68.0631  327.7595  204.8547 H   0  0  0  0  0  0  0  0  0  0  0  0
   67.6617  326.8286  202.4035 H   0  0  0  0  0  0  0  0  0  0  0  0
   67.9435  329.6350  201.3540 H   0  0  0  0  0  0  0  0  0  0  0  0
   69.5735  328.8821  201.3382 H   0  0  0  0  0  0  0  0  0  0  0  0
   68.8536  327.1072  199.8815 H   0  0  0  0  0  0  0  0  0  0  0  0
   67.1036  327.5345  200.1470 H   0  0  0  0  0  0  0  0  0  0  0  0
   67.3964  329.6083  198.9444 H   0  0  0  0  0  0  0  0  0  0  0  0
   69.1692  329.1910  198.7024 H   0  0  0  0  0  0  0  0  0  0  0  0
   68.4225  327.1807  197.4292 H   0  0  0  0  0  0  0  0  0  0  0  0
   66.7468  327.8740  197.4764 H   0  0  0  0  0  0  0  0  0  0  0  0
   69.0602  328.5958  195.8112 H   0  0  0  0  0  0  0  0  0  0  0  0
   67.2558  328.9152  195.6199 H   0  0  0  0  0  0  0  0  0  0  0  0
   68.3603  330.6239  197.6584 H   0  0  0  0  0  0  0  0  0  0  0  0
   69.2906  330.8017  196.1321 H   0  0  0  0  0  0  0  0  0  0  0  0
   67.5105  331.0420  196.1321 H   0  0  0  0  0  0  0  0  0  0  0  0
   77.8560  322.3936  210.8230 H   0  0  0  0  0  0  0  0  0  0  0  0
   77.0564  320.7459  210.8671 H   0  0  0  0  0  0  0  0  0  0  0  0
   76.4911  321.5850  208.7828 H   0  0  0  0  0  0  0  0  0  0  0  0
   75.0457  321.9318  209.8654 H   0  0  0  0  0  0  0  0  0  0  0  0
   75.9000  324.2481  210.1097 H   0  0  0  0  0  0  0  0  0  0  0  0
   77.0967  323.8651  208.8047 H   0  0  0  0  0  0  0  0  0  0  0  0
   75.3188  323.3632  207.2538 H   0  0  0  0  0  0  0  0  0  0  0  0
   74.0889  323.6382  208.5886 H   0  0  0  0  0  0  0  0  0  0  0  0
   75.0859  326.0178  208.6842 H   0  0  0  0  0  0  0  0  0  0  0  0
   75.7027  325.6197  207.0179 H   0  0  0  0  0  0  0  0  0  0  0  0
   72.9612  324.8435  207.1740 H   0  0  0  0  0  0  0  0  0  0  0  0
   73.1478  326.5535  207.7954 H   0  0  0  0  0  0  0  0  0  0  0  0
   74.0213  327.3202  205.8076 H   0  0  0  0  0  0  0  0  0  0  0  0
   74.3275  325.5942  205.2230 H   0  0  0  0  0  0  0  0  0  0  0  0
   71.6791  325.5070  205.3820 H   0  0  0  0  0  0  0  0  0  0  0  0
   71.9291  327.3029  205.0432 H   0  0  0  0  0  0  0  0  0  0  0  0
   71.5042  326.2326  202.9469 H   0  0  0  0  0  0  0  0  0  0  0  0
   73.2700  326.6531  203.0446 H   0  0  0  0  0  0  0  0  0  0  0  0
   73.8659  324.3904  203.5009 H   0  0  0  0  0  0  0  0  0  0  0  0
   72.0874  323.9374  203.6356 H   0  0  0  0  0  0  0  0  0  0  0  0
   71.8169  324.4406  201.2510 H   0  0  0  0  0  0  0  0  0  0  0  0
   73.6148  324.7038  201.1496 H   0  0  0  0  0  0  0  0  0  0  0  0
   72.9834  322.1406  202.4129 H   0  0  0  0  0  0  0  0  0  0  0  0
   72.2411  322.2837  200.7642 H   0  0  0  0  0  0  0  0  0  0  0  0
   74.6974  323.2730  200.2415 H   0  0  0  0  0  0  0  0  0  0  0  0
   75.0488  322.0752  201.6223 H   0  0  0  0  0  0  0  0  0  0  0  0
   75.4323  320.6570  199.9779 H   0  0  0  0  0  0  0  0  0  0  0  0
   73.6173  320.5431  199.9737 H   0  0  0  0  0  0  0  0  0  0  0  0
   74.3511  322.7401  198.3228 H   0  0  0  0  0  0  0  0  0  0  0  0
   75.3765  321.3412  197.8555 H   0  0  0  0  0  0  0  0  0  0  0  0
   73.5872  321.1829  197.8555 H   0  0  0  0  0  0  0  0  0  0  0  0
  1 14  1  0
  1 15  1  0
  1 16  2  0
  1 17  1  0
  2  3  1  0
  2 10  1  0
  3  4  1  0
  3  8  1  0
  4 14  1  0
  5  6  1  0
  5 15  1  0
  6  7  1  0
  6 12  1  0
  7 13  1  0
  8 18  1  0
  9 18  2  0
 10 36  1  0
 11 36  2  0
 18 19  1  0
 19 20  1  0
 20 21  1  0
 21 22  1  0
 22 23  1  0
 23 24  1  0
 24 25  1  0
 25 26  1  0
 26 27  1  0
 27 28  1  0
 28 29  2  0
 29 30  1  0
 30 31  1  0
 31 32  1  0
 32 33  1  0
 33 34  1  0
 34 35  1  0
 36 37  1  0
 37 38  1  0
 38 39  1  0
 39 40  1  0
 40 41  1  0
 41 42  1  0
 42 43  1  0
 43 44  1  0
 44 45  1  0
 45 46  1  0
 46 47  1  0
 47 48  1  0
 48 49  1  0
 49 50  1  0
 50 51  1  0
  2 52  1  0
  2 53  1  0
  3 54  1  0
  4 55  1  0
  4 56  1  0
  5 57  1  0
  5 58  1  0
  6 59  1  0
  7 60  1  0
  7 61  1  0
 12 62  1  0
 13 63  1  0
 17 64  1  0
 19 65  1  0
 19 66  1  0
 20 67  1  0
 20 68  1  0
 21 69  1  0
 21 70  1  0
 22 71  1  0
 22 72  1  0
 23 73  1  0
 23 74  1  0
 24 75  1  0
 24 76  1  0
 25 77  1  0
 25 78  1  0
 26 79  1  0
 26 80  1  0
 27 81  1  0
 27 82  1  0
 28 83  1  0
 29 84  1  0
 30 85  1  0
 30 86  1  0
 31 87  1  0
 31 88  1  0
 32 89  1  0
 32 90  1  0
 33 91  1  0
 33 92  1  0
 34 93  1  0
 34 94  1  0
 35 95  1  0
 35 96  1  0
 35 97  1  0
 37 98  1  0
 37 99  1  0
 38100  1  0
 38101  1  0
 39102  1  0
 39103  1  0
 40104  1  0
 40105  1  0
 41106  1  0
 41107  1  0
 42108  1  0
 42109  1  0
 43110  1  0
 43111  1  0
 44112  1  0
 44113  1  0
 45114  1  0
 45115  1  0
 46116  1  0
 46117  1  0
 47118  1  0
 47119  1  0
 48120  1  0
 48121  1  0
 49122  1  0
 49123  1  0
 50124  1  0
 50125  1  0
 51126  1  0
 51127  1  0
 51128  1  0
A    1
P
A    2
C01
A    3
C02
A    4
C03
A    5
C04
A    6
C05
A    7
C06
A    8
O01
A    9
O02
A   10
O03
A   11
O04
A   12
O05
A   13
O06
A   14
O11
A   15
O12
A   16
O13
A   17
O14
A   18
C1
A   19
C2
A   20
C3
A   21
C4
A   22
C5
A   23
C6
A   24
C7
A   25
C8
A   26
C9
A   27
C10
A   28
C11
A   29
C12
A   30
C13
A   31
C14
A   32
C15
A   33
C16
A   34
C17
A   35
C18
A   36
C19
A   37
C20
A   38
C21
A   39
C22
A   40
C23
A   41
C24
A   42
C25
A   43
C26
A   44
C27
A   45
C28
A   46
C29
A   47
C30
A   48
C31
A   49
C32
A   50
C33
A   51
C34
M  END
