2IRW_NN4_A_911
     RDKit          3D

 58 61  0  0  0  0  0  0  0  0999 V2000
   92.7600   88.5380  277.2660 C   0  0  0  0  0  0  0  0  0  0  0  0
   92.2280   87.7140  276.1010 C   0  0  0  0  0  0  0  0  0  0  0  0
   93.0180   86.4190  276.0470 C   0  0  0  0  0  0  0  0  0  0  0  0
   91.3560   85.3550  277.5770 C   0  0  0  0  0  0  0  0  0  0  0  0
   91.0830   87.4960  278.7710 C   0  0  0  0  0  0  0  0  0  0  0  0
   90.5650   86.6500  277.6160 C   0  0  0  0  0  0  0  0  0  0  0  0
   89.1650   88.8470  275.1610 C   0  0  0  0  0  0  0  0  0  0  0  0
   86.9160   89.7660  274.7510 C   0  0  0  0  0  0  0  0  0  0  0  0
   88.2490   91.4400  277.3100 C   0  0  0  0  0  0  0  0  0  0  0  0
   89.5060   91.9180  277.6010 C   0  0  0  0  0  0  0  0  0  0  0  0
   88.5290   93.9450  278.3480 C   0  0  0  0  0  0  0  0  0  0  0  0
   87.1270   92.1970  277.5470 C   0  0  0  0  0  0  0  0  0  0  0  0
   89.9310   95.7240  278.6510 C   0  0  0  0  0  0  0  0  0  0  0  0
   89.1670   88.1840  274.1310 O   0  0  0  0  0  0  0  0  0  0  0  0
   89.9790   88.6000  276.2370 N   0  0  0  0  0  0  0  0  0  0  0  0
   90.7530   87.3910  276.2930 C   0  0  0  0  0  0  0  0  0  0  0  0
   92.5670   87.7920  278.5790 C   0  0  0  0  0  0  0  0  0  0  0  0
   93.3520   86.4930  278.5060 C   0  0  0  0  0  0  0  0  0  0  0  0
   92.8320   85.6600  277.3480 C   0  0  0  0  0  0  0  0  0  0  0  0
   93.6460   84.4080  277.2230 C   0  0  0  0  0  0  0  0  0  0  0  0
   94.8680   84.4210  277.2590 O   0  0  0  0  0  0  0  0  0  0  0  0
   92.9050   83.2640  277.0490 N   0  0  0  0  0  0  0  0  0  0  0  0
   88.2710   90.0450  275.3680 C   0  0  0  0  0  0  0  0  0  0  0  0
   88.9630   91.2120  274.6870 C   0  0  0  0  0  0  0  0  0  0  0  0
   88.0910   90.1610  276.7950 O   0  0  0  0  0  0  0  0  0  0  0  0
   87.2690   93.4610  278.0700 C   0  0  0  0  0  0  0  0  0  0  0  0
   88.6180   95.2280  278.8750 O   0  0  0  0  0  0  0  0  0  0  0  0
   89.6530   93.1810  278.1200 C   0  0  0  0  0  0  0  0  0  0  0  0
   92.2183   89.4944  277.3101 H   0  0  0  0  0  0  0  0  0  0  0  0
   93.8345   88.7173  277.1134 H   0  0  0  0  0  0  0  0  0  0  0  0
   92.3363   88.2860  275.1677 H   0  0  0  0  0  0  0  0  0  0  0  0
   92.6580   85.8043  275.2089 H   0  0  0  0  0  0  0  0  0  0  0  0
   94.0848   86.6453  275.9031 H   0  0  0  0  0  0  0  0  0  0  0  0
   91.2365   84.8248  278.5333 H   0  0  0  0  0  0  0  0  0  0  0  0
   90.9829   84.7253  276.7558 H   0  0  0  0  0  0  0  0  0  0  0  0
   90.9401   86.9497  279.7150 H   0  0  0  0  0  0  0  0  0  0  0  0
   90.5272   88.4448  278.8001 H   0  0  0  0  0  0  0  0  0  0  0  0
   89.4938   86.4460  277.7607 H   0  0  0  0  0  0  0  0  0  0  0  0
   86.1743   89.6133  275.5488 H   0  0  0  0  0  0  0  0  0  0  0  0
   86.6137   90.6208  274.1281 H   0  0  0  0  0  0  0  0  0  0  0  0
   86.9760   88.8614  274.1281 H   0  0  0  0  0  0  0  0  0  0  0  0
   90.3907   91.2903  277.4185 H   0  0  0  0  0  0  0  0  0  0  0  0
   86.1275   91.7969  277.3212 H   0  0  0  0  0  0  0  0  0  0  0  0
   90.4226   95.9097  279.6173 H   0  0  0  0  0  0  0  0  0  0  0  0
   90.5107   94.9829  278.0811 H   0  0  0  0  0  0  0  0  0  0  0  0
   89.8759   96.6633  278.0811 H   0  0  0  0  0  0  0  0  0  0  0  0
   90.0354   89.2826  277.0063 H   0  0  0  0  0  0  0  0  0  0  0  0
   90.3985   86.7347  275.4845 H   0  0  0  0  0  0  0  0  0  0  0  0
   92.9230   88.3959  279.4267 H   0  0  0  0  0  0  0  0  0  0  0  0
   94.4179   86.7155  278.3497 H   0  0  0  0  0  0  0  0  0  0  0  0
   93.2314   85.9349  279.4462 H   0  0  0  0  0  0  0  0  0  0  0  0
   92.5659   82.7404  277.8686 H   0  0  0  0  0  0  0  0  0  0  0  0
   92.6887   82.9300  276.0990 H   0  0  0  0  0  0  0  0  0  0  0  0
   89.3674   91.8940  275.4494 H   0  0  0  0  0  0  0  0  0  0  0  0
   89.7840   90.8357  274.0591 H   0  0  0  0  0  0  0  0  0  0  0  0
   88.2390   91.7519  274.0591 H   0  0  0  0  0  0  0  0  0  0  0  0
   86.3822   94.0819  278.2652 H   0  0  0  0  0  0  0  0  0  0  0  0
   90.6531   93.5769  278.3503 H   0  0  0  0  0  0  0  0  0  0  0  0
  1 17  1  0
  1  2  1  0
  2 16  1  0
  2  3  1  0
  3 19  1  0
  4  6  1  0
  4 19  1  0
  5 17  1  0
  5  6  1  0
  6 16  1  0
  7 23  1  0
  7 15  1  0
  7 14  2  0
  8 23  1  0
  9 12  1  0
  9 10  2  0
  9 25  1  0
 10 28  1  0
 11 27  1  0
 11 26  1  0
 11 28  2  0
 12 26  2  0
 13 27  1  0
 15 16  1  0
 17 18  1  0
 18 19  1  0
 19 20  1  0
 20 21  2  0
 20 22  1  0
 23 25  1  0
 23 24  1  0
  1 29  1  0
  1 30  1  0
  2 31  1  0
  3 32  1  0
  3 33  1  0
  4 34  1  0
  4 35  1  0
  5 36  1  0
  5 37  1  0
  6 38  1  0
  8 39  1  0
  8 40  1  0
  8 41  1  0
 10 42  1  0
 12 43  1  0
 13 44  1  0
 13 45  1  0
 13 46  1  0
 15 47  1  0
 16 48  1  0
 17 49  1  0
 18 50  1  0
 18 51  1  0
 22 52  1  0
 22 53  1  0
 24 54  1  0
 24 55  1  0
 24 56  1  0
 26 57  1  0
 28 58  1  0
A    1
C4
A    2
C5
A    3
C6
A    4
C7
A    5
C8
A    6
C10
A    7
C15
A    8
C20
A    9
C21
A   10
C22
A   11
C24
A   12
C26
A   13
C28
A   14
O17
A   15
N11
A   16
C9
A   17
C3
A   18
C2
A   19
C1
A   20
C12
A   21
O14
A   22
N13
A   23
C16
A   24
C19
A   25
O18
A   26
C25
A   27
O27
A   28
C23
M  END
