2ISO_GFF_A_338
     RDKit          3D

 49 51  0  0  0  0  0  0  0  0999 V2000
    5.0270    5.0270   14.6190 P   0  0  0  0  0  0  0  0  0  0  0  0
    3.9100    4.9580   15.5860 O   0  0  0  0  0  0  0  0  0  0  0  0
    6.4160    5.1810   15.1310 O   0  0  0  0  0  0  0  0  0  0  0  0
    4.9360    3.7980   13.7380 O   0  0  0  0  0  0  0  0  0  0  0  0
    4.7330    6.2810   13.6750 O   0  0  0  0  0  0  0  0  0  0  0  0
    3.8650    2.7330   13.6440 P   0  0  0  0  0  0  0  0  0  0  0  0
    3.8440    2.2810   12.2240 O   0  0  0  0  0  0  0  0  0  0  0  0
    2.5930    3.1130   14.3040 O   0  0  0  0  0  0  0  0  0  0  0  0
    4.5330    1.2520   14.5780 C   0  0  0  0  0  0  0  0  0  0  0  0
    4.1910    0.1320   13.8720 F   0  0  0  0  0  0  0  0  0  0  0  0
    5.8960    1.3580   14.5970 F   0  0  0  0  0  0  0  0  0  0  0  0
    3.9220    1.1140   16.3510 P   0  0  0  0  0  0  0  0  0  0  0  0
    3.5300    2.4710   16.8150 O   0  0  0  0  0  0  0  0  0  0  0  0
    4.9550    0.3510   17.1150 O   0  0  0  0  0  0  0  0  0  0  0  0
    2.7080    0.2680   16.2540 O   0  0  0  0  0  0  0  0  0  0  0  0
    3.4720    6.4190   13.0250 C   0  0  0  0  0  0  0  0  0  0  0  0
    3.6570    6.5600   11.5330 C   0  0  0  0  0  0  0  0  0  0  0  0
    4.5010    7.6910   11.2550 O   0  0  0  0  0  0  0  0  0  0  0  0
    5.2020    7.4610   10.0360 C   0  0  0  0  0  0  0  0  0  0  0  0
    6.6310    7.6240   10.2880 N   0  0  0  0  0  0  0  0  0  0  0  0
    7.5490    8.1230    9.3990 C   0  0  0  0  0  0  0  0  0  0  0  0
    7.2730    8.5990    8.1680 N   0  0  0  0  0  0  0  0  0  0  0  0
    8.3630    8.9870    7.5330 C   0  0  0  0  0  0  0  0  0  0  0  0
    8.2540    9.5300    6.3000 N   0  0  0  0  0  0  0  0  0  0  0  0
    9.6350    8.8850    8.0610 N   0  0  0  0  0  0  0  0  0  0  0  0
    9.9390    8.3880    9.3270 C   0  0  0  0  0  0  0  0  0  0  0  0
   11.1170    8.3200    9.6990 O   0  0  0  0  0  0  0  0  0  0  0  0
    8.7720    8.0010   10.0270 C   0  0  0  0  0  0  0  0  0  0  0  0
    8.6210    7.4770   11.3030 N   0  0  0  0  0  0  0  0  0  0  0  0
    7.3350    7.2730   11.4160 C   0  0  0  0  0  0  0  0  0  0  0  0
    4.8450    6.0460    9.5730 C   0  0  0  0  0  0  0  0  0  0  0  0
    4.3640    5.3960   10.8550 C   0  0  0  0  0  0  0  0  0  0  0  0
    3.4450    4.3300   10.5970 O   0  0  0  0  0  0  0  0  0  0  0  0
    4.2699    4.9802   16.5080 H   0  0  0  0  0  0  0  0  0  0  0  0
    3.7981    1.2926   12.1930 H   0  0  0  0  0  0  0  0  0  0  0  0
    3.5238    2.4923   17.8048 H   0  0  0  0  0  0  0  0  0  0  0  0
    2.3877    0.0448   17.1638 H   0  0  0  0  0  0  0  0  0  0  0  0
    2.8595    5.5288   13.2310 H   0  0  0  0  0  0  0  0  0  0  0  0
    2.9721    7.3210   13.4077 H   0  0  0  0  0  0  0  0  0  0  0  0
    2.6300    6.6398   11.1471 H   0  0  0  0  0  0  0  0  0  0  0  0
    4.9252    8.1720    9.2436 H   0  0  0  0  0  0  0  0  0  0  0  0
    8.0523   10.5347    6.1957 H   0  0  0  0  0  0  0  0  0  0  0  0
    8.3726    8.9391    5.4647 H   0  0  0  0  0  0  0  0  0  0  0  0
   10.4199    9.2007    7.4735 H   0  0  0  0  0  0  0  0  0  0  0  0
    6.8638    6.8624   12.3212 H   0  0  0  0  0  0  0  0  0  0  0  0
    4.0496    6.0646    8.8134 H   0  0  0  0  0  0  0  0  0  0  0  0
    5.6827    5.5144    9.0980 H   0  0  0  0  0  0  0  0  0  0  0  0
    5.1698    4.9378   11.4473 H   0  0  0  0  0  0  0  0  0  0  0  0
    3.1232    3.9567   11.4556 H   0  0  0  0  0  0  0  0  0  0  0  0
  1  5  1  0
  1  2  1  0
  1  3  2  0
  1  4  1  0
  4  6  1  0
  5 16  1  0
  6  7  1  0
  6  8  2  0
  6  9  1  0
  9 10  1  0
  9 11  1  0
  9 12  1  0
 12 13  1  0
 12 14  2  0
 12 15  1  0
 16 17  1  0
 17 32  1  0
 17 18  1  0
 18 19  1  0
 19 20  1  0
 19 31  1  0
 20 30  1  0
 20 21  1  0
 21 28  2  0
 21 22  1  0
 22 23  2  0
 23 24  1  0
 23 25  1  0
 25 26  1  0
 26 27  2  0
 26 28  1  0
 28 29  1  0
 29 30  2  0
 31 32  1  0
 32 33  1  0
  2 34  1  0
  7 35  1  0
 13 36  1  0
 15 37  1  0
 16 38  1  0
 16 39  1  0
 17 40  1  0
 19 41  1  0
 24 42  1  0
 24 43  1  0
 25 44  1  0
 30 45  1  0
 31 46  1  0
 31 47  1  0
 32 48  1  0
 33 49  1  0
A    1
P1
A    2
O1A
A    3
O2A
A    4
O3A
A    5
O5'
A    6
P2
A    7
O1B
A    8
O2B
A    9
C3B
A   10
F1B
A   11
F2B
A   12
P3
A   13
O1G
A   14
O2G
A   15
O3G
A   16
C5'
A   17
C4'
A   18
O4'
A   19
C1'
A   20
N9
A   21
C4
A   22
N3
A   23
C2
A   24
N2
A   25
N1
A   26
C6
A   27
O6
A   28
C5
A   29
N7
A   30
C8
A   31
C2'
A   32
C3'
A   33
O3'
M  END
