2ISP_GGH_A_338
     RDKit          3D

 49 51  0  0  0  0  0  0  0  0999 V2000
    8.3900    8.9760    7.4840 C   0  0  0  0  0  0  0  0  0  0  0  0
    7.5400    8.1620    9.3570 C   0  0  0  0  0  0  0  0  0  0  0  0
    8.7570    8.0370    9.9970 C   0  0  0  0  0  0  0  0  0  0  0  0
    9.9360    8.3900    9.3020 C   0  0  0  0  0  0  0  0  0  0  0  0
    4.9660    5.0930   14.6560 P   0  0  0  0  0  0  0  0  0  0  0  0
    3.9110    2.7760   13.6780 P   0  0  0  0  0  0  0  0  0  0  0  0
   11.1090    8.3100    9.6870 O   0  0  0  0  0  0  0  0  0  0  0  0
    3.8470    5.0380   15.6370 O   0  0  0  0  0  0  0  0  0  0  0  0
    6.3570    5.2490   15.1580 O   0  0  0  0  0  0  0  0  0  0  0  0
    4.9350    3.8680   13.7750 O   0  0  0  0  0  0  0  0  0  0  0  0
    4.6630    6.3340   13.6990 O   0  0  0  0  0  0  0  0  0  0  0  0
    3.9280    2.3040   12.2710 O   0  0  0  0  0  0  0  0  0  0  0  0
    2.6150    3.1550   14.3010 O   0  0  0  0  0  0  0  0  0  0  0  0
    4.6320    1.2710   14.5320 C   0  0  0  0  0  0  0  0  0  0  0  0
    4.0060    1.0890   16.2870 P   0  0  0  0  0  0  0  0  0  0  0  0
    3.5980    2.4500   16.7460 O   0  0  0  0  0  0  0  0  0  0  0  0
    5.0580    0.3530   17.0380 O   0  0  0  0  0  0  0  0  0  0  0  0
    2.8000    0.2270   16.1920 O   0  0  0  0  0  0  0  0  0  0  0  0
    3.4170    6.4390   13.0070 C   0  0  0  0  0  0  0  0  0  0  0  0
    3.6370    6.6180   11.5230 C   0  0  0  0  0  0  0  0  0  0  0  0
    4.4820    7.7540   11.2490 O   0  0  0  0  0  0  0  0  0  0  0  0
    5.1720    7.5390   10.0130 C   0  0  0  0  0  0  0  0  0  0  0  0
    6.6050    7.6950   10.2540 N   0  0  0  0  0  0  0  0  0  0  0  0
    7.2860    8.6130    8.1140 N   0  0  0  0  0  0  0  0  0  0  0  0
    8.3090    9.5060    6.2440 N   0  0  0  0  0  0  0  0  0  0  0  0
    9.6540    8.8640    8.0250 N   0  0  0  0  0  0  0  0  0  0  0  0
    8.5880    7.5490   11.2840 N   0  0  0  0  0  0  0  0  0  0  0  0
    7.2990    7.3650   11.3950 C   0  0  0  0  0  0  0  0  0  0  0  0
    4.8050    6.1240    9.5450 C   0  0  0  0  0  0  0  0  0  0  0  0
    4.3380    5.4620   10.8280 C   0  0  0  0  0  0  0  0  0  0  0  0
    3.4140    4.3990   10.5740 O   0  0  0  0  0  0  0  0  0  0  0  0
    4.2132    5.0560   16.5566 H   0  0  0  0  0  0  0  0  0  0  0  0
    2.7027    3.1293   15.2868 H   0  0  0  0  0  0  0  0  0  0  0  0
    4.3542    0.3725   13.9615 H   0  0  0  0  0  0  0  0  0  0  0  0
    5.7241    1.3960   14.5734 H   0  0  0  0  0  0  0  0  0  0  0  0
    3.5902    2.4759   17.7356 H   0  0  0  0  0  0  0  0  0  0  0  0
    4.9052    0.4599   18.0103 H   0  0  0  0  0  0  0  0  0  0  0  0
    2.8328    5.5225   13.1764 H   0  0  0  0  0  0  0  0  0  0  0  0
    2.8755    7.3165   13.3900 H   0  0  0  0  0  0  0  0  0  0  0  0
    2.6105    6.7218   11.1415 H   0  0  0  0  0  0  0  0  0  0  0  0
    4.8911    8.2588    9.2301 H   0  0  0  0  0  0  0  0  0  0  0  0
    8.1544   10.5174    6.1253 H   0  0  0  0  0  0  0  0  0  0  0  0
    8.4018    8.8987    5.4173 H   0  0  0  0  0  0  0  0  0  0  0  0
   10.4498    9.1535    7.4386 H   0  0  0  0  0  0  0  0  0  0  0  0
    6.8177    6.9848   12.3082 H   0  0  0  0  0  0  0  0  0  0  0  0
    4.0001    6.1498    8.7957 H   0  0  0  0  0  0  0  0  0  0  0  0
    5.6369    5.5949    9.0573 H   0  0  0  0  0  0  0  0  0  0  0  0
    5.1524    4.9992   11.4047 H   0  0  0  0  0  0  0  0  0  0  0  0
    3.0923    4.0289   11.4340 H   0  0  0  0  0  0  0  0  0  0  0  0
  1 25  1  0
  1 26  1  0
  1 24  2  0
  2 24  1  0
  2  3  2  0
  2 23  1  0
  3  4  1  0
  3 27  1  0
  4 26  1  0
  4  7  2  0
  5 11  1  0
  5 10  1  0
  5  9  2  0
  5  8  1  0
  6 12  2  0
  6 10  1  0
  6 13  1  0
  6 14  1  0
 11 19  1  0
 14 15  1  0
 15 18  2  0
 15 16  1  0
 15 17  1  0
 19 20  1  0
 20 30  1  0
 20 21  1  0
 21 22  1  0
 22 29  1  0
 22 23  1  0
 23 28  1  0
 27 28  2  0
 29 30  1  0
 30 31  1  0
  8 32  1  0
 13 33  1  0
 14 34  1  0
 14 35  1  0
 16 36  1  0
 17 37  1  0
 19 38  1  0
 19 39  1  0
 20 40  1  0
 22 41  1  0
 25 42  1  0
 25 43  1  0
 26 44  1  0
 28 45  1  0
 29 46  1  0
 29 47  1  0
 30 48  1  0
 31 49  1  0
A    1
C2
A    2
C4
A    3
C5
A    4
C6
A    5
P1
A    6
P2
A    7
O6
A    8
O1A
A    9
O2A
A   10
O3A
A   11
O5'
A   12
O1B
A   13
O2B
A   14
C3B
A   15
P3
A   16
O1G
A   17
O2G
A   18
O3G
A   19
C5'
A   20
C4'
A   21
O4'
A   22
C1'
A   23
N9
A   24
N3
A   25
N2
A   26
N1
A   27
N7
A   28
C8
A   29
C2'
A   30
C3'
A   31
O3'
M  END
