1O8A_NXA_A_702
     RDKit          3D

 16 15  0  0  0  0  0  0  0  0999 V2000
   41.9880   34.5370   43.4910 N   0  0  0  0  0  0  0  0  0  0  0  0
   40.8250   34.6450   42.5780 C   0  0  0  0  0  0  0  0  0  0  0  0
   39.8460   33.4670   42.3400 C   0  0  0  0  0  0  0  0  0  0  0  0
   40.1790   32.4100   43.0240 O   0  0  0  0  0  0  0  0  0  0  0  0
   41.6030   34.8100   41.2800 C   0  0  0  0  0  0  0  0  0  0  0  0
   40.4940   34.4780   45.3110 O   0  0  0  0  0  0  0  0  0  0  0  0
   42.7780   34.1360   45.4750 O   0  0  0  0  0  0  0  0  0  0  0  0
   41.6750   34.3890   44.8050 C   0  0  0  0  0  0  0  0  0  0  0  0
   38.7930   33.2590   41.6470 O   0  0  0  0  0  0  0  0  0  0  0  0
   42.9608   34.5716   43.1544 H   0  0  0  0  0  0  0  0  0  0  0  0
   40.1342   35.3986   42.9841 H   0  0  0  0  0  0  0  0  0  0  0  0
   40.1703   32.4377   44.0136 H   0  0  0  0  0  0  0  0  0  0  0  0
   42.6555   35.0332   41.5092 H   0  0  0  0  0  0  0  0  0  0  0  0
   41.5442   33.8794   40.6964 H   0  0  0  0  0  0  0  0  0  0  0  0
   41.1715   35.6366   40.6964 H   0  0  0  0  0  0  0  0  0  0  0  0
   40.3760   34.4869   46.2939 H   0  0  0  0  0  0  0  0  0  0  0  0
  1  2  1  0
  1  8  1  0
  2  3  1  0
  2  5  1  0
  3  4  1  0
  3  9  2  0
  6  8  1  0
  7  8  2  0
  1 10  1  0
  2 11  1  0
  4 12  1  0
  5 13  1  0
  5 14  1  0
  5 15  1  0
  6 16  1  0
A    1
N
A    2
CA
A    3
C
A    4
O
A    5
CB
A    6
OD1
A    7
OD2
A    8
C1
A    9
OXT
M  END
