2IVD_ACJ_A_1465
     RDKit          3D

 31 32  0  0  0  0  0  0  0  0999 V2000
   79.9220   33.1230   33.7710 O   0  0  0  0  0  0  0  0  0  0  0  0
   80.1060   34.3090   33.4150 C   0  0  0  0  0  0  0  0  0  0  0  0
   81.2490   34.7460   33.1320 O   0  0  0  0  0  0  0  0  0  0  0  0
   78.5560   35.6380   32.0200 C   0  0  0  0  0  0  0  0  0  0  0  0
   78.1210   35.7400   34.4570 C   0  0  0  0  0  0  0  0  0  0  0  0
   77.4670   36.4860   31.8170 C   0  0  0  0  0  0  0  0  0  0  0  0
   78.4030   35.4010   35.7420 N   0  0  0  0  0  0  0  0  0  0  0  0
   77.0430   36.5970   34.2010 C   0  0  0  0  0  0  0  0  0  0  0  0
   79.4620   34.5510   36.0610 O   0  0  0  0  0  0  0  0  0  0  0  0
   76.7170   36.9630   32.8930 C   0  0  0  0  0  0  0  0  0  0  0  0
   77.1480   36.8620   30.5400 O   0  0  0  0  0  0  0  0  0  0  0  0
   77.6480   36.1850   29.4490 C   0  0  0  0  0  0  0  0  0  0  0  0
   77.6140   35.9090   36.7690 O   0  0  0  0  0  0  0  0  0  0  0  0
   78.8870   36.4920   28.8810 C   0  0  0  0  0  0  0  0  0  0  0  0
   78.9240   35.2320   33.2960 C   0  0  0  0  0  0  0  0  0  0  0  0
   76.8280   35.0970   28.8500 C   0  0  0  0  0  0  0  0  0  0  0  0
   79.3270   35.7650   27.7710 C   0  0  0  0  0  0  0  0  0  0  0  0
   78.5510   34.7410   27.2050 C   0  0  0  0  0  0  0  0  0  0  0  0
   75.2430   34.7320   29.5900 Cl  0  0  0  0  0  0  0  0  0  0  0  0
   77.3010   34.4030   27.7400 C   0  0  0  0  0  0  0  0  0  0  0  0
   79.0760   33.9840   26.0170 C   0  0  0  0  0  0  0  0  0  0  0  0
   78.5540   32.7720   25.9980 F   0  0  0  0  0  0  0  0  0  0  0  0
   80.3970   33.8970   26.0860 F   0  0  0  0  0  0  0  0  0  0  0  0
   78.7330   34.5960   24.9040 F   0  0  0  0  0  0  0  0  0  0  0  0
   81.8799   34.9872   33.8558 H   0  0  0  0  0  0  0  0  0  0  0  0
   79.1338   35.2844   31.1533 H   0  0  0  0  0  0  0  0  0  0  0  0
   76.4465   36.9861   35.0393 H   0  0  0  0  0  0  0  0  0  0  0  0
   75.8632   37.6319   32.7097 H   0  0  0  0  0  0  0  0  0  0  0  0
   79.5086   37.2959   29.3021 H   0  0  0  0  0  0  0  0  0  0  0  0
   80.3065   36.0013   27.3297 H   0  0  0  0  0  0  0  0  0  0  0  0
   76.7009   33.5992   27.2885 H   0  0  0  0  0  0  0  0  0  0  0  0
  1  2  2  0
  2  3  1  0
  2 15  1  0
  4  6  2  0
  4 15  1  0
  5  7  1  0
  5  8  1  0
  5 15  2  0
  6 10  1  0
  6 11  1  0
  7  9  1  0
  7 13  2  0
  8 10  2  0
 11 12  1  0
 12 14  2  0
 12 16  1  0
 14 17  1  0
 16 19  1  0
 16 20  2  0
 17 18  2  0
 18 20  1  0
 18 21  1  0
 21 22  1  0
 21 23  1  0
 21 24  1  0
  3 25  1  0
  4 26  1  0
  8 27  1  0
 10 28  1  0
 14 29  1  0
 17 30  1  0
 20 31  1  0
M  CHG  2   7   1   9  -1
A    1
O3
A    2
C11
A    3
O2
A    4
C9
A    5
C14
A    6
C8
A    7
N1
A    8
C13
A    9
O5
A   10
C12
A   11
O1
A   12
C7
A   13
O4
A   14
C6
A   15
C10
A   16
C4
A   17
C5
A   18
C2
A   19
CL1
A   20
C3
A   21
C1
A   22
F1
A   23
F2
A   24
F3
M  END
