2IVD_TWN_B_1472
     RDKit          3D

 67 67  0  0  0  0  0  0  0  0999 V2000
   82.2510    7.6720   62.7130 O   0  0  0  0  0  0  0  0  0  0  0  0
   81.1130    7.7270   62.2710 C   0  0  0  0  0  0  0  0  0  0  0  0
   80.0950    7.3940   63.0900 O   0  0  0  0  0  0  0  0  0  0  0  0
   80.6390    7.1760   64.3860 C   0  0  0  0  0  0  0  0  0  0  0  0
   79.4560    6.9230   65.2990 C   0  0  0  0  0  0  0  0  0  0  0  0
   79.9610    6.6560   66.6980 C   0  0  0  0  0  0  0  0  0  0  0  0
   81.2120    5.8090   66.6740 C   0  0  0  0  0  0  0  0  0  0  0  0
   78.8990    6.0460   67.5920 C   0  0  0  0  0  0  0  0  0  0  0  0
   79.2790    6.3420   68.9290 O   0  0  0  0  0  0  0  0  0  0  0  0
   79.9460    5.1790   69.3880 C   0  0  0  0  0  0  0  0  0  0  0  0
   79.0050    4.0790   68.9770 C   0  0  0  0  0  0  0  0  0  0  0  0
   79.7330    2.7450   68.8790 C   0  0  0  0  0  0  0  0  0  0  0  0
   78.5320    4.5630   67.6150 C   0  0  0  0  0  0  0  0  0  0  0  0
   79.1260    3.7460   66.4770 C   0  0  0  0  0  0  0  0  0  0  0  0
   80.8450    8.1680   60.8340 C   0  0  0  0  0  0  0  0  0  0  0  0
   82.0060    8.9680   60.2570 C   0  0  0  0  0  0  0  0  0  0  0  0
   81.8810    9.0760   58.7450 C   0  0  0  0  0  0  0  0  0  0  0  0
   81.9490   10.5190   58.2720 C   0  0  0  0  0  0  0  0  0  0  0  0
   81.1180   11.4380   59.1570 C   0  0  0  0  0  0  0  0  0  0  0  0
   80.4400   12.5270   58.3370 C   0  0  0  0  0  0  0  0  0  0  0  0
   79.0140   12.7740   58.8020 C   0  0  0  0  0  0  0  0  0  0  0  0
   78.0180   12.6250   57.6590 C   0  0  0  0  0  0  0  0  0  0  0  0
   77.4580   13.9730   57.1990 C   0  0  0  0  0  0  0  0  0  0  0  0
   75.9370   14.0620   57.3500 C   0  0  0  0  0  0  0  0  0  0  0  0
   75.2200   13.7070   56.0580 C   0  0  0  0  0  0  0  0  0  0  0  0
   81.3086    6.3034   64.3775 H   0  0  0  0  0  0  0  0  0  0  0  0
   81.2316    8.0388   64.7244 H   0  0  0  0  0  0  0  0  0  0  0  0
   78.8004    7.8062   65.3061 H   0  0  0  0  0  0  0  0  0  0  0  0
   78.8874    6.0535   64.9374 H   0  0  0  0  0  0  0  0  0  0  0  0
   80.2176    7.6322   67.1352 H   0  0  0  0  0  0  0  0  0  0  0  0
   81.5292    5.5942   67.7051 H   0  0  0  0  0  0  0  0  0  0  0  0
   81.0052    4.8644   66.1497 H   0  0  0  0  0  0  0  0  0  0  0  0
   82.0123    6.3518   66.1497 H   0  0  0  0  0  0  0  0  0  0  0  0
   78.0003    6.4907   67.1396 H   0  0  0  0  0  0  0  0  0  0  0  0
   80.9264    5.0654   68.9022 H   0  0  0  0  0  0  0  0  0  0  0  0
   80.1588    5.1931   70.4671 H   0  0  0  0  0  0  0  0  0  0  0  0
   78.1849    3.8997   69.6878 H   0  0  0  0  0  0  0  0  0  0  0  0
   79.9403    2.3652   69.8903 H   0  0  0  0  0  0  0  0  0  0  0  0
   79.1039    2.0229   68.3379 H   0  0  0  0  0  0  0  0  0  0  0  0
   80.6807    2.8833   68.3379 H   0  0  0  0  0  0  0  0  0  0  0  0
   77.4507    4.4304   67.4627 H   0  0  0  0  0  0  0  0  0  0  0  0
   79.7252    2.9218   66.8912 H   0  0  0  0  0  0  0  0  0  0  0  0
   78.3146    3.3346   65.8585 H   0  0  0  0  0  0  0  0  0  0  0  0
   79.7675    4.3910   65.8585 H   0  0  0  0  0  0  0  0  0  0  0  0
   80.6854    7.2747   60.2122 H   0  0  0  0  0  0  0  0  0  0  0  0
   79.9551    8.8145   60.8372 H   0  0  0  0  0  0  0  0  0  0  0  0
   82.0017    9.9777   60.6934 H   0  0  0  0  0  0  0  0  0  0  0  0
   82.9473    8.4532   60.4997 H   0  0  0  0  0  0  0  0  0  0  0  0
   82.7011    8.5101   58.2791 H   0  0  0  0  0  0  0  0  0  0  0  0
   80.9019    8.6677   58.4540 H   0  0  0  0  0  0  0  0  0  0  0  0
   82.9968   10.8532   58.2945 H   0  0  0  0  0  0  0  0  0  0  0  0
   81.5439   10.5659   57.2504 H   0  0  0  0  0  0  0  0  0  0  0  0
   80.3479   10.8427   59.6693 H   0  0  0  0  0  0  0  0  0  0  0  0
   81.7871   11.9172   59.8868 H   0  0  0  0  0  0  0  0  0  0  0  0
   81.0147   13.4595   58.4380 H   0  0  0  0  0  0  0  0  0  0  0  0
   80.4068   12.1967   57.2883 H   0  0  0  0  0  0  0  0  0  0  0  0
   78.7646   12.0480   59.5898 H   0  0  0  0  0  0  0  0  0  0  0  0
   78.9496   13.8041   59.1825 H   0  0  0  0  0  0  0  0  0  0  0  0
   78.5238   12.1432   56.8093 H   0  0  0  0  0  0  0  0  0  0  0  0
   77.1766   12.0166   58.0222 H   0  0  0  0  0  0  0  0  0  0  0  0
   77.9189   14.7698   57.8012 H   0  0  0  0  0  0  0  0  0  0  0  0
   77.6934   14.0840   56.1302 H   0  0  0  0  0  0  0  0  0  0  0  0
   75.6161   13.3652   58.1384 H   0  0  0  0  0  0  0  0  0  0  0  0
   75.6793   15.0992   57.6102 H   0  0  0  0  0  0  0  0  0  0  0  0
   74.2568   13.2301   56.2923 H   0  0  0  0  0  0  0  0  0  0  0  0
   75.0436   14.6219   55.4733 H   0  0  0  0  0  0  0  0  0  0  0  0
   75.8406   13.0121   55.4733 H   0  0  0  0  0  0  0  0  0  0  0  0
  1  2  2  0
  2  3  1  0
  2 15  1  0
  3  4  1  0
  4  5  1  0
  5  6  1  0
  6  7  1  0
  6  8  1  0
  8  9  1  0
  8 13  1  0
  9 10  1  0
 10 11  1  0
 11 12  1  0
 11 13  1  0
 13 14  1  0
 15 16  1  0
 16 17  1  0
 17 18  1  0
 18 19  1  0
 19 20  1  0
 20 21  1  0
 21 22  1  0
 22 23  1  0
 23 24  1  0
 24 25  1  0
  4 26  1  0
  4 27  1  0
  5 28  1  0
  5 29  1  0
  6 30  1  0
  7 31  1  0
  7 32  1  0
  7 33  1  0
  8 34  1  0
 10 35  1  0
 10 36  1  0
 11 37  1  0
 12 38  1  0
 12 39  1  0
 12 40  1  0
 13 41  1  0
 14 42  1  0
 14 43  1  0
 14 44  1  0
 15 45  1  0
 15 46  1  0
 16 47  1  0
 16 48  1  0
 17 49  1  0
 17 50  1  0
 18 51  1  0
 18 52  1  0
 19 53  1  0
 19 54  1  0
 20 55  1  0
 20 56  1  0
 21 57  1  0
 21 58  1  0
 22 59  1  0
 22 60  1  0
 23 61  1  0
 23 62  1  0
 24 63  1  0
 24 64  1  0
 25 65  1  0
 25 66  1  0
 25 67  1  0
A    1
OAG
A    2
CAE
A    3
OAI
A    4
CAJ
A    5
CAM
A    6
CAH
A    7
CAO
A    8
CAB
A    9
OAA
A   10
CAD
A   11
CAF
A   12
CAN
A   13
CAC
A   14
CAK
A   15
CAL
A   16
CAP
A   17
CAW
A   18
CAS
A   19
CAX
A   20
CAT
A   21
CAU
A   22
CAV
A   23
CAR
A   24
CAQ
A   25
CAY
M  END
