2IVI_ACW_B_1332
     RDKit          3D

 50 50  0  0  0  0  0  0  0  0999 V2000
   17.2040   36.1850    5.6680 C   0  0  0  0  0  0  0  0  0  0  0  0
   15.7680   36.4050    6.1490 C   0  0  0  0  0  0  0  0  0  0  0  0
   15.2250   37.6330    5.4240 C   0  0  0  0  0  0  0  0  0  0  0  0
   13.7850   37.9580    5.9300 C   0  0  0  0  0  0  0  0  0  0  0  0
   13.3640   39.2840    5.2300 C   0  0  0  0  0  0  0  0  0  0  0  0
   11.9410   39.5670    5.5930 C   0  0  0  0  0  0  0  0  0  0  0  0
   10.9890   39.4380    4.6880 N   0  0  0  0  0  0  0  0  0  0  0  0
    9.5600   39.6860    4.8810 C   0  0  0  0  0  0  0  0  0  0  0  0
    8.8320   38.3460    4.8480 C   0  0  0  0  0  0  0  0  0  0  0  0
   15.7770   36.5660    7.6670 N   0  0  0  0  0  0  0  0  0  0  0  0
   11.6440   39.9400    6.7520 O   0  0  0  0  0  0  0  0  0  0  0  0
    9.1240   40.6230    3.7240 C   0  0  0  0  0  0  0  0  0  0  0  0
    9.4290   39.8090    2.1330 S   0  0  0  0  0  0  0  0  0  0  0  0
    9.3720   37.2610    4.7490 O   0  0  0  0  0  0  0  0  0  0  0  0
   17.3550   35.9090    4.4440 O   0  0  0  0  0  0  0  0  0  0  0  0
   18.1450   36.3100    6.5110 O   0  0  0  0  0  0  0  0  0  0  0  0
    7.5040   38.4350    4.9250 N   0  0  0  0  0  0  0  0  0  0  0  0
    6.6180   37.3200    4.5800 C   0  0  0  0  0  0  0  0  0  0  0  0
    5.3580   37.3550    5.4320 C   0  0  0  0  0  0  0  0  0  0  0  0
    6.2880   37.3220    3.0470 C   0  0  0  0  0  0  0  0  0  0  0  0
    7.2990   36.7600    2.1510 C   0  0  0  0  0  0  0  0  0  0  0  0
    5.5120   38.5690    2.5350 C   0  0  0  0  0  0  0  0  0  0  0  0
    5.2030   38.1810    6.3380 O   0  0  0  0  0  0  0  0  0  0  0  0
    4.5180   36.4460    5.1250 O   0  0  0  0  0  0  0  0  0  0  0  0
    6.1320   35.9980    2.3440 C   0  0  0  0  0  0  0  0  0  0  0  0
   15.1127   35.5515    5.9207 H   0  0  0  0  0  0  0  0  0  0  0  0
   15.8828   38.4925    5.6204 H   0  0  0  0  0  0  0  0  0  0  0  0
   15.1907   37.4288    4.3437 H   0  0  0  0  0  0  0  0  0  0  0  0
   13.0935   37.1472    5.6572 H   0  0  0  0  0  0  0  0  0  0  0  0
   13.7595   38.0587    7.0251 H   0  0  0  0  0  0  0  0  0  0  0  0
   14.0075   40.1076    5.5728 H   0  0  0  0  0  0  0  0  0  0  0  0
   13.4685   39.1899    4.1390 H   0  0  0  0  0  0  0  0  0  0  0  0
   11.2821   39.1312    3.7495 H   0  0  0  0  0  0  0  0  0  0  0  0
    9.3260   40.1618    5.8448 H   0  0  0  0  0  0  0  0  0  0  0  0
   15.7251   35.6381    8.1110 H   0  0  0  0  0  0  0  0  0  0  0  0
   16.6457   37.0374    7.9571 H   0  0  0  0  0  0  0  0  0  0  0  0
    8.0516   40.8485    3.8201 H   0  0  0  0  0  0  0  0  0  0  0  0
    9.7029   41.5570    3.7730 H   0  0  0  0  0  0  0  0  0  0  0  0
    9.9035   38.5425    2.3516 H   0  0  0  0  0  0  0  0  0  0  0  0
   17.9476   36.2838    7.4808 H   0  0  0  0  0  0  0  0  0  0  0  0
    7.0846   39.3217    5.2391 H   0  0  0  0  0  0  0  0  0  0  0  0
    7.1395   36.3765    4.7989 H   0  0  0  0  0  0  0  0  0  0  0  0
    7.4799   37.2340    1.1750 H   0  0  0  0  0  0  0  0  0  0  0  0
    8.3720   36.5436    2.2600 H   0  0  0  0  0  0  0  0  0  0  0  0
    5.1487   39.1528    3.3936 H   0  0  0  0  0  0  0  0  0  0  0  0
    6.1818   39.1926    1.9247 H   0  0  0  0  0  0  0  0  0  0  0  0
    4.6567   38.2435    1.9247 H   0  0  0  0  0  0  0  0  0  0  0  0
    4.0518   35.9416    5.8380 H   0  0  0  0  0  0  0  0  0  0  0  0
    6.1760   35.0616    2.9196 H   0  0  0  0  0  0  0  0  0  0  0  0
    5.3747   35.5552    1.6804 H   0  0  0  0  0  0  0  0  0  0  0  0
  1  2  1  0
  1 15  2  0
  1 16  1  0
  2  3  1  0
  2 10  1  0
  3  4  1  0
  4  5  1  0
  5  6  1  0
  6  7  1  0
  6 11  2  0
  7  8  1  0
  8  9  1  0
  8 12  1  0
  9 14  2  0
  9 17  1  0
 12 13  1  0
 17 18  1  0
 18 19  1  0
 18 20  1  0
 19 23  2  0
 19 24  1  0
 20 21  1  0
 20 22  1  0
 20 25  1  0
 21 25  1  0
  2 26  1  0
  3 27  1  0
  3 28  1  0
  4 29  1  0
  4 30  1  0
  5 31  1  0
  5 32  1  0
  7 33  1  0
  8 34  1  0
 10 35  1  0
 10 36  1  0
 12 37  1  0
 12 38  1  0
 13 39  1  0
 16 40  1  0
 17 41  1  0
 18 42  1  0
 21 43  1  0
 21 44  1  0
 22 45  1  0
 22 46  1  0
 22 47  1  0
 24 48  1  0
 25 49  1  0
 25 50  1  0
A    1
C1
A    2
C2
A    3
C3
A    4
C4
A    5
C7
A    6
C10
A    7
N11
A    8
C12
A    9
C13
A   10
N14
A   11
O15
A   12
C16
A   13
S17
A   14
O18
A   15
O19
A   16
O20
A   17
N29
A   18
C30
A   19
C31
A   20
C32
A   21
C33
A   22
C37
A   23
O42
A   24
O43
A   25
C40
M  END
