2IVJ_BCV_A_1332
     RDKit          3D

 47 47  0  0  0  0  0  0  0  0999 V2000
   15.7150   36.5330    7.6940 N   0  0  0  0  0  0  0  0  0  0  0  0
   15.8030   36.3710    6.2210 C   0  0  0  0  0  0  0  0  0  0  0  0
   17.2380   36.2270    5.6580 C   0  0  0  0  0  0  0  0  0  0  0  0
   18.1680   36.3630    6.4770 O   0  0  0  0  0  0  0  0  0  0  0  0
   17.3610   35.9740    4.4380 O   0  0  0  0  0  0  0  0  0  0  0  0
   15.2260   37.5940    5.5270 C   0  0  0  0  0  0  0  0  0  0  0  0
   13.8250   37.9960    6.0130 C   0  0  0  0  0  0  0  0  0  0  0  0
   13.3490   39.2350    5.2460 C   0  0  0  0  0  0  0  0  0  0  0  0
   11.9200   39.5900    5.6840 C   0  0  0  0  0  0  0  0  0  0  0  0
   11.6130   39.8650    6.8530 O   0  0  0  0  0  0  0  0  0  0  0  0
   10.9530   39.5250    4.7790 N   0  0  0  0  0  0  0  0  0  0  0  0
    9.5160   39.7830    4.9950 C   0  0  0  0  0  0  0  0  0  0  0  0
    9.0920   40.6490    3.8130 C   0  0  0  0  0  0  0  0  0  0  0  0
    9.3710   39.8040    2.2180 S   0  0  0  0  0  0  0  0  0  0  0  0
    8.7340   38.4590    4.9990 C   0  0  0  0  0  0  0  0  0  0  0  0
    9.3270   37.3860    4.8580 O   0  0  0  0  0  0  0  0  0  0  0  0
    7.4120   38.4280    5.1000 N   0  0  0  0  0  0  0  0  0  0  0  0
    6.5230   37.2540    4.8700 C   0  0  0  0  0  0  0  0  0  0  0  0
    5.1880   37.2950    5.5840 C   0  0  0  0  0  0  0  0  0  0  0  0
    5.0850   38.2090    6.4190 O   0  0  0  0  0  0  0  0  0  0  0  0
    4.3490   36.4150    5.3090 O   0  0  0  0  0  0  0  0  0  0  0  0
    6.5250   37.0160    3.3240 C   0  0  0  0  0  0  0  0  0  0  0  0
    6.1830   35.7700    2.5120 C   0  0  0  0  0  0  0  0  0  0  0  0
    7.0650   36.8550    1.8930 C   0  0  0  0  0  0  0  0  0  0  0  0
   16.1546   35.7237    8.1553 H   0  0  0  0  0  0  0  0  0  0  0  0
   16.2037   37.3953    7.9744 H   0  0  0  0  0  0  0  0  0  0  0  0
   15.2497   35.4405    6.0260 H   0  0  0  0  0  0  0  0  0  0  0  0
   17.7749   35.1226    4.1483 H   0  0  0  0  0  0  0  0  0  0  0  0
   15.9064   38.4409    5.6996 H   0  0  0  0  0  0  0  0  0  0  0  0
   15.1272   37.3343    4.4627 H   0  0  0  0  0  0  0  0  0  0  0  0
   13.1248   37.1659    5.8378 H   0  0  0  0  0  0  0  0  0  0  0  0
   13.8637   38.2252    7.0882 H   0  0  0  0  0  0  0  0  0  0  0  0
   14.0194   40.0800    5.4619 H   0  0  0  0  0  0  0  0  0  0  0  0
   13.3603   39.0249    4.1663 H   0  0  0  0  0  0  0  0  0  0  0  0
   11.2350   39.2667    3.8226 H   0  0  0  0  0  0  0  0  0  0  0  0
    9.3195   40.2744    5.9593 H   0  0  0  0  0  0  0  0  0  0  0  0
    8.0216   40.8834    3.9093 H   0  0  0  0  0  0  0  0  0  0  0  0
    9.7002   41.5655    3.8252 H   0  0  0  0  0  0  0  0  0  0  0  0
    9.7944   38.5216    2.4485 H   0  0  0  0  0  0  0  0  0  0  0  0
    6.9502   39.3095    5.3658 H   0  0  0  0  0  0  0  0  0  0  0  0
    6.9098   36.3507    5.3643 H   0  0  0  0  0  0  0  0  0  0  0  0
    3.8853   35.9287    6.0360 H   0  0  0  0  0  0  0  0  0  0  0  0
    6.3734   37.9434    3.8958 H   0  0  0  0  0  0  0  0  0  0  0  0
    6.6197   34.7987    2.7873 H   0  0  0  0  0  0  0  0  0  0  0  0
    5.2491   35.2687    2.2177 H   0  0  0  0  0  0  0  0  0  0  0  0
    6.6736   37.4870    1.0821 H   0  0  0  0  0  0  0  0  0  0  0  0
    8.0618   36.8786    1.4285 H   0  0  0  0  0  0  0  0  0  0  0  0
  1  2  1  0
  2  3  1  0
  2  6  1  0
  3  4  2  0
  3  5  1  0
  6  7  1  0
  7  8  1  0
  8  9  1  0
  9 10  2  0
  9 11  1  0
 11 12  1  0
 12 13  1  0
 12 15  1  0
 13 14  1  0
 15 16  2  0
 15 17  1  0
 17 18  1  0
 18 19  1  0
 18 22  1  0
 19 20  2  0
 19 21  1  0
 22 23  1  0
 22 24  1  0
 23 24  1  0
  1 25  1  0
  1 26  1  0
  2 27  1  0
  5 28  1  0
  6 29  1  0
  6 30  1  0
  7 31  1  0
  7 32  1  0
  8 33  1  0
  8 34  1  0
 11 35  1  0
 12 36  1  0
 13 37  1  0
 13 38  1  0
 14 39  1  0
 17 40  1  0
 18 41  1  0
 21 42  1  0
 22 43  1  0
 23 44  1  0
 23 45  1  0
 24 46  1  0
 24 47  1  0
A    1
N14
A    2
C2
A    3
C1
A    4
O19
A    5
O20
A    6
C3
A    7
C4
A    8
C7
A    9
C10
A   10
O15
A   11
N11
A   12
C12
A   13
C16
A   14
S17
A   15
C13
A   16
O18
A   17
N29
A   18
C30
A   19
C31
A   20
O42
A   21
O43
A   22
C32
A   23
C37
A   24
C33
M  END
