2IVS_ACK_A_3016
     RDKit          3D

 34 37  0  0  0  0  0  0  0  0999 V2000
    8.1200    8.3260   -1.9310 O   0  0  0  0  0  0  0  0  0  0  0  0
    7.4390    7.2830   -2.7390 P   0  0  0  0  0  0  0  0  0  0  0  0
    5.9290    7.3570   -2.8950 O   0  0  0  0  0  0  0  0  0  0  0  0
    7.6960    5.7650   -2.2050 O   0  0  0  0  0  0  0  0  0  0  0  0
    8.1420    7.0690   -4.1600 O   0  0  0  0  0  0  0  0  0  0  0  0
    8.8620    5.8280   -4.2420 C   0  0  0  0  0  0  0  0  0  0  0  0
    8.5790    5.0520   -5.5280 C   0  0  0  0  0  0  0  0  0  0  0  0
    7.7710    3.9100   -5.1690 O   0  0  0  0  0  0  0  0  0  0  0  0
    9.8840    4.5860   -6.1960 C   0  0  0  0  0  0  0  0  0  0  0  0
   10.5920    3.7070   -5.3290 O   0  0  0  0  0  0  0  0  0  0  0  0
    7.3240    4.0670   -3.8300 C   0  0  0  0  0  0  0  0  0  0  0  0
    7.0910    2.7390   -3.2190 N   0  0  0  0  0  0  0  0  0  0  0  0
    7.9040    1.6620   -3.2790 C   0  0  0  0  0  0  0  0  0  0  0  0
    7.3400    0.6090   -2.6450 N   0  0  0  0  0  0  0  0  0  0  0  0
    6.1610    1.0410   -2.1700 C   0  0  0  0  0  0  0  0  0  0  0  0
    5.1050    0.4270   -1.3840 C   0  0  0  0  0  0  0  0  0  0  0  0
    5.2670   -0.8650   -0.9850 N   0  0  0  0  0  0  0  0  0  0  0  0
    4.0560    1.2070   -1.0560 N   0  0  0  0  0  0  0  0  0  0  0  0
    3.9420    2.5060   -1.4330 C   0  0  0  0  0  0  0  0  0  0  0  0
    4.8650    3.1450   -2.1710 N   0  0  0  0  0  0  0  0  0  0  0  0
    5.9910    2.4480   -2.5490 C   0  0  0  0  0  0  0  0  0  0  0  0
    8.3640    4.9250   -3.1200 C   0  0  0  0  0  0  0  0  0  0  0  0
    5.5055    7.3778   -2.0004 H   0  0  0  0  0  0  0  0  0  0  0  0
    9.9320    6.0780   -4.1912 H   0  0  0  0  0  0  0  0  0  0  0  0
    8.0570    5.6972   -6.2500 H   0  0  0  0  0  0  0  0  0  0  0  0
    9.6455    4.0595   -7.1319 H   0  0  0  0  0  0  0  0  0  0  0  0
   10.5120    5.4636   -6.4091 H   0  0  0  0  0  0  0  0  0  0  0  0
   10.3995    3.9460   -4.3878 H   0  0  0  0  0  0  0  0  0  0  0  0
    6.3540    4.5805   -3.7561 H   0  0  0  0  0  0  0  0  0  0  0  0
    8.8863    1.6440   -3.7738 H   0  0  0  0  0  0  0  0  0  0  0  0
    5.2957   -1.0943    0.0187 H   0  0  0  0  0  0  0  0  0  0  0  0
    5.3608   -1.6129   -1.6870 H   0  0  0  0  0  0  0  0  0  0  0  0
    3.0480    3.0641   -1.1181 H   0  0  0  0  0  0  0  0  0  0  0  0
    9.1392    4.3407   -2.6027 H   0  0  0  0  0  0  0  0  0  0  0  0
  1  2  2  0
  2  3  1  0
  2  4  1  0
  2  5  1  0
  4 22  1  0
  5  6  1  0
  6  7  1  0
  6 22  1  0
  7  8  1  0
  7  9  1  0
  8 11  1  0
  9 10  1  0
 11 12  1  0
 11 22  1  0
 12 13  1  0
 12 21  1  0
 13 14  2  0
 14 15  1  0
 15 16  1  0
 15 21  2  0
 16 17  1  0
 16 18  2  0
 18 19  1  0
 19 20  2  0
 20 21  1  0
  3 23  1  0
  6 24  1  0
  7 25  1  0
  9 26  1  0
  9 27  1  0
 10 28  1  0
 11 29  1  0
 13 30  1  0
 17 31  1  0
 17 32  1  0
 19 33  1  0
 22 34  1  0
A    1
O3P
A    2
P
A    3
O1P
A    4
O2P
A    5
O5'
A    6
C5'
A    7
C4'
A    8
O4'
A    9
C3'
A   10
O3'
A   11
C1'
A   12
N9
A   13
C8
A   14
N7
A   15
C5
A   16
C6
A   17
N6
A   18
N1
A   19
C2
A   20
N3
A   21
C4
A   22
C2'
M  END
