2IWE_2IH_A_1001
     RDKit          3D

 34 35  0  0  0  0  0  0  0  0999 V2000
   -9.0670   -7.5900   -1.6980 C   0  0  0  0  0  0  0  0  0  0  0  0
   -8.2160   -6.5260   -1.5910 C   0  0  0  0  0  0  0  0  0  0  0  0
   -8.2100   -6.1340   -0.3190 N   0  0  0  0  0  0  0  0  0  0  0  0
   -9.0170   -6.9750    0.3530 C   0  0  0  0  0  0  0  0  0  0  0  0
   -9.5640   -7.8400   -0.4910 N   0  0  0  0  0  0  0  0  0  0  0  0
  -10.5190   -8.8950   -0.1450 C   0  0  0  0  0  0  0  0  0  0  0  0
  -11.8030   -8.7990   -0.9820 C   0  0  0  0  0  0  0  0  0  0  0  0
  -12.8870   -9.6260   -0.3230 C   0  0  0  0  0  0  0  0  0  0  0  0
  -13.4310  -10.7300   -1.2210 C   0  0  0  0  0  0  0  0  0  0  0  0
  -14.6270  -11.3580   -0.5100 C   0  0  0  0  0  0  0  0  0  0  0  0
  -15.0080  -12.7330   -1.0680 C   0  0  0  0  0  0  0  0  0  0  0  0
  -15.8910  -13.4570   -0.1290 N   0  0  0  0  0  0  0  0  0  0  0  0
  -16.7850  -14.4140   -0.4550 C   0  0  0  0  0  0  0  0  0  0  0  0
  -15.9460  -13.2810    1.1980 C   0  0  0  0  0  0  0  0  0  0  0  0
  -16.8950  -14.1380    1.7120 C   0  0  0  0  0  0  0  0  0  0  0  0
  -17.3960  -14.8390    0.6780 N   0  0  0  0  0  0  0  0  0  0  0  0
   -9.2996   -8.1422   -2.6205 H   0  0  0  0  0  0  0  0  0  0  0  0
   -7.6384   -6.0738   -2.4107 H   0  0  0  0  0  0  0  0  0  0  0  0
   -9.1961   -6.9492    1.4380 H   0  0  0  0  0  0  0  0  0  0  0  0
  -10.0493   -9.8733   -0.3245 H   0  0  0  0  0  0  0  0  0  0  0  0
  -10.7915   -8.7756    0.9140 H   0  0  0  0  0  0  0  0  0  0  0  0
  -12.1259   -7.7492   -1.0421 H   0  0  0  0  0  0  0  0  0  0  0  0
  -11.6130   -9.1782   -1.9970 H   0  0  0  0  0  0  0  0  0  0  0  0
  -12.4712  -10.0873    0.5849 H   0  0  0  0  0  0  0  0  0  0  0  0
  -13.7229   -8.9477   -0.0970 H   0  0  0  0  0  0  0  0  0  0  0  0
  -13.7482  -10.3065   -2.1854 H   0  0  0  0  0  0  0  0  0  0  0  0
  -12.6564  -11.4867   -1.4144 H   0  0  0  0  0  0  0  0  0  0  0  0
  -14.3806  -11.4696    0.5562 H   0  0  0  0  0  0  0  0  0  0  0  0
  -15.4877  -10.6915   -0.6680 H   0  0  0  0  0  0  0  0  0  0  0  0
  -15.5323  -12.6003   -2.0258 H   0  0  0  0  0  0  0  0  0  0  0  0
  -14.0895  -13.3211   -1.2111 H   0  0  0  0  0  0  0  0  0  0  0  0
  -16.9845  -14.7869   -1.4705 H   0  0  0  0  0  0  0  0  0  0  0  0
  -15.3370  -12.5726    1.7788 H   0  0  0  0  0  0  0  0  0  0  0  0
  -17.1878  -14.2315    2.7682 H   0  0  0  0  0  0  0  0  0  0  0  0
  1  2  2  0
  1  5  1  0
  2  3  1  0
  3  4  2  0
  4  5  1  0
  5  6  1  0
  6  7  1  0
  7  8  1  0
  8  9  1  0
  9 10  1  0
 10 11  1  0
 11 12  1  0
 12 13  1  0
 12 14  1  0
 13 16  2  0
 14 15  2  0
 15 16  1  0
  1 17  1  0
  2 18  1  0
  4 19  1  0
  6 20  1  0
  6 21  1  0
  7 22  1  0
  7 23  1  0
  8 24  1  0
  8 25  1  0
  9 26  1  0
  9 27  1  0
 10 28  1  0
 10 29  1  0
 11 30  1  0
 11 31  1  0
 13 32  1  0
 14 33  1  0
 15 34  1  0
A    1
C1
A    2
C5
A    3
N4
A    4
C3
A    5
N2
A    6
C6
A    7
C7
A    8
C8
A    9
C9
A   10
C10
A   11
C11
A   12
N12
A   13
C16
A   14
C13
A   15
C14
A   16
N15
M  END
