2IWS_NP4_A_1215
     RDKit          3D

 39 40  0  0  0  0  0  0  0  0999 V2000
   18.4650  -34.9290  -60.3030 C   0  0  0  0  0  0  0  0  0  0  0  0
   18.4250  -33.9530  -59.1610 C   0  0  0  0  0  0  0  0  0  0  0  0
   19.7270  -35.1970  -60.9690 O   0  0  0  0  0  0  0  0  0  0  0  0
   17.4640  -32.9540  -59.1340 C   0  0  0  0  0  0  0  0  0  0  0  0
   17.4290  -32.0480  -58.0840 C   0  0  0  0  0  0  0  0  0  0  0  0
   18.3790  -32.1530  -57.0610 C   0  0  0  0  0  0  0  0  0  0  0  0
   19.3380  -33.1400  -57.0890 C   0  0  0  0  0  0  0  0  0  0  0  0
   19.3750  -34.0400  -58.1350 C   0  0  0  0  0  0  0  0  0  0  0  0
   20.4150  -35.1380  -58.1850 C   0  0  0  0  0  0  0  0  0  0  0  0
   21.7050  -34.7130  -58.8540 C   0  0  0  0  0  0  0  0  0  0  0  0
   21.9060  -33.2980  -59.3390 C   0  0  0  0  0  0  0  0  0  0  0  0
   23.0010  -33.2730  -60.4030 C   0  0  0  0  0  0  0  0  0  0  0  0
   22.4170  -33.2520  -61.8100 C   0  0  0  0  0  0  0  0  0  0  0  0
   22.7320  -34.5640  -62.4860 C   0  0  0  0  0  0  0  0  0  0  0  0
   21.7910  -35.2420  -63.1410 C   0  0  0  0  0  0  0  0  0  0  0  0
   20.3800  -34.7180  -63.2330 C   0  0  0  0  0  0  0  0  0  0  0  0
   19.4780  -35.5460  -62.3300 C   0  0  0  0  0  0  0  0  0  0  0  0
   17.4560  -35.5070  -60.6830 O   0  0  0  0  0  0  0  0  0  0  0  0
   16.5410  -32.8560  -60.1320 O   0  0  0  0  0  0  0  0  0  0  0  0
   18.3460  -31.2700  -56.0350 O   0  0  0  0  0  0  0  0  0  0  0  0
   20.4000  -33.2140  -55.8910 Cl  0  0  0  0  0  0  0  0  0  0  0  0
   22.6010  -35.5290  -59.0130 O   0  0  0  0  0  0  0  0  0  0  0  0
   16.6647  -31.2574  -58.0556 H   0  0  0  0  0  0  0  0  0  0  0  0
   20.6425  -35.4502  -57.1551 H   0  0  0  0  0  0  0  0  0  0  0  0
   19.9931  -35.9585  -58.7840 H   0  0  0  0  0  0  0  0  0  0  0  0
   20.9669  -32.9220  -59.7710 H   0  0  0  0  0  0  0  0  0  0  0  0
   22.2031  -32.6603  -58.4934 H   0  0  0  0  0  0  0  0  0  0  0  0
   23.6177  -32.3735  -60.2592 H   0  0  0  0  0  0  0  0  0  0  0  0
   23.6054  -34.1857  -60.2955 H   0  0  0  0  0  0  0  0  0  0  0  0
   21.3268  -33.1162  -61.7559 H   0  0  0  0  0  0  0  0  0  0  0  0
   22.8534  -32.4212  -62.3839 H   0  0  0  0  0  0  0  0  0  0  0  0
   23.7545  -34.9666  -62.4370 H   0  0  0  0  0  0  0  0  0  0  0  0
   22.0468  -36.1978  -63.6217 H   0  0  0  0  0  0  0  0  0  0  0  0
   20.3566  -33.6663  -62.9116 H   0  0  0  0  0  0  0  0  0  0  0  0
   20.0270  -34.7887  -64.2724 H   0  0  0  0  0  0  0  0  0  0  0  0
   19.6890  -36.6151  -62.4800 H   0  0  0  0  0  0  0  0  0  0  0  0
   18.4248  -35.3450  -62.5758 H   0  0  0  0  0  0  0  0  0  0  0  0
   15.5815  -32.7541  -59.9106 H   0  0  0  0  0  0  0  0  0  0  0  0
   18.3582  -31.5964  -55.1004 H   0  0  0  0  0  0  0  0  0  0  0  0
  1  2  1  0
  1  3  1  0
  1 18  2  0
  2  4  2  0
  2  8  1  0
  3 17  1  0
  4  5  1  0
  4 19  1  0
  5  6  2  0
  6  7  1  0
  6 20  1  0
  7  8  2  0
  7 21  1  0
  8  9  1  0
  9 10  1  0
 10 11  1  0
 10 22  2  0
 11 12  1  0
 12 13  1  0
 13 14  1  0
 14 15  2  0
 15 16  1  0
 16 17  1  0
  5 23  1  0
  9 24  1  0
  9 25  1  0
 11 26  1  0
 11 27  1  0
 12 28  1  0
 12 29  1  0
 13 30  1  0
 13 31  1  0
 14 32  1  0
 15 33  1  0
 16 34  1  0
 16 35  1  0
 17 36  1  0
 17 37  1  0
 19 38  1  0
 20 39  1  0
A    1
C1
A    2
C2
A    3
O10
A    4
C3
A    5
C4
A    6
C5
A    7
C6
A    8
C7
A    9
C8
A   10
C9
A   11
C10
A   12
C11
A   13
C12
A   14
C13
A   15
C14
A   16
C15
A   17
C16
A   18
O1
A   19
O3
A   20
O4
A   21
CL1
A   22
O5
M  END
