2IZK_GLL_A_300
     RDKit          3D

 16 17  0  0  0  0  0  0  0  0999 V2000
   13.6870   -0.6260   -8.2510 C   0  0  0  0  0  0  0  0  0  0  0  0
   14.8390   -0.7430   -7.8820 O   0  0  0  0  0  0  0  0  0  0  0  0
   13.2580   -0.3000   -9.4410 N   0  0  0  0  0  0  0  0  0  0  0  0
   12.6950   -0.8300   -7.4330 N   0  0  0  0  0  0  0  0  0  0  0  0
   11.7770   -0.3420   -9.5410 C   0  0  0  0  0  0  0  0  0  0  0  0
   11.3570   -0.6750   -8.1060 C   0  0  0  0  0  0  0  0  0  0  0  0
   11.1710    1.0140   -9.7490 N   0  0  0  0  0  0  0  0  0  0  0  0
   10.4880    0.5080   -7.7770 N   0  0  0  0  0  0  0  0  0  0  0  0
   10.5150    1.4310   -8.7060 C   0  0  0  0  0  0  0  0  0  0  0  0
    9.9760    2.5030   -8.5440 O   0  0  0  0  0  0  0  0  0  0  0  0
   13.8776   -0.0426  -10.2225 H   0  0  0  0  0  0  0  0  0  0  0  0
   12.8121   -1.0702   -6.4383 H   0  0  0  0  0  0  0  0  0  0  0  0
   11.4763   -1.0159  -10.3567 H   0  0  0  0  0  0  0  0  0  0  0  0
   10.7761   -1.5695   -7.8368 H   0  0  0  0  0  0  0  0  0  0  0  0
   11.2639    1.5548  -10.6206 H   0  0  0  0  0  0  0  0  0  0  0  0
    9.9314    0.5841   -6.9137 H   0  0  0  0  0  0  0  0  0  0  0  0
  1  2  2  0
  1  3  1  0
  1  4  1  0
  3  5  1  0
  4  6  1  0
  5  6  1  0
  5  7  1  0
  6  8  1  0
  7  9  1  0
  8  9  1  0
  9 10  2  0
  3 11  1  0
  4 12  1  0
  5 13  1  0
  6 14  1  0
  7 15  1  0
  8 16  1  0
A    1
C1
A    2
O1
A    3
N1
A    4
N2
A    5
C2
A    6
C3
A    7
N1'
A    8
N2'
A    9
C1'
A   10
O1'
M  END
