2J08_IRF_A_1422
     RDKit          3D

 44 46  0  0  0  0  0  0  0  0999 V2000
   45.7630   11.8210   29.7240 N   0  0  0  0  0  0  0  0  0  0  0  0
   46.7480   11.1920   28.9810 C   0  0  0  0  0  0  0  0  0  0  0  0
   47.1410   11.7770   27.9410 O   0  0  0  0  0  0  0  0  0  0  0  0
   47.2780    9.9780   29.3010 N   0  0  0  0  0  0  0  0  0  0  0  0
   46.8460    9.3280   30.3860 C   0  0  0  0  0  0  0  0  0  0  0  0
   47.2980    8.1830   30.6790 O   0  0  0  0  0  0  0  0  0  0  0  0
   45.7950    9.9810   31.2230 C   0  0  0  0  0  0  0  0  0  0  0  0
   45.2560    9.3600   32.2580 N   0  0  0  0  0  0  0  0  0  0  0  0
   44.2920    9.9060   33.0440 C   0  0  0  0  0  0  0  0  0  0  0  0
   43.8270    9.2030   34.1300 C   0  0  0  0  0  0  0  0  0  0  0  0
   42.8700    9.7480   34.9460 C   0  0  0  0  0  0  0  0  0  0  0  0
   42.3330    8.9470   36.1290 C   0  0  0  0  0  0  0  0  0  0  0  0
   42.3940   11.1360   34.6450 C   0  0  0  0  0  0  0  0  0  0  0  0
   42.8850   11.8680   33.5850 C   0  0  0  0  0  0  0  0  0  0  0  0
   43.8590   11.2880   32.8130 C   0  0  0  0  0  0  0  0  0  0  0  0
   44.2940   11.9230   31.6260 N   0  0  0  0  0  0  0  0  0  0  0  0
   45.3280   11.3260   30.8870 C   0  0  0  0  0  0  0  0  0  0  0  0
   44.0080   13.3490   31.5780 C   0  0  0  0  0  0  0  0  0  0  0  0
   45.1620   14.1240   32.1030 C   0  0  0  0  0  0  0  0  0  0  0  0
   44.7960   14.5800   33.4320 O   0  0  0  0  0  0  0  0  0  0  0  0
   45.5010   15.1820   31.0390 C   0  0  0  0  0  0  0  0  0  0  0  0
   46.8590   15.6240   31.0400 O   0  0  0  0  0  0  0  0  0  0  0  0
   44.6910   16.4380   31.1310 C   0  0  0  0  0  0  0  0  0  0  0  0
   43.6460   16.1940   30.1710 O   0  0  0  0  0  0  0  0  0  0  0  0
   45.5540   17.5370   30.5310 C   0  0  0  0  0  0  0  0  0  0  0  0
   40.9610   12.0130   35.9520 I   0  0  0  0  0  0  0  0  0  0  0  0
   45.1540   17.5620   29.1310 O   0  0  0  0  0  0  0  0  0  0  0  0
   48.0102    9.5621   28.7078 H   0  0  0  0  0  0  0  0  0  0  0  0
   44.2242    8.2000   34.3448 H   0  0  0  0  0  0  0  0  0  0  0  0
   42.6516    9.4223   37.0685 H   0  0  0  0  0  0  0  0  0  0  0  0
   41.2342    8.9209   36.0856 H   0  0  0  0  0  0  0  0  0  0  0  0
   42.7262    7.9206   36.0856 H   0  0  0  0  0  0  0  0  0  0  0  0
   42.5099   12.8788   33.3667 H   0  0  0  0  0  0  0  0  0  0  0  0
   43.8153   13.6457   30.5364 H   0  0  0  0  0  0  0  0  0  0  0  0
   43.1243   13.5580   32.1988 H   0  0  0  0  0  0  0  0  0  0  0  0
   46.0988   13.5674   32.2533 H   0  0  0  0  0  0  0  0  0  0  0  0
   45.2476   14.0174   34.1099 H   0  0  0  0  0  0  0  0  0  0  0  0
   45.2702   14.6213   30.1212 H   0  0  0  0  0  0  0  0  0  0  0  0
   47.1722   15.7259   31.9736 H   0  0  0  0  0  0  0  0  0  0  0  0
   44.3460   16.6955   32.1433 H   0  0  0  0  0  0  0  0  0  0  0  0
   42.8005   15.9966   30.6466 H   0  0  0  0  0  0  0  0  0  0  0  0
   45.3508   18.5038   31.0147 H   0  0  0  0  0  0  0  0  0  0  0  0
   46.6306   17.3552   30.6643 H   0  0  0  0  0  0  0  0  0  0  0  0
   44.1678   17.6236   29.0706 H   0  0  0  0  0  0  0  0  0  0  0  0
  1  2  1  0
  1 17  2  0
  2  3  2  0
  2  4  1  0
  4  5  1  0
  5  6  2  0
  5  7  1  0
  7  8  2  0
  7 17  1  0
  8  9  1  0
  9 10  1  0
  9 15  2  0
 10 11  2  0
 11 12  1  0
 11 13  1  0
 13 14  2  0
 13 26  1  0
 14 15  1  0
 15 16  1  0
 16 17  1  0
 16 18  1  0
 18 19  1  0
 19 20  1  0
 19 21  1  0
 21 22  1  0
 21 23  1  0
 23 24  1  0
 23 25  1  0
 25 27  1  0
  4 28  1  0
 10 29  1  0
 12 30  1  0
 12 31  1  0
 12 32  1  0
 14 33  1  0
 18 34  1  0
 18 35  1  0
 19 36  1  0
 20 37  1  0
 21 38  1  0
 22 39  1  0
 23 40  1  0
 24 41  1  0
 25 42  1  0
 25 43  1  0
 27 44  1  0
A    1
N1
A    2
C2
A    3
O2
A    4
N3
A    5
C4
A    6
O4
A    7
C4A
A    8
N5
A    9
C5A
A   10
C6
A   11
C7
A   12
C7M
A   13
C8
A   14
C9
A   15
C9A
A   16
N10
A   17
C10
A   18
C1'
A   19
C2'
A   20
O2'
A   21
C3'
A   22
O3'
A   23
C4'
A   24
O4'
A   25
C5'
A   26
I8
A   27
O5'
M  END
