2J0G_BM3_B_400
     RDKit          3D

 30 30  0  0  0  0  0  0  0  0999 V2000
   71.5660   23.4050   -2.2980 C   0  0  0  0  0  0  0  0  0  0  0  0
   72.3090   24.3870   -3.0470 O   0  0  0  0  0  0  0  0  0  0  0  0
   71.8950   22.9860   -0.9510 C   0  0  0  0  0  0  0  0  0  0  0  0
   71.1110   22.1520   -0.1450 N   0  0  0  0  0  0  0  0  0  0  0  0
   70.4730   22.4830    1.0130 C   0  0  0  0  0  0  0  0  0  0  0  0
   70.9780   22.3980    2.1320 O   0  0  0  0  0  0  0  0  0  0  0  0
   69.0500   22.9250    0.9400 C   0  0  0  0  0  0  0  0  0  0  0  0
   73.3800   22.6850   -1.1080 C   0  0  0  0  0  0  0  0  0  0  0  0
   74.0390   22.1530    0.0750 O   0  0  0  0  0  0  0  0  0  0  0  0
   73.3890   21.5410   -2.2440 C   0  0  0  0  0  0  0  0  0  0  0  0
   74.7020   21.0140   -2.5420 O   0  0  0  0  0  0  0  0  0  0  0  0
   72.5480   21.8340   -3.5500 C   0  0  0  0  0  0  0  0  0  0  0  0
   72.3850   20.4710   -4.2960 C   0  0  0  0  0  0  0  0  0  0  0  0
   73.3270   20.6720   -5.7580 O   0  0  0  0  0  0  0  0  0  0  0  0
   71.1990   22.3100   -3.0930 O   0  0  0  0  0  0  0  0  0  0  0  0
   70.7370   24.0755   -2.0277 H   0  0  0  0  0  0  0  0  0  0  0  0
   72.7718   24.9986   -2.4210 H   0  0  0  0  0  0  0  0  0  0  0  0
   71.6025   23.7714   -0.2386 H   0  0  0  0  0  0  0  0  0  0  0  0
   71.0043   21.1782   -0.4631 H   0  0  0  0  0  0  0  0  0  0  0  0
   68.6518   23.0487    1.9579 H   0  0  0  0  0  0  0  0  0  0  0  0
   68.9909   23.8838    0.4041 H   0  0  0  0  0  0  0  0  0  0  0  0
   68.4581   22.1684    0.4041 H   0  0  0  0  0  0  0  0  0  0  0  0
   73.9261   23.6133   -1.3318 H   0  0  0  0  0  0  0  0  0  0  0  0
   73.5979   22.5091    0.8867 H   0  0  0  0  0  0  0  0  0  0  0  0
   72.8271   20.7365   -1.7470 H   0  0  0  0  0  0  0  0  0  0  0  0
   75.1802   20.8221   -1.6967 H   0  0  0  0  0  0  0  0  0  0  0  0
   73.0212   22.5789   -4.2066 H   0  0  0  0  0  0  0  0  0  0  0  0
   72.7788   19.6431   -3.6880 H   0  0  0  0  0  0  0  0  0  0  0  0
   71.3329   20.2242   -4.5012 H   0  0  0  0  0  0  0  0  0  0  0  0
   74.2668   20.8725   -5.5201 H   0  0  0  0  0  0  0  0  0  0  0  0
  1  2  1  0
  1  3  1  0
  1 15  1  0
  3  4  1  0
  3  8  1  0
  4  5  1  0
  5  6  2  0
  5  7  1  0
  8  9  1  0
  8 10  1  0
 10 11  1  0
 10 12  1  0
 12 13  1  0
 12 15  1  0
 13 14  1  0
  1 16  1  0
  2 17  1  0
  3 18  1  0
  4 19  1  0
  7 20  1  0
  7 21  1  0
  7 22  1  0
  8 23  1  0
  9 24  1  0
 10 25  1  0
 11 26  1  0
 12 27  1  0
 13 28  1  0
 13 29  1  0
 14 30  1  0
A    1
C1
A    2
O1
A    3
C2
A    4
N2
A    5
C7
A    6
O7
A    7
C8
A    8
C3
A    9
O3
A   10
C4
A   11
O4
A   12
C5
A   13
C6
A   14
O6
A   15
O5
M  END
