2J47_GDV_A_1590
     RDKit          3D

 47 49  0  0  0  0  0  0  0  0999 V2000
    3.0100   -6.4480   34.3000 O   0  0  0  0  0  0  0  0  0  0  0  0
    3.2140   -7.6070   34.6270 C   0  0  0  0  0  0  0  0  0  0  0  0
    4.0590   -7.9390   35.8400 C   0  0  0  0  0  0  0  0  0  0  0  0
    2.7230   -8.7070   34.0160 N   0  0  0  0  0  0  0  0  0  0  0  0
    1.8830   -8.6750   32.8270 C   0  0  0  0  0  0  0  0  0  0  0  0
    2.7340   -8.3220   31.5950 C   0  0  0  0  0  0  0  0  0  0  0  0
    3.1570   -9.5410   30.9620 O   0  0  0  0  0  0  0  0  0  0  0  0
    1.9610   -7.3370   30.6650 C   0  0  0  0  0  0  0  0  0  0  0  0
    2.7910   -7.0590   29.5500 O   0  0  0  0  0  0  0  0  0  0  0  0
    1.6360   -6.0050   31.4510 C   0  0  0  0  0  0  0  0  0  0  0  0
    1.0760   -4.9320   30.4980 C   0  0  0  0  0  0  0  0  0  0  0  0
   -0.0400   -5.3970   29.7370 O   0  0  0  0  0  0  0  0  0  0  0  0
    0.6770   -7.7480   32.9170 C   0  0  0  0  0  0  0  0  0  0  0  0
    0.6290   -6.5290   32.3460 N   0  0  0  0  0  0  0  0  0  0  0  0
   -0.6280   -6.0480   32.6320 C   0  0  0  0  0  0  0  0  0  0  0  0
   -1.2640   -6.9870   33.4310 C   0  0  0  0  0  0  0  0  0  0  0  0
   -0.4310   -8.0320   33.6020 N   0  0  0  0  0  0  0  0  0  0  0  0
   -2.5440   -6.9170   33.9830 C   0  0  0  0  0  0  0  0  0  0  0  0
   -3.2380   -5.9440   33.7790 O   0  0  0  0  0  0  0  0  0  0  0  0
   -2.9620   -8.0020   34.6850 N   0  0  0  0  0  0  0  0  0  0  0  0
   -4.2070   -8.1070   35.3040 C   0  0  0  0  0  0  0  0  0  0  0  0
   -4.9020   -9.3190   35.4250 C   0  0  0  0  0  0  0  0  0  0  0  0
   -6.1220   -9.4030   36.1220 C   0  0  0  0  0  0  0  0  0  0  0  0
   -6.6610   -8.2640   36.7180 C   0  0  0  0  0  0  0  0  0  0  0  0
   -5.9870   -7.0530   36.6100 C   0  0  0  0  0  0  0  0  0  0  0  0
   -4.7570   -6.9750   35.9210 C   0  0  0  0  0  0  0  0  0  0  0  0
    3.4907   -7.7157   36.7550 H   0  0  0  0  0  0  0  0  0  0  0  0
    4.3214   -9.0071   35.8228 H   0  0  0  0  0  0  0  0  0  0  0  0
    4.9783   -7.3352   35.8228 H   0  0  0  0  0  0  0  0  0  0  0  0
    2.9576   -9.6265   34.4164 H   0  0  0  0  0  0  0  0  0  0  0  0
    1.4629   -9.6874   32.7342 H   0  0  0  0  0  0  0  0  0  0  0  0
    3.6483   -7.7814   31.8808 H   0  0  0  0  0  0  0  0  0  0  0  0
    3.3889  -10.2093   31.6546 H   0  0  0  0  0  0  0  0  0  0  0  0
    1.0106   -7.7793   30.3317 H   0  0  0  0  0  0  0  0  0  0  0  0
    3.6804   -6.7611   29.8668 H   0  0  0  0  0  0  0  0  0  0  0  0
    2.4815   -5.5016   31.9426 H   0  0  0  0  0  0  0  0  0  0  0  0
    0.7580   -4.0638   31.0939 H   0  0  0  0  0  0  0  0  0  0  0  0
    1.8746   -4.6690   29.7887 H   0  0  0  0  0  0  0  0  0  0  0  0
   -0.7568   -5.6957   30.3511 H   0  0  0  0  0  0  0  0  0  0  0  0
   -1.0517   -5.0925   32.2893 H   0  0  0  0  0  0  0  0  0  0  0  0
   -0.6141   -8.8826   34.1532 H   0  0  0  0  0  0  0  0  0  0  0  0
   -2.3163   -8.8004   34.7655 H   0  0  0  0  0  0  0  0  0  0  0  0
   -4.4836  -10.2259   34.9641 H   0  0  0  0  0  0  0  0  0  0  0  0
   -6.6491  -10.3656   36.1962 H   0  0  0  0  0  0  0  0  0  0  0  0
   -7.6113   -8.3229   37.2689 H   0  0  0  0  0  0  0  0  0  0  0  0
   -6.4155   -6.1479   37.0651 H   0  0  0  0  0  0  0  0  0  0  0  0
   -4.2240   -6.0142   35.8678 H   0  0  0  0  0  0  0  0  0  0  0  0
  1  2  2  0
  2  3  1  0
  2  4  1  0
  4  5  1  0
  5  6  1  0
  5 13  1  0
  6  7  1  0
  6  8  1  0
  8  9  1  0
  8 10  1  0
 10 11  1  0
 10 14  1  0
 11 12  1  0
 13 14  2  0
 13 17  1  0
 14 15  1  0
 15 16  2  0
 16 17  1  0
 16 18  1  0
 18 19  2  0
 18 20  1  0
 20 21  1  0
 21 22  2  0
 21 26  1  0
 22 23  1  0
 23 24  2  0
 24 25  1  0
 25 26  2  0
  3 27  1  0
  3 28  1  0
  3 29  1  0
  4 30  1  0
  5 31  1  0
  6 32  1  0
  7 33  1  0
  8 34  1  0
  9 35  1  0
 10 36  1  0
 11 37  1  0
 11 38  1  0
 12 39  1  0
 15 40  1  0
 17 41  1  0
 20 42  1  0
 22 43  1  0
 23 44  1  0
 24 45  1  0
 25 46  1  0
 26 47  1  0
M  CHG  1  14   1
A    1
O1
A    2
C10
A    3
C12
A    4
N4
A    5
C2
A    6
C3
A    7
O3
A    8
C4
A    9
O4
A   10
C5
A   11
C6
A   12
O5
A   13
C1
A   14
N1
A   15
C7
A   16
C8
A   17
N2
A   18
C9
A   19
O2
A   20
N3
A   21
C11
A   22
C17
A   23
C16
A   24
C15
A   25
C14
A   26
C13
M  END
