2J4G_NB1_A_1590
     RDKit          3D

 33 34  0  0  0  0  0  0  0  0999 V2000
    1.2970   -6.2080   33.6630 C   0  0  0  0  0  0  0  0  0  0  0  0
    1.8600   -7.5520   33.1280 C   0  0  0  0  0  0  0  0  0  0  0  0
    2.7330   -7.3380   31.8630 C   0  0  0  0  0  0  0  0  0  0  0  0
    2.0920   -6.3480   30.8720 C   0  0  0  0  0  0  0  0  0  0  0  0
    1.7590   -5.0090   31.5850 C   0  0  0  0  0  0  0  0  0  0  0  0
    1.0410   -3.9750   30.6770 C   0  0  0  0  0  0  0  0  0  0  0  0
    3.3530   -7.2160   35.0740 C   0  0  0  0  0  0  0  0  0  0  0  0
    4.4070   -7.5420   36.1190 C   0  0  0  0  0  0  0  0  0  0  0  0
    5.8910   -6.5100   37.9350 C   0  0  0  0  0  0  0  0  0  0  0  0
    2.7290   -8.0480   34.2350 N   0  0  0  0  0  0  0  0  0  0  0  0
    3.0930   -8.5780   31.2660 O   0  0  0  0  0  0  0  0  0  0  0  0
    3.0670   -6.1740   29.8600 O   0  0  0  0  0  0  0  0  0  0  0  0
    0.8890   -5.2840   32.6810 O   0  0  0  0  0  0  0  0  0  0  0  0
   -0.1480   -4.5550   30.1570 O   0  0  0  0  0  0  0  0  0  0  0  0
    2.6050   -5.7290   34.7420 S   0  0  0  0  0  0  0  0  0  0  0  0
    4.7710   -6.2720   36.9150 C   0  0  0  0  0  0  0  0  0  0  0  0
    0.3259   -6.2818   34.1743 H   0  0  0  0  0  0  0  0  0  0  0  0
    1.0528   -8.2448   32.8480 H   0  0  0  0  0  0  0  0  0  0  0  0
    3.6720   -6.8632   32.1837 H   0  0  0  0  0  0  0  0  0  0  0  0
    1.1409   -6.7138   30.4578 H   0  0  0  0  0  0  0  0  0  0  0  0
    2.7207   -4.5733   31.8938 H   0  0  0  0  0  0  0  0  0  0  0  0
    0.7872   -3.0816   31.2664 H   0  0  0  0  0  0  0  0  0  0  0  0
    1.7047   -3.6874   29.8483 H   0  0  0  0  0  0  0  0  0  0  0  0
    4.0133   -8.3036   36.8082 H   0  0  0  0  0  0  0  0  0  0  0  0
    5.3079   -7.9238   35.6164 H   0  0  0  0  0  0  0  0  0  0  0  0
    5.4840   -6.4235   38.9533 H   0  0  0  0  0  0  0  0  0  0  0  0
    6.3095   -7.5171   37.7917 H   0  0  0  0  0  0  0  0  0  0  0  0
    6.6829   -5.7601   37.7917 H   0  0  0  0  0  0  0  0  0  0  0  0
    3.2857   -9.2418   31.9747 H   0  0  0  0  0  0  0  0  0  0  0  0
    3.9509   -6.0163   30.2770 H   0  0  0  0  0  0  0  0  0  0  0  0
   -0.7309   -4.8394   30.9050 H   0  0  0  0  0  0  0  0  0  0  0  0
    5.0990   -5.4960   36.2077 H   0  0  0  0  0  0  0  0  0  0  0  0
    3.8750   -5.9632   37.4734 H   0  0  0  0  0  0  0  0  0  0  0  0
  1  2  1  0
  1 13  1  0
  1 15  1  0
  2  3  1  0
  2 10  1  0
  3  4  1  0
  3 11  1  0
  4  5  1  0
  4 12  1  0
  5  6  1  0
  5 13  1  0
  6 14  1  0
  7  8  1  0
  7 10  2  0
  7 15  1  0
  8 16  1  0
  9 16  1  0
  1 17  1  0
  2 18  1  0
  3 19  1  0
  4 20  1  0
  5 21  1  0
  6 22  1  0
  6 23  1  0
  8 24  1  0
  8 25  1  0
  9 26  1  0
  9 27  1  0
  9 28  1  0
 11 29  1  0
 12 30  1  0
 14 31  1  0
 16 32  1  0
 16 33  1  0
A    1
C1
A    2
C2
A    3
C3
A    4
C4
A    5
C5
A    6
C6
A    7
C7
A    8
C8
A    9
CM
A   10
N2
A   11
O3
A   12
O4
A   13
O5
A   14
O6
A   15
S1
A   16
C9
M  END
