2CHL_DKI_A_1323
     RDKit          3D

 41 43  0  0  0  0  0  0  0  0999 V2000
    6.6750   34.9900   22.9910 F   0  0  0  0  0  0  0  0  0  0  0  0
    7.8690   34.7960   22.3830 C   0  0  0  0  0  0  0  0  0  0  0  0
    8.0700   35.1610   21.0490 C   0  0  0  0  0  0  0  0  0  0  0  0
    9.3290   34.9960   20.4670 C   0  0  0  0  0  0  0  0  0  0  0  0
   10.3840   34.4380   21.1970 C   0  0  0  0  0  0  0  0  0  0  0  0
   10.1700   34.0680   22.5310 C   0  0  0  0  0  0  0  0  0  0  0  0
   11.2170   33.5670   23.2080 F   0  0  0  0  0  0  0  0  0  0  0  0
    8.9070   34.2490   23.1310 C   0  0  0  0  0  0  0  0  0  0  0  0
    8.5810   33.8940   24.3980 N   0  0  0  0  0  0  0  0  0  0  0  0
    8.9720   34.5010   25.5050 C   0  0  0  0  0  0  0  0  0  0  0  0
    9.9800   35.8750   25.4340 S   0  0  0  0  0  0  0  0  0  0  0  0
    8.5350   34.0420   26.7010 N   0  0  0  0  0  0  0  0  0  0  0  0
    7.9710   32.9550   26.8040 N   0  0  0  0  0  0  0  0  0  0  0  0
    8.5440   34.6740   27.9030 C   0  0  0  0  0  0  0  0  0  0  0  0
    9.0360   35.8750   28.2820 N   0  0  0  0  0  0  0  0  0  0  0  0
    7.9570   33.8900   28.7770 N   0  0  0  0  0  0  0  0  0  0  0  0
    7.6120   32.8240   28.0840 C   0  0  0  0  0  0  0  0  0  0  0  0
    6.9650   31.8410   28.6520 N   0  0  0  0  0  0  0  0  0  0  0  0
    6.8120   30.5990   28.1930 C   0  0  0  0  0  0  0  0  0  0  0  0
    7.6270   30.0340   27.2380 C   0  0  0  0  0  0  0  0  0  0  0  0
    7.4120   28.7060   26.8750 C   0  0  0  0  0  0  0  0  0  0  0  0
    5.7860   29.8560   28.7810 C   0  0  0  0  0  0  0  0  0  0  0  0
    5.5600   28.5470   28.4190 C   0  0  0  0  0  0  0  0  0  0  0  0
    6.3740   27.9750   27.4510 C   0  0  0  0  0  0  0  0  0  0  0  0
    6.1630   26.2860   26.9680 S   0  0  0  0  0  0  0  0  0  0  0  0
    5.3880   25.5820   28.0460 O   0  0  0  0  0  0  0  0  0  0  0  0
    5.5020   26.2040   25.6130 O   0  0  0  0  0  0  0  0  0  0  0  0
    7.7420   25.6540   26.9750 N   0  0  0  0  0  0  0  0  0  0  0  0
    7.2396   35.5768   20.4594 H   0  0  0  0  0  0  0  0  0  0  0  0
    9.4925   35.3077   19.4248 H   0  0  0  0  0  0  0  0  0  0  0  0
   11.3689   34.2917   20.7294 H   0  0  0  0  0  0  0  0  0  0  0  0
    7.9699   33.0723   24.5086 H   0  0  0  0  0  0  0  0  0  0  0  0
    9.1286   36.1011   29.2826 H   0  0  0  0  0  0  0  0  0  0  0  0
    9.3182   36.5638   27.5701 H   0  0  0  0  0  0  0  0  0  0  0  0
    6.5225   32.0499   29.5583 H   0  0  0  0  0  0  0  0  0  0  0  0
    8.4323   30.6196   26.7706 H   0  0  0  0  0  0  0  0  0  0  0  0
    8.0659   28.2311   26.1287 H   0  0  0  0  0  0  0  0  0  0  0  0
    5.1484   30.3240   29.5454 H   0  0  0  0  0  0  0  0  0  0  0  0
    4.7513   27.9666   28.8871 H   0  0  0  0  0  0  0  0  0  0  0  0
    8.0570   25.5279   27.9475 H   0  0  0  0  0  0  0  0  0  0  0  0
    7.7501   24.7449   26.4909 H   0  0  0  0  0  0  0  0  0  0  0  0
  1  2  1  0
  2  3  2  0
  2  8  1  0
  3  4  1  0
  4  5  2  0
  5  6  1  0
  6  7  1  0
  6  8  2  0
  8  9  1  0
  9 10  1  0
 10 11  2  0
 10 12  1  0
 12 13  1  0
 12 14  1  0
 13 17  2  0
 14 15  1  0
 14 16  2  0
 16 17  1  0
 17 18  1  0
 18 19  1  0
 19 20  2  0
 19 22  1  0
 20 21  1  0
 21 24  2  0
 22 23  2  0
 23 24  1  0
 24 25  1  0
 25 26  2  0
 25 27  2  0
 25 28  1  0
  3 29  1  0
  4 30  1  0
  5 31  1  0
  9 32  1  0
 15 33  1  0
 15 34  1  0
 18 35  1  0
 20 36  1  0
 21 37  1  0
 22 38  1  0
 23 39  1  0
 28 40  1  0
 28 41  1  0
A    1
FAF
A    2
CAU
A    3
CAI
A    4
CAH
A    5
CAJ
A    6
CAV
A    7
FAG
A    8
CAZ
A    9
NAQ
A   10
CAS
A   11
SAE
A   12
NBA
A   13
NAP
A   14
CAT
A   15
NAA
A   16
NAO
A   17
CAX
A   18
NAR
A   19
CAW
A   20
CAL
A   21
CAN
A   22
CAK
A   23
CAM
A   24
CAY
A   25
SBB
A   26
OAC
A   27
OAD
A   28
NAB
M  END
