2J62_GSZ_A_1626
     RDKit          3D

 55 57  0  0  0  0  0  0  0  0999 V2000
   37.1090   40.4740   22.5240 C   0  0  0  0  0  0  0  0  0  0  0  0
   36.5190   41.7320   21.8600 C   0  0  0  0  0  0  0  0  0  0  0  0
   37.0330   42.9790   22.5650 C   0  0  0  0  0  0  0  0  0  0  0  0
   34.9720   41.7350   21.8580 C   0  0  0  0  0  0  0  0  0  0  0  0
   34.3250   40.7810   22.3200 O   0  0  0  0  0  0  0  0  0  0  0  0
   34.4150   42.8330   21.3140 N   0  0  0  0  0  0  0  0  0  0  0  0
   32.9330   43.0140   21.2010 C   0  0  0  0  0  0  0  0  0  0  0  0
   32.2780   43.1860   22.5720 C   0  0  0  0  0  0  0  0  0  0  0  0
   32.2910   44.5600   22.8210 O   0  0  0  0  0  0  0  0  0  0  0  0
   30.8330   42.6510   22.6560 C   0  0  0  0  0  0  0  0  0  0  0  0
   30.3000   42.8810   23.9690 O   0  0  0  0  0  0  0  0  0  0  0  0
   30.8690   41.1540   22.3300 C   0  0  0  0  0  0  0  0  0  0  0  0
   29.5680   40.3700   22.6510 C   0  0  0  0  0  0  0  0  0  0  0  0
   28.5320   40.8310   21.8280 O   0  0  0  0  0  0  0  0  0  0  0  0
   31.2900   41.0200   20.9070 N   0  0  0  0  0  0  0  0  0  0  0  0
   30.9460   40.1880   19.9240 C   0  0  0  0  0  0  0  0  0  0  0  0
   32.2770   41.8850   20.3670 C   0  0  0  0  0  0  0  0  0  0  0  0
   32.4450   41.5340   19.0930 N   0  0  0  0  0  0  0  0  0  0  0  0
   31.6290   40.5070   18.8130 C   0  0  0  0  0  0  0  0  0  0  0  0
   31.5430   39.7580   17.4630 C   0  0  0  0  0  0  0  0  0  0  0  0
   31.3720   40.7370   16.3070 C   0  0  0  0  0  0  0  0  0  0  0  0
   29.9540   41.3460   16.2500 C   0  0  0  0  0  0  0  0  0  0  0  0
   28.8900   40.6290   15.6690 C   0  0  0  0  0  0  0  0  0  0  0  0
   27.6060   41.1840   15.5930 C   0  0  0  0  0  0  0  0  0  0  0  0
   27.4000   42.4620   16.1150 C   0  0  0  0  0  0  0  0  0  0  0  0
   28.4610   43.1830   16.6960 C   0  0  0  0  0  0  0  0  0  0  0  0
   29.7370   42.6290   16.7710 C   0  0  0  0  0  0  0  0  0  0  0  0
   37.0596   40.5793   23.6178 H   0  0  0  0  0  0  0  0  0  0  0  0
   36.5313   39.5907   22.2142 H   0  0  0  0  0  0  0  0  0  0  0  0
   38.1576   40.3534   22.2142 H   0  0  0  0  0  0  0  0  0  0  0  0
   36.8472   41.7268   20.8101 H   0  0  0  0  0  0  0  0  0  0  0  0
   36.9738   42.8353   23.6540 H   0  0  0  0  0  0  0  0  0  0  0  0
   38.0787   43.1592   22.2753 H   0  0  0  0  0  0  0  0  0  0  0  0
   36.4180   43.8438   22.2753 H   0  0  0  0  0  0  0  0  0  0  0  0
   35.0326   43.5781   20.9615 H   0  0  0  0  0  0  0  0  0  0  0  0
   32.7577   43.9499   20.6502 H   0  0  0  0  0  0  0  0  0  0  0  0
   32.8365   42.5983   23.3154 H   0  0  0  0  0  0  0  0  0  0  0  0
   32.2925   44.7183   23.7983 H   0  0  0  0  0  0  0  0  0  0  0  0
   30.1811   43.1714   21.9390 H   0  0  0  0  0  0  0  0  0  0  0  0
   30.9613   42.5956   24.6482 H   0  0  0  0  0  0  0  0  0  0  0  0
   31.5958   40.6746   23.0023 H   0  0  0  0  0  0  0  0  0  0  0  0
   29.7315   39.2975   22.4693 H   0  0  0  0  0  0  0  0  0  0  0  0
   29.2962   40.5250   23.7056 H   0  0  0  0  0  0  0  0  0  0  0  0
   27.7871   41.1625   22.3896 H   0  0  0  0  0  0  0  0  0  0  0  0
   30.2170   39.3687   20.0096 H   0  0  0  0  0  0  0  0  0  0  0  0
   33.0960   41.9791   18.4304 H   0  0  0  0  0  0  0  0  0  0  0  0
   32.4670   39.1806   17.3121 H   0  0  0  0  0  0  0  0  0  0  0  0
   30.6708   39.0882   17.4879 H   0  0  0  0  0  0  0  0  0  0  0  0
   32.1011   41.5522   16.4248 H   0  0  0  0  0  0  0  0  0  0  0  0
   31.5336   40.1804   15.3721 H   0  0  0  0  0  0  0  0  0  0  0  0
   29.0696   39.6199   15.2696 H   0  0  0  0  0  0  0  0  0  0  0  0
   26.7783   40.6249   15.1321 H   0  0  0  0  0  0  0  0  0  0  0  0
   26.3969   42.9114   16.0720 H   0  0  0  0  0  0  0  0  0  0  0  0
   28.2807   44.1925   17.0941 H   0  0  0  0  0  0  0  0  0  0  0  0
   30.5626   43.1905   17.2326 H   0  0  0  0  0  0  0  0  0  0  0  0
  1  2  1  0
  2  3  1  0
  2  4  1  0
  4  5  2  0
  4  6  1  0
  6  7  1  0
  7  8  1  0
  7 17  1  0
  8  9  1  0
  8 10  1  0
 10 11  1  0
 10 12  1  0
 12 13  1  0
 12 15  1  0
 13 14  1  0
 15 16  1  0
 15 17  2  0
 16 19  2  0
 17 18  1  0
 18 19  1  0
 19 20  1  0
 20 21  1  0
 21 22  1  0
 22 23  2  0
 22 27  1  0
 23 24  1  0
 24 25  2  0
 25 26  1  0
 26 27  2  0
  1 28  1  0
  1 29  1  0
  1 30  1  0
  2 31  1  0
  3 32  1  0
  3 33  1  0
  3 34  1  0
  6 35  1  0
  7 36  1  0
  8 37  1  0
  9 38  1  0
 10 39  1  0
 11 40  1  0
 12 41  1  0
 13 42  1  0
 13 43  1  0
 14 44  1  0
 16 45  1  0
 18 46  1  0
 20 47  1  0
 20 48  1  0
 21 49  1  0
 21 50  1  0
 23 51  1  0
 24 52  1  0
 25 53  1  0
 26 54  1  0
 27 55  1  0
M  CHG  1  15   1
A    1
CAZ
A    2
CAN
A    3
CBA
A    4
CAL
A    5
OAM
A    6
NAK
A    7
CAC
A    8
CAB
A    9
OAG
A   10
CAA
A   11
OAH
A   12
CAF
A   13
CAI
A   14
OAJ
A   15
NAE
A   16
CAQ
A   17
CAD
A   18
NAO
A   19
CAP
A   20
CAR
A   21
CAS
A   22
CAT
A   23
CAU
A   24
CAV
A   25
CAW
A   26
CAX
A   27
CAY
M  END
