2J75_NOY_A_1446
     RDKit          3D

 24 24  0  0  0  0  0  0  0  0999 V2000
   -1.6710   10.6170    6.8920 O   0  0  0  0  0  0  0  0  0  0  0  0
   -1.1700   10.4880    8.2180 C   0  0  0  0  0  0  0  0  0  0  0  0
   -0.4290   11.7620    8.6050 C   0  0  0  0  0  0  0  0  0  0  0  0
    0.6620   12.0020    7.7220 O   0  0  0  0  0  0  0  0  0  0  0  0
    0.1360   11.6520   10.0140 C   0  0  0  0  0  0  0  0  0  0  0  0
   -0.8990   11.2140   10.9700 N   0  0  0  0  0  0  0  0  0  0  0  0
   -1.7170   10.0580   10.6180 C   0  0  0  0  0  0  0  0  0  0  0  0
   -2.3230   10.2650    9.2230 C   0  0  0  0  0  0  0  0  0  0  0  0
   -3.2310    9.1000    8.8570 C   0  0  0  0  0  0  0  0  0  0  0  0
    0.5860   12.9450   10.3860 O   0  0  0  0  0  0  0  0  0  0  0  0
   -2.5760    7.8160    8.9700 O   0  0  0  0  0  0  0  0  0  0  0  0
   -2.6292   10.8637    6.9238 H   0  0  0  0  0  0  0  0  0  0  0  0
   -0.4928    9.6217    8.2484 H   0  0  0  0  0  0  0  0  0  0  0  0
   -1.1548   12.5866    8.5474 H   0  0  0  0  0  0  0  0  0  0  0  0
    1.4801   12.1820    8.2496 H   0  0  0  0  0  0  0  0  0  0  0  0
    0.9498   10.9121   10.0308 H   0  0  0  0  0  0  0  0  0  0  0  0
   -0.4226   10.9927   11.8560 H   0  0  0  0  0  0  0  0  0  0  0  0
   -1.0913    9.1533   10.6153 H   0  0  0  0  0  0  0  0  0  0  0  0
   -2.5252    9.9429   11.3552 H   0  0  0  0  0  0  0  0  0  0  0  0
   -2.9653   11.1577    9.2016 H   0  0  0  0  0  0  0  0  0  0  0  0
   -4.1017    9.1097    9.5291 H   0  0  0  0  0  0  0  0  0  0  0  0
   -3.5233    9.2287    7.8044 H   0  0  0  0  0  0  0  0  0  0  0  0
    0.6102   13.0146   11.3733 H   0  0  0  0  0  0  0  0  0  0  0  0
   -2.4597    7.5879    9.9263 H   0  0  0  0  0  0  0  0  0  0  0  0
  1  2  1  0
  2  8  1  0
  2  3  1  0
  3  5  1  0
  3  4  1  0
  5  6  1  0
  5 10  1  0
  6  7  1  0
  7  8  1  0
  8  9  1  0
  9 11  1  0
  1 12  1  0
  2 13  1  0
  3 14  1  0
  4 15  1  0
  5 16  1  0
  6 17  1  0
  7 18  1  0
  7 19  1  0
  8 20  1  0
  9 21  1  0
  9 22  1  0
 10 23  1  0
 11 24  1  0
A    1
O4
A    2
C4
A    3
C3
A    4
O3
A    5
C2
A    6
N
A    7
C7
A    8
C5
A    9
C6
A   10
O2
A   11
O6
M  END
