1E6Q_NTZ_M_999
     RDKit          3D

 24 25  0  0  0  0  0  0  0  0999 V2000
   47.2990  119.6880   52.4890 C   0  0  0  0  0  0  0  0  0  0  0  0
   47.9890  119.0190   53.7220 C   0  0  0  0  0  0  0  0  0  0  0  0
   48.3800  120.1170   54.6950 C   0  0  0  0  0  0  0  0  0  0  0  0
   48.7990  121.3860   53.8640 C   0  0  0  0  0  0  0  0  0  0  0  0
   47.4990  122.0130   53.2580 C   0  0  0  0  0  0  0  0  0  0  0  0
   47.5630  123.3470   52.5210 C   0  0  0  0  0  0  0  0  0  0  0  0
   47.0410  121.0280   52.3800 N   0  0  0  0  0  0  0  0  0  0  0  0
   46.4490  121.2260   51.1460 N   0  0  0  0  0  0  0  0  0  0  0  0
   46.3030  119.9280   50.5630 N   0  0  0  0  0  0  0  0  0  0  0  0
   46.8560  119.1080   51.3610 N   0  0  0  0  0  0  0  0  0  0  0  0
   47.2650  117.9570   54.4010 O   0  0  0  0  0  0  0  0  0  0  0  0
   49.4810  119.5720   55.4220 O   0  0  0  0  0  0  0  0  0  0  0  0
   49.3720  122.3640   54.7470 O   0  0  0  0  0  0  0  0  0  0  0  0
   48.4570  123.1810   51.3730 O   0  0  0  0  0  0  0  0  0  0  0  0
   48.8588  118.4826   53.3148 H   0  0  0  0  0  0  0  0  0  0  0  0
   47.5738  120.4256   55.3768 H   0  0  0  0  0  0  0  0  0  0  0  0
   49.5201  121.1020   53.0834 H   0  0  0  0  0  0  0  0  0  0  0  0
   46.8587  122.2849   54.1101 H   0  0  0  0  0  0  0  0  0  0  0  0
   46.5585  123.6321   52.1750 H   0  0  0  0  0  0  0  0  0  0  0  0
   47.9369  124.1375   53.1884 H   0  0  0  0  0  0  0  0  0  0  0  0
   47.3462  118.0761   55.3804 H   0  0  0  0  0  0  0  0  0  0  0  0
   49.3095  119.6569   56.3933 H   0  0  0  0  0  0  0  0  0  0  0  0
   49.2136  122.0937   55.6861 H   0  0  0  0  0  0  0  0  0  0  0  0
   49.3778  123.0100   51.6938 H   0  0  0  0  0  0  0  0  0  0  0  0
  1  2  1  0
  1  7  1  0
  1 10  2  0
  2  3  1  0
  2 11  1  0
  3  4  1  0
  3 12  1  0
  4  5  1  0
  4 13  1  0
  5  6  1  0
  5  7  1  0
  6 14  1  0
  7  8  1  0
  8  9  2  0
  9 10  1  0
  2 15  1  0
  3 16  1  0
  4 17  1  0
  5 18  1  0
  6 19  1  0
  6 20  1  0
 11 21  1  0
 12 22  1  0
 13 23  1  0
 14 24  1  0
A    1
C1
A    2
C2
A    3
C3
A    4
C4
A    5
C5
A    6
C6
A    7
N1
A    8
N17
A    9
N18
A   10
N21
A   11
O2
A   12
O3
A   13
O4
A   14
O6
M  END
