2J7E_GI2_A_1446
     RDKit          3D

 36 37  0  0  0  0  0  0  0  0999 V2000
   -1.6080    8.8230   13.6050 C   0  0  0  0  0  0  0  0  0  0  0  0
   -0.5400    7.7680   13.7940 C   0  0  0  0  0  0  0  0  0  0  0  0
    0.4590    6.0810   15.1020 C   0  0  0  0  0  0  0  0  0  0  0  0
   -0.6490   10.6230   10.5800 C   0  0  0  0  0  0  0  0  0  0  0  0
    0.2760   11.4620    9.6810 C   0  0  0  0  0  0  0  0  0  0  0  0
   -0.3370   11.7040    8.3010 C   0  0  0  0  0  0  0  0  0  0  0  0
   -1.2340   10.5090    7.8680 C   0  0  0  0  0  0  0  0  0  0  0  0
   -2.4210   10.3920    8.8390 C   0  0  0  0  0  0  0  0  0  0  0  0
   -3.4050    9.3070    8.4490 C   0  0  0  0  0  0  0  0  0  0  0  0
    0.5560   12.7200   10.2880 O   0  0  0  0  0  0  0  0  0  0  0  0
    0.7340   11.9810    7.4100 O   0  0  0  0  0  0  0  0  0  0  0  0
   -1.7040   10.6370    6.5310 O   0  0  0  0  0  0  0  0  0  0  0  0
   -1.8940   10.1120   10.1860 N   0  0  0  0  0  0  0  0  0  0  0  0
   -2.8380    8.0000    8.5580 O   0  0  0  0  0  0  0  0  0  0  0  0
   -0.4590   10.1820   11.8220 N   0  0  0  0  0  0  0  0  0  0  0  0
   -1.4940    9.4490   12.2250 C   0  0  0  0  0  0  0  0  0  0  0  0
   -2.3720    9.3950   11.2170 C   0  0  0  0  0  0  0  0  0  0  0  0
   -0.2830    7.3260   15.0490 O   0  0  0  0  0  0  0  0  0  0  0  0
    0.0810    7.3100   12.8320 O   0  0  0  0  0  0  0  0  0  0  0  0
   -2.5994    8.3586   13.7118 H   0  0  0  0  0  0  0  0  0  0  0  0
   -1.4746    9.6068   14.3651 H   0  0  0  0  0  0  0  0  0  0  0  0
    0.6272    5.7988   16.1518 H   0  0  0  0  0  0  0  0  0  0  0  0
   -0.1152    5.2901   14.5972 H   0  0  0  0  0  0  0  0  0  0  0  0
    1.4278    6.2098   14.5972 H   0  0  0  0  0  0  0  0  0  0  0  0
    1.2066   10.8889    9.5563 H   0  0  0  0  0  0  0  0  0  0  0  0
   -1.0192   12.5669    8.3048 H   0  0  0  0  0  0  0  0  0  0  0  0
   -0.6208    9.5964    7.9029 H   0  0  0  0  0  0  0  0  0  0  0  0
   -2.9719   11.3437    8.8096 H   0  0  0  0  0  0  0  0  0  0  0  0
   -4.2816    9.3692    9.1106 H   0  0  0  0  0  0  0  0  0  0  0  0
   -3.6851    9.4671    7.3974 H   0  0  0  0  0  0  0  0  0  0  0  0
    0.5345   12.6232   11.2730 H   0  0  0  0  0  0  0  0  0  0  0  0
    1.5496   12.1920    7.9299 H   0  0  0  0  0  0  0  0  0  0  0  0
   -2.6592   10.8971    6.5405 H   0  0  0  0  0  0  0  0  0  0  0  0
   -2.7354    7.7635    9.5138 H   0  0  0  0  0  0  0  0  0  0  0  0
    0.3750   10.3810   12.3927 H   0  0  0  0  0  0  0  0  0  0  0  0
   -3.3288    8.8524   11.2301 H   0  0  0  0  0  0  0  0  0  0  0  0
  1  2  1  0
  1 16  1  0
  2 18  1  0
  2 19  2  0
  3 18  1  0
  4  5  1  0
  4 13  2  0
  4 15  1  0
  5  6  1  0
  5 10  1  0
  6  7  1  0
  6 11  1  0
  7  8  1  0
  7 12  1  0
  8  9  1  0
  8 13  1  0
  9 14  1  0
 13 17  1  0
 15 16  1  0
 16 17  2  0
  1 20  1  0
  1 21  1  0
  3 22  1  0
  3 23  1  0
  3 24  1  0
  5 25  1  0
  6 26  1  0
  7 27  1  0
  8 28  1  0
  9 29  1  0
  9 30  1  0
 10 31  1  0
 11 32  1  0
 12 33  1  0
 14 34  1  0
 15 35  1  0
 17 36  1  0
M  CHG  1  13   1
A    1
C1
A    2
C2
A    3
C4
A    4
C1B
A    5
C2B
A    6
C3B
A    7
C4B
A    8
C5B
A    9
C6B
A   10
O2B
A   11
O3B
A   12
O4B
A   13
N1B
A   14
O6B
A   15
N2B
A   16
C7B
A   17
C8B
A   18
O1
A   19
O5
M  END
