2J7G_GI4_A_1446
     RDKit          3D

 33 34  0  0  0  0  0  0  0  0999 V2000
   -2.0290    9.3280   13.8130 C   0  0  0  0  0  0  0  0  0  0  0  0
   -0.9850   10.7530   10.6690 C   0  0  0  0  0  0  0  0  0  0  0  0
    0.0050   11.5230    9.7990 C   0  0  0  0  0  0  0  0  0  0  0  0
   -0.5790   11.7990    8.4110 C   0  0  0  0  0  0  0  0  0  0  0  0
   -1.3710   10.5560    7.9290 C   0  0  0  0  0  0  0  0  0  0  0  0
   -2.6280   10.3660    8.8320 C   0  0  0  0  0  0  0  0  0  0  0  0
   -3.5440    9.2260    8.4010 C   0  0  0  0  0  0  0  0  0  0  0  0
    0.3680   12.7580   10.4240 O   0  0  0  0  0  0  0  0  0  0  0  0
    0.5410   12.0790    7.5940 O   0  0  0  0  0  0  0  0  0  0  0  0
   -1.8180   10.7610    6.6050 O   0  0  0  0  0  0  0  0  0  0  0  0
   -2.2060   10.1920   10.2360 N   0  0  0  0  0  0  0  0  0  0  0  0
   -2.9030    7.9790    8.6380 O   0  0  0  0  0  0  0  0  0  0  0  0
   -0.8660   10.4410   11.9350 N   0  0  0  0  0  0  0  0  0  0  0  0
   -1.9140    9.7170   12.3320 C   0  0  0  0  0  0  0  0  0  0  0  0
   -2.7480    9.5700   11.2990 C   0  0  0  0  0  0  0  0  0  0  0  0
   -1.4910    7.9810   14.2360 C   0  0  0  0  0  0  0  0  0  0  0  0
   -0.3590    7.6630   13.8490 O   0  0  0  0  0  0  0  0  0  0  0  0
   -2.2270    7.3170   14.9960 O   0  0  0  0  0  0  0  0  0  0  0  0
   -1.4923   10.0920   14.3946 H   0  0  0  0  0  0  0  0  0  0  0  0
   -3.1115    9.2616   13.9965 H   0  0  0  0  0  0  0  0  0  0  0  0
    0.9036   10.8993    9.6831 H   0  0  0  0  0  0  0  0  0  0  0  0
   -1.2890   12.6389    8.3916 H   0  0  0  0  0  0  0  0  0  0  0  0
   -0.7164    9.6735    7.9798 H   0  0  0  0  0  0  0  0  0  0  0  0
   -3.2311   11.2794    8.7224 H   0  0  0  0  0  0  0  0  0  0  0  0
   -4.4798    9.2713    8.9774 H   0  0  0  0  0  0  0  0  0  0  0  0
   -3.7655    9.3231    7.3279 H   0  0  0  0  0  0  0  0  0  0  0  0
    0.3367   12.6517   11.4078 H   0  0  0  0  0  0  0  0  0  0  0  0
    1.3254   12.2751    8.1653 H   0  0  0  0  0  0  0  0  0  0  0  0
   -2.7178   11.1736    6.6206 H   0  0  0  0  0  0  0  0  0  0  0  0
   -2.8254    7.8280    9.6133 H   0  0  0  0  0  0  0  0  0  0  0  0
   -0.0770   10.7150   12.5377 H   0  0  0  0  0  0  0  0  0  0  0  0
   -3.7088    9.0347   11.3146 H   0  0  0  0  0  0  0  0  0  0  0  0
   -2.1313    7.4033   15.9776 H   0  0  0  0  0  0  0  0  0  0  0  0
  1 14  1  0
  1 16  1  0
  2  3  1  0
  2 11  2  0
  2 13  1  0
  3  4  1  0
  3  8  1  0
  4  5  1  0
  4  9  1  0
  5  6  1  0
  5 10  1  0
  6  7  1  0
  6 11  1  0
  7 12  1  0
 11 15  1  0
 13 14  1  0
 14 15  2  0
 16 17  2  0
 16 18  1  0
  1 19  1  0
  1 20  1  0
  3 21  1  0
  4 22  1  0
  5 23  1  0
  6 24  1  0
  7 25  1  0
  7 26  1  0
  8 27  1  0
  9 28  1  0
 10 29  1  0
 12 30  1  0
 13 31  1  0
 15 32  1  0
 18 33  1  0
M  CHG  1  11   1
A    1
C1
A    2
C1B
A    3
C2B
A    4
C3B
A    5
C4B
A    6
C5B
A    7
C6B
A    8
O2B
A    9
O3B
A   10
O4B
A   11
N1B
A   12
O6B
A   13
N2B
A   14
C7B
A   15
C8B
A   16
C2
A   17
O1
A   18
O5
M  END
