2J7H_AZF_A_1446
     RDKit          3D

 22 22  0  0  0  0  0  0  0  0999 V2000
   -1.6300   10.6580    6.7330 O   0  0  0  0  0  0  0  0  0  0  0  0
   -1.1360   10.6320    8.0810 C   0  0  0  0  0  0  0  0  0  0  0  0
   -0.3170   11.9080    8.4230 C   0  0  0  0  0  0  0  0  0  0  0  0
    0.8150   12.0560    7.5660 O   0  0  0  0  0  0  0  0  0  0  0  0
    0.1820   11.9810    9.8740 C   0  0  0  0  0  0  0  0  0  0  0  0
   -0.8370   11.4630   10.8000 N   0  0  0  0  0  0  0  0  0  0  0  0
   -2.3020   10.5360    9.0620 C   0  0  0  0  0  0  0  0  0  0  0  0
   -3.2410    9.3710    8.7770 C   0  0  0  0  0  0  0  0  0  0  0  0
   -2.5130    8.1500    8.9590 O   0  0  0  0  0  0  0  0  0  0  0  0
   -1.6760   10.4190   10.3790 N   0  0  0  0  0  0  0  0  0  0  0  0
   -2.6186   10.7100    6.7448 H   0  0  0  0  0  0  0  0  0  0  0  0
   -0.4790    9.7540    8.1672 H   0  0  0  0  0  0  0  0  0  0  0  0
   -1.0378   12.7250    8.2715 H   0  0  0  0  0  0  0  0  0  0  0  0
    1.6323   12.1629    8.1144 H   0  0  0  0  0  0  0  0  0  0  0  0
    1.0980   11.3798    9.9717 H   0  0  0  0  0  0  0  0  0  0  0  0
    0.3873   13.0320   10.1254 H   0  0  0  0  0  0  0  0  0  0  0  0
   -0.3404   11.1306   11.6390 H   0  0  0  0  0  0  0  0  0  0  0  0
   -2.9521   11.4198    8.9822 H   0  0  0  0  0  0  0  0  0  0  0  0
   -4.0937    9.4024    9.4712 H   0  0  0  0  0  0  0  0  0  0  0  0
   -3.6216    9.4348    7.7469 H   0  0  0  0  0  0  0  0  0  0  0  0
   -2.4061    7.9707    9.9267 H   0  0  0  0  0  0  0  0  0  0  0  0
   -1.1145    9.5555   10.3766 H   0  0  0  0  0  0  0  0  0  0  0  0
  1  2  1  0
  2  3  1  0
  2  7  1  0
  3  4  1  0
  3  5  1  0
  5  6  1  0
  6 10  1  0
  7  8  1  0
  7 10  1  0
  8  9  1  0
  1 11  1  0
  2 12  1  0
  3 13  1  0
  4 14  1  0
  5 15  1  0
  5 16  1  0
  6 17  1  0
  7 18  1  0
  8 19  1  0
  8 20  1  0
  9 21  1  0
 10 22  1  0
A    1
O4
A    2
C4
A    3
C3
A    4
O3
A    5
C2
A    6
N
A    7
C5
A    8
C6
A    9
O6
A   10
N2
M  END
