2J7Y_E3O_A_1454
     RDKit          3D

 45 48  0  0  0  0  0  0  0  0999 V2000
   49.7830   31.9000   76.2760 C   0  0  0  0  0  0  0  0  0  0  0  0
   50.4290   31.8970   74.8960 C   0  0  0  0  0  0  0  0  0  0  0  0
   49.5510   31.2760   73.8090 C   0  0  0  0  0  0  0  0  0  0  0  0
   49.1450   29.8680   74.2640 C   0  0  0  0  0  0  0  0  0  0  0  0
   50.3860   28.9680   74.3150 C   0  0  0  0  0  0  0  0  0  0  0  0
   48.0930   29.1700   73.4030 C   0  0  0  0  0  0  0  0  0  0  0  0
   47.0650   30.0820   73.0190 O   0  0  0  0  0  0  0  0  0  0  0  0
   47.5330   28.0790   74.3380 C   0  0  0  0  0  0  0  0  0  0  0  0
   46.1110   27.9650   74.2300 O   0  0  0  0  0  0  0  0  0  0  0  0
   47.8970   28.4930   75.7650 C   0  0  0  0  0  0  0  0  0  0  0  0
   48.4480   29.9240   75.6110 C   0  0  0  0  0  0  0  0  0  0  0  0
   49.3460   30.4820   76.7230 C   0  0  0  0  0  0  0  0  0  0  0  0
   48.6870   30.5540   78.0810 C   0  0  0  0  0  0  0  0  0  0  0  0
   49.6690   30.9490   79.1890 C   0  0  0  0  0  0  0  0  0  0  0  0
   50.5210   32.1570   78.7970 C   0  0  0  0  0  0  0  0  0  0  0  0
   51.2310   32.8500   79.7450 C   0  0  0  0  0  0  0  0  0  0  0  0
   52.0110   33.9680   79.3860 C   0  0  0  0  0  0  0  0  0  0  0  0
   52.6850   34.6570   80.3410 O   0  0  0  0  0  0  0  0  0  0  0  0
   52.0590   34.3770   78.0560 C   0  0  0  0  0  0  0  0  0  0  0  0
   51.3660   33.7260   77.0470 C   0  0  0  0  0  0  0  0  0  0  0  0
   50.6010   32.6040   77.3390 C   0  0  0  0  0  0  0  0  0  0  0  0
   48.8711   32.5047   76.1630 H   0  0  0  0  0  0  0  0  0  0  0  0
   50.6490   32.9370   74.6130 H   0  0  0  0  0  0  0  0  0  0  0  0
   51.3375   31.2809   74.9671 H   0  0  0  0  0  0  0  0  0  0  0  0
   48.6522   31.8923   73.6596 H   0  0  0  0  0  0  0  0  0  0  0  0
   50.1038   31.2229   72.8595 H   0  0  0  0  0  0  0  0  0  0  0  0
   50.6547   28.7731   75.3637 H   0  0  0  0  0  0  0  0  0  0  0  0
   50.1693   28.0157   73.8089 H   0  0  0  0  0  0  0  0  0  0  0  0
   51.2239   29.4698   73.8089 H   0  0  0  0  0  0  0  0  0  0  0  0
   48.5041   28.7659   72.4661 H   0  0  0  0  0  0  0  0  0  0  0  0
   46.6393   30.4596   73.8291 H   0  0  0  0  0  0  0  0  0  0  0  0
   47.9600   27.1026   74.0652 H   0  0  0  0  0  0  0  0  0  0  0  0
   45.7128   27.9331   75.1358 H   0  0  0  0  0  0  0  0  0  0  0  0
   47.0082   28.4842   76.4131 H   0  0  0  0  0  0  0  0  0  0  0  0
   48.6213   27.8092   76.2317 H   0  0  0  0  0  0  0  0  0  0  0  0
   47.6225   30.6471   75.6866 H   0  0  0  0  0  0  0  0  0  0  0  0
   50.1946   29.7945   76.8544 H   0  0  0  0  0  0  0  0  0  0  0  0
   47.8798   31.3003   78.0424 H   0  0  0  0  0  0  0  0  0  0  0  0
   48.3001   29.5521   78.3185 H   0  0  0  0  0  0  0  0  0  0  0  0
   49.0991   31.1962   80.0968 H   0  0  0  0  0  0  0  0  0  0  0  0
   50.3451   30.0988   79.3621 H   0  0  0  0  0  0  0  0  0  0  0  0
   51.1911   32.5296   80.7966 H   0  0  0  0  0  0  0  0  0  0  0  0
   52.5089   34.4770   81.2984 H   0  0  0  0  0  0  0  0  0  0  0  0
   52.6718   35.2524   77.7951 H   0  0  0  0  0  0  0  0  0  0  0  0
   51.4221   34.0986   76.0136 H   0  0  0  0  0  0  0  0  0  0  0  0
  1  2  1  0
  1 12  1  0
  1 21  1  0
  2  3  1  0
  3  4  1  0
  4  5  1  0
  4  6  1  0
  4 11  1  0
  6  7  1  0
  6  8  1  0
  8  9  1  0
  8 10  1  0
 10 11  1  0
 11 12  1  0
 12 13  1  0
 13 14  1  0
 14 15  1  0
 15 16  2  0
 15 21  1  0
 16 17  1  0
 17 18  1  0
 17 19  2  0
 19 20  1  0
 20 21  2  0
  1 22  1  0
  2 23  1  0
  2 24  1  0
  3 25  1  0
  3 26  1  0
  5 27  1  0
  5 28  1  0
  5 29  1  0
  6 30  1  0
  7 31  1  0
  8 32  1  0
  9 33  1  0
 10 34  1  0
 10 35  1  0
 11 36  1  0
 12 37  1  0
 13 38  1  0
 13 39  1  0
 14 40  1  0
 14 41  1  0
 16 42  1  0
 18 43  1  0
 19 44  1  0
 20 45  1  0
A    1
C2
A    2
C3
A    3
C4
A    4
C5
A    5
C6
A    6
C7
A    7
O1
A    8
C8
A    9
O2
A   10
C9
A   11
C10
A   12
C12
A   13
C14
A   14
C15
A   15
C16
A   16
C17
A   17
C18
A   18
O3
A   19
C19
A   20
C20
A   21
C21
M  END
