2J9Y_FOO_B_1396
     RDKit          3D

 34 34  0  0  0  0  0  0  0  0999 V2000
   84.5180   13.7970   11.9670 N   0  0  0  0  0  0  0  0  0  0  0  0
   84.3900   14.4090   10.7580 C   0  0  0  0  0  0  0  0  0  0  0  0
   85.4970   14.3850    9.7820 C   0  0  0  0  0  0  0  0  0  0  0  0
   83.1600   15.2490   10.4610 C   0  0  0  0  0  0  0  0  0  0  0  0
   83.1210   15.8400    9.2870 O   0  0  0  0  0  0  0  0  0  0  0  0
   82.0620   15.3210   11.4380 C   0  0  0  0  0  0  0  0  0  0  0  0
   82.3240   14.6870   12.6890 C   0  0  0  0  0  0  0  0  0  0  0  0
   83.5330   13.8760   12.8580 C   0  0  0  0  0  0  0  0  0  0  0  0
   81.2720   14.4250   13.7640 C   0  0  0  0  0  0  0  0  0  0  0  0
   79.9220   14.0740   13.4020 O   0  0  0  0  0  0  0  0  0  0  0  0
   79.5810   12.8420   14.0510 P   0  0  0  0  0  0  0  0  0  0  0  0
   78.2370   12.4640   13.8260 O   0  0  0  0  0  0  0  0  0  0  0  0
   80.2930   11.6500   13.7710 O   0  0  0  0  0  0  0  0  0  0  0  0
   79.5640   12.9900   15.4620 O   0  0  0  0  0  0  0  0  0  0  0  0
   78.5550   18.0450   11.0860 N   0  0  0  0  0  0  0  0  0  0  0  0
   79.2220   17.6660   10.1330 C   0  0  0  0  0  0  0  0  0  0  0  0
   78.7060   17.6240    8.7920 C   0  0  0  0  0  0  0  0  0  0  0  0
   77.5290   17.4520    8.4550 O   0  0  0  0  0  0  0  0  0  0  0  0
   80.4980   17.0100   10.2720 C   0  0  0  0  0  0  0  0  0  0  0  0
   79.6500   17.6510    7.8170 O   0  0  0  0  0  0  0  0  0  0  0  0
   80.8670   15.9970   11.1660 C   0  0  0  0  0  0  0  0  0  0  0  0
   86.4576   14.3642   10.3175 H   0  0  0  0  0  0  0  0  0  0  0  0
   85.4097   13.4885    9.1505 H   0  0  0  0  0  0  0  0  0  0  0  0
   85.4487   15.2844    9.1505 H   0  0  0  0  0  0  0  0  0  0  0  0
   83.0559   16.8263    9.2312 H   0  0  0  0  0  0  0  0  0  0  0  0
   83.6330   13.2925   13.7851 H   0  0  0  0  0  0  0  0  0  0  0  0
   81.6551   13.6015   14.3845 H   0  0  0  0  0  0  0  0  0  0  0  0
   81.1510   15.4119   14.2345 H   0  0  0  0  0  0  0  0  0  0  0  0
   77.7804   12.3356   14.6950 H   0  0  0  0  0  0  0  0  0  0  0  0
   79.6660   12.1023   15.8882 H   0  0  0  0  0  0  0  0  0  0  0  0
   78.9667   18.0582   12.0300 H   0  0  0  0  0  0  0  0  0  0  0  0
   76.8265   17.3493    9.1450 H   0  0  0  0  0  0  0  0  0  0  0  0
   81.2866   17.3502    9.5847 H   0  0  0  0  0  0  0  0  0  0  0  0
   80.0310   15.6567   11.7947 H   0  0  0  0  0  0  0  0  0  0  0  0
  1  2  2  0
  1  8  1  0
  2  3  1  0
  2  4  1  0
  4  5  1  0
  4  6  2  0
  6  7  1  0
  6 21  1  0
  7  8  2  0
  7  9  1  0
  9 10  1  0
 10 11  1  0
 11 12  1  0
 11 13  2  0
 11 14  1  0
 15 16  2  0
 16 17  1  0
 16 19  1  0
 17 18  1  0
 17 20  2  0
 19 21  2  0
  3 22  1  0
  3 23  1  0
  3 24  1  0
  5 25  1  0
  8 26  1  0
  9 27  1  0
  9 28  1  0
 12 29  1  0
 14 30  1  0
 15 31  1  0
 18 32  1  0
 19 33  1  0
 21 34  1  0
A    1
N1
A    2
C2
A    3
C2A
A    4
C3
A    5
O3
A    6
C4
A    7
C5
A    8
C6
A    9
C5A
A   10
O4P
A   11
P
A   12
O1P
A   13
O2P
A   14
O3P
A   15
N
A   16
CA
A   17
C
A   18
O
A   19
CB
A   20
OXT
A   21
C7
M  END
