2JAJ_D20_A_500
     RDKit          3D

 36 35  0  0  0  0  0  0  0  0999 V2000
   15.9620    4.3160   67.6130 N   0  0  0  0  0  0  0  0  0  0  0  0
   16.2440    5.2580   66.5180 C   0  0  0  0  0  0  0  0  0  0  0  0
   15.0880    6.2120   66.1790 C   0  0  0  0  0  0  0  0  0  0  0  0
   14.0110    6.0720   66.8110 O   0  0  0  0  0  0  0  0  0  0  0  0
   16.6850    4.4490   65.2760 C   0  0  0  0  0  0  0  0  0  0  0  0
   15.6210    3.4160   64.9240 C   0  0  0  0  0  0  0  0  0  0  0  0
   16.0340    2.6290   63.6390 C   0  0  0  0  0  0  0  0  0  0  0  0
   16.2270    3.4680   62.4150 N   0  0  0  0  0  0  0  0  0  0  0  0
   15.2280    3.8010   61.5820 C   0  0  0  0  0  0  0  0  0  0  0  0
   13.9570    3.3550   61.8710 N   0  0  0  0  0  0  0  0  0  0  0  0
   15.5390    4.5330   60.4840 N   0  0  0  0  0  0  0  0  0  0  0  0
   12.7840    3.6540   61.0540 C   0  0  0  0  0  0  0  0  0  0  0  0
   13.5330    1.7500   58.0590 C   0  0  0  0  0  0  0  0  0  0  0  0
   15.3170    7.0690   65.2790 O   0  0  0  0  0  0  0  0  0  0  0  0
   13.5380    2.9150   58.9320 O   0  0  0  0  0  0  0  0  0  0  0  0
   12.5600    2.6340   59.9500 C   0  0  0  0  0  0  0  0  0  0  0  0
   16.1034    4.7884   68.5173 H   0  0  0  0  0  0  0  0  0  0  0  0
   14.9869    3.9913   67.5440 H   0  0  0  0  0  0  0  0  0  0  0  0
   17.0509    5.9224   66.8606 H   0  0  0  0  0  0  0  0  0  0  0  0
   16.8243    5.1331   64.4259 H   0  0  0  0  0  0  0  0  0  0  0  0
   17.6309    3.9330   65.4975 H   0  0  0  0  0  0  0  0  0  0  0  0
   15.5086    2.7111   65.7609 H   0  0  0  0  0  0  0  0  0  0  0  0
   14.6683    3.9330   64.7365 H   0  0  0  0  0  0  0  0  0  0  0  0
   16.9802    2.1082   63.8478 H   0  0  0  0  0  0  0  0  0  0  0  0
   15.1993    1.9484   63.4152 H   0  0  0  0  0  0  0  0  0  0  0  0
   17.1754    3.8077   62.2004 H   0  0  0  0  0  0  0  0  0  0  0  0
   13.8263    2.7765   62.7131 H   0  0  0  0  0  0  0  0  0  0  0  0
   14.7995    4.8076   59.8217 H   0  0  0  0  0  0  0  0  0  0  0  0
   11.8970    3.6684   61.7044 H   0  0  0  0  0  0  0  0  0  0  0  0
   12.9542    4.6292   60.5744 H   0  0  0  0  0  0  0  0  0  0  0  0
   13.5291    0.8347   58.6691 H   0  0  0  0  0  0  0  0  0  0  0  0
   12.6349    1.7714   57.4242 H   0  0  0  0  0  0  0  0  0  0  0  0
   14.4312    1.7637   57.4242 H   0  0  0  0  0  0  0  0  0  0  0  0
   15.5643    7.9946   65.5283 H   0  0  0  0  0  0  0  0  0  0  0  0
   12.6989    1.6148   60.3399 H   0  0  0  0  0  0  0  0  0  0  0  0
   11.5376    2.6985   59.5492 H   0  0  0  0  0  0  0  0  0  0  0  0
  1  2  1  0
  2  3  1  0
  2  5  1  0
  3  4  2  0
  3 14  1  0
  5  6  1  0
  6  7  1  0
  7  8  1  0
  8  9  1  0
  9 10  1  0
  9 11  2  3
 10 12  1  0
 12 16  1  0
 13 15  1  0
 15 16  1  0
  1 17  1  0
  1 18  1  0
  2 19  1  0
  5 20  1  0
  5 21  1  0
  6 22  1  0
  6 23  1  0
  7 24  1  0
  7 25  1  0
  8 26  1  0
 10 27  1  0
 11 28  1  0
 12 29  1  0
 12 30  1  0
 13 31  1  0
 13 32  1  0
 13 33  1  0
 14 34  1  0
 16 35  1  0
 16 36  1  0
A    1
N
A    2
C1
A    3
C
A    4
O
A    5
C2
A    6
C3
A    7
C4
A    8
N5
A    9
C6
A   10
N61
A   11
N62
A   12
C7
A   13
C8
A   14
O9
A   15
O10
A   16
C10
M  END
