2JC0_699_A_1563
     RDKit          3D

 54 56  0  0  0  0  0  0  0  0999 V2000
    5.4410   41.3790   51.9340 F   0  0  0  0  0  0  0  0  0  0  0  0
    5.2640   42.6940   51.6080 C   0  0  0  0  0  0  0  0  0  0  0  0
    4.6250   43.3570   52.5940 F   0  0  0  0  0  0  0  0  0  0  0  0
    4.6610   42.9470   50.4290 F   0  0  0  0  0  0  0  0  0  0  0  0
    6.5990   43.4150   51.5370 C   0  0  0  0  0  0  0  0  0  0  0  0
    7.3670   43.6370   52.7200 C   0  0  0  0  0  0  0  0  0  0  0  0
    8.5800   44.3530   52.6760 C   0  0  0  0  0  0  0  0  0  0  0  0
    7.0420   43.9470   50.2940 C   0  0  0  0  0  0  0  0  0  0  0  0
    8.2380   44.6590   50.2560 C   0  0  0  0  0  0  0  0  0  0  0  0
    9.0280   44.8450   51.4290 C   0  0  0  0  0  0  0  0  0  0  0  0
   10.2970   45.6700   51.3370 C   0  0  0  0  0  0  0  0  0  0  0  0
   10.2210   46.9170   51.5540 O   0  0  0  0  0  0  0  0  0  0  0  0
   11.4900   45.1010   50.9700 N   0  0  0  0  0  0  0  0  0  0  0  0
   12.8050   45.8570   50.9670 C   0  0  0  0  0  0  0  0  0  0  0  0
   12.7410   46.9920   49.9010 C   0  0  0  0  0  0  0  0  0  0  0  0
   11.8250   46.7660   49.0050 O   0  0  0  0  0  0  0  0  0  0  0  0
   13.5590   47.8660   49.7470 O   0  0  0  0  0  0  0  0  0  0  0  0
   13.0380   46.4530   52.4050 C   0  0  0  0  0  0  0  0  0  0  0  0
   13.2470   45.4710   53.5850 C   0  0  0  0  0  0  0  0  0  0  0  0
   13.8440   46.2240   54.7440 C   0  0  0  0  0  0  0  0  0  0  0  0
   11.9260   44.8470   54.0630 C   0  0  0  0  0  0  0  0  0  0  0  0
   13.7660   44.7240   50.4660 C   0  0  0  0  0  0  0  0  0  0  0  0
   13.1010   43.4210   50.8420 C   0  0  0  0  0  0  0  0  0  0  0  0
   13.6050   42.1550   50.1660 C   0  0  0  0  0  0  0  0  0  0  0  0
   12.8820   41.0770   50.5300 O   0  0  0  0  0  0  0  0  0  0  0  0
   14.6870   42.1320   49.6220 O   0  0  0  0  0  0  0  0  0  0  0  0
   11.6360   43.6760   50.5750 C   0  0  0  0  0  0  0  0  0  0  0  0
   11.2190   43.3480   49.1640 C   0  0  0  0  0  0  0  0  0  0  0  0
   10.2300   41.9930   48.8400 S   0  0  0  0  0  0  0  0  0  0  0  0
   11.6100   44.0430   47.9950 C   0  0  0  0  0  0  0  0  0  0  0  0
   11.0150   43.3860   46.8770 C   0  0  0  0  0  0  0  0  0  0  0  0
   10.2630   42.2990   47.1640 C   0  0  0  0  0  0  0  0  0  0  0  0
    7.0060   43.2427   53.6814 H   0  0  0  0  0  0  0  0  0  0  0  0
    9.1650   44.5251   53.5915 H   0  0  0  0  0  0  0  0  0  0  0  0
    6.4499   43.7984   49.3789 H   0  0  0  0  0  0  0  0  0  0  0  0
    8.5805   45.0867   49.3022 H   0  0  0  0  0  0  0  0  0  0  0  0
   10.9033   46.5386   49.2858 H   0  0  0  0  0  0  0  0  0  0  0  0
   13.9320   47.0917   52.3513 H   0  0  0  0  0  0  0  0  0  0  0  0
   12.0929   46.9634   52.6424 H   0  0  0  0  0  0  0  0  0  0  0  0
   13.9081   44.6658   53.2320 H   0  0  0  0  0  0  0  0  0  0  0  0
   13.4934   45.7818   55.6882 H   0  0  0  0  0  0  0  0  0  0  0  0
   14.9412   46.1622   54.6953 H   0  0  0  0  0  0  0  0  0  0  0  0
   13.5336   47.2782   54.6953 H   0  0  0  0  0  0  0  0  0  0  0  0
   11.9025   44.8359   55.1627 H   0  0  0  0  0  0  0  0  0  0  0  0
   11.0815   45.4414   53.6842 H   0  0  0  0  0  0  0  0  0  0  0  0
   11.8487   43.8172   53.6842 H   0  0  0  0  0  0  0  0  0  0  0  0
   13.8957   44.7867   49.3755 H   0  0  0  0  0  0  0  0  0  0  0  0
   14.7650   44.8127   50.9177 H   0  0  0  0  0  0  0  0  0  0  0  0
   13.3393   43.1814   51.8888 H   0  0  0  0  0  0  0  0  0  0  0  0
   12.7455   40.8734   51.4892 H   0  0  0  0  0  0  0  0  0  0  0  0
   10.9558   43.0211   51.1393 H   0  0  0  0  0  0  0  0  0  0  0  0
   12.2573   44.9315   47.9553 H   0  0  0  0  0  0  0  0  0  0  0  0
   11.1589   43.7413   45.8460 H   0  0  0  0  0  0  0  0  0  0  0  0
    9.7397   41.6904   46.4118 H   0  0  0  0  0  0  0  0  0  0  0  0
  1  2  1  0
  2  3  1  0
  2  4  1  0
  2  5  1  0
  5  6  2  0
  5  8  1  0
  6  7  1  0
  7 10  2  0
  8  9  2  0
  9 10  1  0
 10 11  1  0
 11 12  2  0
 11 13  1  0
 13 14  1  0
 13 27  1  0
 14 15  1  0
 14 18  1  0
 14 22  1  0
 15 16  1  0
 15 17  2  0
 18 19  1  0
 19 20  1  0
 19 21  1  0
 22 23  1  0
 23 24  1  0
 23 27  1  0
 24 25  1  0
 24 26  2  0
 27 28  1  0
 28 29  1  0
 28 30  2  0
 29 32  1  0
 30 31  1  0
 31 32  2  0
  6 33  1  0
  7 34  1  0
  8 35  1  0
  9 36  1  0
 16 37  1  0
 18 38  1  0
 18 39  1  0
 19 40  1  0
 20 41  1  0
 20 42  1  0
 20 43  1  0
 21 44  1  0
 21 45  1  0
 21 46  1  0
 22 47  1  0
 22 48  1  0
 23 49  1  0
 25 50  1  0
 27 51  1  0
 30 52  1  0
 31 53  1  0
 32 54  1  0
A    1
F54
A    2
C51
A    3
F52
A    4
F53
A    5
C2
A    6
C1
A    7
C6
A    8
C3
A    9
C4
A   10
C5
A   11
C11
A   12
O13
A   13
N12
A   14
C17
A   15
C34
A   16
O36
A   17
O35
A   18
C33
A   19
C37
A   20
C44
A   21
C40
A   22
C16
A   23
C15
A   24
C22
A   25
O25
A   26
O24
A   27
C14
A   28
C20
A   29
S29
A   30
C26
A   31
C27
A   32
C28
M  END
