2JC1_698_A_600
     RDKit          3D

 62 64  0  0  0  0  0  0  0  0999 V2000
   14.4150   42.2490   49.6710 O   0  0  0  0  0  0  0  0  0  0  0  0
   13.5990   42.2240   50.5450 C   0  0  0  0  0  0  0  0  0  0  0  0
   12.9670   41.1850   50.8000 O   0  0  0  0  0  0  0  0  0  0  0  0
   13.2920   43.4870   51.3790 C   0  0  0  0  0  0  0  0  0  0  0  0
   11.8000   43.8180   51.5600 C   0  0  0  0  0  0  0  0  0  0  0  0
   10.9250   43.4490   50.3490 C   0  0  0  0  0  0  0  0  0  0  0  0
   10.3440   42.2300   50.1590 N   0  0  0  0  0  0  0  0  0  0  0  0
    9.6260   42.1720   49.0130 C   0  0  0  0  0  0  0  0  0  0  0  0
    9.6090   43.3600   48.2830 C   0  0  0  0  0  0  0  0  0  0  0  0
   10.5260   44.5200   49.0910 S   0  0  0  0  0  0  0  0  0  0  0  0
   13.9380   44.7790   50.8630 C   0  0  0  0  0  0  0  0  0  0  0  0
   13.1220   45.9150   51.5080 C   0  0  0  0  0  0  0  0  0  0  0  0
   13.8510   46.4910   52.7660 C   0  0  0  0  0  0  0  0  0  0  0  0
   13.9390   45.6330   54.0660 C   0  0  0  0  0  0  0  0  0  0  0  0
   12.7210   45.8660   54.9870 C   0  0  0  0  0  0  0  0  0  0  0  0
   15.2260   45.9310   54.8530 C   0  0  0  0  0  0  0  0  0  0  0  0
   12.9130   47.0350   50.4310 C   0  0  0  0  0  0  0  0  0  0  0  0
   13.4580   48.1010   50.4580 O   0  0  0  0  0  0  0  0  0  0  0  0
   12.1290   46.8110   49.5220 O   0  0  0  0  0  0  0  0  0  0  0  0
   11.8220   45.2700   51.8230 N   0  0  0  0  0  0  0  0  0  0  0  0
   10.7570   45.9900   52.2820 C   0  0  0  0  0  0  0  0  0  0  0  0
   10.7620   47.2120   52.3060 O   0  0  0  0  0  0  0  0  0  0  0  0
    9.5790   45.2510   52.7540 C   0  0  0  0  0  0  0  0  0  0  0  0
    8.3910   45.3320   52.0440 C   0  0  0  0  0  0  0  0  0  0  0  0
    7.2550   44.6590   52.4740 C   0  0  0  0  0  0  0  0  0  0  0  0
    9.6330   44.4590   53.9010 C   0  0  0  0  0  0  0  0  0  0  0  0
    8.4930   43.7700   54.3280 C   0  0  0  0  0  0  0  0  0  0  0  0
    7.2760   43.8520   53.6320 C   0  0  0  0  0  0  0  0  0  0  0  0
    6.0140   43.1080   54.1030 C   0  0  0  0  0  0  0  0  0  0  0  0
    5.5510   41.9360   53.1810 C   0  0  0  0  0  0  0  0  0  0  0  0
    6.2560   42.4500   55.4780 C   0  0  0  0  0  0  0  0  0  0  0  0
    4.9260   44.1960   54.2050 C   0  0  0  0  0  0  0  0  0  0  0  0
   12.8067   40.9214   51.7407 H   0  0  0  0  0  0  0  0  0  0  0  0
   13.7344   43.1838   52.3394 H   0  0  0  0  0  0  0  0  0  0  0  0
   11.3380   43.2303   52.3669 H   0  0  0  0  0  0  0  0  0  0  0  0
    9.0998   41.2635   48.6849 H   0  0  0  0  0  0  0  0  0  0  0  0
    9.0807   43.5153   47.3307 H   0  0  0  0  0  0  0  0  0  0  0  0
   14.9919   44.8353   51.1729 H   0  0  0  0  0  0  0  0  0  0  0  0
   13.9304   44.8357   49.7645 H   0  0  0  0  0  0  0  0  0  0  0  0
   14.8837   46.7164   52.4615 H   0  0  0  0  0  0  0  0  0  0  0  0
   13.2199   47.3420   53.0618 H   0  0  0  0  0  0  0  0  0  0  0  0
   13.9484   44.5815   53.7431 H   0  0  0  0  0  0  0  0  0  0  0  0
   13.0392   45.8051   56.0382 H   0  0  0  0  0  0  0  0  0  0  0  0
   12.2970   46.8615   54.7893 H   0  0  0  0  0  0  0  0  0  0  0  0
   11.9595   45.0973   54.7893 H   0  0  0  0  0  0  0  0  0  0  0  0
   15.0158   45.8823   55.9316 H   0  0  0  0  0  0  0  0  0  0  0  0
   15.9940   45.1869   54.5952 H   0  0  0  0  0  0  0  0  0  0  0  0
   15.5888   46.9369   54.5952 H   0  0  0  0  0  0  0  0  0  0  0  0
   11.1975   46.5449   49.7260 H   0  0  0  0  0  0  0  0  0  0  0  0
    8.3476   45.9380   51.1270 H   0  0  0  0  0  0  0  0  0  0  0  0
    6.3209   44.7566   51.9013 H   0  0  0  0  0  0  0  0  0  0  0  0
   10.5712   44.3763   54.4692 H   0  0  0  0  0  0  0  0  0  0  0  0
    8.5513   43.1474   55.2330 H   0  0  0  0  0  0  0  0  0  0  0  0
    5.2173   41.0912   53.8015 H   0  0  0  0  0  0  0  0  0  0  0  0
    4.7195   42.2756   52.5460 H   0  0  0  0  0  0  0  0  0  0  0  0
    6.3901   41.6156   52.5460 H   0  0  0  0  0  0  0  0  0  0  0  0
    5.9946   43.1608   56.2757 H   0  0  0  0  0  0  0  0  0  0  0  0
    5.6300   41.5501   55.5691 H   0  0  0  0  0  0  0  0  0  0  0  0
    7.3159   42.1701   55.5691 H   0  0  0  0  0  0  0  0  0  0  0  0
    4.7158   44.4062   55.2641 H   0  0  0  0  0  0  0  0  0  0  0  0
    5.2781   45.1140   53.7118 H   0  0  0  0  0  0  0  0  0  0  0  0
    4.0080   43.8439   53.7118 H   0  0  0  0  0  0  0  0  0  0  0  0
  1  2  2  0
  2  3  1  0
  2  4  1  0
  4  5  1  0
  4 11  1  0
  5  6  1  0
  5 20  1  0
  6  7  2  0
  6 10  1  0
  7  8  1  0
  8  9  2  0
  9 10  1  0
 11 12  1  0
 12 13  1  0
 12 17  1  0
 12 20  1  0
 13 14  1  0
 14 15  1  0
 14 16  1  0
 17 18  2  0
 17 19  1  0
 20 21  1  0
 21 22  2  0
 21 23  1  0
 23 26  1  0
 23 24  2  0
 24 25  1  0
 25 28  2  0
 26 27  2  0
 27 28  1  0
 28 29  1  0
 29 30  1  0
 29 31  1  0
 29 32  1  0
  3 33  1  0
  4 34  1  0
  5 35  1  0
  8 36  1  0
  9 37  1  0
 11 38  1  0
 11 39  1  0
 13 40  1  0
 13 41  1  0
 14 42  1  0
 15 43  1  0
 15 44  1  0
 15 45  1  0
 16 46  1  0
 16 47  1  0
 16 48  1  0
 19 49  1  0
 24 50  1  0
 25 51  1  0
 26 52  1  0
 27 53  1  0
 30 54  1  0
 30 55  1  0
 30 56  1  0
 31 57  1  0
 31 58  1  0
 31 59  1  0
 32 60  1  0
 32 61  1  0
 32 62  1  0
A    1
O24
A    2
C22
A    3
O1
A    4
C15
A    5
C14
A    6
C20
A    7
N1
A    8
C28
A    9
C27
A   10
S1
A   11
C16
A   12
C17
A   13
C33
A   14
C37
A   15
C40
A   16
C44
A   17
C34
A   18
O35
A   19
O36
A   20
N12
A   21
C11
A   22
O13
A   23
C5
A   24
C4
A   25
C3
A   26
C6
A   27
C1
A   28
C2
A   29
C51
A   30
C9
A   31
C8
A   32
C7
M  END
