2JC6_QPP_A_1314
     RDKit          3D

 38 41  0  0  0  0  0  0  0  0999 V2000
  -13.1830  -84.9030  -35.5500 C   0  0  0  0  0  0  0  0  0  0  0  0
  -13.1730  -85.7240  -34.4260 C   0  0  0  0  0  0  0  0  0  0  0  0
  -13.9210  -86.9100  -34.4060 C   0  0  0  0  0  0  0  0  0  0  0  0
  -14.6610  -87.2550  -35.5200 C   0  0  0  0  0  0  0  0  0  0  0  0
  -14.6710  -86.4430  -36.6420 C   0  0  0  0  0  0  0  0  0  0  0  0
  -13.9200  -85.2630  -36.6880 C   0  0  0  0  0  0  0  0  0  0  0  0
  -13.9330  -84.4230  -37.8200 C   0  0  0  0  0  0  0  0  0  0  0  0
  -12.8910  -83.6030  -38.0760 N   0  0  0  0  0  0  0  0  0  0  0  0
  -15.0080  -84.3910  -38.6370 N   0  0  0  0  0  0  0  0  0  0  0  0
  -15.0710  -83.5590  -39.7080 C   0  0  0  0  0  0  0  0  0  0  0  0
  -16.1980  -83.5340  -40.5440 C   0  0  0  0  0  0  0  0  0  0  0  0
  -16.2660  -82.6960  -41.6700 C   0  0  0  0  0  0  0  0  0  0  0  0
  -15.1790  -81.8650  -41.9750 C   0  0  0  0  0  0  0  0  0  0  0  0
  -14.0620  -81.8880  -41.1310 C   0  0  0  0  0  0  0  0  0  0  0  0
  -13.9940  -82.7320  -40.0020 C   0  0  0  0  0  0  0  0  0  0  0  0
  -12.8740  -82.7630  -39.1510 C   0  0  0  0  0  0  0  0  0  0  0  0
  -11.8320  -81.9320  -39.4080 N   0  0  0  0  0  0  0  0  0  0  0  0
  -10.7080  -81.8510  -38.6740 C   0  0  0  0  0  0  0  0  0  0  0  0
  -10.2080  -82.7120  -37.7780 C   0  0  0  0  0  0  0  0  0  0  0  0
   -9.0730  -82.1370  -37.3990 C   0  0  0  0  0  0  0  0  0  0  0  0
   -8.0880  -82.7130  -36.3870 C   0  0  0  0  0  0  0  0  0  0  0  0
   -8.9040  -80.9790  -38.0310 N   0  0  0  0  0  0  0  0  0  0  0  0
   -9.8760  -80.8290  -38.7800 N   0  0  0  0  0  0  0  0  0  0  0  0
  -12.6087  -83.9649  -35.5459 H   0  0  0  0  0  0  0  0  0  0  0  0
  -12.5744  -85.4406  -33.5477 H   0  0  0  0  0  0  0  0  0  0  0  0
  -13.9184  -87.5563  -33.5159 H   0  0  0  0  0  0  0  0  0  0  0  0
  -15.2488  -88.1848  -35.5161 H   0  0  0  0  0  0  0  0  0  0  0  0
  -15.2797  -86.7306  -37.5119 H   0  0  0  0  0  0  0  0  0  0  0  0
  -17.0513  -84.1881  -40.3115 H   0  0  0  0  0  0  0  0  0  0  0  0
  -17.1635  -82.6921  -42.3059 H   0  0  0  0  0  0  0  0  0  0  0  0
  -15.2030  -81.2093  -42.8579 H   0  0  0  0  0  0  0  0  0  0  0  0
  -13.2111  -81.2278  -41.3549 H   0  0  0  0  0  0  0  0  0  0  0  0
  -11.9081  -81.3152  -40.2294 H   0  0  0  0  0  0  0  0  0  0  0  0
  -10.6354  -83.6667  -37.4377 H   0  0  0  0  0  0  0  0  0  0  0  0
   -8.4452  -82.5041  -35.3678 H   0  0  0  0  0  0  0  0  0  0  0  0
   -8.0076  -83.8005  -36.5317 H   0  0  0  0  0  0  0  0  0  0  0  0
   -7.1008  -82.2499  -36.5317 H   0  0  0  0  0  0  0  0  0  0  0  0
   -8.1125  -80.3296  -37.9177 H   0  0  0  0  0  0  0  0  0  0  0  0
  1  2  2  0
  1  6  1  0
  2  3  1  0
  3  4  2  0
  4  5  1  0
  5  6  2  0
  6  7  1  0
  7  8  2  0
  7  9  1  0
  8 16  1  0
  9 10  2  0
 10 11  1  0
 10 15  1  0
 11 12  2  0
 12 13  1  0
 13 14  2  0
 14 15  1  0
 15 16  2  0
 16 17  1  0
 17 18  1  0
 18 19  1  0
 18 23  2  0
 19 20  2  0
 20 21  1  0
 20 22  1  0
 22 23  1  0
  1 24  1  0
  2 25  1  0
  3 26  1  0
  4 27  1  0
  5 28  1  0
 11 29  1  0
 12 30  1  0
 13 31  1  0
 14 32  1  0
 17 33  1  0
 19 34  1  0
 21 35  1  0
 21 36  1  0
 21 37  1  0
 22 38  1  0
A    1
CAK
A    2
CAL
A    3
CAM
A    4
CAN
A    5
CAO
A    6
CAP
A    7
C2
A    8
N1
A    9
N3
A   10
C4
A   11
CAA
A   12
CAB
A   13
CAC
A   14
CAD
A   15
C5
A   16
C6
A   17
NAQ
A   18
CAR
A   19
CAV
A   20
CAU
A   21
CAW
A   22
NAT
A   23
NAS
M  END
