2JDR_L20_A_1480
     RDKit          3D

 53 57  0  0  0  0  0  0  0  0999 V2000
   24.7540    5.1480   42.8080 C   0  0  0  0  0  0  0  0  0  0  0  0
   23.5880    6.0490   42.6400 C   0  0  0  0  0  0  0  0  0  0  0  0
   23.5550    7.3540   42.7790 N   0  0  0  0  0  0  0  0  0  0  0  0
   22.2600    7.8520   42.5400 N   0  0  0  0  0  0  0  0  0  0  0  0
   21.4500    6.7790   42.2150 C   0  0  0  0  0  0  0  0  0  0  0  0
   20.1050    6.6630   41.9140 C   0  0  0  0  0  0  0  0  0  0  0  0
   19.5860    5.4320   41.6350 C   0  0  0  0  0  0  0  0  0  0  0  0
   20.3710    4.2610   41.6810 C   0  0  0  0  0  0  0  0  0  0  0  0
   21.7160    4.3580   42.0190 C   0  0  0  0  0  0  0  0  0  0  0  0
   22.2490    5.6180   42.2680 C   0  0  0  0  0  0  0  0  0  0  0  0
   19.7380    2.9220   41.4290 C   0  0  0  0  0  0  0  0  0  0  0  0
   18.7750    2.7080   40.4540 C   0  0  0  0  0  0  0  0  0  0  0  0
   18.2430    1.5120   40.2990 N   0  0  0  0  0  0  0  0  0  0  0  0
   18.5720    0.4950   41.0490 C   0  0  0  0  0  0  0  0  0  0  0  0
   19.5030    0.6170   42.0680 C   0  0  0  0  0  0  0  0  0  0  0  0
   19.7380   -0.5100   42.7790 O   0  0  0  0  0  0  0  0  0  0  0  0
   20.3600   -0.6170   44.0300 C   0  0  0  0  0  0  0  0  0  0  0  0
   20.6140   -2.1200   44.0980 C   0  0  0  0  0  0  0  0  0  0  0  0
   19.4080   -2.8910   43.8140 N   0  0  0  0  0  0  0  0  0  0  0  0
   21.5730   -2.5550   43.0010 C   0  0  0  0  0  0  0  0  0  0  0  0
   22.9410   -1.9760   43.2520 C   0  0  0  0  0  0  0  0  0  0  0  0
   23.8490   -2.5050   44.1090 C   0  0  0  0  0  0  0  0  0  0  0  0
   24.9860   -1.7200   44.0820 N   0  0  0  0  0  0  0  0  0  0  0  0
   24.8190   -0.6610   43.1940 C   0  0  0  0  0  0  0  0  0  0  0  0
   25.6390    0.4150   42.7960 C   0  0  0  0  0  0  0  0  0  0  0  0
   25.2240    1.3550   41.8630 C   0  0  0  0  0  0  0  0  0  0  0  0
   23.9530    1.2400   41.3080 C   0  0  0  0  0  0  0  0  0  0  0  0
   23.1210    0.1960   41.6930 C   0  0  0  0  0  0  0  0  0  0  0  0
   23.5320   -0.7740   42.6430 C   0  0  0  0  0  0  0  0  0  0  0  0
   20.0980    1.8320   42.2610 C   0  0  0  0  0  0  0  0  0  0  0  0
   24.9493    4.9971   43.8800 H   0  0  0  0  0  0  0  0  0  0  0  0
   24.5396    4.1786   42.3343 H   0  0  0  0  0  0  0  0  0  0  0  0
   25.6379    5.6000   42.3343 H   0  0  0  0  0  0  0  0  0  0  0  0
   21.9682    8.8382   42.5969 H   0  0  0  0  0  0  0  0  0  0  0  0
   19.4601    7.5540   41.8996 H   0  0  0  0  0  0  0  0  0  0  0  0
   18.5225    5.3505   41.3659 H   0  0  0  0  0  0  0  0  0  0  0  0
   22.3447    3.4580   42.0879 H   0  0  0  0  0  0  0  0  0  0  0  0
   18.4543    3.5388   39.8082 H   0  0  0  0  0  0  0  0  0  0  0  0
   18.0990   -0.4814   40.8676 H   0  0  0  0  0  0  0  0  0  0  0  0
   21.2996   -0.0461   44.0647 H   0  0  0  0  0  0  0  0  0  0  0  0
   19.7688   -0.2176   44.8672 H   0  0  0  0  0  0  0  0  0  0  0  0
   20.9969   -2.3004   45.1133 H   0  0  0  0  0  0  0  0  0  0  0  0
   18.9650   -3.1742   44.6997 H   0  0  0  0  0  0  0  0  0  0  0  0
   18.7509   -2.3129   43.2709 H   0  0  0  0  0  0  0  0  0  0  0  0
   21.6389   -3.6530   42.9892 H   0  0  0  0  0  0  0  0  0  0  0  0
   21.2003   -2.1928   42.0315 H   0  0  0  0  0  0  0  0  0  0  0  0
   23.7049   -3.4068   44.7222 H   0  0  0  0  0  0  0  0  0  0  0  0
   25.8350   -1.8935   44.6388 H   0  0  0  0  0  0  0  0  0  0  0  0
   26.6408    0.5126   43.2397 H   0  0  0  0  0  0  0  0  0  0  0  0
   25.8899    2.1788   41.5666 H   0  0  0  0  0  0  0  0  0  0  0  0
   23.6076    1.9745   40.5656 H   0  0  0  0  0  0  0  0  0  0  0  0
   22.1173    0.1196   41.2495 H   0  0  0  0  0  0  0  0  0  0  0  0
   20.8489    1.9630   43.0541 H   0  0  0  0  0  0  0  0  0  0  0  0
  1  2  1  0
  2  3  2  0
  2 10  1  0
  3  4  1  0
  4  5  1  0
  5  6  1  0
  5 10  2  0
  6  7  2  0
  7  8  1  0
  8  9  2  0
  8 11  1  0
  9 10  1  0
 11 12  2  0
 11 30  1  0
 12 13  1  0
 13 14  2  0
 14 15  1  0
 15 16  1  0
 15 30  2  0
 16 17  1  0
 17 18  1  0
 18 19  1  0
 18 20  1  0
 20 21  1  0
 21 22  2  0
 21 29  1  0
 22 23  1  0
 23 24  1  0
 24 25  1  0
 24 29  2  0
 25 26  2  0
 26 27  1  0
 27 28  2  0
 28 29  1  0
  1 31  1  0
  1 32  1  0
  1 33  1  0
  4 34  1  0
  6 35  1  0
  7 36  1  0
  9 37  1  0
 12 38  1  0
 14 39  1  0
 17 40  1  0
 17 41  1  0
 18 42  1  0
 19 43  1  0
 19 44  1  0
 20 45  1  0
 20 46  1  0
 22 47  1  0
 23 48  1  0
 25 49  1  0
 26 50  1  0
 27 51  1  0
 28 52  1  0
 30 53  1  0
A    1
C1
A    2
C2
A    3
N3
A    4
N4
A    5
C6
A    6
C7
A    7
C8
A    8
C9
A    9
C10
A   10
C11
A   11
C12
A   12
C13
A   13
N14
A   14
C15
A   15
C16
A   16
O17
A   17
C18
A   18
C19
A   19
N21
A   20
C25
A   21
C26
A   22
C27
A   23
N28
A   24
C30
A   25
C31
A   26
C32
A   27
C33
A   28
C34
A   29
C35
A   30
C36
M  END
