2JEW_720_A_1310
     RDKit          3D

 38 38  0  0  0  0  0  0  0  0999 V2000
   79.4660   16.3410   -0.6950 N   0  0  0  0  0  0  0  0  0  0  0  0
   80.3290   17.2560   -1.4440 C   0  0  0  0  0  0  0  0  0  0  0  0
   80.1640   24.3510    3.2950 C   0  0  0  0  0  0  0  0  0  0  0  0
   82.9680   27.6400    2.1870 C   0  0  0  0  0  0  0  0  0  0  0  0
   82.2210   25.2580    2.5410 C   0  0  0  0  0  0  0  0  0  0  0  0
   82.0740   26.4970    1.6750 C   0  0  0  0  0  0  0  0  0  0  0  0
   80.9250   18.3120   -0.4950 C   0  0  0  0  0  0  0  0  0  0  0  0
   79.8310   19.3380   -0.0960 C   0  0  0  0  0  0  0  0  0  0  0  0
   80.3960   20.3740    0.8910 C   0  0  0  0  0  0  0  0  0  0  0  0
   79.2870   21.4050    1.2370 C   0  0  0  0  0  0  0  0  0  0  0  0
   79.9220   22.5910    1.9040 C   0  0  0  0  0  0  0  0  0  0  0  0
   81.0240   23.2840    1.6310 C   0  0  0  0  0  0  0  0  0  0  0  0
   79.4760   23.3650    2.9890 N   0  0  0  0  0  0  0  0  0  0  0  0
   80.9750   19.8280    2.1520 C   0  0  0  0  0  0  0  0  0  0  0  0
   81.1310   24.3080    2.4560 N   0  0  0  0  0  0  0  0  0  0  0  0
   82.2020   19.9810    2.3710 O   0  0  0  0  0  0  0  0  0  0  0  0
   80.2260   19.2290    2.9540 O   0  0  0  0  0  0  0  0  0  0  0  0
   79.6045   16.4879    0.3150 H   0  0  0  0  0  0  0  0  0  0  0  0
   78.4813   16.5227   -0.9365 H   0  0  0  0  0  0  0  0  0  0  0  0
   81.1445   16.6859   -1.9131 H   0  0  0  0  0  0  0  0  0  0  0  0
   79.7338   17.7613   -2.2189 H   0  0  0  0  0  0  0  0  0  0  0  0
   79.9864   25.0854    4.0944 H   0  0  0  0  0  0  0  0  0  0  0  0
   82.9684   27.6405    3.2870 H   0  0  0  0  0  0  0  0  0  0  0  0
   83.9948   27.4949    1.8200 H   0  0  0  0  0  0  0  0  0  0  0  0
   82.5799   28.6016    1.8200 H   0  0  0  0  0  0  0  0  0  0  0  0
   83.1451   24.7420    2.2412 H   0  0  0  0  0  0  0  0  0  0  0  0
   82.2317   25.6149    3.5815 H   0  0  0  0  0  0  0  0  0  0  0  0
   81.0245   26.8259    1.6936 H   0  0  0  0  0  0  0  0  0  0  0  0
   82.3821   26.2451    0.6495 H   0  0  0  0  0  0  0  0  0  0  0  0
   81.3075   17.8159    0.4092 H   0  0  0  0  0  0  0  0  0  0  0  0
   81.7460   18.8368   -1.0055 H   0  0  0  0  0  0  0  0  0  0  0  0
   79.4740   19.8555   -0.9986 H   0  0  0  0  0  0  0  0  0  0  0  0
   79.0012   18.8021    0.3880 H   0  0  0  0  0  0  0  0  0  0  0  0
   81.2463   20.8351    0.3672 H   0  0  0  0  0  0  0  0  0  0  0  0
   78.7801   21.7264    0.3152 H   0  0  0  0  0  0  0  0  0  0  0  0
   78.5478   20.9477    1.9111 H   0  0  0  0  0  0  0  0  0  0  0  0
   81.7413   23.0391    0.8338 H   0  0  0  0  0  0  0  0  0  0  0  0
   80.3590   19.3353    3.9292 H   0  0  0  0  0  0  0  0  0  0  0  0
  1  2  1  0
  2  7  1  0
  3 13  2  0
  3 15  1  0
  4  6  1  0
  5  6  1  0
  5 15  1  0
  7  8  1  0
  8  9  1  0
  9 10  1  0
  9 14  1  0
 10 11  1  0
 11 12  2  0
 11 13  1  0
 12 15  1  0
 14 16  2  0
 14 17  1  0
  1 18  1  0
  1 19  1  0
  2 20  1  0
  2 21  1  0
  3 22  1  0
  4 23  1  0
  4 24  1  0
  4 25  1  0
  5 26  1  0
  5 27  1  0
  6 28  1  0
  6 29  1  0
  7 30  1  0
  7 31  1  0
  8 32  1  0
  8 33  1  0
  9 34  1  0
 10 35  1  0
 10 36  1  0
 12 37  1  0
 17 38  1  0
A    1
N
A    2
CA
A    3
CG
A    4
CE1
A    5
CE2
A    6
CZ
A    7
CH
A    8
CM
A    9
CA2
A   10
CB2
A   11
CG2
A   12
CD3
A   13
N2
A   14
C
A   15
N1
A   16
O
A   17
OXT
M  END
