2JEY_HLO_A_1543
     RDKit          3D

 41 42  0  0  0  0  0  0  0  0999 V2000
   37.6280   18.1470    9.4860 O   0  0  0  0  0  0  0  0  0  0  0  0
   37.4500   19.1450   10.1520 C   0  0  0  0  0  0  0  0  0  0  0  0
   38.1950   19.3980   11.2320 N   0  0  0  0  0  0  0  0  0  0  0  0
   36.3610   20.0990    9.7810 C   0  0  0  0  0  0  0  0  0  0  0  0
   36.1270   21.2380   10.5530 C   0  0  0  0  0  0  0  0  0  0  0  0
   35.1000   22.1150   10.2160 C   0  0  0  0  0  0  0  0  0  0  0  0
   34.3410   21.8520    9.1500 N   0  0  0  0  0  0  0  0  0  0  0  0
   34.5490   20.7600    8.3910 C   0  0  0  0  0  0  0  0  0  0  0  0
   35.5610   19.8490    8.6820 C   0  0  0  0  0  0  0  0  0  0  0  0
   33.2770   22.7690    8.7720 C   0  0  0  0  0  0  0  0  0  0  0  0
   32.3350   22.9920    9.8050 O   0  0  0  0  0  0  0  0  0  0  0  0
   31.0450   23.1970    9.2280 C   0  0  0  0  0  0  0  0  0  0  0  0
   30.2140   22.1570    9.7890 N   0  0  0  0  0  0  0  0  0  0  0  0
   30.2990   20.9220    9.2770 C   0  0  0  0  0  0  0  0  0  0  0  0
   31.1820   20.5740    8.1300 C   0  0  0  0  0  0  0  0  0  0  0  0
   30.7960   20.6000    6.9260 N   0  0  0  0  0  0  0  0  0  0  0  0
   31.6850   20.2320    5.9380 O   0  0  0  0  0  0  0  0  0  0  0  0
   29.5380   19.8980    9.8320 C   0  0  0  0  0  0  0  0  0  0  0  0
   28.6930   20.1510   10.9050 C   0  0  0  0  0  0  0  0  0  0  0  0
   28.6380   21.4470   11.4310 C   0  0  0  0  0  0  0  0  0  0  0  0
   29.4260   22.4470   10.8450 C   0  0  0  0  0  0  0  0  0  0  0  0
   27.9090   19.0230   11.4630 C   0  0  0  0  0  0  0  0  0  0  0  0
   28.5520   18.0210   11.9100 N   0  0  0  0  0  0  0  0  0  0  0  0
   27.9300   16.8880   12.4610 O   0  0  0  0  0  0  0  0  0  0  0  0
   37.7995   19.2637   12.1735 H   0  0  0  0  0  0  0  0  0  0  0  0
   39.1648   19.7273   11.1230 H   0  0  0  0  0  0  0  0  0  0  0  0
   36.7567   21.4434   11.4312 H   0  0  0  0  0  0  0  0  0  0  0  0
   34.9159   23.0148   10.8214 H   0  0  0  0  0  0  0  0  0  0  0  0
   33.9030   20.5828    7.5185 H   0  0  0  0  0  0  0  0  0  0  0  0
   35.7189   18.9580    8.0566 H   0  0  0  0  0  0  0  0  0  0  0  0
   33.7289   23.7337    8.4977 H   0  0  0  0  0  0  0  0  0  0  0  0
   32.7355   22.3102    7.9316 H   0  0  0  0  0  0  0  0  0  0  0  0
   30.6551   24.1900    9.4961 H   0  0  0  0  0  0  0  0  0  0  0  0
   31.0729   23.1554    8.1291 H   0  0  0  0  0  0  0  0  0  0  0  0
   32.2209   20.2799    8.3400 H   0  0  0  0  0  0  0  0  0  0  0  0
   32.5716   19.8650    6.1815 H   0  0  0  0  0  0  0  0  0  0  0  0
   29.6060   18.8811    9.4182 H   0  0  0  0  0  0  0  0  0  0  0  0
   27.9883   21.6764   12.2885 H   0  0  0  0  0  0  0  0  0  0  0  0
   29.4019   23.4706   11.2470 H   0  0  0  0  0  0  0  0  0  0  0  0
   26.8097   19.0518   11.4894 H   0  0  0  0  0  0  0  0  0  0  0  0
   27.8727   16.7836   13.4438 H   0  0  0  0  0  0  0  0  0  0  0  0
  1  2  2  0
  2  3  1  0
  2  4  1  0
  4  5  2  0
  4  9  1  0
  5  6  1  0
  6  7  2  0
  7  8  1  0
  7 10  1  0
  8  9  2  0
 10 11  1  0
 11 12  1  0
 12 13  1  0
 13 14  2  0
 13 21  1  0
 14 15  1  0
 14 18  1  0
 15 16  2  0
 16 17  1  0
 18 19  2  0
 19 20  1  0
 19 22  1  0
 20 21  2  0
 22 23  2  0
 23 24  1  0
  3 25  1  0
  3 26  1  0
  5 27  1  0
  6 28  1  0
  8 29  1  0
  9 30  1  0
 10 31  1  0
 10 32  1  0
 12 33  1  0
 12 34  1  0
 15 35  1  0
 17 36  1  0
 18 37  1  0
 20 38  1  0
 21 39  1  0
 22 40  1  0
 24 41  1  0
M  CHG  2   7   1  13   1
A    1
O3
A    2
C14
A    3
N4
A    4
C11
A    5
C10
A    6
C9
A    7
N3
A    8
C13
A    9
C12
A   10
C8
A   11
O2
A   12
C7
A   13
N2
A   14
C2
A   15
C1
A   16
N1
A   17
O1
A   18
C3
A   19
C4
A   20
C5
A   21
C6
A   22
C22
A   23
N5
A   24
O4
M  END
