1JGA_HBP_?_528
     RDKit          3D

 51 52  0  0  0  0  0  0  0  0999 V2000
   -0.0810   68.0360   68.7310 C   0  0  0  0  0  0  0  0  0  0  0  0
    0.9680   66.1270   70.0680 C   0  0  0  0  0  0  0  0  0  0  0  0
    1.3440   67.4620   63.9320 O   0  0  0  0  0  0  0  0  0  0  0  0
    1.8610   68.0470   65.0060 N   0  0  0  0  0  0  0  0  0  0  0  0
    1.1360   68.2170   66.1180 C   0  0  0  0  0  0  0  0  0  0  0  0
    1.7330   68.8630   67.2460 C   0  0  0  0  0  0  0  0  0  0  0  0
    2.9650   69.5550   67.1080 C   0  0  0  0  0  0  0  0  0  0  0  0
    2.8330   70.2380   69.4170 C   0  0  0  0  0  0  0  0  0  0  0  0
    1.6380   69.5110   69.5180 C   0  0  0  0  0  0  0  0  0  0  0  0
    1.1180   68.8380   68.4640 N   0  0  0  0  0  0  0  0  0  0  0  0
    0.2010   66.5320   68.8070 C   0  0  0  0  0  0  0  0  0  0  0  0
    3.5080   70.2650   68.1920 C   0  0  0  0  0  0  0  0  0  0  0  0
    0.7850   64.6290   70.3790 C   0  0  0  0  0  0  0  0  0  0  0  0
    1.4630   64.3200   71.7160 C   0  0  0  0  0  0  0  0  0  0  0  0
    1.4370   62.8520   72.1600 C   0  0  0  0  0  0  0  0  0  0  0  0
    0.0150   62.3890   72.4890 C   0  0  0  0  0  0  0  0  0  0  0  0
   -0.0280   61.0770   73.1700 N   0  0  0  0  0  0  0  0  0  0  0  0
   -0.2980   61.1050   74.4970 C   0  0  0  0  0  0  0  0  0  0  0  0
   -0.4350   59.9370   75.2630 C   0  0  0  0  0  0  0  0  0  0  0  0
   -0.2420   58.6950   74.6480 C   0  0  0  0  0  0  0  0  0  0  0  0
    0.0860   58.6710   73.2830 C   0  0  0  0  0  0  0  0  0  0  0  0
    0.1800   59.8780   72.5420 C   0  0  0  0  0  0  0  0  0  0  0  0
    0.4920   59.8320   71.1500 C   0  0  0  0  0  0  0  0  0  0  0  0
    0.8860   58.6840   70.5850 N   0  0  0  0  0  0  0  0  0  0  0  0
    1.1790   58.7360   69.2950 O   0  0  0  0  0  0  0  0  0  0  0  0
   -0.5111   68.3596   69.6903 H   0  0  0  0  0  0  0  0  0  0  0  0
   -0.7737   68.1958   67.8916 H   0  0  0  0  0  0  0  0  0  0  0  0
    2.0380   66.3335   69.9182 H   0  0  0  0  0  0  0  0  0  0  0  0
    0.5739   66.7077   70.9151 H   0  0  0  0  0  0  0  0  0  0  0  0
    0.6920   66.7243   64.0357 H   0  0  0  0  0  0  0  0  0  0  0  0
    0.0950   67.8647   66.1639 H   0  0  0  0  0  0  0  0  0  0  0  0
    3.4980   69.5351   66.1459 H   0  0  0  0  0  0  0  0  0  0  0  0
    3.2333   70.7785   70.2874 H   0  0  0  0  0  0  0  0  0  0  0  0
    1.1076   69.4867   70.4814 H   0  0  0  0  0  0  0  0  0  0  0  0
   -0.7589   65.9949   68.7936 H   0  0  0  0  0  0  0  0  0  0  0  0
    0.8307   66.2727   67.9431 H   0  0  0  0  0  0  0  0  0  0  0  0
    4.4448   70.8306   68.0797 H   0  0  0  0  0  0  0  0  0  0  0  0
   -0.2873   64.3926   70.4442 H   0  0  0  0  0  0  0  0  0  0  0  0
    1.2364   64.0221   69.5803 H   0  0  0  0  0  0  0  0  0  0  0  0
    2.5157   64.6296   71.6389 H   0  0  0  0  0  0  0  0  0  0  0  0
    0.8864   64.8694   72.4747 H   0  0  0  0  0  0  0  0  0  0  0  0
    1.8377   62.2263   71.3488 H   0  0  0  0  0  0  0  0  0  0  0  0
    2.0496   62.7559   73.0686 H   0  0  0  0  0  0  0  0  0  0  0  0
   -0.4538   63.1382   73.1439 H   0  0  0  0  0  0  0  0  0  0  0  0
   -0.5219   62.2798   71.5352 H   0  0  0  0  0  0  0  0  0  0  0  0
   -0.4143   62.0799   74.9930 H   0  0  0  0  0  0  0  0  0  0  0  0
   -0.6904   59.9970   76.3313 H   0  0  0  0  0  0  0  0  0  0  0  0
   -0.3447   57.7608   75.2196 H   0  0  0  0  0  0  0  0  0  0  0  0
    0.2717   57.7086   72.7836 H   0  0  0  0  0  0  0  0  0  0  0  0
    0.4084   60.7430   70.5392 H   0  0  0  0  0  0  0  0  0  0  0  0
    2.1111   58.9014   69.0054 H   0  0  0  0  0  0  0  0  0  0  0  0
  1 10  1  0
  1 11  1  0
  2 11  1  0
  2 13  1  0
  3  4  1  0
  4  5  2  0
  5  6  1  0
  6  7  2  0
  6 10  1  0
  7 12  1  0
  8  9  1  0
  8 12  2  0
  9 10  2  0
 13 14  1  0
 14 15  1  0
 15 16  1  0
 16 17  1  0
 17 18  2  0
 17 22  1  0
 18 19  1  0
 19 20  2  0
 20 21  1  0
 21 22  2  0
 22 23  1  0
 23 24  2  0
 24 25  1  0
  1 26  1  0
  1 27  1  0
  2 28  1  0
  2 29  1  0
  3 30  1  0
  5 31  1  0
  7 32  1  0
  8 33  1  0
  9 34  1  0
 11 35  1  0
 11 36  1  0
 12 37  1  0
 13 38  1  0
 13 39  1  0
 14 40  1  0
 14 41  1  0
 15 42  1  0
 15 43  1  0
 16 44  1  0
 16 45  1  0
 18 46  1  0
 19 47  1  0
 20 48  1  0
 21 49  1  0
 23 50  1  0
 25 51  1  0
M  CHG  2  10   1  17   1
A    1
C1
A    2
C5
A    3
O10
A    4
N9
A    5
C8A
A    6
C7
A    7
C6
A    8
C4
A    9
C3
A   10
N2
A   11
C2
A   12
C5A
A   13
C8
A   14
C11
A   15
C14
A   16
C17
A   17
N20
A   18
C21
A   19
C22
A   20
C23
A   21
C24
A   22
C25
A   23
C26
A   24
N27
A   25
O28
M  END
