2JF4_VDM_A_1548
     RDKit          3D

 48 49  0  0  0  0  0  0  0  0999 V2000
   29.3480   51.1170   15.0070 O   0  0  0  0  0  0  0  0  0  0  0  0
   30.4530   51.0700   14.1080 C   0  0  0  0  0  0  0  0  0  0  0  0
   30.1730   52.1660   13.1190 C   0  0  0  0  0  0  0  0  0  0  0  0
   29.6470   51.8400   11.9170 C   0  0  0  0  0  0  0  0  0  0  0  0
   30.4060   53.5980   13.5600 C   0  0  0  0  0  0  0  0  0  0  0  0
   31.6810   53.8010   14.1500 O   0  0  0  0  0  0  0  0  0  0  0  0
   30.2820   54.5860   12.4220 C   0  0  0  0  0  0  0  0  0  0  0  0
   30.2030   55.8860   13.0200 O   0  0  0  0  0  0  0  0  0  0  0  0
   29.0530   54.2270   11.5790 C   0  0  0  0  0  0  0  0  0  0  0  0
   28.7160   55.3020   10.6960 O   0  0  0  0  0  0  0  0  0  0  0  0
   29.3270   52.8890   10.8540 C   0  0  0  0  0  0  0  0  0  0  0  0
   30.4380   52.9570    9.8930 N   0  0  0  0  0  0  0  0  0  0  0  0
   31.1980   51.7480    9.5260 C   0  0  0  0  0  0  0  0  0  0  0  0
   32.6950   51.9990    9.3400 C   0  0  0  0  0  0  0  0  0  0  0  0
   33.2030   52.8780   10.3480 O   0  0  0  0  0  0  0  0  0  0  0  0
   30.5730   50.9450    8.3630 C   0  0  0  0  0  0  0  0  0  0  0  0
   31.0630   51.3040    6.9550 C   0  0  0  0  0  0  0  0  0  0  0  0
   30.5460   50.3000    5.9240 C   0  0  0  0  0  0  0  0  0  0  0  0
   29.1050   50.2800    5.9320 O   0  0  0  0  0  0  0  0  0  0  0  0
   32.5910   51.4640    6.9100 C   0  0  0  0  0  0  0  0  0  0  0  0
   33.0270   51.8160    5.5890 O   0  0  0  0  0  0  0  0  0  0  0  0
   33.0170   52.5180    7.9340 C   0  0  0  0  0  0  0  0  0  0  0  0
   34.4160   52.7770    7.7980 O   0  0  0  0  0  0  0  0  0  0  0  0
   29.6804   51.1029   15.9394 H   0  0  0  0  0  0  0  0  0  0  0  0
   31.3970   51.2574   14.6406 H   0  0  0  0  0  0  0  0  0  0  0  0
   30.5620   50.0869   13.6266 H   0  0  0  0  0  0  0  0  0  0  0  0
   29.4423   50.7819   11.6968 H   0  0  0  0  0  0  0  0  0  0  0  0
   29.6178   53.7740   14.3068 H   0  0  0  0  0  0  0  0  0  0  0  0
   31.5943   53.7872   15.1361 H   0  0  0  0  0  0  0  0  0  0  0  0
   31.1408   54.5643   11.7349 H   0  0  0  0  0  0  0  0  0  0  0  0
   30.2084   55.7966   14.0059 H   0  0  0  0  0  0  0  0  0  0  0  0
   28.1682   54.0843   12.2167 H   0  0  0  0  0  0  0  0  0  0  0  0
   28.4661   56.0993   11.2271 H   0  0  0  0  0  0  0  0  0  0  0  0
   28.4296   52.6330   10.2716 H   0  0  0  0  0  0  0  0  0  0  0  0
   30.0461   53.3337    9.0181 H   0  0  0  0  0  0  0  0  0  0  0  0
   31.1149   51.0940   10.4065 H   0  0  0  0  0  0  0  0  0  0  0  0
   33.2033   51.0299    9.4518 H   0  0  0  0  0  0  0  0  0  0  0  0
   32.9911   52.5114   11.2429 H   0  0  0  0  0  0  0  0  0  0  0  0
   30.7920   49.8806    8.5338 H   0  0  0  0  0  0  0  0  0  0  0  0
   29.5015   51.1933    8.3750 H   0  0  0  0  0  0  0  0  0  0  0  0
   30.6434   52.2849    6.6873 H   0  0  0  0  0  0  0  0  0  0  0  0
   30.9003   50.5903    4.9239 H   0  0  0  0  0  0  0  0  0  0  0  0
   30.9215   49.2977    6.1776 H   0  0  0  0  0  0  0  0  0  0  0  0
   28.7802   50.2755    6.8672 H   0  0  0  0  0  0  0  0  0  0  0  0
   33.0665   50.5058    7.1663 H   0  0  0  0  0  0  0  0  0  0  0  0
   33.7958   52.4367    5.6497 H   0  0  0  0  0  0  0  0  0  0  0  0
   32.4721   53.4584    7.7642 H   0  0  0  0  0  0  0  0  0  0  0  0
   34.8263   52.8530    8.6957 H   0  0  0  0  0  0  0  0  0  0  0  0
  1  2  1  0
  2  3  1  0
  3  4  2  0
  3  5  1  0
  4 11  1  0
  5  6  1  0
  5  7  1  0
  7  8  1  0
  7  9  1  0
  9 10  1  0
  9 11  1  0
 11 12  1  0
 12 13  1  0
 13 14  1  0
 13 16  1  0
 14 15  1  0
 14 22  1  0
 16 17  1  0
 17 18  1  0
 17 20  1  0
 18 19  1  0
 20 21  1  0
 20 22  1  0
 22 23  1  0
  1 24  1  0
  2 25  1  0
  2 26  1  0
  4 27  1  0
  5 28  1  0
  6 29  1  0
  7 30  1  0
  8 31  1  0
  9 32  1  0
 10 33  1  0
 11 34  1  0
 12 35  1  0
 13 36  1  0
 14 37  1  0
 15 38  1  0
 16 39  1  0
 16 40  1  0
 17 41  1  0
 18 42  1  0
 18 43  1  0
 19 44  1  0
 20 45  1  0
 21 46  1  0
 22 47  1  0
 23 48  1  0
A    1
O7
A    2
C7
A    3
C5
A    4
C6
A    5
C4
A    6
O4
A    7
C3
A    8
O3
A    9
C2
A   10
O2
A   11
C1
A   12
N1'
A   13
C1'
A   14
C2'
A   15
O2'
A   16
C6'
A   17
C5'
A   18
C7'
A   19
O7'
A   20
C4'
A   21
O4'
A   22
C3'
A   23
O3'
M  END
