2JFF_LK2_A_1440
     RDKit          3D

 51 52  0  0  0  0  0  0  0  0999 V2000
  -22.0190    5.6770   19.3350 O   0  0  0  0  0  0  0  0  0  0  0  0
  -21.9440    4.5360   18.4290 S   0  0  0  0  0  0  0  0  0  0  0  0
  -21.5980    4.9850   17.0550 O   0  0  0  0  0  0  0  0  0  0  0  0
  -23.4250    3.8850   18.3550 N   0  0  0  0  0  0  0  0  0  0  0  0
  -24.2530    3.7370   19.5640 C   0  0  0  0  0  0  0  0  0  0  0  0
  -24.9150    5.0380   20.0050 C   0  0  0  0  0  0  0  0  0  0  0  0
  -25.2850    5.8350   19.1220 O   0  0  0  0  0  0  0  0  0  0  0  0
  -25.0870    5.2830   21.2310 O   0  0  0  0  0  0  0  0  0  0  0  0
  -25.3040    2.6510   19.2910 C   0  0  0  0  0  0  0  0  0  0  0  0
  -26.3460    2.5600   20.4160 C   0  0  0  0  0  0  0  0  0  0  0  0
  -27.2290    1.3350   20.2880 C   0  0  0  0  0  0  0  0  0  0  0  0
  -28.0300    1.1560   21.2340 O   0  0  0  0  0  0  0  0  0  0  0  0
  -27.1460    0.5700   19.2940 O   0  0  0  0  0  0  0  0  0  0  0  0
  -20.8850    3.4240   18.9710 C   0  0  0  0  0  0  0  0  0  0  0  0
  -20.6850    3.2660   20.3470 C   0  0  0  0  0  0  0  0  0  0  0  0
  -19.7860    2.3120   20.8480 C   0  0  0  0  0  0  0  0  0  0  0  0
  -19.0670    1.4980   19.9670 C   0  0  0  0  0  0  0  0  0  0  0  0
  -19.2560    1.6350   18.5730 C   0  0  0  0  0  0  0  0  0  0  0  0
  -20.1750    2.5890   18.0920 C   0  0  0  0  0  0  0  0  0  0  0  0
  -18.1690    0.5510   20.4830 C   0  0  0  0  0  0  0  0  0  0  0  0
  -17.4530   -0.2710   19.5830 C   0  0  0  0  0  0  0  0  0  0  0  0
  -17.6290   -0.1490   18.1910 C   0  0  0  0  0  0  0  0  0  0  0  0
  -18.5380    0.8140   17.6750 C   0  0  0  0  0  0  0  0  0  0  0  0
  -16.5530   -1.2000   20.0870 O   0  0  0  0  0  0  0  0  0  0  0  0
  -15.9440   -1.0340   21.3780 C   0  0  0  0  0  0  0  0  0  0  0  0
  -14.5000   -1.5200   21.3490 C   0  0  0  0  0  0  0  0  0  0  0  0
  -13.5990   -0.6210   20.5160 C   0  0  0  0  0  0  0  0  0  0  0  0
  -12.1790   -1.1210   20.6040 C   0  0  0  0  0  0  0  0  0  0  0  0
  -23.9669    4.4654   17.6989 H   0  0  0  0  0  0  0  0  0  0  0  0
  -23.5983    3.4469   20.3990 H   0  0  0  0  0  0  0  0  0  0  0  0
  -24.6759    4.6974   21.9152 H   0  0  0  0  0  0  0  0  0  0  0  0
  -25.8196    2.8853   18.3480 H   0  0  0  0  0  0  0  0  0  0  0  0
  -24.7840    1.6835   19.2316 H   0  0  0  0  0  0  0  0  0  0  0  0
  -25.8206    2.5174   21.3815 H   0  0  0  0  0  0  0  0  0  0  0  0
  -26.9920    3.4477   20.3474 H   0  0  0  0  0  0  0  0  0  0  0  0
  -27.7146    1.2265   22.1698 H   0  0  0  0  0  0  0  0  0  0  0  0
  -21.2434    3.9020   21.0496 H   0  0  0  0  0  0  0  0  0  0  0  0
  -19.6468    2.2045   21.9338 H   0  0  0  0  0  0  0  0  0  0  0  0
  -20.3395    2.6816   17.0083 H   0  0  0  0  0  0  0  0  0  0  0  0
  -18.0248    0.4501   21.5688 H   0  0  0  0  0  0  0  0  0  0  0  0
  -17.0643   -0.7974   17.5049 H   0  0  0  0  0  0  0  0  0  0  0  0
  -18.6808    0.9189   16.5894 H   0  0  0  0  0  0  0  0  0  0  0  0
  -15.9629    0.0307   21.6538 H   0  0  0  0  0  0  0  0  0  0  0  0
  -16.5053   -1.6250   22.1167 H   0  0  0  0  0  0  0  0  0  0  0  0
  -14.1161   -1.5467   22.3795 H   0  0  0  0  0  0  0  0  0  0  0  0
  -14.4929   -2.5190   20.8886 H   0  0  0  0  0  0  0  0  0  0  0  0
  -13.9305   -0.6384   19.4673 H   0  0  0  0  0  0  0  0  0  0  0  0
  -13.6516    0.4094   20.8975 H   0  0  0  0  0  0  0  0  0  0  0  0
  -11.8908   -1.2225   21.6607 H   0  0  0  0  0  0  0  0  0  0  0  0
  -12.1035   -2.0998   20.1077 H   0  0  0  0  0  0  0  0  0  0  0  0
  -11.5069   -0.4055   20.1077 H   0  0  0  0  0  0  0  0  0  0  0  0
  1  2  2  0
  2  3  2  0
  2  4  1  0
  2 14  1  0
  4  5  1  0
  5  6  1  0
  5  9  1  0
  6  7  2  0
  6  8  1  0
  9 10  1  0
 10 11  1  0
 11 12  1  0
 11 13  2  0
 14 15  2  0
 14 19  1  0
 15 16  1  0
 16 17  2  0
 17 18  1  0
 17 20  1  0
 18 19  2  0
 18 23  1  0
 20 21  2  0
 21 22  1  0
 21 24  1  0
 22 23  2  0
 24 25  1  0
 25 26  1  0
 26 27  1  0
 27 28  1  0
  4 29  1  0
  5 30  1  0
  8 31  1  0
  9 32  1  0
  9 33  1  0
 10 34  1  0
 10 35  1  0
 12 36  1  0
 15 37  1  0
 16 38  1  0
 19 39  1  0
 20 40  1  0
 22 41  1  0
 23 42  1  0
 25 43  1  0
 25 44  1  0
 26 45  1  0
 26 46  1  0
 27 47  1  0
 27 48  1  0
 28 49  1  0
 28 50  1  0
 28 51  1  0
A    1
O32
A    2
S11
A    3
O33
A    4
N
A    5
CA
A    6
C
A    7
O
A    8
OXT
A    9
CB
A   10
CG
A   11
CD
A   12
OE2
A   13
OE1
A   14
C12
A   15
C13
A   16
C14
A   17
C15
A   18
C16
A   19
C17
A   20
C21
A   21
C20
A   22
C19
A   23
C18
A   24
O22
A   25
C23
A   26
C24
A   27
C29
A   28
C44
M  END
