1J06_AE3_A_902
     RDKit          3D

 23 22  0  0  0  0  0  0  0  0999 V2000
   39.9540   27.2670    8.2620 C   0  0  0  0  0  0  0  0  0  0  0  0
   38.9340   26.3680    7.6880 C   0  0  0  0  0  0  0  0  0  0  0  0
   38.1370   25.8260    8.7450 O   0  0  0  0  0  0  0  0  0  0  0  0
   37.0390   24.8770    8.2680 C   0  0  0  0  0  0  0  0  0  0  0  0
   36.3150   24.2070    9.2940 C   0  0  0  0  0  0  0  0  0  0  0  0
   35.3420   23.3830    8.6390 O   0  0  0  0  0  0  0  0  0  0  0  0
   33.9570   23.4070    9.3510 C   0  0  0  0  0  0  0  0  0  0  0  0
   33.0180   22.4000    8.9220 C   0  0  0  0  0  0  0  0  0  0  0  0
   31.6520   22.2200    9.2760 O   0  0  0  0  0  0  0  0  0  0  0  0
   39.9048   27.2236    9.3600 H   0  0  0  0  0  0  0  0  0  0  0  0
   40.9526   26.9499    7.9269 H   0  0  0  0  0  0  0  0  0  0  0  0
   39.7649   28.2975    7.9269 H   0  0  0  0  0  0  0  0  0  0  0  0
   38.2924   26.9335    6.9962 H   0  0  0  0  0  0  0  0  0  0  0  0
   39.4270   25.5512    7.1405 H   0  0  0  0  0  0  0  0  0  0  0  0
   36.3211   25.4618    7.6742 H   0  0  0  0  0  0  0  0  0  0  0  0
   37.5509   24.0881    7.6975 H   0  0  0  0  0  0  0  0  0  0  0  0
   36.9955   23.5857    9.8947 H   0  0  0  0  0  0  0  0  0  0  0  0
   35.8329   24.9259    9.9729 H   0  0  0  0  0  0  0  0  0  0  0  0
   34.1284   23.2724   10.4292 H   0  0  0  0  0  0  0  0  0  0  0  0
   33.5014   24.3737    9.0902 H   0  0  0  0  0  0  0  0  0  0  0  0
   33.0022   22.4954    7.8263 H   0  0  0  0  0  0  0  0  0  0  0  0
   33.4315   21.5583    9.4970 H   0  0  0  0  0  0  0  0  0  0  0  0
   31.5654   22.2086   10.2621 H   0  0  0  0  0  0  0  0  0  0  0  0
  1  2  1  0
  2  3  1  0
  3  4  1  0
  4  5  1  0
  5  6  1  0
  6  7  1  0
  7  8  1  0
  8  9  1  0
  1 10  1  0
  1 11  1  0
  1 12  1  0
  2 13  1  0
  2 14  1  0
  4 15  1  0
  4 16  1  0
  5 17  1  0
  5 18  1  0
  7 19  1  0
  7 20  1  0
  8 21  1  0
  8 22  1  0
  9 23  1  0
A    1
C1
A    2
C2
A    3
O2
A    4
C3
A    5
C4
A    6
O3
A    7
C5
A    8
C6
A    9
O4
M  END
