2JHG_IBO_A_404
     RDKit          3D

 15 14  0  0  0  0  0  0  0  0999 V2000
   -2.5130   -0.7740  -19.6640 C   0  0  0  0  0  0  0  0  0  0  0  0
   -2.3140   -1.9340  -20.5760 C   0  0  0  0  0  0  0  0  0  0  0  0
   -1.1810   -2.2700  -21.0230 N   0  0  0  0  0  0  0  0  0  0  0  0
   -3.3390   -2.7240  -20.8230 O   0  0  0  0  0  0  0  0  0  0  0  0
   -1.3510   -0.5960  -18.7300 C   0  0  0  0  0  0  0  0  0  0  0  0
   -2.8950    0.5220  -20.3770 C   0  0  0  0  0  0  0  0  0  0  0  0
   -3.3923   -1.0251  -19.0527 H   0  0  0  0  0  0  0  0  0  0  0  0
   -0.4166   -2.4967  -20.3709 H   0  0  0  0  0  0  0  0  0  0  0  0
   -1.0217   -2.3172  -22.0395 H   0  0  0  0  0  0  0  0  0  0  0  0
   -1.7049   -0.6502  -17.6899 H   0  0  0  0  0  0  0  0  0  0  0  0
   -0.6124   -1.3915  -18.9079 H   0  0  0  0  0  0  0  0  0  0  0  0
   -0.8844    0.3841  -18.9079 H   0  0  0  0  0  0  0  0  0  0  0  0
   -3.1235    1.2973  -19.6309 H   0  0  0  0  0  0  0  0  0  0  0  0
   -2.0568    0.8548  -21.0067 H   0  0  0  0  0  0  0  0  0  0  0  0
   -3.7798    0.3470  -21.0067 H   0  0  0  0  0  0  0  0  0  0  0  0
  2  1  1  0
  4  2  2  0
  2  3  1  0
  1  5  1  0
  1  6  1  0
  1  7  1  0
  3  8  1  0
  3  9  1  0
  5 10  1  0
  5 11  1  0
  5 12  1  0
  6 13  1  0
  6 14  1  0
  6 15  1  0
A    1
CA
A    2
C
A    3
NA
A    4
O2
A    5
CB1
A    6
CB2
M  END
