2JI6_OXK_A_1569
     RDKit          3D

 89 91  0  0  0  0  0  0  0  0999 V2000
   81.4380  -25.0210    0.6860 C   0  0  0  0  0  0  0  0  0  0  0  0
   82.7260  -24.8770    1.0370 N   0  0  0  0  0  0  0  0  0  0  0  0
   82.9460  -25.5650    2.1600 C   0  0  0  0  0  0  0  0  0  0  0  0
   81.7540  -26.1740    2.5170 C   0  0  0  0  0  0  0  0  0  0  0  0
   80.8330  -25.8260    1.5860 N   0  0  0  0  0  0  0  0  0  0  0  0
   84.0600  -25.7530    2.9190 N   0  0  0  0  0  0  0  0  0  0  0  0
   84.0080  -26.5120    4.0160 C   0  0  0  0  0  0  0  0  0  0  0  0
   82.8710  -27.1170    4.3900 N   0  0  0  0  0  0  0  0  0  0  0  0
   81.7310  -26.9600    3.6700 C   0  0  0  0  0  0  0  0  0  0  0  0
   80.5860  -27.5720    4.0590 N   0  0  0  0  0  0  0  0  0  0  0  0
   83.7850  -24.0940    0.3470 C   0  0  0  0  0  0  0  0  0  0  0  0
   83.7910  -24.2110   -1.1810 C   0  0  0  0  0  0  0  0  0  0  0  0
   84.5630  -25.3070   -1.6720 O   0  0  0  0  0  0  0  0  0  0  0  0
   84.3810  -22.8710   -1.5590 C   0  0  0  0  0  0  0  0  0  0  0  0
   85.8010  -22.8790   -1.4320 O   0  0  0  0  0  0  0  0  0  0  0  0
   83.8520  -21.9200   -0.4930 C   0  0  0  0  0  0  0  0  0  0  0  0
   83.6130  -22.7120    0.6630 O   0  0  0  0  0  0  0  0  0  0  0  0
   82.5530  -21.2150   -0.8560 C   0  0  0  0  0  0  0  0  0  0  0  0
   81.5830  -22.1310   -1.3610 O   0  0  0  0  0  0  0  0  0  0  0  0
   80.5350  -21.6520   -2.4850 P   0  0  0  0  0  0  0  0  0  0  0  0
   79.7460  -22.8600   -2.9260 O   0  0  0  0  0  0  0  0  0  0  0  0
   79.8030  -20.4440   -1.9560 O   0  0  0  0  0  0  0  0  0  0  0  0
   81.5290  -21.2190   -3.6830 O   0  0  0  0  0  0  0  0  0  0  0  0
   81.8370  -19.7340   -4.2560 P   0  0  0  0  0  0  0  0  0  0  0  0
   83.2090  -19.7550   -4.9020 O   0  0  0  0  0  0  0  0  0  0  0  0
   81.5000  -18.6510   -3.2530 O   0  0  0  0  0  0  0  0  0  0  0  0
   80.7860  -19.6890   -5.4870 O   0  0  0  0  0  0  0  0  0  0  0  0
   80.7380  -18.5980   -6.4100 C   0  0  0  0  0  0  0  0  0  0  0  0
   79.3020  -18.0920   -6.4680 C   0  0  0  0  0  0  0  0  0  0  0  0
   78.8760  -17.7320   -5.0340 C   0  0  0  0  0  0  0  0  0  0  0  0
   79.2200  -16.8590   -7.3630 C   0  0  0  0  0  0  0  0  0  0  0  0
   78.4130  -19.2100   -7.0130 C   0  0  0  0  0  0  0  0  0  0  0  0
   79.7430  -16.7150   -4.4830 O   0  0  0  0  0  0  0  0  0  0  0  0
   77.4630  -17.2330   -4.9910 C   0  0  0  0  0  0  0  0  0  0  0  0
   76.5090  -17.9800   -5.2130 O   0  0  0  0  0  0  0  0  0  0  0  0
   77.3490  -15.9470   -4.6800 N   0  0  0  0  0  0  0  0  0  0  0  0
   76.1250  -15.1860   -4.5460 C   0  0  0  0  0  0  0  0  0  0  0  0
   76.5800  -13.8310   -4.0350 C   0  0  0  0  0  0  0  0  0  0  0  0
   75.4270  -12.8610   -4.0400 C   0  0  0  0  0  0  0  0  0  0  0  0
   74.5210  -12.9730   -4.8480 O   0  0  0  0  0  0  0  0  0  0  0  0
   75.4860  -11.9060   -3.1110 N   0  0  0  0  0  0  0  0  0  0  0  0
   74.5330  -10.8400   -2.8580 C   0  0  0  0  0  0  0  0  0  0  0  0
   75.0480   -9.6300   -3.6220 C   0  0  0  0  0  0  0  0  0  0  0  0
   76.5800   -9.1000   -2.9540 S   0  0  0  0  0  0  0  0  0  0  0  0
   86.8340  -23.0260   -2.6600 P   0  0  0  0  0  0  0  0  0  0  0  0
   86.4410  -24.3750   -3.2320 O   0  0  0  0  0  0  0  0  0  0  0  0
   86.5860  -21.8480   -3.5700 O   0  0  0  0  0  0  0  0  0  0  0  0
   88.1740  -22.9850   -1.9630 O   0  0  0  0  0  0  0  0  0  0  0  0
   76.5140   -7.5780   -3.7850 C   0  0  0  0  0  0  0  0  0  0  0  0
   75.6720   -7.3620   -4.6550 O   0  0  0  0  0  0  0  0  0  0  0  0
   77.3960   -5.3580   -3.8720 O   0  0  0  0  0  0  0  0  0  0  0  0
   78.4270   -6.8010   -2.6060 O   0  0  0  0  0  0  0  0  0  0  0  0
   77.5090   -6.5120   -3.4010 C   0  0  0  0  0  0  0  0  0  0  0  0
   80.9559  -24.5601   -0.1888 H   0  0  0  0  0  0  0  0  0  0  0  0
   84.9148  -26.6437    4.6246 H   0  0  0  0  0  0  0  0  0  0  0  0
   80.3767  -27.6839    5.0613 H   0  0  0  0  0  0  0  0  0  0  0  0
   79.9251  -27.9252    3.3523 H   0  0  0  0  0  0  0  0  0  0  0  0
   84.7370  -24.5130    0.7051 H   0  0  0  0  0  0  0  0  0  0  0  0
   82.8005  -24.4192   -1.6118 H   0  0  0  0  0  0  0  0  0  0  0  0
   84.9263  -25.8228   -0.9090 H   0  0  0  0  0  0  0  0  0  0  0  0
   84.1232  -22.6043   -2.5946 H   0  0  0  0  0  0  0  0  0  0  0  0
   84.5990  -21.1245   -0.3545 H   0  0  0  0  0  0  0  0  0  0  0  0
   82.1488  -20.7261    0.0426 H   0  0  0  0  0  0  0  0  0  0  0  0
   82.7700  -20.4755   -1.6409 H   0  0  0  0  0  0  0  0  0  0  0  0
   79.4242  -23.3526   -2.1298 H   0  0  0  0  0  0  0  0  0  0  0  0
   83.9051  -19.7657   -4.1981 H   0  0  0  0  0  0  0  0  0  0  0  0
   81.4043  -17.7917   -6.0696 H   0  0  0  0  0  0  0  0  0  0  0  0
   81.0676  -18.9264   -7.4067 H   0  0  0  0  0  0  0  0  0  0  0  0
   78.9515  -18.6518   -4.4355 H   0  0  0  0  0  0  0  0  0  0  0  0
   79.1599  -15.9557   -6.7381 H   0  0  0  0  0  0  0  0  0  0  0  0
   80.1166  -16.8066   -7.9980 H   0  0  0  0  0  0  0  0  0  0  0  0
   78.3243  -16.9258   -7.9980 H   0  0  0  0  0  0  0  0  0  0  0  0
   77.9697  -19.7675   -6.1748 H   0  0  0  0  0  0  0  0  0  0  0  0
   77.6118  -18.7745   -7.6282 H   0  0  0  0  0  0  0  0  0  0  0  0
   79.0178  -19.8924   -7.6282 H   0  0  0  0  0  0  0  0  0  0  0  0
   79.7101  -16.7536   -3.4943 H   0  0  0  0  0  0  0  0  0  0  0  0
   78.2276  -15.4351   -4.5162 H   0  0  0  0  0  0  0  0  0  0  0  0
   75.6197  -15.0863   -5.5180 H   0  0  0  0  0  0  0  0  0  0  0  0
   75.4019  -15.6683   -3.8718 H   0  0  0  0  0  0  0  0  0  0  0  0
   76.9604  -13.9385   -3.0085 H   0  0  0  0  0  0  0  0  0  0  0  0
   77.3754  -13.4477   -4.6911 H   0  0  0  0  0  0  0  0  0  0  0  0
   76.3115  -11.9272   -2.4954 H   0  0  0  0  0  0  0  0  0  0  0  0
   73.5346  -11.1252   -3.2212 H   0  0  0  0  0  0  0  0  0  0  0  0
   74.4397  -10.6287   -1.7825 H   0  0  0  0  0  0  0  0  0  0  0  0
   75.1864   -9.8997   -4.6794 H   0  0  0  0  0  0  0  0  0  0  0  0
   74.3167   -8.8129   -3.5358 H   0  0  0  0  0  0  0  0  0  0  0  0
   86.2571  -25.0063   -2.4919 H   0  0  0  0  0  0  0  0  0  0  0  0
   88.0363  -22.9892   -0.9826 H   0  0  0  0  0  0  0  0  0  0  0  0
   77.3199   -4.5804   -3.2640 H   0  0  0  0  0  0  0  0  0  0  0  0
  1  2  1  0
  2  3  1  0
  3  4  2  0
  1  5  2  0
  4  5  1  0
  3  6  1  0
  6  7  2  0
  7  8  1  0
  4  9  1  0
  8  9  2  0
  9 10  1  0
  2 11  1  0
 11 12  1  0
 12 13  1  0
 12 14  1  0
 14 15  1  0
 14 16  1  0
 11 17  1  0
 16 17  1  0
 16 18  1  0
 18 19  1  0
 19 20  1  0
 20 21  1  0
 20 22  2  0
 20 23  1  0
 23 24  1  0
 24 25  1  0
 24 26  2  0
 24 27  1  0
 27 28  1  0
 28 29  1  0
 29 30  1  0
 29 31  1  0
 29 32  1  0
 30 33  1  0
 30 34  1  0
 34 35  2  0
 34 36  1  0
 36 37  1  0
 37 38  1  0
 38 39  1  0
 39 40  2  0
 39 41  1  0
 41 42  1  0
 42 43  1  0
 43 44  1  0
 15 45  1  0
 45 46  1  0
 45 47  2  0
 45 48  1  0
 44 49  1  0
 49 50  2  0
 49 53  1  0
 51 53  1  0
 52 53  2  0
  1 54  1  0
  7 55  1  0
 10 56  1  0
 10 57  1  0
 11 58  1  0
 12 59  1  0
 13 60  1  0
 14 61  1  0
 16 62  1  0
 18 63  1  0
 18 64  1  0
 21 65  1  0
 25 66  1  0
 28 67  1  0
 28 68  1  0
 30 69  1  0
 31 70  1  0
 31 71  1  0
 31 72  1  0
 32 73  1  0
 32 74  1  0
 32 75  1  0
 33 76  1  0
 36 77  1  0
 37 78  1  0
 37 79  1  0
 38 80  1  0
 38 81  1  0
 41 82  1  0
 42 83  1  0
 42 84  1  0
 43 85  1  0
 43 86  1  0
 46 87  1  0
 48 88  1  0
 51 89  1  0
A    1
C8
A    2
N9
A    3
C4
A    4
C5
A    5
N7
A    6
N3
A    7
C2
A    8
N1
A    9
C6
A   10
N6
A   11
C1'
A   12
C2'
A   13
O2'
A   14
C3'
A   15
O3'
A   16
C4'
A   17
O4'
A   18
C5'
A   19
O5'
A   20
P1
A   21
O11
A   22
O12
A   23
O6
A   24
P2
A   25
O21
A   26
O22
A   27
O7
A   28
CPB
A   29
CPA
A   30
CP7
A   31
CP9
A   32
CP8
A   33
OP3
A   34
CP6
A   35
OP2
A   36
NP2
A   37
CP5
A   38
CP4
A   39
CP3
A   40
OP1
A   41
NP1
A   42
CP2
A   43
CP1
A   44
S
A   45
P3
A   46
O31
A   47
O32
A   48
O33
A   49
CM1
A   50
OM2
A   51
OM3
A   52
OM4
A   53
CM2
M  END
