2JI6_TPW_A_1566
     RDKit          3D

 45 46  0  0  0  0  0  0  0  0999 V2000
   68.0890   -4.0060   -4.3570 C   0  0  0  0  0  0  0  0  0  0  0  0
   73.7090   -4.2100   -3.0790 C   0  0  0  0  0  0  0  0  0  0  0  0
   74.5750   -6.2320   -1.9150 C   0  0  0  0  0  0  0  0  0  0  0  0
   74.8510   -6.9370   -0.3580 S   0  0  0  0  0  0  0  0  0  0  0  0
   74.1750   -5.5260    0.3800 C   0  0  0  0  0  0  0  0  0  0  0  0
   73.7610   -4.5840   -0.5420 C   0  0  0  0  0  0  0  0  0  0  0  0
   73.1570   -3.2780   -0.1200 C   0  0  0  0  0  0  0  0  0  0  0  0
   74.0910   -5.5150    1.8800 C   0  0  0  0  0  0  0  0  0  0  0  0
   75.1580   -6.3390    2.5750 C   0  0  0  0  0  0  0  0  0  0  0  0
   75.0300   -6.1240    3.9610 O   0  0  0  0  0  0  0  0  0  0  0  0
   74.1880   -7.1600    4.8520 P   0  0  0  0  0  0  0  0  0  0  0  0
   75.0930   -8.5080    4.9850 O   0  0  0  0  0  0  0  0  0  0  0  0
   72.8550   -7.5220    4.2310 O   0  0  0  0  0  0  0  0  0  0  0  0
   73.9610   -6.5410    6.1990 O   0  0  0  0  0  0  0  0  0  0  0  0
   76.5060   -8.6210    5.7930 P   0  0  0  0  0  0  0  0  0  0  0  0
   76.4920   -9.8590    6.6200 O   0  0  0  0  0  0  0  0  0  0  0  0
   77.6400   -8.7170    4.8130 O   0  0  0  0  0  0  0  0  0  0  0  0
   76.6560   -7.4330    6.7120 O   0  0  0  0  0  0  0  0  0  0  0  0
   70.1910   -2.9590   -3.5790 N   0  0  0  0  0  0  0  0  0  0  0  0
   69.5390   -4.0840   -4.0220 C   0  0  0  0  0  0  0  0  0  0  0  0
   70.2220   -5.2720   -4.1780 N   0  0  0  0  0  0  0  0  0  0  0  0
   71.5700   -5.3570   -3.8870 C   0  0  0  0  0  0  0  0  0  0  0  0
   72.2120   -6.5260   -4.0620 N   0  0  0  0  0  0  0  0  0  0  0  0
   72.2300   -4.2100   -3.4280 C   0  0  0  0  0  0  0  0  0  0  0  0
   71.5320   -3.0120   -3.2850 C   0  0  0  0  0  0  0  0  0  0  0  0
   74.0070   -4.9870   -1.8290 C   0  0  0  0  0  0  0  0  0  0  0  0
   67.4994   -3.9743   -3.4289 H   0  0  0  0  0  0  0  0  0  0  0  0
   67.8969   -3.0962   -4.9447 H   0  0  0  0  0  0  0  0  0  0  0  0
   67.8004   -4.8899   -4.9447 H   0  0  0  0  0  0  0  0  0  0  0  0
   74.2681   -4.6577   -3.9139 H   0  0  0  0  0  0  0  0  0  0  0  0
   74.0099   -3.1667   -2.9027 H   0  0  0  0  0  0  0  0  0  0  0  0
   74.8266   -6.7264   -2.8648 H   0  0  0  0  0  0  0  0  0  0  0  0
   73.1318   -3.2236    0.9784 H   0  0  0  0  0  0  0  0  0  0  0  0
   73.7632   -2.4492   -0.5144 H   0  0  0  0  0  0  0  0  0  0  0  0
   72.1329   -3.2032   -0.5144 H   0  0  0  0  0  0  0  0  0  0  0  0
   74.1840   -4.4736    2.2218 H   0  0  0  0  0  0  0  0  0  0  0  0
   73.1241   -5.9689    2.1429 H   0  0  0  0  0  0  0  0  0  0  0  0
   75.0156   -7.4056    2.3466 H   0  0  0  0  0  0  0  0  0  0  0  0
   76.1595   -6.0423    2.2300 H   0  0  0  0  0  0  0  0  0  0  0  0
   72.1952   -7.7012    4.9470 H   0  0  0  0  0  0  0  0  0  0  0  0
   76.4948   -9.6150    7.5795 H   0  0  0  0  0  0  0  0  0  0  0  0
   76.6176   -7.7371    7.6534 H   0  0  0  0  0  0  0  0  0  0  0  0
   72.5137   -7.0753   -3.2446 H   0  0  0  0  0  0  0  0  0  0  0  0
   72.4019   -6.8718   -5.0134 H   0  0  0  0  0  0  0  0  0  0  0  0
   72.0548   -2.1090   -2.9368 H   0  0  0  0  0  0  0  0  0  0  0  0
  3  4  1  0
  4  5  1  0
  5  6  2  0
  6  7  1  0
  5  8  1  0
  8  9  1  0
  9 10  1  0
 10 11  1  0
 11 12  1  0
 11 13  1  0
 11 14  2  0
 12 15  1  0
 15 16  1  0
 15 17  2  0
 15 18  1  0
  1 20  1  0
 19 20  2  0
 20 21  1  0
 21 22  2  0
 22 23  1  0
  2 24  1  0
 22 24  1  0
 19 25  1  0
 24 25  2  0
  2 26  1  0
  3 26  2  0
  6 26  1  0
  1 27  1  0
  1 28  1  0
  1 29  1  0
  2 30  1  0
  2 31  1  0
  3 32  1  0
  7 33  1  0
  7 34  1  0
  7 35  1  0
  8 36  1  0
  8 37  1  0
  9 38  1  0
  9 39  1  0
 13 40  1  0
 16 41  1  0
 18 42  1  0
 23 43  1  0
 23 44  1  0
 25 45  1  0
A    1
C2A
A    2
C35
A    3
C2
A    4
S1
A    5
C5
A    6
C4
A    7
C4A
A    8
C5A
A    9
C5B
A   10
O5G
A   11
P1
A   12
O11
A   13
O12
A   14
O13
A   15
P2
A   16
O21
A   17
O22
A   18
O23
A   19
N1'
A   20
C2'
A   21
N3'
A   22
C4'
A   23
N4'
A   24
C5'
A   25
C6'
A   26
C3
M  END
