2JID_GVB_A_1771
     RDKit          3D

 50 52  0  0  0  0  0  0  0  0999 V2000
   51.3190   53.5720   28.8360 C   0  0  0  0  0  0  0  0  0  0  0  0
   51.8780   52.6610   29.7800 O   0  0  0  0  0  0  0  0  0  0  0  0
   51.0210   52.2320   30.7800 C   0  0  0  0  0  0  0  0  0  0  0  0
   49.6810   52.6240   30.7960 C   0  0  0  0  0  0  0  0  0  0  0  0
   48.8470   52.1840   31.8190 C   0  0  0  0  0  0  0  0  0  0  0  0
   51.5240   51.3990   31.7870 C   0  0  0  0  0  0  0  0  0  0  0  0
   52.8560   51.0370   31.7350 O   0  0  0  0  0  0  0  0  0  0  0  0
   53.3270   50.2460   32.8240 C   0  0  0  0  0  0  0  0  0  0  0  0
   50.6970   50.9590   32.8200 C   0  0  0  0  0  0  0  0  0  0  0  0
   49.3530   51.3540   32.8310 C   0  0  0  0  0  0  0  0  0  0  0  0
   48.4930   50.8990   33.8500 N   0  0  0  0  0  0  0  0  0  0  0  0
   49.0570   50.8830   35.2260 C   0  0  0  0  0  0  0  0  0  0  0  0
   47.1100   51.4190   33.7500 C   0  0  0  0  0  0  0  0  0  0  0  0
   46.1730   50.5990   34.6450 C   0  0  0  0  0  0  0  0  0  0  0  0
   46.6710   50.6380   36.0940 C   0  0  0  0  0  0  0  0  0  0  0  0
   46.5390   51.9990   36.6500 N   0  0  0  0  0  0  0  0  0  0  0  0
   48.1210   50.1200   36.1890 C   0  0  0  0  0  0  0  0  0  0  0  0
   48.5960   50.1540   37.6210 C   0  0  0  0  0  0  0  0  0  0  0  0
   49.5010   51.1160   38.0760 C   0  0  0  0  0  0  0  0  0  0  0  0
   49.8600   51.1610   39.4210 C   0  0  0  0  0  0  0  0  0  0  0  0
   49.3230   50.2380   40.3150 C   0  0  0  0  0  0  0  0  0  0  0  0
   48.4280   49.2670   39.8680 C   0  0  0  0  0  0  0  0  0  0  0  0
   48.0690   49.2310   38.5240 C   0  0  0  0  0  0  0  0  0  0  0  0
   47.8460   48.2700   40.8260 C   0  0  0  0  0  0  0  0  0  0  0  0
   50.8162   54.3914   29.3706 H   0  0  0  0  0  0  0  0  0  0  0  0
   52.1203   53.9834   28.2046 H   0  0  0  0  0  0  0  0  0  0  0  0
   50.5893   53.0439   28.2046 H   0  0  0  0  0  0  0  0  0  0  0  0
   49.2867   53.2774   30.0038 H   0  0  0  0  0  0  0  0  0  0  0  0
   47.7897   52.4871   31.8345 H   0  0  0  0  0  0  0  0  0  0  0  0
   53.0429   50.7231   33.7736 H   0  0  0  0  0  0  0  0  0  0  0  0
   52.8790   49.2428   32.7692 H   0  0  0  0  0  0  0  0  0  0  0  0
   54.4224   50.1619   32.7692 H   0  0  0  0  0  0  0  0  0  0  0  0
   51.0944   50.3109   33.6150 H   0  0  0  0  0  0  0  0  0  0  0  0
   50.0390   50.3876   35.2083 H   0  0  0  0  0  0  0  0  0  0  0  0
   49.1597   51.9198   35.5789 H   0  0  0  0  0  0  0  0  0  0  0  0
   47.0925   52.4707   34.0719 H   0  0  0  0  0  0  0  0  0  0  0  0
   46.7706   51.3414   32.7065 H   0  0  0  0  0  0  0  0  0  0  0  0
   45.1588   51.0222   34.5962 H   0  0  0  0  0  0  0  0  0  0  0  0
   46.1576   49.5563   34.2948 H   0  0  0  0  0  0  0  0  0  0  0  0
   46.0432   49.9681   36.6998 H   0  0  0  0  0  0  0  0  0  0  0  0
   46.5436   51.9515   37.6789 H   0  0  0  0  0  0  0  0  0  0  0  0
   47.3277   52.5788   36.3295 H   0  0  0  0  0  0  0  0  0  0  0  0
   48.1446   49.0694   35.8638 H   0  0  0  0  0  0  0  0  0  0  0  0
   49.9317   51.8407   37.3694 H   0  0  0  0  0  0  0  0  0  0  0  0
   50.5670   51.9249   39.7768 H   0  0  0  0  0  0  0  0  0  0  0  0
   49.6060   50.2752   41.3773 H   0  0  0  0  0  0  0  0  0  0  0  0
   47.3619   48.4663   38.1700 H   0  0  0  0  0  0  0  0  0  0  0  0
   48.0376   48.5983   41.8582 H   0  0  0  0  0  0  0  0  0  0  0  0
   46.7611   48.1931   40.6611 H   0  0  0  0  0  0  0  0  0  0  0  0
   48.3125   47.2875   40.6611 H   0  0  0  0  0  0  0  0  0  0  0  0
  1  2  1  0
  2  3  1  0
  3  4  2  0
  4  5  1  0
  3  6  1  0
  6  7  1  0
  7  8  1  0
  6  9  2  0
  5 10  2  0
  9 10  1  0
 10 11  1  0
 11 12  1  0
 11 13  1  0
 13 14  1  0
 14 15  1  0
 15 16  1  0
 12 17  1  0
 15 17  1  0
 17 18  1  0
 18 19  2  0
 19 20  1  0
 20 21  2  0
 21 22  1  0
 18 23  1  0
 22 23  2  0
 22 24  1  0
  1 25  1  0
  1 26  1  0
  1 27  1  0
  4 28  1  0
  5 29  1  0
  8 30  1  0
  8 31  1  0
  8 32  1  0
  9 33  1  0
 12 34  1  0
 12 35  1  0
 13 36  1  0
 13 37  1  0
 14 38  1  0
 14 39  1  0
 15 40  1  0
 16 41  1  0
 16 42  1  0
 17 43  1  0
 19 44  1  0
 20 45  1  0
 21 46  1  0
 23 47  1  0
 24 48  1  0
 24 49  1  0
 24 50  1  0
A    1
C29
A    2
O26
A    3
C6
A    4
C7
A    5
C8
A    6
C5
A    7
O25
A    8
C28
A    9
C4
A   10
C3
A   11
N2
A   12
C9
A   13
C1
A   14
C22
A   15
C19
A   16
N20
A   17
C10
A   18
C11
A   19
C12
A   20
C13
A   21
C14
A   22
C16
A   23
C17
A   24
C30
M  END
