2JJP_KLN_A_413
     RDKit          3D

 64 68  0  0  0  0  0  0  0  0999 V2000
   23.6860    0.8450    3.6350 N   0  0  0  0  0  0  0  0  0  0  0  0
   23.3090   -0.4460    3.6220 C   0  0  0  0  0  0  0  0  0  0  0  0
   23.7670   -1.0600    4.7270 N   0  0  0  0  0  0  0  0  0  0  0  0
   24.4550   -0.1500    5.4440 C   0  0  0  0  0  0  0  0  0  0  0  0
   24.3960    1.0510    4.7510 C   0  0  0  0  0  0  0  0  0  0  0  0
   23.4230    1.8200    2.5910 C   0  0  0  0  0  0  0  0  0  0  0  0
   24.4630    1.5520    1.4980 C   0  0  0  0  0  0  0  0  0  0  0  0
   24.5300    2.6240    0.5780 O   0  0  0  0  0  0  0  0  0  0  0  0
   24.9540    2.0630   -0.6620 C   0  0  0  0  0  0  0  0  0  0  0  0
   24.5250    0.6140   -0.5960 C   0  0  0  0  0  0  0  0  0  0  0  0
   24.1020    0.4080    0.7460 O   0  0  0  0  0  0  0  0  0  0  0  0
   25.8370    1.2680    2.0240 C   0  0  0  0  0  0  0  0  0  0  0  0
   26.6000    2.2630    2.6220 C   0  0  0  0  0  0  0  0  0  0  0  0
   27.8660    1.9590    3.1030 C   0  0  0  0  0  0  0  0  0  0  0  0
   28.3520    0.6590    2.9510 C   0  0  0  0  0  0  0  0  0  0  0  0
   27.5810   -0.3210    2.3460 C   0  0  0  0  0  0  0  0  0  0  0  0
   26.3210   -0.0220    1.8800 C   0  0  0  0  0  0  0  0  0  0  0  0
   29.9630    0.2040    3.5150 Cl  0  0  0  0  0  0  0  0  0  0  0  0
   24.2700    2.7130   -1.8520 C   0  0  0  0  0  0  0  0  0  0  0  0
   22.8990    3.0560   -1.6610 O   0  0  0  0  0  0  0  0  0  0  0  0
   22.3610    3.8210   -2.6570 C   0  0  0  0  0  0  0  0  0  0  0  0
   21.3610    3.3050   -3.4600 C   0  0  0  0  0  0  0  0  0  0  0  0
   20.8190    4.0730   -4.4890 C   0  0  0  0  0  0  0  0  0  0  0  0
   21.2600    5.3720   -4.7410 C   0  0  0  0  0  0  0  0  0  0  0  0
   22.2900    5.8900   -3.9360 C   0  0  0  0  0  0  0  0  0  0  0  0
   22.8340    5.1210   -2.9010 C   0  0  0  0  0  0  0  0  0  0  0  0
   20.6990    6.1230   -5.8210 N   0  0  0  0  0  0  0  0  0  0  0  0
   19.3350    5.6630   -6.1490 C   0  0  0  0  0  0  0  0  0  0  0  0
   18.4270    6.8210   -6.5470 C   0  0  0  0  0  0  0  0  0  0  0  0
   19.1050    7.7910   -7.4280 N   0  0  0  0  0  0  0  0  0  0  0  0
   20.3690    8.3040   -6.8670 C   0  0  0  0  0  0  0  0  0  0  0  0
   20.7220    7.5750   -5.5760 C   0  0  0  0  0  0  0  0  0  0  0  0
   18.2160    8.8840   -7.6860 C   0  0  0  0  0  0  0  0  0  0  0  0
   17.7150    9.5320   -6.7670 O   0  0  0  0  0  0  0  0  0  0  0  0
   17.9000    9.2350   -9.1130 C   0  0  0  0  0  0  0  0  0  0  0  0
   25.9450    3.9000    2.7750 Cl  0  0  0  0  0  0  0  0  0  0  0  0
   22.7168   -0.9259    2.8289 H   0  0  0  0  0  0  0  0  0  0  0  0
   24.9681   -0.3263    6.4009 H   0  0  0  0  0  0  0  0  0  0  0  0
   24.8514    2.0024    5.0631 H   0  0  0  0  0  0  0  0  0  0  0  0
   22.4061    1.6896    2.1924 H   0  0  0  0  0  0  0  0  0  0  0  0
   23.4921    2.8496    2.9719 H   0  0  0  0  0  0  0  0  0  0  0  0
   26.0361    2.2061   -0.7983 H   0  0  0  0  0  0  0  0  0  0  0  0
   23.6963    0.4255   -1.2943 H   0  0  0  0  0  0  0  0  0  0  0  0
   25.3406   -0.0681   -0.8779 H   0  0  0  0  0  0  0  0  0  0  0  0
   28.4765    2.7298    3.5960 H   0  0  0  0  0  0  0  0  0  0  0  0
   27.9775   -1.3413    2.2379 H   0  0  0  0  0  0  0  0  0  0  0  0
   25.7062   -0.7973    1.3994 H   0  0  0  0  0  0  0  0  0  0  0  0
   24.8188    3.6344   -2.0965 H   0  0  0  0  0  0  0  0  0  0  0  0
   24.2839    1.9617   -2.6554 H   0  0  0  0  0  0  0  0  0  0  0  0
   20.9914    2.2837   -3.2860 H   0  0  0  0  0  0  0  0  0  0  0  0
   20.0244    3.6444   -5.1174 H   0  0  0  0  0  0  0  0  0  0  0  0
   22.6703    6.9055   -4.1208 H   0  0  0  0  0  0  0  0  0  0  0  0
   23.6369    5.5371   -2.2747 H   0  0  0  0  0  0  0  0  0  0  0  0
   19.3910    4.9508   -6.9855 H   0  0  0  0  0  0  0  0  0  0  0  0
   18.9098    5.1878   -5.2527 H   0  0  0  0  0  0  0  0  0  0  0  0
   17.5505    6.4172   -7.0748 H   0  0  0  0  0  0  0  0  0  0  0  0
   18.1359    7.3499   -5.6275 H   0  0  0  0  0  0  0  0  0  0  0  0
   21.1762    8.1531   -7.5989 H   0  0  0  0  0  0  0  0  0  0  0  0
   20.2484    9.3748   -6.6462 H   0  0  0  0  0  0  0  0  0  0  0  0
   19.9880    7.8288   -4.7971 H   0  0  0  0  0  0  0  0  0  0  0  0
   21.7249    7.8786   -5.2412 H   0  0  0  0  0  0  0  0  0  0  0  0
   17.1642   10.0523   -9.1352 H   0  0  0  0  0  0  0  0  0  0  0  0
   18.8198    9.5557   -9.6240 H   0  0  0  0  0  0  0  0  0  0  0  0
   17.4848    8.3538   -9.6240 H   0  0  0  0  0  0  0  0  0  0  0  0
  1  2  1  0
  2  3  2  0
  3  4  1  0
  1  5  1  0
  4  5  2  0
  1  6  1  0
  6  7  1  0
  7  8  1  0
  8  9  1  0
  9 10  1  0
  7 11  1  0
 10 11  1  0
  7 12  1  0
 12 13  2  0
 13 14  1  0
 14 15  2  0
 15 16  1  0
 12 17  1  0
 16 17  2  0
 15 18  1  0
  9 19  1  0
 19 20  1  0
 20 21  1  0
 21 22  2  0
 23 22  1  0
 24 23  2  0
 25 24  1  0
 26 25  2  0
 21 26  1  0
 24 27  1  0
 27 28  1  0
 28 29  1  0
 29 30  1  0
 30 31  1  0
 27 32  1  0
 31 32  1  0
 30 33  1  0
 33 34  2  0
 33 35  1  0
 13 36  1  0
  2 37  1  0
  4 38  1  0
  5 39  1  0
  6 40  1  0
  6 41  1  0
  9 42  1  0
 10 43  1  0
 10 44  1  0
 14 45  1  0
 16 46  1  0
 17 47  1  0
 19 48  1  0
 19 49  1  0
 22 50  1  0
 23 51  1  0
 25 52  1  0
 26 53  1  0
 28 54  1  0
 28 55  1  0
 29 56  1  0
 29 57  1  0
 31 58  1  0
 31 59  1  0
 32 60  1  0
 32 61  1  0
 35 62  1  0
 35 63  1  0
 35 64  1  0
A    1
N1
A    2
C1
A    3
N2
A    4
C2
A    5
C3
A    6
C4
A    7
C5
A    8
O1
A    9
C6
A   10
C7
A   11
O2
A   12
C8
A   13
C9
A   14
C10
A   15
C11
A   16
C12
A   17
C13
A   18
CL1
A   19
C14
A   20
O3
A   21
C15
A   22
C16
A   23
C17
A   24
C18
A   25
C19
A   26
C20
A   27
N3
A   28
C21
A   29
C22
A   30
N4
A   31
C23
A   32
C24
A   33
C25
A   34
O4
A   35
C26
A   36
CL2
M  END
