2JKL_BRX_A_1143
     RDKit          3D

 32 32  0  0  0  0  0  0  0  0999 V2000
   40.5200   38.9720  -11.1720 O   0  0  0  0  0  0  0  0  0  0  0  0
   39.3760   38.9090  -11.4250 C   0  0  0  0  0  0  0  0  0  0  0  0
   38.8730   39.3990  -12.5160 N   0  0  0  0  0  0  0  0  0  0  0  0
   39.5480   39.8790  -13.7240 C   0  0  0  0  0  0  0  0  0  0  0  0
   39.6060   41.3760  -13.7230 C   0  0  0  0  0  0  0  0  0  0  0  0
   38.1820   41.5700  -13.9400 O   0  0  0  0  0  0  0  0  0  0  0  0
   39.5540   38.9150  -14.8000 C   0  0  0  0  0  0  0  0  0  0  0  0
   38.1680   38.9680  -15.0970 O   0  0  0  0  0  0  0  0  0  0  0  0
   40.3650   37.7920  -14.9760 C   0  0  0  0  0  0  0  0  0  0  0  0
   39.6390   36.6480  -15.1150 C   0  0  0  0  0  0  0  0  0  0  0  0
   40.3510   35.3670  -15.1540 C   0  0  0  0  0  0  0  0  0  0  0  0
   41.7300   35.3630  -15.0410 C   0  0  0  0  0  0  0  0  0  0  0  0
   42.4750   34.0860  -15.0840 N   0  0  0  0  0  0  0  0  0  0  0  0
   43.6880   34.0850  -14.9880 O   0  0  0  0  0  0  0  0  0  0  0  0
   41.8720   33.0340  -15.2190 O   0  0  0  0  0  0  0  0  0  0  0  0
   42.4150   36.5520  -14.8940 C   0  0  0  0  0  0  0  0  0  0  0  0
   41.6960   37.8260  -14.8340 C   0  0  0  0  0  0  0  0  0  0  0  0
   38.6940   38.1350  -10.4700 C   0  0  0  0  0  0  0  0  0  0  0  0
   38.4220   36.1980  -10.6560 Br  0  0  0  0  0  0  0  0  0  0  0  0
   38.9240   38.6150   -8.5720 Br  0  0  0  0  0  0  0  0  0  0  0  0
   37.8450   39.4595  -12.5355 H   0  0  0  0  0  0  0  0  0  0  0  0
   40.6280   39.8680  -13.9323 H   0  0  0  0  0  0  0  0  0  0  0  0
   39.9522   41.7894  -12.7642 H   0  0  0  0  0  0  0  0  0  0  0  0
   40.2967   41.8569  -14.4313 H   0  0  0  0  0  0  0  0  0  0  0  0
   37.7206   41.6329  -13.0663 H   0  0  0  0  0  0  0  0  0  0  0  0
   40.3119   39.1035  -15.5747 H   0  0  0  0  0  0  0  0  0  0  0  0
   37.6503   38.9878  -14.2534 H   0  0  0  0  0  0  0  0  0  0  0  0
   38.5426   36.6844  -15.1962 H   0  0  0  0  0  0  0  0  0  0  0  0
   39.7975   34.4237  -15.2713 H   0  0  0  0  0  0  0  0  0  0  0  0
   43.5125   36.5425  -14.8212 H   0  0  0  0  0  0  0  0  0  0  0  0
   42.2292   38.7754  -14.6781 H   0  0  0  0  0  0  0  0  0  0  0  0
   37.7428   38.5286  -10.8577 H   0  0  0  0  0  0  0  0  0  0  0  0
  1  2  2  0
  2  3  1  0
  2 18  1  0
  3  4  1  0
  4  5  1  0
  4  7  1  0
  5  6  1  0
  7  8  1  0
  7  9  1  0
  9 10  2  0
  9 17  1  0
 10 11  1  0
 11 12  2  0
 12 13  1  0
 12 16  1  0
 13 14  1  0
 13 15  2  0
 16 17  2  0
 18 19  1  0
 18 20  1  0
  3 21  1  0
  4 22  1  0
  5 23  1  0
  5 24  1  0
  6 25  1  0
  7 26  1  0
  8 27  1  0
 10 28  1  0
 11 29  1  0
 16 30  1  0
 17 31  1  0
 18 32  1  0
M  CHG  2  13   1  14  -1
A    1
O2
A    2
C2
A    3
N2
A    4
C3
A    5
C4
A    6
O4
A    7
C5
A    8
O5
A    9
C6
A   10
C11
A   11
C10
A   12
C9
A   13
N9
A   14
O9B
A   15
O9A
A   16
C8
A   17
C7
A   18
C1
A   19
BR1
A   20
BR2
M  END
