2JKQ_VG8_A_1687
     RDKit          3D

 76 81  0  0  0  0  0  0  0  0999 V2000
   15.2250   -3.5540   26.7410 C   0  0  0  0  0  0  0  0  0  0  0  0
   16.0350   -4.8540   27.1440 C   0  0  0  0  0  0  0  0  0  0  0  0
   16.9640   -4.5870   28.3480 C   0  0  0  0  0  0  0  0  0  0  0  0
   17.9690   -3.4470   28.0440 C   0  0  0  0  0  0  0  0  0  0  0  0
   17.3060   -2.3690   27.1230 C   0  0  0  0  0  0  0  0  0  0  0  0
   15.8500   -2.3730   27.4100 N   0  0  0  0  0  0  0  0  0  0  0  0
   15.2620   -1.0410   27.0540 C   0  0  0  0  0  0  0  0  0  0  0  0
   14.5800   -1.0050   25.6590 C   0  0  0  0  0  0  0  0  0  0  0  0
   13.9790    0.3890   25.4110 C   0  0  0  0  0  0  0  0  0  0  0  0
   14.3000   -0.5350   28.1710 C   0  0  0  0  0  0  0  0  0  0  0  0
   12.8770   -0.2280   27.6590 C   0  0  0  0  0  0  0  0  0  0  0  0
   12.9030    0.6190   26.4170 N   0  0  0  0  0  0  0  0  0  0  0  0
   11.8850    1.5970   26.2480 C   0  0  0  0  0  0  0  0  0  0  0  0
   11.0940    1.9120   27.3500 C   0  0  0  0  0  0  0  0  0  0  0  0
   10.0730    2.8440   27.2590 C   0  0  0  0  0  0  0  0  0  0  0  0
   11.6200    2.2470   25.0400 C   0  0  0  0  0  0  0  0  0  0  0  0
   12.3090    2.1150   23.6760 C   0  0  0  0  0  0  0  0  0  0  0  0
   11.5450    3.0710   22.8750 N   0  0  0  0  0  0  0  0  0  0  0  0
   11.7750    3.3480   21.4510 C   0  0  0  0  0  0  0  0  0  0  0  0
   10.6050    3.6520   23.6130 C   0  0  0  0  0  0  0  0  0  0  0  0
    9.8360    4.5000   23.1600 O   0  0  0  0  0  0  0  0  0  0  0  0
   10.6000    3.1930   24.9350 C   0  0  0  0  0  0  0  0  0  0  0  0
    9.8100    3.4890   26.0560 C   0  0  0  0  0  0  0  0  0  0  0  0
    8.8040    4.3870   26.0220 N   0  0  0  0  0  0  0  0  0  0  0  0
    7.5110    3.9950   26.0630 C   0  0  0  0  0  0  0  0  0  0  0  0
    7.1600    2.8460   26.6750 N   0  0  0  0  0  0  0  0  0  0  0  0
    6.4950    4.7500   25.4790 C   0  0  0  0  0  0  0  0  0  0  0  0
    6.8220    6.2570   24.6740 Cl  0  0  0  0  0  0  0  0  0  0  0  0
    5.1860    4.2720   25.5570 C   0  0  0  0  0  0  0  0  0  0  0  0
    4.9090    3.1280   26.1670 N   0  0  0  0  0  0  0  0  0  0  0  0
    5.8860    2.4140   26.7300 C   0  0  0  0  0  0  0  0  0  0  0  0
    5.5760    1.2660   27.3240 N   0  0  0  0  0  0  0  0  0  0  0  0
    6.4320    0.5420   28.0550 C   0  0  0  0  0  0  0  0  0  0  0  0
    7.7160    0.2490   27.6040 C   0  0  0  0  0  0  0  0  0  0  0  0
    8.5860   -0.5070   28.3860 C   0  0  0  0  0  0  0  0  0  0  0  0
    8.1770   -0.9960   29.6200 C   0  0  0  0  0  0  0  0  0  0  0  0
    6.8920   -0.7120   30.0690 C   0  0  0  0  0  0  0  0  0  0  0  0
    6.0200    0.0500   29.2890 C   0  0  0  0  0  0  0  0  0  0  0  0
    4.7630    0.3210   29.7180 O   0  0  0  0  0  0  0  0  0  0  0  0
    4.3780   -0.6870   30.6870 C   0  0  0  0  0  0  0  0  0  0  0  0
   15.2576   -3.4212   25.6495 H   0  0  0  0  0  0  0  0  0  0  0  0
   14.1763   -3.6527   27.0581 H   0  0  0  0  0  0  0  0  0  0  0  0
   15.3245   -5.6506   27.4097 H   0  0  0  0  0  0  0  0  0  0  0  0
   16.6558   -5.1551   26.2873 H   0  0  0  0  0  0  0  0  0  0  0  0
   16.3517   -4.3024   29.2164 H   0  0  0  0  0  0  0  0  0  0  0  0
   17.5336   -5.5047   28.5563 H   0  0  0  0  0  0  0  0  0  0  0  0
   18.2798   -2.9759   28.9882 H   0  0  0  0  0  0  0  0  0  0  0  0
   18.8436   -3.8695   27.5277 H   0  0  0  0  0  0  0  0  0  0  0  0
   17.7291   -1.3772   27.3406 H   0  0  0  0  0  0  0  0  0  0  0  0
   17.4930   -2.5964   26.0631 H   0  0  0  0  0  0  0  0  0  0  0  0
   16.1131   -0.3478   26.9822 H   0  0  0  0  0  0  0  0  0  0  0  0
   15.3263   -1.2249   24.8814 H   0  0  0  0  0  0  0  0  0  0  0  0
   13.7788   -1.7580   25.6259 H   0  0  0  0  0  0  0  0  0  0  0  0
   14.7602    1.1558   25.5196 H   0  0  0  0  0  0  0  0  0  0  0  0
   13.5661    0.4488   24.3932 H   0  0  0  0  0  0  0  0  0  0  0  0
   14.2314   -1.3091   28.9495 H   0  0  0  0  0  0  0  0  0  0  0  0
   14.7170    0.4066   28.5578 H   0  0  0  0  0  0  0  0  0  0  0  0
   12.3672   -1.1762   27.4331 H   0  0  0  0  0  0  0  0  0  0  0  0
   12.3436    0.3296   28.4429 H   0  0  0  0  0  0  0  0  0  0  0  0
   11.2835    1.4113   28.3109 H   0  0  0  0  0  0  0  0  0  0  0  0
    9.4653    3.0756   28.1462 H   0  0  0  0  0  0  0  0  0  0  0  0
   13.3712    2.3953   23.7326 H   0  0  0  0  0  0  0  0  0  0  0  0
   12.3151    1.0920   23.2716 H   0  0  0  0  0  0  0  0  0  0  0  0
   12.4747    4.1907   21.3497 H   0  0  0  0  0  0  0  0  0  0  0  0
   12.2023    2.4566   20.9684 H   0  0  0  0  0  0  0  0  0  0  0  0
   10.8203    3.6041   20.9684 H   0  0  0  0  0  0  0  0  0  0  0  0
    9.0255    5.3912   25.9636 H   0  0  0  0  0  0  0  0  0  0  0  0
    4.3700    4.8546   25.1045 H   0  0  0  0  0  0  0  0  0  0  0  0
    4.6154    0.9108   27.2147 H   0  0  0  0  0  0  0  0  0  0  0  0
    8.0463    0.6177   26.6217 H   0  0  0  0  0  0  0  0  0  0  0  0
    9.6031   -0.7181   28.0241 H   0  0  0  0  0  0  0  0  0  0  0  0
    8.8609   -1.6002   30.2342 H   0  0  0  0  0  0  0  0  0  0  0  0
    6.5597   -1.0908   31.0468 H   0  0  0  0  0  0  0  0  0  0  0  0
    4.5279   -0.2945   31.7036 H   0  0  0  0  0  0  0  0  0  0  0  0
    3.3180   -0.9451   30.5462 H   0  0  0  0  0  0  0  0  0  0  0  0
    4.9961   -1.5860   30.5462 H   0  0  0  0  0  0  0  0  0  0  0  0
  1  2  1  0
  1  6  1  0
  2  3  1  0
  3  4  1  0
  4  5  1  0
  5  6  1  0
  6  7  1  0
  7  8  1  0
  7 10  1  0
  8  9  1  0
  9 12  1  0
 10 11  1  0
 11 12  1  0
 12 13  1  0
 13 14  2  0
 13 16  1  0
 14 15  1  0
 15 23  2  0
 16 17  1  0
 16 22  2  0
 17 18  1  0
 18 19  1  0
 18 20  1  0
 20 21  2  0
 20 22  1  0
 22 23  1  0
 23 24  1  0
 24 25  1  0
 25 26  2  0
 25 27  1  0
 26 31  1  0
 27 28  1  0
 27 29  2  0
 29 30  1  0
 30 31  2  0
 31 32  1  0
 32 33  1  0
 33 34  2  0
 33 38  1  0
 34 35  1  0
 35 36  2  0
 36 37  1  0
 37 38  2  0
 38 39  1  0
 39 40  1  0
  1 41  1  0
  1 42  1  0
  2 43  1  0
  2 44  1  0
  3 45  1  0
  3 46  1  0
  4 47  1  0
  4 48  1  0
  5 49  1  0
  5 50  1  0
  7 51  1  0
  8 52  1  0
  8 53  1  0
  9 54  1  0
  9 55  1  0
 10 56  1  0
 10 57  1  0
 11 58  1  0
 11 59  1  0
 14 60  1  0
 15 61  1  0
 17 62  1  0
 17 63  1  0
 19 64  1  0
 19 65  1  0
 19 66  1  0
 24 67  1  0
 29 68  1  0
 32 69  1  0
 34 70  1  0
 35 71  1  0
 36 72  1  0
 37 73  1  0
 40 74  1  0
 40 75  1  0
 40 76  1  0
A    1
CBJ
A    2
CBL
A    3
CBN
A    4
CBM
A    5
CBK
A    6
NBI
A    7
CBH
A    8
CBF
A    9
CBD
A   10
CBG
A   11
CBE
A   12
NBC
A   13
CBB
A   14
CAZ
A   15
CAO
A   16
CAY
A   17
CAX
A   18
NAU
A   19
CAT
A   20
CAM
A   21
OAI
A   22
CAN
A   23
CAJ
A   24
NAE
A   25
C4
A   26
N3
A   27
C5
A   28
CL5
A   29
C6
A   30
N1
A   31
C2
A   32
NAH
A   33
CAL
A   34
CAP
A   35
CAV
A   36
CBA
A   37
CAW
A   38
CAQ
A   39
OAR
A   40
CAS
M  END
