2JLE_I15_A_1546
     RDKit          3D

 31 33  0  0  0  0  0  0  0  0999 V2000
   -9.1510  -12.9180   15.6940 C   0  0  0  0  0  0  0  0  0  0  0  0
   -8.6760  -12.3830   16.9040 C   0  0  0  0  0  0  0  0  0  0  0  0
   -8.2530  -13.3660   14.7040 C   0  0  0  0  0  0  0  0  0  0  0  0
  -10.5140  -13.1580   15.1920 C   0  0  0  0  0  0  0  0  0  0  0  0
   -9.6080  -11.9700   17.8430 O   0  0  0  0  0  0  0  0  0  0  0  0
   -7.2950  -12.2340   17.1940 C   0  0  0  0  0  0  0  0  0  0  0  0
   -9.1120  -13.8540   13.6780 N   0  0  0  0  0  0  0  0  0  0  0  0
   -6.9170  -13.2410   14.9470 C   0  0  0  0  0  0  0  0  0  0  0  0
  -10.4600  -13.7180   13.9460 N   0  0  0  0  0  0  0  0  0  0  0  0
  -11.7130  -12.8660   15.9620 C   0  0  0  0  0  0  0  0  0  0  0  0
   -9.7030  -12.5490   19.1130 C   0  0  0  0  0  0  0  0  0  0  0  0
   -6.3980  -12.6910   16.1630 C   0  0  0  0  0  0  0  0  0  0  0  0
  -10.1260  -13.8710   19.2030 C   0  0  0  0  0  0  0  0  0  0  0  0
   -9.4440  -11.8010   20.2920 C   0  0  0  0  0  0  0  0  0  0  0  0
  -10.2850  -14.4900   20.3850 C   0  0  0  0  0  0  0  0  0  0  0  0
   -9.6220  -12.4960   21.4870 C   0  0  0  0  0  0  0  0  0  0  0  0
   -9.9900  -13.8290   21.5660 C   0  0  0  0  0  0  0  0  0  0  0  0
  -10.6340  -15.8570   20.3480 C   0  0  0  0  0  0  0  0  0  0  0  0
   -9.4360  -11.7980   22.6850 C   0  0  0  0  0  0  0  0  0  0  0  0
   -9.2840  -11.2300   23.6610 N   0  0  0  0  0  0  0  0  0  0  0  0
   -6.8700  -11.6620   18.4390 F   0  0  0  0  0  0  0  0  0  0  0  0
  -10.9080  -16.9370   20.3200 N   0  0  0  0  0  0  0  0  0  0  0  0
   -8.7568  -14.2741   12.8072 H   0  0  0  0  0  0  0  0  0  0  0  0
   -6.2078  -13.5770   14.1761 H   0  0  0  0  0  0  0  0  0  0  0  0
  -11.4818  -12.9223   17.0360 H   0  0  0  0  0  0  0  0  0  0  0  0
  -12.0694  -11.8548   15.7162 H   0  0  0  0  0  0  0  0  0  0  0  0
  -12.4945  -13.6001   15.7162 H   0  0  0  0  0  0  0  0  0  0  0  0
   -5.3105  -12.6171   16.3106 H   0  0  0  0  0  0  0  0  0  0  0  0
  -10.3369  -14.4271   18.2777 H   0  0  0  0  0  0  0  0  0  0  0  0
   -9.1257  -10.7484   20.2642 H   0  0  0  0  0  0  0  0  0  0  0  0
  -10.0462  -14.3460   22.5353 H   0  0  0  0  0  0  0  0  0  0  0  0
  1  2  2  0
  1  3  1  0
  1  4  1  0
  2  5  1  0
  2  6  1  0
  3  7  1  0
  3  8  2  0
  4  9  2  0
  4 10  1  0
  5 11  1  0
  6 12  2  0
  6 21  1  0
  7  9  1  0
  8 12  1  0
 11 13  2  0
 11 14  1  0
 13 15  1  0
 14 16  2  0
 15 17  2  0
 15 18  1  0
 16 17  1  0
 16 19  1  0
 18 22  3  0
 19 20  3  0
  7 23  1  0
  8 24  1  0
 10 25  1  0
 10 26  1  0
 10 27  1  0
 12 28  1  0
 13 29  1  0
 14 30  1  0
 17 31  1  0
A    1
C1
A    2
C2
A    3
C3
A    4
C4
A    5
O5
A    6
C6
A    7
N7
A    8
C8
A    9
N9
A   10
C10
A   11
C11
A   12
C12
A   13
C13
A   14
C14
A   15
C15
A   16
C16
A   17
C17
A   18
C18
A   19
C19
A   20
N23
A   21
F1
A   22
N1
M  END
