2MAS_PIR_A_400
     RDKit          3D

 32 33  0  0  0  0  0  0  0  0999 V2000
  107.1160   36.4820   81.8630 C   0  0  0  0  0  0  0  0  0  0  0  0
  106.5220   35.2020   82.0070 C   0  0  0  0  0  0  0  0  0  0  0  0
  107.0330   34.1130   81.2640 C   0  0  0  0  0  0  0  0  0  0  0  0
  107.8940   34.3480   80.1840 C   0  0  0  0  0  0  0  0  0  0  0  0
  108.4400   35.6460   80.0050 C   0  0  0  0  0  0  0  0  0  0  0  0
  109.2770   35.8850   78.9900 N   0  0  0  0  0  0  0  0  0  0  0  0
  108.1240   36.6860   80.9080 C   0  0  0  0  0  0  0  0  0  0  0  0
  105.3330   35.0040   82.9310 C   0  0  0  0  0  0  0  0  0  0  0  0
  105.1370   36.1330   83.9270 C   0  0  0  0  0  0  0  0  0  0  0  0
  105.3650   35.6820   85.2530 O   0  0  0  0  0  0  0  0  0  0  0  0
  103.6700   36.5690   83.7690 C   0  0  0  0  0  0  0  0  0  0  0  0
  102.8450   35.9830   84.7620 O   0  0  0  0  0  0  0  0  0  0  0  0
  103.2690   36.0990   82.3930 C   0  0  0  0  0  0  0  0  0  0  0  0
  104.0380   34.8720   82.2770 N   0  0  0  0  0  0  0  0  0  0  0  0
  103.5970   37.0450   81.2280 C   0  0  0  0  0  0  0  0  0  0  0  0
  103.7070   36.3140   80.0080 O   0  0  0  0  0  0  0  0  0  0  0  0
  106.7863   37.3156   82.5005 H   0  0  0  0  0  0  0  0  0  0  0  0
  106.7551   33.0833   81.5333 H   0  0  0  0  0  0  0  0  0  0  0  0
  108.1436   33.5372   79.4838 H   0  0  0  0  0  0  0  0  0  0  0  0
  110.2505   36.1630   79.1798 H   0  0  0  0  0  0  0  0  0  0  0  0
  108.9483   35.7911   78.0184 H   0  0  0  0  0  0  0  0  0  0  0  0
  108.6619   37.6445   80.8629 H   0  0  0  0  0  0  0  0  0  0  0  0
  105.6170   34.0582   83.4155 H   0  0  0  0  0  0  0  0  0  0  0  0
  105.8406   36.9578   83.7407 H   0  0  0  0  0  0  0  0  0  0  0  0
  105.0245   36.3555   85.8938 H   0  0  0  0  0  0  0  0  0  0  0  0
  103.5559   37.6567   83.8868 H   0  0  0  0  0  0  0  0  0  0  0  0
  103.1859   36.2252   85.6593 H   0  0  0  0  0  0  0  0  0  0  0  0
  102.1756   36.0093   82.3128 H   0  0  0  0  0  0  0  0  0  0  0  0
  104.1843   34.6591   81.2799 H   0  0  0  0  0  0  0  0  0  0  0  0
  102.7955   37.7922   81.1315 H   0  0  0  0  0  0  0  0  0  0  0  0
  104.5563   37.5429   81.4327 H   0  0  0  0  0  0  0  0  0  0  0  0
  103.8512   35.3555   80.2095 H   0  0  0  0  0  0  0  0  0  0  0  0
  1  2  2  0
  1  7  1  0
  2  3  1  0
  2  8  1  0
  3  4  2  0
  4  5  1  0
  5  6  1  0
  5  7  2  0
  8  9  1  0
  8 14  1  0
  9 10  1  0
  9 11  1  0
 11 12  1  0
 11 13  1  0
 13 14  1  0
 13 15  1  0
 15 16  1  0
  1 17  1  0
  3 18  1  0
  4 19  1  0
  6 20  1  0
  6 21  1  0
  7 22  1  0
  8 23  1  0
  9 24  1  0
 10 25  1  0
 11 26  1  0
 12 27  1  0
 13 28  1  0
 14 29  1  0
 15 30  1  0
 15 31  1  0
 16 32  1  0
A    1
C1
A    2
C2
A    3
C3
A    4
C4
A    5
C5
A    6
N5
A    7
C6
A    8
C1'
A    9
C2'
A   10
O2'
A   11
C3'
A   12
O3'
A   13
C4'
A   14
N4'
A   15
C5'
A   16
O5'
M  END
