2NM2_NEU_A_122
     RDKit          3D

 29 30  0  0  0  0  0  0  0  0999 V2000
   44.9100   46.1750   29.8010 N   0  0  0  0  0  0  0  0  0  0  0  0
   44.2380   46.3030   28.5730 C   0  0  0  0  0  0  0  0  0  0  0  0
   44.5580   47.3350   27.6140 C   0  0  0  0  0  0  0  0  0  0  0  0
   43.9110   47.5050   26.3470 N   0  0  0  0  0  0  0  0  0  0  0  0
   44.4010   48.6390   25.4690 C   0  0  0  0  0  0  0  0  0  0  0  0
   45.4730   49.4580   25.9420 C   0  0  0  0  0  0  0  0  0  0  0  0
   46.0990   49.2580   27.2060 N   0  0  0  0  0  0  0  0  0  0  0  0
   45.7150   48.2350   28.0770 C   0  0  0  0  0  0  0  0  0  0  0  0
   46.3650   48.1110   29.2640 N   0  0  0  0  0  0  0  0  0  0  0  0
   46.0140   47.1220   30.1310 C   0  0  0  0  0  0  0  0  0  0  0  0
   46.6130   46.9590   31.2690 N   0  0  0  0  0  0  0  0  0  0  0  0
   43.7760   48.9200   24.0920 C   0  0  0  0  0  0  0  0  0  0  0  0
   42.4180   48.3230   24.0030 O   0  0  0  0  0  0  0  0  0  0  0  0
   44.5330   48.3790   22.9660 C   0  0  0  0  0  0  0  0  0  0  0  0
   45.2290   47.1510   23.1270 O   0  0  0  0  0  0  0  0  0  0  0  0
   45.6920   49.1830   22.3250 C   0  0  0  0  0  0  0  0  0  0  0  0
   45.1320   50.3120   21.6670 O   0  0  0  0  0  0  0  0  0  0  0  0
   43.2830   45.4480   28.3230 O   0  0  0  0  0  0  0  0  0  0  0  0
   44.6428   45.4351   30.4659 H   0  0  0  0  0  0  0  0  0  0  0  0
   45.8301   50.2784   25.3021 H   0  0  0  0  0  0  0  0  0  0  0  0
   46.0954   47.0999   32.1483 H   0  0  0  0  0  0  0  0  0  0  0  0
   47.6066   46.6886   31.2939 H   0  0  0  0  0  0  0  0  0  0  0  0
   43.7636   50.0174   24.0179 H   0  0  0  0  0  0  0  0  0  0  0  0
   42.0653   48.1679   24.9149 H   0  0  0  0  0  0  0  0  0  0  0  0
   43.6127   48.3471   22.3644 H   0  0  0  0  0  0  0  0  0  0  0  0
   45.3385   46.9578   24.0918 H   0  0  0  0  0  0  0  0  0  0  0  0
   46.3923   49.5152   23.1055 H   0  0  0  0  0  0  0  0  0  0  0  0
   46.2411   48.5558   21.6073 H   0  0  0  0  0  0  0  0  0  0  0  0
   44.8101   50.9611   22.3417 H   0  0  0  0  0  0  0  0  0  0  0  0
  1  2  1  0
  1 10  1  0
  2  3  1  0
  2 18  2  0
  3  4  2  0
  3  8  1  0
  4  5  1  0
  5  6  2  0
  5 12  1  0
  6  7  1  0
  7  8  2  0
  8  9  1  0
  9 10  2  0
 10 11  1  0
 12 13  1  0
 12 14  1  0
 14 15  1  0
 14 16  1  0
 16 17  1  0
  1 19  1  0
  6 20  1  0
 11 21  1  0
 11 22  1  0
 12 23  1  0
 13 24  1  0
 14 25  1  0
 15 26  1  0
 16 27  1  0
 16 28  1  0
 17 29  1  0
A    1
N2
A    2
C1
A    3
C10
A    4
N9
A    5
C8
A    6
C7
A    7
N6
A    8
C5
A    9
N4
A   10
C3
A   11
N13
A   12
C16
A   13
O21
A   14
C26
A   15
O22
A   16
C28
A   17
O24
A   18
O11
M  END
