2NM3_MPU_A_131
     RDKit          3D

 29 30  0  0  0  0  0  0  0  0999 V2000
   46.9300   45.9020   78.3370 N   0  0  0  0  0  0  0  0  0  0  0  0
   47.1320   46.7150   77.1770 C   0  0  0  0  0  0  0  0  0  0  0  0
   46.4220   47.6700   76.7900 O   0  0  0  0  0  0  0  0  0  0  0  0
   48.3410   46.2670   76.4510 C   0  0  0  0  0  0  0  0  0  0  0  0
   48.5670   47.0280   75.3210 N   0  0  0  0  0  0  0  0  0  0  0  0
   49.6410   46.6650   74.6320 C   0  0  0  0  0  0  0  0  0  0  0  0
   50.5920   45.5410   74.9630 C   0  0  0  0  0  0  0  0  0  0  0  0
   50.2730   44.8250   76.1310 N   0  0  0  0  0  0  0  0  0  0  0  0
   49.1530   45.1670   76.9030 C   0  0  0  0  0  0  0  0  0  0  0  0
   48.8710   44.4250   78.0670 N   0  0  0  0  0  0  0  0  0  0  0  0
   47.7710   44.8250   78.7380 C   0  0  0  0  0  0  0  0  0  0  0  0
   47.5090   44.0850   79.8680 N   0  0  0  0  0  0  0  0  0  0  0  0
   49.8990   47.4970   73.4400 C   0  0  0  0  0  0  0  0  0  0  0  0
   48.9500   48.4950   73.1980 O   0  0  0  0  0  0  0  0  0  0  0  0
   50.2690   46.7850   72.1280 C   0  0  0  0  0  0  0  0  0  0  0  0
   51.5620   46.2080   71.9800 O   0  0  0  0  0  0  0  0  0  0  0  0
   49.2780   45.6610   71.6910 C   0  0  0  0  0  0  0  0  0  0  0  0
   48.0070   46.1940   71.4200 O   0  0  0  0  0  0  0  0  0  0  0  0
   46.1129   46.1120   78.9279 H   0  0  0  0  0  0  0  0  0  0  0  0
   51.4660   45.3005   74.3399 H   0  0  0  0  0  0  0  0  0  0  0  0
   47.6554   44.4986   80.7999 H   0  0  0  0  0  0  0  0  0  0  0  0
   47.1664   43.1174   79.7820 H   0  0  0  0  0  0  0  0  0  0  0  0
   50.8327   47.9735   73.7733 H   0  0  0  0  0  0  0  0  0  0  0  0
   48.6147   48.8476   74.0602 H   0  0  0  0  0  0  0  0  0  0  0  0
   50.2246   47.6819   71.4927 H   0  0  0  0  0  0  0  0  0  0  0  0
   51.9503   46.0347   72.8740 H   0  0  0  0  0  0  0  0  0  0  0  0
   49.6646   45.1718   70.7848 H   0  0  0  0  0  0  0  0  0  0  0  0
   49.1874   44.9328   72.5104 H   0  0  0  0  0  0  0  0  0  0  0  0
   47.5423   46.3889   72.2722 H   0  0  0  0  0  0  0  0  0  0  0  0
  1  2  1  0
  1 11  1  0
  2  3  2  0
  2  4  1  0
  4  5  2  0
  4  9  1  0
  5  6  1  0
  6  7  2  0
  6 13  1  0
  7  8  1  0
  8  9  2  0
  9 10  1  0
 10 11  2  0
 11 12  1  0
 13 14  1  0
 13 15  1  0
 15 16  1  0
 15 17  1  0
 17 18  1  0
  1 19  1  0
  7 20  1  0
 12 21  1  0
 12 22  1  0
 13 23  1  0
 14 24  1  0
 15 25  1  0
 16 26  1  0
 17 27  1  0
 17 28  1  0
 18 29  1  0
A    1
N2
A    2
C1
A    3
O11
A    4
C10
A    5
N9
A    6
C8
A    7
C7
A    8
N6
A    9
C5
A   10
N4
A   11
C3
A   12
N13
A   13
C16
A   14
O21
A   15
C26
A   16
O22
A   17
C28
A   18
O24
M  END
