1IYK_MIM_A_502
     RDKit          3D

 95 97  0  0  0  0  0  0  0  0999 V2000
   21.2820   42.4430   31.8860 C   0  0  0  0  0  0  0  0  0  0  0  0
   19.8040   40.6690   30.9920 N   0  0  0  0  0  0  0  0  0  0  0  0
   19.9720   41.8610   31.5150 C   0  0  0  0  0  0  0  0  0  0  0  0
   18.7550   42.5130   31.6690 N   0  0  0  0  0  0  0  0  0  0  0  0
   17.7900   41.6520   31.2050 C   0  0  0  0  0  0  0  0  0  0  0  0
   18.4750   40.5490   30.8060 C   0  0  0  0  0  0  0  0  0  0  0  0
   18.3960   43.8540   32.2050 C   0  0  0  0  0  0  0  0  0  0  0  0
   18.1740   44.8430   31.0570 C   0  0  0  0  0  0  0  0  0  0  0  0
   17.3950   46.0610   31.5600 C   0  0  0  0  0  0  0  0  0  0  0  0
   18.0270   46.7830   32.7650 C   0  0  0  0  0  0  0  0  0  0  0  0
   19.4500   47.2230   32.5290 C   0  0  0  0  0  0  0  0  0  0  0  0
   20.4760   46.4860   33.1380 C   0  0  0  0  0  0  0  0  0  0  0  0
   21.7950   46.8700   32.9380 C   0  0  0  0  0  0  0  0  0  0  0  0
   22.1060   47.9930   32.1390 C   0  0  0  0  0  0  0  0  0  0  0  0
   21.0690   48.7280   31.5310 C   0  0  0  0  0  0  0  0  0  0  0  0
   19.7400   48.3420   31.7310 C   0  0  0  0  0  0  0  0  0  0  0  0
   23.5610   48.4110   31.9430 C   0  0  0  0  0  0  0  0  0  0  0  0
   24.0430   49.3490   33.0440 C   0  0  0  0  0  0  0  0  0  0  0  0
   23.5460   50.4740   33.1840 O   0  0  0  0  0  0  0  0  0  0  0  0
   24.9880   48.9090   33.8120 N   0  0  0  0  0  0  0  0  0  0  0  0
   25.4760   49.7010   34.8800 C   0  0  0  0  0  0  0  0  0  0  0  0
   26.9440   50.0340   34.7080 C   0  0  0  0  0  0  0  0  0  0  0  0
   27.6640   49.2290   34.1100 O   0  0  0  0  0  0  0  0  0  0  0  0
   25.2430   48.9350   36.1790 C   0  0  0  0  0  0  0  0  0  0  0  0
   25.8090   49.6430   37.2500 O   0  0  0  0  0  0  0  0  0  0  0  0
   27.3630   51.1760   35.2050 N   0  0  0  0  0  0  0  0  0  0  0  0
   28.7650   51.5350   35.1420 C   0  0  0  0  0  0  0  0  0  0  0  0
   29.1630   52.0540   36.4890 C   0  0  0  0  0  0  0  0  0  0  0  0
   28.2850   52.3380   37.3120 O   0  0  0  0  0  0  0  0  0  0  0  0
   29.1450   52.4910   33.9840 C   0  0  0  0  0  0  0  0  0  0  0  0
   28.4020   53.8560   34.0320 C   0  0  0  0  0  0  0  0  0  0  0  0
   28.8480   54.7410   32.8490 C   0  0  0  0  0  0  0  0  0  0  0  0
   28.0030   56.0070   32.7610 C   0  0  0  0  0  0  0  0  0  0  0  0
   26.5950   55.6050   32.6570 N   0  0  0  0  0  0  0  0  0  0  0  0
   30.4320   52.1720   36.7020 N   0  0  0  0  0  0  0  0  0  0  0  0
   30.9980   52.6420   37.9630 C   0  0  0  0  0  0  0  0  0  0  0  0
   32.2640   51.8120   38.2430 C   0  0  0  0  0  0  0  0  0  0  0  0
   32.9140   52.1020   39.6120 C   0  0  0  0  0  0  0  0  0  0  0  0
   31.9210   51.9410   40.7990 C   0  0  0  0  0  0  0  0  0  0  0  0
   32.6520   52.2230   42.1590 C   0  0  0  0  0  0  0  0  0  0  0  0
   33.8730   51.3030   42.3600 C   0  0  0  0  0  0  0  0  0  0  0  0
   34.8510   51.4590   41.1750 C   0  0  0  0  0  0  0  0  0  0  0  0
   34.1440   51.1760   39.8340 C   0  0  0  0  0  0  0  0  0  0  0  0
   21.3689   42.4816   32.9819 H   0  0  0  0  0  0  0  0  0  0  0  0
   22.0898   41.8191   31.4759 H   0  0  0  0  0  0  0  0  0  0  0  0
   21.3605   43.4607   31.4759 H   0  0  0  0  0  0  0  0  0  0  0  0
   16.7035   41.8189   31.1654 H   0  0  0  0  0  0  0  0  0  0  0  0
   17.9970   39.6556   30.3779 H   0  0  0  0  0  0  0  0  0  0  0  0
   17.4729   43.7727   32.7976 H   0  0  0  0  0  0  0  0  0  0  0  0
   19.2188   44.2186   32.8375 H   0  0  0  0  0  0  0  0  0  0  0  0
   19.1480   45.1701   30.6642 H   0  0  0  0  0  0  0  0  0  0  0  0
   17.5980   44.3491   30.2606 H   0  0  0  0  0  0  0  0  0  0  0  0
   17.3163   46.7817   30.7327 H   0  0  0  0  0  0  0  0  0  0  0  0
   16.4204   45.6836   31.9031 H   0  0  0  0  0  0  0  0  0  0  0  0
   17.4217   47.6726   32.9936 H   0  0  0  0  0  0  0  0  0  0  0  0
   18.0463   46.0638   33.5971 H   0  0  0  0  0  0  0  0  0  0  0  0
   20.2387   45.6147   33.7662 H   0  0  0  0  0  0  0  0  0  0  0  0
   22.6065   46.2939   33.4065 H   0  0  0  0  0  0  0  0  0  0  0  0
   21.3034   49.6001   30.9029 H   0  0  0  0  0  0  0  0  0  0  0  0
   18.9237   48.9132   31.2646 H   0  0  0  0  0  0  0  0  0  0  0  0
   24.1918   47.5099   31.9438 H   0  0  0  0  0  0  0  0  0  0  0  0
   23.6324   48.9483   30.9858 H   0  0  0  0  0  0  0  0  0  0  0  0
   25.3884   47.9748   33.6448 H   0  0  0  0  0  0  0  0  0  0  0  0
   24.9382   50.6604   34.8986 H   0  0  0  0  0  0  0  0  0  0  0  0
   24.1621   48.8191   36.3470 H   0  0  0  0  0  0  0  0  0  0  0  0
   25.7126   47.9428   36.1077 H   0  0  0  0  0  0  0  0  0  0  0  0
   25.4972   49.2530   38.1049 H   0  0  0  0  0  0  0  0  0  0  0  0
   26.6895   51.8208   35.6427 H   0  0  0  0  0  0  0  0  0  0  0  0
   29.3415   50.6312   34.8953 H   0  0  0  0  0  0  0  0  0  0  0  0
   30.2271   52.6826   34.0325 H   0  0  0  0  0  0  0  0  0  0  0  0
   28.8484   51.9959   33.0475 H   0  0  0  0  0  0  0  0  0  0  0  0
   27.3175   53.6830   33.9690 H   0  0  0  0  0  0  0  0  0  0  0  0
   28.6439   54.3660   34.9761 H   0  0  0  0  0  0  0  0  0  0  0  0
   29.9024   55.0219   32.9881 H   0  0  0  0  0  0  0  0  0  0  0  0
   28.7194   54.1699   31.9177 H   0  0  0  0  0  0  0  0  0  0  0  0
   28.1512   56.6184   33.6633 H   0  0  0  0  0  0  0  0  0  0  0  0
   28.2966   56.6027   31.8841 H   0  0  0  0  0  0  0  0  0  0  0  0
   26.1995   55.4921   33.6013 H   0  0  0  0  0  0  0  0  0  0  0  0
   26.0679   56.3291   32.1483 H   0  0  0  0  0  0  0  0  0  0  0  0
   31.0792   51.9209   35.9411 H   0  0  0  0  0  0  0  0  0  0  0  0
   31.2583   53.7078   37.8832 H   0  0  0  0  0  0  0  0  0  0  0  0
   30.2709   52.5252   38.7801 H   0  0  0  0  0  0  0  0  0  0  0  0
   31.9940   50.7463   38.2070 H   0  0  0  0  0  0  0  0  0  0  0  0
   33.0019   52.0879   37.4753 H   0  0  0  0  0  0  0  0  0  0  0  0
   33.2330   53.1545   39.5902 H   0  0  0  0  0  0  0  0  0  0  0  0
   31.0914   52.6531   40.6779 H   0  0  0  0  0  0  0  0  0  0  0  0
   31.5340   50.9114   40.8062 H   0  0  0  0  0  0  0  0  0  0  0  0
   32.9903   53.2696   42.1700 H   0  0  0  0  0  0  0  0  0  0  0  0
   31.9404   52.0263   42.9744 H   0  0  0  0  0  0  0  0  0  0  0  0
   34.3856   51.5764   43.2941 H   0  0  0  0  0  0  0  0  0  0  0  0
   33.5335   50.2581   42.4136 H   0  0  0  0  0  0  0  0  0  0  0  0
   35.2431   52.4867   41.1651 H   0  0  0  0  0  0  0  0  0  0  0  0
   35.6700   50.7352   41.2990 H   0  0  0  0  0  0  0  0  0  0  0  0
   33.8057   50.1294   39.8258 H   0  0  0  0  0  0  0  0  0  0  0  0
   34.8636   51.3702   39.0250 H   0  0  0  0  0  0  0  0  0  0  0  0
  1  3  1  0
  2  3  2  0
  2  6  1  0
  3  4  1  0
  4  5  1  0
  4  7  1  0
  5  6  2  0
  7  8  1  0
  8  9  1  0
  9 10  1  0
 10 11  1  0
 11 12  2  0
 11 16  1  0
 12 13  1  0
 13 14  2  0
 14 15  1  0
 14 17  1  0
 15 16  2  0
 17 18  1  0
 18 19  2  0
 18 20  1  0
 20 21  1  0
 21 22  1  0
 21 24  1  0
 22 23  2  0
 22 26  1  0
 24 25  1  0
 26 27  1  0
 27 28  1  0
 27 30  1  0
 28 29  2  0
 28 35  1  0
 30 31  1  0
 31 32  1  0
 32 33  1  0
 33 34  1  0
 35 36  1  0
 36 37  1  0
 37 38  1  0
 38 39  1  0
 38 43  1  0
 39 40  1  0
 40 41  1  0
 41 42  1  0
 42 43  1  0
  1 44  1  0
  1 45  1  0
  1 46  1  0
  5 47  1  0
  6 48  1  0
  7 49  1  0
  7 50  1  0
  8 51  1  0
  8 52  1  0
  9 53  1  0
  9 54  1  0
 10 55  1  0
 10 56  1  0
 12 57  1  0
 13 58  1  0
 15 59  1  0
 16 60  1  0
 17 61  1  0
 17 62  1  0
 20 63  1  0
 21 64  1  0
 24 65  1  0
 24 66  1  0
 25 67  1  0
 26 68  1  0
 27 69  1  0
 30 70  1  0
 30 71  1  0
 31 72  1  0
 31 73  1  0
 32 74  1  0
 32 75  1  0
 33 76  1  0
 33 77  1  0
 34 78  1  0
 34 79  1  0
 35 80  1  0
 36 81  1  0
 36 82  1  0
 37 83  1  0
 37 84  1  0
 38 85  1  0
 39 86  1  0
 39 87  1  0
 40 88  1  0
 40 89  1  0
 41 90  1  0
 41 91  1  0
 42 92  1  0
 42 93  1  0
 43 94  1  0
 43 95  1  0
A    1
CIB
A    2
NGB
A    3
CBB
A    4
NAB
A    5
CEB
A    6
CDB
A    7
C9B
A    8
C8B
A    9
C7B
A   10
C6B
A   11
C3B
A   12
C2B
A   13
C1B
A   14
C0B
A   15
C5B
A   16
C4B
A   17
CAB
A   18
CB
A   19
OB
A   20
NS
A   21
CAS
A   22
CS
A   23
OS
A   24
CBS
A   25
OGS
A   26
NK
A   27
CAK
A   28
CK
A   29
OK
A   30
CBK
A   31
CGK
A   32
CDK
A   33
CEK
A   34
NZK
A   35
NY
A   36
CAY
A   37
CBY
A   38
CGY
A   39
CKY
A   40
CHY
A   41
CZY
A   42
CEY
A   43
CDY
M  END
