2NMX_M25_A_311
     RDKit          3D

 30 30  0  0  0  0  0  0  0  0999 V2000
  -17.1190   -0.3350  -19.2180 C   0  0  0  0  0  0  0  0  0  0  0  0
  -17.2670   -1.1950  -18.1260 C   0  0  0  0  0  0  0  0  0  0  0  0
  -17.8370   -0.6910  -16.9680 C   0  0  0  0  0  0  0  0  0  0  0  0
  -18.2630    0.6470  -16.8510 C   0  0  0  0  0  0  0  0  0  0  0  0
  -18.1000    1.4990  -17.9670 C   0  0  0  0  0  0  0  0  0  0  0  0
  -17.5280    1.0280  -19.1630 C   0  0  0  0  0  0  0  0  0  0  0  0
  -16.3990   -0.9430  -20.7100 S   0  0  0  0  0  0  0  0  0  0  0  0
  -16.0470    0.1710  -21.5580 O   0  0  0  0  0  0  0  0  0  0  0  0
  -17.3810   -1.8790  -21.2420 O   0  0  0  0  0  0  0  0  0  0  0  0
  -15.0290   -1.7550  -20.3310 N   0  0  0  0  0  0  0  0  0  0  0  0
  -18.8660    1.1360  -15.5610 C   0  0  0  0  0  0  0  0  0  0  0  0
  -17.7940    1.6190  -14.5950 C   0  0  0  0  0  0  0  0  0  0  0  0
  -18.4260    2.0720  -13.3570 N   0  0  0  0  0  0  0  0  0  0  0  0
  -18.7940    3.3740  -13.1580 C   0  0  0  0  0  0  0  0  0  0  0  0
  -19.4340    3.6210  -11.8050 C   0  0  0  0  0  0  0  0  0  0  0  0
  -18.6280    4.2840  -13.9800 O   0  0  0  0  0  0  0  0  0  0  0  0
  -16.9398   -2.2436  -18.1844 H   0  0  0  0  0  0  0  0  0  0  0  0
  -17.9619   -1.3622  -16.1056 H   0  0  0  0  0  0  0  0  0  0  0  0
  -18.4257    2.5475  -17.8993 H   0  0  0  0  0  0  0  0  0  0  0  0
  -17.4005    1.6929  -20.0300 H   0  0  0  0  0  0  0  0  0  0  0  0
  -14.9351   -1.8107  -19.3068 H   0  0  0  0  0  0  0  0  0  0  0  0
  -15.0738   -2.7061  -20.7239 H   0  0  0  0  0  0  0  0  0  0  0  0
  -19.5521    1.9677  -15.7792 H   0  0  0  0  0  0  0  0  0  0  0  0
  -19.4038    0.2993  -15.0912 H   0  0  0  0  0  0  0  0  0  0  0  0
  -17.1011    0.7940  -14.3730 H   0  0  0  0  0  0  0  0  0  0  0  0
  -17.2370    2.4515  -15.0497 H   0  0  0  0  0  0  0  0  0  0  0  0
  -18.6002    1.3864  -12.6083 H   0  0  0  0  0  0  0  0  0  0  0  0
  -18.7257    3.3477  -11.0090 H   0  0  0  0  0  0  0  0  0  0  0  0
  -19.6968    4.6851  -11.7125 H   0  0  0  0  0  0  0  0  0  0  0  0
  -20.3435    3.0093  -11.7125 H   0  0  0  0  0  0  0  0  0  0  0  0
  1  7  1  0
  1  6  2  0
  1  2  1  0
  2  3  2  0
  3  4  1  0
  4  5  2  0
  4 11  1  0
  5  6  1  0
  7  8  2  0
  7  9  2  0
  7 10  1  0
 11 12  1  0
 12 13  1  0
 13 14  1  0
 14 16  2  0
 14 15  1  0
  2 17  1  0
  3 18  1  0
  5 19  1  0
  6 20  1  0
 10 21  1  0
 10 22  1  0
 11 23  1  0
 11 24  1  0
 12 25  1  0
 12 26  1  0
 13 27  1  0
 15 28  1  0
 15 29  1  0
 15 30  1  0
A    1
C1
A    2
C2
A    3
C3
A    4
C4
A    5
C5
A    6
C6
A    7
S
A    8
O1
A    9
O2
A   10
N1
A   11
C7
A   12
C8
A   13
N2
A   14
C9
A   15
C10
A   16
O3
M  END
