2NNQ_T4B_A_293
     RDKit          3D

 62 66  0  0  0  0  0  0  0  0999 V2000
    2.3600   10.6210   15.5130 C   0  0  0  0  0  0  0  0  0  0  0  0
    6.0970   10.0740   16.3860 C   0  0  0  0  0  0  0  0  0  0  0  0
    6.4370    8.6900   16.2580 C   0  0  0  0  0  0  0  0  0  0  0  0
    4.9160   11.7070   14.8380 C   0  0  0  0  0  0  0  0  0  0  0  0
    3.7310   12.2490   14.2720 C   0  0  0  0  0  0  0  0  0  0  0  0
    6.9200    5.7870   16.8350 C   0  0  0  0  0  0  0  0  0  0  0  0
    6.7200    5.2070   15.4380 C   0  0  0  0  0  0  0  0  0  0  0  0
    7.5930    8.1560   16.9270 C   0  0  0  0  0  0  0  0  0  0  0  0
    8.4080    9.0190   17.7190 C   0  0  0  0  0  0  0  0  0  0  0  0
    8.0780   10.4000   17.8420 C   0  0  0  0  0  0  0  0  0  0  0  0
    6.9260   10.9280   17.1780 C   0  0  0  0  0  0  0  0  0  0  0  0
    3.3590    6.9490   14.4400 C   0  0  0  0  0  0  0  0  0  0  0  0
    2.5280    5.5810   18.2210 C   0  0  0  0  0  0  0  0  0  0  0  0
    3.0490    6.9750   17.9580 C   0  0  0  0  0  0  0  0  0  0  0  0
    2.8930    7.7040   16.8070 C   0  0  0  0  0  0  0  0  0  0  0  0
    2.2770    7.1780   15.5020 C   0  0  0  0  0  0  0  0  0  0  0  0
    2.9070    3.2440   18.9290 C   0  0  0  0  0  0  0  0  0  0  0  0
    4.1060    6.6740   22.5750 C   0  0  0  0  0  0  0  0  0  0  0  0
    4.3410    7.5550   20.2760 C   0  0  0  0  0  0  0  0  0  0  0  0
    1.1270    5.2900   18.0640 C   0  0  0  0  0  0  0  0  0  0  0  0
    2.4560   11.7100   14.6080 C   0  0  0  0  0  0  0  0  0  0  0  0
    5.6860    7.9410   20.5700 C   0  0  0  0  0  0  0  0  0  0  0  0
    3.5450   10.0610   16.0900 C   0  0  0  0  0  0  0  0  0  0  0  0
    4.8400   10.6120   15.7530 C   0  0  0  0  0  0  0  0  0  0  0  0
    7.2750    5.7190   14.4680 O   0  0  0  0  0  0  0  0  0  0  0  0
    5.9360    4.1630   15.2630 O   0  0  0  0  0  0  0  0  0  0  0  0
    7.9380    6.8180   16.8020 O   0  0  0  0  0  0  0  0  0  0  0  0
    3.4130    4.5430   18.6550 C   0  0  0  0  0  0  0  0  0  0  0  0
    3.4580    8.9580   16.9990 N   0  0  0  0  0  0  0  0  0  0  0  0
    3.9960    9.0000   18.3230 N   0  0  0  0  0  0  0  0  0  0  0  0
    3.7940    7.8620   18.9220 C   0  0  0  0  0  0  0  0  0  0  0  0
    3.5500    6.9180   21.2880 C   0  0  0  0  0  0  0  0  0  0  0  0
    5.4470    7.0620   22.8580 C   0  0  0  0  0  0  0  0  0  0  0  0
    6.2380    7.6950   21.8610 C   0  0  0  0  0  0  0  0  0  0  0  0
    1.5210    2.9690   18.7680 C   0  0  0  0  0  0  0  0  0  0  0  0
    0.6320    3.9900   18.3350 C   0  0  0  0  0  0  0  0  0  0  0  0
    1.3743   10.2067   15.7715 H   0  0  0  0  0  0  0  0  0  0  0  0
    5.8090    8.0288   15.6428 H   0  0  0  0  0  0  0  0  0  0  0  0
    5.8950   12.1316   14.5711 H   0  0  0  0  0  0  0  0  0  0  0  0
    3.7986   13.0919   13.5685 H   0  0  0  0  0  0  0  0  0  0  0  0
    5.9730    6.2211   17.1883 H   0  0  0  0  0  0  0  0  0  0  0  0
    7.2398    4.9852   17.5167 H   0  0  0  0  0  0  0  0  0  0  0  0
    9.2924    8.6177   18.2355 H   0  0  0  0  0  0  0  0  0  0  0  0
    8.7116   11.0626   18.4499 H   0  0  0  0  0  0  0  0  0  0  0  0
    6.6772   11.9949   17.2772 H   0  0  0  0  0  0  0  0  0  0  0  0
    4.3205    6.7455   14.9341 H   0  0  0  0  0  0  0  0  0  0  0  0
    3.0804    6.0899   13.8120 H   0  0  0  0  0  0  0  0  0  0  0  0
    3.4523    7.8473   13.8120 H   0  0  0  0  0  0  0  0  0  0  0  0
    1.5513    7.9133   15.1242 H   0  0  0  0  0  0  0  0  0  0  0  0
    1.7795    6.2191   15.7095 H   0  0  0  0  0  0  0  0  0  0  0  0
    3.5887    2.4493   19.2664 H   0  0  0  0  0  0  0  0  0  0  0  0
    3.4997    6.1854   23.3519 H   0  0  0  0  0  0  0  0  0  0  0  0
    0.4375    6.0802   17.7322 H   0  0  0  0  0  0  0  0  0  0  0  0
    1.5446   12.1384   14.1654 H   0  0  0  0  0  0  0  0  0  0  0  0
    6.2971    8.4297   19.7969 H   0  0  0  0  0  0  0  0  0  0  0  0
    7.9958    6.3839   14.6041 H   0  0  0  0  0  0  0  0  0  0  0  0
    4.4862    4.7514   18.7765 H   0  0  0  0  0  0  0  0  0  0  0  0
    2.5144    6.6182   21.0698 H   0  0  0  0  0  0  0  0  0  0  0  0
    5.8730    6.8706   23.8540 H   0  0  0  0  0  0  0  0  0  0  0  0
    7.2726    7.9940   22.0849 H   0  0  0  0  0  0  0  0  0  0  0  0
    1.1350    1.9609   18.9797 H   0  0  0  0  0  0  0  0  0  0  0  0
   -0.4388    3.7714   18.2104 H   0  0  0  0  0  0  0  0  0  0  0  0
  1 23  2  0
  1 21  1  0
  2  3  2  0
  2 11  1  0
  2 24  1  0
  3  8  1  0
  4  5  1  0
  4 24  2  0
  5 21  2  0
  6  7  1  0
  6 27  1  0
  7 25  1  0
  7 26  2  0
  8 27  1  0
  8  9  2  0
  9 10  1  0
 10 11  2  0
 12 16  1  0
 13 14  1  0
 13 28  1  0
 13 20  2  0
 14 31  1  0
 14 15  2  0
 15 29  1  0
 15 16  1  0
 17 28  2  0
 17 35  1  0
 18 33  2  0
 18 32  1  0
 19 31  1  0
 19 22  1  0
 19 32  2  0
 20 36  1  0
 22 34  2  0
 23 24  1  0
 23 29  1  0
 29 30  1  0
 30 31  2  0
 33 34  1  0
 35 36  2  0
  1 37  1  0
  3 38  1  0
  4 39  1  0
  5 40  1  0
  6 41  1  0
  6 42  1  0
  9 43  1  0
 10 44  1  0
 11 45  1  0
 12 46  1  0
 12 47  1  0
 12 48  1  0
 16 49  1  0
 16 50  1  0
 17 51  1  0
 18 52  1  0
 20 53  1  0
 21 54  1  0
 22 55  1  0
 25 56  1  0
 28 57  1  0
 32 58  1  0
 33 59  1  0
 34 60  1  0
 35 61  1  0
 36 62  1  0
A    1
C1
A    2
C2
A    3
C3
A    4
C7
A    5
C8
A    6
C9
A    7
C10
A    8
C11
A    9
C12
A   10
C13
A   11
C14
A   12
C15
A   13
C16
A   14
C19
A   15
C20
A   16
C21
A   17
C22
A   18
C24
A   19
C27
A   20
C30
A   21
C
A   22
C4
A   23
C5
A   24
C6
A   25
O
A   26
O1
A   27
O2
A   28
C17
A   29
N
A   30
N1
A   31
C18
A   32
C23
A   33
C25
A   34
C26
A   35
C28
A   36
C29
M  END
