2NO3_859_A_901
     RDKit          3D

 39 41  0  0  0  0  0  0  0  0999 V2000
   17.7710  107.5350   51.0610 C   0  0  0  0  0  0  0  0  0  0  0  0
   18.8810  107.0790   50.4700 N   0  0  0  0  0  0  0  0  0  0  0  0
   18.8750  106.6660   49.1930 C   0  0  0  0  0  0  0  0  0  0  0  0
   17.6950  106.6990   48.4520 C   0  0  0  0  0  0  0  0  0  0  0  0
   16.5550  107.1920   49.1190 C   0  0  0  0  0  0  0  0  0  0  0  0
   16.5960  107.6020   50.4200 N   0  0  0  0  0  0  0  0  0  0  0  0
   20.0360  106.1830   48.6480 N   0  0  0  0  0  0  0  0  0  0  0  0
   21.3420  106.0370   49.1580 C   0  0  0  0  0  0  0  0  0  0  0  0
   22.3420  105.4330   48.3300 C   0  0  0  0  0  0  0  0  0  0  0  0
   23.6630  105.2640   48.8230 C   0  0  0  0  0  0  0  0  0  0  0  0
   24.0200  105.6940   50.1180 C   0  0  0  0  0  0  0  0  0  0  0  0
   23.0610  106.2830   50.9430 C   0  0  0  0  0  0  0  0  0  0  0  0
   21.7580  106.4510   50.4680 C   0  0  0  0  0  0  0  0  0  0  0  0
   17.8210  107.9340   52.3720 N   0  0  0  0  0  0  0  0  0  0  0  0
   18.9080  108.0340   53.2260 C   0  0  0  0  0  0  0  0  0  0  0  0
   18.9030  109.0960   54.1600 C   0  0  0  0  0  0  0  0  0  0  0  0
   19.9660  109.2770   55.0740 C   0  0  0  0  0  0  0  0  0  0  0  0
   21.0750  108.3880   55.0720 C   0  0  0  0  0  0  0  0  0  0  0  0
   21.1100  107.3220   54.1530 C   0  0  0  0  0  0  0  0  0  0  0  0
   20.0380  107.1510   53.2480 C   0  0  0  0  0  0  0  0  0  0  0  0
   22.1910  106.4510   54.1380 O   0  0  0  0  0  0  0  0  0  0  0  0
   22.0170  104.9470   46.9660 C   0  0  0  0  0  0  0  0  0  0  0  0
   23.0100  104.3640   46.2730 N   0  0  0  0  0  0  0  0  0  0  0  0
   20.9050  105.0460   46.4600 O   0  0  0  0  0  0  0  0  0  0  0  0
   17.6554  106.3597   47.4064 H   0  0  0  0  0  0  0  0  0  0  0  0
   15.6016  107.2480   48.5731 H   0  0  0  0  0  0  0  0  0  0  0  0
   19.9342  105.8638   47.6740 H   0  0  0  0  0  0  0  0  0  0  0  0
   24.4215  104.7892   48.1834 H   0  0  0  0  0  0  0  0  0  0  0  0
   25.0519  105.5654   50.4767 H   0  0  0  0  0  0  0  0  0  0  0  0
   23.3285  106.6120   51.9580 H   0  0  0  0  0  0  0  0  0  0  0  0
   21.0159  106.9227   51.1289 H   0  0  0  0  0  0  0  0  0  0  0  0
   16.9149  108.1991   52.7838 H   0  0  0  0  0  0  0  0  0  0  0  0
   18.0543  109.7956   54.1755 H   0  0  0  0  0  0  0  0  0  0  0  0
   19.9348  110.1107   55.7909 H   0  0  0  0  0  0  0  0  0  0  0  0
   21.9009  108.5320   55.7841 H   0  0  0  0  0  0  0  0  0  0  0  0
   20.0714  106.3126   52.5367 H   0  0  0  0  0  0  0  0  0  0  0  0
   22.5836  106.1346   54.9900 H   0  0  0  0  0  0  0  0  0  0  0  0
   23.7872  103.9077   46.7717 H   0  0  0  0  0  0  0  0  0  0  0  0
   22.9939  104.3735   45.2432 H   0  0  0  0  0  0  0  0  0  0  0  0
  1  6  1  0
  1  2  2  0
  1 14  1  0
  2  3  1  0
  3  4  2  0
  3  7  1  0
  4  5  1  0
  5  6  2  0
  7  8  1  0
  8  9  2  0
  8 13  1  0
  9 22  1  0
  9 10  1  0
 10 11  2  0
 11 12  1  0
 12 13  2  0
 14 15  1  0
 15 20  1  0
 15 16  2  0
 16 17  1  0
 17 18  2  0
 18 19  1  0
 19 20  2  0
 19 21  1  0
 22 23  1  0
 22 24  2  0
  4 25  1  0
  5 26  1  0
  7 27  1  0
 10 28  1  0
 11 29  1  0
 12 30  1  0
 13 31  1  0
 14 32  1  0
 16 33  1  0
 17 34  1  0
 18 35  1  0
 20 36  1  0
 21 37  1  0
 23 38  1  0
 23 39  1  0
A    1
C1
A    2
N2
A    3
C3
A    4
C4
A    5
C5
A    6
N6
A    7
N7
A    8
C8
A    9
C9
A   10
C10
A   11
C11
A   12
C12
A   13
C13
A   14
N14
A   15
C15
A   16
C16
A   17
C17
A   18
C18
A   19
C19
A   20
C20
A   21
O21
A   22
C22
A   23
N23
A   24
O24
M  END
