2NP8_CC3_A_394
     RDKit          3D

 48 51  0  0  0  0  0  0  0  0999 V2000
   -0.9040   34.5510   -1.7140 O   0  0  0  0  0  0  0  0  0  0  0  0
   -0.8280   35.3640   -2.6320 C   0  0  0  0  0  0  0  0  0  0  0  0
    0.0680   36.5680   -2.4840 C   0  0  0  0  0  0  0  0  0  0  0  0
   -0.7350   37.8680   -2.5400 C   0  0  0  0  0  0  0  0  0  0  0  0
   -0.2580   37.3210   -1.1990 C   0  0  0  0  0  0  0  0  0  0  0  0
   -1.4820   35.2480   -3.7990 N   0  0  0  0  0  0  0  0  0  0  0  0
   -2.2700   34.2020   -4.1850 C   0  0  0  0  0  0  0  0  0  0  0  0
   -2.4740   34.0020   -5.5470 C   0  0  0  0  0  0  0  0  0  0  0  0
   -2.9030   33.3450   -3.2800 C   0  0  0  0  0  0  0  0  0  0  0  0
   -3.7110   32.3040   -3.7290 C   0  0  0  0  0  0  0  0  0  0  0  0
   -3.9020   32.1200   -5.1000 C   0  0  0  0  0  0  0  0  0  0  0  0
   -3.2850   32.9700   -6.0170 C   0  0  0  0  0  0  0  0  0  0  0  0
   -3.4200   32.8550   -7.3630 N   0  0  0  0  0  0  0  0  0  0  0  0
   -4.0990   31.9260   -8.0810 C   0  0  0  0  0  0  0  0  0  0  0  0
   -4.0400   32.0200   -9.4300 N   0  0  0  0  0  0  0  0  0  0  0  0
   -4.6800   31.1470  -10.2170 C   0  0  0  0  0  0  0  0  0  0  0  0
   -5.4290   30.1220   -9.6510 C   0  0  0  0  0  0  0  0  0  0  0  0
   -4.8220   30.9330   -7.5060 N   0  0  0  0  0  0  0  0  0  0  0  0
   -5.4950   30.0260   -8.2620 C   0  0  0  0  0  0  0  0  0  0  0  0
   -6.2360   29.0230   -7.7240 N   0  0  0  0  0  0  0  0  0  0  0  0
   -6.5000   28.8060   -6.4070 C   0  0  0  0  0  0  0  0  0  0  0  0
   -7.2420   27.6750   -6.0750 C   0  0  0  0  0  0  0  0  0  0  0  0
   -7.5480   27.3850   -4.7440 C   0  0  0  0  0  0  0  0  0  0  0  0
   -8.3450   26.1460   -4.4140 C   0  0  0  0  0  0  0  0  0  0  0  0
   -9.1930   25.8600   -5.3980 F   0  0  0  0  0  0  0  0  0  0  0  0
   -7.4890   25.1440   -4.2830 F   0  0  0  0  0  0  0  0  0  0  0  0
   -9.0250   26.3110   -3.2820 F   0  0  0  0  0  0  0  0  0  0  0  0
   -7.1010   28.2380   -3.7280 C   0  0  0  0  0  0  0  0  0  0  0  0
   -6.3590   29.3710   -4.0500 C   0  0  0  0  0  0  0  0  0  0  0  0
   -6.0650   29.6490   -5.3820 C   0  0  0  0  0  0  0  0  0  0  0  0
    0.9816   36.1940   -2.9692 H   0  0  0  0  0  0  0  0  0  0  0  0
   -0.2795   38.7786   -2.9563 H   0  0  0  0  0  0  0  0  0  0  0  0
   -1.7084   38.1643   -2.9580 H   0  0  0  0  0  0  0  0  0  0  0  0
   -0.9843   36.9030   -0.4864 H   0  0  0  0  0  0  0  0  0  0  0  0
    0.3331   37.7221   -0.3625 H   0  0  0  0  0  0  0  0  0  0  0  0
   -1.3791   36.0240   -4.4684 H   0  0  0  0  0  0  0  0  0  0  0  0
   -1.9847   34.6728   -6.2685 H   0  0  0  0  0  0  0  0  0  0  0  0
   -2.7609   33.4950   -2.1996 H   0  0  0  0  0  0  0  0  0  0  0  0
   -4.1963   31.6301   -3.0077 H   0  0  0  0  0  0  0  0  0  0  0  0
   -4.5423   31.3005   -5.4583 H   0  0  0  0  0  0  0  0  0  0  0  0
   -2.9379   33.5763   -7.9182 H   0  0  0  0  0  0  0  0  0  0  0  0
   -4.6133   31.2406  -11.3110 H   0  0  0  0  0  0  0  0  0  0  0  0
   -5.9602   29.3994  -10.2879 H   0  0  0  0  0  0  0  0  0  0  0  0
   -6.6445   28.3502   -8.3884 H   0  0  0  0  0  0  0  0  0  0  0  0
   -7.5914   27.0017   -6.8716 H   0  0  0  0  0  0  0  0  0  0  0  0
   -7.3357   28.0134   -2.6771 H   0  0  0  0  0  0  0  0  0  0  0  0
   -6.0063   30.0442   -3.2548 H   0  0  0  0  0  0  0  0  0  0  0  0
   -5.4807   30.5470   -5.6312 H   0  0  0  0  0  0  0  0  0  0  0  0
  1  2  2  0
  2  6  1  0
  2  3  1  0
  3  4  1  0
  3  5  1  0
  4  5  1  0
  6  7  1  0
  7  8  2  0
  7  9  1  0
  8 12  1  0
  9 10  2  0
 10 11  1  0
 11 12  2  0
 12 13  1  0
 13 14  1  0
 14 15  2  0
 14 18  1  0
 15 16  1  0
 16 17  2  0
 17 19  1  0
 18 19  2  0
 19 20  1  0
 20 21  1  0
 21 22  2  0
 21 30  1  0
 22 23  1  0
 23 24  1  0
 23 28  2  0
 24 25  1  0
 24 26  1  0
 24 27  1  0
 28 29  1  0
 29 30  2  0
  3 31  1  0
  4 32  1  0
  4 33  1  0
  5 34  1  0
  5 35  1  0
  6 36  1  0
  8 37  1  0
  9 38  1  0
 10 39  1  0
 11 40  1  0
 13 41  1  0
 16 42  1  0
 17 43  1  0
 20 44  1  0
 22 45  1  0
 28 46  1  0
 29 47  1  0
 30 48  1  0
A    1
O27
A    2
C26
A    3
C28
A    4
C30
A    5
C29
A    6
N25
A    7
C21
A    8
C20
A    9
C22
A   10
C23
A   11
C24
A   12
C19
A   13
N18
A   14
C16
A   15
N15
A   16
C14
A   17
C13
A   18
N17
A   19
C12
A   20
N11
A   21
C1
A   22
C6
A   23
C5
A   24
C7
A   25
F10
A   26
F9
A   27
F8
A   28
C4
A   29
C3
A   30
C2
M  END
