2NPA_MMB_A_1201
     RDKit          3D

 60 62  0  0  0  0  0  0  0  0999 V2000
   32.9610    1.9510    1.1370 C   0  0  0  0  0  0  0  0  0  0  0  0
   34.1480    1.8870    0.1380 C   0  0  0  0  0  0  0  0  0  0  0  0
   35.5550    2.4580    0.5490 C   0  0  0  0  0  0  0  0  0  0  0  0
   33.6600    2.5910   -1.1260 C   0  0  0  0  0  0  0  0  0  0  0  0
   33.2360    1.8670   -2.0170 O   0  0  0  0  0  0  0  0  0  0  0  0
   33.6920    3.8220   -1.2140 O   0  0  0  0  0  0  0  0  0  0  0  0
   33.1120    1.2440    2.4470 C   0  0  0  0  0  0  0  0  0  0  0  0
   33.6030    1.9130    3.5910 C   0  0  0  0  0  0  0  0  0  0  0  0
   33.7300    1.2340    4.8160 C   0  0  0  0  0  0  0  0  0  0  0  0
   33.3710   -0.1310    4.9460 C   0  0  0  0  0  0  0  0  0  0  0  0
   32.8750   -0.8060    3.7910 C   0  0  0  0  0  0  0  0  0  0  0  0
   32.7500   -0.1190    2.5580 C   0  0  0  0  0  0  0  0  0  0  0  0
   33.5340   -0.6590    6.2500 O   0  0  0  0  0  0  0  0  0  0  0  0
   34.0510   -1.9330    6.5460 C   0  0  0  0  0  0  0  0  0  0  0  0
   35.5380   -1.8980    6.7730 C   0  0  0  0  0  0  0  0  0  0  0  0
   36.3640   -0.9110    7.2320 C   0  0  0  0  0  0  0  0  0  0  0  0
   37.6240   -1.3400    7.2570 O   0  0  0  0  0  0  0  0  0  0  0  0
   37.6340   -2.6200    6.8190 C   0  0  0  0  0  0  0  0  0  0  0  0
   36.4160   -3.0250    6.5070 N   0  0  0  0  0  0  0  0  0  0  0  0
   39.8270   -5.6420    6.1110 C   0  0  0  0  0  0  0  0  0  0  0  0
   38.6700   -4.8240    6.2230 C   0  0  0  0  0  0  0  0  0  0  0  0
   38.7920   -3.4930    6.6880 C   0  0  0  0  0  0  0  0  0  0  0  0
   40.0770   -2.9920    7.0390 C   0  0  0  0  0  0  0  0  0  0  0  0
   41.2180   -3.8090    6.9240 C   0  0  0  0  0  0  0  0  0  0  0  0
   41.0970   -5.1290    6.4610 C   0  0  0  0  0  0  0  0  0  0  0  0
   37.2700    3.6300    3.4960 C   0  0  0  0  0  0  0  0  0  0  0  0
   39.1420    3.7170    5.2780 C   0  0  0  0  0  0  0  0  0  0  0  0
   38.7290    3.9780    3.8180 C   0  0  0  0  0  0  0  0  0  0  0  0
   36.6980    2.3610   -0.4710 C   0  0  0  0  0  0  0  0  0  0  0  0
   35.8250    3.0380    1.7610 N   0  0  0  0  0  0  0  0  0  0  0  0
   37.0900    3.5540    2.1120 O   0  0  0  0  0  0  0  0  0  0  0  0
   36.1150    0.4990    7.6870 C   0  0  0  0  0  0  0  0  0  0  0  0
   32.7742    3.0125    1.3568 H   0  0  0  0  0  0  0  0  0  0  0  0
   32.1426    1.4201    0.6287 H   0  0  0  0  0  0  0  0  0  0  0  0
   34.3826    0.8165    0.0430 H   0  0  0  0  0  0  0  0  0  0  0  0
   32.7491    1.0356   -1.7896 H   0  0  0  0  0  0  0  0  0  0  0  0
   33.8881    2.9732    3.5227 H   0  0  0  0  0  0  0  0  0  0  0  0
   34.1165    1.7743    5.6928 H   0  0  0  0  0  0  0  0  0  0  0  0
   32.5880   -1.8658    3.8581 H   0  0  0  0  0  0  0  0  0  0  0  0
   32.3665   -0.6524    1.6757 H   0  0  0  0  0  0  0  0  0  0  0  0
   33.5616   -2.3126    7.4551 H   0  0  0  0  0  0  0  0  0  0  0  0
   33.8536   -2.5887    5.6851 H   0  0  0  0  0  0  0  0  0  0  0  0
   39.7339   -6.6772    5.7509 H   0  0  0  0  0  0  0  0  0  0  0  0
   37.6827   -5.2243    5.9491 H   0  0  0  0  0  0  0  0  0  0  0  0
   40.1796   -1.9590    7.4028 H   0  0  0  0  0  0  0  0  0  0  0  0
   42.2067   -3.4121    7.1976 H   0  0  0  0  0  0  0  0  0  0  0  0
   41.9906   -5.7641    6.3706 H   0  0  0  0  0  0  0  0  0  0  0  0
   37.0184    2.6600    3.9497 H   0  0  0  0  0  0  0  0  0  0  0  0
   36.6141    4.4139    3.9025 H   0  0  0  0  0  0  0  0  0  0  0  0
   38.4090    4.1802    5.9548 H   0  0  0  0  0  0  0  0  0  0  0  0
   39.1762    2.6329    5.4612 H   0  0  0  0  0  0  0  0  0  0  0  0
   40.1359    4.1514    5.4612 H   0  0  0  0  0  0  0  0  0  0  0  0
   39.3777    3.3758    3.1649 H   0  0  0  0  0  0  0  0  0  0  0  0
   38.8357    5.0602    3.6521 H   0  0  0  0  0  0  0  0  0  0  0  0
   37.6577    2.2796    0.0604 H   0  0  0  0  0  0  0  0  0  0  0  0
   36.5517    1.4720   -1.1022 H   0  0  0  0  0  0  0  0  0  0  0  0
   36.7036    3.2619   -1.1022 H   0  0  0  0  0  0  0  0  0  0  0  0
   36.1089    0.5338    8.7864 H   0  0  0  0  0  0  0  0  0  0  0  0
   36.9114    1.1540    7.3039 H   0  0  0  0  0  0  0  0  0  0  0  0
   35.1425    0.8416    7.3039 H   0  0  0  0  0  0  0  0  0  0  0  0
  1  2  1  0
  1  7  1  0
  2  3  1  0
  2  4  1  0
  3 29  1  0
  3 30  2  0
  4  6  2  0
  4  5  1  0
  7  8  2  0
  7 12  1  0
  8  9  1  0
  9 10  2  0
 10 13  1  0
 10 11  1  0
 11 12  2  0
 13 14  1  0
 14 15  1  0
 15 19  1  0
 15 16  2  0
 16 17  1  0
 16 32  1  0
 17 18  1  0
 18 22  1  0
 18 19  2  0
 20 25  2  0
 20 21  1  0
 21 22  2  0
 22 23  1  0
 23 24  2  0
 24 25  1  0
 26 28  1  0
 26 31  1  0
 27 28  1  0
 30 31  1  0
  1 33  1  0
  1 34  1  0
  2 35  1  0
  5 36  1  0
  8 37  1  0
  9 38  1  0
 11 39  1  0
 12 40  1  0
 14 41  1  0
 14 42  1  0
 20 43  1  0
 21 44  1  0
 23 45  1  0
 24 46  1  0
 25 47  1  0
 26 48  1  0
 26 49  1  0
 27 50  1  0
 27 51  1  0
 27 52  1  0
 28 53  1  0
 28 54  1  0
 29 55  1  0
 29 56  1  0
 29 57  1  0
 32 58  1  0
 32 59  1  0
 32 60  1  0
A    1
C1
A    2
C2
A    3
C4
A    4
C6
A    5
O2
A    6
O3
A    7
C7
A    8
C8
A    9
C9
A   10
C10
A   11
C11
A   12
C12
A   13
O4
A   14
C13
A   15
C14
A   16
C15
A   17
O5
A   18
C3
A   19
N1
A   20
C16
A   21
C17
A   22
C18
A   23
C19
A   24
C20
A   25
C21
A   26
C26
A   27
C28
A   28
C29
A   29
C32
A   30
N4
A   31
O1
A   32
C5
M  END
