2NQ6_HM4_A_410
     RDKit          3D

 38 39  0  0  0  0  0  0  0  0999 V2000
   46.6490   17.7760   36.4070 S   0  0  0  0  0  0  0  0  0  0  0  0
   46.5630   19.5820   34.7430 N   0  0  0  0  0  0  0  0  0  0  0  0
   45.0780   20.0020   36.4810 N   0  0  0  0  0  0  0  0  0  0  0  0
   43.4430   21.8760   37.4730 N   0  0  0  0  0  0  0  0  0  0  0  0
   44.2400   20.0750   40.5390 N   0  0  0  0  0  0  0  0  0  0  0  0
   47.6650   17.5820   35.1110 C   0  0  0  0  0  0  0  0  0  0  0  0
   47.4810   18.7030   34.2760 C   0  0  0  0  0  0  0  0  0  0  0  0
   46.0140   19.2520   35.8630 C   0  0  0  0  0  0  0  0  0  0  0  0
   44.8070   19.8850   37.7920 C   0  0  0  0  0  0  0  0  0  0  0  0
   43.9560   20.9590   38.3470 C   0  0  0  0  0  0  0  0  0  0  0  0
   42.6480   22.8880   37.8300 C   0  0  0  0  0  0  0  0  0  0  0  0
   42.3130   23.0380   39.1760 C   0  0  0  0  0  0  0  0  0  0  0  0
   42.7950   22.1450   40.1500 C   0  0  0  0  0  0  0  0  0  0  0  0
   43.6720   21.0260   39.7240 C   0  0  0  0  0  0  0  0  0  0  0  0
   44.1660   19.9120   41.8960 C   0  0  0  0  0  0  0  0  0  0  0  0
   44.9300   18.5210   43.8040 C   0  0  0  0  0  0  0  0  0  0  0  0
   45.8310   17.3250   43.7690 C   0  0  0  0  0  0  0  0  0  0  0  0
   43.4540   18.0670   44.2760 C   0  0  0  0  0  0  0  0  0  0  0  0
   45.6970   19.5330   44.6540 C   0  0  0  0  0  0  0  0  0  0  0  0
   45.2950   18.9690   38.4750 O   0  0  0  0  0  0  0  0  0  0  0  0
   43.5450   20.6400   42.5860 O   0  0  0  0  0  0  0  0  0  0  0  0
   44.8570   18.8740   42.4100 O   0  0  0  0  0  0  0  0  0  0  0  0
   44.5506   20.6912   35.9262 H   0  0  0  0  0  0  0  0  0  0  0  0
   44.8130   19.3727   40.0498 H   0  0  0  0  0  0  0  0  0  0  0  0
   48.3510   16.7401   34.9362 H   0  0  0  0  0  0  0  0  0  0  0  0
   48.0309   18.8496   33.3347 H   0  0  0  0  0  0  0  0  0  0  0  0
   42.2641   23.5909   37.0760 H   0  0  0  0  0  0  0  0  0  0  0  0
   41.6604   23.8693   39.4809 H   0  0  0  0  0  0  0  0  0  0  0  0
   42.5266   22.2737   41.2090 H   0  0  0  0  0  0  0  0  0  0  0  0
   46.0661   17.0129   44.7972 H   0  0  0  0  0  0  0  0  0  0  0  0
   45.3269   16.5015   43.2420 H   0  0  0  0  0  0  0  0  0  0  0  0
   46.7616   17.5823   43.2420 H   0  0  0  0  0  0  0  0  0  0  0  0
   43.4086   18.0530   45.3750 H   0  0  0  0  0  0  0  0  0  0  0  0
   42.7099   18.7778   43.8873 H   0  0  0  0  0  0  0  0  0  0  0  0
   43.2380   17.0609   43.8873 H   0  0  0  0  0  0  0  0  0  0  0  0
   45.5326   19.3161   45.7198 H   0  0  0  0  0  0  0  0  0  0  0  0
   46.7711   19.4632   44.4271 H   0  0  0  0  0  0  0  0  0  0  0  0
   45.3395   20.5482   44.4271 H   0  0  0  0  0  0  0  0  0  0  0  0
  1  6  1  0
  1  8  1  0
  2  7  1  0
  2  8  2  0
  3  8  1  0
  3  9  1  0
  4 11  2  0
  4 10  1  0
  5 14  1  0
  5 15  1  0
  6  7  2  0
  9 10  1  0
  9 20  2  0
 10 14  2  0
 11 12  1  0
 12 13  2  0
 13 14  1  0
 15 22  1  0
 15 21  2  0
 16 22  1  0
 16 17  1  0
 16 18  1  0
 16 19  1  0
  3 23  1  0
  5 24  1  0
  6 25  1  0
  7 26  1  0
 11 27  1  0
 12 28  1  0
 13 29  1  0
 17 30  1  0
 17 31  1  0
 17 32  1  0
 18 33  1  0
 18 34  1  0
 18 35  1  0
 19 36  1  0
 19 37  1  0
 19 38  1  0
A    1
S
A    2
N1
A    3
N2
A    4
N3
A    5
N4
A    6
C1
A    7
C2
A    8
C3
A    9
C4
A   10
C5
A   11
C6
A   12
C7
A   13
C8
A   14
C9
A   15
C10
A   16
C11
A   17
C12
A   18
C13
A   19
C14
A   20
O1
A   21
O2
A   22
O3
M  END
