2NQ7_HM5_A_410
     RDKit          3D

 37 38  0  0  0  0  0  0  0  0999 V2000
   10.7210   33.2170   23.2850 S   0  0  0  0  0  0  0  0  0  0  0  0
    9.1330   31.2470   23.1770 N   0  0  0  0  0  0  0  0  0  0  0  0
   11.1600   30.9660   21.9780 N   0  0  0  0  0  0  0  0  0  0  0  0
   12.3460   29.1710   20.3630 N   0  0  0  0  0  0  0  0  0  0  0  0
   15.1410   31.5840   20.7510 N   0  0  0  0  0  0  0  0  0  0  0  0
    9.2390   33.3520   24.1420 C   0  0  0  0  0  0  0  0  0  0  0  0
    8.5330   32.1990   23.9600 C   0  0  0  0  0  0  0  0  0  0  0  0
   10.3020   31.6580   22.7710 C   0  0  0  0  0  0  0  0  0  0  0  0
   12.4330   31.2930   21.5980 C   0  0  0  0  0  0  0  0  0  0  0  0
   13.0930   30.2700   20.7270 C   0  0  0  0  0  0  0  0  0  0  0  0
   12.9790   28.2100   19.5390 C   0  0  0  0  0  0  0  0  0  0  0  0
   14.2300   28.2730   19.1160 C   0  0  0  0  0  0  0  0  0  0  0  0
   15.0090   29.4070   19.4960 C   0  0  0  0  0  0  0  0  0  0  0  0
   14.4600   30.4490   20.3150 C   0  0  0  0  0  0  0  0  0  0  0  0
   16.4400   32.0900   20.5970 C   0  0  0  0  0  0  0  0  0  0  0  0
   16.6900   33.5730   21.0280 C   0  0  0  0  0  0  0  0  0  0  0  0
   15.4100   34.2580   21.5550 C   0  0  0  0  0  0  0  0  0  0  0  0
   17.2360   34.3890   19.8290 C   0  0  0  0  0  0  0  0  0  0  0  0
   17.7450   33.5860   22.1550 C   0  0  0  0  0  0  0  0  0  0  0  0
   12.9780   32.3100   21.9730 O   0  0  0  0  0  0  0  0  0  0  0  0
   17.3410   31.4070   20.1640 O   0  0  0  0  0  0  0  0  0  0  0  0
   10.8033   30.0717   21.6121 H   0  0  0  0  0  0  0  0  0  0  0  0
   14.5472   32.1998   21.3247 H   0  0  0  0  0  0  0  0  0  0  0  0
    8.9147   34.2193   24.7358 H   0  0  0  0  0  0  0  0  0  0  0  0
    7.5431   32.0428   24.4136 H   0  0  0  0  0  0  0  0  0  0  0  0
   12.3822   27.3409   19.2253 H   0  0  0  0  0  0  0  0  0  0  0  0
   14.6575   27.4757   18.4902 H   0  0  0  0  0  0  0  0  0  0  0  0
   16.0516   29.4835   19.1539 H   0  0  0  0  0  0  0  0  0  0  0  0
   15.4181   34.2537   22.6550 H   0  0  0  0  0  0  0  0  0  0  0  0
   15.3739   35.2960   21.1927 H   0  0  0  0  0  0  0  0  0  0  0  0
   14.5263   33.7122   21.1927 H   0  0  0  0  0  0  0  0  0  0  0  0
   17.8114   35.2489   20.2024 H   0  0  0  0  0  0  0  0  0  0  0  0
   17.8885   33.7492   19.2168 H   0  0  0  0  0  0  0  0  0  0  0  0
   16.3956   34.7481   19.2168 H   0  0  0  0  0  0  0  0  0  0  0  0
   17.2385   33.5798   23.1314 H   0  0  0  0  0  0  0  0  0  0  0  0
   18.3852   32.6957   22.0683 H   0  0  0  0  0  0  0  0  0  0  0  0
   18.3630   34.4918   22.0683 H   0  0  0  0  0  0  0  0  0  0  0  0
  1  8  1  0
  1  6  1  0
  2  8  2  0
  2  7  1  0
  3  9  1  0
  3  8  1  0
  4 11  2  0
  4 10  1  0
  5 14  1  0
  5 15  1  0
  6  7  2  0
  9 10  1  0
  9 20  2  0
 10 14  2  0
 11 12  1  0
 12 13  2  0
 13 14  1  0
 15 21  2  0
 15 16  1  0
 16 18  1  0
 16 17  1  0
 16 19  1  0
  3 22  1  0
  5 23  1  0
  6 24  1  0
  7 25  1  0
 11 26  1  0
 12 27  1  0
 13 28  1  0
 17 29  1  0
 17 30  1  0
 17 31  1  0
 18 32  1  0
 18 33  1  0
 18 34  1  0
 19 35  1  0
 19 36  1  0
 19 37  1  0
A    1
S
A    2
N1
A    3
N2
A    4
N3
A    5
N4
A    6
C1
A    7
C2
A    8
C3
A    9
C4
A   10
C5
A   11
C6
A   12
C7
A   13
C8
A   14
C9
A   15
C10
A   16
C11
A   17
C12
A   18
C13
A   19
C14
A   20
O1
A   21
O2
M  END
