2NR9_PQE_A_204
     RDKit          3D

 97 96  0  0  0  0  0  0  0  0999 V2000
  -14.8660    2.9690   35.7830 O   0  0  0  0  0  0  0  0  0  0  0  0
  -14.4080    3.6310   34.5940 C   0  0  0  0  0  0  0  0  0  0  0  0
  -12.8850    3.5600   34.5160 C   0  0  0  0  0  0  0  0  0  0  0  0
  -12.4580    3.6750   33.1560 O   0  0  0  0  0  0  0  0  0  0  0  0
  -12.3140    2.3980   32.5360 C   0  0  0  0  0  0  0  0  0  0  0  0
  -11.7610    2.5690   31.1260 C   0  0  0  0  0  0  0  0  0  0  0  0
  -12.6040    1.8880   30.1970 O   0  0  0  0  0  0  0  0  0  0  0  0
  -12.0140    0.6760   29.7200 C   0  0  0  0  0  0  0  0  0  0  0  0
  -11.7970    0.7850   28.2160 C   0  0  0  0  0  0  0  0  0  0  0  0
  -11.2500   -0.5100   27.6330 C   0  0  0  0  0  0  0  0  0  0  0  0
  -11.2940   -0.4730   26.1090 C   0  0  0  0  0  0  0  0  0  0  0  0
  -10.0530   -1.1150   25.5080 C   0  0  0  0  0  0  0  0  0  0  0  0
   -9.5570   -0.2990   24.4480 O   0  0  0  0  0  0  0  0  0  0  0  0
   -9.8890   -0.8280   23.1650 C   0  0  0  0  0  0  0  0  0  0  0  0
   -9.6170   -2.3290   23.1400 C   0  0  0  0  0  0  0  0  0  0  0  0
   -9.9140   -2.8360   21.8390 O   0  0  0  0  0  0  0  0  0  0  0  0
   -9.4960   -4.1930   21.6790 C   0  0  0  0  0  0  0  0  0  0  0  0
   -9.5340   -4.5580   20.1980 C   0  0  0  0  0  0  0  0  0  0  0  0
   -8.2060   -4.6420   19.6850 O   0  0  0  0  0  0  0  0  0  0  0  0
   -7.5920   -5.8840   20.0230 C   0  0  0  0  0  0  0  0  0  0  0  0
   -7.5180   -6.7650   18.7830 C   0  0  0  0  0  0  0  0  0  0  0  0
   -8.2930   -7.9460   18.9770 O   0  0  0  0  0  0  0  0  0  0  0  0
   -8.6800   -8.5250   17.7330 C   0  0  0  0  0  0  0  0  0  0  0  0
   -8.2530   -9.9880   17.6910 C   0  0  0  0  0  0  0  0  0  0  0  0
   -8.7170  -10.5730   16.4750 O   0  0  0  0  0  0  0  0  0  0  0  0
   -8.1570  -11.8650   16.2560 C   0  0  0  0  0  0  0  0  0  0  0  0
   -9.1630  -12.7320   15.5080 C   0  0  0  0  0  0  0  0  0  0  0  0
   -8.9970  -14.1990   15.8860 C   0  0  0  0  0  0  0  0  0  0  0  0
   -8.9060  -15.0770   14.6420 C   0  0  0  0  0  0  0  0  0  0  0  0
   -7.6970  -16.0050   14.7090 C   0  0  0  0  0  0  0  0  0  0  0  0
   -7.8850  -17.2220   13.8080 C   0  0  0  0  0  0  0  0  0  0  0  0
   -7.1350  -17.0540   12.4900 C   0  0  0  0  0  0  0  0  0  0  0  0
   -7.8430  -17.7920   11.3570 C   0  0  0  0  0  0  0  0  0  0  0  0
   -6.9180  -17.9750   10.1580 C   0  0  0  0  0  0  0  0  0  0  0  0
   -7.4180  -19.0900    9.2440 C   0  0  0  0  0  0  0  0  0  0  0  0
   -6.6590  -20.3900    9.4920 C   0  0  0  0  0  0  0  0  0  0  0  0
   -6.1390  -20.9770    8.1970 C   0  0  0  0  0  0  0  0  0  0  0  0
  -14.5315    3.4525   36.5795 H   0  0  0  0  0  0  0  0  0  0  0  0
  -14.8421    3.1383   33.7115 H   0  0  0  0  0  0  0  0  0  0  0  0
  -14.7213    4.6851   34.6219 H   0  0  0  0  0  0  0  0  0  0  0  0
  -12.4516    4.3821   35.1044 H   0  0  0  0  0  0  0  0  0  0  0  0
  -12.5479    2.5937   34.9193 H   0  0  0  0  0  0  0  0  0  0  0  0
  -11.6219    1.7807   33.1275 H   0  0  0  0  0  0  0  0  0  0  0  0
  -13.2966    1.9062   32.4840 H   0  0  0  0  0  0  0  0  0  0  0  0
  -11.7264    3.6390   30.8732 H   0  0  0  0  0  0  0  0  0  0  0  0
  -10.7463    2.1470   31.0771 H   0  0  0  0  0  0  0  0  0  0  0  0
  -11.0480    0.5147   30.2207 H   0  0  0  0  0  0  0  0  0  0  0  0
  -12.6809   -0.1713   29.9376 H   0  0  0  0  0  0  0  0  0  0  0  0
  -12.7577    1.0162   27.7327 H   0  0  0  0  0  0  0  0  0  0  0  0
  -11.0621    1.5825   28.0316 H   0  0  0  0  0  0  0  0  0  0  0  0
  -10.2087   -0.6429   27.9615 H   0  0  0  0  0  0  0  0  0  0  0  0
  -11.8700   -1.3475   27.9856 H   0  0  0  0  0  0  0  0  0  0  0  0
  -12.1841   -1.0185   25.7622 H   0  0  0  0  0  0  0  0  0  0  0  0
  -11.3337    0.5780   25.7867 H   0  0  0  0  0  0  0  0  0  0  0  0
   -9.2805   -1.2157   26.2846 H   0  0  0  0  0  0  0  0  0  0  0  0
  -10.3108   -2.1090   25.1136 H   0  0  0  0  0  0  0  0  0  0  0  0
  -10.9542   -0.6462   22.9593 H   0  0  0  0  0  0  0  0  0  0  0  0
   -9.2744   -0.3342   22.3979 H   0  0  0  0  0  0  0  0  0  0  0  0
   -8.5588   -2.5155   23.3753 H   0  0  0  0  0  0  0  0  0  0  0  0
  -10.2483   -2.8325   23.8869 H   0  0  0  0  0  0  0  0  0  0  0  0
   -8.4709   -4.3097   22.0606 H   0  0  0  0  0  0  0  0  0  0  0  0
  -10.1703   -4.8562   22.2406 H   0  0  0  0  0  0  0  0  0  0  0  0
  -10.0349   -5.5295   20.0744 H   0  0  0  0  0  0  0  0  0  0  0  0
  -10.0866   -3.7823   19.6477 H   0  0  0  0  0  0  0  0  0  0  0  0
   -6.5765   -5.6999   20.4037 H   0  0  0  0  0  0  0  0  0  0  0  0
   -8.1869   -6.3893   20.7981 H   0  0  0  0  0  0  0  0  0  0  0  0
   -7.9100   -6.2100   17.9179 H   0  0  0  0  0  0  0  0  0  0  0  0
   -6.4701   -7.0464   18.6020 H   0  0  0  0  0  0  0  0  0  0  0  0
   -9.7726   -8.4599   17.6238 H   0  0  0  0  0  0  0  0  0  0  0  0
   -8.1930   -7.9801   16.9109 H   0  0  0  0  0  0  0  0  0  0  0  0
   -7.1559  -10.0534   17.7365 H   0  0  0  0  0  0  0  0  0  0  0  0
   -8.6827  -10.5252   18.5493 H   0  0  0  0  0  0  0  0  0  0  0  0
   -7.2382  -11.7704   15.6587 H   0  0  0  0  0  0  0  0  0  0  0  0
   -7.9177  -12.3308   17.2234 H   0  0  0  0  0  0  0  0  0  0  0  0
  -10.1817  -12.4061   15.7649 H   0  0  0  0  0  0  0  0  0  0  0  0
   -8.9883  -12.6236   14.4274 H   0  0  0  0  0  0  0  0  0  0  0  0
   -8.0768  -14.3163   16.4772 H   0  0  0  0  0  0  0  0  0  0  0  0
   -9.8739  -14.5113   16.4721 H   0  0  0  0  0  0  0  0  0  0  0  0
   -9.8201  -15.6838   14.5634 H   0  0  0  0  0  0  0  0  0  0  0  0
   -8.7964  -14.4251   13.7628 H   0  0  0  0  0  0  0  0  0  0  0  0
   -6.8026  -15.4530   14.3845 H   0  0  0  0  0  0  0  0  0  0  0  0
   -7.5825  -16.3537   15.7460 H   0  0  0  0  0  0  0  0  0  0  0  0
   -7.5042  -18.1144   14.3263 H   0  0  0  0  0  0  0  0  0  0  0  0
   -8.9572  -17.3296   13.5873 H   0  0  0  0  0  0  0  0  0  0  0  0
   -7.0795  -15.9837   12.2421 H   0  0  0  0  0  0  0  0  0  0  0  0
   -6.1262  -17.4769   12.6057 H   0  0  0  0  0  0  0  0  0  0  0  0
   -8.1637  -18.7806   11.7174 H   0  0  0  0  0  0  0  0  0  0  0  0
   -8.7112  -17.1954   11.0404 H   0  0  0  0  0  0  0  0  0  0  0  0
   -6.8775  -17.0347    9.5886 H   0  0  0  0  0  0  0  0  0  0  0  0
   -5.9179  -18.2471   10.5264 H   0  0  0  0  0  0  0  0  0  0  0  0
   -8.4882  -19.2575    9.4351 H   0  0  0  0  0  0  0  0  0  0  0  0
   -7.2530  -18.7845    8.2002 H   0  0  0  0  0  0  0  0  0  0  0  0
   -5.8093  -20.1873   10.1606 H   0  0  0  0  0  0  0  0  0  0  0  0
   -7.3492  -21.1140    9.9498 H   0  0  0  0  0  0  0  0  0  0  0  0
   -5.4248  -21.7832    8.4206 H   0  0  0  0  0  0  0  0  0  0  0  0
   -6.9795  -21.3827    7.6148 H   0  0  0  0  0  0  0  0  0  0  0  0
   -5.6349  -20.1916    7.6148 H   0  0  0  0  0  0  0  0  0  0  0  0
  1  2  1  0
  2  3  1  0
  3  4  1  0
  4  5  1  0
  5  6  1  0
  6  7  1  0
  7  8  1  0
  8  9  1  0
  9 10  1  0
 10 11  1  0
 11 12  1  0
 12 13  1  0
 13 14  1  0
 14 15  1  0
 15 16  1  0
 16 17  1  0
 17 18  1  0
 18 19  1  0
 19 20  1  0
 20 21  1  0
 21 22  1  0
 22 23  1  0
 23 24  1  0
 24 25  1  0
 25 26  1  0
 26 27  1  0
 27 28  1  0
 28 29  1  0
 29 30  1  0
 30 31  1  0
 31 32  1  0
 32 33  1  0
 33 34  1  0
 34 35  1  0
 35 36  1  0
 36 37  1  0
  1 38  1  0
  2 39  1  0
  2 40  1  0
  3 41  1  0
  3 42  1  0
  5 43  1  0
  5 44  1  0
  6 45  1  0
  6 46  1  0
  8 47  1  0
  8 48  1  0
  9 49  1  0
  9 50  1  0
 10 51  1  0
 10 52  1  0
 11 53  1  0
 11 54  1  0
 12 55  1  0
 12 56  1  0
 14 57  1  0
 14 58  1  0
 15 59  1  0
 15 60  1  0
 17 61  1  0
 17 62  1  0
 18 63  1  0
 18 64  1  0
 20 65  1  0
 20 66  1  0
 21 67  1  0
 21 68  1  0
 23 69  1  0
 23 70  1  0
 24 71  1  0
 24 72  1  0
 26 73  1  0
 26 74  1  0
 27 75  1  0
 27 76  1  0
 28 77  1  0
 28 78  1  0
 29 79  1  0
 29 80  1  0
 30 81  1  0
 30 82  1  0
 31 83  1  0
 31 84  1  0
 32 85  1  0
 32 86  1  0
 33 87  1  0
 33 88  1  0
 34 89  1  0
 34 90  1  0
 35 91  1  0
 35 92  1  0
 36 93  1  0
 36 94  1  0
 37 95  1  0
 37 96  1  0
 37 97  1  0
A    1
O47
A    2
C68
A    3
C52
A    4
O70
A    5
C55
A    6
C58
A    7
O71
A    8
C61
A    9
C62
A   10
C63
A   11
C66
A   12
C67
A   13
O72
A   14
C65
A   15
C64
A   16
O73
A   17
C60
A   18
C59
A   19
O74
A   20
C57
A   21
C56
A   22
O75
A   23
C54
A   24
C53
A   25
O76
A   26
C51
A   27
C50
A   28
C49
A   29
C48
A   30
C47
A   31
C46
A   32
C45
A   33
C44
A   34
C43
A   35
C42
A   36
C41
A   37
C40
M  END
