1DF1_ITU_A_899
     RDKit          3D

 14 13  0  0  0  0  0  0  0  0999 V2000
  127.3720  112.1750   31.0500 C   0  0  0  0  0  0  0  0  0  0  0  0
  126.1920  113.1310   31.0910 C   0  0  0  0  0  0  0  0  0  0  0  0
  126.3070  114.4920   29.9010 S   0  0  0  0  0  0  0  0  0  0  0  0
  124.9430  115.5040   30.4700 C   0  0  0  0  0  0  0  0  0  0  0  0
  124.1510  115.0530   31.4230 N   0  0  0  0  0  0  0  0  0  0  0  0
  124.7050  116.6960   29.9260 N   0  0  0  0  0  0  0  0  0  0  0  0
  127.6785  111.9267   32.0768 H   0  0  0  0  0  0  0  0  0  0  0  0
  127.0805  111.2552   30.5217 H   0  0  0  0  0  0  0  0  0  0  0  0
  128.2113  112.6509   30.5217 H   0  0  0  0  0  0  0  0  0  0  0  0
  125.2764  112.5602   30.8767 H   0  0  0  0  0  0  0  0  0  0  0  0
  126.1830  113.5838   32.0935 H   0  0  0  0  0  0  0  0  0  0  0  0
  124.4019  115.1959   32.4117 H   0  0  0  0  0  0  0  0  0  0  0  0
  123.2815  114.5579   31.1787 H   0  0  0  0  0  0  0  0  0  0  0  0
  123.9172  117.2677   30.2627 H   0  0  0  0  0  0  0  0  0  0  0  0
  1  2  1  0
  2  3  1  0
  3  4  1  0
  4  5  1  0
  4  6  2  3
  1  7  1  0
  1  8  1  0
  1  9  1  0
  2 10  1  0
  2 11  1  0
  5 12  1  0
  5 13  1  0
  6 14  1  0
A    1
C1
A    2
C2
A    3
S
A    4
C3
A    5
N1
A    6
N2
M  END
