2NX3_1NT_D_268
     RDKit          3D

 43 42  0  0  0  0  0  0  0  0999 V2000
   19.2340  -37.1150   16.1000 O   0  0  0  0  0  0  0  0  0  0  0  0
   20.2120  -37.7300   14.9790 P   0  0  0  0  0  0  0  0  0  0  0  0
   21.4520  -38.3610   15.7890 O   0  0  0  0  0  0  0  0  0  0  0  0
   19.5320  -38.7140   14.1070 O   0  0  0  0  0  0  0  0  0  0  0  0
   20.8170  -36.4800   14.1630 O   0  0  0  0  0  0  0  0  0  0  0  0
   20.5540  -35.1490   14.6130 C   0  0  0  0  0  0  0  0  0  0  0  0
   21.2370  -34.1380   13.6910 C   0  0  0  0  0  0  0  0  0  0  0  0
   22.4740  -34.2470   13.5400 O   0  0  0  0  0  0  0  0  0  0  0  0
   20.5100  -33.2740   13.1540 O   0  0  0  0  0  0  0  0  0  0  0  0
   21.0390  -34.9910   15.9490 O   0  0  0  0  0  0  0  0  0  0  0  0
   19.0390  -34.9370   14.5880 C   0  0  0  0  0  0  0  0  0  0  0  0
   18.6510  -33.8480   15.5880 C   0  0  0  0  0  0  0  0  0  0  0  0
   19.0000  -32.5640   15.0620 O   0  0  0  0  0  0  0  0  0  0  0  0
   17.1420  -33.9080   15.8240 C   0  0  0  0  0  0  0  0  0  0  0  0
   16.7830  -35.2370   16.2110 O   0  0  0  0  0  0  0  0  0  0  0  0
   16.7120  -32.9270   16.9150 C   0  0  0  0  0  0  0  0  0  0  0  0
   17.5530  -33.0840   18.0610 O   0  0  0  0  0  0  0  0  0  0  0  0
   15.2600  -33.1990   17.3060 C   0  0  0  0  0  0  0  0  0  0  0  0
   14.4270  -33.0740   16.1510 O   0  0  0  0  0  0  0  0  0  0  0  0
   14.7940  -32.2210   18.3850 C   0  0  0  0  0  0  0  0  0  0  0  0
   13.4530  -32.5230   18.7740 O   0  0  0  0  0  0  0  0  0  0  0  0
   12.6340  -31.4850   19.6900 P   0  0  0  0  0  0  0  0  0  0  0  0
   11.4030  -30.9660   18.7920 O   0  0  0  0  0  0  0  0  0  0  0  0
   12.0100  -32.3770   20.8780 O   0  0  0  0  0  0  0  0  0  0  0  0
   13.4810  -30.3800   20.1910 O   0  0  0  0  0  0  0  0  0  0  0  0
   19.5837  -37.3349   16.9997 H   0  0  0  0  0  0  0  0  0  0  0  0
   19.0678  -39.3857   14.6668 H   0  0  0  0  0  0  0  0  0  0  0  0
   23.0666  -34.2992   14.3313 H   0  0  0  0  0  0  0  0  0  0  0  0
   20.3218  -35.2246   16.5902 H   0  0  0  0  0  0  0  0  0  0  0  0
   18.7298  -34.6316   13.5775 H   0  0  0  0  0  0  0  0  0  0  0  0
   18.5367  -35.8765   14.8617 H   0  0  0  0  0  0  0  0  0  0  0  0
   19.1859  -34.0072   16.5359 H   0  0  0  0  0  0  0  0  0  0  0  0
   19.1705  -31.9367   15.8087 H   0  0  0  0  0  0  0  0  0  0  0  0
   16.6305  -33.6286   14.8911 H   0  0  0  0  0  0  0  0  0  0  0  0
   16.7660  -35.2998   17.1989 H   0  0  0  0  0  0  0  0  0  0  0  0
   16.8015  -31.8987   16.5348 H   0  0  0  0  0  0  0  0  0  0  0  0
   17.0118  -32.9830   18.8838 H   0  0  0  0  0  0  0  0  0  0  0  0
   15.1893  -34.2197   17.7099 H   0  0  0  0  0  0  0  0  0  0  0  0
   13.4889  -32.9332   16.4344 H   0  0  0  0  0  0  0  0  0  0  0  0
   15.4544  -32.3035   19.2608 H   0  0  0  0  0  0  0  0  0  0  0  0
   14.8311  -31.1974   17.9840 H   0  0  0  0  0  0  0  0  0  0  0  0
   10.6708  -30.6573   19.3825 H   0  0  0  0  0  0  0  0  0  0  0  0
   12.2767  -31.9958   21.7519 H   0  0  0  0  0  0  0  0  0  0  0  0
  1  2  1  0
  2  3  2  0
  2  5  1  0
  2  4  1  0
  5  6  1  0
  6 10  1  0
  6  7  1  0
  6 11  1  0
  7  9  2  0
  7  8  1  0
 11 12  1  0
 12 13  1  0
 12 14  1  0
 14 16  1  0
 14 15  1  0
 16 17  1  0
 16 18  1  0
 18 20  1  0
 18 19  1  0
 20 21  1  0
 21 22  1  0
 22 25  2  0
 22 24  1  0
 22 23  1  0
  1 26  1  0
  4 27  1  0
  8 28  1  0
 10 29  1  0
 11 30  1  0
 11 31  1  0
 12 32  1  0
 13 33  1  0
 14 34  1  0
 15 35  1  0
 16 36  1  0
 17 37  1  0
 18 38  1  0
 19 39  1  0
 20 40  1  0
 20 41  1  0
 23 42  1  0
 24 43  1  0
A    1
O2P
A    2
P
A    3
O3P
A    4
O1P
A    5
O2
A    6
C2
A    7
C1
A    8
O1
A    9
O2'
A   10
O3
A   11
CI3
A   12
CA1
A   13
OA1
A   14
CA2
A   15
OA2
A   16
CA3
A   17
OA3
A   18
CA4
A   19
OA4
A   20
CA5
A   21
OP4
A   22
PA
A   23
OP3
A   24
OP1
A   25
OP2
M  END
