1FWN_PEP_A_1268
     RDKit          3D

 15 14  0  0  0  0  0  0  0  0999 V2000
   32.2720   51.6820   22.5110 C   0  0  0  0  0  0  0  0  0  0  0  0
   33.0900   52.1710   23.3600 O   0  0  0  0  0  0  0  0  0  0  0  0
   31.0820   51.7480   22.6190 O   0  0  0  0  0  0  0  0  0  0  0  0
   32.9630   50.9850   21.3200 C   0  0  0  0  0  0  0  0  0  0  0  0
   34.2920   50.7020   21.2380 C   0  0  0  0  0  0  0  0  0  0  0  0
   31.9760   50.4710   20.4690 O   0  0  0  0  0  0  0  0  0  0  0  0
   32.1070   49.4580   19.2560 P   0  0  0  0  0  0  0  0  0  0  0  0
   32.7840   48.2480   19.7300 O   0  0  0  0  0  0  0  0  0  0  0  0
   32.8480   50.0930   18.1270 O   0  0  0  0  0  0  0  0  0  0  0  0
   30.5950   49.3870   18.8730 O   0  0  0  0  0  0  0  0  0  0  0  0
   30.6670   51.7710   23.5175 H   0  0  0  0  0  0  0  0  0  0  0  0
   34.6935   50.2008   20.3450 H   0  0  0  0  0  0  0  0  0  0  0  0
   34.9644   50.9746   22.0648 H   0  0  0  0  0  0  0  0  0  0  0  0
   33.5481   50.6929   18.4877 H   0  0  0  0  0  0  0  0  0  0  0  0
   30.0467   49.3613   19.6969 H   0  0  0  0  0  0  0  0  0  0  0  0
  1  2  2  0
  1  3  1  0
  1  4  1  0
  4  5  2  3
  4  6  1  0
  6  7  1  0
  7  8  2  0
  7  9  1  0
  7 10  1  0
  3 11  1  0
  5 12  1  0
  5 13  1  0
  9 14  1  0
 10 15  1  0
A    1
C1
A    2
O1
A    3
O2'
A    4
C2
A    5
C3
A    6
O2
A    7
P
A    8
O1P
A    9
O2P
A   10
O3P
M  END
