2O0U_C0M_A_2000
     RDKit          3D

 62 66  0  0  0  0  0  0  0  0999 V2000
   23.1320    5.8960   31.0130 C   0  0  0  0  0  0  0  0  0  0  0  0
   22.7290    7.2980   31.3720 C   0  0  0  0  0  0  0  0  0  0  0  0
   26.9170    7.6100   28.7840 O   0  0  0  0  0  0  0  0  0  0  0  0
   26.2720    6.7640   29.4180 C   0  0  0  0  0  0  0  0  0  0  0  0
   26.9050    5.4460   29.9010 C   0  0  0  0  0  0  0  0  0  0  0  0
   27.9020    4.7870   28.9260 C   0  0  0  0  0  0  0  0  0  0  0  0
   29.0540    5.6690   28.6640 N   0  0  0  0  0  0  0  0  0  0  0  0
   30.0040    5.6230   29.7790 C   0  0  0  0  0  0  0  0  0  0  0  0
   31.0200    6.7470   29.5550 C   0  0  0  0  0  0  0  0  0  0  0  0
   31.7720    6.5450   28.2390 C   0  0  0  0  0  0  0  0  0  0  0  0
   30.8060    6.2910   27.0860 C   0  0  0  0  0  0  0  0  0  0  0  0
   29.7560    5.2330   27.4470 C   0  0  0  0  0  0  0  0  0  0  0  0
   24.9730    7.0110   29.7470 N   0  0  0  0  0  0  0  0  0  0  0  0
   23.9830    5.9310   29.7560 C   0  0  0  0  0  0  0  0  0  0  0  0
   24.5080    8.4170   29.8190 C   0  0  0  0  0  0  0  0  0  0  0  0
   23.4280    8.4700   30.8530 C   0  0  0  0  0  0  0  0  0  0  0  0
   22.8060    9.9570   31.4690 S   0  0  0  0  0  0  0  0  0  0  0  0
   21.6010    9.2120   32.4550 C   0  0  0  0  0  0  0  0  0  0  0  0
   21.7170    7.7510   32.3210 C   0  0  0  0  0  0  0  0  0  0  0  0
   21.0360    6.7750   32.9210 C   0  0  0  0  0  0  0  0  0  0  0  0
   20.4350    5.9530   33.4280 N   0  0  0  0  0  0  0  0  0  0  0  0
   20.7650    9.8310   33.2420 N   0  0  0  0  0  0  0  0  0  0  0  0
   20.7620   11.1620   33.4910 C   0  0  0  0  0  0  0  0  0  0  0  0
   21.3590   11.9900   32.8530 O   0  0  0  0  0  0  0  0  0  0  0  0
   19.8590   11.5170   34.6210 C   0  0  0  0  0  0  0  0  0  0  0  0
   19.8730   10.7560   35.8050 C   0  0  0  0  0  0  0  0  0  0  0  0
   18.9850   11.0330   36.8340 C   0  0  0  0  0  0  0  0  0  0  0  0
   18.0390   12.0350   36.7230 C   0  0  0  0  0  0  0  0  0  0  0  0
   18.8550   12.5920   34.4440 C   0  0  0  0  0  0  0  0  0  0  0  0
   18.7720   13.3800   33.2940 C   0  0  0  0  0  0  0  0  0  0  0  0
   17.8200   14.3740   33.2360 C   0  0  0  0  0  0  0  0  0  0  0  0
   16.9190   14.5980   34.3000 C   0  0  0  0  0  0  0  0  0  0  0  0
   16.9890   13.8410   35.4610 C   0  0  0  0  0  0  0  0  0  0  0  0
   17.9300   12.8170   35.5700 C   0  0  0  0  0  0  0  0  0  0  0  0
   22.2327    5.2889   30.8324 H   0  0  0  0  0  0  0  0  0  0  0  0
   23.7080    5.4527   31.8387 H   0  0  0  0  0  0  0  0  0  0  0  0
   27.4374    5.6513   30.8415 H   0  0  0  0  0  0  0  0  0  0  0  0
   26.0729    4.7342   30.0061 H   0  0  0  0  0  0  0  0  0  0  0  0
   28.2636    3.8453   29.3647 H   0  0  0  0  0  0  0  0  0  0  0  0
   27.3846    4.5979   27.9739 H   0  0  0  0  0  0  0  0  0  0  0  0
   29.4753    5.7771   30.7312 H   0  0  0  0  0  0  0  0  0  0  0  0
   30.5066    4.6455   29.8237 H   0  0  0  0  0  0  0  0  0  0  0  0
   30.4906    7.7107   29.5236 H   0  0  0  0  0  0  0  0  0  0  0  0
   31.7461    6.7358   30.3813 H   0  0  0  0  0  0  0  0  0  0  0  0
   32.3622    7.4472   28.0207 H   0  0  0  0  0  0  0  0  0  0  0  0
   32.4284    5.6685   28.3435 H   0  0  0  0  0  0  0  0  0  0  0  0
   30.2930    7.2317   26.8372 H   0  0  0  0  0  0  0  0  0  0  0  0
   31.3862    5.9191   26.2287 H   0  0  0  0  0  0  0  0  0  0  0  0
   30.2498    4.2671   27.6293 H   0  0  0  0  0  0  0  0  0  0  0  0
   29.0399    5.1150   26.6204 H   0  0  0  0  0  0  0  0  0  0  0  0
   24.5142    4.9717   29.6690 H   0  0  0  0  0  0  0  0  0  0  0  0
   23.3023    6.1108   28.9109 H   0  0  0  0  0  0  0  0  0  0  0  0
   25.3403    9.0755   30.1084 H   0  0  0  0  0  0  0  0  0  0  0  0
   24.1323    8.7559   28.8423 H   0  0  0  0  0  0  0  0  0  0  0  0
   20.0482    9.2605   33.7127 H   0  0  0  0  0  0  0  0  0  0  0  0
   20.5952    9.9336   35.9154 H   0  0  0  0  0  0  0  0  0  0  0  0
   19.0347   10.4415   37.7601 H   0  0  0  0  0  0  0  0  0  0  0  0
   17.3546   12.2215   37.5637 H   0  0  0  0  0  0  0  0  0  0  0  0
   19.4552   13.2098   32.4489 H   0  0  0  0  0  0  0  0  0  0  0  0
   17.7602   15.0084   32.3394 H   0  0  0  0  0  0  0  0  0  0  0  0
   16.1527   15.3817   34.2075 H   0  0  0  0  0  0  0  0  0  0  0  0
   16.3026   14.0484   36.2952 H   0  0  0  0  0  0  0  0  0  0  0  0
  1 14  1  0
  1  2  1  0
  2 16  2  0
  2 19  1  0
  3  4  2  0
  4 13  1  0
  4  5  1  0
  5  6  1  0
  6  7  1  0
  7 12  1  0
  7  8  1  0
  8  9  1  0
  9 10  1  0
 10 11  1  0
 11 12  1  0
 13 14  1  0
 13 15  1  0
 15 16  1  0
 16 17  1  0
 17 18  1  0
 18 19  2  0
 18 22  1  0
 19 20  1  0
 20 21  3  0
 22 23  1  0
 23 24  2  0
 23 25  1  0
 25 29  1  0
 25 26  2  0
 26 27  1  0
 27 28  2  0
 28 34  1  0
 29 30  2  0
 29 34  1  0
 30 31  1  0
 31 32  2  0
 32 33  1  0
 33 34  2  0
  1 35  1  0
  1 36  1  0
  5 37  1  0
  5 38  1  0
  6 39  1  0
  6 40  1  0
  8 41  1  0
  8 42  1  0
  9 43  1  0
  9 44  1  0
 10 45  1  0
 10 46  1  0
 11 47  1  0
 11 48  1  0
 12 49  1  0
 12 50  1  0
 14 51  1  0
 14 52  1  0
 15 53  1  0
 15 54  1  0
 22 55  1  0
 26 56  1  0
 27 57  1  0
 28 58  1  0
 30 59  1  0
 31 60  1  0
 32 61  1  0
 33 62  1  0
A    1
C1
A    2
C2
A    3
O26
A    4
C25
A    5
C27
A    6
C28
A    7
N29
A    8
C34
A    9
C33
A   10
C32
A   11
C31
A   12
C30
A   13
N5
A   14
C6
A   15
C4
A   16
C3
A   17
S9
A   18
C8
A   19
C7
A   20
C10
A   21
N11
A   22
N12
A   23
C13
A   24
O14
A   25
C15
A   26
C20
A   27
C19
A   28
C18
A   29
C16
A   30
C21
A   31
C22
A   32
C23
A   33
C24
A   34
C17
M  END
