2O2U_738_A_403
     RDKit          3D

 34 36  0  0  0  0  0  0  0  0999 V2000
   19.5450   10.4260   35.7940 F   0  0  0  0  0  0  0  0  0  0  0  0
   18.9070   11.4910   35.2970 C   0  0  0  0  0  0  0  0  0  0  0  0
   17.8990   12.0620   36.0520 C   0  0  0  0  0  0  0  0  0  0  0  0
   17.1920   13.1530   35.5790 C   0  0  0  0  0  0  0  0  0  0  0  0
   17.5010   13.7030   34.3460 C   0  0  0  0  0  0  0  0  0  0  0  0
   18.5170   13.1420   33.5790 C   0  0  0  0  0  0  0  0  0  0  0  0
   19.2230   12.0280   34.0450 C   0  0  0  0  0  0  0  0  0  0  0  0
   20.2900   11.4670   33.1840 C   0  0  0  0  0  0  0  0  0  0  0  0
   21.0490   12.2260   32.6270 O   0  0  0  0  0  0  0  0  0  0  0  0
   20.3780   10.0820   33.0270 N   0  0  0  0  0  0  0  0  0  0  0  0
   21.3100    9.3220   32.2600 C   0  0  0  0  0  0  0  0  0  0  0  0
   21.2720    7.9450   32.0530 C   0  0  0  0  0  0  0  0  0  0  0  0
   20.2620    7.0910   32.5840 C   0  0  0  0  0  0  0  0  0  0  0  0
   19.4030    6.4420   33.0200 N   0  0  0  0  0  0  0  0  0  0  0  0
   22.6080    9.9140   31.4980 S   0  0  0  0  0  0  0  0  0  0  0  0
   23.1570    8.5540   30.8670 C   0  0  0  0  0  0  0  0  0  0  0  0
   24.3820    8.4150   30.0050 C   0  0  0  0  0  0  0  0  0  0  0  0
   24.3780    7.0570   29.2760 C   0  0  0  0  0  0  0  0  0  0  0  0
   24.0030    5.8950   30.2200 C   0  0  0  0  0  0  0  0  0  0  0  0
   22.5860    6.0700   30.8260 C   0  0  0  0  0  0  0  0  0  0  0  0
   22.3300    7.5060   31.2560 C   0  0  0  0  0  0  0  0  0  0  0  0
   17.6565   11.6439   37.0401 H   0  0  0  0  0  0  0  0  0  0  0  0
   16.3816   13.5852   36.1843 H   0  0  0  0  0  0  0  0  0  0  0  0
   16.9466   14.5779   33.9756 H   0  0  0  0  0  0  0  0  0  0  0  0
   18.7667   13.5771   32.6001 H   0  0  0  0  0  0  0  0  0  0  0  0
   19.6711    9.5326   33.5363 H   0  0  0  0  0  0  0  0  0  0  0  0
   25.2794    8.4837   30.6375 H   0  0  0  0  0  0  0  0  0  0  0  0
   24.3833    9.2207   29.2561 H   0  0  0  0  0  0  0  0  0  0  0  0
   23.6475    7.0971   28.4546 H   0  0  0  0  0  0  0  0  0  0  0  0
   25.3938    6.8721   28.8966 H   0  0  0  0  0  0  0  0  0  0  0  0
   24.0322    4.9532   29.6523 H   0  0  0  0  0  0  0  0  0  0  0  0
   24.7268    5.8842   31.0483 H   0  0  0  0  0  0  0  0  0  0  0  0
   21.8381    5.7855   30.0712 H   0  0  0  0  0  0  0  0  0  0  0  0
   22.5127    5.4279   31.7162 H   0  0  0  0  0  0  0  0  0  0  0  0
 18 17  1  0
 18 19  1  0
 17 16  1  0
 19 20  1  0
 20 21  1  0
 16 21  2  0
 16 15  1  0
 21 12  1  0
 15 11  1  0
 12 11  2  0
 12 13  1  0
 11 10  1  0
 13 14  3  0
  9  8  2  0
 10  8  1  0
  8  7  1  0
  6  7  1  0
  6  5  2  0
  7  2  2  0
  5  4  1  0
  2  1  1  0
  2  3  1  0
  4  3  2  0
  3 22  1  0
  4 23  1  0
  5 24  1  0
  6 25  1  0
 10 26  1  0
 17 27  1  0
 17 28  1  0
 18 29  1  0
 18 30  1  0
 19 31  1  0
 19 32  1  0
 20 33  1  0
 20 34  1  0
A    1
F19
A    2
C16
A    3
C18
A    4
C21
A    5
C20
A    6
C17
A    7
C14
A    8
C13
A    9
O15
A   10
N10
A   11
C5
A   12
C2
A   13
C6
A   14
N11
A   15
S7
A   16
C3
A   17
C8
A   18
C12
A   19
C9
A   20
C4
A   21
C1
M  END
