2O3T_CGR_A_301
     RDKit          3D

 59 63  0  0  0  0  0  0  0  0999 V2000
    5.7850    3.9130    3.3840 O   0  0  0  0  0  0  0  0  0  0  0  0
    4.3660    4.4240    3.5620 P   0  0  0  0  0  0  0  0  0  0  0  0
    3.9140    5.7890    3.0980 O   0  0  0  0  0  0  0  0  0  0  0  0
    3.8560    4.3850    5.0950 O   0  0  0  0  0  0  0  0  0  0  0  0
    4.4160    3.3560    6.2180 P   0  0  0  0  0  0  0  0  0  0  0  0
    5.8520    3.7070    6.5650 O   0  0  0  0  0  0  0  0  0  0  0  0
    3.4700    3.4710    7.3620 O   0  0  0  0  0  0  0  0  0  0  0  0
    3.3940    3.4080    2.7840 O   0  0  0  0  0  0  0  0  0  0  0  0
    1.9530    3.6190    2.8140 C   0  0  0  0  0  0  0  0  0  0  0  0
    1.3950    3.9080    1.4090 C   0  0  0  0  0  0  0  0  0  0  0  0
    1.8640    2.9730    0.3920 O   0  0  0  0  0  0  0  0  0  0  0  0
    0.9710    1.8380    0.2700 C   0  0  0  0  0  0  0  0  0  0  0  0
   -0.3880    2.3690    0.7320 C   0  0  0  0  0  0  0  0  0  0  0  0
   -1.2540    2.5410   -0.4180 O   0  0  0  0  0  0  0  0  0  0  0  0
   -0.1280    3.7170    1.4260 C   0  0  0  0  0  0  0  0  0  0  0  0
   -0.7490    4.8460    0.7540 O   0  0  0  0  0  0  0  0  0  0  0  0
    1.5280    0.7730    1.1730 N   0  0  0  0  0  0  0  0  0  0  0  0
    2.8280    0.7560    1.5580 C   0  0  0  0  0  0  0  0  0  0  0  0
    3.0600   -0.2870    2.3840 N   0  0  0  0  0  0  0  0  0  0  0  0
    4.3290   -0.6580    3.0440 C   0  0  0  0  0  0  0  0  0  0  0  0
    4.0840   -0.7670    4.4370 O   0  0  0  0  0  0  0  0  0  0  0  0
    5.3760    0.4270    2.8720 C   0  0  0  0  0  0  0  0  0  0  0  0
    6.0280    0.2280    1.6060 O   0  0  0  0  0  0  0  0  0  0  0  0
    6.2370    0.2230    4.1000 C   0  0  0  0  0  0  0  0  0  0  0  0
    7.2350   -0.7850    3.8010 O   0  0  0  0  0  0  0  0  0  0  0  0
    5.2590   -0.3030    5.1440 C   0  0  0  0  0  0  0  0  0  0  0  0
    4.8030    0.7410    6.1520 C   0  0  0  0  0  0  0  0  0  0  0  0
    4.3180    1.9260    5.4960 O   0  0  0  0  0  0  0  0  0  0  0  0
    1.9240   -0.9580    2.5500 C   0  0  0  0  0  0  0  0  0  0  0  0
    0.9560   -0.3120    1.8040 C   0  0  0  0  0  0  0  0  0  0  0  0
    1.6390   -2.0550    3.2800 N   0  0  0  0  0  0  0  0  0  0  0  0
    0.3740   -2.5430    3.2560 C   0  0  0  0  0  0  0  0  0  0  0  0
    0.0910   -3.6330    3.9820 N   0  0  0  0  0  0  0  0  0  0  0  0
   -0.6160   -1.9560    2.5170 N   0  0  0  0  0  0  0  0  0  0  0  0
   -0.3410   -0.8390    1.7700 C   0  0  0  0  0  0  0  0  0  0  0  0
   -1.2530   -0.3290    1.0840 O   0  0  0  0  0  0  0  0  0  0  0  0
    6.1963    3.7649    4.2723 H   0  0  0  0  0  0  0  0  0  0  0  0
    3.9723    3.4099    8.2130 H   0  0  0  0  0  0  0  0  0  0  0  0
    1.4679    2.7157    3.2123 H   0  0  0  0  0  0  0  0  0  0  0  0
    1.7453    4.4897    3.4533 H   0  0  0  0  0  0  0  0  0  0  0  0
    1.7251    4.9288    1.1660 H   0  0  0  0  0  0  0  0  0  0  0  0
    0.8703    1.4076   -0.7373 H   0  0  0  0  0  0  0  0  0  0  0  0
   -0.8825    1.6720    1.4246 H   0  0  0  0  0  0  0  0  0  0  0  0
   -2.1773    2.7244   -0.1113 H   0  0  0  0  0  0  0  0  0  0  0  0
   -0.5608    3.6896    2.4369 H   0  0  0  0  0  0  0  0  0  0  0  0
   -1.0980    5.4806    1.4290 H   0  0  0  0  0  0  0  0  0  0  0  0
    3.4684    0.6635    0.6685 H   0  0  0  0  0  0  0  0  0  0  0  0
    3.0549    1.6911    2.0910 H   0  0  0  0  0  0  0  0  0  0  0  0
    4.6896   -1.5968    2.5984 H   0  0  0  0  0  0  0  0  0  0  0  0
    5.0256    1.4687    2.8254 H   0  0  0  0  0  0  0  0  0  0  0  0
    6.9637   -0.0576    1.7580 H   0  0  0  0  0  0  0  0  0  0  0  0
    6.7605    1.1311    4.4335 H   0  0  0  0  0  0  0  0  0  0  0  0
    7.5976   -1.1513    4.6462 H   0  0  0  0  0  0  0  0  0  0  0  0
    5.7792   -1.0902    5.7095 H   0  0  0  0  0  0  0  0  0  0  0  0
    3.9959    0.3164    6.7670 H   0  0  0  0  0  0  0  0  0  0  0  0
    5.6645    1.0188    6.7771 H   0  0  0  0  0  0  0  0  0  0  0  0
    0.1037   -3.5841    5.0108 H   0  0  0  0  0  0  0  0  0  0  0  0
   -0.1392   -4.5198    3.5113 H   0  0  0  0  0  0  0  0  0  0  0  0
   -1.5667   -2.3522    2.5214 H   0  0  0  0  0  0  0  0  0  0  0  0
  1  2  1  0
  2  8  1  0
  2  3  2  0
  2  4  1  0
  4  5  1  0
  5 28  1  0
  5  6  2  0
  5  7  1  0
  8  9  1  0
  9 10  1  0
 10 11  1  0
 10 15  1  0
 11 12  1  0
 12 13  1  0
 12 17  1  0
 13 14  1  0
 13 15  1  0
 15 16  1  0
 17 18  1  0
 17 30  1  0
 18 19  1  0
 19 29  1  0
 19 20  1  0
 20 22  1  0
 20 21  1  0
 21 26  1  0
 22 23  1  0
 22 24  1  0
 24 25  1  0
 24 26  1  0
 26 27  1  0
 27 28  1  0
 29 30  2  0
 29 31  1  0
 30 35  1  0
 31 32  2  0
 32 34  1  0
 32 33  1  0
 34 35  1  0
 35 36  2  0
  1 37  1  0
  7 38  1  0
  9 39  1  0
  9 40  1  0
 10 41  1  0
 12 42  1  0
 13 43  1  0
 14 44  1  0
 15 45  1  0
 16 46  1  0
 18 47  1  0
 18 48  1  0
 20 49  1  0
 22 50  1  0
 23 51  1  0
 24 52  1  0
 25 53  1  0
 26 54  1  0
 27 55  1  0
 27 56  1  0
 33 57  1  0
 33 58  1  0
 34 59  1  0
A    1
O2B
A    2
PB
A    3
O1B
A    4
O3
A    5
PA
A    6
O2A
A    7
O1A
A    8
O5'R
A    9
C5'R
A   10
C4'R
A   11
O4'R
A   12
C1'R
A   13
C2'R
A   14
O2'R
A   15
C3'R
A   16
O3'R
A   17
N7
A   18
C8
A   19
N9
A   20
C1'
A   21
O4'
A   22
C2'
A   23
O2'
A   24
C3'
A   25
O3'
A   26
C4'
A   27
C5'
A   28
O5'
A   29
C4A
A   30
C5A
A   31
N3A
A   32
C2A
A   33
N2A
A   34
N1A
A   35
C6A
A   36
O6A
M  END
