2O4R_VD5_A_500
     RDKit          3D

 72 74  0  0  0  0  0  0  0  0999 V2000
   58.6410    8.1120    1.1290 O   0  0  0  0  0  0  0  0  0  0  0  0
   60.0720    8.1510    1.1710 C   0  0  0  0  0  0  0  0  0  0  0  0
   60.4990    6.9420    1.9700 C   0  0  0  0  0  0  0  0  0  0  0  0
   61.1180    7.0430    3.1420 C   0  0  0  0  0  0  0  0  0  0  0  0
   60.1550    5.6100    1.4290 C   0  0  0  0  0  0  0  0  0  0  0  0
   60.6250    4.6310    2.3660 O   0  0  0  0  0  0  0  0  0  0  0  0
   60.8200    5.4780    0.0380 C   0  0  0  0  0  0  0  0  0  0  0  0
   60.5780    8.0860   -0.2670 C   0  0  0  0  0  0  0  0  0  0  0  0
   60.5540    6.6880   -0.8610 C   0  0  0  0  0  0  0  0  0  0  0  0
   60.3190    6.5590   -2.2040 C   0  0  0  0  0  0  0  0  0  0  0  0
   60.3190    5.2430   -2.8880 C   0  0  0  0  0  0  0  0  0  0  0  0
   60.4950    5.1380   -4.2460 C   0  0  0  0  0  0  0  0  0  0  0  0
   60.6700    6.3700   -5.1360 C   0  0  0  0  0  0  0  0  0  0  0  0
   61.9240    6.2130   -6.0160 C   0  0  0  0  0  0  0  0  0  0  0  0
   62.1560    4.7980   -6.6190 C   0  0  0  0  0  0  0  0  0  0  0  0
   60.6070    3.8140   -5.0110 C   0  0  0  0  0  0  0  0  0  0  0  0
   62.0390    3.6800   -5.5630 C   0  0  0  0  0  0  0  0  0  0  0  0
   63.1380    3.7650   -4.4740 C   0  0  0  0  0  0  0  0  0  0  0  0
   60.2830    2.4580   -4.3800 C   0  0  0  0  0  0  0  0  0  0  0  0
   61.0310    1.4330   -5.2850 C   0  0  0  0  0  0  0  0  0  0  0  0
   62.0800    2.2350   -6.0340 C   0  0  0  0  0  0  0  0  0  0  0  0
   62.9260    1.7150   -6.9700 C   0  0  0  0  0  0  0  0  0  0  0  0
   63.9680    2.5330   -7.7070 C   0  0  0  0  0  0  0  0  0  0  0  0
   62.8890    0.2630   -7.3870 C   0  0  0  0  0  0  0  0  0  0  0  0
   63.7670   -0.5750   -6.4670 C   0  0  0  0  0  0  0  0  0  0  0  0
   65.2380   -0.4300   -6.8750 C   0  0  0  0  0  0  0  0  0  0  0  0
   66.0370   -1.6950   -6.6220 C   0  0  0  0  0  0  0  0  0  0  0  0
   66.0010   -2.1750   -5.1590 C   0  0  0  0  0  0  0  0  0  0  0  0
   67.4820   -1.3990   -6.9750 C   0  0  0  0  0  0  0  0  0  0  0  0
   65.5130   -2.7450   -7.4440 O   0  0  0  0  0  0  0  0  0  0  0  0
   58.2839    8.1023    2.0523 H   0  0  0  0  0  0  0  0  0  0  0  0
   60.4755    9.0630    1.6352 H   0  0  0  0  0  0  0  0  0  0  0  0
   61.4108    6.1349    3.6894 H   0  0  0  0  0  0  0  0  0  0  0  0
   61.3374    8.0347    3.5645 H   0  0  0  0  0  0  0  0  0  0  0  0
   59.0726    5.4644    1.2975 H   0  0  0  0  0  0  0  0  0  0  0  0
   60.4692    4.9554    3.2883 H   0  0  0  0  0  0  0  0  0  0  0  0
   60.4253    4.5784   -0.4568 H   0  0  0  0  0  0  0  0  0  0  0  0
   61.9069    5.4126    0.1941 H   0  0  0  0  0  0  0  0  0  0  0  0
   61.6144    8.4540   -0.2873 H   0  0  0  0  0  0  0  0  0  0  0  0
   59.9006    8.7045   -0.8741 H   0  0  0  0  0  0  0  0  0  0  0  0
   60.1231    7.4645   -2.7971 H   0  0  0  0  0  0  0  0  0  0  0  0
   60.1745    4.3290   -2.2933 H   0  0  0  0  0  0  0  0  0  0  0  0
   60.7789    7.2633   -4.5035 H   0  0  0  0  0  0  0  0  0  0  0  0
   59.7868    6.4752   -5.7832 H   0  0  0  0  0  0  0  0  0  0  0  0
   62.8009    6.4659   -5.4019 H   0  0  0  0  0  0  0  0  0  0  0  0
   61.7711    6.8822   -6.8755 H   0  0  0  0  0  0  0  0  0  0  0  0
   61.4060    4.6217   -7.4041 H   0  0  0  0  0  0  0  0  0  0  0  0
   63.1786    4.7704   -7.0234 H   0  0  0  0  0  0  0  0  0  0  0  0
   59.7789    3.9547   -5.7212 H   0  0  0  0  0  0  0  0  0  0  0  0
   62.6714    3.7289   -3.4785 H   0  0  0  0  0  0  0  0  0  0  0  0
   63.8307    2.9177   -4.5852 H   0  0  0  0  0  0  0  0  0  0  0  0
   63.6922    4.7087   -4.5852 H   0  0  0  0  0  0  0  0  0  0  0  0
   59.1991    2.2708   -4.3904 H   0  0  0  0  0  0  0  0  0  0  0  0
   60.5918    2.3967   -3.3260 H   0  0  0  0  0  0  0  0  0  0  0  0
   60.3311    0.9628   -5.9914 H   0  0  0  0  0  0  0  0  0  0  0  0
   61.4844    0.6242   -4.6932 H   0  0  0  0  0  0  0  0  0  0  0  0
   64.6166    3.0422   -6.9790 H   0  0  0  0  0  0  0  0  0  0  0  0
   64.5763    1.8687   -8.3384 H   0  0  0  0  0  0  0  0  0  0  0  0
   63.4671    3.2816   -8.3384 H   0  0  0  0  0  0  0  0  0  0  0  0
   61.8533   -0.1036   -7.3328 H   0  0  0  0  0  0  0  0  0  0  0  0
   63.2664    0.1773   -8.4167 H   0  0  0  0  0  0  0  0  0  0  0  0
   63.6406   -0.2315   -5.4297 H   0  0  0  0  0  0  0  0  0  0  0  0
   63.4713   -1.6314   -6.5474 H   0  0  0  0  0  0  0  0  0  0  0  0
   65.6854    0.3918   -6.2967 H   0  0  0  0  0  0  0  0  0  0  0  0
   65.2673   -0.2258   -7.9555 H   0  0  0  0  0  0  0  0  0  0  0  0
   66.0661   -1.3069   -4.4866 H   0  0  0  0  0  0  0  0  0  0  0  0
   65.0600   -2.7133   -4.9728 H   0  0  0  0  0  0  0  0  0  0  0  0
   66.8512   -2.8476   -4.9728 H   0  0  0  0  0  0  0  0  0  0  0  0
   68.0678   -1.2790   -6.0517 H   0  0  0  0  0  0  0  0  0  0  0  0
   67.8933   -2.2315   -7.5646 H   0  0  0  0  0  0  0  0  0  0  0  0
   67.5329   -0.4718   -7.5646 H   0  0  0  0  0  0  0  0  0  0  0  0
   65.1532   -3.4660   -6.8688 H   0  0  0  0  0  0  0  0  0  0  0  0
 23 22  1  0
 30 27  1  0
 24 22  1  0
 24 25  1  0
 29 27  1  0
 22 21  2  0
 26 27  1  0
 26 25  1  0
 27 28  1  0
 15 14  1  0
 15 17  1  0
 21 17  1  0
 21 20  1  0
 14 13  1  0
 17 16  1  0
 17 18  1  0
 20 19  1  0
 13 12  1  0
 16 19  1  0
 16 12  1  0
 12 11  2  0
 11 10  1  0
 10  9  2  0
  9  8  1  0
  9  7  1  0
  8  2  1  0
  7  5  1  0
  1  2  1  0
  2  3  1  0
  5  3  1  0
  5  6  1  0
  3  4  2  3
  1 31  1  0
  2 32  1  0
  4 33  1  0
  4 34  1  0
  5 35  1  0
  6 36  1  0
  7 37  1  0
  7 38  1  0
  8 39  1  0
  8 40  1  0
 10 41  1  0
 11 42  1  0
 13 43  1  0
 13 44  1  0
 14 45  1  0
 14 46  1  0
 15 47  1  0
 15 48  1  0
 16 49  1  0
 18 50  1  0
 18 51  1  0
 18 52  1  0
 19 53  1  0
 19 54  1  0
 20 55  1  0
 20 56  1  0
 23 57  1  0
 23 58  1  0
 23 59  1  0
 24 60  1  0
 24 61  1  0
 25 62  1  0
 25 63  1  0
 26 64  1  0
 26 65  1  0
 28 66  1  0
 28 67  1  0
 28 68  1  0
 29 69  1  0
 29 70  1  0
 29 71  1  0
 30 72  1  0
A    1
O2
A    2
C3
A    3
C2
A    4
C28
A    5
C1
A    6
O1
A    7
C10
A    8
C4
A    9
C5
A   10
C6
A   11
C7
A   12
C8
A   13
C9
A   14
C11
A   15
C12
A   16
C14
A   17
C13
A   18
C18
A   19
C15
A   20
C16
A   21
C17
A   22
C20
A   23
C21
A   24
C22
A   25
C23
A   26
C24
A   27
C25
A   28
C27
A   29
C26
A   30
O3
M  END
