2O64_MYU_A_501
     RDKit          3D

 33 35  0  0  0  0  0  0  0  0999 V2000
   74.0290   38.9190   -1.5840 O   0  0  0  0  0  0  0  0  0  0  0  0
   74.3420   37.8600   -1.0440 C   0  0  0  0  0  0  0  0  0  0  0  0
   74.6040   36.6660   -1.8290 C   0  0  0  0  0  0  0  0  0  0  0  0
   74.5220   36.7960   -3.1630 O   0  0  0  0  0  0  0  0  0  0  0  0
   74.4120   37.7750    0.4280 C   0  0  0  0  0  0  0  0  0  0  0  0
   74.1450   38.9430    1.2880 C   0  0  0  0  0  0  0  0  0  0  0  0
   73.8540   40.1350    0.7860 O   0  0  0  0  0  0  0  0  0  0  0  0
   74.7510   36.4930    1.0510 C   0  0  0  0  0  0  0  0  0  0  0  0
   74.8110   36.3470    2.4310 C   0  0  0  0  0  0  0  0  0  0  0  0
   74.5680   37.4190    3.2870 C   0  0  0  0  0  0  0  0  0  0  0  0
   74.6230   37.2070    4.6040 O   0  0  0  0  0  0  0  0  0  0  0  0
   74.2320   38.7670    2.7390 C   0  0  0  0  0  0  0  0  0  0  0  0
   73.9910   39.8210    3.5090 O   0  0  0  0  0  0  0  0  0  0  0  0
   74.9890   35.4310    0.2540 O   0  0  0  0  0  0  0  0  0  0  0  0
   74.8940   35.5200   -1.1910 C   0  0  0  0  0  0  0  0  0  0  0  0
   75.2110   34.2050   -1.8280 C   0  0  0  0  0  0  0  0  0  0  0  0
   75.7170   33.2280   -0.9570 C   0  0  0  0  0  0  0  0  0  0  0  0
   76.0520   31.9730   -1.4390 C   0  0  0  0  0  0  0  0  0  0  0  0
   76.5390   31.0080   -0.6750 O   0  0  0  0  0  0  0  0  0  0  0  0
   75.8560   31.7120   -2.8510 C   0  0  0  0  0  0  0  0  0  0  0  0
   76.1860   30.5230   -3.2750 O   0  0  0  0  0  0  0  0  0  0  0  0
   75.3380   32.6850   -3.6970 C   0  0  0  0  0  0  0  0  0  0  0  0
   75.0140   33.9390   -3.1760 C   0  0  0  0  0  0  0  0  0  0  0  0
   74.0374   37.5643   -3.5566 H   0  0  0  0  0  0  0  0  0  0  0  0
   73.6684   40.8955    1.3921 H   0  0  0  0  0  0  0  0  0  0  0  0
   75.0558   35.3631    2.8575 H   0  0  0  0  0  0  0  0  0  0  0  0
   74.4310   37.9470    5.2329 H   0  0  0  0  0  0  0  0  0  0  0  0
   74.0120   39.7292    4.4945 H   0  0  0  0  0  0  0  0  0  0  0  0
   75.8479   33.4590    0.1105 H   0  0  0  0  0  0  0  0  0  0  0  0
   76.4982   31.0889    0.3108 H   0  0  0  0  0  0  0  0  0  0  0  0
   76.3857   29.8035   -2.6250 H   0  0  0  0  0  0  0  0  0  0  0  0
   75.1850   32.4697   -4.7648 H   0  0  0  0  0  0  0  0  0  0  0  0
   74.6019   34.7175   -3.8348 H   0  0  0  0  0  0  0  0  0  0  0  0
 22 23  2  0
 22 20  1  0
 21 20  1  0
 23 16  1  0
  4  3  1  0
 20 18  2  0
  3 15  2  0
  3  2  1  0
 16 15  1  0
 16 17  2  0
  1  2  2  0
 18 17  1  0
 18 19  1  0
 15 14  1  0
  2  5  1  0
 14  8  1  0
  5  8  2  0
  5  6  1  0
  7  6  1  0
  8  9  1  0
  6 12  2  0
  9 10  2  0
 12 10  1  0
 12 13  1  0
 10 11  1  0
  4 24  1  0
  7 25  1  0
  9 26  1  0
 11 27  1  0
 13 28  1  0
 17 29  1  0
 19 30  1  0
 21 31  1  0
 22 32  1  0
 23 33  1  0
A    1
O20
A    2
C11
A    3
C12
A    4
O19
A    5
C10
A    6
C13
A    7
O21
A    8
C9
A    9
C16
A   10
C15
A   11
O22
A   12
C14
A   13
O23
A   14
O8
A   15
C7
A   16
C6
A   17
C5
A   18
C4
A   19
O17
A   20
C3
A   21
O18
A   22
C2
A   23
C1
M  END
