2O65_MYF_A_501
     RDKit          3D

 32 34  0  0  0  0  0  0  0  0999 V2000
   75.0050   36.1570   -2.5710 O   0  0  0  0  0  0  0  0  0  0  0  0
   75.3120   35.7230   -1.4820 C   0  0  0  0  0  0  0  0  0  0  0  0
   75.7840   34.3130   -1.2840 C   0  0  0  0  0  0  0  0  0  0  0  0
   75.9250   33.2870   -2.3650 C   0  0  0  0  0  0  0  0  0  0  0  0
   75.6350   33.5700   -3.6340 O   0  0  0  0  0  0  0  0  0  0  0  0
   76.3860   32.0010   -2.0430 C   0  0  0  0  0  0  0  0  0  0  0  0
   76.7080   31.6640   -0.7210 C   0  0  0  0  0  0  0  0  0  0  0  0
   77.1320   30.4420   -0.4210 O   0  0  0  0  0  0  0  0  0  0  0  0
   76.1510   33.9010    0.0940 C   0  0  0  0  0  0  0  0  0  0  0  0
   76.5820   32.5810    0.3250 C   0  0  0  0  0  0  0  0  0  0  0  0
   76.0520   34.8120    1.1300 O   0  0  0  0  0  0  0  0  0  0  0  0
   75.6070   36.1690    0.8810 C   0  0  0  0  0  0  0  0  0  0  0  0
   75.2280   36.6180   -0.3290 C   0  0  0  0  0  0  0  0  0  0  0  0
   75.4620   37.0190    2.0780 C   0  0  0  0  0  0  0  0  0  0  0  0
   75.2920   38.3970    1.9260 C   0  0  0  0  0  0  0  0  0  0  0  0
   75.0920   39.2130    3.0380 C   0  0  0  0  0  0  0  0  0  0  0  0
   74.9690   40.5250    2.8320 O   0  0  0  0  0  0  0  0  0  0  0  0
   75.0260   38.5970    4.4060 C   0  0  0  0  0  0  0  0  0  0  0  0
   74.8330   39.3720    5.4760 O   0  0  0  0  0  0  0  0  0  0  0  0
   75.1680   37.1020    4.5140 C   0  0  0  0  0  0  0  0  0  0  0  0
   75.3740   36.3740    3.3270 C   0  0  0  0  0  0  0  0  0  0  0  0
   75.0910   36.4740    5.7040 O   0  0  0  0  0  0  0  0  0  0  0  0
   74.9427   34.2456   -3.8448 H   0  0  0  0  0  0  0  0  0  0  0  0
   76.4959   31.2484   -2.8377 H   0  0  0  0  0  0  0  0  0  0  0  0
   77.2266   30.1695    0.5260 H   0  0  0  0  0  0  0  0  0  0  0  0
   76.8246   32.2652    1.3504 H   0  0  0  0  0  0  0  0  0  0  0  0
   74.8589   37.6472   -0.4497 H   0  0  0  0  0  0  0  0  0  0  0  0
   75.3162   38.8419    0.9203 H   0  0  0  0  0  0  0  0  0  0  0  0
   74.9110   41.1438    3.6026 H   0  0  0  0  0  0  0  0  0  0  0  0
   74.9275   38.9926    6.3855 H   0  0  0  0  0  0  0  0  0  0  0  0
   75.4682   35.2791    3.3759 H   0  0  0  0  0  0  0  0  0  0  0  0
   75.1548   36.9947    6.5436 H   0  0  0  0  0  0  0  0  0  0  0  0
  1  2  2  0
  2  3  1  0
  2 13  1  0
  3  4  2  0
  3  9  1  0
  4  5  1  0
  4  6  1  0
  6  7  2  0
  7  8  1  0
  7 10  1  0
  9 10  2  0
  9 11  1  0
 11 12  1  0
 12 13  2  0
 12 14  1  0
 14 15  2  0
 14 21  1  0
 15 16  1  0
 16 17  1  0
 16 18  2  0
 18 20  1  0
 18 19  1  0
 20 21  2  0
 20 22  1  0
  5 23  1  0
  6 24  1  0
  8 25  1  0
 10 26  1  0
 13 27  1  0
 15 28  1  0
 17 29  1  0
 19 30  1  0
 21 31  1  0
 22 32  1  0
A    1
O22
A    2
C7
A    3
C6
A    4
C1
A    5
O21
A    6
C2
A    7
C3
A    8
O20
A    9
C5
A   10
C4
A   11
O10
A   12
C9
A   13
C8
A   14
C11
A   15
C12
A   16
C13
A   17
O19
A   18
C14
A   19
O18
A   20
C15
A   21
C16
A   22
O17
M  END
