1A95_GUN_B_304
     RDKit          3D

 16 17  0  0  0  0  0  0  0  0999 V2000
   21.9410  136.5310   25.8780 N   0  0  0  0  0  0  0  0  0  0  0  0
   21.0440  137.5460   26.0630 C   0  0  0  0  0  0  0  0  0  0  0  0
   20.4980  137.5410   27.2460 N   0  0  0  0  0  0  0  0  0  0  0  0
   21.0690  136.4670   27.9040 C   0  0  0  0  0  0  0  0  0  0  0  0
   20.9160  136.0380   29.2510 C   0  0  0  0  0  0  0  0  0  0  0  0
   20.2090  136.5140   30.1390 O   0  0  0  0  0  0  0  0  0  0  0  0
   21.7290  134.9460   29.5000 N   0  0  0  0  0  0  0  0  0  0  0  0
   22.5950  134.3650   28.5870 C   0  0  0  0  0  0  0  0  0  0  0  0
   23.3440  133.3550   29.0140 N   0  0  0  0  0  0  0  0  0  0  0  0
   22.7350  134.7750   27.3290 N   0  0  0  0  0  0  0  0  0  0  0  0
   21.9490  135.8330   27.0630 C   0  0  0  0  0  0  0  0  0  0  0  0
   22.4931  136.3316   25.0316 H   0  0  0  0  0  0  0  0  0  0  0  0
   20.8069  138.2922   25.2904 H   0  0  0  0  0  0  0  0  0  0  0  0
   21.6870  134.5307   30.4416 H   0  0  0  0  0  0  0  0  0  0  0  0
   23.4636  133.1937   30.0242 H   0  0  0  0  0  0  0  0  0  0  0  0
   23.8053  132.7329   28.3350 H   0  0  0  0  0  0  0  0  0  0  0  0
  1  2  1  0
  1 11  1  0
  2  3  2  0
  3  4  1  0
  4  5  1  0
  4 11  2  0
  5  6  2  0
  5  7  1  0
  7  8  1  0
  8  9  1  0
  8 10  2  0
 10 11  1  0
  1 12  1  0
  2 13  1  0
  7 14  1  0
  9 15  1  0
  9 16  1  0
A    1
N9
A    2
C8
A    3
N7
A    4
C5
A    5
C6
A    6
O6
A    7
N1
A    8
C2
A    9
N2
A   10
N3
A   11
C4
M  END
