1BE6_TCA_A_276
     RDKit          3D

 18 18  0  0  0  0  0  0  0  0999 V2000
    3.5880   10.5520    3.2940 C   0  0  0  0  0  0  0  0  0  0  0  0
    3.6080    9.4440    3.5180 O   0  0  0  0  0  0  0  0  0  0  0  0
    3.0520   11.1160    2.1440 C   0  0  0  0  0  0  0  0  0  0  0  0
    3.8350   11.8600    1.4880 C   0  0  0  0  0  0  0  0  0  0  0  0
    3.6190   12.3100    0.1280 C   0  0  0  0  0  0  0  0  0  0  0  0
    4.5110   13.0620   -0.5400 C   0  0  0  0  0  0  0  0  0  0  0  0
    4.3940   13.2850   -1.9530 C   0  0  0  0  0  0  0  0  0  0  0  0
    3.3590   12.7710   -2.7030 C   0  0  0  0  0  0  0  0  0  0  0  0
    2.3700   12.0880   -2.0010 C   0  0  0  0  0  0  0  0  0  0  0  0
    2.5040   11.8250   -0.5940 C   0  0  0  0  0  0  0  0  0  0  0  0
    4.0244   11.2319    4.0406 H   0  0  0  0  0  0  0  0  0  0  0  0
    2.0160   10.9279    1.8255 H   0  0  0  0  0  0  0  0  0  0  0  0
    4.7552   12.1929    1.9904 H   0  0  0  0  0  0  0  0  0  0  0  0
    5.3492   13.5165    0.0086 H   0  0  0  0  0  0  0  0  0  0  0  0
    5.1615   13.8906   -2.4573 H   0  0  0  0  0  0  0  0  0  0  0  0
    3.3166   12.8935   -3.7953 H   0  0  0  0  0  0  0  0  0  0  0  0
    1.4703   11.7435   -2.5320 H   0  0  0  0  0  0  0  0  0  0  0  0
    1.7311   11.2404   -0.0736 H   0  0  0  0  0  0  0  0  0  0  0  0
  1  2  2  0
  1  3  1  0
  3  4  2  0
  4  5  1  0
  5  6  2  0
  5 10  1  0
  6  7  1  0
  7  8  2  0
  8  9  1  0
  9 10  2  0
  1 11  1  0
  3 12  1  0
  4 13  1  0
  6 14  1  0
  7 15  1  0
  8 16  1  0
  9 17  1  0
 10 18  1  0
A    1
C1
A    2
O
A    3
C2
A    4
C3
A    5
C31
A    6
C32
A    7
C33
A    8
C34
A    9
C35
A   10
C36
M  END
