2OAE_AIL_A_901
     RDKit          3D

 39 41  0  0  0  0  0  0  0  0999 V2000
   11.9760   36.6270  -79.7070 C   0  0  0  0  0  0  0  0  0  0  0  0
   12.6850   36.2650  -80.9240 N   0  0  0  0  0  0  0  0  0  0  0  0
   13.0600   37.4890  -81.6450 C   0  0  0  0  0  0  0  0  0  0  0  0
   13.0730   38.5350  -80.5380 C   0  0  0  0  0  0  0  0  0  0  0  0
   11.8630   38.1470  -79.7350 C   0  0  0  0  0  0  0  0  0  0  0  0
   11.8550   38.7580  -78.3280 C   0  0  0  0  0  0  0  0  0  0  0  0
   14.4230   37.1660  -82.2840 C   0  0  0  0  0  0  0  0  0  0  0  0
   14.9810   36.1390  -81.8970 O   0  0  0  0  0  0  0  0  0  0  0  0
   14.9480   38.0040  -83.2310 N   0  0  0  0  0  0  0  0  0  0  0  0
   16.2460   37.6740  -83.8320 C   0  0  0  0  0  0  0  0  0  0  0  0
   16.4720   38.5140  -85.0780 C   0  0  0  0  0  0  0  0  0  0  0  0
   15.4210   39.9470  -84.9440 S   0  0  0  0  0  0  0  0  0  0  0  0
   14.3200   39.2390  -83.7220 C   0  0  0  0  0  0  0  0  0  0  0  0
   10.6500   38.3070  -77.6610 N   0  0  0  0  0  0  0  0  0  0  0  0
   10.6950   37.6150  -76.4920 C   0  0  0  0  0  0  0  0  0  0  0  0
   11.7480   37.3220  -75.9140 O   0  0  0  0  0  0  0  0  0  0  0  0
    8.2340   37.5260  -76.5710 N   0  0  0  0  0  0  0  0  0  0  0  0
    7.1490   37.0660  -75.8960 C   0  0  0  0  0  0  0  0  0  0  0  0
    7.6000   36.2540  -74.4840 S   0  0  0  0  0  0  0  0  0  0  0  0
    9.2390   36.5160  -74.7740 C   0  0  0  0  0  0  0  0  0  0  0  0
    9.4510   37.2360  -75.9700 C   0  0  0  0  0  0  0  0  0  0  0  0
   10.9765   36.1679  -79.6939 H   0  0  0  0  0  0  0  0  0  0  0  0
   12.5037   36.2746  -78.8084 H   0  0  0  0  0  0  0  0  0  0  0  0
   13.5335   35.7329  -80.6834 H   0  0  0  0  0  0  0  0  0  0  0  0
   12.4130   37.8498  -82.4581 H   0  0  0  0  0  0  0  0  0  0  0  0
   13.9912   38.4697  -79.9359 H   0  0  0  0  0  0  0  0  0  0  0  0
   13.0511   39.5720  -80.9043 H   0  0  0  0  0  0  0  0  0  0  0  0
   10.9208   38.5143  -80.1678 H   0  0  0  0  0  0  0  0  0  0  0  0
   12.7410   38.4231  -77.7687 H   0  0  0  0  0  0  0  0  0  0  0  0
   11.8775   39.8564  -78.3838 H   0  0  0  0  0  0  0  0  0  0  0  0
   17.0461   37.8782  -83.1053 H   0  0  0  0  0  0  0  0  0  0  0  0
   16.2550   36.6093  -84.1085 H   0  0  0  0  0  0  0  0  0  0  0  0
   17.5258   38.8236  -85.1379 H   0  0  0  0  0  0  0  0  0  0  0  0
   16.2350   37.9390  -85.9853 H   0  0  0  0  0  0  0  0  0  0  0  0
   13.3466   39.0099  -84.1802 H   0  0  0  0  0  0  0  0  0  0  0  0
   14.1502   39.9447  -82.8955 H   0  0  0  0  0  0  0  0  0  0  0  0
    9.7347   38.5165  -78.0843 H   0  0  0  0  0  0  0  0  0  0  0  0
    6.1089   37.2043  -76.2263 H   0  0  0  0  0  0  0  0  0  0  0  0
   10.0458   36.1684  -74.1120 H   0  0  0  0  0  0  0  0  0  0  0  0
  1  2  1  0
  1  5  1  0
  2  3  1  0
  3  7  1  0
  3  4  1  0
  4  5  1  0
  5  6  1  0
  6 14  1  0
  7  9  1  0
  7  8  2  0
  9 10  1  0
  9 13  1  0
 10 11  1  0
 11 12  1  0
 12 13  1  0
 14 15  1  0
 15 21  1  0
 15 16  2  0
 17 21  1  0
 17 18  2  0
 18 19  1  0
 19 20  1  0
 20 21  2  0
  1 22  1  0
  1 23  1  0
  2 24  1  0
  3 25  1  0
  4 26  1  0
  4 27  1  0
  5 28  1  0
  6 29  1  0
  6 30  1  0
 10 31  1  0
 10 32  1  0
 11 33  1  0
 11 34  1  0
 13 35  1  0
 13 36  1  0
 14 37  1  0
 18 38  1  0
 20 39  1  0
A    1
C1
A    2
N2
A    3
C3
A    4
C4
A    5
C5
A    6
C6
A    7
C7
A    8
O8
A    9
N9
A   10
C10
A   11
C11
A   12
S12
A   13
C13
A   14
N14
A   15
C15
A   16
O16
A   17
N17
A   18
C18
A   19
S19
A   20
C20
A   21
C21
M  END
