2OBD_2OB_A_485
     RDKit          3D

125128  0  0  0  0  0  0  0  0999 V2000
    9.1490    2.9150   38.5980 O   0  0  0  0  0  0  0  0  0  0  0  0
    8.4570    2.3130   37.8180 C   0  0  0  0  0  0  0  0  0  0  0  0
    7.9320    1.0070   38.2050 O   0  0  0  0  0  0  0  0  0  0  0  0
    8.1690    0.7050   39.5740 C   0  0  0  0  0  0  0  0  0  0  0  0
    6.8120    0.4580   40.2210 C   0  0  0  0  0  0  0  0  0  0  0  0
    9.0390   -0.5430   39.6420 C   0  0  0  0  0  0  0  0  0  0  0  0
    9.0470   -1.1090   41.0490 C   0  0  0  0  0  0  0  0  0  0  0  0
    7.7350   -1.3800   41.7590 C   0  0  0  0  0  0  0  0  0  0  0  0
    8.0000   -1.6780   43.2410 C   0  0  0  0  0  0  0  0  0  0  0  0
    6.7030   -2.0220   44.0080 C   0  0  0  0  0  0  0  0  0  0  0  0
    6.8870   -2.5150   45.4510 C   0  0  0  0  0  0  0  0  0  0  0  0
    7.9970   -3.5490   45.6030 C   0  0  0  0  0  0  0  0  0  0  0  0
    7.5580   -4.8820   44.9740 C   0  0  0  0  0  0  0  0  0  0  0  0
    8.5150   -3.7550   47.0420 C   0  0  0  0  0  0  0  0  0  0  0  0
    7.7520   -4.7130   47.9790 C   0  0  0  0  0  0  0  0  0  0  0  0
    8.4540   -4.7590   49.3420 C   0  0  0  0  0  0  0  0  0  0  0  0
    7.9490   -5.8390   50.2900 C   0  0  0  0  0  0  0  0  0  0  0  0
    8.9980   -6.0710   51.3700 C   0  0  0  0  0  0  0  0  0  0  0  0
    8.4470   -6.5480   52.7050 C   0  0  0  0  0  0  0  0  0  0  0  0
    7.3660   -7.5910   52.5740 C   0  0  0  0  0  0  0  0  0  0  0  0
    9.5630   -7.1280   53.5610 C   0  0  0  0  0  0  0  0  0  0  0  0
    6.3000   -4.2870   48.1480 C   0  0  0  0  0  0  0  0  0  0  0  0
    9.9960   -4.1440   46.9000 C   0  0  0  0  0  0  0  0  0  0  0  0
   10.4120   -3.8240   45.4570 C   0  0  0  0  0  0  0  0  0  0  0  0
    9.2480   -2.9770   44.9460 C   0  0  0  0  0  0  0  0  0  0  0  0
    9.1110   -2.7230   43.4380 C   0  0  0  0  0  0  0  0  0  0  0  0
   10.4390   -2.3140   42.7860 C   0  0  0  0  0  0  0  0  0  0  0  0
   10.2350   -1.3390   41.6390 C   0  0  0  0  0  0  0  0  0  0  0  0
    7.0050   -2.5450   41.0770 C   0  0  0  0  0  0  0  0  0  0  0  0
    6.8960   -0.1090   41.6390 C   0  0  0  0  0  0  0  0  0  0  0  0
    8.1680    2.9390   36.4800 C   0  0  0  0  0  0  0  0  0  0  0  0
    9.2690    2.6060   35.4860 C   0  0  0  0  0  0  0  0  0  0  0  0
    9.3370    3.6330   34.3580 C   0  0  0  0  0  0  0  0  0  0  0  0
   10.4460    3.2640   33.3820 C   0  0  0  0  0  0  0  0  0  0  0  0
   11.6030    4.2570   33.4050 C   0  0  0  0  0  0  0  0  0  0  0  0
   12.8240    3.5580   32.8330 C   0  0  0  0  0  0  0  0  0  0  0  0
   14.1280    4.3130   33.0490 C   0  0  0  0  0  0  0  0  0  0  0  0
   14.9970    4.1230   31.8170 C   0  0  0  0  0  0  0  0  0  0  0  0
   16.3160    3.8780   31.7930 C   0  0  0  0  0  0  0  0  0  0  0  0
   17.2060    3.7360   33.0060 C   0  0  0  0  0  0  0  0  0  0  0  0
   17.6250    2.2740   33.0900 C   0  0  0  0  0  0  0  0  0  0  0  0
   18.6220    2.0660   34.2180 C   0  0  0  0  0  0  0  0  0  0  0  0
   18.1220    1.0050   35.1850 C   0  0  0  0  0  0  0  0  0  0  0  0
   19.0170    0.9750   36.4080 C   0  0  0  0  0  0  0  0  0  0  0  0
   18.2950    0.3360   37.5790 C   0  0  0  0  0  0  0  0  0  0  0  0
   18.8340   -1.0640   37.8120 C   0  0  0  0  0  0  0  0  0  0  0  0
   18.0060   -1.7510   38.8680 C   0  0  0  0  0  0  0  0  0  0  0  0
    8.6855    1.5224   40.0984 H   0  0  0  0  0  0  0  0  0  0  0  0
    6.2685    1.4135   40.2616 H   0  0  0  0  0  0  0  0  0  0  0  0
    6.2971   -0.2947   39.6059 H   0  0  0  0  0  0  0  0  0  0  0  0
    8.6413   -1.2997   38.9497 H   0  0  0  0  0  0  0  0  0  0  0  0
   10.0681   -0.2750   39.3605 H   0  0  0  0  0  0  0  0  0  0  0  0
    8.3802   -0.7482   43.6893 H   0  0  0  0  0  0  0  0  0  0  0  0
    6.0792   -1.1165   44.0383 H   0  0  0  0  0  0  0  0  0  0  0  0
    6.2487   -2.8622   43.4623 H   0  0  0  0  0  0  0  0  0  0  0  0
    7.1274   -1.6500   46.0866 H   0  0  0  0  0  0  0  0  0  0  0  0
    5.9471   -3.0028   45.7488 H   0  0  0  0  0  0  0  0  0  0  0  0
    7.3207   -5.6027   45.7704 H   0  0  0  0  0  0  0  0  0  0  0  0
    6.6666   -4.7174   44.3508 H   0  0  0  0  0  0  0  0  0  0  0  0
    8.3727   -5.2793   44.3508 H   0  0  0  0  0  0  0  0  0  0  0  0
    8.3455   -2.8080   47.5754 H   0  0  0  0  0  0  0  0  0  0  0  0
    7.7533   -5.7161   47.5276 H   0  0  0  0  0  0  0  0  0  0  0  0
    9.5263   -4.9319   49.1679 H   0  0  0  0  0  0  0  0  0  0  0  0
    8.2405   -3.7968   49.8304 H   0  0  0  0  0  0  0  0  0  0  0  0
    7.0063   -5.5131   50.7537 H   0  0  0  0  0  0  0  0  0  0  0  0
    7.7707   -6.7715   49.7345 H   0  0  0  0  0  0  0  0  0  0  0  0
    9.7057   -6.8284   51.0020 H   0  0  0  0  0  0  0  0  0  0  0  0
    9.4664   -5.0941   51.5605 H   0  0  0  0  0  0  0  0  0  0  0  0
    8.0031   -5.6585   53.1759 H   0  0  0  0  0  0  0  0  0  0  0  0
    7.0383   -7.9072   53.5753 H   0  0  0  0  0  0  0  0  0  0  0  0
    6.5119   -7.1670   52.0256 H   0  0  0  0  0  0  0  0  0  0  0  0
    7.7592   -8.4597   52.0256 H   0  0  0  0  0  0  0  0  0  0  0  0
    9.3142   -6.9987   54.6247 H   0  0  0  0  0  0  0  0  0  0  0  0
    9.6767   -8.1993   53.3386 H   0  0  0  0  0  0  0  0  0  0  0  0
   10.5050   -6.6054   53.3386 H   0  0  0  0  0  0  0  0  0  0  0  0
    6.0608   -4.2168   49.2194 H   0  0  0  0  0  0  0  0  0  0  0  0
    6.1480   -3.3064   47.6734 H   0  0  0  0  0  0  0  0  0  0  0  0
    5.6423   -5.0300   47.6734 H   0  0  0  0  0  0  0  0  0  0  0  0
   10.6077   -3.5635   47.6063 H   0  0  0  0  0  0  0  0  0  0  0  0
   10.1428   -5.2114   47.1216 H   0  0  0  0  0  0  0  0  0  0  0  0
   11.3543   -3.2570   45.4333 H   0  0  0  0  0  0  0  0  0  0  0  0
   10.5957   -4.7219   44.8487 H   0  0  0  0  0  0  0  0  0  0  0  0
    9.4493   -1.9366   45.2410 H   0  0  0  0  0  0  0  0  0  0  0  0
    8.8337   -3.6557   42.9250 H   0  0  0  0  0  0  0  0  0  0  0  0
   11.0762   -1.8390   43.5465 H   0  0  0  0  0  0  0  0  0  0  0  0
   10.9111   -3.2209   42.3803 H   0  0  0  0  0  0  0  0  0  0  0  0
   11.1114   -0.7874   41.2680 H   0  0  0  0  0  0  0  0  0  0  0  0
    6.5859   -3.2139   41.8431 H   0  0  0  0  0  0  0  0  0  0  0  0
    6.1919   -2.1512   40.4495 H   0  0  0  0  0  0  0  0  0  0  0  0
    7.7140   -3.1050   40.4495 H   0  0  0  0  0  0  0  0  0  0  0  0
    7.3381    0.6585   42.2913 H   0  0  0  0  0  0  0  0  0  0  0  0
    5.8707   -0.3795   41.9314 H   0  0  0  0  0  0  0  0  0  0  0  0
    7.2096    2.5550   36.1004 H   0  0  0  0  0  0  0  0  0  0  0  0
    8.1181    4.0311   36.6021 H   0  0  0  0  0  0  0  0  0  0  0  0
   10.2340    2.5910   36.0138 H   0  0  0  0  0  0  0  0  0  0  0  0
    9.0479    1.6233   35.0439 H   0  0  0  0  0  0  0  0  0  0  0  0
    8.3749    3.6527   33.8252 H   0  0  0  0  0  0  0  0  0  0  0  0
    9.5480    4.6244   34.7853 H   0  0  0  0  0  0  0  0  0  0  0  0
   10.8312    2.2683   33.6468 H   0  0  0  0  0  0  0  0  0  0  0  0
   10.0162    3.2772   32.3695 H   0  0  0  0  0  0  0  0  0  0  0  0
   11.3539    5.1364   32.7930 H   0  0  0  0  0  0  0  0  0  0  0  0
   11.7995    4.5953   34.4331 H   0  0  0  0  0  0  0  0  0  0  0  0
   12.9127    2.5710   33.3104 H   0  0  0  0  0  0  0  0  0  0  0  0
   12.6718    3.4907   31.7457 H   0  0  0  0  0  0  0  0  0  0  0  0
   13.9188    5.3829   33.1956 H   0  0  0  0  0  0  0  0  0  0  0  0
   14.6451    3.9301   33.9412 H   0  0  0  0  0  0  0  0  0  0  0  0
   14.4917    4.1937   30.8425 H   0  0  0  0  0  0  0  0  0  0  0  0
   16.7900    3.7714   30.8061 H   0  0  0  0  0  0  0  0  0  0  0  0
   18.0937    4.3767   32.8989 H   0  0  0  0  0  0  0  0  0  0  0  0
   16.6734    4.0421   33.9185 H   0  0  0  0  0  0  0  0  0  0  0  0
   16.7358    1.6534   33.2747 H   0  0  0  0  0  0  0  0  0  0  0  0
   18.0998    1.9866   32.1403 H   0  0  0  0  0  0  0  0  0  0  0  0
   19.5850    1.7443   33.7946 H   0  0  0  0  0  0  0  0  0  0  0  0
   18.7436    3.0137   34.7631 H   0  0  0  0  0  0  0  0  0  0  0  0
   17.0922    1.2426   35.4899 H   0  0  0  0  0  0  0  0  0  0  0  0
   18.1405    0.0216   34.6925 H   0  0  0  0  0  0  0  0  0  0  0  0
   19.9223    0.3934   36.1799 H   0  0  0  0  0  0  0  0  0  0  0  0
   19.2870    2.0069   36.6767 H   0  0  0  0  0  0  0  0  0  0  0  0
   18.4540    0.9437   38.4820 H   0  0  0  0  0  0  0  0  0  0  0  0
   17.2194    0.2791   37.3559 H   0  0  0  0  0  0  0  0  0  0  0  0
   18.7825   -1.6376   36.8748 H   0  0  0  0  0  0  0  0  0  0  0  0
   19.8799   -1.0035   38.1474 H   0  0  0  0  0  0  0  0  0  0  0  0
   18.3637   -1.4542   39.8650 H   0  0  0  0  0  0  0  0  0  0  0  0
   16.9516   -1.4588   38.7548 H   0  0  0  0  0  0  0  0  0  0  0  0
   18.0986   -2.8412   38.7548 H   0  0  0  0  0  0  0  0  0  0  0  0
  1  2  2  0
  2 31  1  0
  2  3  1  0
  3  4  1  0
  4  6  1  0
  4  5  1  0
  5 30  1  0
  6  7  1  0
  7 28  2  0
  7  8  1  0
  8 30  1  0
  8 29  1  0
  8  9  1  0
  9 26  1  0
  9 10  1  0
 10 11  1  0
 11 12  1  0
 12 25  1  0
 12 13  1  0
 12 14  1  0
 14 23  1  0
 14 15  1  0
 15 22  1  0
 15 16  1  0
 16 17  1  0
 17 18  1  0
 18 19  1  0
 19 20  1  0
 19 21  1  0
 23 24  1  0
 24 25  1  0
 25 26  1  0
 26 27  1  0
 27 28  1  0
 31 32  1  0
 32 33  1  0
 33 34  1  0
 34 35  1  0
 35 36  1  0
 36 37  1  0
 37 38  1  0
 38 39  2  0
 39 40  1  0
 40 41  1  0
 41 42  1  0
 42 43  1  0
 43 44  1  0
 44 45  1  0
 45 46  1  0
 46 47  1  0
  4 48  1  0
  5 49  1  0
  5 50  1  0
  6 51  1  0
  6 52  1  0
  9 53  1  0
 10 54  1  0
 10 55  1  0
 11 56  1  0
 11 57  1  0
 13 58  1  0
 13 59  1  0
 13 60  1  0
 14 61  1  0
 15 62  1  0
 16 63  1  0
 16 64  1  0
 17 65  1  0
 17 66  1  0
 18 67  1  0
 18 68  1  0
 19 69  1  0
 20 70  1  0
 20 71  1  0
 20 72  1  0
 21 73  1  0
 21 74  1  0
 21 75  1  0
 22 76  1  0
 22 77  1  0
 22 78  1  0
 23 79  1  0
 23 80  1  0
 24 81  1  0
 24 82  1  0
 25 83  1  0
 26 84  1  0
 27 85  1  0
 27 86  1  0
 28 87  1  0
 29 88  1  0
 29 89  1  0
 29 90  1  0
 30 91  1  0
 30 92  1  0
 31 93  1  0
 31 94  1  0
 32 95  1  0
 32 96  1  0
 33 97  1  0
 33 98  1  0
 34 99  1  0
 34100  1  0
 35101  1  0
 35102  1  0
 36103  1  0
 36104  1  0
 37105  1  0
 37106  1  0
 38107  1  0
 39108  1  0
 40109  1  0
 40110  1  0
 41111  1  0
 41112  1  0
 42113  1  0
 42114  1  0
 43115  1  0
 43116  1  0
 44117  1  0
 44118  1  0
 45119  1  0
 45120  1  0
 46121  1  0
 46122  1  0
 47123  1  0
 47124  1  0
 47125  1  0
A    1
O2
A    2
C48
A    3
O1
A    4
C3
A    5
C2
A    6
C4
A    7
C5
A    8
C10
A    9
C9
A   10
C11
A   11
C12
A   12
C13
A   13
C18
A   14
C17
A   15
C20
A   16
C22
A   17
C23
A   18
C24
A   19
C25
A   20
C27
A   21
C26
A   22
C21
A   23
C16
A   24
C15
A   25
C14
A   26
C8
A   27
C7
A   28
C6
A   29
C19
A   30
C1
A   31
C47
A   32
C46
A   33
C45
A   34
C44
A   35
C43
A   36
C42
A   37
C41
A   38
C40
A   39
C39
A   40
C38
A   41
C37
A   42
C36
A   43
C35
A   44
C34
A   45
C33
A   46
C32
A   47
C31
M  END
