2G8N_F83_A_2001
     RDKit          3D

 40 42  0  0  0  0  0  0  0  0999 V2000
   29.0990   44.7580   22.6830 O   0  0  0  0  0  0  0  0  0  0  0  0
   29.5500   45.4790   21.5340 C   0  0  0  0  0  0  0  0  0  0  0  0
   28.9030   44.8560   20.2970 C   0  0  0  0  0  0  0  0  0  0  0  0
   29.4180   43.4930   20.0970 N   0  0  0  0  0  0  0  0  0  0  0  0
   28.5950   42.7870   19.1030 C   0  0  0  0  0  0  0  0  0  0  0  0
   28.4720   43.6060   17.8120 C   0  0  0  0  0  0  0  0  0  0  0  0
   28.0420   42.9760   16.6550 C   0  0  0  0  0  0  0  0  0  0  0  0
   27.8460   43.7140   15.4880 C   0  0  0  0  0  0  0  0  0  0  0  0
   28.0770   45.0850   15.4840 C   0  0  0  0  0  0  0  0  0  0  0  0
   28.5160   45.7200   16.6450 C   0  0  0  0  0  0  0  0  0  0  0  0
   28.7180   44.9830   17.8050 C   0  0  0  0  0  0  0  0  0  0  0  0
   29.2450   45.6850   19.0580 C   0  0  0  0  0  0  0  0  0  0  0  0
   27.3310   42.9130   14.0240 S   0  0  0  0  0  0  0  0  0  0  0  0
   25.9100   42.7710   14.0030 O   0  0  0  0  0  0  0  0  0  0  0  0
   27.9720   41.5570   13.9310 O   0  0  0  0  0  0  0  0  0  0  0  0
   27.8390   43.8210   12.7710 N   0  0  0  0  0  0  0  0  0  0  0  0
   26.9100   44.6130   11.9490 C   0  0  0  0  0  0  0  0  0  0  0  0
   25.8530   45.3110   12.5270 C   0  0  0  0  0  0  0  0  0  0  0  0
   25.0270   46.0980   11.7300 C   0  0  0  0  0  0  0  0  0  0  0  0
   25.2620   46.1850   10.3560 C   0  0  0  0  0  0  0  0  0  0  0  0
   26.3130   45.4760    9.7820 C   0  0  0  0  0  0  0  0  0  0  0  0
   27.1380   44.6890   10.5800 C   0  0  0  0  0  0  0  0  0  0  0  0
   24.3110   47.2170    9.3510 Cl  0  0  0  0  0  0  0  0  0  0  0  0
   29.3927   45.2276   23.5035 H   0  0  0  0  0  0  0  0  0  0  0  0
   29.2544   46.5353   21.6172 H   0  0  0  0  0  0  0  0  0  0  0  0
   30.6461   45.4264   21.4576 H   0  0  0  0  0  0  0  0  0  0  0  0
   27.8135   44.8311   20.4466 H   0  0  0  0  0  0  0  0  0  0  0  0
   30.3909   43.5413   19.7624 H   0  0  0  0  0  0  0  0  0  0  0  0
   29.0620   41.8183   18.8717 H   0  0  0  0  0  0  0  0  0  0  0  0
   27.5888   42.6386   19.5219 H   0  0  0  0  0  0  0  0  0  0  0  0
   27.8550   41.8920   16.6571 H   0  0  0  0  0  0  0  0  0  0  0  0
   27.9136   45.6682   14.5657 H   0  0  0  0  0  0  0  0  0  0  0  0
   28.7023   46.8041   16.6424 H   0  0  0  0  0  0  0  0  0  0  0  0
   28.7802   46.6783   19.1432 H   0  0  0  0  0  0  0  0  0  0  0  0
   30.3371   45.7929   18.9825 H   0  0  0  0  0  0  0  0  0  0  0  0
   28.8440   43.8416   12.5464 H   0  0  0  0  0  0  0  0  0  0  0  0
   25.6714   45.2407   13.6096 H   0  0  0  0  0  0  0  0  0  0  0  0
   24.1901   46.6508   12.1816 H   0  0  0  0  0  0  0  0  0  0  0  0
   26.4915   45.5376    8.6983 H   0  0  0  0  0  0  0  0  0  0  0  0
   27.9692   44.1280   10.1280 H   0  0  0  0  0  0  0  0  0  0  0  0
  1  2  1  0
  2  3  1  0
  3  4  1  0
  3 12  1  0
  4  5  1  0
  5  6  1  0
  6  7  1  0
  6 11  2  0
  7  8  2  0
  8  9  1  0
  8 13  1  0
  9 10  2  0
 10 11  1  0
 11 12  1  0
 13 14  2  0
 13 15  2  0
 13 16  1  0
 16 17  1  0
 17 18  2  0
 17 22  1  0
 18 19  1  0
 19 20  2  0
 20 21  1  0
 20 23  1  0
 21 22  2  0
  1 24  1  0
  2 25  1  0
  2 26  1  0
  3 27  1  0
  4 28  1  0
  5 29  1  0
  5 30  1  0
  7 31  1  0
  9 32  1  0
 10 33  1  0
 12 34  1  0
 12 35  1  0
 16 36  1  0
 18 37  1  0
 19 38  1  0
 21 39  1  0
 22 40  1  0
A    1
O1
A    2
C1
A    3
C2
A    4
N1
A    5
C3
A    6
C4
A    7
C5
A    8
C6
A    9
C7
A   10
C8
A   11
C9
A   12
C10
A   13
S1
A   14
O2
A   15
O3
A   16
N2
A   17
C11
A   18
C12
A   19
C13
A   20
C14
A   21
C15
A   22
C16
A   23
CL1
M  END
