2OC2_RX3_A_680
     RDKit          3D

 80 84  0  0  0  0  0  0  0  0999 V2000
   42.1820   37.6730   50.8170 C   0  0  0  0  0  0  0  0  0  0  0  0
   43.0560   36.8970   51.1570 O   0  0  0  0  0  0  0  0  0  0  0  0
   42.1130   38.9410   51.5090 O   0  0  0  0  0  0  0  0  0  0  0  0
   43.2880   39.6800   51.8350 C   0  0  0  0  0  0  0  0  0  0  0  0
   42.9220   41.1120   52.1770 C   0  0  0  0  0  0  0  0  0  0  0  0
   42.8590   42.0810   51.1760 C   0  0  0  0  0  0  0  0  0  0  0  0
   42.5270   43.3980   51.5040 C   0  0  0  0  0  0  0  0  0  0  0  0
   42.2510   43.7540   52.8300 C   0  0  0  0  0  0  0  0  0  0  0  0
   42.3130   42.7880   53.8300 C   0  0  0  0  0  0  0  0  0  0  0  0
   42.6460   41.4700   53.5030 C   0  0  0  0  0  0  0  0  0  0  0  0
   42.0020   37.2800   46.8420 O   0  0  0  0  0  0  0  0  0  0  0  0
   42.3530   36.1880   47.8360 P   0  0  0  0  0  0  0  0  0  0  0  0
   43.7220   36.3490   48.4290 O   0  0  0  0  0  0  0  0  0  0  0  0
   41.1440   36.3800   49.0670 C   0  0  0  0  0  0  0  0  0  0  0  0
   41.2760   37.4440   49.8650 N   0  0  0  0  0  0  0  0  0  0  0  0
   39.8850   35.5280   49.1810 C   0  0  0  0  0  0  0  0  0  0  0  0
   38.9570   35.8690   50.3430 C   0  0  0  0  0  0  0  0  0  0  0  0
   38.3610   37.1320   50.4720 C   0  0  0  0  0  0  0  0  0  0  0  0
   37.5200   37.4270   51.5510 C   0  0  0  0  0  0  0  0  0  0  0  0
   37.2480   36.4490   52.5120 C   0  0  0  0  0  0  0  0  0  0  0  0
   37.8310   35.1820   52.3910 C   0  0  0  0  0  0  0  0  0  0  0  0
   38.6770   34.8970   51.3110 C   0  0  0  0  0  0  0  0  0  0  0  0
   41.2400   34.6760   44.7290 C   0  0  0  0  0  0  0  0  0  0  0  0
   40.1570   34.6020   45.3170 O   0  0  0  0  0  0  0  0  0  0  0  0
   42.5570   34.6710   45.4650 C   0  0  0  0  0  0  0  0  0  0  0  0
   43.3230   33.3780   45.2020 C   0  0  0  0  0  0  0  0  0  0  0  0
   43.2460   32.5270   46.4710 C   0  0  0  0  0  0  0  0  0  0  0  0
   42.6010   33.3530   47.5870 C   0  0  0  0  0  0  0  0  0  0  0  0
   42.4550   34.7110   46.9620 C   0  0  0  0  0  0  0  0  0  0  0  0
   41.3740   34.7650   43.4050 N   0  0  0  0  0  0  0  0  0  0  0  0
   40.2560   34.7630   42.4700 C   0  0  0  0  0  0  0  0  0  0  0  0
   39.5550   33.4210   42.3900 C   0  0  0  0  0  0  0  0  0  0  0  0
   38.4630   33.3360   41.7840 O   0  0  0  0  0  0  0  0  0  0  0  0
   40.8310   35.1960   41.1110 C   0  0  0  0  0  0  0  0  0  0  0  0
   41.9690   34.3460   40.5830 C   0  0  0  0  0  0  0  0  0  0  0  0
   41.8570   33.2560   39.7270 C   0  0  0  0  0  0  0  0  0  0  0  0
   43.3300   34.5100   40.8240 C   0  0  0  0  0  0  0  0  0  0  0  0
   43.0970   32.7650   39.4650 N   0  0  0  0  0  0  0  0  0  0  0  0
   44.0180   33.5140   40.1240 C   0  0  0  0  0  0  0  0  0  0  0  0
   44.0110   35.4510   41.6050 C   0  0  0  0  0  0  0  0  0  0  0  0
   45.4220   33.4540   40.2130 C   0  0  0  0  0  0  0  0  0  0  0  0
   45.4050   35.3830   41.6830 C   0  0  0  0  0  0  0  0  0  0  0  0
   46.1080   34.3930   40.9930 C   0  0  0  0  0  0  0  0  0  0  0  0
   40.0740   32.4240   42.9350 O   0  0  0  0  0  0  0  0  0  0  0  0
   43.7832   39.2141   52.6997 H   0  0  0  0  0  0  0  0  0  0  0  0
   43.9676   39.6777   50.9701 H   0  0  0  0  0  0  0  0  0  0  0  0
   43.0701   41.8092   50.1312 H   0  0  0  0  0  0  0  0  0  0  0  0
   42.4820   44.1619   50.7138 H   0  0  0  0  0  0  0  0  0  0  0  0
   41.9865   44.7921   53.0800 H   0  0  0  0  0  0  0  0  0  0  0  0
   42.1007   43.0606   54.8743 H   0  0  0  0  0  0  0  0  0  0  0  0
   42.6917   40.7072   54.2942 H   0  0  0  0  0  0  0  0  0  0  0  0
   43.6567   36.3413   49.4168 H   0  0  0  0  0  0  0  0  0  0  0  0
   40.6040   37.0921   48.4256 H   0  0  0  0  0  0  0  0  0  0  0  0
   40.5812   38.1915   49.7255 H   0  0  0  0  0  0  0  0  0  0  0  0
   39.3140   35.6427   48.2479 H   0  0  0  0  0  0  0  0  0  0  0  0
   40.2340   34.5017   49.3679 H   0  0  0  0  0  0  0  0  0  0  0  0
   38.5578   37.9032   49.7127 H   0  0  0  0  0  0  0  0  0  0  0  0
   37.0732   38.4280   51.6428 H   0  0  0  0  0  0  0  0  0  0  0  0
   36.5807   36.6733   53.3572 H   0  0  0  0  0  0  0  0  0  0  0  0
   37.6245   34.4085   53.1454 H   0  0  0  0  0  0  0  0  0  0  0  0
   39.1268   33.8971   51.2226 H   0  0  0  0  0  0  0  0  0  0  0  0
   43.0460   35.5819   45.0894 H   0  0  0  0  0  0  0  0  0  0  0  0
   42.8672   32.8370   44.3596 H   0  0  0  0  0  0  0  0  0  0  0  0
   44.3705   33.5954   44.9462 H   0  0  0  0  0  0  0  0  0  0  0  0
   42.6385   31.6306   46.2775 H   0  0  0  0  0  0  0  0  0  0  0  0
   44.2577   32.2192   46.7739 H   0  0  0  0  0  0  0  0  0  0  0  0
   41.6211   32.9400   47.8685 H   0  0  0  0  0  0  0  0  0  0  0  0
   43.1922   33.3643   48.5146 H   0  0  0  0  0  0  0  0  0  0  0  0
   41.3674   34.5618   46.8919 H   0  0  0  0  0  0  0  0  0  0  0  0
   42.3262   34.8397   43.0196 H   0  0  0  0  0  0  0  0  0  0  0  0
   39.4735   35.4573   42.8101 H   0  0  0  0  0  0  0  0  0  0  0  0
   40.0156   35.1667   40.3732 H   0  0  0  0  0  0  0  0  0  0  0  0
   41.2518   36.2002   41.2675 H   0  0  0  0  0  0  0  0  0  0  0  0
   40.9147   32.8549   39.3257 H   0  0  0  0  0  0  0  0  0  0  0  0
   43.3046   31.9551   38.8634 H   0  0  0  0  0  0  0  0  0  0  0  0
   43.4582   36.2313   42.1486 H   0  0  0  0  0  0  0  0  0  0  0  0
   45.9772   32.6733   39.6724 H   0  0  0  0  0  0  0  0  0  0  0  0
   45.9532   36.1158   42.2933 H   0  0  0  0  0  0  0  0  0  0  0  0
   47.2050   34.3507   41.0625 H   0  0  0  0  0  0  0  0  0  0  0  0
   40.1069   32.3607   43.9224 H   0  0  0  0  0  0  0  0  0  0  0  0
 44 32  1  0
 32 33  2  0
 32 31  1  0
 31 34  1  0
 31 30  1  0
 34 35  1  0
 35 36  2  0
 35 37  1  0
 37 39  2  0
 37 40  1  0
 40 42  2  0
 42 43  1  0
 43 41  2  0
 41 39  1  0
 39 38  1  0
 38 36  1  0
 30 23  1  0
 23 24  2  0
 23 25  1  0
 25 26  1  0
 25 29  1  0
 26 27  1  0
 27 28  1  0
 28 29  1  0
 29 12  1  0
 12 11  2  0
 12 13  1  0
 12 14  1  0
 14 16  1  0
 14 15  1  0
 16 17  1  0
 17 18  2  0
 17 22  1  0
 22 21  2  0
 21 20  1  0
 20 19  2  0
 19 18  1  0
 15  1  1  0
  1  2  2  0
  1  3  1  0
  3  4  1  0
  4  5  1  0
  5  6  2  0
  5 10  1  0
  6  7  1  0
 10  9  2  0
  9  8  1  0
  8  7  2  0
  4 45  1  0
  4 46  1  0
  6 47  1  0
  7 48  1  0
  8 49  1  0
  9 50  1  0
 10 51  1  0
 13 52  1  0
 14 53  1  0
 15 54  1  0
 16 55  1  0
 16 56  1  0
 18 57  1  0
 19 58  1  0
 20 59  1  0
 21 60  1  0
 22 61  1  0
 25 62  1  0
 26 63  1  0
 26 64  1  0
 27 65  1  0
 27 66  1  0
 28 67  1  0
 28 68  1  0
 29 69  1  0
 30 70  1  0
 31 71  1  0
 34 72  1  0
 34 73  1  0
 36 74  1  0
 38 75  1  0
 40 76  1  0
 41 77  1  0
 42 78  1  0
 43 79  1  0
 44 80  1  0
A    1
C1
A    2
O2
A    3
O1
A    4
C2
A    5
C3
A    6
C4
A    7
C6
A    8
C8
A    9
C7
A   10
C5
A   11
O3
A   12
P1
A   13
O4
A   14
C9
A   15
N1
A   16
C10
A   17
C11
A   18
C12
A   19
C14
A   20
C16
A   21
C15
A   22
C13
A   23
C19
A   24
O5
A   25
C18
A   26
C20
A   27
C21
A   28
C22
A   29
C17
A   30
N2
A   31
C23
A   32
C24
A   33
O6
A   34
C25
A   35
C26
A   36
C27
A   37
C28
A   38
N3
A   39
C29
A   40
C30
A   41
C31
A   42
C32
A   43
C33
A   44
OXT
M  END
