2OCI_TYC_A_401
     RDKit          3D

 25 25  0  0  0  0  0  0  0  0999 V2000
  -25.2190  173.1690  -25.1190 N   0  0  0  0  0  0  0  0  0  0  0  0
  -25.9400  171.8520  -25.1980 C   0  0  0  0  0  0  0  0  0  0  0  0
  -25.6160  171.0180  -23.9750 C   0  0  0  0  0  0  0  0  0  0  0  0
  -25.1480  171.5470  -22.9860 O   0  0  0  0  0  0  0  0  0  0  0  0
  -25.5240  171.1630  -26.5230 C   0  0  0  0  0  0  0  0  0  0  0  0
  -26.0200  171.9430  -27.7180 C   0  0  0  0  0  0  0  0  0  0  0  0
  -25.1830  172.9050  -28.3290 C   0  0  0  0  0  0  0  0  0  0  0  0
  -27.3210  171.7180  -28.2190 C   0  0  0  0  0  0  0  0  0  0  0  0
  -25.6470  173.6440  -29.4390 C   0  0  0  0  0  0  0  0  0  0  0  0
  -27.7880  172.4550  -29.3300 C   0  0  0  0  0  0  0  0  0  0  0  0
  -27.4000  174.1330  -31.0070 O   0  0  0  0  0  0  0  0  0  0  0  0
  -26.9520  173.4210  -29.9410 C   0  0  0  0  0  0  0  0  0  0  0  0
  -25.6540  169.5020  -24.0600 N   0  0  0  0  0  0  0  0  0  0  0  0
  -25.0789  173.4250  -24.1312 H   0  0  0  0  0  0  0  0  0  0  0  0
  -24.3044  173.0883  -25.5858 H   0  0  0  0  0  0  0  0  0  0  0  0
  -27.0317  171.9869  -25.2036 H   0  0  0  0  0  0  0  0  0  0  0  0
  -24.4267  171.0985  -26.5658 H   0  0  0  0  0  0  0  0  0  0  0  0
  -25.9706  170.1581  -26.5506 H   0  0  0  0  0  0  0  0  0  0  0  0
  -24.1691  173.0779  -27.9390 H   0  0  0  0  0  0  0  0  0  0  0  0
  -27.9711  170.9685  -27.7439 H   0  0  0  0  0  0  0  0  0  0  0  0
  -24.9952  174.3924  -29.9134 H   0  0  0  0  0  0  0  0  0  0  0  0
  -28.8011  172.2785  -29.7205 H   0  0  0  0  0  0  0  0  0  0  0  0
  -27.9217  174.9622  -30.8645 H   0  0  0  0  0  0  0  0  0  0  0  0
  -25.6681  168.9381  -23.1982 H   0  0  0  0  0  0  0  0  0  0  0  0
  -25.6656  169.0379  -24.9794 H   0  0  0  0  0  0  0  0  0  0  0  0
  1  2  1  0
  2  3  1  0
  2  5  1  0
  3  4  2  0
  3 13  1  0
  5  6  1  0
  6  7  2  0
  6  8  1  0
  7  9  1  0
  8 10  2  0
  9 12  2  0
 10 12  1  0
 11 12  1  0
  1 14  1  0
  1 15  1  0
  2 16  1  0
  5 17  1  0
  5 18  1  0
  7 19  1  0
  8 20  1  0
  9 21  1  0
 10 22  1  0
 11 23  1  0
 13 24  1  0
 13 25  1  0
A    1
N
A    2
CA
A    3
C
A    4
O
A    5
CB
A    6
CG
A    7
CD1
A    8
CD2
A    9
CE1
A   10
CE2
A   11
OH
A   12
CZ
A   13
NXT
M  END
