2OF4_979_A_101
     RDKit          3D

 55 59  0  0  0  0  0  0  0  0999 V2000
   23.7940   35.5150   82.2490 C   0  0  0  0  0  0  0  0  0  0  0  0
   25.0750   35.3570   81.9170 N   0  0  0  0  0  0  0  0  0  0  0  0
   26.0620   36.1730   82.4300 C   0  0  0  0  0  0  0  0  0  0  0  0
   25.7800   37.1810   83.3690 C   0  0  0  0  0  0  0  0  0  0  0  0
   24.3740   37.2860   83.7100 C   0  0  0  0  0  0  0  0  0  0  0  0
   23.4700   36.4580   83.1500 N   0  0  0  0  0  0  0  0  0  0  0  0
   27.3950   36.1010   82.1700 O   0  0  0  0  0  0  0  0  0  0  0  0
   27.9960   37.0940   82.9060 C   0  0  0  0  0  0  0  0  0  0  0  0
   26.9600   37.8360   83.7520 C   0  0  0  0  0  0  0  0  0  0  0  0
   23.8520   38.1850   84.5990 N   0  0  0  0  0  0  0  0  0  0  0  0
   23.4060   39.4830   84.1250 C   0  0  0  0  0  0  0  0  0  0  0  0
   23.2350   40.4470   85.3080 C   0  0  0  0  0  0  0  0  0  0  0  0
   22.8660   41.8560   84.9380 N   0  0  0  0  0  0  0  0  0  0  0  0
   27.1280   38.9960   84.7050 C   0  0  0  0  0  0  0  0  0  0  0  0
   27.7660   40.2210   84.2560 C   0  0  0  0  0  0  0  0  0  0  0  0
   27.9840   41.2870   85.1840 C   0  0  0  0  0  0  0  0  0  0  0  0
   27.5780   41.1180   86.5610 C   0  0  0  0  0  0  0  0  0  0  0  0
   26.9280   39.9080   87.0130 C   0  0  0  0  0  0  0  0  0  0  0  0
   26.7200   38.8460   86.0890 C   0  0  0  0  0  0  0  0  0  0  0  0
   29.4860   37.2940   82.8560 C   0  0  0  0  0  0  0  0  0  0  0  0
   30.2230   36.7880   81.7100 C   0  0  0  0  0  0  0  0  0  0  0  0
   31.6410   36.9820   81.6450 C   0  0  0  0  0  0  0  0  0  0  0  0
   32.3250   37.6860   82.7180 C   0  0  0  0  0  0  0  0  0  0  0  0
   31.6160   38.1900   83.8500 C   0  0  0  0  0  0  0  0  0  0  0  0
   30.2030   37.9940   83.9120 C   0  0  0  0  0  0  0  0  0  0  0  0
   22.7350   42.7020   86.1910 C   0  0  0  0  0  0  0  0  0  0  0  0
   23.8310   42.4720   83.9170 C   0  0  0  0  0  0  0  0  0  0  0  0
   24.1650   43.0430   86.7980 C   0  0  0  0  0  0  0  0  0  0  0  0
   25.1600   43.0400   84.5150 C   0  0  0  0  0  0  0  0  0  0  0  0
   25.0110   43.7710   85.8140 N   0  0  0  0  0  0  0  0  0  0  0  0
   23.0158   34.8848   81.7937 H   0  0  0  0  0  0  0  0  0  0  0  0
   23.7759   37.9430   85.5973 H   0  0  0  0  0  0  0  0  0  0  0  0
   24.1522   39.8917   83.4277 H   0  0  0  0  0  0  0  0  0  0  0  0
   22.4394   39.3665   83.6131 H   0  0  0  0  0  0  0  0  0  0  0  0
   22.4439   40.0483   85.9601 H   0  0  0  0  0  0  0  0  0  0  0  0
   24.2187   40.5077   85.7965 H   0  0  0  0  0  0  0  0  0  0  0  0
   28.0800   40.3283   83.2072 H   0  0  0  0  0  0  0  0  0  0  0  0
   28.4551   42.2246   84.8538 H   0  0  0  0  0  0  0  0  0  0  0  0
   27.7677   41.9278   87.2809 H   0  0  0  0  0  0  0  0  0  0  0  0
   26.5985   39.8097   88.0579 H   0  0  0  0  0  0  0  0  0  0  0  0
   26.2493   37.9102   86.4246 H   0  0  0  0  0  0  0  0  0  0  0  0
   29.6970   36.2611   80.9002 H   0  0  0  0  0  0  0  0  0  0  0  0
   32.2110   36.5994   80.7855 H   0  0  0  0  0  0  0  0  0  0  0  0
   33.4133   37.8335   82.6560 H   0  0  0  0  0  0  0  0  0  0  0  0
   32.1464   38.7176   84.6564 H   0  0  0  0  0  0  0  0  0  0  0  0
   29.6439   38.3805   84.7769 H   0  0  0  0  0  0  0  0  0  0  0  0
   22.2175   43.6396   85.9399 H   0  0  0  0  0  0  0  0  0  0  0  0
   22.1618   42.1351   86.9393 H   0  0  0  0  0  0  0  0  0  0  0  0
   24.0926   41.6946   83.1840 H   0  0  0  0  0  0  0  0  0  0  0  0
   23.3027   43.3308   83.4773 H   0  0  0  0  0  0  0  0  0  0  0  0
   24.0343   43.6708   87.6918 H   0  0  0  0  0  0  0  0  0  0  0  0
   24.6668   42.0986   87.0554 H   0  0  0  0  0  0  0  0  0  0  0  0
   25.8490   42.1976   84.6751 H   0  0  0  0  0  0  0  0  0  0  0  0
   25.5317   43.7781   83.7890 H   0  0  0  0  0  0  0  0  0  0  0  0
   24.5812   44.6881   85.6269 H   0  0  0  0  0  0  0  0  0  0  0  0
  1  6  2  0
  1  2  1  0
  2  3  2  0
  3  4  1  0
  3  7  1  0
  4  5  2  0
  4  9  1  0
  5  6  1  0
  5 10  1  0
  7  8  1  0
  8  9  2  0
  8 20  1  0
  9 14  1  0
 10 11  1  0
 11 12  1  0
 12 13  1  0
 13 27  1  0
 13 26  1  0
 14 19  1  0
 14 15  2  0
 15 16  1  0
 16 17  2  0
 17 18  1  0
 18 19  2  0
 20 21  2  0
 20 25  1  0
 21 22  1  0
 22 23  2  0
 23 24  1  0
 24 25  2  0
 26 28  1  0
 27 29  1  0
 28 30  1  0
 29 30  1  0
  1 31  1  0
 10 32  1  0
 11 33  1  0
 11 34  1  0
 12 35  1  0
 12 36  1  0
 15 37  1  0
 16 38  1  0
 17 39  1  0
 18 40  1  0
 19 41  1  0
 21 42  1  0
 22 43  1  0
 23 44  1  0
 24 45  1  0
 25 46  1  0
 26 47  1  0
 26 48  1  0
 27 49  1  0
 27 50  1  0
 28 51  1  0
 28 52  1  0
 29 53  1  0
 29 54  1  0
 30 55  1  0
A    1
C1
A    2
N2
A    3
C3
A    4
C4
A    5
C5
A    6
N6
A    7
O8
A    8
C9
A    9
C10
A   10
N11
A   11
C12
A   12
C13
A   13
N16
A   14
C33
A   15
C34
A   16
C35
A   17
C36
A   18
C37
A   19
C38
A   20
C44
A   21
C45
A   22
C46
A   23
C47
A   24
C48
A   25
C49
A   26
C2
A   27
C7
A   28
C11
A   29
C15
A   30
N1
M  END
