2OI0_283_A_1
     RDKit          3D

 37 38  0  0  0  0  0  0  0  0999 V2000
   46.0850   28.4790    2.5260 C   0  0  0  0  0  0  0  0  0  0  0  0
   45.1140   28.8150    1.5370 C   0  0  0  0  0  0  0  0  0  0  0  0
   43.3680   28.5170    3.1750 C   0  0  0  0  0  0  0  0  0  0  0  0
   44.3110   28.1830    4.1440 C   0  0  0  0  0  0  0  0  0  0  0  0
   45.6660   28.1620    3.8390 C   0  0  0  0  0  0  0  0  0  0  0  0
   46.4720   27.8170    4.9230 O   0  0  0  0  0  0  0  0  0  0  0  0
   47.9140   27.7740    4.7600 C   0  0  0  0  0  0  0  0  0  0  0  0
   48.5850   23.9670    3.0390 C   0  0  0  0  0  0  0  0  0  0  0  0
   48.4120   25.3010    3.6900 C   0  0  0  0  0  0  0  0  0  0  0  0
   48.2690   26.3640    4.1920 C   0  0  0  0  0  0  0  0  0  0  0  0
   43.7530   28.8330    1.8840 C   0  0  0  0  0  0  0  0  0  0  0  0
   42.9950   28.7670   -0.4940 O   0  0  0  0  0  0  0  0  0  0  0  0
   41.1530   28.7870    1.1990 O   0  0  0  0  0  0  0  0  0  0  0  0
   42.4650   29.2650    0.7610 S   0  0  0  0  0  0  0  0  0  0  0  0
   40.8840   31.5860    0.4110 C   0  0  0  0  0  0  0  0  0  0  0  0
   42.2240   31.0160    0.7550 N   0  0  0  0  0  0  0  0  0  0  0  0
   42.4910   31.6260    2.0950 C   0  0  0  0  0  0  0  0  0  0  0  0
   41.2000   31.4320    2.8880 C   0  0  0  0  0  0  0  0  0  0  0  0
   41.1580   31.9760    4.5860 S   0  0  0  0  0  0  0  0  0  0  0  0
   40.2900   31.9010    1.7620 C   0  0  0  0  0  0  0  0  0  0  0  0
   47.1544   28.4665    2.2689 H   0  0  0  0  0  0  0  0  0  0  0  0
   45.4282   29.0580    0.5112 H   0  0  0  0  0  0  0  0  0  0  0  0
   42.3005   28.5298    3.4401 H   0  0  0  0  0  0  0  0  0  0  0  0
   43.9790   27.9330    5.1625 H   0  0  0  0  0  0  0  0  0  0  0  0
   48.2380   28.5563    4.0579 H   0  0  0  0  0  0  0  0  0  0  0  0
   48.4222   27.9492    5.7197 H   0  0  0  0  0  0  0  0  0  0  0  0
   48.6855   23.1917    3.8128 H   0  0  0  0  0  0  0  0  0  0  0  0
   47.7077   23.7482    2.4125 H   0  0  0  0  0  0  0  0  0  0  0  0
   49.4891   23.9792    2.4125 H   0  0  0  0  0  0  0  0  0  0  0  0
   40.9865   32.4966   -0.1975 H   0  0  0  0  0  0  0  0  0  0  0  0
   40.2630   30.9018   -0.1859 H   0  0  0  0  0  0  0  0  0  0  0  0
   43.3291   31.1149    2.5914 H   0  0  0  0  0  0  0  0  0  0  0  0
   42.7690   32.6873    2.0155 H   0  0  0  0  0  0  0  0  0  0  0  0
   40.9043   30.4533    3.2939 H   0  0  0  0  0  0  0  0  0  0  0  0
   41.2419   30.8892    5.4159 H   0  0  0  0  0  0  0  0  0  0  0  0
   40.1470   32.9884    1.8460 H   0  0  0  0  0  0  0  0  0  0  0  0
   39.3282   31.3745    1.8502 H   0  0  0  0  0  0  0  0  0  0  0  0
  1  2  2  0
  1  5  1  0
  2 11  1  0
  3 11  2  0
  3  4  1  0
  4  5  2  0
  5  6  1  0
  6  7  1  0
  7 10  1  0
  8  9  1  0
  9 10  3  0
 11 14  1  0
 12 14  2  0
 13 14  2  0
 14 16  1  0
 15 16  1  0
 15 20  1  0
 16 17  1  0
 17 18  1  0
 18 20  1  0
 18 19  1  0
  1 21  1  0
  2 22  1  0
  3 23  1  0
  4 24  1  0
  7 25  1  0
  7 26  1  0
  8 27  1  0
  8 28  1  0
  8 29  1  0
 15 30  1  0
 15 31  1  0
 17 32  1  0
 17 33  1  0
 18 34  1  0
 19 35  1  0
 20 36  1  0
 20 37  1  0
A    1
C
A    2
C1
A    3
C2
A    4
C3
A    5
C4
A    6
O
A    7
C5
A    8
C6
A    9
C7
A   10
C8
A   11
C9
A   12
O1
A   13
O2
A   14
S
A   15
C10
A   16
N
A   17
C11
A   18
C12
A   19
S1
A   20
C13
M  END
