2OJ9_BMI_A_301
     RDKit          3D

 49 53  0  0  0  0  0  0  0  0999 V2000
    3.1460   -4.5250   18.4410 C   0  0  0  0  0  0  0  0  0  0  0  0
    2.7560   -5.6360   17.8830 O   0  0  0  0  0  0  0  0  0  0  0  0
    4.9310   -3.2670   21.6820 N   0  0  0  0  0  0  0  0  0  0  0  0
    2.8980   -3.3310   17.9320 N   0  0  0  0  0  0  0  0  0  0  0  0
    4.2240   -3.3630   20.4270 C   0  0  0  0  0  0  0  0  0  0  0  0
    3.9510   -2.1660   19.7420 C   0  0  0  0  0  0  0  0  0  0  0  0
    3.2890   -2.2380   18.5760 C   0  0  0  0  0  0  0  0  0  0  0  0
    6.1460   -2.3190   21.8520 C   0  0  0  0  0  0  0  0  0  0  0  0
    8.4580   -4.0300   24.2910 C   0  0  0  0  0  0  0  0  0  0  0  0
    7.5420   -3.1670   23.7480 C   0  0  0  0  0  0  0  0  0  0  0  0
    9.0360   -4.9650   23.4230 C   0  0  0  0  0  0  0  0  0  0  0  0
    7.2110   -3.2340   22.4120 C   0  0  0  0  0  0  0  0  0  0  0  0
    7.7620   -4.1500   21.5760 N   0  0  0  0  0  0  0  0  0  0  0  0
    8.6570   -5.0060   22.0630 C   0  0  0  0  0  0  0  0  0  0  0  0
    3.8190   -4.5490   19.7500 C   0  0  0  0  0  0  0  0  0  0  0  0
    5.9250  -12.1070   22.5390 C   0  0  0  0  0  0  0  0  0  0  0  0
    5.5650   -9.8540   21.5280 C   0  0  0  0  0  0  0  0  0  0  0  0
    5.0230   -9.2590   20.4490 C   0  0  0  0  0  0  0  0  0  0  0  0
    5.9050  -11.2140   21.5020 N   0  0  0  0  0  0  0  0  0  0  0  0
    6.3110  -11.8600   20.4050 C   0  0  0  0  0  0  0  0  0  0  0  0
    6.6000  -13.1510   20.6500 N   0  0  0  0  0  0  0  0  0  0  0  0
    6.3520  -13.3410   21.9890 C   0  0  0  0  0  0  0  0  0  0  0  0
    4.7380   -7.8890   20.5150 C   0  0  0  0  0  0  0  0  0  0  0  0
    4.6790   -5.9430   21.4200 N   0  0  0  0  0  0  0  0  0  0  0  0
    4.1620   -5.8220   20.3210 C   0  0  0  0  0  0  0  0  0  0  0  0
    4.2050   -6.9530   19.6740 N   0  0  0  0  0  0  0  0  0  0  0  0
    5.0030   -7.2570   21.5870 C   0  0  0  0  0  0  0  0  0  0  0  0
    5.5310   -7.8880   22.6180 C   0  0  0  0  0  0  0  0  0  0  0  0
    5.7990   -9.1700   22.6200 C   0  0  0  0  0  0  0  0  0  0  0  0
    5.7950   -7.0590   23.8340 C   0  0  0  0  0  0  0  0  0  0  0  0
    4.6221   -3.8397   22.4804 H   0  0  0  0  0  0  0  0  0  0  0  0
    2.4004   -3.2482   17.0340 H   0  0  0  0  0  0  0  0  0  0  0  0
    4.2712   -1.1961   20.1504 H   0  0  0  0  0  0  0  0  0  0  0  0
    3.0416   -1.2785   18.0983 H   0  0  0  0  0  0  0  0  0  0  0  0
    6.4561   -1.8956   20.8853 H   0  0  0  0  0  0  0  0  0  0  0  0
    5.9347   -1.4525   22.4958 H   0  0  0  0  0  0  0  0  0  0  0  0
    8.7262   -3.9902   25.3570 H   0  0  0  0  0  0  0  0  0  0  0  0
    7.0644   -2.4103   24.3877 H   0  0  0  0  0  0  0  0  0  0  0  0
    9.7892   -5.6712   23.8025 H   0  0  0  0  0  0  0  0  0  0  0  0
    9.1081   -5.7562   21.3969 H   0  0  0  0  0  0  0  0  0  0  0  0
    5.6624  -11.9070   23.5883 H   0  0  0  0  0  0  0  0  0  0  0  0
    4.8089   -9.8351   19.5367 H   0  0  0  0  0  0  0  0  0  0  0  0
    6.3989  -11.3898   19.4144 H   0  0  0  0  0  0  0  0  0  0  0  0
    6.4655  -14.2873   22.5382 H   0  0  0  0  0  0  0  0  0  0  0  0
    4.8416   -5.1870   22.1004 H   0  0  0  0  0  0  0  0  0  0  0  0
    6.2098   -9.6594   23.5154 H   0  0  0  0  0  0  0  0  0  0  0  0
    5.6038   -7.6594   24.7357 H   0  0  0  0  0  0  0  0  0  0  0  0
    6.8435   -6.7264   23.8305 H   0  0  0  0  0  0  0  0  0  0  0  0
    5.1319   -6.1813   23.8305 H   0  0  0  0  0  0  0  0  0  0  0  0
  1  2  2  0
  1  4  1  0
  1 15  1  0
  3  5  1  0
  3  8  1  0
  4  7  1  0
  5  6  1  0
  5 15  2  0
  6  7  2  0
  8 12  1  0
  9 11  2  0
  9 10  1  0
 10 12  2  0
 11 14  1  0
 12 13  1  0
 13 14  2  0
 15 25  1  0
 16 19  1  0
 16 22  2  0
 17 18  2  0
 17 19  1  0
 17 29  1  0
 18 23  1  0
 19 20  1  0
 20 21  2  0
 21 22  1  0
 23 26  1  0
 23 27  2  0
 24 25  1  0
 24 27  1  0
 25 26  2  0
 27 28  1  0
 28 29  2  0
 28 30  1  0
  3 31  1  0
  4 32  1  0
  6 33  1  0
  7 34  1  0
  8 35  1  0
  8 36  1  0
  9 37  1  0
 10 38  1  0
 11 39  1  0
 14 40  1  0
 16 41  1  0
 18 42  1  0
 20 43  1  0
 22 44  1  0
 24 45  1  0
 29 46  1  0
 30 47  1  0
 30 48  1  0
 30 49  1  0
A    1
C
A    2
O
A    3
N
A    4
N1
A    5
C1
A    6
C2
A    7
C3
A    8
C4
A    9
C5
A   10
C6
A   11
C7
A   12
C8
A   13
N2
A   14
C9
A   15
C10
A   16
C11
A   17
C12
A   18
C13
A   19
N3
A   20
C14
A   21
N4
A   22
C15
A   23
C16
A   24
N5
A   25
C17
A   26
N6
A   27
C18
A   28
C19
A   29
C20
A   30
C21
M  END
