2OJG_19A_A_360
     RDKit          3D

 37 39  0  0  0  0  0  0  0  0999 V2000
   -9.1600   13.4150   41.2390 C   0  0  0  0  0  0  0  0  0  0  0  0
  -10.6260   13.2630   41.1770 N   0  0  0  0  0  0  0  0  0  0  0  0
  -11.4360   14.2250   41.9340 C   0  0  0  0  0  0  0  0  0  0  0  0
  -11.1760   12.2240   40.4120 C   0  0  0  0  0  0  0  0  0  0  0  0
  -10.4080   11.4850   39.8100 O   0  0  0  0  0  0  0  0  0  0  0  0
  -12.6640   11.9330   40.2690 C   0  0  0  0  0  0  0  0  0  0  0  0
  -13.7000   12.3210   41.0960 C   0  0  0  0  0  0  0  0  0  0  0  0
  -14.9110   11.8230   40.5940 C   0  0  0  0  0  0  0  0  0  0  0  0
  -14.5920   11.1230   39.4520 C   0  0  0  0  0  0  0  0  0  0  0  0
  -13.2440   11.1880   39.2590 N   0  0  0  0  0  0  0  0  0  0  0  0
  -16.2930   12.0050   41.1940 C   0  0  0  0  0  0  0  0  0  0  0  0
  -17.2510   11.0900   41.1270 N   0  0  0  0  0  0  0  0  0  0  0  0
  -18.3840   11.5640   41.7800 N   0  0  0  0  0  0  0  0  0  0  0  0
  -18.1310   12.7850   42.2610 C   0  0  0  0  0  0  0  0  0  0  0  0
  -16.8370   13.1240   41.9330 C   0  0  0  0  0  0  0  0  0  0  0  0
  -16.1830   14.4280   42.3110 C   0  0  0  0  0  0  0  0  0  0  0  0
  -15.4870   15.2460   41.3680 C   0  0  0  0  0  0  0  0  0  0  0  0
  -14.8960   16.4610   41.7790 C   0  0  0  0  0  0  0  0  0  0  0  0
  -15.0050   16.8690   43.1270 C   0  0  0  0  0  0  0  0  0  0  0  0
  -15.6960   16.0630   44.0740 C   0  0  0  0  0  0  0  0  0  0  0  0
  -16.2800   14.8590   43.6720 C   0  0  0  0  0  0  0  0  0  0  0  0
   -8.8390   13.4483   42.2906 H   0  0  0  0  0  0  0  0  0  0  0  0
   -8.6813   12.5617   40.7363 H   0  0  0  0  0  0  0  0  0  0  0  0
   -8.8666   14.3484   40.7363 H   0  0  0  0  0  0  0  0  0  0  0  0
  -11.2938   14.0562   43.0116 H   0  0  0  0  0  0  0  0  0  0  0  0
  -11.1235   15.2484   41.6788 H   0  0  0  0  0  0  0  0  0  0  0  0
  -12.4976   14.0914   41.6788 H   0  0  0  0  0  0  0  0  0  0  0  0
  -13.5919   12.9270   42.0076 H   0  0  0  0  0  0  0  0  0  0  0  0
  -15.3073   10.5976   38.8021 H   0  0  0  0  0  0  0  0  0  0  0  0
  -12.7348   10.7486   38.4789 H   0  0  0  0  0  0  0  0  0  0  0  0
  -19.2746   11.0558   41.8772 H   0  0  0  0  0  0  0  0  0  0  0  0
  -18.8371   13.4132   42.8239 H   0  0  0  0  0  0  0  0  0  0  0  0
  -15.4114   14.9279   40.3177 H   0  0  0  0  0  0  0  0  0  0  0  0
  -14.3541   17.0859   41.0538 H   0  0  0  0  0  0  0  0  0  0  0  0
  -14.5515   17.8186   43.4474 H   0  0  0  0  0  0  0  0  0  0  0  0
  -15.7705   16.3876   45.1224 H   0  0  0  0  0  0  0  0  0  0  0  0
  -16.8170   14.2394   44.4054 H   0  0  0  0  0  0  0  0  0  0  0  0
  1  2  1  0
  2  4  1  0
  2  3  1  0
  4  5  2  0
  4  6  1  0
  6 10  1  0
  6  7  2  0
  7  8  1  0
  8  9  2  0
  8 11  1  0
  9 10  1  0
 11 12  2  0
 11 15  1  0
 12 13  1  0
 13 14  1  0
 14 15  2  0
 15 16  1  0
 16 17  2  0
 16 21  1  0
 17 18  1  0
 18 19  2  0
 19 20  1  0
 20 21  2  0
  1 22  1  0
  1 23  1  0
  1 24  1  0
  3 25  1  0
  3 26  1  0
  3 27  1  0
  7 28  1  0
  9 29  1  0
 10 30  1  0
 13 31  1  0
 14 32  1  0
 17 33  1  0
 18 34  1  0
 19 35  1  0
 20 36  1  0
 21 37  1  0
A    1
C1
A    2
N2
A    3
C3
A    4
C4
A    5
O5
A    6
C6
A    7
C7
A    8
C8
A    9
C9
A   10
N10
A   11
C12
A   12
N13
A   13
N14
A   14
C16
A   15
C17
A   16
C18
A   17
C19
A   18
C20
A   19
C21
A   20
C22
A   21
C23
M  END
