2OJJ_82A_A_360
     RDKit          3D

 48 51  0  0  0  0  0  0  0  0999 V2000
  -15.3650   10.7910   38.9080 C   0  0  0  0  0  0  0  0  0  0  0  0
  -17.0040   11.9200   40.5070 C   0  0  0  0  0  0  0  0  0  0  0  0
  -19.1210   11.5370   41.0460 N   0  0  0  0  0  0  0  0  0  0  0  0
  -18.8210   12.7250   41.5930 C   0  0  0  0  0  0  0  0  0  0  0  0
  -17.5190   13.0330   41.3010 C   0  0  0  0  0  0  0  0  0  0  0  0
  -16.8320   14.3010   41.7590 C   0  0  0  0  0  0  0  0  0  0  0  0
  -16.8760   14.6680   43.1410 C   0  0  0  0  0  0  0  0  0  0  0  0
  -16.2430   15.8460   43.5840 C   0  0  0  0  0  0  0  0  0  0  0  0
  -15.5620   16.6710   42.6650 C   0  0  0  0  0  0  0  0  0  0  0  0
  -15.5100   16.3220   41.2980 C   0  0  0  0  0  0  0  0  0  0  0  0
  -16.1420   15.1490   40.8420 C   0  0  0  0  0  0  0  0  0  0  0  0
  -10.1420   14.9500   39.0730 C   0  0  0  0  0  0  0  0  0  0  0  0
  -11.0190   17.1410   38.3980 C   0  0  0  0  0  0  0  0  0  0  0  0
  -10.0620   17.2120   37.3650 C   0  0  0  0  0  0  0  0  0  0  0  0
  -10.7570   14.0480   42.3490 O   0  0  0  0  0  0  0  0  0  0  0  0
   -9.6880   14.0930   41.3990 C   0  0  0  0  0  0  0  0  0  0  0  0
  -10.2010   13.7330   39.9910 C   0  0  0  0  0  0  0  0  0  0  0  0
  -11.6050   13.2710   40.0360 N   0  0  0  0  0  0  0  0  0  0  0  0
  -12.0370   12.1940   39.3230 C   0  0  0  0  0  0  0  0  0  0  0  0
  -11.2670   11.5630   38.6150 O   0  0  0  0  0  0  0  0  0  0  0  0
  -13.4560   11.8120   39.3730 C   0  0  0  0  0  0  0  0  0  0  0  0
  -14.4120   12.3460   40.1910 C   0  0  0  0  0  0  0  0  0  0  0  0
  -15.6370   11.6980   39.8960 C   0  0  0  0  0  0  0  0  0  0  0  0
  -14.0580   10.8570   38.5930 N   0  0  0  0  0  0  0  0  0  0  0  0
  -17.9950   11.0550   40.3820 N   0  0  0  0  0  0  0  0  0  0  0  0
  -14.6630   17.3360   40.1770 Cl  0  0  0  0  0  0  0  0  0  0  0  0
  -11.0620   16.0180   39.2470 C   0  0  0  0  0  0  0  0  0  0  0  0
  -10.0380   18.2980   36.5590 F   0  0  0  0  0  0  0  0  0  0  0  0
   -9.1350   16.1460   37.1820 C   0  0  0  0  0  0  0  0  0  0  0  0
   -7.9440   16.2140   35.9090 Cl  0  0  0  0  0  0  0  0  0  0  0  0
   -9.1810   15.0170   38.0390 C   0  0  0  0  0  0  0  0  0  0  0  0
  -16.0985   10.1149   38.4445 H   0  0  0  0  0  0  0  0  0  0  0  0
  -20.0322   11.0606   41.1069 H   0  0  0  0  0  0  0  0  0  0  0  0
  -19.5093   13.3501   42.1807 H   0  0  0  0  0  0  0  0  0  0  0  0
  -17.4065   14.0275   43.8610 H   0  0  0  0  0  0  0  0  0  0  0  0
  -16.2799   16.1227   44.6480 H   0  0  0  0  0  0  0  0  0  0  0  0
  -15.0693   17.5902   43.0147 H   0  0  0  0  0  0  0  0  0  0  0  0
  -16.1036   14.8855   39.7747 H   0  0  0  0  0  0  0  0  0  0  0  0
  -11.7338   17.9647   38.5412 H   0  0  0  0  0  0  0  0  0  0  0  0
  -10.3844   14.0637   43.2661 H   0  0  0  0  0  0  0  0  0  0  0  0
   -9.2625   15.1072   41.3808 H   0  0  0  0  0  0  0  0  0  0  0  0
   -8.9189   13.3641   41.6944 H   0  0  0  0  0  0  0  0  0  0  0  0
   -9.5549   12.9292   39.6083 H   0  0  0  0  0  0  0  0  0  0  0  0
  -12.2783   13.7804   40.6259 H   0  0  0  0  0  0  0  0  0  0  0  0
  -14.2583   13.1352   40.9417 H   0  0  0  0  0  0  0  0  0  0  0  0
  -13.5854   10.2826   37.8805 H   0  0  0  0  0  0  0  0  0  0  0  0
  -11.8126   15.9678   40.0496 H   0  0  0  0  0  0  0  0  0  0  0  0
   -8.4673   14.1918   37.8986 H   0  0  0  0  0  0  0  0  0  0  0  0
  1 24  1  0
  1 23  2  0
  2 23  1  0
  2 25  2  0
  2  5  1  0
  3 25  1  0
  3  4  1  0
  4  5  2  0
  5  6  1  0
  6 11  1  0
  6  7  2  0
  7  8  1  0
  8  9  2  0
  9 10  1  0
 10 26  1  0
 10 11  2  0
 12 31  1  0
 12 27  2  0
 12 17  1  0
 13 14  2  0
 13 27  1  0
 14 28  1  0
 14 29  1  0
 15 16  1  0
 16 17  1  0
 17 18  1  0
 18 19  1  0
 19 20  2  0
 19 21  1  0
 21 24  1  0
 21 22  2  0
 22 23  1  0
 29 30  1  0
 29 31  2  0
  1 32  1  0
  3 33  1  0
  4 34  1  0
  7 35  1  0
  8 36  1  0
  9 37  1  0
 11 38  1  0
 13 39  1  0
 15 40  1  0
 16 41  1  0
 16 42  1  0
 17 43  1  0
 18 44  1  0
 22 45  1  0
 24 46  1  0
 27 47  1  0
 31 48  1  0
A    1
C11
A    2
C14
A    3
N16
A    4
C18
A    5
C19
A    6
C20
A    7
C21
A    8
C22
A    9
C23
A   10
C24
A   11
C26
A   12
C27
A   13
C29
A   14
C30
A   15
O1
A   16
C2
A   17
C3
A   18
N5
A   19
C6
A   20
O7
A   21
C8
A   22
C9
A   23
C10
A   24
N12
A   25
N15
A   26
CL25
A   27
C28
A   28
F31
A   29
C32
A   30
CL33
A   31
C34
M  END
