2OLE_KR2_A_1001
     RDKit          3D

 54 56  0  0  0  0  0  0  0  0999 V2000
   -5.4750    1.1060   -6.2450 C   0  0  0  0  0  0  0  0  0  0  0  0
   -5.9740    0.5210   -5.0840 C   0  0  0  0  0  0  0  0  0  0  0  0
   -5.3750    0.7910   -3.8550 C   0  0  0  0  0  0  0  0  0  0  0  0
   -4.2710    1.6380   -3.7920 C   0  0  0  0  0  0  0  0  0  0  0  0
   -3.7700    2.2190   -4.9540 C   0  0  0  0  0  0  0  0  0  0  0  0
   -4.3790    1.9630   -6.1800 C   0  0  0  0  0  0  0  0  0  0  0  0
   -4.0080    2.8210   -7.3950 C   0  0  0  0  0  0  0  0  0  0  0  0
   -2.5800    2.8910   -7.4840 O   0  0  0  0  0  0  0  0  0  0  0  0
   -4.5980    4.1320   -7.0760 N   0  0  0  0  0  0  0  0  0  0  0  0
   -5.3410    4.6290   -8.2460 C   0  0  0  0  0  0  0  0  0  0  0  0
   -5.0780    6.0960   -8.5930 C   0  0  0  0  0  0  0  0  0  0  0  0
   -3.6960    6.3320   -9.2070 C   0  0  0  0  0  0  0  0  0  0  0  0
   -2.5940    6.5150   -8.1580 C   0  0  0  0  0  0  0  0  0  0  0  0
   -2.3730    5.2730   -7.2870 C   0  0  0  0  0  0  0  0  0  0  0  0
   -3.6160    4.9300   -6.5750 N   0  0  0  0  0  0  0  0  0  0  0  0
   -3.9800    5.6090   -5.4930 C   0  0  0  0  0  0  0  0  0  0  0  0
   -5.2630    5.6880   -5.0560 O   0  0  0  0  0  0  0  0  0  0  0  0
   -2.9320    6.4220   -4.7380 C   0  0  0  0  0  0  0  0  0  0  0  0
   -3.3090    6.5330   -3.2610 C   0  0  0  0  0  0  0  0  0  0  0  0
   -2.5420    7.6660   -2.7260 N   0  0  0  0  0  0  0  0  0  0  0  0
   -2.8660    5.3930   -2.3450 C   0  0  0  0  0  0  0  0  0  0  0  0
   -3.4910    5.1700   -1.1220 C   0  0  0  0  0  0  0  0  0  0  0  0
   -4.5280    5.9890   -0.7030 C   0  0  0  0  0  0  0  0  0  0  0  0
   -5.0210    5.9430    0.5990 C   0  0  0  0  0  0  0  0  0  0  0  0
   -6.1310    6.6440    0.8930 F   0  0  0  0  0  0  0  0  0  0  0  0
   -4.4370    5.0680    1.5100 C   0  0  0  0  0  0  0  0  0  0  0  0
   -4.6000    5.2210    2.8390 F   0  0  0  0  0  0  0  0  0  0  0  0
   -3.4590    4.1870    1.0700 C   0  0  0  0  0  0  0  0  0  0  0  0
   -2.9900    4.2170   -0.2390 C   0  0  0  0  0  0  0  0  0  0  0  0
   -1.9950    3.3780   -0.5720 F   0  0  0  0  0  0  0  0  0  0  0  0
   -5.9472    0.8909   -7.2150 H   0  0  0  0  0  0  0  0  0  0  0  0
   -6.8408   -0.1541   -5.1370 H   0  0  0  0  0  0  0  0  0  0  0  0
   -5.7734    0.3360   -2.9362 H   0  0  0  0  0  0  0  0  0  0  0  0
   -3.7944    1.8481   -2.8231 H   0  0  0  0  0  0  0  0  0  0  0  0
   -2.8926    2.8806   -4.9036 H   0  0  0  0  0  0  0  0  0  0  0  0
   -5.0617    4.0156   -9.1154 H   0  0  0  0  0  0  0  0  0  0  0  0
   -6.4085    4.5561   -7.9907 H   0  0  0  0  0  0  0  0  0  0  0  0
   -5.8414    6.4274   -9.3124 H   0  0  0  0  0  0  0  0  0  0  0  0
   -5.1201    6.6667   -7.6536 H   0  0  0  0  0  0  0  0  0  0  0  0
   -3.4401    5.4665   -9.8358 H   0  0  0  0  0  0  0  0  0  0  0  0
   -3.7513    7.2633   -9.7897 H   0  0  0  0  0  0  0  0  0  0  0  0
   -1.6530    6.7490   -8.6774 H   0  0  0  0  0  0  0  0  0  0  0  0
   -2.9124    7.3288   -7.4899 H   0  0  0  0  0  0  0  0  0  0  0  0
   -2.0740    4.4287   -7.9255 H   0  0  0  0  0  0  0  0  0  0  0  0
   -1.5819    5.4831   -6.5522 H   0  0  0  0  0  0  0  0  0  0  0  0
   -1.9545    5.9253   -4.8266 H   0  0  0  0  0  0  0  0  0  0  0  0
   -2.8825    7.4318   -5.1713 H   0  0  0  0  0  0  0  0  0  0  0  0
   -4.4079    6.5823   -3.2582 H   0  0  0  0  0  0  0  0  0  0  0  0
   -2.5610    7.6379   -1.6966 H   0  0  0  0  0  0  0  0  0  0  0  0
   -1.5672    7.6058   -3.0532 H   0  0  0  0  0  0  0  0  0  0  0  0
   -2.9757    4.4652   -2.9256 H   0  0  0  0  0  0  0  0  0  0  0  0
   -1.8542    5.7038   -2.0455 H   0  0  0  0  0  0  0  0  0  0  0  0
   -4.9741    6.6951   -1.4188 H   0  0  0  0  0  0  0  0  0  0  0  0
   -3.0455    3.4484    1.7724 H   0  0  0  0  0  0  0  0  0  0  0  0
  1  2  2  0
  1  6  1  0
  2  3  1  0
  3  4  2  0
  4  5  1  0
  5  6  2  0
  6  7  1  0
  7  9  1  0
  7  8  2  0
  9 15  1  0
  9 10  1  0
 10 11  1  0
 11 12  1  0
 12 13  1  0
 13 14  1  0
 14 15  1  0
 15 16  1  0
 16 18  1  0
 16 17  2  0
 18 19  1  0
 19 20  1  0
 19 21  1  0
 21 22  1  0
 22 23  2  0
 22 29  1  0
 23 24  1  0
 24 25  1  0
 24 26  2  0
 26 27  1  0
 26 28  1  0
 28 29  2  0
 29 30  1  0
  1 31  1  0
  2 32  1  0
  3 33  1  0
  4 34  1  0
  5 35  1  0
 10 36  1  0
 10 37  1  0
 11 38  1  0
 11 39  1  0
 12 40  1  0
 12 41  1  0
 13 42  1  0
 13 43  1  0
 14 44  1  0
 14 45  1  0
 18 46  1  0
 18 47  1  0
 19 48  1  0
 20 49  1  0
 20 50  1  0
 21 51  1  0
 21 52  1  0
 23 53  1  0
 28 54  1  0
A    1
CAY
A    2
CBC
A    3
CBB
A    4
CBA
A    5
CAZ
A    6
CAX
A    7
CAW
A    8
OAA
A    9
NAR
A   10
CAV
A   11
CDD
A   12
CNN
A   13
CAT
A   14
CAS
A   15
NAQ
A   16
CAO
A   17
OAP
A   18
CAN
A   19
CAL
A   20
NAM
A   21
CAK
A   22
CAG
A   23
CAH
A   24
CAC
A   25
FAB
A   26
CAD
A   27
FAI
A   28
CAE
A   29
CAF
A   30
FAJ
M  END
