2ONC_SY1_A_800
     RDKit          3D

 48 51  0  0  0  0  0  0  0  0999 V2000
  -43.4770  -20.3300   19.0220 N   0  0  0  0  0  0  0  0  0  0  0  0
  -45.8340  -21.2380   16.3980 C   0  0  0  0  0  0  0  0  0  0  0  0
  -44.8550  -20.7110   15.3710 C   0  0  0  0  0  0  0  0  0  0  0  0
  -43.6780  -19.3870   16.9680 C   0  0  0  0  0  0  0  0  0  0  0  0
  -43.7380  -18.7240   14.6910 C   0  0  0  0  0  0  0  0  0  0  0  0
  -43.7220  -16.6570   13.4990 C   0  0  0  0  0  0  0  0  0  0  0  0
  -42.6830  -15.0430   11.4940 C   0  0  0  0  0  0  0  0  0  0  0  0
  -42.7010  -17.1230   12.6830 C   0  0  0  0  0  0  0  0  0  0  0  0
  -40.6500  -20.7220   14.1100 C   0  0  0  0  0  0  0  0  0  0  0  0
  -40.0220  -21.6200   13.2430 C   0  0  0  0  0  0  0  0  0  0  0  0
  -38.6320  -21.7740   13.2280 C   0  0  0  0  0  0  0  0  0  0  0  0
  -38.4630  -20.1260   14.9670 C   0  0  0  0  0  0  0  0  0  0  0  0
  -40.3650  -19.1370   15.8070 C   0  0  0  0  0  0  0  0  0  0  0  0
  -40.8610  -18.4350   16.5820 N   0  0  0  0  0  0  0  0  0  0  0  0
  -39.8520  -19.9760   14.9780 C   0  0  0  0  0  0  0  0  0  0  0  0
  -37.8420  -21.0220   14.0950 C   0  0  0  0  0  0  0  0  0  0  0  0
  -42.1750  -20.6120   14.0800 C   0  0  0  0  0  0  0  0  0  0  0  0
  -42.7290  -19.2440   13.9170 N   0  0  0  0  0  0  0  0  0  0  0  0
  -44.4670  -19.3490   15.7490 N   0  0  0  0  0  0  0  0  0  0  0  0
  -45.1670  -21.2750   17.7760 C   0  0  0  0  0  0  0  0  0  0  0  0
  -44.5320  -19.9080   18.1250 C   0  0  0  0  0  0  0  0  0  0  0  0
  -42.2010  -18.4920   12.9300 C   0  0  0  0  0  0  0  0  0  0  0  0
  -41.2800  -18.9250   12.1940 O   0  0  0  0  0  0  0  0  0  0  0  0
  -44.2010  -17.4680   14.4650 N   0  0  0  0  0  0  0  0  0  0  0  0
  -42.1720  -16.3280   11.6720 C   0  0  0  0  0  0  0  0  0  0  0  0
  -43.7080  -14.5680   12.3210 C   0  0  0  0  0  0  0  0  0  0  0  0
  -44.2360  -15.3730   13.3230 C   0  0  0  0  0  0  0  0  0  0  0  0
  -43.7855  -20.2066   19.9969 H   0  0  0  0  0  0  0  0  0  0  0  0
  -43.2598  -21.3227   18.8536 H   0  0  0  0  0  0  0  0  0  0  0  0
  -46.7143  -20.5795   16.4355 H   0  0  0  0  0  0  0  0  0  0  0  0
  -46.1449  -22.2549   16.1165 H   0  0  0  0  0  0  0  0  0  0  0  0
  -43.9642  -21.3557   15.3435 H   0  0  0  0  0  0  0  0  0  0  0  0
  -45.3223  -20.7054   14.3752 H   0  0  0  0  0  0  0  0  0  0  0  0
  -42.8147  -20.0532   16.8231 H   0  0  0  0  0  0  0  0  0  0  0  0
  -43.3283  -18.3713   17.2048 H   0  0  0  0  0  0  0  0  0  0  0  0
  -42.2786  -14.3988   10.6994 H   0  0  0  0  0  0  0  0  0  0  0  0
  -40.6358  -22.2205   12.5555 H   0  0  0  0  0  0  0  0  0  0  0  0
  -38.1637  -22.4870   12.5335 H   0  0  0  0  0  0  0  0  0  0  0  0
  -37.8488  -19.5284   15.6566 H   0  0  0  0  0  0  0  0  0  0  0  0
  -36.7476  -21.1324   14.0924 H   0  0  0  0  0  0  0  0  0  0  0  0
  -42.5395  -21.2241   13.2419 H   0  0  0  0  0  0  0  0  0  0  0  0
  -42.5149  -20.9521   15.0694 H   0  0  0  0  0  0  0  0  0  0  0  0
  -45.9237  -21.5237   18.5347 H   0  0  0  0  0  0  0  0  0  0  0  0
  -44.3720  -22.0350   17.7588 H   0  0  0  0  0  0  0  0  0  0  0  0
  -45.2953  -19.1815   18.4405 H   0  0  0  0  0  0  0  0  0  0  0  0
  -41.3662  -16.7056   11.0254 H   0  0  0  0  0  0  0  0  0  0  0  0
  -44.0983  -13.5498   12.1764 H   0  0  0  0  0  0  0  0  0  0  0  0
  -45.0470  -15.0029   13.9674 H   0  0  0  0  0  0  0  0  0  0  0  0
  1 21  1  0
  2  3  1  0
  2 20  1  0
  3 19  1  0
  4 19  1  0
  4 21  1  0
  5 18  1  0
  5 24  2  0
  5 19  1  0
  6  8  2  0
  6 27  1  0
  6 24  1  0
  7 25  2  0
  7 26  1  0
  8 25  1  0
  8 22  1  0
  9 10  2  0
  9 17  1  0
  9 15  1  0
 10 11  1  0
 11 16  2  0
 12 16  1  0
 12 15  2  0
 13 15  1  0
 13 14  3  0
 17 18  1  0
 18 22  1  0
 20 21  1  0
 22 23  2  0
 26 27  2  0
  1 28  1  0
  1 29  1  0
  2 30  1  0
  2 31  1  0
  3 32  1  0
  3 33  1  0
  4 34  1  0
  4 35  1  0
  7 36  1  0
 10 37  1  0
 11 38  1  0
 12 39  1  0
 16 40  1  0
 17 41  1  0
 17 42  1  0
 20 43  1  0
 20 44  1  0
 21 45  1  0
 25 46  1  0
 26 47  1  0
 27 48  1  0
A    1
N1
A    2
C4
A    3
C5
A    4
C7
A    5
C8
A    6
C10
A    7
C13
A    8
C15
A    9
C20
A   10
C21
A   11
C22
A   12
C24
A   13
C26
A   14
N27
A   15
C25
A   16
C23
A   17
C19
A   18
N18
A   19
N6
A   20
C3
A   21
C2
A   22
C16
A   23
O17
A   24
N9
A   25
C14
A   26
C12
A   27
C11
M  END
