2OOH_OX3_B_200
     RDKit          3D

 35 36  0  0  0  0  0  0  0  0999 V2000
  -50.1040   23.0020   33.6280 C   0  0  0  0  0  0  0  0  0  0  0  0
  -48.7710   22.8570   33.7920 O   0  0  0  0  0  0  0  0  0  0  0  0
  -50.9770   21.9120   33.8680 C   0  0  0  0  0  0  0  0  0  0  0  0
  -52.3760   22.0640   33.6820 C   0  0  0  0  0  0  0  0  0  0  0  0
  -52.8970   23.3090   33.2550 C   0  0  0  0  0  0  0  0  0  0  0  0
  -52.0230   24.4020   33.0230 C   0  0  0  0  0  0  0  0  0  0  0  0
  -50.6300   24.2540   33.2080 C   0  0  0  0  0  0  0  0  0  0  0  0
  -54.2250   23.6290   32.8910 C   0  0  0  0  0  0  0  0  0  0  0  0
  -54.7850   24.0620   31.7960 N   0  0  0  0  0  0  0  0  0  0  0  0
  -54.1130   24.3510   30.6250 O   0  0  0  0  0  0  0  0  0  0  0  0
  -54.0400   25.6480   30.1510 C   0  0  0  0  0  0  0  0  0  0  0  0
  -52.9840   26.0790   29.7830 O   0  0  0  0  0  0  0  0  0  0  0  0
  -55.2960   26.5050   30.1080 C   0  0  0  0  0  0  0  0  0  0  0  0
  -56.4040   25.7710   29.2900 C   0  0  0  0  0  0  0  0  0  0  0  0
  -57.6840   26.6400   29.2690 C   0  0  0  0  0  0  0  0  0  0  0  0
  -57.3810   28.0010   28.6130 C   0  0  0  0  0  0  0  0  0  0  0  0
  -56.2910   28.7340   29.4090 C   0  0  0  0  0  0  0  0  0  0  0  0
  -54.9970   27.8840   29.4340 C   0  0  0  0  0  0  0  0  0  0  0  0
  -48.3860   22.8151   34.7031 H   0  0  0  0  0  0  0  0  0  0  0  0
  -50.5695   20.9455   34.1993 H   0  0  0  0  0  0  0  0  0  0  0  0
  -53.0529   21.2173   33.8690 H   0  0  0  0  0  0  0  0  0  0  0  0
  -52.4319   25.3699   32.6974 H   0  0  0  0  0  0  0  0  0  0  0  0
  -49.9555   25.1040   33.0278 H   0  0  0  0  0  0  0  0  0  0  0  0
  -54.9430   23.4801   33.7109 H   0  0  0  0  0  0  0  0  0  0  0  0
  -55.6377   26.6741   31.1398 H   0  0  0  0  0  0  0  0  0  0  0  0
  -56.0534   25.6081   28.2602 H   0  0  0  0  0  0  0  0  0  0  0  0
  -56.6252   24.8002   29.7575 H   0  0  0  0  0  0  0  0  0  0  0  0
  -58.4665   26.1236   28.6936 H   0  0  0  0  0  0  0  0  0  0  0  0
  -58.0288   26.8032   30.3007 H   0  0  0  0  0  0  0  0  0  0  0  0
  -57.0334   27.8396   27.5819 H   0  0  0  0  0  0  0  0  0  0  0  0
  -58.2962   28.6112   28.6057 H   0  0  0  0  0  0  0  0  0  0  0  0
  -56.0816   29.7036   28.9336 H   0  0  0  0  0  0  0  0  0  0  0  0
  -56.6401   28.8937   30.4399 H   0  0  0  0  0  0  0  0  0  0  0  0
  -54.2214   28.4126   30.0076 H   0  0  0  0  0  0  0  0  0  0  0  0
  -54.6434   27.7217   28.4051 H   0  0  0  0  0  0  0  0  0  0  0  0
  1  7  2  0
  1  2  1  0
  1  3  1  0
  3  4  2  0
  4  5  1  0
  5  6  2  0
  5  8  1  0
  6  7  1  0
  8  9  2  0
  9 10  1  0
 10 11  1  0
 11 13  1  0
 11 12  2  0
 13 14  1  0
 13 18  1  0
 14 15  1  0
 15 16  1  0
 16 17  1  0
 17 18  1  0
  2 19  1  0
  3 20  1  0
  4 21  1  0
  6 22  1  0
  7 23  1  0
  8 24  1  0
 13 25  1  0
 14 26  1  0
 14 27  1  0
 15 28  1  0
 15 29  1  0
 16 30  1  0
 16 31  1  0
 17 32  1  0
 17 33  1  0
 18 34  1  0
 18 35  1  0
A    1
C1
A    2
O1
A    3
C2
A    4
C3
A    5
C4
A    6
C5
A    7
C6
A    8
C7
A    9
N8
A   10
O9
A   11
C10
A   12
O10
A   13
C11
A   14
C12
A   15
C13
A   16
C14
A   17
C15
A   18
C16
M  END
