2OOW_OX4_A_200
     RDKit          3D

 35 36  0  0  0  0  0  0  0  0999 V2000
   28.8750   26.0790   19.7270 O   0  0  0  0  0  0  0  0  0  0  0  0
   29.2540   25.2020   18.7560 C   0  0  0  0  0  0  0  0  0  0  0  0
   29.5290   23.8570   19.0930 C   0  0  0  0  0  0  0  0  0  0  0  0
   29.4180   23.4640   20.3420 F   0  0  0  0  0  0  0  0  0  0  0  0
   29.9220   22.9340   18.0850 C   0  0  0  0  0  0  0  0  0  0  0  0
   30.0350   23.3670   16.7330 C   0  0  0  0  0  0  0  0  0  0  0  0
   29.7560   24.7280   16.4010 C   0  0  0  0  0  0  0  0  0  0  0  0
   29.3700   25.6380   17.4070 C   0  0  0  0  0  0  0  0  0  0  0  0
   30.4380   22.3970   15.6570 C   0  0  0  0  0  0  0  0  0  0  0  0
   29.6890   21.3480   15.4470 N   0  0  0  0  0  0  0  0  0  0  0  0
   29.9720   20.3920   14.4560 O   0  0  0  0  0  0  0  0  0  0  0  0
   30.6420   19.2250   14.7380 C   0  0  0  0  0  0  0  0  0  0  0  0
   31.8360   19.2110   14.6820 O   0  0  0  0  0  0  0  0  0  0  0  0
   29.8770   17.9590   15.1150 C   0  0  0  0  0  0  0  0  0  0  0  0
   30.6080   16.6990   14.5350 C   0  0  0  0  0  0  0  0  0  0  0  0
   29.8310   15.4040   14.9290 C   0  0  0  0  0  0  0  0  0  0  0  0
   28.3870   15.4670   14.3540 C   0  0  0  0  0  0  0  0  0  0  0  0
   27.6490   16.7170   14.9290 C   0  0  0  0  0  0  0  0  0  0  0  0
   28.4290   18.0140   14.5350 C   0  0  0  0  0  0  0  0  0  0  0  0
   28.9797   25.8367   20.6812 H   0  0  0  0  0  0  0  0  0  0  0  0
   30.1382   21.8882   18.3489 H   0  0  0  0  0  0  0  0  0  0  0  0
   29.8424   25.0672   15.3582 H   0  0  0  0  0  0  0  0  0  0  0  0
   29.1584   26.6860   17.1482 H   0  0  0  0  0  0  0  0  0  0  0  0
   31.3453   22.5675   15.0589 H   0  0  0  0  0  0  0  0  0  0  0  0
   29.8330   17.8913   16.2120 H   0  0  0  0  0  0  0  0  0  0  0  0
   30.6543   16.7770   13.4387 H   0  0  0  0  0  0  0  0  0  0  0  0
   31.6262   16.6496   14.9483 H   0  0  0  0  0  0  0  0  0  0  0  0
   30.3507   14.5259   14.5182 H   0  0  0  0  0  0  0  0  0  0  0  0
   29.7847   15.3248   16.0252 H   0  0  0  0  0  0  0  0  0  0  0  0
   28.4324   15.5408   13.2574 H   0  0  0  0  0  0  0  0  0  0  0  0
   27.8399   14.5563   14.6391 H   0  0  0  0  0  0  0  0  0  0  0  0
   26.6304   16.7628   14.5162 H   0  0  0  0  0  0  0  0  0  0  0  0
   27.5990   16.6396   16.0251 H   0  0  0  0  0  0  0  0  0  0  0  0
   27.9061   18.8921   14.9419 H   0  0  0  0  0  0  0  0  0  0  0  0
   28.4802   18.0872   13.4386 H   0  0  0  0  0  0  0  0  0  0  0  0
  1  2  1  0
  2  8  2  0
  2  3  1  0
  3  5  2  0
  3  4  1  0
  5  6  1  0
  6  9  1  0
  6  7  2  0
  7  8  1  0
  9 10  2  0
 10 11  1  0
 11 12  1  0
 12 13  2  0
 12 14  1  0
 14 15  1  0
 14 19  1  0
 15 16  1  0
 16 17  1  0
 17 18  1  0
 18 19  1  0
  1 20  1  0
  5 21  1  0
  7 22  1  0
  8 23  1  0
  9 24  1  0
 14 25  1  0
 15 26  1  0
 15 27  1  0
 16 28  1  0
 16 29  1  0
 17 30  1  0
 17 31  1  0
 18 32  1  0
 18 33  1  0
 19 34  1  0
 19 35  1  0
A    1
O1
A    2
C1
A    3
C2
A    4
F2
A    5
C3
A    6
C4
A    7
C5
A    8
C6
A    9
C7
A   10
N8
A   11
O9
A   12
C10
A   13
O10
A   14
C11
A   15
C12
A   16
C13
A   17
C14
A   18
C15
A   19
C16
M  END
