2OOZ_OX5_A_200
     RDKit          3D

 17 17  0  0  0  0  0  0  0  0999 V2000
   26.9660   36.1730   28.9960 O   0  0  0  0  0  0  0  0  0  0  0  0
   27.0530   37.0070   27.9390 C   0  0  0  0  0  0  0  0  0  0  0  0
   27.0980   38.4130   28.1510 C   0  0  0  0  0  0  0  0  0  0  0  0
   27.1920   39.2790   27.0550 C   0  0  0  0  0  0  0  0  0  0  0  0
   27.2440   38.7470   25.7310 C   0  0  0  0  0  0  0  0  0  0  0  0
   27.1960   37.3470   25.5220 C   0  0  0  0  0  0  0  0  0  0  0  0
   27.1010   36.4790   26.6240 C   0  0  0  0  0  0  0  0  0  0  0  0
   27.3450   39.6420   24.6020 C   0  0  0  0  0  0  0  0  0  0  0  0
   26.4310   40.4930   24.4480 N   0  0  0  0  0  0  0  0  0  0  0  0
   26.4690   41.3810   23.4100 O   0  0  0  0  0  0  0  0  0  0  0  0
   27.0038   36.5351   29.9166 H   0  0  0  0  0  0  0  0  0  0  0  0
   27.0591   38.8184   29.1728 H   0  0  0  0  0  0  0  0  0  0  0  0
   27.2257   40.3670   27.2135 H   0  0  0  0  0  0  0  0  0  0  0  0
   27.2329   36.9400   24.5007 H   0  0  0  0  0  0  0  0  0  0  0  0
   27.0639   35.3910   26.4661 H   0  0  0  0  0  0  0  0  0  0  0  0
   28.1910   39.5819   23.9015 H   0  0  0  0  0  0  0  0  0  0  0  0
   26.5106   42.3533   23.5916 H   0  0  0  0  0  0  0  0  0  0  0  0
  1  2  1  0
  2  3  2  0
  2  7  1  0
  3  4  1  0
  4  5  2  0
  5  8  1  0
  5  6  1  0
  6  7  2  0
  8  9  2  0
  9 10  1  0
  1 11  1  0
  3 12  1  0
  4 13  1  0
  6 14  1  0
  7 15  1  0
  8 16  1  0
 10 17  1  0
A    1
O1
A    2
C1
A    3
C2
A    4
C3
A    5
C4
A    6
C5
A    7
C6
A    8
C7
A    9
N8
A   10
O9
M  END
