2G72_F21_A_4001
     RDKit          3D

 40 42  0  0  0  0  0  0  0  0999 V2000
   25.4190   45.1080   12.8050 C   0  0  0  0  0  0  0  0  0  0  0  0
   24.7240   45.4900   11.4930 C   0  0  0  0  0  0  0  0  0  0  0  0
   25.9940   46.0790   10.3160 S   0  0  0  0  0  0  0  0  0  0  0  0
   27.3250   44.8260   10.3970 C   0  0  0  0  0  0  0  0  0  0  0  0
   27.6210   44.5470   11.8750 C   0  0  0  0  0  0  0  0  0  0  0  0
   26.3920   44.0430   12.5110 N   0  0  0  0  0  0  0  0  0  0  0  0
   26.7330   43.1380   13.8220 S   0  0  0  0  0  0  0  0  0  0  0  0
   25.5190   42.4960   14.2160 O   0  0  0  0  0  0  0  0  0  0  0  0
   27.7170   42.0840   13.4090 O   0  0  0  0  0  0  0  0  0  0  0  0
   27.4210   43.9450   15.2130 C   0  0  0  0  0  0  0  0  0  0  0  0
   27.7660   43.1620   16.3120 C   0  0  0  0  0  0  0  0  0  0  0  0
   28.3510   43.7290   17.4410 C   0  0  0  0  0  0  0  0  0  0  0  0
   28.5980   42.8650   18.6840 C   0  0  0  0  0  0  0  0  0  0  0  0
   29.4230   43.5410   19.7010 N   0  0  0  0  0  0  0  0  0  0  0  0
   29.0200   44.9410   19.9030 C   0  0  0  0  0  0  0  0  0  0  0  0
   29.7940   45.5770   21.0600 C   0  0  0  0  0  0  0  0  0  0  0  0
   29.1530   45.2880   22.2540 F   0  0  0  0  0  0  0  0  0  0  0  0
   29.3000   45.7550   18.6390 C   0  0  0  0  0  0  0  0  0  0  0  0
   28.5990   45.1000   17.4480 C   0  0  0  0  0  0  0  0  0  0  0  0
   28.2490   45.8870   16.3540 C   0  0  0  0  0  0  0  0  0  0  0  0
   27.6570   45.3150   15.2330 C   0  0  0  0  0  0  0  0  0  0  0  0
   25.9385   45.9838   13.2210 H   0  0  0  0  0  0  0  0  0  0  0  0
   24.6802   44.7581   13.5410 H   0  0  0  0  0  0  0  0  0  0  0  0
   24.2098   44.6117   11.0757 H   0  0  0  0  0  0  0  0  0  0  0  0
   23.9821   46.2814   11.6752 H   0  0  0  0  0  0  0  0  0  0  0  0
   26.9978   43.9007    9.9003 H   0  0  0  0  0  0  0  0  0  0  0  0
   28.2284   45.1936    9.8883 H   0  0  0  0  0  0  0  0  0  0  0  0
   28.4177   43.7930   11.9579 H   0  0  0  0  0  0  0  0  0  0  0  0
   27.9521   45.4699   12.3737 H   0  0  0  0  0  0  0  0  0  0  0  0
   27.5734   42.0793   16.2876 H   0  0  0  0  0  0  0  0  0  0  0  0
   27.6264   42.6111   19.1330 H   0  0  0  0  0  0  0  0  0  0  0  0
   29.1466   41.9690   18.3580 H   0  0  0  0  0  0  0  0  0  0  0  0
   29.3281   43.0364   20.5939 H   0  0  0  0  0  0  0  0  0  0  0  0
   27.9448   44.9455   20.1351 H   0  0  0  0  0  0  0  0  0  0  0  0
   30.8164   45.1720   21.0846 H   0  0  0  0  0  0  0  0  0  0  0  0
   29.8367   46.6671   20.9194 H   0  0  0  0  0  0  0  0  0  0  0  0
   28.9207   46.7791   18.7704 H   0  0  0  0  0  0  0  0  0  0  0  0
   30.3841   45.7874   18.4552 H   0  0  0  0  0  0  0  0  0  0  0  0
   28.4422   46.9697   16.3765 H   0  0  0  0  0  0  0  0  0  0  0  0
   27.3785   45.9398   14.3715 H   0  0  0  0  0  0  0  0  0  0  0  0
  1  2  1  0
  1  6  1  0
  2  3  1  0
  3  4  1  0
  4  5  1  0
  5  6  1  0
  6  7  1  0
  7  8  2  0
  7  9  2  0
  7 10  1  0
 10 11  2  0
 10 21  1  0
 11 12  1  0
 12 13  1  0
 12 19  2  0
 13 14  1  0
 14 15  1  0
 15 16  1  0
 15 18  1  0
 16 17  1  0
 18 19  1  0
 19 20  1  0
 20 21  2  0
  1 22  1  0
  1 23  1  0
  2 24  1  0
  2 25  1  0
  4 26  1  0
  4 27  1  0
  5 28  1  0
  5 29  1  0
 11 30  1  0
 13 31  1  0
 13 32  1  0
 14 33  1  0
 15 34  1  0
 16 35  1  0
 16 36  1  0
 18 37  1  0
 18 38  1  0
 20 39  1  0
 21 40  1  0
A    1
C12
A    2
C13
A    3
S2
A    4
C15
A    5
C14
A    6
N1
A    7
S1
A    8
O2
A    9
O1
A   10
C7
A   11
C8
A   12
C9
A   13
C1
A   14
N2
A   15
C3
A   16
C11
A   17
F1
A   18
C4
A   19
C10
A   20
C5
A   21
C6
M  END
