2OPM_NI9_A_901
     RDKit          3D

 29 29  0  0  0  0  0  0  0  0999 V2000
   14.7890   77.6270   25.2620 C   0  0  0  0  0  0  0  0  0  0  0  0
   14.4490   76.8490   22.8620 O   0  0  0  0  0  0  0  0  0  0  0  0
   13.6830   77.3370   26.2010 O   0  0  0  0  0  0  0  0  0  0  0  0
   14.3610   78.6990   24.1930 C   0  0  0  0  0  0  0  0  0  0  0  0
   16.5210   75.9290   23.9460 O   0  0  0  0  0  0  0  0  0  0  0  0
   15.2860   80.9740   24.0530 C   0  0  0  0  0  0  0  0  0  0  0  0
   16.3090   78.1660   26.2620 P   0  0  0  0  0  0  0  0  0  0  0  0
   15.0250   76.2000   24.1000 P   0  0  0  0  0  0  0  0  0  0  0  0
   15.9590   79.4690   27.0020 O   0  0  0  0  0  0  0  0  0  0  0  0
   14.3000   74.9450   24.5630 O   0  0  0  0  0  0  0  0  0  0  0  0
   16.4960   76.9830   27.2340 O   0  0  0  0  0  0  0  0  0  0  0  0
   17.5420   78.3540   25.3330 O   0  0  0  0  0  0  0  0  0  0  0  0
   14.4500   80.1100   24.6700 N   0  0  0  0  0  0  0  0  0  0  0  0
   16.2270   83.1750   23.8900 F   0  0  0  0  0  0  0  0  0  0  0  0
   14.6270   82.6610   25.5290 C   0  0  0  0  0  0  0  0  0  0  0  0
   13.6790   80.4700   25.7260 C   0  0  0  0  0  0  0  0  0  0  0  0
   13.7580   81.7760   26.1550 C   0  0  0  0  0  0  0  0  0  0  0  0
   15.3910   82.2890   24.4580 C   0  0  0  0  0  0  0  0  0  0  0  0
   13.8159   77.5623   23.1275 H   0  0  0  0  0  0  0  0  0  0  0  0
   14.0093   77.4226   27.1317 H   0  0  0  0  0  0  0  0  0  0  0  0
   15.0145   78.5901   23.3149 H   0  0  0  0  0  0  0  0  0  0  0  0
   13.3020   78.5099   23.9632 H   0  0  0  0  0  0  0  0  0  0  0  0
   16.9366   75.8537   24.8414 H   0  0  0  0  0  0  0  0  0  0  0  0
   15.8966   80.6211   23.2088 H   0  0  0  0  0  0  0  0  0  0  0  0
   16.0004   79.3149   27.9791 H   0  0  0  0  0  0  0  0  0  0  0  0
   18.3548   78.4779   25.8844 H   0  0  0  0  0  0  0  0  0  0  0  0
   14.7026   83.6915   25.9063 H   0  0  0  0  0  0  0  0  0  0  0  0
   13.0154   79.7458   26.2212 H   0  0  0  0  0  0  0  0  0  0  0  0
   13.1333   82.1185   26.9931 H   0  0  0  0  0  0  0  0  0  0  0  0
  1  8  1  0
  1  3  1  0
  1  4  1  0
  1  7  1  0
  2  8  1  0
  4 13  1  0
  5  8  1  0
  6 13  2  0
  6 18  1  0
  7 11  2  0
  7 12  1  0
  7  9  1  0
  8 10  2  0
 13 16  1  0
 14 18  1  0
 15 18  2  0
 15 17  1  0
 16 17  2  0
  2 19  1  0
  3 20  1  0
  4 21  1  0
  4 22  1  0
  5 23  1  0
  6 24  1  0
  9 25  1  0
 12 26  1  0
 15 27  1  0
 16 28  1  0
 17 29  1  0
M  CHG  1  13   1
A    1
C1
A    2
O1
A    3
O2
A    4
C2
A    5
O3
A    6
C3
A    7
P1
A    8
P2
A    9
O4
A   10
O5
A   11
O6
A   12
O7
A   13
N
A   14
F
A   15
C4
A   16
C5
A   17
C6
A   18
C7
M  END
