1E3V_DXC_A_801
     RDKit          3D

 68 71  0  0  0  0  0  0  0  0999 V2000
    4.8530   -3.5000   84.8790 C   0  0  0  0  0  0  0  0  0  0  0  0
    3.8190   -4.1940   83.9850 C   0  0  0  0  0  0  0  0  0  0  0  0
    2.4560   -4.3450   84.6990 C   0  0  0  0  0  0  0  0  0  0  0  0
    2.5860   -5.0840   86.0690 C   0  0  0  0  0  0  0  0  0  0  0  0
    3.6330   -4.3160   86.9230 C   0  0  0  0  0  0  0  0  0  0  0  0
    5.0020   -4.2480   86.2280 C   0  0  0  0  0  0  0  0  0  0  0  0
    1.4380   -5.0580   83.7720 C   0  0  0  0  0  0  0  0  0  0  0  0
    1.7720   -6.5490   83.5890 C   0  0  0  0  0  0  0  0  0  0  0  0
    1.9340   -7.2910   84.9280 C   0  0  0  0  0  0  0  0  0  0  0  0
    2.9990   -6.5880   85.8200 C   0  0  0  0  0  0  0  0  0  0  0  0
    2.3590   -8.7630   84.7180 C   0  0  0  0  0  0  0  0  0  0  0  0
    2.5170   -9.5400   86.0420 C   0  0  0  0  0  0  0  0  0  0  0  0
    3.5660   -8.8710   86.9500 C   0  0  0  0  0  0  0  0  0  0  0  0
    3.1550   -7.3830   87.1570 C   0  0  0  0  0  0  0  0  0  0  0  0
    1.5170   -9.6960   83.8400 C   0  0  0  0  0  0  0  0  0  0  0  0
    1.8870  -11.1160   84.3090 C   0  0  0  0  0  0  0  0  0  0  0  0
    2.9060  -10.9290   85.4540 C   0  0  0  0  0  0  0  0  0  0  0  0
    1.2480   -5.0530   86.8530 C   0  0  0  0  0  0  0  0  0  0  0  0
    2.9680  -12.1840   86.3940 C   0  0  0  0  0  0  0  0  0  0  0  0
    4.8440   -8.9610   86.3340 O   0  0  0  0  0  0  0  0  0  0  0  0
    6.0610   -3.3990   84.1510 O   0  0  0  0  0  0  0  0  0  0  0  0
    1.1760   -9.6220   86.8150 C   0  0  0  0  0  0  0  0  0  0  0  0
    3.3500  -13.4460   85.5780 C   0  0  0  0  0  0  0  0  0  0  0  0
    4.7310  -13.4140   84.9230 C   0  0  0  0  0  0  0  0  0  0  0  0
    4.6260  -14.0460   83.5410 C   0  0  0  0  0  0  0  0  0  0  0  0
    4.7740  -13.4660   82.5160 O   0  0  0  0  0  0  0  0  0  0  0  0
    4.3460  -15.3480   83.6050 O   0  0  0  0  0  0  0  0  0  0  0  0
    3.9780  -12.0070   87.5370 C   0  0  0  0  0  0  0  0  0  0  0  0
    4.5284   -2.4836   85.1467 H   0  0  0  0  0  0  0  0  0  0  0  0
    3.6790   -3.5968   83.0719 H   0  0  0  0  0  0  0  0  0  0  0  0
    4.1935   -5.1999   83.7443 H   0  0  0  0  0  0  0  0  0  0  0  0
    2.0829   -3.3341   84.9200 H   0  0  0  0  0  0  0  0  0  0  0  0
    3.2699   -3.2918   87.0940 H   0  0  0  0  0  0  0  0  0  0  0  0
    3.7598   -4.8560   87.8729 H   0  0  0  0  0  0  0  0  0  0  0  0
    5.3722   -5.2674   86.0443 H   0  0  0  0  0  0  0  0  0  0  0  0
    5.7160   -3.7119   86.8705 H   0  0  0  0  0  0  0  0  0  0  0  0
    0.4340   -4.9703   84.2129 H   0  0  0  0  0  0  0  0  0  0  0  0
    1.4819   -4.5759   82.7842 H   0  0  0  0  0  0  0  0  0  0  0  0
    0.9596   -7.0242   83.0196 H   0  0  0  0  0  0  0  0  0  0  0  0
    2.7327   -6.6111   83.0568 H   0  0  0  0  0  0  0  0  0  0  0  0
    0.9530   -7.2699   85.4253 H   0  0  0  0  0  0  0  0  0  0  0  0
    3.9748   -6.5790   85.3123 H   0  0  0  0  0  0  0  0  0  0  0  0
    3.2921   -8.5559   84.1736 H   0  0  0  0  0  0  0  0  0  0  0  0
    3.6164   -9.3736   87.9272 H   0  0  0  0  0  0  0  0  0  0  0  0
    3.9263   -6.8903   87.7672 H   0  0  0  0  0  0  0  0  0  0  0  0
    2.1715   -7.3842   87.6496 H   0  0  0  0  0  0  0  0  0  0  0  0
    0.4440   -9.5055   83.9897 H   0  0  0  0  0  0  0  0  0  0  0  0
    1.7139   -9.5478   82.7680 H   0  0  0  0  0  0  0  0  0  0  0  0
    0.9935  -11.6438   84.6738 H   0  0  0  0  0  0  0  0  0  0  0  0
    2.3060  -11.7170   83.4884 H   0  0  0  0  0  0  0  0  0  0  0  0
    3.9674  -10.8934   85.1674 H   0  0  0  0  0  0  0  0  0  0  0  0
    1.4558   -5.0578   87.9332 H   0  0  0  0  0  0  0  0  0  0  0  0
    0.6905   -4.1417   86.5909 H   0  0  0  0  0  0  0  0  0  0  0  0
    0.6489   -5.9375   86.5909 H   0  0  0  0  0  0  0  0  0  0  0  0
    1.9671  -12.3011   86.8350 H   0  0  0  0  0  0  0  0  0  0  0  0
    5.5441   -9.0103   87.0322 H   0  0  0  0  0  0  0  0  0  0  0  0
    6.8218   -3.3354   84.7813 H   0  0  0  0  0  0  0  0  0  0  0  0
    1.3750   -9.6098   87.8968 H   0  0  0  0  0  0  0  0  0  0  0  0
    0.5458   -8.7607   86.5484 H   0  0  0  0  0  0  0  0  0  0  0  0
    0.6555  -10.5537   86.5484 H   0  0  0  0  0  0  0  0  0  0  0  0
    3.3169  -14.3111   86.2567 H   0  0  0  0  0  0  0  0  0  0  0  0
    2.6256  -13.5019   84.7521 H   0  0  0  0  0  0  0  0  0  0  0  0
    5.0732  -12.3728   84.8297 H   0  0  0  0  0  0  0  0  0  0  0  0
    5.4526  -13.9715   85.5382 H   0  0  0  0  0  0  0  0  0  0  0  0
    4.2507  -15.7911   84.4851 H   0  0  0  0  0  0  0  0  0  0  0  0
    3.4588  -12.0980   88.5025 H   0  0  0  0  0  0  0  0  0  0  0  0
    4.7544  -12.7828   87.4637 H   0  0  0  0  0  0  0  0  0  0  0  0
    4.4443  -11.0134   87.4637 H   0  0  0  0  0  0  0  0  0  0  0  0
  1  2  1  0
  1  6  1  0
  1 21  1  0
  2  3  1  0
  3  4  1  0
  3  7  1  0
  4  5  1  0
  4 10  1  0
  4 18  1  0
  5  6  1  0
  7  8  1  0
  8  9  1  0
  9 10  1  0
  9 11  1  0
 10 14  1  0
 11 12  1  0
 11 15  1  0
 12 13  1  0
 12 17  1  0
 12 22  1  0
 13 14  1  0
 13 20  1  0
 15 16  1  0
 16 17  1  0
 17 19  1  0
 19 23  1  0
 19 28  1  0
 23 24  1  0
 24 25  1  0
 25 26  2  0
 25 27  1  0
  1 29  1  0
  2 30  1  0
  2 31  1  0
  3 32  1  0
  5 33  1  0
  5 34  1  0
  6 35  1  0
  6 36  1  0
  7 37  1  0
  7 38  1  0
  8 39  1  0
  8 40  1  0
  9 41  1  0
 10 42  1  0
 11 43  1  0
 13 44  1  0
 14 45  1  0
 14 46  1  0
 15 47  1  0
 15 48  1  0
 16 49  1  0
 16 50  1  0
 17 51  1  0
 18 52  1  0
 18 53  1  0
 18 54  1  0
 19 55  1  0
 20 56  1  0
 21 57  1  0
 22 58  1  0
 22 59  1  0
 22 60  1  0
 23 61  1  0
 23 62  1  0
 24 63  1  0
 24 64  1  0
 27 65  1  0
 28 66  1  0
 28 67  1  0
 28 68  1  0
A    1
C1
A    2
C2
A    3
C3
A    4
C4
A    5
C5
A    6
C6
A    7
C7
A    8
C8
A    9
C9
A   10
C10
A   11
C11
A   12
C12
A   13
C13
A   14
C14
A   15
C15
A   16
C16
A   17
C17
A   18
C18
A   19
C19
A   20
O1
A   21
O2
A   22
C20
A   23
C21
A   24
C22
A   25
C23
A   26
O3
A   27
O4
A   28
C24
M  END
