2ORP_R86_A_601
     RDKit          3D

 72 75  0  0  0  0  0  0  0  0999 V2000
   67.4220   -4.6070   52.7380 C   0  0  0  0  0  0  0  0  0  0  0  0
   68.7260   -4.6930   53.3220 O   0  0  0  0  0  0  0  0  0  0  0  0
   69.6900   -4.3140   52.4280 C   0  0  0  0  0  0  0  0  0  0  0  0
   70.2610   -5.2680   51.5700 C   0  0  0  0  0  0  0  0  0  0  0  0
   71.2850   -4.9030   50.6810 C   0  0  0  0  0  0  0  0  0  0  0  0
   70.1420   -2.9810   52.3880 C   0  0  0  0  0  0  0  0  0  0  0  0
   71.1710   -2.6150   51.4980 C   0  0  0  0  0  0  0  0  0  0  0  0
   71.7460   -3.5800   50.6470 C   0  0  0  0  0  0  0  0  0  0  0  0
   72.9080   -3.1880   49.7250 C   0  0  0  0  0  0  0  0  0  0  0  0
   74.2210   -3.8670   50.1440 C   0  0  0  0  0  0  0  0  0  0  0  0
   74.4970   -5.0500   49.2970 N   0  0  0  0  0  0  0  0  0  0  0  0
   75.0090   -6.1900   49.7760 C   0  0  0  0  0  0  0  0  0  0  0  0
   75.3240   -6.3620   50.9530 O   0  0  0  0  0  0  0  0  0  0  0  0
   75.2520   -7.2830   48.7120 C   0  0  0  0  0  0  0  0  0  0  0  0
   74.7740   -8.7260   49.0520 C   0  0  0  0  0  0  0  0  0  0  0  0
   73.2580   -8.9210   48.8020 C   0  0  0  0  0  0  0  0  0  0  0  0
   75.2170   -9.1860   50.4120 N   0  0  0  0  0  0  0  0  0  0  0  0
   76.4510   -9.7280   50.5570 C   0  0  0  0  0  0  0  0  0  0  0  0
   77.1850   -9.8320   49.5700 O   0  0  0  0  0  0  0  0  0  0  0  0
   76.9450  -10.2090   51.9380 C   0  0  0  0  0  0  0  0  0  0  0  0
   78.0780   -9.3010   52.4200 C   0  0  0  0  0  0  0  0  0  0  0  0
   77.4200  -11.6610   51.8360 C   0  0  0  0  0  0  0  0  0  0  0  0
   74.3070   -9.0630   51.5940 C   0  0  0  0  0  0  0  0  0  0  0  0
   72.9640   -9.6940   51.2530 C   0  0  0  0  0  0  0  0  0  0  0  0
   72.4170   -9.0460   50.0350 N   0  0  0  0  0  0  0  0  0  0  0  0
   71.0590   -8.6230   50.0200 C   0  0  0  0  0  0  0  0  0  0  0  0
   70.2820   -8.8370   51.1080 N   0  0  0  0  0  0  0  0  0  0  0  0
   70.4800   -8.0800   48.8620 C   0  0  0  0  0  0  0  0  0  0  0  0
   69.1140   -7.7910   48.8750 C   0  0  0  0  0  0  0  0  0  0  0  0
   68.4470   -7.1720   47.6490 C   0  0  0  0  0  0  0  0  0  0  0  0
   68.3840   -8.0370   49.9820 N   0  0  0  0  0  0  0  0  0  0  0  0
   68.9560   -8.5530   51.0920 C   0  0  0  0  0  0  0  0  0  0  0  0
   68.2270   -8.7600   52.1840 N   0  0  0  0  0  0  0  0  0  0  0  0
   66.9100   -8.5970   52.2990 C   0  0  0  0  0  0  0  0  0  0  0  0
   66.5650   -8.9570   53.5260 C   0  0  0  0  0  0  0  0  0  0  0  0
   67.6690   -9.3390   54.1740 N   0  0  0  0  0  0  0  0  0  0  0  0
   68.6840   -9.2180   53.3410 C   0  0  0  0  0  0  0  0  0  0  0  0
   66.6658   -4.5571   53.5353 H   0  0  0  0  0  0  0  0  0  0  0  0
   67.3582   -3.7027   52.1150 H   0  0  0  0  0  0  0  0  0  0  0  0
   67.2400   -5.4951   52.1150 H   0  0  0  0  0  0  0  0  0  0  0  0
   69.9038   -6.3081   51.5945 H   0  0  0  0  0  0  0  0  0  0  0  0
   71.7255   -5.6560   50.0109 H   0  0  0  0  0  0  0  0  0  0  0  0
   69.6924   -2.2267   53.0505 H   0  0  0  0  0  0  0  0  0  0  0  0
   71.5262   -1.5744   51.4673 H   0  0  0  0  0  0  0  0  0  0  0  0
   72.6636   -3.4896   48.6958 H   0  0  0  0  0  0  0  0  0  0  0  0
   73.0481   -2.0992   49.7945 H   0  0  0  0  0  0  0  0  0  0  0  0
   75.0474   -3.1485   50.0397 H   0  0  0  0  0  0  0  0  0  0  0  0
   74.1286   -4.1967   51.1894 H   0  0  0  0  0  0  0  0  0  0  0  0
   74.2847   -4.9927   48.2907 H   0  0  0  0  0  0  0  0  0  0  0  0
   74.7346   -6.9709   47.7928 H   0  0  0  0  0  0  0  0  0  0  0  0
   76.3462   -7.3590   48.6283 H   0  0  0  0  0  0  0  0  0  0  0  0
   75.2836   -9.3940   48.3419 H   0  0  0  0  0  0  0  0  0  0  0  0
   72.8940   -8.0557   48.2286 H   0  0  0  0  0  0  0  0  0  0  0  0
   73.1583   -9.8772   48.2675 H   0  0  0  0  0  0  0  0  0  0  0  0
   76.1218  -10.1603   52.6660 H   0  0  0  0  0  0  0  0  0  0  0  0
   78.0946   -9.2877   53.5198 H   0  0  0  0  0  0  0  0  0  0  0  0
   79.0387   -9.6821   52.0434 H   0  0  0  0  0  0  0  0  0  0  0  0
   77.9154   -8.2804   52.0434 H   0  0  0  0  0  0  0  0  0  0  0  0
   77.5552  -12.0744   52.8464 H   0  0  0  0  0  0  0  0  0  0  0  0
   76.6694  -12.2551   51.2942 H   0  0  0  0  0  0  0  0  0  0  0  0
   78.3766  -11.6966   51.2942 H   0  0  0  0  0  0  0  0  0  0  0  0
   74.7502   -9.5824   52.4564 H   0  0  0  0  0  0  0  0  0  0  0  0
   74.1658   -8.0015   51.8456 H   0  0  0  0  0  0  0  0  0  0  0  0
   73.0990  -10.7700   51.0685 H   0  0  0  0  0  0  0  0  0  0  0  0
   72.2660   -9.5546   52.0916 H   0  0  0  0  0  0  0  0  0  0  0  0
   71.0880   -7.8868   47.9659 H   0  0  0  0  0  0  0  0  0  0  0  0
   67.6764   -6.4569   47.9727 H   0  0  0  0  0  0  0  0  0  0  0  0
   69.2030   -6.6483   47.0455 H   0  0  0  0  0  0  0  0  0  0  0  0
   67.9811   -7.9649   47.0455 H   0  0  0  0  0  0  0  0  0  0  0  0
   66.2309   -8.2294   51.5156 H   0  0  0  0  0  0  0  0  0  0  0  0
   65.5459   -8.9437   53.9398 H   0  0  0  0  0  0  0  0  0  0  0  0
   69.7335   -9.4569   53.5680 H   0  0  0  0  0  0  0  0  0  0  0  0
  1  2  1  0
  2  3  1  0
  3  4  2  0
  3  6  1  0
  4  5  1  0
  5  8  2  0
  6  7  2  0
  7  8  1  0
  8  9  1  0
  9 10  1  0
 10 11  1  0
 11 12  1  0
 12 14  1  0
 12 13  2  0
 14 15  1  0
 15 16  1  0
 15 17  1  0
 16 25  1  0
 17 18  1  0
 17 23  1  0
 18 19  2  0
 18 20  1  0
 20 22  1  0
 20 21  1  0
 23 24  1  0
 24 25  1  0
 25 26  1  0
 26 28  1  0
 26 27  2  0
 27 32  1  0
 28 29  2  0
 29 30  1  0
 29 31  1  0
 31 32  2  0
 32 33  1  0
 33 34  1  0
 33 37  1  0
 34 35  2  0
 35 36  1  0
 36 37  2  0
  1 38  1  0
  1 39  1  0
  1 40  1  0
  4 41  1  0
  5 42  1  0
  6 43  1  0
  7 44  1  0
  9 45  1  0
  9 46  1  0
 10 47  1  0
 10 48  1  0
 11 49  1  0
 14 50  1  0
 14 51  1  0
 15 52  1  0
 16 53  1  0
 16 54  1  0
 20 55  1  0
 21 56  1  0
 21 57  1  0
 21 58  1  0
 22 59  1  0
 22 60  1  0
 22 61  1  0
 23 62  1  0
 23 63  1  0
 24 64  1  0
 24 65  1  0
 28 66  1  0
 30 67  1  0
 30 68  1  0
 30 69  1  0
 34 70  1  0
 35 71  1  0
 37 72  1  0
A    1
C48
A    2
O47
A    3
C44
A    4
C45
A    5
C46
A    6
C43
A    7
C42
A    8
C41
A    9
C38
A   10
C37
A   11
N35
A   12
C33
A   13
O34
A   14
C32
A   15
C25
A   16
C26
A   17
N24
A   18
C27
A   19
O28
A   20
C29
A   21
C31
A   22
C30
A   23
C23
A   24
C22
A   25
N21
A   26
C13
A   27
N12
A   28
C14
A   29
C15
A   30
C17
A   31
N16
A   32
C11
A   33
N3
A   34
C4
A   35
C5
A   36
NFE
A   37
C2
M  END
