2ORS_391_A_601
     RDKit          3D

 45 49  0  0  0  0  0  0  0  0999 V2000
   69.7240   -4.1890   50.5190 C   0  0  0  0  0  0  0  0  0  0  0  0
   69.2350   -4.5120   51.8170 C   0  0  0  0  0  0  0  0  0  0  0  0
   68.1340   -5.2080   52.2070 O   0  0  0  0  0  0  0  0  0  0  0  0
   68.2230   -5.3570   53.6370 C   0  0  0  0  0  0  0  0  0  0  0  0
   69.2810   -4.4930   54.0810 O   0  0  0  0  0  0  0  0  0  0  0  0
   69.9590   -4.1020   52.9680 C   0  0  0  0  0  0  0  0  0  0  0  0
   71.1770   -3.3720   52.8180 C   0  0  0  0  0  0  0  0  0  0  0  0
   71.6700   -3.0520   51.5220 C   0  0  0  0  0  0  0  0  0  0  0  0
   70.9460   -3.4560   50.3590 C   0  0  0  0  0  0  0  0  0  0  0  0
   71.3970   -3.0790   49.0930 O   0  0  0  0  0  0  0  0  0  0  0  0
   72.1000   -4.0690   48.4120 C   0  0  0  0  0  0  0  0  0  0  0  0
   71.6760   -5.3670   48.4720 N   0  0  0  0  0  0  0  0  0  0  0  0
   73.2280   -3.7390   47.6320 C   0  0  0  0  0  0  0  0  0  0  0  0
   73.8770   -4.7890   46.9480 C   0  0  0  0  0  0  0  0  0  0  0  0
   75.1130   -4.4940   46.0910 C   0  0  0  0  0  0  0  0  0  0  0  0
   73.4120   -6.0710   47.0480 N   0  0  0  0  0  0  0  0  0  0  0  0
   72.3170   -6.3690   47.8030 C   0  0  0  0  0  0  0  0  0  0  0  0
   71.8480   -7.6730   47.8560 O   0  0  0  0  0  0  0  0  0  0  0  0
   71.0760   -7.9660   48.9720 C   0  0  0  0  0  0  0  0  0  0  0  0
   69.6490   -7.9170   48.8830 C   0  0  0  0  0  0  0  0  0  0  0  0
   68.8470   -8.2640   50.0050 C   0  0  0  0  0  0  0  0  0  0  0  0
   71.6890   -8.3730   50.2000 C   0  0  0  0  0  0  0  0  0  0  0  0
   70.8850   -8.7190   51.3210 C   0  0  0  0  0  0  0  0  0  0  0  0
   69.4490   -8.6730   51.2450 C   0  0  0  0  0  0  0  0  0  0  0  0
   68.6730   -9.0220   52.3340 N   0  0  0  0  0  0  0  0  0  0  0  0
   67.3230   -9.0380   52.4070 C   0  0  0  0  0  0  0  0  0  0  0  0
   66.9650   -9.4310   53.6230 C   0  0  0  0  0  0  0  0  0  0  0  0
   68.0710   -9.6650   54.3280 N   0  0  0  0  0  0  0  0  0  0  0  0
   69.1130   -9.4170   53.5420 C   0  0  0  0  0  0  0  0  0  0  0  0
   69.1585   -4.5051   49.6300 H   0  0  0  0  0  0  0  0  0  0  0  0
   67.2729   -5.0644   54.1078 H   0  0  0  0  0  0  0  0  0  0  0  0
   68.4264   -6.4024   53.9122 H   0  0  0  0  0  0  0  0  0  0  0  0
   71.7377   -3.0550   53.7097 H   0  0  0  0  0  0  0  0  0  0  0  0
   72.6109   -2.4922   51.4157 H   0  0  0  0  0  0  0  0  0  0  0  0
   73.5882   -2.7022   47.5596 H   0  0  0  0  0  0  0  0  0  0  0  0
   75.9727   -4.2888   46.7458 H   0  0  0  0  0  0  0  0  0  0  0  0
   75.3352   -5.3643   45.4561 H   0  0  0  0  0  0  0  0  0  0  0  0
   74.9182   -3.6171   45.4561 H   0  0  0  0  0  0  0  0  0  0  0  0
   69.1697   -7.6094   47.9419 H   0  0  0  0  0  0  0  0  0  0  0  0
   67.7510   -8.2189   49.9230 H   0  0  0  0  0  0  0  0  0  0  0  0
   72.7854   -8.4183   50.2768 H   0  0  0  0  0  0  0  0  0  0  0  0
   71.3683   -9.0264   52.2601 H   0  0  0  0  0  0  0  0  0  0  0  0
   66.6345   -8.7694   51.5923 H   0  0  0  0  0  0  0  0  0  0  0  0
   65.9329   -9.5441   53.9862 H   0  0  0  0  0  0  0  0  0  0  0  0
   70.1689   -9.5187   53.8332 H   0  0  0  0  0  0  0  0  0  0  0  0
  1  9  2  0
  1  2  1  0
  2  3  1  0
  2  6  2  0
  3  4  1  0
  4  5  1  0
  5  6  1  0
  6  7  1  0
  7  8  2  0
  8  9  1  0
  9 10  1  0
 10 11  1  0
 11 13  1  0
 11 12  2  0
 12 17  1  0
 13 14  2  0
 14 15  1  0
 14 16  1  0
 16 17  2  0
 17 18  1  0
 18 19  1  0
 19 20  2  0
 19 22  1  0
 20 21  1  0
 21 24  2  0
 22 23  2  0
 23 24  1  0
 24 25  1  0
 25 26  1  0
 25 29  1  0
 26 27  2  0
 27 28  1  0
 28 29  2  0
  1 30  1  0
  4 31  1  0
  4 32  1  0
  7 33  1  0
  8 34  1  0
 13 35  1  0
 15 36  1  0
 15 37  1  0
 15 38  1  0
 20 39  1  0
 21 40  1  0
 22 41  1  0
 23 42  1  0
 26 43  1  0
 27 44  1  0
 29 45  1  0
A    1
C36
A    2
C35
A    3
O39
A    4
C38
A    5
O37
A    6
C34
A    7
C33
A    8
C32
A    9
C31
A   10
O28
A   11
C23
A   12
N22
A   13
C24
A   14
C25
A   15
C27
A   16
N26
A   17
C21
A   18
O17
A   19
C14
A   20
C15
A   21
C16
A   22
C13
A   23
C12
A   24
C11
A   25
N3
A   26
C4
A   27
C5
A   28
NFE
A   29
C2
M  END
