2NUV_2TN_A_2001
     RDKit          3D

 41 41  0  0  0  0  0  0  0  0999 V2000
   16.0460   19.2320   12.9930 O   0  0  0  0  0  0  0  0  0  0  0  0
   15.1090   18.4560   12.5610 C   0  0  0  0  0  0  0  0  0  0  0  0
   14.8580   18.3620   11.2760 N   0  0  0  0  0  0  0  0  0  0  0  0
   14.2990   17.6340   13.5310 C   0  0  0  0  0  0  0  0  0  0  0  0
   14.1340   18.3210   14.8860 C   0  0  0  0  0  0  0  0  0  0  0  0
   14.6000   17.8300   16.1130 C   0  0  0  0  0  0  0  0  0  0  0  0
   14.3700   18.5760   17.3240 C   0  0  0  0  0  0  0  0  0  0  0  0
   13.6990   19.8370   17.5320 C   0  0  0  0  0  0  0  0  0  0  0  0
   13.2370   20.2800   16.2950 C   0  0  0  0  0  0  0  0  0  0  0  0
   13.4630   19.5530   15.0740 C   0  0  0  0  0  0  0  0  0  0  0  0
   13.5550   20.3030   18.8070 O   0  0  0  0  0  0  0  0  0  0  0  0
   12.7080   21.3750   19.1010 C   0  0  0  0  0  0  0  0  0  0  0  0
   12.8900   22.4080   20.1760 C   0  0  0  0  0  0  0  0  0  0  0  0
   14.0070   22.3750   21.0810 O   0  0  0  0  0  0  0  0  0  0  0  0
   11.6790   23.3320   20.1980 C   0  0  0  0  0  0  0  0  0  0  0  0
   11.7550   24.1960   21.3240 N   0  0  0  0  0  0  0  0  0  0  0  0
   10.6950   25.1390   21.6300 C   0  0  0  0  0  0  0  0  0  0  0  0
   10.1070   26.0080   20.5270 C   0  0  0  0  0  0  0  0  0  0  0  0
    9.6380   24.3130   22.4220 C   0  0  0  0  0  0  0  0  0  0  0  0
   13.9418   18.0189   10.9540 H   0  0  0  0  0  0  0  0  0  0  0  0
   15.5773   18.6314   10.5897 H   0  0  0  0  0  0  0  0  0  0  0  0
   13.3020   17.4608   13.0997 H   0  0  0  0  0  0  0  0  0  0  0  0
   14.8371   16.6894   13.6989 H   0  0  0  0  0  0  0  0  0  0  0  0
   15.1422   16.8737   16.1517 H   0  0  0  0  0  0  0  0  0  0  0  0
   14.7699   18.1098   18.2365 H   0  0  0  0  0  0  0  0  0  0  0  0
   12.6759   21.2251   16.2496 H   0  0  0  0  0  0  0  0  0  0  0  0
   13.0593   20.0180   14.1625 H   0  0  0  0  0  0  0  0  0  0  0  0
   12.6445   21.9496   18.1651 H   0  0  0  0  0  0  0  0  0  0  0  0
   11.8653   20.8174   19.5357 H   0  0  0  0  0  0  0  0  0  0  0  0
   13.3845   23.0733   19.4529 H   0  0  0  0  0  0  0  0  0  0  0  0
   13.6762   22.3848   22.0140 H   0  0  0  0  0  0  0  0  0  0  0  0
   11.6610   23.9329   19.2768 H   0  0  0  0  0  0  0  0  0  0  0  0
   10.7618   22.7283   20.2638 H   0  0  0  0  0  0  0  0  0  0  0  0
   11.8508   23.5885   22.1503 H   0  0  0  0  0  0  0  0  0  0  0  0
   11.1460   25.9605   22.2059 H   0  0  0  0  0  0  0  0  0  0  0  0
    9.5443   26.8396   20.9761 H   0  0  0  0  0  0  0  0  0  0  0  0
   10.9198   26.4095   19.9039 H   0  0  0  0  0  0  0  0  0  0  0  0
    9.4321   25.4028   19.9039 H   0  0  0  0  0  0  0  0  0  0  0  0
    9.8047   24.4432   23.5015 H   0  0  0  0  0  0  0  0  0  0  0  0
    8.6285   24.6639   22.1619 H   0  0  0  0  0  0  0  0  0  0  0  0
    9.7345   23.2486   22.1619 H   0  0  0  0  0  0  0  0  0  0  0  0
  1  2  2  0
  2  3  1  0
  2  4  1  0
  4  5  1  0
  5 10  2  0
  5  6  1  0
  6  7  2  0
  7  8  1  0
  8  9  2  0
  8 11  1  0
  9 10  1  0
 11 12  1  0
 12 13  1  0
 13 15  1  0
 13 14  1  0
 15 16  1  0
 16 17  1  0
 17 18  1  0
 17 19  1  0
  3 20  1  0
  3 21  1  0
  4 22  1  0
  4 23  1  0
  6 24  1  0
  7 25  1  0
  9 26  1  0
 10 27  1  0
 12 28  1  0
 12 29  1  0
 13 30  1  0
 14 31  1  0
 15 32  1  0
 15 33  1  0
 16 34  1  0
 17 35  1  0
 18 36  1  0
 18 37  1  0
 18 38  1  0
 19 39  1  0
 19 40  1  0
 19 41  1  0
A    1
O1
A    2
C11
A    3
N2
A    4
C10
A    5
C7
A    6
C8
A    7
C9
A    8
C4
A    9
C5
A   10
C6
A   11
O2
A   12
C1
A   13
C2
A   14
O3
A   15
C3
A   16
N1
A   17
C12
A   18
C14
A   19
C13
M  END
