2OVV_PFH_A_999
     RDKit          3D

 53 57  0  0  0  0  0  0  0  0999 V2000
   14.0300   16.0490   44.5000 C   0  0  0  0  0  0  0  0  0  0  0  0
   11.9630   18.9340   45.6820 C   0  0  0  0  0  0  0  0  0  0  0  0
   12.5080   17.9450   44.7740 C   0  0  0  0  0  0  0  0  0  0  0  0
   13.2430   18.0350   47.3940 C   0  0  0  0  0  0  0  0  0  0  0  0
   11.6520   23.4010   42.9090 C   0  0  0  0  0  0  0  0  0  0  0  0
    9.6890   21.8050   45.6750 C   0  0  0  0  0  0  0  0  0  0  0  0
   11.2760   20.7050   44.1440 C   0  0  0  0  0  0  0  0  0  0  0  0
   10.4610   20.6890   46.4120 C   0  0  0  0  0  0  0  0  0  0  0  0
   12.8740   23.9740   40.4070 C   0  0  0  0  0  0  0  0  0  0  0  0
   11.4690   17.4120   40.5380 C   0  0  0  0  0  0  0  0  0  0  0  0
   12.4910   16.6520   41.2220 O   0  0  0  0  0  0  0  0  0  0  0  0
   12.7360   16.8470   42.5880 C   0  0  0  0  0  0  0  0  0  0  0  0
   13.6810   15.9580   43.1560 C   0  0  0  0  0  0  0  0  0  0  0  0
   14.1790   15.0330   42.2960 O   0  0  0  0  0  0  0  0  0  0  0  0
   15.3520   14.3720   42.7200 C   0  0  0  0  0  0  0  0  0  0  0  0
   12.1710   17.8150   43.3970 C   0  0  0  0  0  0  0  0  0  0  0  0
   13.4460   17.0310   45.3180 C   0  0  0  0  0  0  0  0  0  0  0  0
   13.7720   17.1170   46.6110 N   0  0  0  0  0  0  0  0  0  0  0  0
   12.3590   18.9220   46.9600 N   0  0  0  0  0  0  0  0  0  0  0  0
   10.9920   19.8480   45.3130 N   0  0  0  0  0  0  0  0  0  0  0  0
   10.3440   21.9620   44.2710 C   0  0  0  0  0  0  0  0  0  0  0  0
   11.1040   23.1950   44.1640 O   0  0  0  0  0  0  0  0  0  0  0  0
   12.4780   24.5290   42.7510 C   0  0  0  0  0  0  0  0  0  0  0  0
   13.0710   24.8060   41.5440 C   0  0  0  0  0  0  0  0  0  0  0  0
   13.4560   24.2520   39.1570 C   0  0  0  0  0  0  0  0  0  0  0  0
   12.0410   22.8210   40.5490 C   0  0  0  0  0  0  0  0  0  0  0  0
   11.4450   22.5700   41.8030 C   0  0  0  0  0  0  0  0  0  0  0  0
   11.8030   21.9570   39.4600 C   0  0  0  0  0  0  0  0  0  0  0  0
   12.3650   22.2440   38.2660 C   0  0  0  0  0  0  0  0  0  0  0  0
   13.1920   23.3850   38.1240 C   0  0  0  0  0  0  0  0  0  0  0  0
   14.7658   15.3496   44.9236 H   0  0  0  0  0  0  0  0  0  0  0  0
   13.5473   18.0666   48.4506 H   0  0  0  0  0  0  0  0  0  0  0  0
    9.7643   22.7491   46.2345 H   0  0  0  0  0  0  0  0  0  0  0  0
    8.6228   21.5502   45.5841 H   0  0  0  0  0  0  0  0  0  0  0  0
   11.0558   20.1620   43.2131 H   0  0  0  0  0  0  0  0  0  0  0  0
   12.3357   20.9986   44.1160 H   0  0  0  0  0  0  0  0  0  0  0  0
   11.2792   21.1098   47.0150 H   0  0  0  0  0  0  0  0  0  0  0  0
    9.8299   20.1253   47.1148 H   0  0  0  0  0  0  0  0  0  0  0  0
   10.8160   17.8976   41.2782 H   0  0  0  0  0  0  0  0  0  0  0  0
   11.9426   18.1791   39.9077 H   0  0  0  0  0  0  0  0  0  0  0  0
   10.8707   16.7376   39.9077 H   0  0  0  0  0  0  0  0  0  0  0  0
   15.3853   14.3532   43.8193 H   0  0  0  0  0  0  0  0  0  0  0  0
   15.3515   13.3414   42.3355 H   0  0  0  0  0  0  0  0  0  0  0  0
   16.2333   14.9063   42.3355 H   0  0  0  0  0  0  0  0  0  0  0  0
   11.4361   18.5083   42.9621 H   0  0  0  0  0  0  0  0  0  0  0  0
    9.5950   22.0185   43.4674 H   0  0  0  0  0  0  0  0  0  0  0  0
   12.6511   25.1984   43.6065 H   0  0  0  0  0  0  0  0  0  0  0  0
   13.7146   25.6935   41.4539 H   0  0  0  0  0  0  0  0  0  0  0  0
   14.0996   25.1321   39.0115 H   0  0  0  0  0  0  0  0  0  0  0  0
   10.7947   21.6899   41.9148 H   0  0  0  0  0  0  0  0  0  0  0  0
   11.1707   21.0650   39.5810 H   0  0  0  0  0  0  0  0  0  0  0  0
   12.1799   21.5897   37.4013 H   0  0  0  0  0  0  0  0  0  0  0  0
   13.6438   23.5865   37.1415 H   0  0  0  0  0  0  0  0  0  0  0  0
  1 13  2  0
  1 17  1  0
  2  3  1  0
  2 20  1  0
  2 19  2  0
  3 16  1  0
  3 17  2  0
  4 18  2  0
  4 19  1  0
  5 27  1  0
  5 23  2  0
  5 22  1  0
  6 21  1  0
  6  8  1  0
  7 21  1  0
  7 20  1  0
  8 20  1  0
  9 25  1  0
  9 26  1  0
  9 24  2  0
 10 11  1  0
 11 12  1  0
 12 13  1  0
 12 16  2  0
 13 14  1  0
 14 15  1  0
 17 18  1  0
 21 22  1  0
 23 24  1  0
 25 30  2  0
 26 28  1  0
 26 27  2  0
 28 29  2  0
 29 30  1  0
  1 31  1  0
  4 32  1  0
  6 33  1  0
  6 34  1  0
  7 35  1  0
  7 36  1  0
  8 37  1  0
  8 38  1  0
 10 39  1  0
 10 40  1  0
 10 41  1  0
 15 42  1  0
 15 43  1  0
 15 44  1  0
 16 45  1  0
 21 46  1  0
 23 47  1  0
 24 48  1  0
 25 49  1  0
 27 50  1  0
 28 51  1  0
 29 52  1  0
 30 53  1  0
A    1
C4
A    2
C7
A    3
C6
A    4
C9
A    5
C21
A    6
C18
A    7
C16
A    8
C19
A    9
C26
A   10
C14
A   11
O13
A   12
C2
A   13
C1
A   14
O11
A   15
C12
A   16
C3
A   17
C5
A   18
N10
A   19
N8
A   20
N15
A   21
C17
A   22
O20
A   23
C22
A   24
C23
A   25
C27
A   26
C25
A   27
C24
A   28
C30
A   29
C29
A   30
C28
M  END
