2OXY_K17_A_1001
     RDKit          3D

 15 16  0  0  0  0  0  0  0  0999 V2000
  -10.8420    2.6260    6.6060 Br  0  0  0  0  0  0  0  0  0  0  0  0
  -11.0520    4.3300    5.8440 C   0  0  0  0  0  0  0  0  0  0  0  0
  -10.8190    5.4380    6.6640 C   0  0  0  0  0  0  0  0  0  0  0  0
  -10.2460    5.1060    8.4570 Br  0  0  0  0  0  0  0  0  0  0  0  0
  -11.4630    4.4630    4.5290 C   0  0  0  0  0  0  0  0  0  0  0  0
  -11.7410    3.5240    3.5610 N   0  0  0  0  0  0  0  0  0  0  0  0
  -12.0720    4.2500    2.4790 C   0  0  0  0  0  0  0  0  0  0  0  0
  -12.0180    5.5850    2.7590 N   0  0  0  0  0  0  0  0  0  0  0  0
  -11.6430    5.7520    4.0320 C   0  0  0  0  0  0  0  0  0  0  0  0
  -11.4170    6.8990    4.8430 C   0  0  0  0  0  0  0  0  0  0  0  0
  -11.6770    8.6770    4.1740 Br  0  0  0  0  0  0  0  0  0  0  0  0
  -11.0010    6.7360    6.1670 C   0  0  0  0  0  0  0  0  0  0  0  0
  -10.7180    8.2340    7.3270 Br  0  0  0  0  0  0  0  0  0  0  0  0
  -11.7038    2.4982    3.6465 H   0  0  0  0  0  0  0  0  0  0  0  0
  -12.3484    3.8264    1.5022 H   0  0  0  0  0  0  0  0  0  0  0  0
  1  2  1  0
  2  3  2  0
  2  5  1  0
  3 12  1  0
  3  4  1  0
  5  9  2  0
  5  6  1  0
  6  7  1  0
  7  8  2  0
  8  9  1  0
  9 10  1  0
 10 11  1  0
 10 12  2  0
 12 13  1  0
  6 14  1  0
  7 15  1  0
A    1
BR3
A    2
C3
A    3
C2
A    4
BR2
A    5
C7
A    6
N8
A    7
C9
A    8
N5
A    9
C6
A   10
C4
A   11
BR4
A   12
C1
A   13
BR1
M  END
