2OZR_GG1_A_2001
     RDKit          3D

 52 55  0  0  0  0  0  0  0  0999 V2000
    6.1160   33.5450    4.5750 N   0  0  0  0  0  0  0  0  0  0  0  0
    6.1860   34.0960    8.2370 C   0  0  0  0  0  0  0  0  0  0  0  0
    7.7950   34.5970    6.4920 C   0  0  0  0  0  0  0  0  0  0  0  0
    8.9640   34.5620    2.4830 C   0  0  0  0  0  0  0  0  0  0  0  0
   10.9690   35.5660    3.1060 C   0  0  0  0  0  0  0  0  0  0  0  0
    9.8190   35.0950    3.4560 C   0  0  0  0  0  0  0  0  0  0  0  0
    7.5120   30.5890   10.3940 C   0  0  0  0  0  0  0  0  0  0  0  0
    6.2830   30.5700    9.7150 C   0  0  0  0  0  0  0  0  0  0  0  0
    5.8520   31.6960    9.0150 C   0  0  0  0  0  0  0  0  0  0  0  0
    7.8680   32.8640    9.6630 C   0  0  0  0  0  0  0  0  0  0  0  0
   14.4830   35.7010    2.7490 C   0  0  0  0  0  0  0  0  0  0  0  0
    6.6460   32.8480    8.9840 C   0  0  0  0  0  0  0  0  0  0  0  0
    8.1820   34.5870    5.1560 C   0  0  0  0  0  0  0  0  0  0  0  0
    7.9870   29.3910   11.1770 C   0  0  0  0  0  0  0  0  0  0  0  0
   12.0110   35.9830    2.7280 C   0  0  0  0  0  0  0  0  0  0  0  0
    7.4800   28.2920   11.0400 O   0  0  0  0  0  0  0  0  0  0  0  0
    8.9370   29.5240   12.0910 O   0  0  0  0  0  0  0  0  0  0  0  0
    8.3010   31.7410   10.3620 C   0  0  0  0  0  0  0  0  0  0  0  0
    6.5980   34.0880    6.8290 N   0  0  0  0  0  0  0  0  0  0  0  0
    8.5420   35.0730    7.3830 O   0  0  0  0  0  0  0  0  0  0  0  0
    7.3160   34.0460    4.1890 C   0  0  0  0  0  0  0  0  0  0  0  0
    7.7200   34.0350    2.8500 C   0  0  0  0  0  0  0  0  0  0  0  0
    5.1560   32.9630    3.6320 C   0  0  0  0  0  0  0  0  0  0  0  0
    5.7710   33.5720    5.8840 C   0  0  0  0  0  0  0  0  0  0  0  0
    4.6600   33.1010    6.2280 O   0  0  0  0  0  0  0  0  0  0  0  0
    9.4310   35.0980    4.7890 C   0  0  0  0  0  0  0  0  0  0  0  0
   13.2950   36.4940    2.2150 C   0  0  0  0  0  0  0  0  0  0  0  0
   15.7490   35.8910    2.1860 C   0  0  0  0  0  0  0  0  0  0  0  0
   16.8560   35.1940    2.6630 C   0  0  0  0  0  0  0  0  0  0  0  0
   14.3380   34.8000    3.8060 C   0  0  0  0  0  0  0  0  0  0  0  0
   15.4400   34.0940    4.2910 C   0  0  0  0  0  0  0  0  0  0  0  0
   16.7020   34.2930    3.7180 C   0  0  0  0  0  0  0  0  0  0  0  0
    6.6189   34.9807    8.7268 H   0  0  0  0  0  0  0  0  0  0  0  0
    5.0866   34.1177    8.2649 H   0  0  0  0  0  0  0  0  0  0  0  0
    9.2711   34.5575    1.4267 H   0  0  0  0  0  0  0  0  0  0  0  0
    5.6588   29.6645    9.7355 H   0  0  0  0  0  0  0  0  0  0  0  0
    4.8873   31.6789    8.4868 H   0  0  0  0  0  0  0  0  0  0  0  0
    8.4914   33.7701    9.6447 H   0  0  0  0  0  0  0  0  0  0  0  0
    8.7062   29.4917   13.0532 H   0  0  0  0  0  0  0  0  0  0  0  0
    9.2658   31.7608   10.8899 H   0  0  0  0  0  0  0  0  0  0  0  0
    7.0572   33.6103    2.0817 H   0  0  0  0  0  0  0  0  0  0  0  0
    4.3455   32.4716    4.1903 H   0  0  0  0  0  0  0  0  0  0  0  0
    4.7355   33.7584    2.9991 H   0  0  0  0  0  0  0  0  0  0  0  0
    5.6667   32.2223    2.9991 H   0  0  0  0  0  0  0  0  0  0  0  0
   10.1065   35.5026    5.5571 H   0  0  0  0  0  0  0  0  0  0  0  0
   13.4051   37.5454    2.5189 H   0  0  0  0  0  0  0  0  0  0  0  0
   13.2859   36.3938    1.1196 H   0  0  0  0  0  0  0  0  0  0  0  0
   15.8720   36.6009    1.3548 H   0  0  0  0  0  0  0  0  0  0  0  0
   17.8463   35.3525    2.2110 H   0  0  0  0  0  0  0  0  0  0  0  0
   13.3479   34.6455    4.2597 H   0  0  0  0  0  0  0  0  0  0  0  0
   15.3174   33.3830    5.1213 H   0  0  0  0  0  0  0  0  0  0  0  0
   17.5725   33.7391    4.0994 H   0  0  0  0  0  0  0  0  0  0  0  0
  1 23  1  0
  1 21  1  0
  1 24  1  0
  2 19  1  0
  2 12  1  0
  3 13  1  0
  3 19  1  0
  3 20  2  0
  4 22  2  0
  4  6  1  0
  5 15  3  0
  5  6  1  0
  6 26  2  0
  7  8  2  0
  7 18  1  0
  7 14  1  0
  8  9  1  0
  9 12  2  0
 10 12  1  0
 10 18  2  0
 11 28  2  0
 11 27  1  0
 11 30  1  0
 13 21  2  0
 13 26  1  0
 14 16  2  0
 14 17  1  0
 15 27  1  0
 19 24  1  0
 21 22  1  0
 24 25  2  0
 28 29  1  0
 29 32  2  0
 30 31  2  0
 31 32  1  0
  2 33  1  0
  2 34  1  0
  4 35  1  0
  8 36  1  0
  9 37  1  0
 10 38  1  0
 17 39  1  0
 18 40  1  0
 22 41  1  0
 23 42  1  0
 23 43  1  0
 23 44  1  0
 26 45  1  0
 27 46  1  0
 27 47  1  0
 28 48  1  0
 29 49  1  0
 30 50  1  0
 31 51  1  0
 32 52  1  0
A    1
N1
A    2
C4
A    3
C5
A    4
C6
A    5
C7
A    6
C8
A    7
C10
A    8
C13
A    9
C15
A   10
C17
A   11
C20
A   12
C21
A   13
C22
A   14
C24
A   15
C26
A   16
O6
A   17
O5
A   18
C19
A   19
N6
A   20
O2
A   21
C3
A   22
C2
A   23
C25
A   24
C1
A   25
O1
A   26
C23
A   27
C11
A   28
C16
A   29
C18
A   30
C14
A   31
C12
A   32
C9
M  END
