2P0E_TIZ_A_201
     RDKit          3D

 29 30  0  0  0  0  0  0  0  0999 V2000
   10.3880  -12.8550    1.1060 O   0  0  0  0  0  0  0  0  0  0  0  0
    9.9040  -14.2180    1.3020 C   0  0  0  0  0  0  0  0  0  0  0  0
   10.9020  -15.3450    0.8370 C   0  0  0  0  0  0  0  0  0  0  0  0
   12.0150  -14.8570    0.0460 O   0  0  0  0  0  0  0  0  0  0  0  0
   10.0170  -16.2060   -0.0850 C   0  0  0  0  0  0  0  0  0  0  0  0
   10.2440  -17.6860    0.1800 C   0  0  0  0  0  0  0  0  0  0  0  0
    9.4080  -18.4410   -0.7110 O   0  0  0  0  0  0  0  0  0  0  0  0
    8.6710  -15.8590    0.2500 O   0  0  0  0  0  0  0  0  0  0  0  0
    8.7060  -14.4560    0.3900 C   0  0  0  0  0  0  0  0  0  0  0  0
    7.4740  -13.9040    1.0810 C   0  0  0  0  0  0  0  0  0  0  0  0
    6.4790  -14.6190    1.6120 N   0  0  0  0  0  0  0  0  0  0  0  0
    7.1500  -12.2530    1.2740 S   0  0  0  0  0  0  0  0  0  0  0  0
    5.6870  -12.5070    2.0790 C   0  0  0  0  0  0  0  0  0  0  0  0
    5.5130  -13.8360    2.1610 C   0  0  0  0  0  0  0  0  0  0  0  0
    4.2910  -14.4730    2.8250 C   0  0  0  0  0  0  0  0  0  0  0  0
    4.0850  -15.6810    2.7040 O   0  0  0  0  0  0  0  0  0  0  0  0
    3.4930  -13.6520    3.5150 N   0  0  0  0  0  0  0  0  0  0  0  0
   10.5394  -12.4287    1.9866 H   0  0  0  0  0  0  0  0  0  0  0  0
    9.7155  -14.2837    2.3837 H   0  0  0  0  0  0  0  0  0  0  0  0
   11.3521  -15.8492    1.7048 H   0  0  0  0  0  0  0  0  0  0  0  0
   12.7346  -14.5415    0.6483 H   0  0  0  0  0  0  0  0  0  0  0  0
   10.2464  -16.0250   -1.1455 H   0  0  0  0  0  0  0  0  0  0  0  0
   11.2998  -17.9375    0.0009 H   0  0  0  0  0  0  0  0  0  0  0  0
    9.9948  -17.9249    1.2244 H   0  0  0  0  0  0  0  0  0  0  0  0
    8.7862  -19.0026   -0.1837 H   0  0  0  0  0  0  0  0  0  0  0  0
    8.7588  -13.9669   -0.5938 H   0  0  0  0  0  0  0  0  0  0  0  0
    5.0070  -11.7321    2.4626 H   0  0  0  0  0  0  0  0  0  0  0  0
    3.5065  -13.6659    4.5448 H   0  0  0  0  0  0  0  0  0  0  0  0
    2.8647  -13.0055    3.0168 H   0  0  0  0  0  0  0  0  0  0  0  0
  1  2  1  0
  2  9  1  0
  2  3  1  0
  3  5  1  0
  3  4  1  0
  5  6  1  0
  5  8  1  0
  6  7  1  0
  8  9  1  0
  9 10  1  0
 10 12  1  0
 10 11  2  0
 11 14  1  0
 12 13  1  0
 13 14  2  0
 14 15  1  0
 15 16  2  0
 15 17  1  0
  1 18  1  0
  2 19  1  0
  3 20  1  0
  4 21  1  0
  5 22  1  0
  6 23  1  0
  6 24  1  0
  7 25  1  0
  9 26  1  0
 13 27  1  0
 17 28  1  0
 17 29  1  0
A    1
O2'
A    2
C2'
A    3
C3'
A    4
O3'
A    5
C4'
A    6
C5'
A    7
O5'
A    8
O4'
A    9
C1'
A   10
C1M
A   11
N1H
A   12
S1J
A   13
C1F
A   14
C1L
A   15
C1K
A   16
O1B
A   17
N1A
M  END
