1Z2P_I3S_X_500
     RDKit          3D

 39 39  0  0  0  0  0  0  0  0999 V2000
   25.7020   -9.2430   13.7200 O   0  0  0  0  0  0  0  0  0  0  0  0
   25.0710  -10.1650   12.5450 P   0  0  0  0  0  0  0  0  0  0  0  0
   23.7170  -10.7970   13.1720 O   0  0  0  0  0  0  0  0  0  0  0  0
   26.0290  -11.2000   12.0900 O   0  0  0  0  0  0  0  0  0  0  0  0
   24.6620   -9.1760   11.3430 O   0  0  0  0  0  0  0  0  0  0  0  0
   23.6360   -8.2040   11.5250 C   0  0  0  0  0  0  0  0  0  0  0  0
   24.2630   -6.8140   11.7590 C   0  0  0  0  0  0  0  0  0  0  0  0
   25.2010   -6.5130   10.7150 O   0  0  0  0  0  0  0  0  0  0  0  0
   23.1810   -5.7160   11.8480 C   0  0  0  0  0  0  0  0  0  0  0  0
   23.7830   -4.4220   11.8000 O   0  0  0  0  0  0  0  0  0  0  0  0
   23.3890   -3.2600   12.8680 P   0  0  0  0  0  0  0  0  0  0  0  0
   22.9700   -4.0090   14.2390 O   0  0  0  0  0  0  0  0  0  0  0  0
   22.0350   -2.5590   12.3290 O   0  0  0  0  0  0  0  0  0  0  0  0
   24.5130   -2.3160   13.0690 O   0  0  0  0  0  0  0  0  0  0  0  0
   22.1540   -5.7980   10.7100 C   0  0  0  0  0  0  0  0  0  0  0  0
   21.0960   -4.8980   11.0020 O   0  0  0  0  0  0  0  0  0  0  0  0
   21.5760   -7.2010   10.5470 C   0  0  0  0  0  0  0  0  0  0  0  0
   20.6590   -7.2300    9.4540 O   0  0  0  0  0  0  0  0  0  0  0  0
   22.7060   -8.1950   10.3030 C   0  0  0  0  0  0  0  0  0  0  0  0
   22.1520   -9.4880   10.0700 O   0  0  0  0  0  0  0  0  0  0  0  0
   22.3070  -10.1860    8.6140 P   0  0  0  0  0  0  0  0  0  0  0  0
   21.7870  -11.6780    8.8900 O   0  0  0  0  0  0  0  0  0  0  0  0
   21.2200   -9.5250    7.6220 O   0  0  0  0  0  0  0  0  0  0  0  0
   23.6870  -10.1300    8.0690 O   0  0  0  0  0  0  0  0  0  0  0  0
   25.4484   -9.6136   14.6023 H   0  0  0  0  0  0  0  0  0  0  0  0
   23.7685  -10.7730   14.1604 H   0  0  0  0  0  0  0  0  0  0  0  0
   23.0379   -8.4621   12.4113 H   0  0  0  0  0  0  0  0  0  0  0  0
   24.7947   -6.8372   12.7217 H   0  0  0  0  0  0  0  0  0  0  0  0
   26.0630   -6.2364   11.1156 H   0  0  0  0  0  0  0  0  0  0  0  0
   22.6608   -5.8786   12.8035 H   0  0  0  0  0  0  0  0  0  0  0  0
   21.4824   -2.2729   13.0990 H   0  0  0  0  0  0  0  0  0  0  0  0
   24.6664   -2.1872   14.0385 H   0  0  0  0  0  0  0  0  0  0  0  0
   22.6631   -5.5387    9.7700 H   0  0  0  0  0  0  0  0  0  0  0  0
   20.9963   -4.8132   11.9833 H   0  0  0  0  0  0  0  0  0  0  0  0
   21.0401   -7.4784   11.4667 H   0  0  0  0  0  0  0  0  0  0  0  0
   19.7324   -7.2593    9.8013 H   0  0  0  0  0  0  0  0  0  0  0  0
   23.2912   -7.9039    9.4182 H   0  0  0  0  0  0  0  0  0  0  0  0
   21.7329  -11.8333    9.8662 H   0  0  0  0  0  0  0  0  0  0  0  0
   20.5073   -9.0916    8.1551 H   0  0  0  0  0  0  0  0  0  0  0  0
  1  2  1  0
  2  3  1  0
  2  4  2  0
  2  5  1  0
  5  6  1  0
  6  7  1  0
  6 19  1  0
  7  8  1  0
  7  9  1  0
  9 10  1  0
  9 15  1  0
 10 11  1  0
 11 12  2  0
 11 13  1  0
 11 14  1  0
 15 16  1  0
 15 17  1  0
 17 18  1  0
 17 19  1  0
 19 20  1  0
 20 21  1  0
 21 22  1  0
 21 23  1  0
 21 24  2  0
  1 25  1  0
  3 26  1  0
  6 27  1  0
  7 28  1  0
  8 29  1  0
  9 30  1  0
 13 31  1  0
 14 32  1  0
 15 33  1  0
 16 34  1  0
 17 35  1  0
 18 36  1  0
 19 37  1  0
 22 38  1  0
 23 39  1  0
A    1
O11
A    2
P3
A    3
O12
A    4
O10
A    5
O3
A    6
C3
A    7
C2
A    8
O2
A    9
C1
A   10
O1
A   11
P1
A   12
OP2
A   13
OP3
A   14
OP1
A   15
C6
A   16
O6
A   17
C5
A   18
O5
A   19
C4
A   20
O4
A   21
P4
A   22
OP5
A   23
OP6
A   24
OP4
M  END
