1A97_5GP_B_305
     RDKit          3D

 38 40  0  0  0  0  0  0  0  0999 V2000
   17.7600  138.7470   22.0450 P   0  0  0  0  0  0  0  0  0  0  0  0
   16.6420  137.9110   22.5340 O   0  0  0  0  0  0  0  0  0  0  0  0
   17.8200  138.7910   20.5900 O   0  0  0  0  0  0  0  0  0  0  0  0
   17.7950  140.0570   22.7260 O   0  0  0  0  0  0  0  0  0  0  0  0
   19.0410  138.0870   22.6190 O   0  0  0  0  0  0  0  0  0  0  0  0
   19.0500  136.7800   23.1530 C   0  0  0  0  0  0  0  0  0  0  0  0
   20.3820  136.1720   23.0120 C   0  0  0  0  0  0  0  0  0  0  0  0
   21.4170  136.8570   23.7750 O   0  0  0  0  0  0  0  0  0  0  0  0
   20.3050  134.7980   23.5780 C   0  0  0  0  0  0  0  0  0  0  0  0
   20.0680  133.8500   22.5250 O   0  0  0  0  0  0  0  0  0  0  0  0
   21.6250  134.6020   24.2030 C   0  0  0  0  0  0  0  0  0  0  0  0
   22.5560  134.0590   23.2790 O   0  0  0  0  0  0  0  0  0  0  0  0
   22.0650  135.9780   24.7110 C   0  0  0  0  0  0  0  0  0  0  0  0
   21.5080  136.2230   26.0960 N   0  0  0  0  0  0  0  0  0  0  0  0
   20.5620  137.1760   26.4510 C   0  0  0  0  0  0  0  0  0  0  0  0
   20.2460  137.1770   27.7180 N   0  0  0  0  0  0  0  0  0  0  0  0
   21.0200  136.1600   28.2780 C   0  0  0  0  0  0  0  0  0  0  0  0
   21.0830  135.7080   29.6330 C   0  0  0  0  0  0  0  0  0  0  0  0
   20.4500  136.1420   30.5910 O   0  0  0  0  0  0  0  0  0  0  0  0
   21.9820  134.6570   29.8120 N   0  0  0  0  0  0  0  0  0  0  0  0
   22.7490  134.0880   28.7930 C   0  0  0  0  0  0  0  0  0  0  0  0
   23.5620  133.0880   29.1300 N   0  0  0  0  0  0  0  0  0  0  0  0
   22.6940  134.5110   27.5010 N   0  0  0  0  0  0  0  0  0  0  0  0
   21.8030  135.5560   27.3030 C   0  0  0  0  0  0  0  0  0  0  0  0
   18.5853  139.3522   20.3081 H   0  0  0  0  0  0  0  0  0  0  0  0
   17.7913  139.9195   23.7064 H   0  0  0  0  0  0  0  0  0  0  0  0
   18.7835  136.8234   24.2193 H   0  0  0  0  0  0  0  0  0  0  0  0
   18.3206  136.1673   22.6030 H   0  0  0  0  0  0  0  0  0  0  0  0
   20.6455  136.2146   21.9449 H   0  0  0  0  0  0  0  0  0  0  0  0
   19.4859  134.6614   24.2994 H   0  0  0  0  0  0  0  0  0  0  0  0
   19.8476  132.9685   22.9180 H   0  0  0  0  0  0  0  0  0  0  0  0
   21.5723  133.8793   25.0306 H   0  0  0  0  0  0  0  0  0  0  0  0
   23.2972  133.6267   23.7728 H   0  0  0  0  0  0  0  0  0  0  0  0
   23.1560  136.1017   24.7771 H   0  0  0  0  0  0  0  0  0  0  0  0
   20.1161  137.8720   25.7252 H   0  0  0  0  0  0  0  0  0  0  0  0
   22.0877  134.2736   30.7621 H   0  0  0  0  0  0  0  0  0  0  0  0
   23.7340  132.8765   30.1233 H   0  0  0  0  0  0  0  0  0  0  0  0
   24.0187  132.5263   28.3973 H   0  0  0  0  0  0  0  0  0  0  0  0
  1  2  2  0
  1  3  1  0
  1  4  1  0
  1  5  1  0
  5  6  1  0
  6  7  1  0
  7  8  1  0
  7  9  1  0
  8 13  1  0
  9 10  1  0
  9 11  1  0
 11 12  1  0
 11 13  1  0
 13 14  1  0
 14 15  1  0
 14 24  1  0
 15 16  2  0
 16 17  1  0
 17 18  1  0
 17 24  2  0
 18 19  2  0
 18 20  1  0
 20 21  1  0
 21 22  1  0
 21 23  2  0
 23 24  1  0
  3 25  1  0
  4 26  1  0
  6 27  1  0
  6 28  1  0
  7 29  1  0
  9 30  1  0
 10 31  1  0
 11 32  1  0
 12 33  1  0
 13 34  1  0
 15 35  1  0
 20 36  1  0
 22 37  1  0
 22 38  1  0
A    1
P
A    2
O1P
A    3
O2P
A    4
O3P
A    5
O5'
A    6
C5'
A    7
C4'
A    8
O4'
A    9
C3'
A   10
O3'
A   11
C2'
A   12
O2'
A   13
C1'
A   14
N9
A   15
C8
A   16
N7
A   17
C5
A   18
C6
A   19
O6
A   20
N1
A   21
C2
A   22
N2
A   23
N3
A   24
C4
M  END
