1GQX_CFA_A_1289
     RDKit          3D

 19 19  0  0  0  0  0  0  0  0999 V2000
   -3.5910    5.6530   -4.1120 C   0  0  0  0  0  0  0  0  0  0  0  0
   -2.3040    5.3170   -3.3880 C   0  0  0  0  0  0  0  0  0  0  0  0
    0.0310    5.6710   -3.4110 C   0  0  0  0  0  0  0  0  0  0  0  0
    1.1560    6.2900   -3.9550 C   0  0  0  0  0  0  0  0  0  0  0  0
    2.3760    6.2390   -3.3420 C   0  0  0  0  0  0  0  0  0  0  0  0
    2.5100    5.5650   -2.1560 C   0  0  0  0  0  0  0  0  0  0  0  0
    1.4280    4.9320   -1.6040 C   0  0  0  0  0  0  0  0  0  0  0  0
    0.9940    7.1510   -5.4510 Cl  0  0  0  0  0  0  0  0  0  0  0  0
    0.2070    4.9790   -2.2240 C   0  0  0  0  0  0  0  0  0  0  0  0
   -4.4220    6.4200   -3.6010 O   0  0  0  0  0  0  0  0  0  0  0  0
   -3.6720    5.1030   -5.2320 O   0  0  0  0  0  0  0  0  0  0  0  0
   -1.1420    5.7910   -4.0850 O   0  0  0  0  0  0  0  0  0  0  0  0
    4.0420    5.5320   -1.3430 Cl  0  0  0  0  0  0  0  0  0  0  0  0
   -2.3297    5.7788   -2.3900 H   0  0  0  0  0  0  0  0  0  0  0  0
   -2.2322    4.2212   -3.3245 H   0  0  0  0  0  0  0  0  0  0  0  0
    3.2453    6.7358   -3.7975 H   0  0  0  0  0  0  0  0  0  0  0  0
    1.5399    4.3828   -0.6575 H   0  0  0  0  0  0  0  0  0  0  0  0
   -0.6491    4.4577   -1.7709 H   0  0  0  0  0  0  0  0  0  0  0  0
   -4.4940    6.4865   -2.6159 H   0  0  0  0  0  0  0  0  0  0  0  0
  1  2  1  0
  1 10  1  0
  1 11  2  0
  2 12  1  0
  3  4  2  0
  3  9  1  0
  3 12  1  0
  4  5  1  0
  4  8  1  0
  5  6  2  0
  6  7  1  0
  6 13  1  0
  7  9  2  0
  2 14  1  0
  2 15  1  0
  5 16  1  0
  7 17  1  0
  9 18  1  0
 10 19  1  0
A    1
C1
A    2
C2
A    3
C1'
A    4
C2'
A    5
C3'
A    6
C4'
A    7
C5'
A    8
CL3
A    9
C6'
A   10
O1
A   11
O2
A   12
O1'
A   13
CL4
M  END
