1LRH_NLA_A_5190
     RDKit          3D

 24 25  0  0  0  0  0  0  0  0999 V2000
    9.6520   57.4480   63.6220 C   0  0  0  0  0  0  0  0  0  0  0  0
   10.7730   56.9010   62.9800 C   0  0  0  0  0  0  0  0  0  0  0  0
   10.7900   56.7280   61.5750 C   0  0  0  0  0  0  0  0  0  0  0  0
    9.6730   57.1640   60.8110 C   0  0  0  0  0  0  0  0  0  0  0  0
    8.5930   57.7260   61.4140 C   0  0  0  0  0  0  0  0  0  0  0  0
    8.5280   57.8860   62.8060 C   0  0  0  0  0  0  0  0  0  0  0  0
    7.3710   58.4550   63.4740 C   0  0  0  0  0  0  0  0  0  0  0  0
    7.3460   58.5890   64.8440 C   0  0  0  0  0  0  0  0  0  0  0  0
    8.4520   58.1850   65.6290 C   0  0  0  0  0  0  0  0  0  0  0  0
    9.5930   57.6390   65.0590 C   0  0  0  0  0  0  0  0  0  0  0  0
   12.0190   56.4100   63.8130 C   0  0  0  0  0  0  0  0  0  0  0  0
   12.5400   55.1320   63.2350 C   0  0  0  0  0  0  0  0  0  0  0  0
   12.1150   53.9180   63.4710 O   0  0  0  0  0  0  0  0  0  0  0  0
   13.4750   55.3890   62.3510 O   0  0  0  0  0  0  0  0  0  0  0  0
   11.6557   56.2626   61.0811 H   0  0  0  0  0  0  0  0  0  0  0  0
    9.6834   57.0448   59.7175 H   0  0  0  0  0  0  0  0  0  0  0  0
    7.7486   58.0639   60.7952 H   0  0  0  0  0  0  0  0  0  0  0  0
    6.5055   58.7824   62.8792 H   0  0  0  0  0  0  0  0  0  0  0  0
    6.4574   59.0144   65.3333 H   0  0  0  0  0  0  0  0  0  0  0  0
    8.4058   58.3072   66.7212 H   0  0  0  0  0  0  0  0  0  0  0  0
   10.4463   57.3531   65.6917 H   0  0  0  0  0  0  0  0  0  0  0  0
   12.8077   57.1759   63.7770 H   0  0  0  0  0  0  0  0  0  0  0  0
   11.7157   56.2409   64.8568 H   0  0  0  0  0  0  0  0  0  0  0  0
   14.3847   55.6390   62.6511 H   0  0  0  0  0  0  0  0  0  0  0  0
  1  2  2  0
  1  6  1  0
  1 10  1  0
  2  3  1  0
  2 11  1  0
  3  4  2  0
  4  5  1  0
  5  6  2  0
  6  7  1  0
  7  8  2  0
  8  9  1  0
  9 10  2  0
 11 12  1  0
 12 13  2  0
 12 14  1  0
  3 15  1  0
  4 16  1  0
  5 17  1  0
  7 18  1  0
  8 19  1  0
  9 20  1  0
 10 21  1  0
 11 22  1  0
 11 23  1  0
 14 24  1  0
A    1
C1
A    2
C2
A    3
C3
A    4
C4
A    5
C5
A    6
C6
A    7
C7
A    8
C8
A    9
C9
A   10
C10
A   11
C11
A   12
C12
A   13
O1
A   14
O2
M  END
