2P3U_663_B_500
     RDKit          3D

 53 56  0  0  0  0  0  0  0  0999 V2000
   10.6570    0.6260   17.8960 C   0  0  0  0  0  0  0  0  0  0  0  0
    9.5530    0.9930   16.9720 N   0  0  0  0  0  0  0  0  0  0  0  0
    9.2230    0.2710   15.9100 C   0  0  0  0  0  0  0  0  0  0  0  0
    8.0330    0.9560   15.2820 C   0  0  0  0  0  0  0  0  0  0  0  0
    7.9100    2.1640   16.0970 N   0  0  0  0  0  0  0  0  0  0  0  0
    8.8130    2.1120   17.0870 C   0  0  0  0  0  0  0  0  0  0  0  0
    8.9910    3.1860   18.1690 C   0  0  0  0  0  0  0  0  0  0  0  0
    7.9270    3.0380   19.2730 C   0  0  0  0  0  0  0  0  0  0  0  0
    7.3260    4.1560   19.9490 C   0  0  0  0  0  0  0  0  0  0  0  0
    7.7190    5.7970   19.5400 Cl  0  0  0  0  0  0  0  0  0  0  0  0
    7.4690    1.8400   19.7380 C   0  0  0  0  0  0  0  0  0  0  0  0
    6.3510    2.1340   20.9540 S   0  0  0  0  0  0  0  0  0  0  0  0
    6.4050    3.7810   20.9410 C   0  0  0  0  0  0  0  0  0  0  0  0
    5.6200    4.6740   21.9260 C   0  0  0  0  0  0  0  0  0  0  0  0
    4.7680    4.1630   22.6540 O   0  0  0  0  0  0  0  0  0  0  0  0
    5.9530    5.9840   21.9600 N   0  0  0  0  0  0  0  0  0  0  0  0
    5.3240    6.8600   22.7870 C   0  0  0  0  0  0  0  0  0  0  0  0
    3.9210    7.0890   22.6780 C   0  0  0  0  0  0  0  0  0  0  0  0
    3.2000    6.4840   21.6760 O   0  0  0  0  0  0  0  0  0  0  0  0
    2.0450    5.7840   22.1880 C   0  0  0  0  0  0  0  0  0  0  0  0
    3.2840    7.9820   23.5680 C   0  0  0  0  0  0  0  0  0  0  0  0
    4.0220    8.6460   24.5540 C   0  0  0  0  0  0  0  0  0  0  0  0
    3.2480    9.7400   25.6450 Cl  0  0  0  0  0  0  0  0  0  0  0  0
    5.3920    8.4310   24.6570 C   0  0  0  0  0  0  0  0  0  0  0  0
    6.0570    7.5560   23.7850 C   0  0  0  0  0  0  0  0  0  0  0  0
    7.5930    7.5160   23.8700 C   0  0  0  0  0  0  0  0  0  0  0  0
    8.2850    7.5080   22.8500 O   0  0  0  0  0  0  0  0  0  0  0  0
    8.0670    7.4200   25.1270 N   0  0  0  0  0  0  0  0  0  0  0  0
    9.3720    7.4350   25.4490 C   0  0  0  0  0  0  0  0  0  0  0  0
    9.7460    7.1880   26.7800 C   0  0  0  0  0  0  0  0  0  0  0  0
   11.1070    7.1190   27.1080 C   0  0  0  0  0  0  0  0  0  0  0  0
   12.0640    7.3040   26.1010 C   0  0  0  0  0  0  0  0  0  0  0  0
   13.7530    7.1460   26.4510 Cl  0  0  0  0  0  0  0  0  0  0  0  0
   11.6400    7.5580   24.7930 C   0  0  0  0  0  0  0  0  0  0  0  0
   10.3320    7.6090   24.4980 N   0  0  0  0  0  0  0  0  0  0  0  0
   10.3174    0.7389   18.9362 H   0  0  0  0  0  0  0  0  0  0  0  0
   10.9522   -0.4186   17.7180 H   0  0  0  0  0  0  0  0  0  0  0  0
   11.5188    1.2860   17.7180 H   0  0  0  0  0  0  0  0  0  0  0  0
    9.7181   -0.6455   15.5565 H   0  0  0  0  0  0  0  0  0  0  0  0
    7.4172    0.6303   14.4307 H   0  0  0  0  0  0  0  0  0  0  0  0
    9.9906    3.0837   18.6166 H   0  0  0  0  0  0  0  0  0  0  0  0
    8.8774    4.1758   17.7028 H   0  0  0  0  0  0  0  0  0  0  0  0
    7.7802    0.8487   19.3767 H   0  0  0  0  0  0  0  0  0  0  0  0
    6.7030    6.3270   21.3430 H   0  0  0  0  0  0  0  0  0  0  0  0
    2.0662    5.7968   23.2877 H   0  0  0  0  0  0  0  0  0  0  0  0
    1.1291    6.2791   21.8331 H   0  0  0  0  0  0  0  0  0  0  0  0
    2.0601    4.7429   21.8331 H   0  0  0  0  0  0  0  0  0  0  0  0
    2.2011    8.1565   23.4854 H   0  0  0  0  0  0  0  0  0  0  0  0
    5.9643    8.9562   25.4358 H   0  0  0  0  0  0  0  0  0  0  0  0
    7.3840    7.3290   25.8926 H   0  0  0  0  0  0  0  0  0  0  0  0
    8.9792    7.0502   27.5566 H   0  0  0  0  0  0  0  0  0  0  0  0
   11.4203    6.9219   28.1438 H   0  0  0  0  0  0  0  0  0  0  0  0
   12.3848    7.7173   23.9994 H   0  0  0  0  0  0  0  0  0  0  0  0
  1  2  1  0
  2  3  1  0
  2  6  1  0
  3  4  2  0
  4  5  1  0
  5  6  2  0
  6  7  1  0
  7  8  1  0
  8 11  2  0
  8  9  1  0
  9 10  1  0
  9 13  2  0
 11 12  1  0
 12 13  1  0
 13 14  1  0
 14 16  1  0
 14 15  2  0
 16 17  1  0
 17 18  2  0
 17 25  1  0
 18 19  1  0
 18 21  1  0
 19 20  1  0
 21 22  2  0
 22 24  1  0
 22 23  1  0
 24 25  2  0
 25 26  1  0
 26 27  2  0
 26 28  1  0
 28 29  1  0
 29 35  1  0
 29 30  2  0
 30 31  1  0
 31 32  2  0
 32 34  1  0
 32 33  1  0
 34 35  2  0
  1 36  1  0
  1 37  1  0
  1 38  1  0
  3 39  1  0
  4 40  1  0
  7 41  1  0
  7 42  1  0
 11 43  1  0
 16 44  1  0
 20 45  1  0
 20 46  1  0
 20 47  1  0
 21 48  1  0
 24 49  1  0
 28 50  1  0
 30 51  1  0
 31 52  1  0
 34 53  1  0
A    1
C34
A    2
N33
A    3
C32
A    4
C31
A    5
N30
A    6
C29
A    7
C28
A    8
C25
A    9
C26
A   10
CL3
A   11
C24
A   12
S23
A   13
C22
A   14
C20
A   15
O21
A   16
N19
A   17
C12
A   18
C13
A   19
O17
A   20
C18
A   21
C14
A   22
C15
A   23
CL2
A   24
C16
A   25
C11
A   26
C9
A   27
O10
A   28
N7
A   29
C1
A   30
C6
A   31
C5
A   32
C4
A   33
CL1
A   34
C3
A   35
N2
M  END
