2P41_G1G_A_1001
     RDKit          3D

 85 90  0  0  0  0  0  0  0  0999 V2000
    0.5370   85.8770   29.4200 O   0  0  0  0  0  0  0  0  0  0  0  0
   -0.6500   85.9130   28.9860 C   0  0  0  0  0  0  0  0  0  0  0  0
   -1.6830   85.4510   29.7450 N   0  0  0  0  0  0  0  0  0  0  0  0
   -2.9770   85.4820   29.3010 C   0  0  0  0  0  0  0  0  0  0  0  0
   -3.9740   85.0180   30.1010 N   0  0  0  0  0  0  0  0  0  0  0  0
   -3.2550   85.9650   28.0670 N   0  0  0  0  0  0  0  0  0  0  0  0
   -0.9140   86.4220   27.7310 C   0  0  0  0  0  0  0  0  0  0  0  0
   -2.2290   86.4350   27.2890 C   0  0  0  0  0  0  0  0  0  0  0  0
   -0.1420   86.9390   26.7390 N   0  0  0  0  0  0  0  0  0  0  0  0
   -0.9530   87.2660   25.7100 C   0  0  0  0  0  0  0  0  0  0  0  0
   -2.2190   86.9540   26.0620 N   0  0  0  0  0  0  0  0  0  0  0  0
   -3.4660   87.1740   25.3100 C   0  0  0  0  0  0  0  0  0  0  0  0
   -3.6940   86.2500   24.2500 O   0  0  0  0  0  0  0  0  0  0  0  0
   -3.4580   88.5410   24.6240 C   0  0  0  0  0  0  0  0  0  0  0  0
   -2.6840   90.7550   25.1100 C   0  0  0  0  0  0  0  0  0  0  0  0
   -3.7450   89.6150   25.5240 O   0  0  0  0  0  0  0  0  0  0  0  0
   -4.5250   88.3510   23.5670 C   0  0  0  0  0  0  0  0  0  0  0  0
   -5.8140   88.5200   24.1680 O   0  0  0  0  0  0  0  0  0  0  0  0
   -4.3680   86.8920   23.1590 C   0  0  0  0  0  0  0  0  0  0  0  0
   -3.4780   86.7170   21.9410 C   0  0  0  0  0  0  0  0  0  0  0  0
   -4.0680   87.2790   20.7760 O   0  0  0  0  0  0  0  0  0  0  0  0
   -4.3550   86.4520   19.4170 P   0  0  0  0  0  0  0  0  0  0  0  0
   -4.9700   87.4680   18.4830 O   0  0  0  0  0  0  0  0  0  0  0  0
   -3.1240   85.7060   18.9760 O   0  0  0  0  0  0  0  0  0  0  0  0
   -5.4580   85.3490   19.9010 O   0  0  0  0  0  0  0  0  0  0  0  0
   -5.8290   84.0480   19.0500 P   0  0  0  0  0  0  0  0  0  0  0  0
   -5.3570   84.1740   17.6190 O   0  0  0  0  0  0  0  0  0  0  0  0
   -7.2850   83.6890   19.2660 O   0  0  0  0  0  0  0  0  0  0  0  0
   -5.0530   82.7760   19.6870 O   0  0  0  0  0  0  0  0  0  0  0  0
   -4.3690   82.4920   21.1410 P   0  0  0  0  0  0  0  0  0  0  0  0
   -3.0650   83.2420   21.2470 O   0  0  0  0  0  0  0  0  0  0  0  0
   -4.3350   80.9730   21.1180 O   0  0  0  0  0  0  0  0  0  0  0  0
   -5.3690   83.0270   22.2960 O   0  0  0  0  0  0  0  0  0  0  0  0
   -6.5290   82.2820   22.7050 C   0  0  0  0  0  0  0  0  0  0  0  0
   -6.6430   82.3590   24.2360 C   0  0  0  0  0  0  0  0  0  0  0  0
   -6.6450   83.7870   24.7940 C   0  0  0  0  0  0  0  0  0  0  0  0
   -7.9470   84.3690   24.7620 O   0  0  0  0  0  0  0  0  0  0  0  0
   -6.1390   83.6100   26.2140 C   0  0  0  0  0  0  0  0  0  0  0  0
   -7.1950   83.1300   27.0680 O   0  0  0  0  0  0  0  0  0  0  0  0
   -5.5030   81.7520   24.8360 O   0  0  0  0  0  0  0  0  0  0  0  0
   -5.1370   82.4820   26.0190 C   0  0  0  0  0  0  0  0  0  0  0  0
   -3.7160   82.9080   25.7650 N   0  0  0  0  0  0  0  0  0  0  0  0
   -2.7730   82.7910   26.6810 C   0  0  0  0  0  0  0  0  0  0  0  0
   -2.8260   82.3500   27.9620 N   0  0  0  0  0  0  0  0  0  0  0  0
   -1.6920   82.3300   28.6840 C   0  0  0  0  0  0  0  0  0  0  0  0
   -1.7780   81.8870   29.9530 N   0  0  0  0  0  0  0  0  0  0  0  0
   -0.5080   82.7430   28.1660 N   0  0  0  0  0  0  0  0  0  0  0  0
   -3.1520   83.3710   24.6320 C   0  0  0  0  0  0  0  0  0  0  0  0
   -1.8320   83.5880   24.8440 N   0  0  0  0  0  0  0  0  0  0  0  0
   -0.8950   84.1150   23.8160 C   0  0  0  0  0  0  0  0  0  0  0  0
   -1.5830   83.2140   26.1220 C   0  0  0  0  0  0  0  0  0  0  0  0
   -0.4100   83.1850   26.9000 C   0  0  0  0  0  0  0  0  0  0  0  0
    0.7140   83.5390   26.4770 O   0  0  0  0  0  0  0  0  0  0  0  0
   -1.4841   85.0673   30.6800 H   0  0  0  0  0  0  0  0  0  0  0  0
   -3.8758   85.0637   31.1253 H   0  0  0  0  0  0  0  0  0  0  0  0
   -4.8273   84.6209   29.6826 H   0  0  0  0  0  0  0  0  0  0  0  0
   -0.6380   87.7086   24.7535 H   0  0  0  0  0  0  0  0  0  0  0  0
   -4.2456   87.0661   26.0785 H   0  0  0  0  0  0  0  0  0  0  0  0
   -2.4783   88.8297   24.2157 H   0  0  0  0  0  0  0  0  0  0  0  0
   -2.2611   91.2094   26.0181 H   0  0  0  0  0  0  0  0  0  0  0  0
   -1.8759   90.3050   24.5147 H   0  0  0  0  0  0  0  0  0  0  0  0
   -3.1908   91.5288   24.5147 H   0  0  0  0  0  0  0  0  0  0  0  0
   -4.4341   89.0564   22.7278 H   0  0  0  0  0  0  0  0  0  0  0  0
   -5.7226   88.5080   25.1537 H   0  0  0  0  0  0  0  0  0  0  0  0
   -5.3605   86.4806   22.9230 H   0  0  0  0  0  0  0  0  0  0  0  0
   -2.5148   87.2140   22.1285 H   0  0  0  0  0  0  0  0  0  0  0  0
   -3.3376   85.6395   21.7697 H   0  0  0  0  0  0  0  0  0  0  0  0
   -2.6203   85.4008   19.7718 H   0  0  0  0  0  0  0  0  0  0  0  0
   -7.4729   83.6427   20.2369 H   0  0  0  0  0  0  0  0  0  0  0  0
   -2.8365   83.3734   22.2013 H   0  0  0  0  0  0  0  0  0  0  0  0
   -7.4292   82.7141   22.2436 H   0  0  0  0  0  0  0  0  0  0  0  0
   -6.4353   81.2334   22.3862 H   0  0  0  0  0  0  0  0  0  0  0  0
   -7.5969   81.8619   24.4661 H   0  0  0  0  0  0  0  0  0  0  0  0
   -6.0231   84.4756   24.2032 H   0  0  0  0  0  0  0  0  0  0  0  0
   -8.2673   84.5122   25.6877 H   0  0  0  0  0  0  0  0  0  0  0  0
   -5.7464   84.5322   26.6672 H   0  0  0  0  0  0  0  0  0  0  0  0
   -6.9331   83.2490   28.0153 H   0  0  0  0  0  0  0  0  0  0  0  0
   -5.1708   81.9175   26.9625 H   0  0  0  0  0  0  0  0  0  0  0  0
   -1.6507   82.5427   30.7371 H   0  0  0  0  0  0  0  0  0  0  0  0
   -1.9711   80.8926   30.1394 H   0  0  0  0  0  0  0  0  0  0  0  0
    0.3356   82.7173   28.7564 H   0  0  0  0  0  0  0  0  0  0  0  0
   -3.6809   83.5454   23.6834 H   0  0  0  0  0  0  0  0  0  0  0  0
   -0.0393   84.5963   24.3121 H   0  0  0  0  0  0  0  0  0  0  0  0
   -0.5361   83.2864   23.1878 H   0  0  0  0  0  0  0  0  0  0  0  0
   -1.4167   84.8521   23.1878 H   0  0  0  0  0  0  0  0  0  0  0  0
  1  2  2  0
  2  7  1  0
  2  3  1  0
  3  4  1  0
  4  6  2  0
  4  5  1  0
  6  8  1  0
  7  9  1  0
  7  8  2  0
  8 11  1  0
  9 10  2  0
 10 11  1  0
 11 12  1  0
 12 13  1  0
 12 14  1  0
 13 19  1  0
 14 17  1  0
 14 16  1  0
 15 16  1  0
 17 19  1  0
 17 18  1  0
 19 20  1  0
 20 21  1  0
 21 22  1  0
 22 23  2  0
 22 24  1  0
 22 25  1  0
 25 26  1  0
 26 27  2  0
 26 28  1  0
 26 29  1  0
 29 30  1  0
 30 32  2  0
 30 31  1  0
 30 33  1  0
 33 34  1  0
 34 35  1  0
 35 36  1  0
 35 40  1  0
 36 37  1  0
 36 38  1  0
 38 41  1  0
 38 39  1  0
 40 41  1  0
 41 42  1  0
 42 48  2  0
 42 43  1  0
 43 51  2  0
 43 44  1  0
 44 45  2  0
 45 47  1  0
 45 46  1  0
 47 52  1  0
 48 49  1  0
 49 50  1  0
 49 51  1  0
 51 52  1  0
 52 53  2  0
  3 54  1  0
  5 55  1  0
  5 56  1  0
 10 57  1  0
 12 58  1  0
 14 59  1  0
 15 60  1  0
 15 61  1  0
 15 62  1  0
 17 63  1  0
 18 64  1  0
 19 65  1  0
 20 66  1  0
 20 67  1  0
 24 68  1  0
 28 69  1  0
 31 70  1  0
 34 71  1  0
 34 72  1  0
 35 73  1  0
 36 74  1  0
 37 75  1  0
 38 76  1  0
 39 77  1  0
 41 78  1  0
 46 79  1  0
 46 80  1  0
 47 81  1  0
 48 82  1  0
 50 83  1  0
 50 84  1  0
 50 85  1  0
M  CHG  1  42   1
A    1
O36
A    2
C36
A    3
N31
A    4
C32
A    5
N32
A    6
N33
A    7
C35
A    8
C34
A    9
N37
A   10
C38
A   11
N39
A   12
C41
A   13
O44
A   14
C42
A   15
C46
A   16
O42
A   17
C43
A   18
O43
A   19
C44
A   20
C45
A   21
O45
A   22
PA
A   23
O1A
A   24
O2A
A   25
O1B
A   26
PB
A   27
O2B
A   28
O3B
A   29
O3A
A   30
PG
A   31
O1G
A   32
O2G
A   33
O25
A   34
C25
A   35
C24
A   36
C23
A   37
O23
A   38
C22
A   39
O22
A   40
O24
A   41
C21
A   42
N19
A   43
C14
A   44
N13
A   45
C12
A   46
N12
A   47
N11
A   48
C18
A   49
N17
A   50
C37
A   51
C15
A   52
C16
A   53
O16
M  END
