2P4I_MR9_A_301
     RDKit          3D

 68 72  0  0  0  0  0  0  0  0999 V2000
   25.9530    5.7030   91.1250 C   0  0  0  0  0  0  0  0  0  0  0  0
   26.8990    4.5000   91.1830 C   0  0  0  0  0  0  0  0  0  0  0  0
   26.9740    3.9770   92.5290 O   0  0  0  0  0  0  0  0  0  0  0  0
   25.6500    3.7690   93.1560 C   0  0  0  0  0  0  0  0  0  0  0  0
   24.6620    4.9360   92.9980 C   0  0  0  0  0  0  0  0  0  0  0  0
   24.6170    5.2400   91.5560 N   0  0  0  0  0  0  0  0  0  0  0  0
   23.6760    6.1310   91.2010 C   0  0  0  0  0  0  0  0  0  0  0  0
   23.4400    7.2910   91.9540 C   0  0  0  0  0  0  0  0  0  0  0  0
   22.4690    8.1870   91.5410 C   0  0  0  0  0  0  0  0  0  0  0  0
   21.7200    7.9420   90.3960 C   0  0  0  0  0  0  0  0  0  0  0  0
   20.6750    8.9700   89.9520 C   0  0  0  0  0  0  0  0  0  0  0  0
   21.3370   10.0020   89.4820 F   0  0  0  0  0  0  0  0  0  0  0  0
   19.9610    9.3860   90.9720 F   0  0  0  0  0  0  0  0  0  0  0  0
   19.8730    8.5370   88.9830 F   0  0  0  0  0  0  0  0  0  0  0  0
   21.9590    6.8050   89.6390 C   0  0  0  0  0  0  0  0  0  0  0  0
   22.9470    5.8980   90.0270 C   0  0  0  0  0  0  0  0  0  0  0  0
   23.1440    4.7540   89.3430 N   0  0  0  0  0  0  0  0  0  0  0  0
   22.9340    4.5240   88.0380 C   0  0  0  0  0  0  0  0  0  0  0  0
   22.5250    5.3640   87.2380 O   0  0  0  0  0  0  0  0  0  0  0  0
   23.1680    3.0730   87.5770 C   0  0  0  0  0  0  0  0  0  0  0  0
   22.8430    2.7280   86.2630 C   0  0  0  0  0  0  0  0  0  0  0  0
   23.6130    2.0750   88.4490 C   0  0  0  0  0  0  0  0  0  0  0  0
   23.7750    0.7660   87.9970 C   0  0  0  0  0  0  0  0  0  0  0  0
   23.4720    0.4340   86.6820 C   0  0  0  0  0  0  0  0  0  0  0  0
   23.6560   -1.0190   86.1930 C   0  0  0  0  0  0  0  0  0  0  0  0
   23.0190    1.4230   85.8110 C   0  0  0  0  0  0  0  0  0  0  0  0
   22.7010    1.1280   84.5140 O   0  0  0  0  0  0  0  0  0  0  0  0
   23.6450    1.1290   83.5410 C   0  0  0  0  0  0  0  0  0  0  0  0
   24.9540    1.1830   83.8440 N   0  0  0  0  0  0  0  0  0  0  0  0
   25.9090    1.1820   82.9090 C   0  0  0  0  0  0  0  0  0  0  0  0
   25.5610    1.1260   81.5590 C   0  0  0  0  0  0  0  0  0  0  0  0
   24.2100    1.0640   81.2150 C   0  0  0  0  0  0  0  0  0  0  0  0
   23.2300    1.0750   82.2130 C   0  0  0  0  0  0  0  0  0  0  0  0
   21.8740    0.9870   81.8520 C   0  0  0  0  0  0  0  0  0  0  0  0
   21.5510    0.8720   80.5530 N   0  0  0  0  0  0  0  0  0  0  0  0
   20.8370    0.9670   82.7960 C   0  0  0  0  0  0  0  0  0  0  0  0
   19.5250    0.8470   82.3540 C   0  0  0  0  0  0  0  0  0  0  0  0
   19.2880    0.7380   81.0620 N   0  0  0  0  0  0  0  0  0  0  0  0
   20.2780    0.7480   80.1600 C   0  0  0  0  0  0  0  0  0  0  0  0
   20.0010    0.6550   78.8620 N   0  0  0  0  0  0  0  0  0  0  0  0
   21.0880    0.7800   77.8750 C   0  0  0  0  0  0  0  0  0  0  0  0
   26.3113    6.4951   91.7989 H   0  0  0  0  0  0  0  0  0  0  0  0
   25.9102    6.1129   90.1051 H   0  0  0  0  0  0  0  0  0  0  0  0
   26.5262    3.7140   90.5098 H   0  0  0  0  0  0  0  0  0  0  0  0
   27.9033    4.8228   90.8711 H   0  0  0  0  0  0  0  0  0  0  0  0
   25.1959    2.8748   92.7042 H   0  0  0  0  0  0  0  0  0  0  0  0
   25.8352    3.6690   94.2357 H   0  0  0  0  0  0  0  0  0  0  0  0
   23.6646    4.6434   93.3579 H   0  0  0  0  0  0  0  0  0  0  0  0
   24.9770    5.8119   93.5841 H   0  0  0  0  0  0  0  0  0  0  0  0
   24.0225    7.4871   92.8663 H   0  0  0  0  0  0  0  0  0  0  0  0
   22.2884    9.1018   92.1246 H   0  0  0  0  0  0  0  0  0  0  0  0
   21.3685    6.6171   88.7302 H   0  0  0  0  0  0  0  0  0  0  0  0
   23.5000    3.9571   89.8899 H   0  0  0  0  0  0  0  0  0  0  0  0
   22.4450    3.4932   85.5802 H   0  0  0  0  0  0  0  0  0  0  0  0
   23.8365    2.3237   89.4970 H   0  0  0  0  0  0  0  0  0  0  0  0
   24.1448   -0.0084   88.6852 H   0  0  0  0  0  0  0  0  0  0  0  0
   23.7410   -1.6899   87.0606 H   0  0  0  0  0  0  0  0  0  0  0  0
   22.7880   -1.3140   85.5850 H   0  0  0  0  0  0  0  0  0  0  0  0
   24.5701   -1.0883   85.5850 H   0  0  0  0  0  0  0  0  0  0  0  0
   26.9680    1.2253   83.2034 H   0  0  0  0  0  0  0  0  0  0  0  0
   26.3375    1.1306   80.7799 H   0  0  0  0  0  0  0  0  0  0  0  0
   23.9151    1.0064   80.1568 H   0  0  0  0  0  0  0  0  0  0  0  0
   21.0589    1.0452   83.8705 H   0  0  0  0  0  0  0  0  0  0  0  0
   18.6936    0.8430   83.0743 H   0  0  0  0  0  0  0  0  0  0  0  0
   19.0326    0.4966   78.5489 H   0  0  0  0  0  0  0  0  0  0  0  0
   22.0486    0.8905   78.3995 H   0  0  0  0  0  0  0  0  0  0  0  0
   21.1160   -0.1208   77.2444 H   0  0  0  0  0  0  0  0  0  0  0  0
   20.9108    1.6637   77.2444 H   0  0  0  0  0  0  0  0  0  0  0  0
  1  2  1  0
  1  6  1  0
  2  3  1  0
  3  4  1  0
  4  5  1  0
  5  6  1  0
  6  7  1  0
  7 16  1  0
  7  8  2  0
  8  9  1  0
  9 10  2  0
 10 15  1  0
 10 11  1  0
 11 14  1  0
 11 12  1  0
 11 13  1  0
 15 16  2  0
 16 17  1  0
 17 18  1  0
 18 19  2  0
 18 20  1  0
 20 21  2  0
 20 22  1  0
 21 26  1  0
 22 23  2  0
 23 24  1  0
 24 26  2  0
 24 25  1  0
 26 27  1  0
 27 28  1  0
 28 33  1  0
 28 29  2  0
 29 30  1  0
 30 31  2  0
 31 32  1  0
 32 33  2  0
 33 34  1  0
 34 35  2  0
 34 36  1  0
 35 39  1  0
 36 37  2  0
 37 38  1  0
 38 39  2  0
 39 40  1  0
 40 41  1  0
  1 42  1  0
  1 43  1  0
  2 44  1  0
  2 45  1  0
  4 46  1  0
  4 47  1  0
  5 48  1  0
  5 49  1  0
  8 50  1  0
  9 51  1  0
 15 52  1  0
 17 53  1  0
 21 54  1  0
 22 55  1  0
 23 56  1  0
 25 57  1  0
 25 58  1  0
 25 59  1  0
 30 60  1  0
 31 61  1  0
 32 62  1  0
 36 63  1  0
 37 64  1  0
 40 65  1  0
 41 66  1  0
 41 67  1  0
 41 68  1  0
A    1
C26
A    2
C27
A    3
O3
A    4
C28
A    5
C29
A    6
N6
A    7
C20
A    8
C21
A    9
C22
A   10
C23
A   11
C25
A   12
F2
A   13
F3
A   14
F1
A   15
C24
A   16
C19
A   17
N4
A   18
C17
A   19
O2
A   20
C12
A   21
C11
A   22
C13
A   23
C14
A   24
C15
A   25
C16
A   26
C10
A   27
O1
A   28
C9
A   29
N3
A   30
C8
A   31
C7
A   32
C6
A   33
C5
A   34
C2
A   35
N1
A   36
C3
A   37
C4
A   38
N2
A   39
C1
A   40
N5
A   41
C18
M  END
