2P53_NNG_A_411
     RDKit          3D

 37 37  0  0  0  0  0  0  0  0999 V2000
  -35.3460   15.5200  -12.1780 C   0  0  0  0  0  0  0  0  0  0  0  0
  -34.8400   15.5980  -10.7170 C   0  0  0  0  0  0  0  0  0  0  0  0
  -34.8400   17.0790  -10.2370 C   0  0  0  0  0  0  0  0  0  0  0  0
  -34.0620   17.9690  -11.2290 C   0  0  0  0  0  0  0  0  0  0  0  0
  -34.6320   17.7620  -12.6620 C   0  0  0  0  0  0  0  0  0  0  0  0
  -33.8240   18.6020  -13.6700 C   0  0  0  0  0  0  0  0  0  0  0  0
  -35.2350   13.9130   -8.6440 P   0  0  0  0  0  0  0  0  0  0  0  0
  -36.5800   13.1020   -7.8030 C   0  0  0  0  0  0  0  0  0  0  0  0
  -35.7510   14.8260   -9.8860 N   0  0  0  0  0  0  0  0  0  0  0  0
  -36.7210   15.9220  -12.2530 O   0  0  0  0  0  0  0  0  0  0  0  0
  -34.2160   17.1660   -8.9520 O   0  0  0  0  0  0  0  0  0  0  0  0
  -34.2250   19.3460  -10.8500 O   0  0  0  0  0  0  0  0  0  0  0  0
  -34.5380   16.3620  -13.0400 O   0  0  0  0  0  0  0  0  0  0  0  0
  -32.4360   18.2770  -13.5480 O   0  0  0  0  0  0  0  0  0  0  0  0
  -34.3570   12.8430   -9.2120 O   0  0  0  0  0  0  0  0  0  0  0  0
  -34.3380   14.8530   -7.6980 O   0  0  0  0  0  0  0  0  0  0  0  0
  -31.5820   19.1540  -14.6070 P   0  0  0  0  0  0  0  0  0  0  0  0
  -30.1640   19.1130  -14.2030 O   0  0  0  0  0  0  0  0  0  0  0  0
  -31.7400   18.5280  -16.0800 O   0  0  0  0  0  0  0  0  0  0  0  0
  -32.0920   20.6860  -14.6280 O   0  0  0  0  0  0  0  0  0  0  0  0
  -35.2605   14.4774  -12.5182 H   0  0  0  0  0  0  0  0  0  0  0  0
  -33.8167   15.2005  -10.6481 H   0  0  0  0  0  0  0  0  0  0  0  0
  -35.8819   17.4267  -10.1780 H   0  0  0  0  0  0  0  0  0  0  0  0
  -32.9955   17.7000  -11.2133 H   0  0  0  0  0  0  0  0  0  0  0  0
  -35.6860   18.0767  -12.6694 H   0  0  0  0  0  0  0  0  0  0  0  0
  -34.1655   18.3793  -14.6917 H   0  0  0  0  0  0  0  0  0  0  0  0
  -33.9725   19.6719  -13.4621 H   0  0  0  0  0  0  0  0  0  0  0  0
  -36.4376   13.1879   -6.7156 H   0  0  0  0  0  0  0  0  0  0  0  0
  -37.5302   13.5778   -8.0870 H   0  0  0  0  0  0  0  0  0  0  0  0
  -36.6027   12.0395   -8.0870 H   0  0  0  0  0  0  0  0  0  0  0  0
  -36.4176   15.5022   -9.4870 H   0  0  0  0  0  0  0  0  0  0  0  0
  -37.0841   16.0282  -11.3381 H   0  0  0  0  0  0  0  0  0  0  0  0
  -34.9022   17.0703   -8.2448 H   0  0  0  0  0  0  0  0  0  0  0  0
  -34.2335   19.4177   -9.8626 H   0  0  0  0  0  0  0  0  0  0  0  0
  -34.5331   14.6485   -6.7492 H   0  0  0  0  0  0  0  0  0  0  0  0
  -31.9816   17.5707  -16.0075 H   0  0  0  0  0  0  0  0  0  0  0  0
  -32.2001   21.0106  -13.6990 H   0  0  0  0  0  0  0  0  0  0  0  0
  1  2  1  0
  1 10  1  0
  1 13  1  0
  2  9  1  0
  2  3  1  0
  3 11  1  0
  3  4  1  0
  4  5  1  0
  4 12  1  0
  5 13  1  0
  5  6  1  0
  6 14  1  0
  7  8  1  0
  7 15  2  0
  7 16  1  0
  7  9  1  0
 14 17  1  0
 17 18  2  0
 17 19  1  0
 17 20  1  0
  1 21  1  0
  2 22  1  0
  3 23  1  0
  4 24  1  0
  5 25  1  0
  6 26  1  0
  6 27  1  0
  8 28  1  0
  8 29  1  0
  8 30  1  0
  9 31  1  0
 10 32  1  0
 11 33  1  0
 12 34  1  0
 16 35  1  0
 19 36  1  0
 20 37  1  0
A    1
C1
A    2
C2
A    3
C3
A    4
C4
A    5
C5
A    6
C6
A    7
P7
A    8
C8
A    9
N2
A   10
O1
A   11
O3
A   12
O4
A   13
O5
A   14
O6
A   15
O71
A   16
O72
A   17
P
A   18
O1P
A   19
O2P
A   20
O3P
M  END
