2P54_735_A_469
     RDKit          3D

 54 56  0  0  0  0  0  0  0  0999 V2000
   11.3340   38.5270   30.6240 C   0  0  0  0  0  0  0  0  0  0  0  0
   12.7960   38.3530   30.2760 C   0  0  0  0  0  0  0  0  0  0  0  0
   13.7580   38.9120   31.2150 N   0  0  0  0  0  0  0  0  0  0  0  0
   15.0540   38.8430   30.8690 C   0  0  0  0  0  0  0  0  0  0  0  0
   15.1700   38.1210   29.2670 S   0  0  0  0  0  0  0  0  0  0  0  0
   13.4500   37.9350   29.1690 C   0  0  0  0  0  0  0  0  0  0  0  0
   12.8710   37.3880   27.9350 C   0  0  0  0  0  0  0  0  0  0  0  0
   13.6940   37.2080   27.0350 O   0  0  0  0  0  0  0  0  0  0  0  0
   11.5570   37.1190   27.8330 N   0  0  0  0  0  0  0  0  0  0  0  0
   10.9270   36.7910   26.5800 C   0  0  0  0  0  0  0  0  0  0  0  0
   10.6850   37.9790   25.6820 C   0  0  0  0  0  0  0  0  0  0  0  0
   10.4630   39.2930   26.1770 C   0  0  0  0  0  0  0  0  0  0  0  0
   10.2460   40.3530   25.2760 C   0  0  0  0  0  0  0  0  0  0  0  0
   10.2480   40.1170   23.8920 C   0  0  0  0  0  0  0  0  0  0  0  0
   10.0410   41.1880   23.0170 O   0  0  0  0  0  0  0  0  0  0  0  0
   11.1340   41.6070   22.1970 C   0  0  0  0  0  0  0  0  0  0  0  0
   10.7040   42.9690   21.6290 C   0  0  0  0  0  0  0  0  0  0  0  0
   12.4890   41.7080   22.9210 C   0  0  0  0  0  0  0  0  0  0  0  0
   11.2580   40.6940   20.9760 C   0  0  0  0  0  0  0  0  0  0  0  0
   12.3430   40.2150   20.6370 O   0  0  0  0  0  0  0  0  0  0  0  0
   10.2410   40.4190   20.3400 O   0  0  0  0  0  0  0  0  0  0  0  0
   10.4600   38.8120   23.3960 C   0  0  0  0  0  0  0  0  0  0  0  0
   10.6780   37.7500   24.2950 C   0  0  0  0  0  0  0  0  0  0  0  0
   16.1600   39.2560   31.7170 C   0  0  0  0  0  0  0  0  0  0  0  0
   17.4610   38.7740   31.4610 C   0  0  0  0  0  0  0  0  0  0  0  0
   18.5280   39.1460   32.2820 C   0  0  0  0  0  0  0  0  0  0  0  0
   18.3200   40.0100   33.3770 C   0  0  0  0  0  0  0  0  0  0  0  0
   17.0260   40.4990   33.6260 C   0  0  0  0  0  0  0  0  0  0  0  0
   15.9470   40.1280   32.8040 C   0  0  0  0  0  0  0  0  0  0  0  0
   19.4870   40.3810   34.2720 C   0  0  0  0  0  0  0  0  0  0  0  0
   19.2790   41.5360   34.8480 F   0  0  0  0  0  0  0  0  0  0  0  0
   20.6060   40.3670   33.5900 F   0  0  0  0  0  0  0  0  0  0  0  0
   19.5540   39.4490   35.1910 F   0  0  0  0  0  0  0  0  0  0  0  0
   11.2166   38.5410   31.7176 H   0  0  0  0  0  0  0  0  0  0  0  0
   10.9674   39.4751   30.2037 H   0  0  0  0  0  0  0  0  0  0  0  0
   10.7551   37.6914   30.2037 H   0  0  0  0  0  0  0  0  0  0  0  0
   10.9785   37.1488   28.6847 H   0  0  0  0  0  0  0  0  0  0  0  0
   11.5727   36.0793   26.0447 H   0  0  0  0  0  0  0  0  0  0  0  0
    9.9398   36.3704   26.8221 H   0  0  0  0  0  0  0  0  0  0  0  0
   10.4608   39.4811   27.2608 H   0  0  0  0  0  0  0  0  0  0  0  0
   10.0742   41.3701   25.6580 H   0  0  0  0  0  0  0  0  0  0  0  0
   10.4860   43.6594   22.4572 H   0  0  0  0  0  0  0  0  0  0  0  0
   11.5156   43.3816   21.0117 H   0  0  0  0  0  0  0  0  0  0  0  0
    9.8026   42.8408   21.0117 H   0  0  0  0  0  0  0  0  0  0  0  0
   12.3254   41.6958   24.0087 H   0  0  0  0  0  0  0  0  0  0  0  0
   13.1216   40.8545   22.6358 H   0  0  0  0  0  0  0  0  0  0  0  0
   12.9881   42.6458   22.6358 H   0  0  0  0  0  0  0  0  0  0  0  0
   12.9939   39.9276   21.3253 H   0  0  0  0  0  0  0  0  0  0  0  0
   10.4549   38.6256   22.3119 H   0  0  0  0  0  0  0  0  0  0  0  0
   10.8441   36.7335   23.9089 H   0  0  0  0  0  0  0  0  0  0  0  0
   17.6363   38.1006   30.6090 H   0  0  0  0  0  0  0  0  0  0  0  0
   19.5375   38.7624   32.0730 H   0  0  0  0  0  0  0  0  0  0  0  0
   16.8554   41.1795   34.4733 H   0  0  0  0  0  0  0  0  0  0  0  0
   14.9388   40.5174   33.0088 H   0  0  0  0  0  0  0  0  0  0  0  0
  1  2  1  0
  2  6  2  0
  2  3  1  0
  3  4  2  0
  4  5  1  0
  4 24  1  0
  5  6  1  0
  6  7  1  0
  7  8  2  0
  7  9  1  0
  9 10  1  0
 10 11  1  0
 11 23  1  0
 11 12  2  0
 12 13  1  0
 13 14  2  0
 14 15  1  0
 14 22  1  0
 15 16  1  0
 16 19  1  0
 16 17  1  0
 16 18  1  0
 19 21  2  0
 19 20  1  0
 22 23  2  0
 24 25  2  0
 24 29  1  0
 25 26  1  0
 26 27  2  0
 27 28  1  0
 27 30  1  0
 28 29  2  0
 30 32  1  0
 30 31  1  0
 30 33  1  0
  1 34  1  0
  1 35  1  0
  1 36  1  0
  9 37  1  0
 10 38  1  0
 10 39  1  0
 12 40  1  0
 13 41  1  0
 17 42  1  0
 17 43  1  0
 17 44  1  0
 18 45  1  0
 18 46  1  0
 18 47  1  0
 20 48  1  0
 22 49  1  0
 23 50  1  0
 25 51  1  0
 26 52  1  0
 28 53  1  0
 29 54  1  0
A    1
C1
A    2
C2
A    3
N3
A    4
C4
A    5
S5
A    6
C6
A    7
C7
A    8
O8
A    9
N9
A   10
C10
A   11
C11
A   12
C12
A   13
C13
A   14
C14
A   15
O15
A   16
C16
A   17
C17
A   18
C18
A   19
C19
A   20
O20
A   21
O21
A   22
C22
A   23
C23
A   24
C24
A   25
C25
A   26
C26
A   27
C27
A   28
C28
A   29
C29
A   30
C30
A   31
F31
A   32
F32
A   33
F33
M  END
