2P59_GG4_B_1208
     RDKit          3D

109113  0  0  0  0  0  0  0  0999 V2000
   84.4040   76.1350   48.9260 C   0  0  0  0  0  0  0  0  0  0  0  0
   83.6740   76.0340   50.3010 C   0  0  0  0  0  0  0  0  0  0  0  0
   76.1180   75.6710   49.7570 C   0  0  0  0  0  0  0  0  0  0  0  0
   90.3060   68.6870   49.8650 C   0  0  0  0  0  0  0  0  0  0  0  0
   76.7550   75.7760   51.1550 C   0  0  0  0  0  0  0  0  0  0  0  0
   79.1460   75.7660   49.9960 C   0  0  0  0  0  0  0  0  0  0  0  0
   78.5130   80.5220   58.6130 O   0  0  0  0  0  0  0  0  0  0  0  0
   91.2530   69.7900   50.5010 C   0  0  0  0  0  0  0  0  0  0  0  0
   78.8800   75.7390   52.5170 C   0  0  0  0  0  0  0  0  0  0  0  0
   82.3810   74.3900   52.5990 C   0  0  0  0  0  0  0  0  0  0  0  0
   84.5070   73.6370   49.3030 C   0  0  0  0  0  0  0  0  0  0  0  0
   85.9630   70.0460   50.0160 C   0  0  0  0  0  0  0  0  0  0  0  0
   78.4450   75.7150   48.6310 C   0  0  0  0  0  0  0  0  0  0  0  0
   80.3980   75.9340   52.5000 C   0  0  0  0  0  0  0  0  0  0  0  0
   87.6160   70.8710   48.2210 O   0  0  0  0  0  0  0  0  0  0  0  0
   78.5940   81.0000   56.3020 O   0  0  0  0  0  0  0  0  0  0  0  0
   83.1230   73.5110   51.5860 C   0  0  0  0  0  0  0  0  0  0  0  0
   89.1830   69.2100   49.0520 N   0  0  0  0  0  0  0  0  0  0  0  0
   85.5330   72.6260   49.8790 C   0  0  0  0  0  0  0  0  0  0  0  0
   77.0630   75.0140   48.7230 C   0  0  0  0  0  0  0  0  0  0  0  0
   80.9210   77.0130   52.8220 O   0  0  0  0  0  0  0  0  0  0  0  0
   78.2450   76.1710   51.1770 C   0  0  0  0  0  0  0  0  0  0  0  0
   82.7000   74.2760   54.1770 C   0  0  0  0  0  0  0  0  0  0  0  0
   85.1920   74.8530   48.6620 C   0  0  0  0  0  0  0  0  0  0  0  0
   85.1510   68.8490   50.5370 C   0  0  0  0  0  0  0  0  0  0  0  0
   82.4240   75.6350   54.9300 C   0  0  0  0  0  0  0  0  0  0  0  0
   81.0500   74.8100   52.1050 N   0  0  0  0  0  0  0  0  0  0  0  0
   83.2280   72.2820   51.7470 O   0  0  0  0  0  0  0  0  0  0  0  0
   86.6260   73.0130   50.3610 O   0  0  0  0  0  0  0  0  0  0  0  0
   77.9760   76.3970   57.3610 N   0  0  0  0  0  0  0  0  0  0  0  0
   84.2580   73.9930   54.3440 C   0  0  0  0  0  0  0  0  0  0  0  0
   81.7710   73.1060   54.8210 C   0  0  0  0  0  0  0  0  0  0  0  0
   84.1000   69.2030   51.5750 C   0  0  0  0  0  0  0  0  0  0  0  0
   85.0160   77.5350   48.6840 C   0  0  0  0  0  0  0  0  0  0  0  0
   86.8650   69.6570   48.7370 C   0  0  0  0  0  0  0  0  0  0  0  0
   84.6120   76.4140   51.4640 C   0  0  0  0  0  0  0  0  0  0  0  0
   90.4530   69.4040   51.2790 C   0  0  0  0  0  0  0  0  0  0  0  0
   78.2160   76.2740   53.7120 N   0  0  0  0  0  0  0  0  0  0  0  0
   87.6070   67.6810   49.7150 O   0  0  0  0  0  0  0  0  0  0  0  0
   83.6700   74.3810   50.3910 N   0  0  0  0  0  0  0  0  0  0  0  0
   85.1090   71.2710   49.8070 N   0  0  0  0  0  0  0  0  0  0  0  0
   87.9180   68.7560   49.2130 C   0  0  0  0  0  0  0  0  0  0  0  0
   84.7820   69.1510   52.9260 C   0  0  0  0  0  0  0  0  0  0  0  0
   78.7660   74.5420   55.1950 O   0  0  0  0  0  0  0  0  0  0  0  0
   78.4770   75.7330   54.9740 C   0  0  0  0  0  0  0  0  0  0  0  0
   85.7120   77.4720   51.1440 C   0  0  0  0  0  0  0  0  0  0  0  0
   85.3360   78.3720   49.9480 C   0  0  0  0  0  0  0  0  0  0  0  0
   78.0050   77.6380   58.0400 C   0  0  0  0  0  0  0  0  0  0  0  0
   78.3800   76.6720   56.0200 C   0  0  0  0  0  0  0  0  0  0  0  0
   78.6920   78.0790   55.7830 C   0  0  0  0  0  0  0  0  0  0  0  0
   78.4380   78.6800   57.0880 C   0  0  0  0  0  0  0  0  0  0  0  0
   78.5280   80.1810   57.3320 N   0  0  0  0  0  0  0  0  0  0  0  0
   83.7152   76.1332   48.0684 H   0  0  0  0  0  0  0  0  0  0  0  0
   82.7490   76.6260   50.3636 H   0  0  0  0  0  0  0  0  0  0  0  0
   75.8628   76.6827   49.4087 H   0  0  0  0  0  0  0  0  0  0  0  0
   75.2242   75.0357   49.8439 H   0  0  0  0  0  0  0  0  0  0  0  0
   90.3512   67.7016   49.3782 H   0  0  0  0  0  0  0  0  0  0  0  0
   76.1956   76.5313   51.7265 H   0  0  0  0  0  0  0  0  0  0  0  0
   76.7038   74.7657   51.5870 H   0  0  0  0  0  0  0  0  0  0  0  0
   79.5556   74.7670   50.2065 H   0  0  0  0  0  0  0  0  0  0  0  0
   79.9166   76.5469   49.9162 H   0  0  0  0  0  0  0  0  0  0  0  0
   92.3112   69.5405   50.6683 H   0  0  0  0  0  0  0  0  0  0  0  0
   91.5073   70.8068   50.1671 H   0  0  0  0  0  0  0  0  0  0  0  0
   78.7001   74.6576   52.6077 H   0  0  0  0  0  0  0  0  0  0  0  0
   82.9484   75.3313   52.6430 H   0  0  0  0  0  0  0  0  0  0  0  0
   83.9158   72.9990   48.6296 H   0  0  0  0  0  0  0  0  0  0  0  0
   86.6765   70.3225   50.8063 H   0  0  0  0  0  0  0  0  0  0  0  0
   78.3003   76.7424   48.2656 H   0  0  0  0  0  0  0  0  0  0  0  0
   79.0779   75.1376   47.9411 H   0  0  0  0  0  0  0  0  0  0  0  0
   87.9462   71.4048   48.9866 H   0  0  0  0  0  0  0  0  0  0  0  0
   89.3696   69.9371   48.3468 H   0  0  0  0  0  0  0  0  0  0  0  0
   77.2212   73.9641   49.0106 H   0  0  0  0  0  0  0  0  0  0  0  0
   76.5835   75.1026   47.7370 H   0  0  0  0  0  0  0  0  0  0  0  0
   78.2042   77.2639   51.0590 H   0  0  0  0  0  0  0  0  0  0  0  0
   85.2635   74.6932   47.5760 H   0  0  0  0  0  0  0  0  0  0  0  0
   86.1928   74.9623   49.1052 H   0  0  0  0  0  0  0  0  0  0  0  0
   84.6438   68.3796   49.6812 H   0  0  0  0  0  0  0  0  0  0  0  0
   85.8674   68.1784   51.0341 H   0  0  0  0  0  0  0  0  0  0  0  0
   82.4584   75.4658   56.0164 H   0  0  0  0  0  0  0  0  0  0  0  0
   83.1908   76.3720   54.6493 H   0  0  0  0  0  0  0  0  0  0  0  0
   81.4304   76.0145   54.6493 H   0  0  0  0  0  0  0  0  0  0  0  0
   80.5851   74.2063   51.4119 H   0  0  0  0  0  0  0  0  0  0  0  0
   84.5097   73.9473   55.4138 H   0  0  0  0  0  0  0  0  0  0  0  0
   84.5098   73.0344   53.8668 H   0  0  0  0  0  0  0  0  0  0  0  0
   84.8308   74.8018   53.8668 H   0  0  0  0  0  0  0  0  0  0  0  0
   81.8169   73.1638   55.9185 H   0  0  0  0  0  0  0  0  0  0  0  0
   80.7306   73.2400   54.4900 H   0  0  0  0  0  0  0  0  0  0  0  0
   82.1374   72.1230   54.4900 H   0  0  0  0  0  0  0  0  0  0  0  0
   83.7084   70.2137   51.3875 H   0  0  0  0  0  0  0  0  0  0  0  0
   83.2535   68.5017   51.5337 H   0  0  0  0  0  0  0  0  0  0  0  0
   85.9540   77.3988   48.1259 H   0  0  0  0  0  0  0  0  0  0  0  0
   84.2444   78.1030   48.1436 H   0  0  0  0  0  0  0  0  0  0  0  0
   86.2122   69.2317   47.9605 H   0  0  0  0  0  0  0  0  0  0  0  0
   83.9907   76.8121   52.2798 H   0  0  0  0  0  0  0  0  0  0  0  0
   85.1555   75.4917   51.7171 H   0  0  0  0  0  0  0  0  0  0  0  0
   89.6601   70.0932   51.6050 H   0  0  0  0  0  0  0  0  0  0  0  0
   90.5631   68.9955   52.2944 H   0  0  0  0  0  0  0  0  0  0  0  0
   77.5515   77.0555   53.6195 H   0  0  0  0  0  0  0  0  0  0  0  0
   84.1153   71.1093   49.5895 H   0  0  0  0  0  0  0  0  0  0  0  0
   84.0245   69.2088   53.7216 H   0  0  0  0  0  0  0  0  0  0  0  0
   85.3402   68.2077   53.0189 H   0  0  0  0  0  0  0  0  0  0  0  0
   85.4767   69.9988   53.0189 H   0  0  0  0  0  0  0  0  0  0  0  0
   85.8597   78.1065   52.0303 H   0  0  0  0  0  0  0  0  0  0  0  0
   86.6308   76.9289   50.8779 H   0  0  0  0  0  0  0  0  0  0  0  0
   86.1788   79.0437   49.7276 H   0  0  0  0  0  0  0  0  0  0  0  0
   84.4371   78.9458   50.2179 H   0  0  0  0  0  0  0  0  0  0  0  0
   77.7485   77.7990   59.0975 H   0  0  0  0  0  0  0  0  0  0  0  0
   79.4266   76.4741   56.2947 H   0  0  0  0  0  0  0  0  0  0  0  0
   79.0323   78.5629   54.8556 H   0  0  0  0  0  0  0  0  0  0  0  0
  1 24  1  0
  1 34  1  0
  1  2  1  0
  2 40  1  0
  2 36  1  0
  3 20  1  0
  3  5  1  0
  4 18  1  0
  4  8  1  0
  4 37  1  0
  5 22  1  0
  6 13  1  0
  6 22  1  0
  7 52  1  0
  8 37  1  0
  9 22  1  0
  9 14  1  0
  9 38  1  0
 10 17  1  0
 10 27  1  0
 10 23  1  0
 11 24  1  0
 11 19  1  0
 11 40  1  0
 12 35  1  0
 12 41  1  0
 12 25  1  0
 13 20  1  0
 14 27  1  0
 14 21  2  0
 15 35  1  0
 16 52  2  0
 17 40  1  0
 17 28  2  0
 18 42  1  0
 19 41  1  0
 19 29  2  0
 23 31  1  0
 23 32  1  0
 23 26  1  0
 25 33  1  0
 30 49  1  0
 30 48  2  0
 33 43  1  0
 34 47  1  0
 35 42  1  0
 36 46  1  0
 38 45  1  0
 39 42  2  0
 44 45  2  0
 45 49  1  0
 46 47  1  0
 48 51  1  0
 49 50  1  0
 50 51  2  0
 51 52  1  0
  1 53  1  0
  2 54  1  0
  3 55  1  0
  3 56  1  0
  4 57  1  0
  5 58  1  0
  5 59  1  0
  6 60  1  0
  6 61  1  0
  8 62  1  0
  8 63  1  0
  9 64  1  0
 10 65  1  0
 11 66  1  0
 12 67  1  0
 13 68  1  0
 13 69  1  0
 15 70  1  0
 18 71  1  0
 20 72  1  0
 20 73  1  0
 22 74  1  0
 24 75  1  0
 24 76  1  0
 25 77  1  0
 25 78  1  0
 26 79  1  0
 26 80  1  0
 26 81  1  0
 27 82  1  0
 31 83  1  0
 31 84  1  0
 31 85  1  0
 32 86  1  0
 32 87  1  0
 32 88  1  0
 33 89  1  0
 33 90  1  0
 34 91  1  0
 34 92  1  0
 35 93  1  0
 36 94  1  0
 36 95  1  0
 37 96  1  0
 37 97  1  0
 38 98  1  0
 41 99  1  0
 43100  1  0
 43101  1  0
 43102  1  0
 46103  1  0
 46104  1  0
 47105  1  0
 47106  1  0
 48107  1  0
 49108  1  0
 50109  1  0
M  CHG  2   7  -1  52   1
A    1
C1
A    2
C2
A    3
C3
A    4
C4
A    5
C5
A    6
C6
A    7
O1
A    8
C7
A    9
C8
A   10
C9
A   11
C10
A   12
C11
A   13
C12
A   14
C13
A   15
O2
A   16
O3
A   17
C14
A   18
N1
A   19
C15
A   20
C16
A   21
O6
A   22
C17
A   23
C18
A   24
C19
A   25
C20
A   26
C21
A   27
N4
A   28
O7
A   29
O8
A   30
N2
A   31
C22
A   32
C23
A   33
C24
A   34
C25
A   35
C26
A   36
C27
A   37
C28
A   38
N3
A   39
O10
A   40
N5
A   41
N6
A   42
C32
A   43
C33
A   44
O12
A   45
C41
A   46
C29
A   47
C30
A   48
C31
A   49
C36
A   50
C34
A   51
C35
A   52
N7
M  END
