2P8S_417_A_1001
     RDKit          3D

 48 51  0  0  0  0  0  0  0  0999 V2000
   34.7310   50.4710   36.3910 C   0  0  0  0  0  0  0  0  0  0  0  0
   35.9770   51.0680   36.5800 C   0  0  0  0  0  0  0  0  0  0  0  0
   37.2100   50.3820   36.3930 C   0  0  0  0  0  0  0  0  0  0  0  0
   37.1530   49.0100   35.9870 C   0  0  0  0  0  0  0  0  0  0  0  0
   35.8900   48.3970   35.7950 C   0  0  0  0  0  0  0  0  0  0  0  0
   34.6950   49.1280   35.9960 C   0  0  0  0  0  0  0  0  0  0  0  0
   38.5190   51.1180   36.6180 C   0  0  0  0  0  0  0  0  0  0  0  0
   39.4530   50.3730   37.6060 C   0  0  0  0  0  0  0  0  0  0  0  0
   40.7550   51.1730   37.8190 C   0  0  0  0  0  0  0  0  0  0  0  0
   41.5200   51.4310   36.4790 C   0  0  0  0  0  0  0  0  0  0  0  0
   40.5800   52.1470   35.4690 C   0  0  0  0  0  0  0  0  0  0  0  0
   39.2640   51.3620   35.2580 C   0  0  0  0  0  0  0  0  0  0  0  0
   42.7790   52.2300   36.6550 N   0  0  0  0  0  0  0  0  0  0  0  0
   43.9240   51.4030   37.1440 C   0  0  0  0  0  0  0  0  0  0  0  0
   45.2800   52.1690   37.1080 C   0  0  0  0  0  0  0  0  0  0  0  0
   45.1260   53.5950   37.5070 N   0  0  0  0  0  0  0  0  0  0  0  0
   43.9470   54.2130   37.7040 C   0  0  0  0  0  0  0  0  0  0  0  0
   42.6280   53.4650   37.5260 C   0  0  0  0  0  0  0  0  0  0  0  0
   46.0350   54.5570   37.7680 C   0  0  0  0  0  0  0  0  0  0  0  0
   45.3680   55.6890   38.0910 N   0  0  0  0  0  0  0  0  0  0  0  0
   44.1360   55.4830   38.0550 N   0  0  0  0  0  0  0  0  0  0  0  0
   35.8440   47.1120   35.4190 F   0  0  0  0  0  0  0  0  0  0  0  0
   35.9780   52.3450   36.9570 F   0  0  0  0  0  0  0  0  0  0  0  0
   38.3910   52.0670   34.3150 N   0  0  0  0  0  0  0  0  0  0  0  0
   47.5570   54.4190   37.7080 C   0  0  0  0  0  0  0  0  0  0  0  0
   48.1170   55.5870   38.0250 F   0  0  0  0  0  0  0  0  0  0  0  0
   47.8820   54.0480   36.4740 F   0  0  0  0  0  0  0  0  0  0  0  0
   47.9070   53.4850   38.5850 F   0  0  0  0  0  0  0  0  0  0  0  0
   33.5100   48.5560   35.8190 F   0  0  0  0  0  0  0  0  0  0  0  0
   33.8023   51.0392   36.5478 H   0  0  0  0  0  0  0  0  0  0  0  0
   38.0790   48.4385   35.8260 H   0  0  0  0  0  0  0  0  0  0  0  0
   38.2616   52.0874   37.0696 H   0  0  0  0  0  0  0  0  0  0  0  0
   38.9388   50.2531   38.5710 H   0  0  0  0  0  0  0  0  0  0  0  0
   39.7034   49.3871   37.1872 H   0  0  0  0  0  0  0  0  0  0  0  0
   40.5040   52.1420   38.2751 H   0  0  0  0  0  0  0  0  0  0  0  0
   41.4115   50.5792   38.4720 H   0  0  0  0  0  0  0  0  0  0  0  0
   41.8235   50.4464   36.0936 H   0  0  0  0  0  0  0  0  0  0  0  0
   40.3397   53.1490   35.8541 H   0  0  0  0  0  0  0  0  0  0  0  0
   41.1003   52.2111   34.5019 H   0  0  0  0  0  0  0  0  0  0  0  0
   39.5226   50.3803   34.8344 H   0  0  0  0  0  0  0  0  0  0  0  0
   43.7199   51.0982   38.1810 H   0  0  0  0  0  0  0  0  0  0  0  0
   44.0158   50.5351   36.4744 H   0  0  0  0  0  0  0  0  0  0  0  0
   45.9822   51.6806   37.7996 H   0  0  0  0  0  0  0  0  0  0  0  0
   45.6568   52.1442   36.0749 H   0  0  0  0  0  0  0  0  0  0  0  0
   41.8981   54.1414   37.0572 H   0  0  0  0  0  0  0  0  0  0  0  0
   42.2904   53.1366   38.5201 H   0  0  0  0  0  0  0  0  0  0  0  0
   37.7005   52.6247   34.8376 H   0  0  0  0  0  0  0  0  0  0  0  0
   38.9579   52.6902   33.7224 H   0  0  0  0  0  0  0  0  0  0  0  0
  1  2  2  0
  1  6  1  0
  2 23  1  0
  2  3  1  0
  3  7  1  0
  3  4  2  0
  4  5  1  0
  5  6  2  0
  5 22  1  0
  6 29  1  0
  7 12  1  0
  7  8  1  0
  8  9  1  0
  9 10  1  0
 10 11  1  0
 10 13  1  0
 11 12  1  0
 12 24  1  0
 13 14  1  0
 13 18  1  0
 14 15  1  0
 15 16  1  0
 16 19  1  0
 16 17  1  0
 17 21  2  0
 17 18  1  0
 19 25  1  0
 19 20  2  0
 20 21  1  0
 25 27  1  0
 25 26  1  0
 25 28  1  0
  1 30  1  0
  4 31  1  0
  7 32  1  0
  8 33  1  0
  8 34  1  0
  9 35  1  0
  9 36  1  0
 10 37  1  0
 11 38  1  0
 11 39  1  0
 12 40  1  0
 14 41  1  0
 14 42  1  0
 15 43  1  0
 15 44  1  0
 18 45  1  0
 18 46  1  0
 24 47  1  0
 24 48  1  0
A    1
C1
A    2
C2
A    3
C3
A    4
C4
A    5
C5
A    6
C6
A    7
C9
A    8
C10
A    9
C11
A   10
C12
A   11
C13
A   12
C14
A   13
N21
A   14
C22
A   15
C23
A   16
N24
A   17
C25
A   18
C26
A   19
C33
A   20
N34
A   21
N35
A   22
F36
A   23
F37
A   24
N38
A   25
C39
A   26
F40
A   27
F41
A   28
F42
A   29
F43
M  END
