2P93_ME1_A_1
     RDKit          3D

 43 45  0  0  0  0  0  0  0  0999 V2000
   12.1880   44.0860   65.6920 C   0  0  0  0  0  0  0  0  0  0  0  0
   12.2030   44.8360   64.5730 C   0  0  0  0  0  0  0  0  0  0  0  0
   10.9840   45.1580   64.1010 C   0  0  0  0  0  0  0  0  0  0  0  0
    6.4100   45.0930   63.9840 C   0  0  0  0  0  0  0  0  0  0  0  0
    5.6210   43.9450   63.3580 C   0  0  0  0  0  0  0  0  0  0  0  0
    6.4980   43.2330   61.2100 C   0  0  0  0  0  0  0  0  0  0  0  0
    6.9290   42.1070   60.3620 C   0  0  0  0  0  0  0  0  0  0  0  0
    7.7020   42.4420   59.1650 C   0  0  0  0  0  0  0  0  0  0  0  0
    8.1980   41.3650   58.3210 C   0  0  0  0  0  0  0  0  0  0  0  0
    6.6130   40.7140   60.7110 C   0  0  0  0  0  0  0  0  0  0  0  0
    9.5950   38.3380   58.0100 C   0  0  0  0  0  0  0  0  0  0  0  0
   10.1040   37.4970   56.9640 C   0  0  0  0  0  0  0  0  0  0  0  0
    8.1610   37.9370   55.4650 C   0  0  0  0  0  0  0  0  0  0  0  0
    9.9540   44.6390   64.8580 C   0  0  0  0  0  0  0  0  0  0  0  0
   10.5520   43.7480   66.2200 S   0  0  0  0  0  0  0  0  0  0  0  0
    8.7100   44.9440   64.2580 C   0  0  0  0  0  0  0  0  0  0  0  0
    8.7280   45.4950   63.1450 O   0  0  0  0  0  0  0  0  0  0  0  0
    7.5270   44.6590   64.8450 N   0  0  0  0  0  0  0  0  0  0  0  0
    6.3340   42.9630   62.5290 N   0  0  0  0  0  0  0  0  0  0  0  0
    6.3020   44.3550   60.7460 O   0  0  0  0  0  0  0  0  0  0  0  0
    7.9240   39.9590   58.6740 C   0  0  0  0  0  0  0  0  0  0  0  0
    7.1140   39.6290   59.8680 C   0  0  0  0  0  0  0  0  0  0  0  0
    8.3700   38.9770   57.7730 N   0  0  0  0  0  0  0  0  0  0  0  0
    9.4330   37.3130   55.7070 C   0  0  0  0  0  0  0  0  0  0  0  0
    7.5930   38.7850   56.5540 C   0  0  0  0  0  0  0  0  0  0  0  0
    6.4810   39.2980   56.4060 O   0  0  0  0  0  0  0  0  0  0  0  0
   13.8500   43.6750   66.1630 Cl  0  0  0  0  0  0  0  0  0  0  0  0
   13.1346   45.1587   64.0851 H   0  0  0  0  0  0  0  0  0  0  0  0
   10.8253   45.7727   63.2027 H   0  0  0  0  0  0  0  0  0  0  0  0
    6.8200   45.7127   63.1729 H   0  0  0  0  0  0  0  0  0  0  0  0
    5.7094   45.6444   64.6283 H   0  0  0  0  0  0  0  0  0  0  0  0
    5.1494   43.3900   64.1824 H   0  0  0  0  0  0  0  0  0  0  0  0
    4.9413   44.4444   62.6519 H   0  0  0  0  0  0  0  0  0  0  0  0
    7.9050   43.4919   58.9072 H   0  0  0  0  0  0  0  0  0  0  0  0
    8.7790   41.6001   57.4170 H   0  0  0  0  0  0  0  0  0  0  0  0
    6.0044   40.4897   61.5994 H   0  0  0  0  0  0  0  0  0  0  0  0
   10.1415   38.4749   58.9548 H   0  0  0  0  0  0  0  0  0  0  0  0
   11.0535   36.9679   57.1330 H   0  0  0  0  0  0  0  0  0  0  0  0
    7.6268   37.7951   54.5140 H   0  0  0  0  0  0  0  0  0  0  0  0
    7.4200   44.2037   65.7627 H   0  0  0  0  0  0  0  0  0  0  0  0
    6.6998   42.0919   62.9392 H   0  0  0  0  0  0  0  0  0  0  0  0
    6.8917   38.5811   60.1181 H   0  0  0  0  0  0  0  0  0  0  0  0
    9.8951   36.6914   54.9259 H   0  0  0  0  0  0  0  0  0  0  0  0
  1  2  2  0
  1 27  1  0
  1 15  1  0
  2  3  1  0
  3 14  2  0
  4  5  1  0
  4 18  1  0
  5 19  1  0
  6  7  1  0
  6 20  2  0
  6 19  1  0
  7  8  2  0
  7 10  1  0
  8  9  1  0
  9 21  2  0
 10 22  2  0
 11 12  2  0
 11 23  1  0
 12 24  1  0
 13 24  2  0
 13 25  1  0
 14 16  1  0
 14 15  1  0
 16 17  2  0
 16 18  1  0
 21 23  1  0
 21 22  1  0
 23 25  1  0
 25 26  2  0
  2 28  1  0
  3 29  1  0
  4 30  1  0
  4 31  1  0
  5 32  1  0
  5 33  1  0
  8 34  1  0
  9 35  1  0
 10 36  1  0
 11 37  1  0
 12 38  1  0
 13 39  1  0
 18 40  1  0
 19 41  1  0
 22 42  1  0
 24 43  1  0
A    1
C1
A    2
C2
A    3
C3
A    4
C9
A    5
C10
A    6
C12
A    7
C14
A    8
C15
A    9
C16
A   10
C19
A   11
C21
A   12
C22
A   13
C24
A   14
C4
A   15
S5
A   16
C6
A   17
O7
A   18
N8
A   19
N11
A   20
O13
A   21
C17
A   22
C18
A   23
N20
A   24
C23
A   25
C25
A   26
O26
A   27
CL27
M  END
