2P95_ME5_A_1
     RDKit          3D

 50 53  0  0  0  0  0  0  0  0999 V2000
    8.5460   44.9450   63.3800 C   0  0  0  0  0  0  0  0  0  0  0  0
    9.2960   43.8860   65.5000 C   0  0  0  0  0  0  0  0  0  0  0  0
    9.5640   44.5380   64.2590 C   0  0  0  0  0  0  0  0  0  0  0  0
    7.1490   42.1470   59.3580 C   0  0  0  0  0  0  0  0  0  0  0  0
    5.0430   45.6160   63.4870 C   0  0  0  0  0  0  0  0  0  0  0  0
    4.3840   44.5050   64.2690 C   0  0  0  0  0  0  0  0  0  0  0  0
    4.9380   43.4190   63.3770 C   0  0  0  0  0  0  0  0  0  0  0  0
    5.3910   43.9790   62.0470 C   0  0  0  0  0  0  0  0  0  0  0  0
    8.2100   41.1690   57.3330 C   0  0  0  0  0  0  0  0  0  0  0  0
    9.8560   38.1880   57.5390 C   0  0  0  0  0  0  0  0  0  0  0  0
    8.0650   39.8260   57.9090 C   0  0  0  0  0  0  0  0  0  0  0  0
    6.2320   45.1160   62.6690 C   0  0  0  0  0  0  0  0  0  0  0  0
    7.9520   38.3560   55.9760 C   0  0  0  0  0  0  0  0  0  0  0  0
    6.9270   40.8070   59.9310 C   0  0  0  0  0  0  0  0  0  0  0  0
    8.5610   37.3230   55.0740 C   0  0  0  0  0  0  0  0  0  0  0  0
    6.5160   43.2810   60.0360 C   0  0  0  0  0  0  0  0  0  0  0  0
    7.7670   42.3340   58.0690 C   0  0  0  0  0  0  0  0  0  0  0  0
    8.6440   38.7530   57.1830 N   0  0  0  0  0  0  0  0  0  0  0  0
    7.3760   39.6420   59.1940 C   0  0  0  0  0  0  0  0  0  0  0  0
   10.4500   37.1960   56.6830 C   0  0  0  0  0  0  0  0  0  0  0  0
    9.8230   36.7760   55.4800 C   0  0  0  0  0  0  0  0  0  0  0  0
    6.8730   38.8870   55.7130 O   0  0  0  0  0  0  0  0  0  0  0  0
    6.1040   42.9900   61.2850 N   0  0  0  0  0  0  0  0  0  0  0  0
    6.3440   44.3830   59.5350 O   0  0  0  0  0  0  0  0  0  0  0  0
    7.2460   44.5470   63.6360 N   0  0  0  0  0  0  0  0  0  0  0  0
    8.8650   45.6540   62.4180 O   0  0  0  0  0  0  0  0  0  0  0  0
   10.5370   43.6020   66.1500 C   0  0  0  0  0  0  0  0  0  0  0  0
   11.2170   44.7820   63.9130 S   0  0  0  0  0  0  0  0  0  0  0  0
   11.6830   44.0440   65.3680 C   0  0  0  0  0  0  0  0  0  0  0  0
   13.4130   43.8570   65.7830 Cl  0  0  0  0  0  0  0  0  0  0  0  0
    8.2977   43.6419   65.8921 H   0  0  0  0  0  0  0  0  0  0  0  0
    5.3948   46.3847   64.1908 H   0  0  0  0  0  0  0  0  0  0  0  0
    4.2991   46.0254   62.7878 H   0  0  0  0  0  0  0  0  0  0  0  0
    4.7374   44.4362   65.3084 H   0  0  0  0  0  0  0  0  0  0  0  0
    3.2963   44.5492   64.4271 H   0  0  0  0  0  0  0  0  0  0  0  0
    5.7959   42.9466   63.8779 H   0  0  0  0  0  0  0  0  0  0  0  0
    4.1424   42.6825   63.1911 H   0  0  0  0  0  0  0  0  0  0  0  0
    4.6527   44.3001   61.2975 H   0  0  0  0  0  0  0  0  0  0  0  0
    8.6582   41.2904   56.3358 H   0  0  0  0  0  0  0  0  0  0  0  0
   10.3603   38.4944   58.4674 H   0  0  0  0  0  0  0  0  0  0  0  0
    6.7926   45.7905   62.0052 H   0  0  0  0  0  0  0  0  0  0  0  0
    6.4275   40.6926   60.9044 H   0  0  0  0  0  0  0  0  0  0  0  0
    8.0639   37.0011   54.1470 H   0  0  0  0  0  0  0  0  0  0  0  0
    7.8994   43.3434   57.6525 H   0  0  0  0  0  0  0  0  0  0  0  0
    7.2028   38.6314   59.5923 H   0  0  0  0  0  0  0  0  0  0  0  0
   11.4150   36.7513   56.9677 H   0  0  0  0  0  0  0  0  0  0  0  0
   10.3130   36.0193   54.8497 H   0  0  0  0  0  0  0  0  0  0  0  0
    6.2987   42.0640   61.6919 H   0  0  0  0  0  0  0  0  0  0  0  0
    6.9922   43.9209   64.4135 H   0  0  0  0  0  0  0  0  0  0  0  0
   10.6171   43.1064   67.1287 H   0  0  0  0  0  0  0  0  0  0  0  0
  1 26  2  0
  1 25  1  0
  1  3  1  0
  2  3  2  0
  2 27  1  0
  3 28  1  0
  4 17  2  0
  4 14  1  0
  4 16  1  0
  5 12  1  0
  5  6  1  0
  6  7  1  0
  7  8  1  0
  8 23  1  0
  8 12  1  0
  9 11  2  0
  9 17  1  0
 10 20  2  0
 10 18  1  0
 11 18  1  0
 11 19  1  0
 12 25  1  0
 13 15  1  0
 13 22  2  0
 13 18  1  0
 14 19  2  0
 15 21  2  0
 16 24  2  0
 16 23  1  0
 20 21  1  0
 27 29  2  0
 28 29  1  0
 29 30  1  0
  2 31  1  0
  5 32  1  0
  5 33  1  0
  6 34  1  0
  6 35  1  0
  7 36  1  0
  7 37  1  0
  8 38  1  0
  9 39  1  0
 10 40  1  0
 12 41  1  0
 14 42  1  0
 15 43  1  0
 17 44  1  0
 19 45  1  0
 20 46  1  0
 21 47  1  0
 23 48  1  0
 25 49  1  0
 27 50  1  0
A    1
C1
A    2
C2
A    3
C3
A    4
C7
A    5
C8
A    6
C10
A    7
C12
A    8
C13
A    9
C14
A   10
C15
A   11
C16
A   12
C19
A   13
C21
A   14
C22
A   15
C24
A   16
C17
A   17
C44
A   18
N2
A   19
C18
A   20
C23
A   21
C26
A   22
O1
A   23
N4
A   24
O2
A   25
N1
A   26
O3
A   27
C4
A   28
S1
A   29
C5
A   30
CL1
M  END
