2P99_YE6_A_265
     RDKit          3D

 25 26  0  0  0  0  0  0  0  0999 V2000
   -5.9060    1.2490    9.6940 Cl  0  0  0  0  0  0  0  0  0  0  0  0
   -5.7530   -0.0300    8.5380 C   0  0  0  0  0  0  0  0  0  0  0  0
   -6.9030   -0.4750    7.8930 C   0  0  0  0  0  0  0  0  0  0  0  0
   -6.8310   -1.4580    6.9130 C   0  0  0  0  0  0  0  0  0  0  0  0
   -5.5970   -2.0030    6.5730 C   0  0  0  0  0  0  0  0  0  0  0  0
   -4.4480   -1.5630    7.2180 C   0  0  0  0  0  0  0  0  0  0  0  0
   -4.5180   -0.5790    8.2020 C   0  0  0  0  0  0  0  0  0  0  0  0
   -3.3290   -0.2080    8.8200 C   0  0  0  0  0  0  0  0  0  0  0  0
   -2.1310   -0.4230    8.2010 O   0  0  0  0  0  0  0  0  0  0  0  0
   -3.1060    0.3830    9.9950 C   0  0  0  0  0  0  0  0  0  0  0  0
   -1.7960    0.5550   10.1500 C   0  0  0  0  0  0  0  0  0  0  0  0
   -1.1960    0.0690    9.0640 C   0  0  0  0  0  0  0  0  0  0  0  0
    0.3080    0.0660    8.7880 C   0  0  0  0  0  0  0  0  0  0  0  0
    0.7340    0.0070    7.6370 O   0  0  0  0  0  0  0  0  0  0  0  0
    1.0890    0.1210    9.8640 N   0  0  0  0  0  0  0  0  0  0  0  0
    2.3120    0.1260    9.7160 N   0  0  0  0  0  0  0  0  0  0  0  0
   -7.8790   -0.0444    8.1615 H   0  0  0  0  0  0  0  0  0  0  0  0
   -7.7455   -1.8034    6.4086 H   0  0  0  0  0  0  0  0  0  0  0  0
   -5.5314   -2.7793    5.7965 H   0  0  0  0  0  0  0  0  0  0  0  0
   -3.4731   -1.9958    6.9492 H   0  0  0  0  0  0  0  0  0  0  0  0
   -3.8797    0.6799   10.7183 H   0  0  0  0  0  0  0  0  0  0  0  0
   -1.2987    1.0147   11.0168 H   0  0  0  0  0  0  0  0  0  0  0  0
    0.6768    0.1589   10.8072 H   0  0  0  0  0  0  0  0  0  0  0  0
    2.7695    0.1279   10.6388 H   0  0  0  0  0  0  0  0  0  0  0  0
    2.5980   -0.7138    9.1927 H   0  0  0  0  0  0  0  0  0  0  0  0
  1  2  1  0
  2  3  2  0
  2  7  1  0
  3  4  1  0
  4  5  2  0
  5  6  1  0
  6  7  2  0
  7  8  1  0
  8  9  1  0
  8 10  2  0
  9 12  1  0
 10 11  1  0
 11 12  2  0
 12 13  1  0
 13 14  2  0
 13 15  1  0
 15 16  1  0
  3 17  1  0
  4 18  1  0
  5 19  1  0
  6 20  1  0
 10 21  1  0
 11 22  1  0
 15 23  1  0
 16 24  1  0
 16 25  1  0
A    1
CLAP
A    2
CAG
A    3
CAH
A    4
CAI
A    5
CAJ
A    6
CAK
A    7
CAF
A    8
CAD
A    9
OAN
A   10
CAC
A   11
CAB
A   12
CAA
A   13
CAE
A   14
OAO
A   15
NAL
A   16
NAM
M  END
