1EFA_NPF_A_901
     RDKit          3D

 35 36  0  0  0  0  0  0  0  0999 V2000
  -13.4460   87.4610   32.3760 C   0  0  0  0  0  0  0  0  0  0  0  0
  -12.7560   88.6800   32.1060 C   0  0  0  0  0  0  0  0  0  0  0  0
  -11.4450   88.9690   32.5040 C   0  0  0  0  0  0  0  0  0  0  0  0
  -10.7510   87.9670   33.2110 C   0  0  0  0  0  0  0  0  0  0  0  0
  -11.3800   86.7390   33.5190 C   0  0  0  0  0  0  0  0  0  0  0  0
  -12.7300   86.4850   33.1210 C   0  0  0  0  0  0  0  0  0  0  0  0
  -13.2760   85.2310   33.4850 N   0  0  0  0  0  0  0  0  0  0  0  0
  -14.4160   84.8790   33.1700 O   0  0  0  0  0  0  0  0  0  0  0  0
  -12.5370   84.4820   34.1270 O   0  0  0  0  0  0  0  0  0  0  0  0
  -14.3510   86.9100   31.4130 O   0  0  0  0  0  0  0  0  0  0  0  0
  -15.7170   87.2620   31.0790 C   0  0  0  0  0  0  0  0  0  0  0  0
  -16.0170   88.6250   30.3750 C   0  0  0  0  0  0  0  0  0  0  0  0
  -16.0360   89.7350   31.3030 O   0  0  0  0  0  0  0  0  0  0  0  0
  -17.3490   88.6360   29.6330 C   0  0  0  0  0  0  0  0  0  0  0  0
  -17.4430   89.9200   28.9760 O   0  0  0  0  0  0  0  0  0  0  0  0
  -17.3820   87.5070   28.6040 C   0  0  0  0  0  0  0  0  0  0  0  0
  -16.3710   87.8450   27.6350 O   0  0  0  0  0  0  0  0  0  0  0  0
  -17.1260   86.1550   29.3060 C   0  0  0  0  0  0  0  0  0  0  0  0
  -17.0150   85.0480   28.2830 C   0  0  0  0  0  0  0  0  0  0  0  0
  -15.9370   86.1840   30.1310 O   0  0  0  0  0  0  0  0  0  0  0  0
  -13.2963   89.4537   31.5408 H   0  0  0  0  0  0  0  0  0  0  0  0
  -10.9766   89.9375   32.2744 H   0  0  0  0  0  0  0  0  0  0  0  0
   -9.7116   88.1417   33.5258 H   0  0  0  0  0  0  0  0  0  0  0  0
  -10.8235   85.9683   34.0724 H   0  0  0  0  0  0  0  0  0  0  0  0
  -16.3359   87.3789   31.9808 H   0  0  0  0  0  0  0  0  0  0  0  0
  -15.1921   88.7409   29.6566 H   0  0  0  0  0  0  0  0  0  0  0  0
  -16.0301   89.3896   32.2308 H   0  0  0  0  0  0  0  0  0  0  0  0
  -18.1934   88.4834   30.3212 H   0  0  0  0  0  0  0  0  0  0  0  0
  -17.4954   90.6363   29.6574 H   0  0  0  0  0  0  0  0  0  0  0  0
  -18.3564   87.3993   28.1051 H   0  0  0  0  0  0  0  0  0  0  0  0
  -15.5440   88.1215   28.1037 H   0  0  0  0  0  0  0  0  0  0  0  0
  -17.9843   85.9633   29.9668 H   0  0  0  0  0  0  0  0  0  0  0  0
  -16.9180   84.0810   28.7982 H   0  0  0  0  0  0  0  0  0  0  0  0
  -17.9168   85.0391   27.6531 H   0  0  0  0  0  0  0  0  0  0  0  0
  -16.1294   85.2183   27.6531 H   0  0  0  0  0  0  0  0  0  0  0  0
  1  2  2  0
  1  6  1  0
  1 10  1  0
  2  3  1  0
  3  4  2  0
  4  5  1  0
  5  6  2  0
  6  7  1  0
  7  8  1  0
  7  9  2  0
 10 11  1  0
 11 12  1  0
 11 20  1  0
 12 13  1  0
 12 14  1  0
 14 15  1  0
 14 16  1  0
 16 17  1  0
 16 18  1  0
 18 19  1  0
 18 20  1  0
  2 21  1  0
  3 22  1  0
  4 23  1  0
  5 24  1  0
 11 25  1  0
 12 26  1  0
 13 27  1  0
 14 28  1  0
 15 29  1  0
 16 30  1  0
 17 31  1  0
 18 32  1  0
 19 33  1  0
 19 34  1  0
 19 35  1  0
M  CHG  2   7   1   8  -1
A    1
C1
A    2
C2
A    3
C3
A    4
C4
A    5
C5
A    6
C6
A    7
N6
A    8
O6A
A    9
O6B
A   10
O1'
A   11
C1'
A   12
C2'
A   13
O2'
A   14
C3'
A   15
O3'
A   16
C4'
A   17
O4'
A   18
C5'
A   19
C6'
A   20
O5'
M  END
