1JW7_DCN_?_2414
     RDKit          3D

 24 25  0  0  0  0  0  0  0  0999 V2000
   15.8840    9.9380   21.5630 C   0  0  0  0  0  0  0  0  0  0  0  0
   16.0140    8.6200   22.0600 C   0  0  0  0  0  0  0  0  0  0  0  0
   14.6000   10.5510   21.5760 C   0  0  0  0  0  0  0  0  0  0  0  0
   13.4280    9.8050   22.1120 C   0  0  0  0  0  0  0  0  0  0  0  0
   13.6020    8.4600   22.6050 C   0  0  0  0  0  0  0  0  0  0  0  0
   14.8930    7.8520   22.5830 C   0  0  0  0  0  0  0  0  0  0  0  0
    9.0560    9.9640   19.1410 C   0  0  0  0  0  0  0  0  0  0  0  0
    8.8260   10.8320   20.2910 C   0  0  0  0  0  0  0  0  0  0  0  0
    9.8700   10.9820   21.2700 C   0  0  0  0  0  0  0  0  0  0  0  0
   11.1670   10.2590   21.1130 C   0  0  0  0  0  0  0  0  0  0  0  0
   10.2990    9.2740   18.9880 C   0  0  0  0  0  0  0  0  0  0  0  0
   11.3350    9.4260   19.9690 C   0  0  0  0  0  0  0  0  0  0  0  0
   12.1720   10.4330   22.1210 O   0  0  0  0  0  0  0  0  0  0  0  0
   17.5800    7.8820   22.0570 Cl  0  0  0  0  0  0  0  0  0  0  0  0
    7.8550    9.7370   17.9380 Cl  0  0  0  0  0  0  0  0  0  0  0  0
   14.4440   11.7720   21.1200 O   0  0  0  0  0  0  0  0  0  0  0  0
   16.7592   10.4789   21.1738 H   0  0  0  0  0  0  0  0  0  0  0  0
   12.7388    7.9029   22.9981 H   0  0  0  0  0  0  0  0  0  0  0  0
   15.0379    6.8262   22.9528 H   0  0  0  0  0  0  0  0  0  0  0  0
    7.8699   11.3632   20.4078 H   0  0  0  0  0  0  0  0  0  0  0  0
    9.7112   11.6346   22.1411 H   0  0  0  0  0  0  0  0  0  0  0  0
   10.4615    8.6245   18.1153 H   0  0  0  0  0  0  0  0  0  0  0  0
   12.2836    8.8855   19.8345 H   0  0  0  0  0  0  0  0  0  0  0  0
   14.3474   12.5279   21.7520 H   0  0  0  0  0  0  0  0  0  0  0  0
  1  2  2  0
  1  3  1  0
  2  6  1  0
  2 14  1  0
  3  4  2  0
  3 16  1  0
  4  5  1  0
  4 13  1  0
  5  6  2  0
  7  8  2  0
  7 11  1  0
  7 15  1  0
  8  9  1  0
  9 10  2  0
 10 12  1  0
 10 13  1  0
 11 12  2  0
  1 17  1  0
  5 18  1  0
  6 19  1  0
  8 20  1  0
  9 21  1  0
 11 22  1  0
 12 23  1  0
 16 24  1  0
A    1
C1
A    2
C2
A    3
C6
A    4
C5
A    5
C4
A    6
C3
A    7
C11
A    8
C10
A    9
C9
A   10
C8
A   11
C12
A   12
C13
A   13
O7
A   14
CL14
A   15
CL15
A   16
O17
M  END
