2IKJ_393_A_600
     RDKit          3D

 38 39  0  0  0  0  0  0  0  0999 V2000
   16.8590   -4.1080   10.9020 C   0  0  0  0  0  0  0  0  0  0  0  0
   17.3190   -3.2000    9.9490 N   0  0  0  0  0  0  0  0  0  0  0  0
   16.5830   -2.7590    9.0560 O   0  0  0  0  0  0  0  0  0  0  0  0
   18.4950   -2.9250   10.1330 O   0  0  0  0  0  0  0  0  0  0  0  0
   17.7220   -4.5610   11.8930 C   0  0  0  0  0  0  0  0  0  0  0  0
   17.2690   -5.4730   12.8480 C   0  0  0  0  0  0  0  0  0  0  0  0
   18.2410   -5.9500   13.9360 C   0  0  0  0  0  0  0  0  0  0  0  0
   17.5770   -6.7550   14.9410 N   0  0  0  0  0  0  0  0  0  0  0  0
   17.7260   -8.0900   14.9480 C   0  0  0  0  0  0  0  0  0  0  0  0
   16.9100   -8.9590   15.8720 C   0  0  0  0  0  0  0  0  0  0  0  0
   16.2640  -10.0990   15.4220 C   0  0  0  0  0  0  0  0  0  0  0  0
   15.5090  -10.8960   16.2890 C   0  0  0  0  0  0  0  0  0  0  0  0
   15.3980  -10.5470   17.6410 C   0  0  0  0  0  0  0  0  0  0  0  0
   14.4010  -11.4280   18.6810 Cl  0  0  0  0  0  0  0  0  0  0  0  0
   16.0460   -9.3950   18.0990 C   0  0  0  0  0  0  0  0  0  0  0  0
   16.8030   -8.5960   17.2350 C   0  0  0  0  0  0  0  0  0  0  0  0
   17.4910   -7.4400   17.5760 O   0  0  0  0  0  0  0  0  0  0  0  0
   16.9960   -6.7000   18.7220 C   0  0  0  0  0  0  0  0  0  0  0  0
   15.7920   -5.8910   18.2740 C   0  0  0  0  0  0  0  0  0  0  0  0
   15.0080   -5.4440   19.2310 O   0  0  0  0  0  0  0  0  0  0  0  0
   15.5150   -5.7160   17.0960 O   0  0  0  0  0  0  0  0  0  0  0  0
   18.3400   -8.6430   14.0400 O   0  0  0  0  0  0  0  0  0  0  0  0
   15.9350   -5.9020   12.7810 C   0  0  0  0  0  0  0  0  0  0  0  0
   15.0790   -5.4480   11.7700 C   0  0  0  0  0  0  0  0  0  0  0  0
   15.5380   -4.5300   10.8230 C   0  0  0  0  0  0  0  0  0  0  0  0
   18.7610   -4.2012   11.9248 H   0  0  0  0  0  0  0  0  0  0  0  0
   19.0333   -6.5511   13.4659 H   0  0  0  0  0  0  0  0  0  0  0  0
   18.6579   -5.0615   14.4328 H   0  0  0  0  0  0  0  0  0  0  0  0
   16.9877   -6.3014   15.6537 H   0  0  0  0  0  0  0  0  0  0  0  0
   16.3464  -10.3829   14.3625 H   0  0  0  0  0  0  0  0  0  0  0  0
   15.0030  -11.7959   15.9094 H   0  0  0  0  0  0  0  0  0  0  0  0
   15.9588   -9.1119   19.1584 H   0  0  0  0  0  0  0  0  0  0  0  0
   16.7007   -7.3989   19.5184 H   0  0  0  0  0  0  0  0  0  0  0  0
   17.7790   -6.0344   19.1141 H   0  0  0  0  0  0  0  0  0  0  0  0
   15.2548   -5.5847   20.1793 H   0  0  0  0  0  0  0  0  0  0  0  0
   15.5551   -6.6068   13.5353 H   0  0  0  0  0  0  0  0  0  0  0  0
   14.0432   -5.8151   11.7217 H   0  0  0  0  0  0  0  0  0  0  0  0
   14.8707   -4.1509   10.0349 H   0  0  0  0  0  0  0  0  0  0  0  0
  1  2  1  0
  1 25  2  0
  1  5  1  0
  2  3  1  0
  2  4  2  0
  5  6  2  0
  6 23  1  0
  6  7  1  0
  7  8  1  0
  8  9  1  0
  9 22  2  0
  9 10  1  0
 10 11  2  0
 10 16  1  0
 11 12  1  0
 12 13  2  0
 13 15  1  0
 13 14  1  0
 15 16  2  0
 16 17  1  0
 17 18  1  0
 18 19  1  0
 19 21  2  0
 19 20  1  0
 23 24  2  0
 24 25  1  0
  5 26  1  0
  7 27  1  0
  7 28  1  0
  8 29  1  0
 11 30  1  0
 12 31  1  0
 15 32  1  0
 18 33  1  0
 18 34  1  0
 20 35  1  0
 23 36  1  0
 24 37  1  0
 25 38  1  0
M  CHG  2   2   1   3  -1
A    1
C1
A    2
N2
A    3
O3
A    4
O4
A    5
C5
A    6
C6
A    7
C7
A    8
N8
A    9
C9
A   10
C10
A   11
C11
A   12
C12
A   13
C13
A   14
CL1
A   15
C15
A   16
C16
A   17
O17
A   18
C18
A   19
C19
A   20
O20
A   21
O21
A   22
O22
A   23
C23
A   24
C24
A   25
C25
M  END
