2PDG_47D_A_600
     RDKit          3D

 33 35  0  0  0  0  0  0  0  0999 V2000
   17.3440   -4.6440   11.6970 C   0  0  0  0  0  0  0  0  0  0  0  0
   18.3780   -5.0510   12.4470 N   0  0  0  0  0  0  0  0  0  0  0  0
   18.1310   -5.9540   13.3030 C   0  0  0  0  0  0  0  0  0  0  0  0
   19.1330   -6.4540   14.3310 C   0  0  0  0  0  0  0  0  0  0  0  0
   18.4570   -7.2980   15.2910 N   0  0  0  0  0  0  0  0  0  0  0  0
   17.9080   -6.7920   16.4300 C   0  0  0  0  0  0  0  0  0  0  0  0
   18.0580   -5.5820   16.6520 O   0  0  0  0  0  0  0  0  0  0  0  0
   17.2480   -7.5340   17.2700 N   0  0  0  0  0  0  0  0  0  0  0  0
   16.5870   -6.9570   18.4460 C   0  0  0  0  0  0  0  0  0  0  0  0
   15.3410   -6.1980   18.0120 C   0  0  0  0  0  0  0  0  0  0  0  0
   14.8070   -5.5400   19.0210 O   0  0  0  0  0  0  0  0  0  0  0  0
   14.9020   -6.1640   16.8640 O   0  0  0  0  0  0  0  0  0  0  0  0
   17.0790   -8.8390   17.0380 C   0  0  0  0  0  0  0  0  0  0  0  0
   17.5800   -9.4270   15.9480 C   0  0  0  0  0  0  0  0  0  0  0  0
   18.3450   -8.6210   14.9820 C   0  0  0  0  0  0  0  0  0  0  0  0
   18.8330   -9.0840   13.9420 O   0  0  0  0  0  0  0  0  0  0  0  0
   16.4380   -6.5110   13.3470 S   0  0  0  0  0  0  0  0  0  0  0  0
   16.1970   -5.3470   12.0450 C   0  0  0  0  0  0  0  0  0  0  0  0
   14.9620   -5.1350   11.4340 C   0  0  0  0  0  0  0  0  0  0  0  0
   14.9010   -4.1850   10.4340 C   0  0  0  0  0  0  0  0  0  0  0  0
   16.0740   -3.4950   10.0950 C   0  0  0  0  0  0  0  0  0  0  0  0
   15.9440   -2.3090    8.8400 Cl  0  0  0  0  0  0  0  0  0  0  0  0
   17.3220   -3.7710   10.6220 C   0  0  0  0  0  0  0  0  0  0  0  0
   19.9204   -7.0318   13.8249 H   0  0  0  0  0  0  0  0  0  0  0  0
   19.5848   -5.5961   14.8506 H   0  0  0  0  0  0  0  0  0  0  0  0
   16.3018   -7.7633   19.1378 H   0  0  0  0  0  0  0  0  0  0  0  0
   17.2781   -6.2656   18.9503 H   0  0  0  0  0  0  0  0  0  0  0  0
   15.0201   -5.8026   19.9514 H   0  0  0  0  0  0  0  0  0  0  0  0
   16.5136   -9.4439   17.7621 H   0  0  0  0  0  0  0  0  0  0  0  0
   17.4227  -10.5017   15.7741 H   0  0  0  0  0  0  0  0  0  0  0  0
   14.0701   -5.7030   11.7371 H   0  0  0  0  0  0  0  0  0  0  0  0
   13.9542   -3.9742    9.9151 H   0  0  0  0  0  0  0  0  0  0  0  0
   18.2405   -3.3249   10.2129 H   0  0  0  0  0  0  0  0  0  0  0  0
  1 23  2  0
  1 18  1  0
  1  2  1  0
  2  3  2  0
  3 17  1  0
  3  4  1  0
  4  5  1  0
  5 15  1  0
  5  6  1  0
  6  7  2  0
  6  8  1  0
  8 13  1  0
  8  9  1  0
  9 10  1  0
 10 12  2  0
 10 11  1  0
 13 14  2  0
 14 15  1  0
 15 16  2  0
 17 18  1  0
 18 19  2  0
 19 20  1  0
 20 21  2  0
 21 22  1  0
 21 23  1  0
  4 24  1  0
  4 25  1  0
  9 26  1  0
  9 27  1  0
 11 28  1  0
 13 29  1  0
 14 30  1  0
 19 31  1  0
 20 32  1  0
 23 33  1  0
A    1
C1
A    2
N
A    3
C2
A    4
C3
A    5
N2
A    6
C4
A    7
O1
A    8
N3
A    9
C5
A   10
C6
A   11
O2
A   12
O3
A   13
C7
A   14
C8
A   15
C9
A   16
O4
A   17
S
A   18
C10
A   19
C12
A   20
C13
A   21
C14
A   22
CL
A   23
C15
M  END
