1AH0_SBI_A_320
     RDKit          3D

 26 28  0  0  0  0  0  0  0  0999 V2000
   64.8300   36.1620   85.9690 C   0  0  0  0  0  0  0  0  0  0  0  0
   64.1150   36.0530   84.8480 F   0  0  0  0  0  0  0  0  0  0  0  0
   66.2320   36.1150   85.9180 C   0  0  0  0  0  0  0  0  0  0  0  0
   66.9800   36.2310   87.1010 C   0  0  0  0  0  0  0  0  0  0  0  0
   66.3200   36.3940   88.3310 C   0  0  0  0  0  0  0  0  0  0  0  0
   67.1270   36.5700   89.4480 O   0  0  0  0  0  0  0  0  0  0  0  0
   66.5730   37.2500   90.5990 C   0  0  0  0  0  0  0  0  0  0  0  0
   65.1740   36.7360   90.9950 C   0  0  0  0  0  0  0  0  0  0  0  0
   64.2250   36.6240   89.7590 C   0  0  0  0  0  0  0  0  0  0  0  0
   63.2360   37.7560   89.6000 C   0  0  0  0  0  0  0  0  0  0  0  0
   63.5420   38.9180   89.4220 O   0  0  0  0  0  0  0  0  0  0  0  0
   61.9920   37.2760   89.6700 N   0  0  0  0  0  0  0  0  0  0  0  0
   62.0150   35.9630   89.8640 C   0  0  0  0  0  0  0  0  0  0  0  0
   61.0460   35.2430   89.9740 O   0  0  0  0  0  0  0  0  0  0  0  0
   63.2860   35.5490   89.9250 N   0  0  0  0  0  0  0  0  0  0  0  0
   64.9330   36.4420   88.4120 C   0  0  0  0  0  0  0  0  0  0  0  0
   64.1790   36.3250   87.2010 C   0  0  0  0  0  0  0  0  0  0  0  0
   66.7441   35.9875   84.9528 H   0  0  0  0  0  0  0  0  0  0  0  0
   68.0788   36.1944   87.0649 H   0  0  0  0  0  0  0  0  0  0  0  0
   67.2528   37.1044   91.4514 H   0  0  0  0  0  0  0  0  0  0  0  0
   66.4667   38.3115   90.3309 H   0  0  0  0  0  0  0  0  0  0  0  0
   65.2771   35.7425   91.4558 H   0  0  0  0  0  0  0  0  0  0  0  0
   64.7327   37.4555   91.7004 H   0  0  0  0  0  0  0  0  0  0  0  0
   61.1366   37.8435   89.5855 H   0  0  0  0  0  0  0  0  0  0  0  0
   63.5610   34.5677   90.0745 H   0  0  0  0  0  0  0  0  0  0  0  0
   63.0802   36.3632   87.2366 H   0  0  0  0  0  0  0  0  0  0  0  0
  1  2  1  0
  1  3  2  0
  1 17  1  0
  3  4  1  0
  4  5  2  0
  5  6  1  0
  5 16  1  0
  6  7  1  0
  7  8  1  0
  8  9  1  0
  9 10  1  0
  9 15  1  0
  9 16  1  0
 10 11  2  0
 10 12  1  0
 12 13  1  0
 13 14  2  0
 13 15  1  0
 16 17  2  0
  3 18  1  0
  4 19  1  0
  7 20  1  0
  7 21  1  0
  8 22  1  0
  8 23  1  0
 12 24  1  0
 15 25  1  0
 17 26  1  0
A    1
C1
A    2
F1
A    3
C2
A    4
C3
A    5
C4
A    6
O1
A    7
C5
A    8
C6
A    9
C7
A   10
C9
A   11
O3
A   12
N2
A   13
C8
A   14
O2
A   15
N1
A   16
C10
A   17
C11
M  END
