2PE0_39Z_A_501
     RDKit          3D

 30 32  0  0  0  0  0  0  0  0999 V2000
   -8.1570   41.3290   44.3300 C   0  0  0  0  0  0  0  0  0  0  0  0
   -7.0000   42.1150   44.4040 C   0  0  0  0  0  0  0  0  0  0  0  0
   -8.7520   43.2870   43.5880 C   0  0  0  0  0  0  0  0  0  0  0  0
   -7.3780   43.3830   43.9220 C   0  0  0  0  0  0  0  0  0  0  0  0
   -6.7040   44.6130   43.7320 C   0  0  0  0  0  0  0  0  0  0  0  0
   -7.3910   45.7240   43.2210 C   0  0  0  0  0  0  0  0  0  0  0  0
   -8.7540   45.6240   42.8960 C   0  0  0  0  0  0  0  0  0  0  0  0
   -9.4330   44.4080   43.0790 C   0  0  0  0  0  0  0  0  0  0  0  0
   -5.6870   41.7280   44.8960 C   0  0  0  0  0  0  0  0  0  0  0  0
   -4.5610   42.7820   45.0010 C   0  0  0  0  0  0  0  0  0  0  0  0
   -5.3620   40.4090   45.3170 C   0  0  0  0  0  0  0  0  0  0  0  0
   -8.2660   40.1560   44.6670 O   0  0  0  0  0  0  0  0  0  0  0  0
   -9.1720   42.0430   43.8450 N   0  0  0  0  0  0  0  0  0  0  0  0
   -6.7310   46.8910   43.0200 O   0  0  0  0  0  0  0  0  0  0  0  0
   -4.1840   40.0240   45.8230 C   0  0  0  0  0  0  0  0  0  0  0  0
   -4.2480   38.7250   46.1130 C   0  0  0  0  0  0  0  0  0  0  0  0
   -5.4630   38.2960   45.7900 C   0  0  0  0  0  0  0  0  0  0  0  0
   -6.1460   39.3290   45.3010 N   0  0  0  0  0  0  0  0  0  0  0  0
   -5.6371   44.6980   43.9861 H   0  0  0  0  0  0  0  0  0  0  0  0
   -9.2898   46.4984   42.4980 H   0  0  0  0  0  0  0  0  0  0  0  0
  -10.5002   44.3320   42.8236 H   0  0  0  0  0  0  0  0  0  0  0  0
   -5.3713   41.4931   43.8688 H   0  0  0  0  0  0  0  0  0  0  0  0
   -4.3454   42.9839   46.0606 H   0  0  0  0  0  0  0  0  0  0  0  0
   -3.6544   42.4004   44.5086 H   0  0  0  0  0  0  0  0  0  0  0  0
   -4.8820   43.7118   44.5086 H   0  0  0  0  0  0  0  0  0  0  0  0
   -6.4274   47.4278   43.7945 H   0  0  0  0  0  0  0  0  0  0  0  0
   -3.3084   40.6724   45.9743 H   0  0  0  0  0  0  0  0  0  0  0  0
   -3.4390   38.1164   46.5432 H   0  0  0  0  0  0  0  0  0  0  0  0
   -5.8386   37.2686   45.9061 H   0  0  0  0  0  0  0  0  0  0  0  0
   -7.1194   39.2995   44.9655 H   0  0  0  0  0  0  0  0  0  0  0  0
  1 13  1  0
  1  2  1  0
  1 12  2  0
  2  4  2  0
  2  9  1  0
  3  8  1  0
  3 13  2  0
  3  4  1  0
  4  5  1  0
  5  6  2  0
  6  7  1  0
  6 14  1  0
  7  8  2  0
  9 10  1  0
  9 11  1  0
 11 18  1  0
 11 15  2  0
 15 16  1  0
 16 17  2  0
 17 18  1  0
  5 19  1  0
  7 20  1  0
  8 21  1  0
  9 22  1  0
 10 23  1  0
 10 24  1  0
 10 25  1  0
 14 26  1  0
 15 27  1  0
 16 28  1  0
 17 29  1  0
 18 30  1  0
A    1
C3
A    2
C5
A    3
C6
A    4
C7
A    5
C8
A    6
C9
A    7
C10
A    8
C11
A    9
C19
A   10
C20
A   11
C21
A   12
O4
A   13
N1
A   14
O12
A   15
C26
A   16
C25
A   17
C24
A   18
N22
M  END
