2PG2_K01_A_604
     RDKit          3D

 46 48  0  0  0  0  0  0  0  0999 V2000
   30.7710   14.1460   13.4240 O   0  0  0  0  0  0  0  0  0  0  0  0
   30.3480   13.5460   14.3590 C   0  0  0  0  0  0  0  0  0  0  0  0
   31.0580   12.8710   15.4850 C   0  0  0  0  0  0  0  0  0  0  0  0
   32.7830   12.9520   15.3570 S   0  0  0  0  0  0  0  0  0  0  0  0
   33.0400   12.0200   16.7840 C   0  0  0  0  0  0  0  0  0  0  0  0
   31.7890   11.6950   17.3150 C   0  0  0  0  0  0  0  0  0  0  0  0
   30.6510   12.1390   16.6230 C   0  0  0  0  0  0  0  0  0  0  0  0
   29.0820   13.6140   14.4480 N   0  0  0  0  0  0  0  0  0  0  0  0
   28.1390   14.0770   13.5770 C   0  0  0  0  0  0  0  0  0  0  0  0
   27.8830   13.4590   12.0100 S   0  0  0  0  0  0  0  0  0  0  0  0
   26.5550   14.5530   11.7220 C   0  0  0  0  0  0  0  0  0  0  0  0
   26.3240   15.3400   12.8480 C   0  0  0  0  0  0  0  0  0  0  0  0
   25.2260   16.3690   12.8850 C   0  0  0  0  0  0  0  0  0  0  0  0
   24.7240   16.6640   11.4420 C   0  0  0  0  0  0  0  0  0  0  0  0
   25.3540   15.9960   10.2040 C   0  0  0  0  0  0  0  0  0  0  0  0
   25.7720   14.5160   10.4290 C   0  0  0  0  0  0  0  0  0  0  0  0
   27.2460   15.0980   13.8800 C   0  0  0  0  0  0  0  0  0  0  0  0
   26.9620   15.8310   15.1570 C   0  0  0  0  0  0  0  0  0  0  0  0
   26.0490   16.5220   15.1490 O   0  0  0  0  0  0  0  0  0  0  0  0
   27.6240   16.2330   16.1880 N   0  0  0  0  0  0  0  0  0  0  0  0
   28.7520   15.6290   15.8900 C   0  0  0  0  0  0  0  0  0  0  0  0
   29.3760   17.1010   15.1840 C   0  0  0  0  0  0  0  0  0  0  0  0
   27.7060   16.7560   17.5290 C   0  0  0  0  0  0  0  0  0  0  0  0
   28.3940   15.6740   18.3140 C   0  0  0  0  0  0  0  0  0  0  0  0
   34.0157   11.7321   17.2024 H   0  0  0  0  0  0  0  0  0  0  0  0
   31.6990   11.1115   18.2431 H   0  0  0  0  0  0  0  0  0  0  0  0
   29.6091   11.9476   16.9194 H   0  0  0  0  0  0  0  0  0  0  0  0
   28.6999   13.2561   15.3350 H   0  0  0  0  0  0  0  0  0  0  0  0
   24.3904   15.9884   13.4907 H   0  0  0  0  0  0  0  0  0  0  0  0
   25.6158   17.2971   13.3284 H   0  0  0  0  0  0  0  0  0  0  0  0
   23.6572   16.3961   11.4267 H   0  0  0  0  0  0  0  0  0  0  0  0
   25.0137   17.7167   11.3081 H   0  0  0  0  0  0  0  0  0  0  0  0
   24.6220   16.0279    9.3835 H   0  0  0  0  0  0  0  0  0  0  0  0
   26.2729   16.5550    9.9734 H   0  0  0  0  0  0  0  0  0  0  0  0
   26.4004   14.1564    9.6009 H   0  0  0  0  0  0  0  0  0  0  0  0
   24.9105   13.8335   10.4736 H   0  0  0  0  0  0  0  0  0  0  0  0
   29.3169   15.2799   16.7669 H   0  0  0  0  0  0  0  0  0  0  0  0
   28.7407   14.6983   15.3038 H   0  0  0  0  0  0  0  0  0  0  0  0
   29.6704   17.7955   15.9846 H   0  0  0  0  0  0  0  0  0  0  0  0
   30.2521   16.8664   14.5615 H   0  0  0  0  0  0  0  0  0  0  0  0
   28.5982   17.5675   14.5615 H   0  0  0  0  0  0  0  0  0  0  0  0
   28.2949   17.6849   17.5487 H   0  0  0  0  0  0  0  0  0  0  0  0
   26.7175   17.0073   17.9410 H   0  0  0  0  0  0  0  0  0  0  0  0
   28.2712   15.8671   19.3899 H   0  0  0  0  0  0  0  0  0  0  0  0
   27.9492   14.6997   18.0632 H   0  0  0  0  0  0  0  0  0  0  0  0
   29.4650   15.6636   18.0632 H   0  0  0  0  0  0  0  0  0  0  0  0
  1  2  2  0
  2  3  1  0
  2  8  1  0
  3  7  2  0
  3  4  1  0
  4  5  1  0
  5  6  2  0
  6  7  1  0
  8  9  1  0
  9 17  2  0
  9 10  1  0
 10 11  1  0
 11 12  2  0
 11 16  1  0
 12 17  1  0
 12 13  1  0
 13 14  1  0
 14 15  1  0
 15 16  1  0
 17 18  1  0
 18 20  1  0
 18 19  2  0
 20 23  1  0
 20 21  1  0
 21 22  1  0
 23 24  1  0
  5 25  1  0
  6 26  1  0
  7 27  1  0
  8 28  1  0
 13 29  1  0
 13 30  1  0
 14 31  1  0
 14 32  1  0
 15 33  1  0
 15 34  1  0
 16 35  1  0
 16 36  1  0
 21 37  1  0
 21 38  1  0
 22 39  1  0
 22 40  1  0
 22 41  1  0
 23 42  1  0
 23 43  1  0
 24 44  1  0
 24 45  1  0
 24 46  1  0
A    1
O21
A    2
C15
A    3
C16
A    4
S17
A    5
C18
A    6
C19
A    7
C20
A    8
N14
A    9
C13
A   10
S12
A   11
C7
A   12
C6
A   13
C11
A   14
C10
A   15
C9
A   16
C8
A   17
C5
A   18
C4
A   19
O22
A   20
N3
A   21
C2
A   22
C1
A   23
C23
A   24
C24
M  END
