2PGJ_N1C_A_301
     RDKit          3D

 55 59  0  0  0  0  0  0  0  0999 V2000
    5.5610    3.5100    3.3870 O   0  0  0  0  0  0  0  0  0  0  0  0
    4.1620    4.1010    3.4810 P   0  0  0  0  0  0  0  0  0  0  0  0
    3.6290    3.9540    4.9900 O   0  0  0  0  0  0  0  0  0  0  0  0
    3.8740    5.5440    3.0580 O   0  0  0  0  0  0  0  0  0  0  0  0
    3.1650    3.1570    2.6320 O   0  0  0  0  0  0  0  0  0  0  0  0
    1.7560    3.3960    2.6900 C   0  0  0  0  0  0  0  0  0  0  0  0
    1.1920    3.6620    1.2870 C   0  0  0  0  0  0  0  0  0  0  0  0
   -0.3070    3.4630    1.2690 C   0  0  0  0  0  0  0  0  0  0  0  0
   -0.8900    4.5840    0.5910 O   0  0  0  0  0  0  0  0  0  0  0  0
   -0.5400    2.1560    0.5270 C   0  0  0  0  0  0  0  0  0  0  0  0
   -1.3500    2.4160   -0.6240 O   0  0  0  0  0  0  0  0  0  0  0  0
    1.6900    2.7430    0.3050 O   0  0  0  0  0  0  0  0  0  0  0  0
    0.8310    1.6120    0.1250 C   0  0  0  0  0  0  0  0  0  0  0  0
    1.3060    0.5800    1.0650 N   0  0  0  0  0  0  0  0  0  0  0  0
    0.4220   -0.3510    1.6720 C   0  0  0  0  0  0  0  0  0  0  0  0
   -0.7950   -0.3960    1.4040 O   0  0  0  0  0  0  0  0  0  0  0  0
    0.9950   -1.3270    2.6280 C   0  0  0  0  0  0  0  0  0  0  0  0
    0.4540   -2.3190    3.3690 N   0  0  0  0  0  0  0  0  0  0  0  0
    1.4640   -2.8810    4.0690 C   0  0  0  0  0  0  0  0  0  0  0  0
    2.6140    0.5350    1.3900 C   0  0  0  0  0  0  0  0  0  0  0  0
    3.1270   -0.3500    2.2630 N   0  0  0  0  0  0  0  0  0  0  0  0
    2.3500   -1.2740    2.8930 C   0  0  0  0  0  0  0  0  0  0  0  0
    2.6100   -2.2510    3.7710 N   0  0  0  0  0  0  0  0  0  0  0  0
    3.9150   -2.5960    4.3890 C   0  0  0  0  0  0  0  0  0  0  0  0
    4.0050   -1.7400    5.5350 O   0  0  0  0  0  0  0  0  0  0  0  0
    5.1370   -2.3060    3.5260 C   0  0  0  0  0  0  0  0  0  0  0  0
    6.0650   -3.3830    3.7110 O   0  0  0  0  0  0  0  0  0  0  0  0
    5.7000   -1.0820    4.1610 C   0  0  0  0  0  0  0  0  0  0  0  0
    6.7950   -0.4600    3.7320 O   0  0  0  0  0  0  0  0  0  0  0  0
    4.9960   -0.7360    5.2210 C   0  0  0  0  0  0  0  0  0  0  0  0
    5.1750    0.5350    6.0220 C   0  0  0  0  0  0  0  0  0  0  0  0
    4.4730    1.6110    5.3930 O   0  0  0  0  0  0  0  0  0  0  0  0
    4.4190    3.0660    6.0790 P   0  0  0  0  0  0  0  0  0  0  0  0
    5.8320    3.5850    6.2400 O   0  0  0  0  0  0  0  0  0  0  0  0
    3.5060    3.0060    7.2780 O   0  0  0  0  0  0  0  0  0  0  0  0
    5.9175    3.3594    4.2982 H   0  0  0  0  0  0  0  0  0  0  0  0
    1.2575    2.5139    3.1182 H   0  0  0  0  0  0  0  0  0  0  0  0
    1.5731    4.2804    3.3180 H   0  0  0  0  0  0  0  0  0  0  0  0
    1.4936    4.6930    1.0502 H   0  0  0  0  0  0  0  0  0  0  0  0
   -0.7617    3.4061    2.2690 H   0  0  0  0  0  0  0  0  0  0  0  0
   -1.2278    5.2335    1.2574 H   0  0  0  0  0  0  0  0  0  0  0  0
   -1.0623    1.4167    1.1520 H   0  0  0  0  0  0  0  0  0  0  0  0
   -2.2515    2.7054   -0.3346 H   0  0  0  0  0  0  0  0  0  0  0  0
    0.8061    1.1737   -0.8836 H   0  0  0  0  0  0  0  0  0  0  0  0
    1.3625   -3.7214    4.7714 H   0  0  0  0  0  0  0  0  0  0  0  0
    3.2951    1.2581    0.9176 H   0  0  0  0  0  0  0  0  0  0  0  0
    3.9302   -3.6786    4.5833 H   0  0  0  0  0  0  0  0  0  0  0  0
    4.9233   -2.1915    2.4530 H   0  0  0  0  0  0  0  0  0  0  0  0
    6.2000   -3.5397    4.6792 H   0  0  0  0  0  0  0  0  0  0  0  0
    6.3154   -1.7086    4.8233 H   0  0  0  0  0  0  0  0  0  0  0  0
    7.3283   -0.1571    4.5091 H   0  0  0  0  0  0  0  0  0  0  0  0
    5.7212   -1.2488    5.8700 H   0  0  0  0  0  0  0  0  0  0  0  0
    4.7785    0.3851    7.0371 H   0  0  0  0  0  0  0  0  0  0  0  0
    6.2456    0.7825    6.0732 H   0  0  0  0  0  0  0  0  0  0  0  0
    4.0467    3.0415    8.1066 H   0  0  0  0  0  0  0  0  0  0  0  0
  1  2  1  0
  2  5  1  0
  2  4  2  0
  2  3  1  0
  3 33  1  0
  5  6  1  0
  6  7  1  0
  7 12  1  0
  7  8  1  0
  8 10  1  0
  8  9  1  0
 10 11  1  0
 10 13  1  0
 12 13  1  0
 13 14  1  0
 14 20  1  0
 14 15  1  0
 15 16  2  0
 15 17  1  0
 17 22  2  0
 17 18  1  0
 18 19  2  0
 19 23  1  0
 20 21  2  0
 21 22  1  0
 22 23  1  0
 23 24  1  0
 24 26  1  0
 24 25  1  0
 25 30  1  0
 26 27  1  0
 26 28  1  0
 28 29  1  0
 28 30  1  0
 30 31  1  0
 31 32  1  0
 32 33  1  0
 33 34  2  0
 33 35  1  0
  1 36  1  0
  6 37  1  0
  6 38  1  0
  7 39  1  0
  8 40  1  0
  9 41  1  0
 10 42  1  0
 11 43  1  0
 13 44  1  0
 19 45  1  0
 20 46  1  0
 24 47  1  0
 26 48  1  0
 27 49  1  0
 28 50  1  0
 29 51  1  0
 30 52  1  0
 31 53  1  0
 31 54  1  0
 35 55  1  0
A    1
O1B
A    2
PB
A    3
O3A
A    4
O2B
A    5
O5D
A    6
C5D
A    7
C4D
A    8
C3D
A    9
O3D
A   10
C2D
A   11
O2D
A   12
O4D
A   13
C1D
A   14
N1
A   15
C6
A   16
O6
A   17
C5
A   18
N7
A   19
C8
A   20
C2
A   21
N3
A   22
C4
A   23
N9
A   24
C1'
A   25
O4'
A   26
C2'
A   27
O2'
A   28
C3'
A   29
O3'
A   30
C4'
A   31
C5'
A   32
O5'
A   33
PA
A   34
O1A
A   35
O2A
M  END
