2PH8_35A_A_388
     RDKit          3D

 65 67  0  0  0  0  0  0  0  0999 V2000
   28.6480   41.9880    0.6210 C   0  0  0  0  0  0  0  0  0  0  0  0
   29.8060   42.9190    0.7930 C   0  0  0  0  0  0  0  0  0  0  0  0
   33.3860   41.3570   -0.4010 C   0  0  0  0  0  0  0  0  0  0  0  0
   32.9880   39.9990    0.0830 C   0  0  0  0  0  0  0  0  0  0  0  0
   29.6800   39.8810    1.5750 O   0  0  0  0  0  0  0  0  0  0  0  0
   28.7290   40.4780    0.6530 C   0  0  0  0  0  0  0  0  0  0  0  0
   32.9350   39.7370    1.3860 C   0  0  0  0  0  0  0  0  0  0  0  0
   32.5530   38.3690    1.8910 C   0  0  0  0  0  0  0  0  0  0  0  0
   31.1140   38.1670    2.3560 C   0  0  0  0  0  0  0  0  0  0  0  0
   33.6880   42.3190    0.4660 C   0  0  0  0  0  0  0  0  0  0  0  0
   33.6230   42.0430    1.9360 C   0  0  0  0  0  0  0  0  0  0  0  0
   33.2740   40.8310    2.3430 C   0  0  0  0  0  0  0  0  0  0  0  0
   31.0910   45.6780    2.2900 C   0  0  0  0  0  0  0  0  0  0  0  0
   31.8070   44.6160    3.1390 C   0  0  0  0  0  0  0  0  0  0  0  0
   33.2830   44.4680    2.7270 C   0  0  0  0  0  0  0  0  0  0  0  0
   33.9680   43.1170    2.9620 C   0  0  0  0  0  0  0  0  0  0  0  0
   29.6050   44.2420    0.7230 C   0  0  0  0  0  0  0  0  0  0  0  0
   30.7470   45.2320    0.8780 C   0  0  0  0  0  0  0  0  0  0  0  0
   28.3820   44.7920    0.4910 N   0  0  0  0  0  0  0  0  0  0  0  0
   27.4610   42.5320    0.3930 C   0  0  0  0  0  0  0  0  0  0  0  0
   27.3630   44.0120    0.3530 C   0  0  0  0  0  0  0  0  0  0  0  0
   26.1320   44.5290    0.0920 N   0  0  0  0  0  0  0  0  0  0  0  0
   25.4760   45.6950    1.1270 S   0  0  0  0  0  0  0  0  0  0  0  0
   25.9950   47.2230    0.5280 C   0  0  0  0  0  0  0  0  0  0  0  0
   23.8160   45.6250    0.9680 O   0  0  0  0  0  0  0  0  0  0  0  0
   26.1120   45.5140    2.6530 O   0  0  0  0  0  0  0  0  0  0  0  0
   25.6970   44.5070   -1.3130 C   0  0  0  0  0  0  0  0  0  0  0  0
   31.6490   44.9280    4.6290 C   0  0  0  0  0  0  0  0  0  0  0  0
   30.1830   38.6610    1.2800 C   0  0  0  0  0  0  0  0  0  0  0  0
   30.0050   38.0210    0.2570 O   0  0  0  0  0  0  0  0  0  0  0  0
   30.8590   36.6700    2.6030 C   0  0  0  0  0  0  0  0  0  0  0  0
   30.8490   38.8790    3.6430 N   0  0  0  0  0  0  0  0  0  0  0  0
   30.8150   42.5207    0.9756 H   0  0  0  0  0  0  0  0  0  0  0  0
   33.4292   41.5613   -1.4810 H   0  0  0  0  0  0  0  0  0  0  0  0
   32.7375   39.2118   -0.6433 H   0  0  0  0  0  0  0  0  0  0  0  0
   27.7306   40.0991    0.9168 H   0  0  0  0  0  0  0  0  0  0  0  0
   29.0883   40.1933   -0.3469 H   0  0  0  0  0  0  0  0  0  0  0  0
   32.7399   37.6531    1.0770 H   0  0  0  0  0  0  0  0  0  0  0  0
   33.1629   38.2232    2.7947 H   0  0  0  0  0  0  0  0  0  0  0  0
   33.9847   43.3145    0.1042 H   0  0  0  0  0  0  0  0  0  0  0  0
   33.2328   40.6243    3.4226 H   0  0  0  0  0  0  0  0  0  0  0  0
   31.7442   46.5604    2.2217 H   0  0  0  0  0  0  0  0  0  0  0  0
   30.1352   45.8871    2.7928 H   0  0  0  0  0  0  0  0  0  0  0  0
   31.3319   43.6417    2.9519 H   0  0  0  0  0  0  0  0  0  0  0  0
   33.3440   44.6818    1.6497 H   0  0  0  0  0  0  0  0  0  0  0  0
   33.8214   45.1652    3.3859 H   0  0  0  0  0  0  0  0  0  0  0  0
   33.6712   42.7501    3.9556 H   0  0  0  0  0  0  0  0  0  0  0  0
   35.0496   43.2965    2.8735 H   0  0  0  0  0  0  0  0  0  0  0  0
   30.4863   46.1314    0.3008 H   0  0  0  0  0  0  0  0  0  0  0  0
   31.6392   44.6944    0.5245 H   0  0  0  0  0  0  0  0  0  0  0  0
   26.5721   41.9029    0.2376 H   0  0  0  0  0  0  0  0  0  0  0  0
   26.2216   47.8902    1.3727 H   0  0  0  0  0  0  0  0  0  0  0  0
   26.8979   47.0888   -0.0857 H   0  0  0  0  0  0  0  0  0  0  0  0
   25.1971   47.6665   -0.0857 H   0  0  0  0  0  0  0  0  0  0  0  0
   24.5992   44.4515   -1.3561 H   0  0  0  0  0  0  0  0  0  0  0  0
   26.0379   45.4235   -1.8168 H   0  0  0  0  0  0  0  0  0  0  0  0
   26.1286   43.6295   -1.8168 H   0  0  0  0  0  0  0  0  0  0  0  0
   32.0673   44.1020    5.2229 H   0  0  0  0  0  0  0  0  0  0  0  0
   32.1843   45.8589    4.8675 H   0  0  0  0  0  0  0  0  0  0  0  0
   30.5818   45.0474    4.8675 H   0  0  0  0  0  0  0  0  0  0  0  0
   30.8262   36.4774    3.6855 H   0  0  0  0  0  0  0  0  0  0  0  0
   29.8989   36.3820    2.1500 H   0  0  0  0  0  0  0  0  0  0  0  0
   31.6696   36.0803    2.1500 H   0  0  0  0  0  0  0  0  0  0  0  0
   31.0798   38.2588    4.4323 H   0  0  0  0  0  0  0  0  0  0  0  0
   31.4304   39.7278    3.6918 H   0  0  0  0  0  0  0  0  0  0  0  0
  1 20  1  0
  1  6  1  0
  1  2  2  0
  2 17  1  0
  3  4  1  0
  3 10  2  0
  4  7  2  0
  5  6  1  0
  5 29  1  0
  7  8  1  0
  7 12  1  0
  8  9  1  0
  9 29  1  0
  9 31  1  0
  9 32  1  0
 10 11  1  0
 11 12  2  0
 11 16  1  0
 13 18  1  0
 13 14  1  0
 14 15  1  0
 14 28  1  0
 15 16  1  0
 17 19  2  0
 17 18  1  0
 19 21  1  0
 20 21  2  0
 21 22  1  0
 22 27  1  0
 22 23  1  0
 23 24  1  0
 23 25  2  0
 23 26  2  0
 29 30  2  0
  2 33  1  0
  3 34  1  0
  4 35  1  0
  6 36  1  0
  6 37  1  0
  8 38  1  0
  8 39  1  0
 10 40  1  0
 12 41  1  0
 13 42  1  0
 13 43  1  0
 14 44  1  0
 15 45  1  0
 15 46  1  0
 16 47  1  0
 16 48  1  0
 18 49  1  0
 18 50  1  0
 20 51  1  0
 24 52  1  0
 24 53  1  0
 24 54  1  0
 27 55  1  0
 27 56  1  0
 27 57  1  0
 28 58  1  0
 28 59  1  0
 28 60  1  0
 31 61  1  0
 31 62  1  0
 31 63  1  0
 32 64  1  0
 32 65  1  0
A    1
C
A    2
C1
A    3
C2
A    4
C3
A    5
O
A    6
C4
A    7
C5
A    8
C6
A    9
C7
A   10
C8
A   11
C9
A   12
C10
A   13
C11
A   14
C12
A   15
C13
A   16
C14
A   17
C15
A   18
C16
A   19
N
A   20
C17
A   21
C18
A   22
N19
A   23
S
A   24
C20
A   25
O21
A   26
O22
A   27
C23
A   28
C24
A   29
C25
A   30
O26
A   31
C27
A   32
N28
M  END
