2PIZ_606_A_401
     RDKit          3D

 51 52  0  0  0  0  0  0  0  0999 V2000
   35.5980   18.5350   63.3690 C   0  0  0  0  0  0  0  0  0  0  0  0
   36.3650   19.4500   64.1340 C   0  0  0  0  0  0  0  0  0  0  0  0
   37.3160   20.2890   63.4910 C   0  0  0  0  0  0  0  0  0  0  0  0
   37.4970   20.2130   62.0860 C   0  0  0  0  0  0  0  0  0  0  0  0
   36.7290   19.2980   61.3210 C   0  0  0  0  0  0  0  0  0  0  0  0
   35.7800   18.4590   61.9600 C   0  0  0  0  0  0  0  0  0  0  0  0
   34.9430   17.4830   61.1210 C   0  0  0  0  0  0  0  0  0  0  0  0
   35.4510   16.0480   61.2680 C   0  0  0  0  0  0  0  0  0  0  0  0
   34.6780   15.0870   60.3590 C   0  0  0  0  0  0  0  0  0  0  0  0
   35.1990   13.3660   60.6110 P   0  0  0  0  0  0  0  0  0  0  0  0
   34.4640   12.5380   59.6320 O   0  0  0  0  0  0  0  0  0  0  0  0
   35.0350   13.0660   62.0440 O   0  0  0  0  0  0  0  0  0  0  0  0
   36.9470   13.3740   60.1230 C   0  0  0  0  0  0  0  0  0  0  0  0
   37.5990   12.0100   60.4580 C   0  0  0  0  0  0  0  0  0  0  0  0
   37.9090   11.8860   61.9770 C   0  0  0  0  0  0  0  0  0  0  0  0
   37.7350   10.7690   62.4900 O   0  0  0  0  0  0  0  0  0  0  0  0
   38.3360   12.9090   62.5830 O   0  0  0  0  0  0  0  0  0  0  0  0
   38.9200   11.8050   59.6840 C   0  0  0  0  0  0  0  0  0  0  0  0
   39.2110   10.5120   59.1750 C   0  0  0  0  0  0  0  0  0  0  0  0
   39.8950   12.8430   59.5750 C   0  0  0  0  0  0  0  0  0  0  0  0
   41.1480   12.5730   58.9690 C   0  0  0  0  0  0  0  0  0  0  0  0
   41.4360   11.2760   58.4710 C   0  0  0  0  0  0  0  0  0  0  0  0
   40.4680   10.2450   58.5780 C   0  0  0  0  0  0  0  0  0  0  0  0
   40.7780    8.9930   58.1990 N   0  0  0  0  0  0  0  0  0  0  0  0
   40.4850    8.4880   56.9870 C   0  0  0  0  0  0  0  0  0  0  0  0
   39.8920    9.2310   56.0480 N   0  0  0  0  0  0  0  0  0  0  0  0
   40.8210    7.2290   56.7200 N   0  0  0  0  0  0  0  0  0  0  0  0
   34.8626   17.8842   63.8647 H   0  0  0  0  0  0  0  0  0  0  0  0
   36.2245   19.5106   65.2233 H   0  0  0  0  0  0  0  0  0  0  0  0
   37.9123   20.9981   64.0839 H   0  0  0  0  0  0  0  0  0  0  0  0
   38.2326   20.8633   61.5900 H   0  0  0  0  0  0  0  0  0  0  0  0
   36.8693   19.2389   60.2316 H   0  0  0  0  0  0  0  0  0  0  0  0
   33.8963   17.5288   61.4560 H   0  0  0  0  0  0  0  0  0  0  0  0
   35.0259   17.7744   60.0635 H   0  0  0  0  0  0  0  0  0  0  0  0
   36.5171   16.0161   60.9988 H   0  0  0  0  0  0  0  0  0  0  0  0
   35.3030   15.7329   62.3115 H   0  0  0  0  0  0  0  0  0  0  0  0
   33.6040   15.1712   60.5813 H   0  0  0  0  0  0  0  0  0  0  0  0
   34.8849   15.3601   59.3137 H   0  0  0  0  0  0  0  0  0  0  0  0
   35.4338   13.7954   62.5816 H   0  0  0  0  0  0  0  0  0  0  0  0
   37.0219   13.5571   59.0409 H   0  0  0  0  0  0  0  0  0  0  0  0
   37.4711   14.1687   60.6741 H   0  0  0  0  0  0  0  0  0  0  0  0
   36.8707   11.2415   60.1599 H   0  0  0  0  0  0  0  0  0  0  0  0
   38.3449   12.9303   63.5727 H   0  0  0  0  0  0  0  0  0  0  0  0
   38.4572    9.7139   59.2444 H   0  0  0  0  0  0  0  0  0  0  0  0
   39.6743   13.8494   59.9603 H   0  0  0  0  0  0  0  0  0  0  0  0
   41.8995   13.3718   58.8846 H   0  0  0  0  0  0  0  0  0  0  0  0
   42.4096   11.0702   58.0022 H   0  0  0  0  0  0  0  0  0  0  0  0
   41.2667    8.3871   58.8736 H   0  0  0  0  0  0  0  0  0  0  0  0
   39.2724   10.0073   56.3207 H   0  0  0  0  0  0  0  0  0  0  0  0
   40.0545    9.0274   55.0515 H   0  0  0  0  0  0  0  0  0  0  0  0
   40.6058    6.8230   55.7982 H   0  0  0  0  0  0  0  0  0  0  0  0
  1  6  2  0
  1  2  1  0
  2  3  2  0
  3  4  1  0
  4  5  2  0
  5  6  1  0
  6  7  1  0
  7  8  1  0
  8  9  1  0
  9 10  1  0
 10 11  2  0
 10 13  1  0
 10 12  1  0
 13 14  1  0
 14 18  1  0
 14 15  1  0
 15 16  2  0
 15 17  1  0
 18 19  2  0
 18 20  1  0
 19 23  1  0
 20 21  2  0
 21 22  1  0
 22 23  2  0
 23 24  1  0
 24 25  1  0
 25 26  1  0
 25 27  2  3
  1 28  1  0
  2 29  1  0
  3 30  1  0
  4 31  1  0
  5 32  1  0
  7 33  1  0
  7 34  1  0
  8 35  1  0
  8 36  1  0
  9 37  1  0
  9 38  1  0
 12 39  1  0
 13 40  1  0
 13 41  1  0
 14 42  1  0
 17 43  1  0
 19 44  1  0
 20 45  1  0
 21 46  1  0
 22 47  1  0
 24 48  1  0
 26 49  1  0
 26 50  1  0
 27 51  1  0
A    1
C29
A    2
C30
A    3
C31
A    4
C32
A    5
C33
A    6
C28
A    7
C27
A    8
C26
A    9
C25
A   10
P24
A   11
O34
A   12
O35
A   13
C23
A   14
C1
A   15
C2
A   16
O14
A   17
O13
A   18
C3
A   19
C8
A   20
C4
A   21
C5
A   22
C6
A   23
C7
A   24
N9
A   25
C10
A   26
N12
A   27
N11
M  END
