2PJ2_864_A_401
     RDKit          3D

 60 61  0  0  0  0  0  0  0  0999 V2000
   37.1570   11.2900   59.7160 C   0  0  0  0  0  0  0  0  0  0  0  0
   37.2910   10.5750   61.0050 C   0  0  0  0  0  0  0  0  0  0  0  0
   38.4500   11.2270   58.9360 C   0  0  0  0  0  0  0  0  0  0  0  0
   39.6360   12.0320   59.2630 C   0  0  0  0  0  0  0  0  0  0  0  0
   40.8790   11.9450   58.5420 C   0  0  0  0  0  0  0  0  0  0  0  0
   40.9260   11.0080   57.4480 C   0  0  0  0  0  0  0  0  0  0  0  0
   39.7870   10.1910   57.0740 C   0  0  0  0  0  0  0  0  0  0  0  0
   38.5530   10.3010   57.8190 C   0  0  0  0  0  0  0  0  0  0  0  0
   39.8590    9.2460   55.9530 C   0  0  0  0  0  0  0  0  0  0  0  0
   39.9850    7.8380   56.3680 N   0  0  0  0  0  0  0  0  0  0  0  0
   37.6870   11.1330   62.0610 O   0  0  0  0  0  0  0  0  0  0  0  0
   37.0180    9.3580   61.0390 O   0  0  0  0  0  0  0  0  0  0  0  0
   36.6050   12.7390   60.0370 C   0  0  0  0  0  0  0  0  0  0  0  0
   35.0440   12.9250   60.6430 P   0  0  0  0  0  0  0  0  0  0  0  0
   34.8300   14.3630   61.4890 C   0  0  0  0  0  0  0  0  0  0  0  0
   34.9330   15.7110   60.6910 C   0  0  0  0  0  0  0  0  0  0  0  0
   36.3250   16.2340   60.2970 C   0  0  0  0  0  0  0  0  0  0  0  0
   34.2450   16.8510   61.4660 C   0  0  0  0  0  0  0  0  0  0  0  0
   35.7230   14.3150   62.6340 N   0  0  0  0  0  0  0  0  0  0  0  0
   35.3160   14.2320   63.9310 C   0  0  0  0  0  0  0  0  0  0  0  0
   34.0980   14.2100   64.2660 O   0  0  0  0  0  0  0  0  0  0  0  0
   36.3170   14.1540   64.8440 O   0  0  0  0  0  0  0  0  0  0  0  0
   36.1950   13.9520   66.2620 C   0  0  0  0  0  0  0  0  0  0  0  0
   34.0960   12.8650   59.5580 O   0  0  0  0  0  0  0  0  0  0  0  0
   34.7870   11.8600   61.5730 O   0  0  0  0  0  0  0  0  0  0  0  0
   37.4950   13.9730   66.9450 C   0  0  0  0  0  0  0  0  0  0  0  0
   37.5960   14.6960   68.2040 C   0  0  0  0  0  0  0  0  0  0  0  0
   38.8670   14.7330   68.9040 C   0  0  0  0  0  0  0  0  0  0  0  0
   40.0070   14.0410   68.3220 C   0  0  0  0  0  0  0  0  0  0  0  0
   39.9210   13.3150   67.0650 C   0  0  0  0  0  0  0  0  0  0  0  0
   38.6480   13.2800   66.3680 C   0  0  0  0  0  0  0  0  0  0  0  0
   36.4313   10.8159   59.0388 H   0  0  0  0  0  0  0  0  0  0  0  0
   39.5700   12.7385   60.1035 H   0  0  0  0  0  0  0  0  0  0  0  0
   41.7485   12.5622   58.8123 H   0  0  0  0  0  0  0  0  0  0  0  0
   41.8600   10.9086   56.8754 H   0  0  0  0  0  0  0  0  0  0  0  0
   37.6879    9.6816   57.5399 H   0  0  0  0  0  0  0  0  0  0  0  0
   38.9430    9.3498   55.3528 H   0  0  0  0  0  0  0  0  0  0  0  0
   40.7667    9.4940   55.3833 H   0  0  0  0  0  0  0  0  0  0  0  0
   39.9900    7.7823   57.3965 H   0  0  0  0  0  0  0  0  0  0  0  0
   39.1889    7.2987   55.9988 H   0  0  0  0  0  0  0  0  0  0  0  0
   37.4264   10.7657   62.9426 H   0  0  0  0  0  0  0  0  0  0  0  0
   37.2884   13.1839   60.7753 H   0  0  0  0  0  0  0  0  0  0  0  0
   36.5532   13.2172   59.0477 H   0  0  0  0  0  0  0  0  0  0  0  0
   33.7704   14.4014   61.7818 H   0  0  0  0  0  0  0  0  0  0  0  0
   34.4419   15.4343   59.7464 H   0  0  0  0  0  0  0  0  0  0  0  0
   36.9054   16.4521   61.2056 H   0  0  0  0  0  0  0  0  0  0  0  0
   36.8484   15.4712   59.7018 H   0  0  0  0  0  0  0  0  0  0  0  0
   36.2166   17.1527   59.7018 H   0  0  0  0  0  0  0  0  0  0  0  0
   34.3508   16.6757   62.5468 H   0  0  0  0  0  0  0  0  0  0  0  0
   34.7154   17.8097   61.2023 H   0  0  0  0  0  0  0  0  0  0  0  0
   33.1775   16.8816   61.2023 H   0  0  0  0  0  0  0  0  0  0  0  0
   36.7363   14.3460   62.4518 H   0  0  0  0  0  0  0  0  0  0  0  0
   35.5638   14.7504   66.6794 H   0  0  0  0  0  0  0  0  0  0  0  0
   35.7484   12.9595   66.4219 H   0  0  0  0  0  0  0  0  0  0  0  0
   34.8697   12.2026   62.4981 H   0  0  0  0  0  0  0  0  0  0  0  0
   36.7173   15.2096   68.6212 H   0  0  0  0  0  0  0  0  0  0  0  0
   38.9665   15.2740   69.8566 H   0  0  0  0  0  0  0  0  0  0  0  0
   40.9701   14.0681   68.8528 H   0  0  0  0  0  0  0  0  0  0  0  0
   40.8021   12.8030   66.6509 H   0  0  0  0  0  0  0  0  0  0  0  0
   38.5509   12.7381   65.4157 H   0  0  0  0  0  0  0  0  0  0  0  0
  1  3  1  0
  1 13  1  0
  1  2  1  0
  2 12  2  0
  2 11  1  0
  3  8  1  0
  3  4  2  0
  4  5  1  0
  5  6  2  0
  6  7  1  0
  7  9  1  0
  7  8  2  0
  9 10  1  0
 13 14  1  0
 14 24  2  0
 14 15  1  0
 14 25  1  0
 15 16  1  0
 15 19  1  0
 16 17  1  0
 16 18  1  0
 19 20  1  0
 20 21  2  0
 20 22  1  0
 22 23  1  0
 23 26  1  0
 26 31  1  0
 26 27  2  0
 27 28  1  0
 28 29  2  0
 29 30  1  0
 30 31  2  0
  1 32  1  0
  4 33  1  0
  5 34  1  0
  6 35  1  0
  8 36  1  0
  9 37  1  0
  9 38  1  0
 10 39  1  0
 10 40  1  0
 11 41  1  0
 13 42  1  0
 13 43  1  0
 15 44  1  0
 16 45  1  0
 17 46  1  0
 17 47  1  0
 17 48  1  0
 18 49  1  0
 18 50  1  0
 18 51  1  0
 19 52  1  0
 23 53  1  0
 23 54  1  0
 25 55  1  0
 27 56  1  0
 28 57  1  0
 29 58  1  0
 30 59  1  0
 31 60  1  0
A    1
C1
A    2
C2
A    3
C3
A    4
C4
A    5
C5
A    6
C6
A    7
C7
A    8
C8
A    9
C9
A   10
N10
A   11
O13
A   12
O14
A   13
C15
A   14
P24
A   15
C25
A   16
C26
A   17
C27
A   18
C28
A   19
N29
A   20
C30
A   21
O31
A   22
O32
A   23
C33
A   24
O34
A   25
O35
A   26
C36
A   27
C37
A   28
C38
A   29
C39
A   30
C40
A   31
C41
M  END
