2PJ5_11B_A_401
     RDKit          3D

 66 67  0  0  0  0  0  0  0  0999 V2000
   39.0030   13.9720   66.6010 C   0  0  0  0  0  0  0  0  0  0  0  0
   39.9780   13.8570   67.6070 C   0  0  0  0  0  0  0  0  0  0  0  0
   39.5870   13.6950   68.9470 C   0  0  0  0  0  0  0  0  0  0  0  0
   38.2220   13.6480   69.2790 C   0  0  0  0  0  0  0  0  0  0  0  0
   37.2460   13.7630   68.2730 C   0  0  0  0  0  0  0  0  0  0  0  0
   37.6340   13.9250   66.9330 C   0  0  0  0  0  0  0  0  0  0  0  0
   36.6650   14.0440   65.9340 C   0  0  0  0  0  0  0  0  0  0  0  0
   37.0690   14.0330   64.5460 O   0  0  0  0  0  0  0  0  0  0  0  0
   36.0370   14.2140   63.6620 C   0  0  0  0  0  0  0  0  0  0  0  0
   34.8720   14.3090   64.0730 O   0  0  0  0  0  0  0  0  0  0  0  0
   36.3650   14.2810   62.3700 N   0  0  0  0  0  0  0  0  0  0  0  0
   35.3790   14.3660   61.2820 C   0  0  0  0  0  0  0  0  0  0  0  0
   35.8670   15.3800   60.2280 C   0  0  0  0  0  0  0  0  0  0  0  0
   36.2600   16.7290   60.8540 C   0  0  0  0  0  0  0  0  0  0  0  0
   35.0760   17.4290   61.5370 C   0  0  0  0  0  0  0  0  0  0  0  0
   35.5270   18.7070   62.2640 C   0  0  0  0  0  0  0  0  0  0  0  0
   36.0990   19.7490   61.2950 C   0  0  0  0  0  0  0  0  0  0  0  0
   35.2350   12.6980   60.5390 P   0  0  0  0  0  0  0  0  0  0  0  0
   34.1810   12.7180   59.5050 O   0  0  0  0  0  0  0  0  0  0  0  0
   35.1050   11.7340   61.6590 O   0  0  0  0  0  0  0  0  0  0  0  0
   36.6630   12.4820   59.8220 O   0  0  0  0  0  0  0  0  0  0  0  0
   37.0150   11.1670   59.3810 C   0  0  0  0  0  0  0  0  0  0  0  0
   37.6150   10.3610   60.5500 C   0  0  0  0  0  0  0  0  0  0  0  0
   37.3390    9.1420   60.5920 O   0  0  0  0  0  0  0  0  0  0  0  0
   38.3260   10.9810   61.3730 O   0  0  0  0  0  0  0  0  0  0  0  0
   38.0050   11.2240   58.1950 C   0  0  0  0  0  0  0  0  0  0  0  0
   38.6800   10.0600   57.8080 C   0  0  0  0  0  0  0  0  0  0  0  0
   38.2210   12.4210   57.4840 C   0  0  0  0  0  0  0  0  0  0  0  0
   39.1130   12.4390   56.3920 C   0  0  0  0  0  0  0  0  0  0  0  0
   39.7900   11.2620   56.0110 C   0  0  0  0  0  0  0  0  0  0  0  0
   39.5720   10.0680   56.7230 C   0  0  0  0  0  0  0  0  0  0  0  0
   40.1890    8.9300   56.3630 N   0  0  0  0  0  0  0  0  0  0  0  0
   41.0020    8.2540   57.2030 C   0  0  0  0  0  0  0  0  0  0  0  0
   41.2940    8.7300   58.4190 N   0  0  0  0  0  0  0  0  0  0  0  0
   41.5440    7.1060   56.8080 N   0  0  0  0  0  0  0  0  0  0  0  0
   39.3092   14.0990   65.5521 H   0  0  0  0  0  0  0  0  0  0  0  0
   41.0459   13.8938   67.3456 H   0  0  0  0  0  0  0  0  0  0  0  0
   40.3486   13.6050   69.7355 H   0  0  0  0  0  0  0  0  0  0  0  0
   37.9165   13.5210   70.3281 H   0  0  0  0  0  0  0  0  0  0  0  0
   36.1785   13.7261   68.5357 H   0  0  0  0  0  0  0  0  0  0  0  0
   35.9617   13.2091   66.0692 H   0  0  0  0  0  0  0  0  0  0  0  0
   36.2671   15.0592   66.0794 H   0  0  0  0  0  0  0  0  0  0  0  0
   37.3644   14.2727   62.1210 H   0  0  0  0  0  0  0  0  0  0  0  0
   34.4010   14.7006   61.6583 H   0  0  0  0  0  0  0  0  0  0  0  0
   36.7436   14.9604   59.7127 H   0  0  0  0  0  0  0  0  0  0  0  0
   35.0386   15.5625   59.5277 H   0  0  0  0  0  0  0  0  0  0  0  0
   37.0462   16.5542   61.6033 H   0  0  0  0  0  0  0  0  0  0  0  0
   36.6118   17.3834   60.0428 H   0  0  0  0  0  0  0  0  0  0  0  0
   34.3287   17.6949   60.7749 H   0  0  0  0  0  0  0  0  0  0  0  0
   34.6463   16.7402   62.2793 H   0  0  0  0  0  0  0  0  0  0  0  0
   34.6617   19.1435   62.7843 H   0  0  0  0  0  0  0  0  0  0  0  0
   36.3212   18.4315   62.9735 H   0  0  0  0  0  0  0  0  0  0  0  0
   36.5511   20.5726   61.8672 H   0  0  0  0  0  0  0  0  0  0  0  0
   36.8654   19.2787   60.6614 H   0  0  0  0  0  0  0  0  0  0  0  0
   35.2908   20.1431   60.6614 H   0  0  0  0  0  0  0  0  0  0  0  0
   35.1703   12.2179   62.5202 H   0  0  0  0  0  0  0  0  0  0  0  0
   36.1019   10.6625   59.0322 H   0  0  0  0  0  0  0  0  0  0  0  0
   38.1823   10.8557   62.3445 H   0  0  0  0  0  0  0  0  0  0  0  0
   38.5092    9.1252   58.3620 H   0  0  0  0  0  0  0  0  0  0  0  0
   37.6945   13.3403   57.7803 H   0  0  0  0  0  0  0  0  0  0  0  0
   39.2811   13.3732   55.8361 H   0  0  0  0  0  0  0  0  0  0  0  0
   40.4865   11.2773   55.1597 H   0  0  0  0  0  0  0  0  0  0  0  0
   40.0366    8.5605   55.4137 H   0  0  0  0  0  0  0  0  0  0  0  0
   41.9164    8.1985   59.0443 H   0  0  0  0  0  0  0  0  0  0  0  0
   41.8671    6.4217   57.5067 H   0  0  0  0  0  0  0  0  0  0  0  0
   41.6408    6.9010   55.8033 H   0  0  0  0  0  0  0  0  0  0  0  0
  1  6  2  0
  1  2  1  0
  2  3  2  0
  3  4  1  0
  4  5  2  0
  5  6  1  0
  6  7  1  0
  7  8  1  0
  8  9  1  0
  9 11  1  0
  9 10  2  0
 11 12  1  0
 12 13  1  0
 12 18  1  0
 13 14  1  0
 14 15  1  0
 15 16  1  0
 16 17  1  0
 18 19  2  0
 18 21  1  0
 18 20  1  0
 21 22  1  0
 22 26  1  0
 22 23  1  0
 23 24  2  0
 23 25  1  0
 26 28  1  0
 26 27  2  0
 27 31  1  0
 28 29  2  0
 29 30  1  0
 30 31  2  0
 31 32  1  0
 32 33  1  0
 33 35  1  0
 33 34  2  3
  1 36  1  0
  2 37  1  0
  3 38  1  0
  4 39  1  0
  5 40  1  0
  7 41  1  0
  7 42  1  0
 11 43  1  0
 12 44  1  0
 13 45  1  0
 13 46  1  0
 14 47  1  0
 14 48  1  0
 15 49  1  0
 15 50  1  0
 16 51  1  0
 16 52  1  0
 17 53  1  0
 17 54  1  0
 17 55  1  0
 20 56  1  0
 22 57  1  0
 25 58  1  0
 27 59  1  0
 28 60  1  0
 29 61  1  0
 30 62  1  0
 32 63  1  0
 34 64  1  0
 35 65  1  0
 35 66  1  0
A    1
C39
A    2
C40
A    3
C41
A    4
C42
A    5
C43
A    6
C38
A    7
C35
A    8
O34
A    9
C32
A   10
O33
A   11
N31
A   12
C25
A   13
C26
A   14
C27
A   15
C28
A   16
C29
A   17
C30
A   18
P24
A   19
O36
A   20
O37
A   21
O23
A   22
C1
A   23
C2
A   24
O14
A   25
O13
A   26
C3
A   27
C8
A   28
C4
A   29
C5
A   30
C6
A   31
C7
A   32
N9
A   33
C10
A   34
N12
A   35
N11
M  END
