2PJ6_059_A_401
     RDKit          3D

 63 64  0  0  0  0  0  0  0  0999 V2000
   -1.9620    5.3260    9.0040 C   0  0  0  0  0  0  0  0  0  0  0  0
   -3.0020    4.4860    8.5380 C   0  0  0  0  0  0  0  0  0  0  0  0
   -3.8640    3.8520    9.4690 C   0  0  0  0  0  0  0  0  0  0  0  0
   -3.6840    4.0570   10.8630 C   0  0  0  0  0  0  0  0  0  0  0  0
   -2.6420    4.8980   11.3290 C   0  0  0  0  0  0  0  0  0  0  0  0
   -1.7810    5.5350   10.4000 C   0  0  0  0  0  0  0  0  0  0  0  0
   -0.6870    6.4880   10.8930 C   0  0  0  0  0  0  0  0  0  0  0  0
    0.7170    5.8860   10.7420 C   0  0  0  0  0  0  0  0  0  0  0  0
    1.3320    4.9780   12.1980 S   0  0  0  0  0  0  0  0  0  0  0  0
    1.4110    5.9170   13.3640 O   0  0  0  0  0  0  0  0  0  0  0  0
    0.4190    3.8330   12.5390 O   0  0  0  0  0  0  0  0  0  0  0  0
    2.8550    4.3800   11.8300 N   0  0  0  0  0  0  0  0  0  0  0  0
    4.0560    4.7340   12.5080 C   0  0  0  0  0  0  0  0  0  0  0  0
    4.7760    3.4800   13.0620 C   0  0  0  0  0  0  0  0  0  0  0  0
    5.0130    2.4010   11.9970 C   0  0  0  0  0  0  0  0  0  0  0  0
    3.9670    2.8770   14.2180 C   0  0  0  0  0  0  0  0  0  0  0  0
    5.1200    5.8930   11.5190 P   0  0  0  0  0  0  0  0  0  0  0  0
    6.3790    6.0750   12.2640 O   0  0  0  0  0  0  0  0  0  0  0  0
    4.2540    7.0860   11.2700 O   0  0  0  0  0  0  0  0  0  0  0  0
    5.4670    5.0790    9.9140 C   0  0  0  0  0  0  0  0  0  0  0  0
    5.9220    6.1310    8.8610 C   0  0  0  0  0  0  0  0  0  0  0  0
    4.7560    7.0510    8.4310 C   0  0  0  0  0  0  0  0  0  0  0  0
    5.0420    8.2430    8.1780 O   0  0  0  0  0  0  0  0  0  0  0  0
    3.6150    6.5320    8.3450 O   0  0  0  0  0  0  0  0  0  0  0  0
    6.4690    5.4620    7.5900 C   0  0  0  0  0  0  0  0  0  0  0  0
    7.6900    5.9200    7.0540 C   0  0  0  0  0  0  0  0  0  0  0  0
    5.6950    4.5000    6.8810 C   0  0  0  0  0  0  0  0  0  0  0  0
    6.1470    4.0180    5.6320 C   0  0  0  0  0  0  0  0  0  0  0  0
    7.3680    4.4870    5.0940 C   0  0  0  0  0  0  0  0  0  0  0  0
    8.1380    5.4350    5.8030 C   0  0  0  0  0  0  0  0  0  0  0  0
    9.4400    5.9540    5.2130 C   0  0  0  0  0  0  0  0  0  0  0  0
    9.1720    7.1880    4.4600 N   0  0  0  0  0  0  0  0  0  0  0  0
   -1.2915    5.8188    8.2845 H   0  0  0  0  0  0  0  0  0  0  0  0
   -3.1409    4.3257    7.4586 H   0  0  0  0  0  0  0  0  0  0  0  0
   -4.6741    3.1998    9.1106 H   0  0  0  0  0  0  0  0  0  0  0  0
   -4.3539    3.5626   11.5819 H   0  0  0  0  0  0  0  0  0  0  0  0
   -2.5019    5.0559   12.4086 H   0  0  0  0  0  0  0  0  0  0  0  0
   -0.7382    7.4187   10.3089 H   0  0  0  0  0  0  0  0  0  0  0  0
   -0.8604    6.6770   11.9627 H   0  0  0  0  0  0  0  0  0  0  0  0
    0.6995    5.1908    9.8897 H   0  0  0  0  0  0  0  0  0  0  0  0
    1.4005    6.7363   10.6011 H   0  0  0  0  0  0  0  0  0  0  0  0
    2.7784    3.3570   11.9227 H   0  0  0  0  0  0  0  0  0  0  0  0
    3.7912    5.3272   13.3957 H   0  0  0  0  0  0  0  0  0  0  0  0
    5.7624    3.8171   13.4134 H   0  0  0  0  0  0  0  0  0  0  0  0
    5.2240    1.4401   12.4892 H   0  0  0  0  0  0  0  0  0  0  0  0
    4.1152    2.3020   11.3692 H   0  0  0  0  0  0  0  0  0  0  0  0
    5.8697    2.6874   11.3692 H   0  0  0  0  0  0  0  0  0  0  0  0
    4.4001    3.1998   15.1762 H   0  0  0  0  0  0  0  0  0  0  0  0
    2.9237    3.2196   14.1533 H   0  0  0  0  0  0  0  0  0  0  0  0
    3.9972    1.7793   14.1533 H   0  0  0  0  0  0  0  0  0  0  0  0
    6.1940    6.0483   13.2362 H   0  0  0  0  0  0  0  0  0  0  0  0
    6.2645    4.3337   10.0502 H   0  0  0  0  0  0  0  0  0  0  0  0
    4.5496    4.5887    9.5561 H   0  0  0  0  0  0  0  0  0  0  0  0
    6.7110    6.7208    9.3506 H   0  0  0  0  0  0  0  0  0  0  0  0
    3.1121    6.3032    9.1665 H   0  0  0  0  0  0  0  0  0  0  0  0
    8.2937    6.6538    7.6081 H   0  0  0  0  0  0  0  0  0  0  0  0
    4.7482    4.1332    7.3042 H   0  0  0  0  0  0  0  0  0  0  0  0
    5.5496    3.2785    5.0785 H   0  0  0  0  0  0  0  0  0  0  0  0
    7.7187    4.1125    4.1210 H   0  0  0  0  0  0  0  0  0  0  0  0
   10.1528    6.1653    6.0237 H   0  0  0  0  0  0  0  0  0  0  0  0
    9.8686    5.1965    4.5403 H   0  0  0  0  0  0  0  0  0  0  0  0
    9.0039    7.9622    5.1182 H   0  0  0  0  0  0  0  0  0  0  0  0
    9.9840    7.4116    3.8671 H   0  0  0  0  0  0  0  0  0  0  0  0
  1  2  2  0
  1  6  1  0
  2  3  1  0
  3  4  2  0
  4  5  1  0
  5  6  2  0
  6  7  1  0
  7  8  1  0
  8  9  1  0
  9 12  1  0
  9 11  2  0
  9 10  2  0
 12 13  1  0
 13 17  1  0
 13 14  1  0
 14 15  1  0
 14 16  1  0
 17 20  1  0
 17 19  2  0
 17 18  1  0
 20 21  1  0
 21 25  1  0
 21 22  1  0
 22 23  2  0
 22 24  1  0
 25 27  1  0
 25 26  2  0
 26 30  1  0
 27 28  2  0
 28 29  1  0
 29 30  2  0
 30 31  1  0
 31 32  1  0
  1 33  1  0
  2 34  1  0
  3 35  1  0
  4 36  1  0
  5 37  1  0
  7 38  1  0
  7 39  1  0
  8 40  1  0
  8 41  1  0
 12 42  1  0
 13 43  1  0
 14 44  1  0
 15 45  1  0
 15 46  1  0
 15 47  1  0
 16 48  1  0
 16 49  1  0
 16 50  1  0
 18 51  1  0
 20 52  1  0
 20 53  1  0
 21 54  1  0
 24 55  1  0
 26 56  1  0
 27 57  1  0
 28 58  1  0
 29 59  1  0
 31 60  1  0
 31 61  1  0
 32 62  1  0
 32 63  1  0
A    1
C36
A    2
C37
A    3
C38
A    4
C39
A    5
C40
A    6
C35
A    7
C34
A    8
C33
A    9
S32
A   10
O32
A   11
O33
A   12
N31
A   13
C27
A   14
C28
A   15
C30
A   16
C29
A   17
P24
A   18
O25
A   19
O26
A   20
C15
A   21
C1
A   22
C2
A   23
O14
A   24
O13
A   25
C3
A   26
C8
A   27
C4
A   28
C5
A   29
C6
A   30
C7
A   31
C9
A   32
N10
M  END
