2PJ8_17A_A_401
     RDKit          3D

 67 69  0  0  0  0  0  0  0  0999 V2000
   37.9700   20.7890   67.0120 C   0  0  0  0  0  0  0  0  0  0  0  0
   38.2610   22.1410   67.3150 C   0  0  0  0  0  0  0  0  0  0  0  0
   37.3650   23.1660   66.9150 C   0  0  0  0  0  0  0  0  0  0  0  0
   36.1760   22.8430   66.2140 C   0  0  0  0  0  0  0  0  0  0  0  0
   35.8780   21.4910   65.9110 C   0  0  0  0  0  0  0  0  0  0  0  0
   36.7720   20.4420   66.3030 C   0  0  0  0  0  0  0  0  0  0  0  0
   36.5350   19.0920   65.8900 C   0  0  0  0  0  0  0  0  0  0  0  0
   37.6270   18.1870   65.7000 C   0  0  0  0  0  0  0  0  0  0  0  0
   37.4030   16.8830   65.1930 C   0  0  0  0  0  0  0  0  0  0  0  0
   35.2130   18.6490   65.5610 C   0  0  0  0  0  0  0  0  0  0  0  0
   34.9950   17.3440   65.0590 C   0  0  0  0  0  0  0  0  0  0  0  0
   36.0880   16.4610   64.8730 C   0  0  0  0  0  0  0  0  0  0  0  0
   35.8260   14.8600   64.2220 S   0  0  0  0  0  0  0  0  0  0  0  0
   34.4730   14.4310   64.4930 O   0  0  0  0  0  0  0  0  0  0  0  0
   36.7910   13.8970   64.8550 O   0  0  0  0  0  0  0  0  0  0  0  0
   36.0960   14.8830   62.5540 N   0  0  0  0  0  0  0  0  0  0  0  0
   35.1050   14.6150   61.6080 C   0  0  0  0  0  0  0  0  0  0  0  0
   34.9730   15.7960   60.6120 C   0  0  0  0  0  0  0  0  0  0  0  0
   36.2980   16.1720   59.9370 C   0  0  0  0  0  0  0  0  0  0  0  0
   34.4130   17.0280   61.3310 C   0  0  0  0  0  0  0  0  0  0  0  0
   35.4090   12.9730   60.8180 P   0  0  0  0  0  0  0  0  0  0  0  0
   34.4720   12.8420   59.6940 O   0  0  0  0  0  0  0  0  0  0  0  0
   35.2840   12.0120   61.9370 O   0  0  0  0  0  0  0  0  0  0  0  0
   37.0920   12.8170   60.1310 C   0  0  0  0  0  0  0  0  0  0  0  0
   37.4830   11.3520   59.8260 C   0  0  0  0  0  0  0  0  0  0  0  0
   37.6630   10.5060   61.1070 C   0  0  0  0  0  0  0  0  0  0  0  0
   37.4150    9.2870   61.0100 O   0  0  0  0  0  0  0  0  0  0  0  0
   38.0700   11.0950   62.1370 O   0  0  0  0  0  0  0  0  0  0  0  0
   38.8130   11.3210   59.0480 C   0  0  0  0  0  0  0  0  0  0  0  0
   38.8790   10.6190   57.8270 C   0  0  0  0  0  0  0  0  0  0  0  0
   39.9840   11.9380   59.5740 C   0  0  0  0  0  0  0  0  0  0  0  0
   41.2090   11.8450   58.8780 C   0  0  0  0  0  0  0  0  0  0  0  0
   41.2730   11.1380   57.6570 C   0  0  0  0  0  0  0  0  0  0  0  0
   40.1080   10.5210   57.1340 C   0  0  0  0  0  0  0  0  0  0  0  0
   40.1930    9.6890   55.8660 C   0  0  0  0  0  0  0  0  0  0  0  0
   40.3000    8.2700   56.2430 N   0  0  0  0  0  0  0  0  0  0  0  0
   38.6683   19.9979   67.3228 H   0  0  0  0  0  0  0  0  0  0  0  0
   39.1814   22.3968   67.8603 H   0  0  0  0  0  0  0  0  0  0  0  0
   37.5941   24.2159   67.1499 H   0  0  0  0  0  0  0  0  0  0  0  0
   35.4850   23.6413   65.9054 H   0  0  0  0  0  0  0  0  0  0  0  0
   34.9523   21.2447   65.3702 H   0  0  0  0  0  0  0  0  0  0  0  0
   38.6495   18.5065   65.9498 H   0  0  0  0  0  0  0  0  0  0  0  0
   38.2506   16.1972   65.0475 H   0  0  0  0  0  0  0  0  0  0  0  0
   34.3598   19.3293   65.6998 H   0  0  0  0  0  0  0  0  0  0  0  0
   33.9750   17.0141   64.8126 H   0  0  0  0  0  0  0  0  0  0  0  0
   36.4423   15.8287   62.3382 H   0  0  0  0  0  0  0  0  0  0  0  0
   34.1226   14.5344   62.0963 H   0  0  0  0  0  0  0  0  0  0  0  0
   34.2864   15.4578   59.8219 H   0  0  0  0  0  0  0  0  0  0  0  0
   37.0538   16.3865   60.7069 H   0  0  0  0  0  0  0  0  0  0  0  0
   36.6404   15.3356   59.3100 H   0  0  0  0  0  0  0  0  0  0  0  0
   36.1500   17.0636   59.3100 H   0  0  0  0  0  0  0  0  0  0  0  0
   34.4804   16.8798   62.4189 H   0  0  0  0  0  0  0  0  0  0  0  0
   34.9960   17.9159   61.0451 H   0  0  0  0  0  0  0  0  0  0  0  0
   33.3607   17.1726   61.0451 H   0  0  0  0  0  0  0  0  0  0  0  0
   35.3471   12.4974   62.7975 H   0  0  0  0  0  0  0  0  0  0  0  0
   37.1453   13.3964   59.1975 H   0  0  0  0  0  0  0  0  0  0  0  0
   37.7945   13.1959   60.8880 H   0  0  0  0  0  0  0  0  0  0  0  0
   36.6602   10.9220   59.2359 H   0  0  0  0  0  0  0  0  0  0  0  0
   37.8304   10.7483   63.0328 H   0  0  0  0  0  0  0  0  0  0  0  0
   37.9751   10.1478   57.4136 H   0  0  0  0  0  0  0  0  0  0  0  0
   39.9339   12.4885   60.5250 H   0  0  0  0  0  0  0  0  0  0  0  0
   42.1121   12.3224   59.2861 H   0  0  0  0  0  0  0  0  0  0  0  0
   42.2258   11.0660   57.1120 H   0  0  0  0  0  0  0  0  0  0  0  0
   39.2887    9.8443   55.2593 H   0  0  0  0  0  0  0  0  0  0  0  0
   41.0723    9.9892   55.2772 H   0  0  0  0  0  0  0  0  0  0  0  0
   40.3063    8.1870   57.2696 H   0  0  0  0  0  0  0  0  0  0  0  0
   39.4957    7.7518   55.8616 H   0  0  0  0  0  0  0  0  0  0  0  0
  1  6  2  0
  1  2  1  0
  2  3  2  0
  3  4  1  0
  4  5  2  0
  5  6  1  0
  6  7  1  0
  7 10  1  0
  7  8  2  0
  8  9  1  0
  9 12  2  0
 10 11  2  0
 11 12  1  0
 12 13  1  0
 13 16  1  0
 13 14  2  0
 13 15  2  0
 16 17  1  0
 17 18  1  0
 17 21  1  0
 18 19  1  0
 18 20  1  0
 21 22  2  0
 21 24  1  0
 21 23  1  0
 24 25  1  0
 25 29  1  0
 25 26  1  0
 26 27  2  0
 26 28  1  0
 29 30  2  0
 29 31  1  0
 30 34  1  0
 31 32  2  0
 32 33  1  0
 33 34  2  0
 34 35  1  0
 35 36  1  0
  1 37  1  0
  2 38  1  0
  3 39  1  0
  4 40  1  0
  5 41  1  0
  8 42  1  0
  9 43  1  0
 10 44  1  0
 11 45  1  0
 16 46  1  0
 17 47  1  0
 18 48  1  0
 19 49  1  0
 19 50  1  0
 19 51  1  0
 20 52  1  0
 20 53  1  0
 20 54  1  0
 23 55  1  0
 24 56  1  0
 24 57  1  0
 25 58  1  0
 28 59  1  0
 30 60  1  0
 31 61  1  0
 32 62  1  0
 33 63  1  0
 35 64  1  0
 35 65  1  0
 36 66  1  0
 36 67  1  0
A    1
C41
A    2
C42
A    3
C43
A    4
C44
A    5
C45
A    6
C40
A    7
C37
A    8
C38
A    9
C39
A   10
C36
A   11
C35
A   12
C34
A   13
S32
A   14
O33
A   15
O32
A   16
N31
A   17
C27
A   18
C28
A   19
C30
A   20
C29
A   21
P24
A   22
O25
A   23
O26
A   24
C15
A   25
C1
A   26
C2
A   27
O14
A   28
O13
A   29
C3
A   30
C8
A   31
C4
A   32
C5
A   33
C6
A   34
C7
A   35
C9
A   36
N10
M  END
