2PJ9_281_A_401
     RDKit          3D

 58 60  0  0  0  0  0  0  0  0999 V2000
   36.0790   -0.3050   11.9830 C   0  0  0  0  0  0  0  0  0  0  0  0
   35.9360   -0.2240   10.6480 N   0  0  0  0  0  0  0  0  0  0  0  0
   37.1970   -1.0250    9.9890 S   0  0  0  0  0  0  0  0  0  0  0  0
   37.9750   -1.5090   11.3210 N   0  0  0  0  0  0  0  0  0  0  0  0
   37.2710   -1.0600   12.3800 C   0  0  0  0  0  0  0  0  0  0  0  0
   37.5440   -1.2350   13.7610 C   0  0  0  0  0  0  0  0  0  0  0  0
   36.6950   -0.6970   14.7510 C   0  0  0  0  0  0  0  0  0  0  0  0
   35.5490    0.0310   14.3660 C   0  0  0  0  0  0  0  0  0  0  0  0
   35.2450    0.2260   12.9940 C   0  0  0  0  0  0  0  0  0  0  0  0
   33.8470    1.1770   12.5480 S   0  0  0  0  0  0  0  0  0  0  0  0
   33.0380    1.3950   13.7090 O   0  0  0  0  0  0  0  0  0  0  0  0
   33.0690    0.4400   11.5090 O   0  0  0  0  0  0  0  0  0  0  0  0
   34.3680    2.6370   11.8830 N   0  0  0  0  0  0  0  0  0  0  0  0
   34.1670    3.8000   12.6880 C   0  0  0  0  0  0  0  0  0  0  0  0
   35.4720    4.4780   13.1930 C   0  0  0  0  0  0  0  0  0  0  0  0
   36.5390    4.5740   12.0940 C   0  0  0  0  0  0  0  0  0  0  0  0
   36.0480    3.7090   14.3870 C   0  0  0  0  0  0  0  0  0  0  0  0
   33.0080    4.9770   11.8120 P   0  0  0  0  0  0  0  0  0  0  0  0
   32.9090    6.2580   12.5460 O   0  0  0  0  0  0  0  0  0  0  0  0
   31.7780    4.1760   11.6140 O   0  0  0  0  0  0  0  0  0  0  0  0
   33.7640    5.3250   10.1760 C   0  0  0  0  0  0  0  0  0  0  0  0
   32.7010    5.8290    9.1440 C   0  0  0  0  0  0  0  0  0  0  0  0
   31.7270    4.7090    8.7190 C   0  0  0  0  0  0  0  0  0  0  0  0
   30.5630    5.0550    8.4360 O   0  0  0  0  0  0  0  0  0  0  0  0
   32.1730    3.5360    8.6650 O   0  0  0  0  0  0  0  0  0  0  0  0
   33.3820    6.3710    7.8630 C   0  0  0  0  0  0  0  0  0  0  0  0
   32.9480    7.6060    7.3190 C   0  0  0  0  0  0  0  0  0  0  0  0
   34.3660    5.6040    7.1700 C   0  0  0  0  0  0  0  0  0  0  0  0
   34.9000    6.0660    5.9440 C   0  0  0  0  0  0  0  0  0  0  0  0
   34.4600    7.2960    5.3990 C   0  0  0  0  0  0  0  0  0  0  0  0
   33.4860    8.0680    6.0840 C   0  0  0  0  0  0  0  0  0  0  0  0
   33.0240    9.3970    5.4940 C   0  0  0  0  0  0  0  0  0  0  0  0
   31.9970    9.1470    4.4700 N   0  0  0  0  0  0  0  0  0  0  0  0
   38.4359   -1.8018   14.0662 H   0  0  0  0  0  0  0  0  0  0  0  0
   36.9249   -0.8441   15.8166 H   0  0  0  0  0  0  0  0  0  0  0  0
   34.8856    0.4509   15.1364 H   0  0  0  0  0  0  0  0  0  0  0  0
   35.3773    2.5549   11.6947 H   0  0  0  0  0  0  0  0  0  0  0  0
   33.6912    3.4677   13.6224 H   0  0  0  0  0  0  0  0  0  0  0  0
   35.2015    5.4995   13.4985 H   0  0  0  0  0  0  0  0  0  0  0  0
   37.5336    4.6635   12.5554 H   0  0  0  0  0  0  0  0  0  0  0  0
   36.5046    3.6691   11.4695 H   0  0  0  0  0  0  0  0  0  0  0  0
   36.3436    5.4582   11.4695 H   0  0  0  0  0  0  0  0  0  0  0  0
   35.7014    4.1717   15.3228 H   0  0  0  0  0  0  0  0  0  0  0  0
   35.7091    2.6632   14.3476 H   0  0  0  0  0  0  0  0  0  0  0  0
   37.1469    3.7401   14.3476 H   0  0  0  0  0  0  0  0  0  0  0  0
   32.9226    6.0821   13.5201 H   0  0  0  0  0  0  0  0  0  0  0  0
   34.5375    6.0976   10.2976 H   0  0  0  0  0  0  0  0  0  0  0  0
   34.1985    4.3900    9.7926 H   0  0  0  0  0  0  0  0  0  0  0  0
   32.1415    6.6285    9.6517 H   0  0  0  0  0  0  0  0  0  0  0  0
   32.3619    3.0393    9.5003 H   0  0  0  0  0  0  0  0  0  0  0  0
   32.1959    8.2073    7.8507 H   0  0  0  0  0  0  0  0  0  0  0  0
   34.7112    4.6483    7.5914 H   0  0  0  0  0  0  0  0  0  0  0  0
   35.6572    5.4693    5.4143 H   0  0  0  0  0  0  0  0  0  0  0  0
   34.8731    7.6536    4.4443 H   0  0  0  0  0  0  0  0  0  0  0  0
   32.6014   10.0255    6.2918 H   0  0  0  0  0  0  0  0  0  0  0  0
   33.8808    9.9133    5.0365 H   0  0  0  0  0  0  0  0  0  0  0  0
   31.1009    8.9289    4.9286 H   0  0  0  0  0  0  0  0  0  0  0  0
   31.8868    9.9857    3.8824 H   0  0  0  0  0  0  0  0  0  0  0  0
  1  2  2  0
  1  5  1  0
  1  9  1  0
  2  3  1  0
  3  4  1  0
  4  5  2  0
  5  6  1  0
  6  7  2  0
  7  8  1  0
  8  9  2  0
  9 10  1  0
 10 12  2  0
 10 13  1  0
 10 11  2  0
 13 14  1  0
 14 18  1  0
 14 15  1  0
 15 16  1  0
 15 17  1  0
 18 21  1  0
 18 20  2  0
 18 19  1  0
 21 22  1  0
 22 26  1  0
 22 23  1  0
 23 24  2  0
 23 25  1  0
 26 28  1  0
 26 27  2  0
 27 31  1  0
 28 29  2  0
 29 30  1  0
 30 31  2  0
 31 32  1  0
 32 33  1  0
  6 34  1  0
  7 35  1  0
  8 36  1  0
 13 37  1  0
 14 38  1  0
 15 39  1  0
 16 40  1  0
 16 41  1  0
 16 42  1  0
 17 43  1  0
 17 44  1  0
 17 45  1  0
 19 46  1  0
 21 47  1  0
 21 48  1  0
 22 49  1  0
 25 50  1  0
 27 51  1  0
 28 52  1  0
 29 53  1  0
 30 54  1  0
 32 55  1  0
 32 56  1  0
 33 57  1  0
 33 58  1  0
A    1
C35
A    2
N42
A    3
S41
A    4
N40
A    5
C36
A    6
C37
A    7
C38
A    8
C39
A    9
C34
A   10
S32
A   11
O33
A   12
O32
A   13
N31
A   14
C27
A   15
C28
A   16
C30
A   17
C29
A   18
P24
A   19
O25
A   20
O26
A   21
C15
A   22
C1
A   23
C2
A   24
O14
A   25
O13
A   26
C3
A   27
C8
A   28
C4
A   29
C5
A   30
C6
A   31
C7
A   32
C9
A   33
N10
M  END
