2PJB_983_A_401
     RDKit          3D

 84 86  0  0  0  0  0  0  0  0999 V2000
   37.7940   19.6870   63.2180 C   0  0  0  0  0  0  0  0  0  0  0  0
   36.7250   20.5490   62.8660 C   0  0  0  0  0  0  0  0  0  0  0  0
   36.5290   20.9100   61.5110 C   0  0  0  0  0  0  0  0  0  0  0  0
   37.4010   20.4100   60.5090 C   0  0  0  0  0  0  0  0  0  0  0  0
   38.4690   19.5470   60.8570 C   0  0  0  0  0  0  0  0  0  0  0  0
   38.6680   19.1830   62.2130 C   0  0  0  0  0  0  0  0  0  0  0  0
   39.7220   18.3260   62.5570 C   0  0  0  0  0  0  0  0  0  0  0  0
   39.5900   17.4050   63.6810 O   0  0  0  0  0  0  0  0  0  0  0  0
   39.0100   16.1800   63.3880 C   0  0  0  0  0  0  0  0  0  0  0  0
   38.6750   15.8940   62.2230 O   0  0  0  0  0  0  0  0  0  0  0  0
   38.8440   15.3430   64.4150 N   0  0  0  0  0  0  0  0  0  0  0  0
   38.2610   13.9890   64.2860 C   0  0  0  0  0  0  0  0  0  0  0  0
   39.1050   12.9850   65.0850 C   0  0  0  0  0  0  0  0  0  0  0  0
   40.5600   12.8390   64.5750 C   0  0  0  0  0  0  0  0  0  0  0  0
   40.8990   13.0350   63.1980 C   0  0  0  0  0  0  0  0  0  0  0  0
   42.2300   12.8310   62.7550 C   0  0  0  0  0  0  0  0  0  0  0  0
   43.2270   12.4320   63.6780 C   0  0  0  0  0  0  0  0  0  0  0  0
   42.8980   12.2400   65.0450 C   0  0  0  0  0  0  0  0  0  0  0  0
   41.5680   12.4450   65.4930 C   0  0  0  0  0  0  0  0  0  0  0  0
   36.8220   13.9470   64.8050 C   0  0  0  0  0  0  0  0  0  0  0  0
   35.6810   15.0550   63.9130 S   0  0  0  0  0  0  0  0  0  0  0  0
   34.2720   14.6290   64.1990 O   0  0  0  0  0  0  0  0  0  0  0  0
   35.8880   16.4640   64.3830 O   0  0  0  0  0  0  0  0  0  0  0  0
   35.9690   14.9650   62.3010 N   0  0  0  0  0  0  0  0  0  0  0  0
   34.9830   14.6650   61.3290 C   0  0  0  0  0  0  0  0  0  0  0  0
   34.8030   15.8310   60.3180 C   0  0  0  0  0  0  0  0  0  0  0  0
   36.1110   16.2600   59.6420 C   0  0  0  0  0  0  0  0  0  0  0  0
   34.1790   17.0430   61.0270 C   0  0  0  0  0  0  0  0  0  0  0  0
   35.2460   12.9850   60.5990 P   0  0  0  0  0  0  0  0  0  0  0  0
   34.3460   12.8190   59.4470 O   0  0  0  0  0  0  0  0  0  0  0  0
   35.1120   12.0490   61.7410 O   0  0  0  0  0  0  0  0  0  0  0  0
   36.9770   12.9540   60.0040 C   0  0  0  0  0  0  0  0  0  0  0  0
   37.4180   11.4940   59.7180 C   0  0  0  0  0  0  0  0  0  0  0  0
   37.5980   10.6660   61.0090 C   0  0  0  0  0  0  0  0  0  0  0  0
   37.3250    9.4520   60.9320 O   0  0  0  0  0  0  0  0  0  0  0  0
   38.0190   11.2580   62.0270 O   0  0  0  0  0  0  0  0  0  0  0  0
   38.7430   11.4490   58.9300 C   0  0  0  0  0  0  0  0  0  0  0  0
   38.7910   10.6840   57.7440 C   0  0  0  0  0  0  0  0  0  0  0  0
   39.9290   12.0800   59.4190 C   0  0  0  0  0  0  0  0  0  0  0  0
   41.1480   11.9260   58.7160 C   0  0  0  0  0  0  0  0  0  0  0  0
   41.1880   11.1510   57.5290 C   0  0  0  0  0  0  0  0  0  0  0  0
   40.0080   10.5310   57.0450 C   0  0  0  0  0  0  0  0  0  0  0  0
   40.0470    9.6830   55.7750 C   0  0  0  0  0  0  0  0  0  0  0  0
   40.0900    8.2580   56.1390 N   0  0  0  0  0  0  0  0  0  0  0  0
   37.9488   19.4067   64.2704 H   0  0  0  0  0  0  0  0  0  0  0  0
   36.0498   20.9363   63.6433 H   0  0  0  0  0  0  0  0  0  0  0  0
   35.7003   21.5785   61.2347 H   0  0  0  0  0  0  0  0  0  0  0  0
   37.2468   20.6939   59.4575 H   0  0  0  0  0  0  0  0  0  0  0  0
   39.1421   19.1603   60.0776 H   0  0  0  0  0  0  0  0  0  0  0  0
   39.9315   17.7117   61.6689 H   0  0  0  0  0  0  0  0  0  0  0  0
   40.5050   19.0201   62.8962 H   0  0  0  0  0  0  0  0  0  0  0  0
   39.1386   15.6577   65.3505 H   0  0  0  0  0  0  0  0  0  0  0  0
   38.2574   13.7252   63.2181 H   0  0  0  0  0  0  0  0  0  0  0  0
   39.1375   13.3173   66.1331 H   0  0  0  0  0  0  0  0  0  0  0  0
   38.6262   12.0017   64.9671 H   0  0  0  0  0  0  0  0  0  0  0  0
   40.1241   13.3449   62.4814 H   0  0  0  0  0  0  0  0  0  0  0  0
   42.4878   12.9823   61.6964 H   0  0  0  0  0  0  0  0  0  0  0  0
   44.2594   12.2704   63.3344 H   0  0  0  0  0  0  0  0  0  0  0  0
   43.6761   11.9315   65.7587 H   0  0  0  0  0  0  0  0  0  0  0  0
   41.3173   12.2983   66.5540 H   0  0  0  0  0  0  0  0  0  0  0  0
   36.4494   12.9165   64.7092 H   0  0  0  0  0  0  0  0  0  0  0  0
   36.8495   14.2913   65.8494 H   0  0  0  0  0  0  0  0  0  0  0  0
   36.3503   15.8842   62.0353 H   0  0  0  0  0  0  0  0  0  0  0  0
   34.0002   14.5910   61.8176 H   0  0  0  0  0  0  0  0  0  0  0  0
   34.1388   15.4556   59.5256 H   0  0  0  0  0  0  0  0  0  0  0  0
   36.8581   16.5050   60.4113 H   0  0  0  0  0  0  0  0  0  0  0  0
   36.4864   15.4379   59.0149 H   0  0  0  0  0  0  0  0  0  0  0  0
   35.9266   17.1448   59.0149 H   0  0  0  0  0  0  0  0  0  0  0  0
   34.2491   16.9068   62.1163 H   0  0  0  0  0  0  0  0  0  0  0  0
   34.7191   17.9561   60.7361 H   0  0  0  0  0  0  0  0  0  0  0  0
   33.1220   17.1338   60.7361 H   0  0  0  0  0  0  0  0  0  0  0  0
   35.1841   12.5524   62.5904 H   0  0  0  0  0  0  0  0  0  0  0  0
   37.0543   13.5449   59.0794 H   0  0  0  0  0  0  0  0  0  0  0  0
   37.6309   13.3819   60.7782 H   0  0  0  0  0  0  0  0  0  0  0  0
   36.6065   11.0533   59.1202 H   0  0  0  0  0  0  0  0  0  0  0  0
   37.7812   10.9236   62.9279 H   0  0  0  0  0  0  0  0  0  0  0  0
   37.8766   10.2055   57.3633 H   0  0  0  0  0  0  0  0  0  0  0  0
   39.8944   12.6831   60.3383 H   0  0  0  0  0  0  0  0  0  0  0  0
   42.0637   12.4072   59.0902 H   0  0  0  0  0  0  0  0  0  0  0  0
   42.1354   11.0307   56.9831 H   0  0  0  0  0  0  0  0  0  0  0  0
   39.1473    9.8811   55.1739 H   0  0  0  0  0  0  0  0  0  0  0  0
   40.9423    9.9395   55.1897 H   0  0  0  0  0  0  0  0  0  0  0  0
   40.0928    8.1656   57.1648 H   0  0  0  0  0  0  0  0  0  0  0  0
   39.2630    7.7801   55.7535 H   0  0  0  0  0  0  0  0  0  0  0  0
  1  6  2  0
  1  2  1  0
  2  3  2  0
  3  4  1  0
  4  5  2  0
  5  6  1  0
  6  7  1  0
  7  8  1  0
  8  9  1  0
  9 10  2  0
  9 11  1  0
 11 12  1  0
 12 20  1  0
 12 13  1  0
 13 14  1  0
 14 15  2  0
 14 19  1  0
 15 16  1  0
 16 17  2  0
 17 18  1  0
 18 19  2  0
 20 21  1  0
 21 24  1  0
 21 22  2  0
 21 23  2  0
 24 25  1  0
 25 26  1  0
 25 29  1  0
 26 27  1  0
 26 28  1  0
 29 30  2  0
 29 32  1  0
 29 31  1  0
 32 33  1  0
 33 37  1  0
 33 34  1  0
 34 35  2  0
 34 36  1  0
 37 38  2  0
 37 39  1  0
 38 42  1  0
 39 40  2  0
 40 41  1  0
 41 42  2  0
 42 43  1  0
 43 44  1  0
  1 45  1  0
  2 46  1  0
  3 47  1  0
  4 48  1  0
  5 49  1  0
  7 50  1  0
  7 51  1  0
 11 52  1  0
 12 53  1  0
 13 54  1  0
 13 55  1  0
 15 56  1  0
 16 57  1  0
 17 58  1  0
 18 59  1  0
 19 60  1  0
 20 61  1  0
 20 62  1  0
 24 63  1  0
 25 64  1  0
 26 65  1  0
 27 66  1  0
 27 67  1  0
 27 68  1  0
 28 69  1  0
 28 70  1  0
 28 71  1  0
 31 72  1  0
 32 73  1  0
 32 74  1  0
 33 75  1  0
 36 76  1  0
 38 77  1  0
 39 78  1  0
 40 79  1  0
 41 80  1  0
 43 81  1  0
 43 82  1  0
 44 83  1  0
 44 84  1  0
A    1
C49
A    2
C50
A    3
C51
A    4
C52
A    5
C53
A    6
C48
A    7
C47
A    8
O46
A    9
C44
A   10
O45
A   11
N43
A   12
C34
A   13
C35
A   14
C36
A   15
C37
A   16
C38
A   17
C41
A   18
C40
A   19
C39
A   20
C33
A   21
S32
A   22
O32
A   23
O33
A   24
N31
A   25
C27
A   26
C28
A   27
C30
A   28
C29
A   29
P24
A   30
O25
A   31
O26
A   32
C15
A   33
C1
A   34
C2
A   35
O14
A   36
O13
A   37
C3
A   38
C8
A   39
C4
A   40
C5
A   41
C6
A   42
C7
A   43
C9
A   44
N10
M  END
