1E7P_LMT_C_303
     RDKit          3D

 81 82  0  0  0  0  0  0  0  0999 V2000
   19.3100  -13.8040    5.1230 C   0  0  0  0  0  0  0  0  0  0  0  0
   20.8350  -13.8300    5.4780 C   0  0  0  0  0  0  0  0  0  0  0  0
   21.6720  -14.0450    4.2390 C   0  0  0  0  0  0  0  0  0  0  0  0
   21.2520  -15.3640    3.5490 C   0  0  0  0  0  0  0  0  0  0  0  0
   19.7320  -15.2600    3.1850 C   0  0  0  0  0  0  0  0  0  0  0  0
   19.2090  -16.5940    2.6130 C   0  0  0  0  0  0  0  0  0  0  0  0
   19.0180  -12.6780    4.2800 O   0  0  0  0  0  0  0  0  0  0  0  0
   21.2350  -12.6390    6.1260 O   0  0  0  0  0  0  0  0  0  0  0  0
   23.0320  -14.0560    4.6220 O   0  0  0  0  0  0  0  0  0  0  0  0
   22.0850  -15.5540    2.3580 O   0  0  0  0  0  0  0  0  0  0  0  0
   18.9490  -15.0490    4.3710 O   0  0  0  0  0  0  0  0  0  0  0  0
   19.2280  -17.7320    3.4890 O   0  0  0  0  0  0  0  0  0  0  0  0
   15.1970  -10.9310    3.2840 C   0  0  0  0  0  0  0  0  0  0  0  0
   15.2840  -11.6840    4.5550 C   0  0  0  0  0  0  0  0  0  0  0  0
   16.7420  -11.7630    5.0110 C   0  0  0  0  0  0  0  0  0  0  0  0
   17.5970  -12.5360    3.9040 C   0  0  0  0  0  0  0  0  0  0  0  0
   17.4790  -11.6250    2.6350 C   0  0  0  0  0  0  0  0  0  0  0  0
   18.2050  -12.3040    1.4900 C   0  0  0  0  0  0  0  0  0  0  0  0
   13.8340  -11.0540    2.8820 O   0  0  0  0  0  0  0  0  0  0  0  0
   14.4900  -11.1080    5.5730 O   0  0  0  0  0  0  0  0  0  0  0  0
   16.7540  -12.4000    6.3120 O   0  0  0  0  0  0  0  0  0  0  0  0
   16.0630  -11.5030    2.2890 O   0  0  0  0  0  0  0  0  0  0  0  0
   19.2230  -11.4550    0.9860 O   0  0  0  0  0  0  0  0  0  0  0  0
   13.2570  -10.1910    1.9260 C   0  0  0  0  0  0  0  0  0  0  0  0
   11.7360  -10.3410    1.9770 C   0  0  0  0  0  0  0  0  0  0  0  0
   11.1680  -10.7830    0.6380 C   0  0  0  0  0  0  0  0  0  0  0  0
   11.5070  -12.2410    0.3800 C   0  0  0  0  0  0  0  0  0  0  0  0
   10.2820  -13.1440    0.4340 C   0  0  0  0  0  0  0  0  0  0  0  0
    9.2420  -12.7360   -0.6220 C   0  0  0  0  0  0  0  0  0  0  0  0
    9.7450  -12.8130   -2.0830 C   0  0  0  0  0  0  0  0  0  0  0  0
   10.1790  -14.2220   -2.5280 C   0  0  0  0  0  0  0  0  0  0  0  0
    9.0620  -15.2750   -2.4670 C   0  0  0  0  0  0  0  0  0  0  0  0
    8.8920  -15.8370   -1.0810 C   0  0  0  0  0  0  0  0  0  0  0  0
   10.1090  -16.6710   -0.7130 C   0  0  0  0  0  0  0  0  0  0  0  0
    9.5800  -17.7440    0.1850 C   0  0  0  0  0  0  0  0  0  0  0  0
   18.7352  -13.7350    6.0583 H   0  0  0  0  0  0  0  0  0  0  0  0
   20.9955  -14.6711    6.1685 H   0  0  0  0  0  0  0  0  0  0  0  0
   21.5176  -13.2348    3.5112 H   0  0  0  0  0  0  0  0  0  0  0  0
   21.3956  -16.2329    4.2080 H   0  0  0  0  0  0  0  0  0  0  0  0
   19.6412  -14.4355    2.4626 H   0  0  0  0  0  0  0  0  0  0  0  0
   18.1669  -16.4344    2.2991 H   0  0  0  0  0  0  0  0  0  0  0  0
   19.9049  -16.8482    1.7999 H   0  0  0  0  0  0  0  0  0  0  0  0
   21.1922  -12.7666    7.1068 H   0  0  0  0  0  0  0  0  0  0  0  0
   23.0966  -14.0565    5.6099 H   0  0  0  0  0  0  0  0  0  0  0  0
   23.0120  -15.7654    2.6339 H   0  0  0  0  0  0  0  0  0  0  0  0
   19.2229  -17.4243    4.4299 H   0  0  0  0  0  0  0  0  0  0  0  0
   15.5079   -9.8828    3.4054 H   0  0  0  0  0  0  0  0  0  0  0  0
   14.8947  -12.6958    4.3685 H   0  0  0  0  0  0  0  0  0  0  0  0
   17.2079  -10.7721    5.1164 H   0  0  0  0  0  0  0  0  0  0  0  0
   17.2248  -13.5609    3.7588 H   0  0  0  0  0  0  0  0  0  0  0  0
   17.9133  -10.6325    2.8256 H   0  0  0  0  0  0  0  0  0  0  0  0
   18.6571  -13.2399    1.8500 H   0  0  0  0  0  0  0  0  0  0  0  0
   17.4861  -12.5203    0.6860 H   0  0  0  0  0  0  0  0  0  0  0  0
   14.8487  -11.3682    6.4583 H   0  0  0  0  0  0  0  0  0  0  0  0
   16.7409  -11.7070    7.0189 H   0  0  0  0  0  0  0  0  0  0  0  0
   19.7146  -11.0450    1.7412 H   0  0  0  0  0  0  0  0  0  0  0  0
   13.5332   -9.1508    2.1533 H   0  0  0  0  0  0  0  0  0  0  0  0
   13.6234  -10.4495    0.9215 H   0  0  0  0  0  0  0  0  0  0  0  0
   11.4774  -11.0912    2.7388 H   0  0  0  0  0  0  0  0  0  0  0  0
   11.3035   -9.3606    2.2255 H   0  0  0  0  0  0  0  0  0  0  0  0
   10.0749  -10.6605    0.6487 H   0  0  0  0  0  0  0  0  0  0  0  0
   11.6072  -10.1658   -0.1596 H   0  0  0  0  0  0  0  0  0  0  0  0
   11.9637  -12.3257   -0.6171 H   0  0  0  0  0  0  0  0  0  0  0  0
   12.1979  -12.5681    1.1710 H   0  0  0  0  0  0  0  0  0  0  0  0
   10.5935  -14.1824    0.2480 H   0  0  0  0  0  0  0  0  0  0  0  0
    9.8231  -13.0484    1.4291 H   0  0  0  0  0  0  0  0  0  0  0  0
    8.3724  -13.4023   -0.5227 H   0  0  0  0  0  0  0  0  0  0  0  0
    9.0000  -11.6802   -0.4303 H   0  0  0  0  0  0  0  0  0  0  0  0
    8.9337  -12.4767   -2.7453 H   0  0  0  0  0  0  0  0  0  0  0  0
   10.6378  -12.1734   -2.1439 H   0  0  0  0  0  0  0  0  0  0  0  0
   10.5383  -14.1603   -3.5658 H   0  0  0  0  0  0  0  0  0  0  0  0
   10.9593  -14.5486   -1.8248 H   0  0  0  0  0  0  0  0  0  0  0  0
    8.1163  -14.8080   -2.7793 H   0  0  0  0  0  0  0  0  0  0  0  0
    9.3378  -16.1022   -3.1376 H   0  0  0  0  0  0  0  0  0  0  0  0
    8.7838  -15.0112   -0.3624 H   0  0  0  0  0  0  0  0  0  0  0  0
    7.9938  -16.4714   -1.0529 H   0  0  0  0  0  0  0  0  0  0  0  0
   10.5651  -17.1090   -1.6131 H   0  0  0  0  0  0  0  0  0  0  0  0
   10.8917  -16.0708   -0.2261 H   0  0  0  0  0  0  0  0  0  0  0  0
    9.7256  -17.4486    1.2345 H   0  0  0  0  0  0  0  0  0  0  0  0
    8.5071  -17.8891   -0.0096 H   0  0  0  0  0  0  0  0  0  0  0  0
   10.1182  -18.6834   -0.0096 H   0  0  0  0  0  0  0  0  0  0  0  0
  1  2  1  0
  1  7  1  0
  1 11  1  0
  2  3  1  0
  2  8  1  0
  3  4  1  0
  3  9  1  0
  4  5  1  0
  4 10  1  0
  5  6  1  0
  5 11  1  0
  6 12  1  0
  7 16  1  0
 13 14  1  0
 13 19  1  0
 13 22  1  0
 14 15  1  0
 14 20  1  0
 15 16  1  0
 15 21  1  0
 16 17  1  0
 17 18  1  0
 17 22  1  0
 18 23  1  0
 19 24  1  0
 24 25  1  0
 25 26  1  0
 26 27  1  0
 27 28  1  0
 28 29  1  0
 29 30  1  0
 30 31  1  0
 31 32  1  0
 32 33  1  0
 33 34  1  0
 34 35  1  0
  1 36  1  0
  2 37  1  0
  3 38  1  0
  4 39  1  0
  5 40  1  0
  6 41  1  0
  6 42  1  0
  8 43  1  0
  9 44  1  0
 10 45  1  0
 12 46  1  0
 13 47  1  0
 14 48  1  0
 15 49  1  0
 16 50  1  0
 17 51  1  0
 18 52  1  0
 18 53  1  0
 20 54  1  0
 21 55  1  0
 23 56  1  0
 24 57  1  0
 24 58  1  0
 25 59  1  0
 25 60  1  0
 26 61  1  0
 26 62  1  0
 27 63  1  0
 27 64  1  0
 28 65  1  0
 28 66  1  0
 29 67  1  0
 29 68  1  0
 30 69  1  0
 30 70  1  0
 31 71  1  0
 31 72  1  0
 32 73  1  0
 32 74  1  0
 33 75  1  0
 33 76  1  0
 34 77  1  0
 34 78  1  0
 35 79  1  0
 35 80  1  0
 35 81  1  0
A    1
C1B
A    2
C2B
A    3
C3B
A    4
C4B
A    5
C5B
A    6
C6B
A    7
O1B
A    8
O2B
A    9
O3B
A   10
O4'
A   11
O5B
A   12
O6B
A   13
C1'
A   14
C2'
A   15
C3'
A   16
C4'
A   17
C5'
A   18
C6'
A   19
O1'
A   20
O2'
A   21
O3'
A   22
O5'
A   23
O6'
A   24
C1
A   25
C2
A   26
C3
A   27
C4
A   28
C5
A   29
C6
A   30
C7
A   31
C8
A   32
C9
A   33
C10
A   34
C11
A   35
C12
M  END
