2PNU_ENM_A_302
     RDKit          3D

 68 72  0  0  0  0  0  0  0  0999 V2000
   30.5150    2.1340   11.4970 C   0  0  0  0  0  0  0  0  0  0  0  0
   30.0030    2.2100   12.8120 C   0  0  0  0  0  0  0  0  0  0  0  0
   30.3230    3.2570   13.6150 F   0  0  0  0  0  0  0  0  0  0  0  0
   29.1260    1.2230   13.2840 C   0  0  0  0  0  0  0  0  0  0  0  0
   28.7540    0.1600   12.4480 C   0  0  0  0  0  0  0  0  0  0  0  0
   27.8780   -0.7670   12.8900 F   0  0  0  0  0  0  0  0  0  0  0  0
   29.2600    0.0790   11.1420 C   0  0  0  0  0  0  0  0  0  0  0  0
   30.1360    1.0660   10.6600 C   0  0  0  0  0  0  0  0  0  0  0  0
   30.5500    1.0170    9.3300 C   0  0  0  0  0  0  0  0  0  0  0  0
   29.6860    0.3710    8.3840 O   0  0  0  0  0  0  0  0  0  0  0  0
   30.0730    0.6240    7.0300 C   0  0  0  0  0  0  0  0  0  0  0  0
   28.9340    0.0740    6.1510 C   0  0  0  0  0  0  0  0  0  0  0  0
   29.1160    0.4020    4.6250 C   0  0  0  0  0  0  0  0  0  0  0  0
   29.6980    1.8150    4.3850 C   0  0  0  0  0  0  0  0  0  0  0  0
   28.7030    2.8900    4.9300 C   0  0  0  0  0  0  0  0  0  0  0  0
   27.2920    2.7480    4.2710 C   0  0  0  0  0  0  0  0  0  0  0  0
   26.2700    3.8310    4.7490 C   0  0  0  0  0  0  0  0  0  0  0  0
   26.0300    3.7050    6.2790 C   0  0  0  0  0  0  0  0  0  0  0  0
   26.8360    5.2460    4.4220 C   0  0  0  0  0  0  0  0  0  0  0  0
   25.8350    6.3820    4.7490 C   0  0  0  0  0  0  0  0  0  0  0  0
   24.4670    6.0960    4.1150 C   0  0  0  0  0  0  0  0  0  0  0  0
   23.8740    6.9730    3.4850 O   0  0  0  0  0  0  0  0  0  0  0  0
   23.8630    4.6930    4.2660 C   0  0  0  0  0  0  0  0  0  0  0  0
   24.9320    3.6210    3.9550 C   0  0  0  0  0  0  0  0  0  0  0  0
   24.3570    2.2040    4.1700 C   0  0  0  0  0  0  0  0  0  0  0  0
   25.3720    1.1440    3.7050 C   0  0  0  0  0  0  0  0  0  0  0  0
   26.7250    1.2930    4.4500 C   0  0  0  0  0  0  0  0  0  0  0  0
   27.7730    0.3070    3.8960 C   0  0  0  0  0  0  0  0  0  0  0  0
   27.4240   -1.1820    3.9250 C   0  0  0  0  0  0  0  0  0  0  0  0
   28.8020   -1.8630    3.7130 C   0  0  0  0  0  0  0  0  0  0  0  0
   29.8560   -0.7390    3.9190 C   0  0  0  0  0  0  0  0  0  0  0  0
   30.9900   -1.2100    4.6580 O   0  0  0  0  0  0  0  0  0  0  0  0
   31.2068    2.9057   11.1284 H   0  0  0  0  0  0  0  0  0  0  0  0
   28.7302    1.2823   14.3086 H   0  0  0  0  0  0  0  0  0  0  0  0
   28.9698   -0.7604   10.4930 H   0  0  0  0  0  0  0  0  0  0  0  0
   30.6900    2.0542    8.9915 H   0  0  0  0  0  0  0  0  0  0  0  0
   31.4579    0.3961    9.3451 H   0  0  0  0  0  0  0  0  0  0  0  0
   30.1962    1.7043    6.8636 H   0  0  0  0  0  0  0  0  0  0  0  0
   31.0335    0.1446    6.7900 H   0  0  0  0  0  0  0  0  0  0  0  0
   28.8958   -1.0187    6.2716 H   0  0  0  0  0  0  0  0  0  0  0  0
   28.0034    0.5589    6.4808 H   0  0  0  0  0  0  0  0  0  0  0  0
   30.6609    1.9083    4.9085 H   0  0  0  0  0  0  0  0  0  0  0  0
   29.8493    1.9700    3.3065 H   0  0  0  0  0  0  0  0  0  0  0  0
   28.6036    2.7664    6.0185 H   0  0  0  0  0  0  0  0  0  0  0  0
   29.1009    3.8858    4.6848 H   0  0  0  0  0  0  0  0  0  0  0  0
   27.4351    2.9301    3.1957 H   0  0  0  0  0  0  0  0  0  0  0  0
   26.8775    4.1500    6.8210 H   0  0  0  0  0  0  0  0  0  0  0  0
   25.1038    4.2331    6.5496 H   0  0  0  0  0  0  0  0  0  0  0  0
   25.9388    2.6427    6.5496 H   0  0  0  0  0  0  0  0  0  0  0  0
   27.7513    5.4034    5.0114 H   0  0  0  0  0  0  0  0  0  0  0  0
   27.0362    5.2814    3.3410 H   0  0  0  0  0  0  0  0  0  0  0  0
   25.7188    6.4584    5.8402 H   0  0  0  0  0  0  0  0  0  0  0  0
   26.2245    7.3262    4.3406 H   0  0  0  0  0  0  0  0  0  0  0  0
   23.5032    4.5603    5.2970 H   0  0  0  0  0  0  0  0  0  0  0  0
   23.0254    4.5827    3.5615 H   0  0  0  0  0  0  0  0  0  0  0  0
   25.1976    3.7342    2.8936 H   0  0  0  0  0  0  0  0  0  0  0  0
   24.1417    2.0572    5.2387 H   0  0  0  0  0  0  0  0  0  0  0  0
   23.4324    2.0983    3.5835 H   0  0  0  0  0  0  0  0  0  0  0  0
   24.9615    0.1432    3.9046 H   0  0  0  0  0  0  0  0  0  0  0  0
   25.5513    1.2839    2.6288 H   0  0  0  0  0  0  0  0  0  0  0  0
   26.5371    1.0809    5.5129 H   0  0  0  0  0  0  0  0  0  0  0  0
   27.8106    0.6404    2.8484 H   0  0  0  0  0  0  0  0  0  0  0  0
   26.9859   -1.4674    4.8928 H   0  0  0  0  0  0  0  0  0  0  0  0
   26.6763   -1.4685    3.1708 H   0  0  0  0  0  0  0  0  0  0  0  0
   28.9500   -2.6683    4.4475 H   0  0  0  0  0  0  0  0  0  0  0  0
   28.8824   -2.3204    2.7159 H   0  0  0  0  0  0  0  0  0  0  0  0
   30.2747   -0.3912    2.9631 H   0  0  0  0  0  0  0  0  0  0  0  0
   30.8066   -1.1338    5.6279 H   0  0  0  0  0  0  0  0  0  0  0  0
  1  8  2  0
  1  2  1  0
  2  4  2  0
  2  3  1  0
  4  5  1  0
  5  7  2  0
  5  6  1  0
  7  8  1  0
  8  9  1  0
  9 10  1  0
 10 11  1  0
 11 12  1  0
 12 13  1  0
 13 31  1  0
 13 28  1  0
 13 14  1  0
 14 15  1  0
 15 16  1  0
 16 27  1  0
 16 17  1  0
 17 24  1  0
 17 19  1  0
 17 18  1  0
 19 20  1  0
 20 21  1  0
 21 22  2  0
 21 23  1  0
 23 24  1  0
 24 25  1  0
 25 26  1  0
 26 27  1  0
 27 28  1  0
 28 29  1  0
 29 30  1  0
 30 31  1  0
 31 32  1  0
  1 33  1  0
  4 34  1  0
  7 35  1  0
  9 36  1  0
  9 37  1  0
 11 38  1  0
 11 39  1  0
 12 40  1  0
 12 41  1  0
 14 42  1  0
 14 43  1  0
 15 44  1  0
 15 45  1  0
 16 46  1  0
 18 47  1  0
 18 48  1  0
 18 49  1  0
 19 50  1  0
 19 51  1  0
 20 52  1  0
 20 53  1  0
 23 54  1  0
 23 55  1  0
 24 56  1  0
 25 57  1  0
 25 58  1  0
 26 59  1  0
 26 60  1  0
 27 61  1  0
 28 62  1  0
 29 63  1  0
 29 64  1  0
 30 65  1  0
 30 66  1  0
 31 67  1  0
 32 68  1  0
A    1
C23
A    2
C24
A    3
F2
A    4
C25
A    5
C26
A    6
F1
A    7
C27
A    8
C22
A    9
C21
A   10
O03
A   11
C20
A   12
C19
A   13
C12
A   14
C13
A   15
C14
A   16
C10
A   17
C05
A   18
C18
A   19
C06
A   20
C01
A   21
C02
A   22
O02
A   23
C03
A   24
C04
A   25
C07
A   26
C08
A   27
C09
A   28
C11
A   29
C15
A   30
C16
A   31
C17
A   32
O01
M  END
