1EE2_CHD_A_1150
     RDKit          3D

 69 72  0  0  0  0  0  0  0  0999 V2000
   15.3550   -2.7840   38.8450 C   0  0  0  0  0  0  0  0  0  0  0  0
   16.5960   -2.8060   39.7710 C   0  0  0  0  0  0  0  0  0  0  0  0
   17.2710   -4.1970   39.7100 C   0  0  0  0  0  0  0  0  0  0  0  0
   18.3970   -4.1750   40.6390 O   0  0  0  0  0  0  0  0  0  0  0  0
   16.2870   -5.2980   40.1360 C   0  0  0  0  0  0  0  0  0  0  0  0
   15.0510   -5.2630   39.2330 C   0  0  0  0  0  0  0  0  0  0  0  0
   14.0250   -6.4040   39.5450 C   0  0  0  0  0  0  0  0  0  0  0  0
   13.2040   -6.1430   40.7990 C   0  0  0  0  0  0  0  0  0  0  0  0
   13.9690   -6.3550   42.0390 O   0  0  0  0  0  0  0  0  0  0  0  0
   12.5220   -4.7530   40.7330 C   0  0  0  0  0  0  0  0  0  0  0  0
   13.6290   -3.7180   40.5230 C   0  0  0  0  0  0  0  0  0  0  0  0
   14.3680   -3.9130   39.1580 C   0  0  0  0  0  0  0  0  0  0  0  0
   13.0540   -2.2710   40.6310 C   0  0  0  0  0  0  0  0  0  0  0  0
   12.1300   -1.9940   41.8230 C   0  0  0  0  0  0  0  0  0  0  0  0
   12.9190   -2.2260   43.0410 O   0  0  0  0  0  0  0  0  0  0  0  0
   10.9950   -3.0420   41.9440 C   0  0  0  0  0  0  0  0  0  0  0  0
   11.6820   -4.4170   41.9750 C   0  0  0  0  0  0  0  0  0  0  0  0
   10.5040   -5.3830   42.2380 C   0  0  0  0  0  0  0  0  0  0  0  0
    9.5960   -4.5890   43.1890 C   0  0  0  0  0  0  0  0  0  0  0  0
   10.0870   -3.0790   43.1630 C   0  0  0  0  0  0  0  0  0  0  0  0
   10.1740   -2.9420   40.6440 C   0  0  0  0  0  0  0  0  0  0  0  0
   13.4030   -3.9360   37.9220 C   0  0  0  0  0  0  0  0  0  0  0  0
    8.8970   -2.1200   43.2680 C   0  0  0  0  0  0  0  0  0  0  0  0
    9.3070   -0.6370   43.0850 C   0  0  0  0  0  0  0  0  0  0  0  0
    8.1740   -2.3250   44.6160 C   0  0  0  0  0  0  0  0  0  0  0  0
    7.2320   -1.1250   44.9760 C   0  0  0  0  0  0  0  0  0  0  0  0
    5.8540   -2.2200   43.3740 O   0  0  0  0  0  0  0  0  0  0  0  0
    5.8740   -1.4340   44.4900 C   0  0  0  0  0  0  0  0  0  0  0  0
    4.8200   -1.0930   44.9830 O   0  0  0  0  0  0  0  0  0  0  0  0
   14.8393   -1.8203   38.9694 H   0  0  0  0  0  0  0  0  0  0  0  0
   15.7066   -2.9249   37.8123 H   0  0  0  0  0  0  0  0  0  0  0  0
   17.3114   -2.0382   39.4412 H   0  0  0  0  0  0  0  0  0  0  0  0
   16.2815   -2.6000   40.8047 H   0  0  0  0  0  0  0  0  0  0  0  0
   17.6002   -4.4101   38.6823 H   0  0  0  0  0  0  0  0  0  0  0  0
   18.0577   -4.1816   41.5690 H   0  0  0  0  0  0  0  0  0  0  0  0
   16.7761   -6.2794   40.0485 H   0  0  0  0  0  0  0  0  0  0  0  0
   15.9810   -5.1295   41.1791 H   0  0  0  0  0  0  0  0  0  0  0  0
   15.4570   -5.4527   38.2284 H   0  0  0  0  0  0  0  0  0  0  0  0
   13.3384   -6.5004   38.6910 H   0  0  0  0  0  0  0  0  0  0  0  0
   14.6014   -7.3250   39.7166 H   0  0  0  0  0  0  0  0  0  0  0  0
   12.4025   -6.8957   40.8309 H   0  0  0  0  0  0  0  0  0  0  0  0
   13.3829   -6.1926   42.8202 H   0  0  0  0  0  0  0  0  0  0  0  0
   11.8026   -4.7509   39.9009 H   0  0  0  0  0  0  0  0  0  0  0  0
   14.3711   -3.8689   41.3208 H   0  0  0  0  0  0  0  0  0  0  0  0
   13.9045   -1.5766   40.6978 H   0  0  0  0  0  0  0  0  0  0  0  0
   12.4273   -2.1371   39.7370 H   0  0  0  0  0  0  0  0  0  0  0  0
   11.7234   -0.9801   41.6936 H   0  0  0  0  0  0  0  0  0  0  0  0
   12.3540   -2.0599   43.8368 H   0  0  0  0  0  0  0  0  0  0  0  0
   12.4609   -4.4768   42.7494 H   0  0  0  0  0  0  0  0  0  0  0  0
    9.9779   -5.6256   41.3029 H   0  0  0  0  0  0  0  0  0  0  0  0
   10.8258   -6.3474   42.6579 H   0  0  0  0  0  0  0  0  0  0  0  0
    8.5512   -4.6506   42.8504 H   0  0  0  0  0  0  0  0  0  0  0  0
    9.6495   -4.9976   44.2089 H   0  0  0  0  0  0  0  0  0  0  0  0
   10.6726   -2.7190   44.0218 H   0  0  0  0  0  0  0  0  0  0  0  0
    9.1100   -2.8124   40.8913 H   0  0  0  0  0  0  0  0  0  0  0  0
   10.5215   -2.0795   40.0563 H   0  0  0  0  0  0  0  0  0  0  0  0
   10.3043   -3.8627   40.0563 H   0  0  0  0  0  0  0  0  0  0  0  0
   12.3602   -3.9609   38.2714 H   0  0  0  0  0  0  0  0  0  0  0  0
   13.5645   -3.0337   37.3138 H   0  0  0  0  0  0  0  0  0  0  0  0
   13.6073   -4.8295   37.3138 H   0  0  0  0  0  0  0  0  0  0  0  0
    8.2091   -2.3581   42.4433 H   0  0  0  0  0  0  0  0  0  0  0  0
    9.4367   -0.1680   44.0715 H   0  0  0  0  0  0  0  0  0  0  0  0
   10.2534   -0.5844   42.5268 H   0  0  0  0  0  0  0  0  0  0  0  0
    8.5220   -0.1058   42.5268 H   0  0  0  0  0  0  0  0  0  0  0  0
    7.5706   -3.2428   44.5575 H   0  0  0  0  0  0  0  0  0  0  0  0
    8.9411   -2.3971   45.4011 H   0  0  0  0  0  0  0  0  0  0  0  0
    7.2124   -0.9829   46.0666 H   0  0  0  0  0  0  0  0  0  0  0  0
    7.6002   -0.2020   44.5043 H   0  0  0  0  0  0  0  0  0  0  0  0
    4.7214   -1.0611   45.9676 H   0  0  0  0  0  0  0  0  0  0  0  0
  1  2  1  0
  1 12  1  0
  2  3  1  0
  3  4  1  0
  3  5  1  0
  5  6  1  0
  6  7  1  0
  6 12  1  0
  7  8  1  0
  8  9  1  0
  8 10  1  0
 10 11  1  0
 10 17  1  0
 11 12  1  0
 11 13  1  0
 12 22  1  0
 13 14  1  0
 14 15  1  0
 14 16  1  0
 16 17  1  0
 16 20  1  0
 16 21  1  0
 17 18  1  0
 18 19  1  0
 19 20  1  0
 20 23  1  0
 23 24  1  0
 23 25  1  0
 25 26  1  0
 26 28  1  0
 27 28  2  0
 28 29  1  0
  1 30  1  0
  1 31  1  0
  2 32  1  0
  2 33  1  0
  3 34  1  0
  4 35  1  0
  5 36  1  0
  5 37  1  0
  6 38  1  0
  7 39  1  0
  7 40  1  0
  8 41  1  0
  9 42  1  0
 10 43  1  0
 11 44  1  0
 13 45  1  0
 13 46  1  0
 14 47  1  0
 15 48  1  0
 17 49  1  0
 18 50  1  0
 18 51  1  0
 19 52  1  0
 19 53  1  0
 20 54  1  0
 21 55  1  0
 21 56  1  0
 21 57  1  0
 22 58  1  0
 22 59  1  0
 22 60  1  0
 23 61  1  0
 24 62  1  0
 24 63  1  0
 24 64  1  0
 25 65  1  0
 25 66  1  0
 26 67  1  0
 26 68  1  0
 29 69  1  0
A    1
C1
A    2
C2
A    3
C3
A    4
O3
A    5
C4
A    6
C5
A    7
C6
A    8
C7
A    9
O7
A   10
C8
A   11
C9
A   12
C10
A   13
C11
A   14
C12
A   15
O12
A   16
C13
A   17
C14
A   18
C15
A   19
C16
A   20
C17
A   21
C18
A   22
C19
A   23
C20
A   24
C21
A   25
C22
A   26
C23
A   27
O25
A   28
C24
A   29
O26
M  END
