2PP3_LGT_A_501
     RDKit          3D

 24 23  0  0  0  0  0  0  0  0999 V2000
  -16.9120   26.7040   41.7380 O   0  0  0  0  0  0  0  0  0  0  0  0
  -16.9700   25.4750   41.9470 C   0  0  0  0  0  0  0  0  0  0  0  0
  -15.9780   24.7580   42.1520 O   0  0  0  0  0  0  0  0  0  0  0  0
  -18.3690   24.7840   41.9330 C   0  0  0  0  0  0  0  0  0  0  0  0
  -18.3460   23.5270   42.6340 O   0  0  0  0  0  0  0  0  0  0  0  0
  -19.4670   25.6420   42.5450 C   0  0  0  0  0  0  0  0  0  0  0  0
  -19.2800   25.6700   43.9510 O   0  0  0  0  0  0  0  0  0  0  0  0
  -20.8950   25.1120   42.2580 C   0  0  0  0  0  0  0  0  0  0  0  0
  -21.1080   23.8710   42.9660 O   0  0  0  0  0  0  0  0  0  0  0  0
  -22.0190   26.0790   42.6530 C   0  0  0  0  0  0  0  0  0  0  0  0
  -21.8390   27.3030   41.9200 O   0  0  0  0  0  0  0  0  0  0  0  0
  -23.4050   25.4910   42.3320 C   0  0  0  0  0  0  0  0  0  0  0  0
  -23.9680   24.8400   43.2580 O   0  0  0  0  0  0  0  0  0  0  0  0
  -23.8710   25.6700   41.1850 O   0  0  0  0  0  0  0  0  0  0  0  0
  -15.6971   24.5550   43.0794 H   0  0  0  0  0  0  0  0  0  0  0  0
  -18.5956   24.6259   40.8683 H   0  0  0  0  0  0  0  0  0  0  0  0
  -18.3490   23.6933   43.6099 H   0  0  0  0  0  0  0  0  0  0  0  0
  -19.3903   26.6405   42.0899 H   0  0  0  0  0  0  0  0  0  0  0  0
  -20.1514   25.5395   44.4025 H   0  0  0  0  0  0  0  0  0  0  0  0
  -20.9433   24.9798   41.1670 H   0  0  0  0  0  0  0  0  0  0  0  0
  -21.0793   24.0384   43.9413 H   0  0  0  0  0  0  0  0  0  0  0  0
  -21.9716   26.2579   43.7373 H   0  0  0  0  0  0  0  0  0  0  0  0
  -21.7285   28.0546   42.5548 H   0  0  0  0  0  0  0  0  0  0  0  0
  -23.7776   25.0601   44.2043 H   0  0  0  0  0  0  0  0  0  0  0  0
  1  2  2  0
  2  4  1  0
  2  3  1  0
  4  6  1  0
  4  5  1  0
  6  8  1  0
  6  7  1  0
  8 10  1  0
  8  9  1  0
 10 11  1  0
 10 12  1  0
 12 14  2  0
 12 13  1  0
  3 15  1  0
  4 16  1  0
  5 17  1  0
  6 18  1  0
  7 19  1  0
  8 20  1  0
  9 21  1  0
 10 22  1  0
 11 23  1  0
 13 24  1  0
A    1
O1A
A    2
C1
A    3
O1B
A    4
C2
A    5
O2
A    6
C3
A    7
O3
A    8
C4
A    9
O4
A   10
C5
A   11
O5
A   12
C6
A   13
O6A
A   14
O6B
M  END
