1X8T_RC1_A_501
     RDKit          3D

 41 41  0  0  0  0  0  0  0  0999 V2000
   55.8030   11.9350   27.8550 C   0  0  0  0  0  0  0  0  0  0  0  0
   54.6220   11.1690   28.2080 C   0  0  0  0  0  0  0  0  0  0  0  0
   54.7650    9.9130   29.0750 C   0  0  0  0  0  0  0  0  0  0  0  0
   56.1310    9.8630   29.9330 C   0  0  0  0  0  0  0  0  0  0  0  0
   57.3210   10.0410   28.9260 C   0  0  0  0  0  0  0  0  0  0  0  0
   57.1860   11.5150   28.3320 C   0  0  0  0  0  0  0  0  0  0  0  0
   55.6940   13.1670   27.0270 C   0  0  0  0  0  0  0  0  0  0  0  0
   54.6210    8.6340   28.1460 O   0  0  0  0  0  0  0  0  0  0  0  0
   56.0810    8.5990   30.6110 O   0  0  0  0  0  0  0  0  0  0  0  0
   58.5540    9.9620   29.5950 O   0  0  0  0  0  0  0  0  0  0  0  0
   54.8180   13.2210   26.1670 O   0  0  0  0  0  0  0  0  0  0  0  0
   56.4840   14.0500   27.2860 O   0  0  0  0  0  0  0  0  0  0  0  0
   53.2190    7.7330   27.9710 P   0  0  0  0  0  0  0  0  0  0  0  0
   52.1840    8.6870   27.3720 O   0  0  0  0  0  0  0  0  0  0  0  0
   52.8950    7.2660   29.4410 O   0  0  0  0  0  0  0  0  0  0  0  0
   53.7400    6.6690   26.9740 O   0  0  0  0  0  0  0  0  0  0  0  0
   59.3510    8.7640   29.3120 C   0  0  0  0  0  0  0  0  0  0  0  0
   58.7320    7.2620   29.1790 C   0  0  0  0  0  0  0  0  0  0  0  0
   60.0790    9.3710   28.0400 C   0  0  0  0  0  0  0  0  0  0  0  0
   60.2010   10.3930   27.2930 O   0  0  0  0  0  0  0  0  0  0  0  0
   60.7090    8.2960   27.8390 O   0  0  0  0  0  0  0  0  0  0  0  0
   60.5990    8.7680   30.6810 P   0  0  0  0  0  0  0  0  0  0  0  0
   59.7550    8.2620   31.8700 O   0  0  0  0  0  0  0  0  0  0  0  0
   61.1880   10.1270   30.9690 O   0  0  0  0  0  0  0  0  0  0  0  0
   61.6650    7.6970   30.3420 O   0  0  0  0  0  0  0  0  0  0  0  0
   53.6300   11.4879   27.8555 H   0  0  0  0  0  0  0  0  0  0  0  0
   53.9616    9.9341   29.8261 H   0  0  0  0  0  0  0  0  0  0  0  0
   56.2629   10.6539   30.6860 H   0  0  0  0  0  0  0  0  0  0  0  0
   57.2853    9.2589   28.1533 H   0  0  0  0  0  0  0  0  0  0  0  0
   57.8721   11.5936   27.4758 H   0  0  0  0  0  0  0  0  0  0  0  0
   57.4195   12.1875   29.1706 H   0  0  0  0  0  0  0  0  0  0  0  0
   56.0869    8.7490   31.5896 H   0  0  0  0  0  0  0  0  0  0  0  0
   56.6844   14.2739   28.2293 H   0  0  0  0  0  0  0  0  0  0  0  0
   53.3234    7.8835   30.0854 H   0  0  0  0  0  0  0  0  0  0  0  0
   54.1153    5.9025   27.4757 H   0  0  0  0  0  0  0  0  0  0  0  0
   58.5605    6.8459   30.1827 H   0  0  0  0  0  0  0  0  0  0  0  0
   57.7785    7.3055   28.6323 H   0  0  0  0  0  0  0  0  0  0  0  0
   59.4393    6.6210   28.6323 H   0  0  0  0  0  0  0  0  0  0  0  0
   61.0251    7.7566   28.6066 H   0  0  0  0  0  0  0  0  0  0  0  0
   60.1913    8.5235   32.7193 H   0  0  0  0  0  0  0  0  0  0  0  0
   62.0363    7.3240   31.1805 H   0  0  0  0  0  0  0  0  0  0  0  0
  1  2  2  0
  1  6  1  0
  1  7  1  0
  2  3  1  0
  3  4  1  0
  3  8  1  0
  4  5  1  0
  4  9  1  0
  5  6  1  0
  5 10  1  0
  7 11  2  0
  7 12  1  0
  8 13  1  0
 10 17  1  0
 13 14  2  0
 13 15  1  0
 13 16  1  0
 17 18  1  0
 17 19  1  0
 17 22  1  0
 19 20  2  0
 19 21  1  0
 22 23  1  0
 22 24  2  0
 22 25  1  0
  2 26  1  0
  3 27  1  0
  4 28  1  0
  5 29  1  0
  6 30  1  0
  6 31  1  0
  9 32  1  0
 12 33  1  0
 15 34  1  0
 16 35  1  0
 18 36  1  0
 18 37  1  0
 18 38  1  0
 21 39  1  0
 23 40  1  0
 25 41  1  0
A    1
C1
A    2
C2
A    3
C3
A    4
C4
A    5
C5
A    6
C6
A    7
C7
A    8
O1
A    9
O2
A   10
O3
A   11
O4
A   12
O5
A   13
P1
A   14
O6
A   15
O7
A   16
O8
A   17
C8
A   18
C9
A   19
C10
A   20
O9
A   21
O10
A   22
P2
A   23
O11
A   24
O12
A   25
O13
M  END
