2PQZ_G0G_A_2501
     RDKit          3D

 70 74  0  0  0  0  0  0  0  0999 V2000
   11.2410  -22.8170  -17.3600 O   0  0  0  0  0  0  0  0  0  0  0  0
   11.1490  -22.5440  -18.7790 S   0  0  0  0  0  0  0  0  0  0  0  0
   11.4720  -20.8680  -19.0940 N   0  0  0  0  0  0  0  0  0  0  0  0
   10.9500  -20.3150  -20.3600 C   0  0  0  0  0  0  0  0  0  0  0  0
    9.6670  -19.4960  -20.2630 C   0  0  0  0  0  0  0  0  0  0  0  0
    8.6580  -19.7860  -19.3040 C   0  0  0  0  0  0  0  0  0  0  0  0
    7.4620  -19.0210  -19.2510 C   0  0  0  0  0  0  0  0  0  0  0  0
    7.2830  -17.9280  -20.1440 C   0  0  0  0  0  0  0  0  0  0  0  0
    8.2820  -17.6450  -21.1130 C   0  0  0  0  0  0  0  0  0  0  0  0
    9.4830  -18.3890  -21.1370 C   0  0  0  0  0  0  0  0  0  0  0  0
   12.3090  -20.1040  -18.1380 C   0  0  0  0  0  0  0  0  0  0  0  0
   13.6900  -19.7650  -18.7680 C   0  0  0  0  0  0  0  0  0  0  0  0
   13.9240  -18.3100  -18.6300 N   0  0  0  0  0  0  0  0  0  0  0  0
   12.6150  -17.6520  -18.3440 C   0  0  0  0  0  0  0  0  0  0  0  0
   11.7530  -18.7050  -17.6190 C   0  0  0  0  0  0  0  0  0  0  0  0
   12.0140  -18.7490  -16.1130 N   0  0  0  0  0  0  0  0  0  0  0  0
   10.6490  -19.0780  -15.1710 S   0  0  0  0  0  0  0  0  0  0  0  0
    9.8870  -20.2020  -15.7280 O   0  0  0  0  0  0  0  0  0  0  0  0
    9.6740  -17.6360  -15.0480 C   0  0  0  0  0  0  0  0  0  0  0  0
    8.3470  -17.6650  -15.5880 C   0  0  0  0  0  0  0  0  0  0  0  0
    7.4950  -16.5340  -15.4930 C   0  0  0  0  0  0  0  0  0  0  0  0
    7.9830  -15.3590  -14.8910 C   0  0  0  0  0  0  0  0  0  0  0  0
    9.2990  -15.3370  -14.3430 C   0  0  0  0  0  0  0  0  0  0  0  0
   10.1670  -16.4590  -14.4320 C   0  0  0  0  0  0  0  0  0  0  0  0
   11.0800  -19.1760  -13.7600 O   0  0  0  0  0  0  0  0  0  0  0  0
   13.3300  -18.5990  -15.4190 C   0  0  0  0  0  0  0  0  0  0  0  0
   14.1160  -19.9160  -15.2890 C   0  0  0  0  0  0  0  0  0  0  0  0
   13.4650  -21.1020  -14.8650 C   0  0  0  0  0  0  0  0  0  0  0  0
   14.2470  -22.2880  -14.7550 C   0  0  0  0  0  0  0  0  0  0  0  0
   15.6250  -22.3090  -15.1090 C   0  0  0  0  0  0  0  0  0  0  0  0
   16.3030  -21.1030  -15.4740 C   0  0  0  0  0  0  0  0  0  0  0  0
   15.5040  -19.9410  -15.6250 C   0  0  0  0  0  0  0  0  0  0  0  0
    9.9520  -22.9130  -19.5530 O   0  0  0  0  0  0  0  0  0  0  0  0
   12.5610  -23.1610  -19.6710 C   0  0  0  0  0  0  0  0  0  0  0  0
   13.7330  -23.5290  -18.9450 C   0  0  0  0  0  0  0  0  0  0  0  0
   14.9000  -23.9940  -19.6500 C   0  0  0  0  0  0  0  0  0  0  0  0
   14.8560  -24.0990  -21.0650 C   0  0  0  0  0  0  0  0  0  0  0  0
   13.6700  -23.7480  -21.7870 C   0  0  0  0  0  0  0  0  0  0  0  0
   12.5210  -23.3070  -21.0810 C   0  0  0  0  0  0  0  0  0  0  0  0
   11.7290  -19.6676  -20.7890 H   0  0  0  0  0  0  0  0  0  0  0  0
   10.6937  -21.1886  -20.9774 H   0  0  0  0  0  0  0  0  0  0  0  0
    8.8053  -20.6132  -18.5941 H   0  0  0  0  0  0  0  0  0  0  0  0
    6.6774  -19.2728  -18.5223 H   0  0  0  0  0  0  0  0  0  0  0  0
    6.3773  -17.3066  -20.0844 H   0  0  0  0  0  0  0  0  0  0  0  0
    8.1200  -16.8430  -21.8482 H   0  0  0  0  0  0  0  0  0  0  0  0
   10.2832  -18.1095  -21.8382 H   0  0  0  0  0  0  0  0  0  0  0  0
   12.3395  -20.7924  -17.2806 H   0  0  0  0  0  0  0  0  0  0  0  0
   14.4828  -20.3197  -18.2448 H   0  0  0  0  0  0  0  0  0  0  0  0
   13.6999  -20.0495  -19.8305 H   0  0  0  0  0  0  0  0  0  0  0  0
   14.5793  -18.1342  -17.8550 H   0  0  0  0  0  0  0  0  0  0  0  0
   12.7631  -16.7721  -17.7007 H   0  0  0  0  0  0  0  0  0  0  0  0
   12.1304  -17.3052  -19.2686 H   0  0  0  0  0  0  0  0  0  0  0  0
   10.6915  -18.4842  -17.8047 H   0  0  0  0  0  0  0  0  0  0  0  0
    7.9834  -18.5773  -16.0834 H   0  0  0  0  0  0  0  0  0  0  0  0
    6.4678  -16.5751  -15.8843 H   0  0  0  0  0  0  0  0  0  0  0  0
    7.3507  -14.4601  -14.8435 H   0  0  0  0  0  0  0  0  0  0  0  0
    9.6524  -14.4263  -13.8372 H   0  0  0  0  0  0  0  0  0  0  0  0
   11.1916  -16.4149  -14.0343 H   0  0  0  0  0  0  0  0  0  0  0  0
   13.9427  -17.8839  -15.9876 H   0  0  0  0  0  0  0  0  0  0  0  0
   13.1164  -18.2506  -14.3977 H   0  0  0  0  0  0  0  0  0  0  0  0
   12.3907  -21.1064  -14.6286 H   0  0  0  0  0  0  0  0  0  0  0  0
   13.7736  -23.2103  -14.3873 H   0  0  0  0  0  0  0  0  0  0  0  0
   16.1745  -23.2619  -15.1020 H   0  0  0  0  0  0  0  0  0  0  0  0
   17.3916  -21.0783  -15.6300 H   0  0  0  0  0  0  0  0  0  0  0  0
   15.9707  -19.0247  -16.0155 H   0  0  0  0  0  0  0  0  0  0  0  0
   13.7454  -23.4576  -17.8474 H   0  0  0  0  0  0  0  0  0  0  0  0
   15.8131  -24.2641  -19.0992 H   0  0  0  0  0  0  0  0  0  0  0  0
   15.7418  -24.4535  -21.6124 H   0  0  0  0  0  0  0  0  0  0  0  0
   13.6499  -23.8200  -22.8845 H   0  0  0  0  0  0  0  0  0  0  0  0
   11.5956  -23.0775  -21.6295 H   0  0  0  0  0  0  0  0  0  0  0  0
  1  2  2  0
  2 34  1  0
  2 33  2  0
  2  3  1  0
  3  4  1  0
  3 11  1  0
  4  5  1  0
  5 10  1  0
  5  6  2  0
  6  7  1  0
  7  8  2  0
  8  9  1  0
  9 10  2  0
 11 12  1  0
 11 15  1  0
 12 13  1  0
 13 14  1  0
 14 15  1  0
 15 16  1  0
 16 26  1  0
 16 17  1  0
 17 18  2  0
 17 19  1  0
 17 25  2  0
 19 20  2  0
 19 24  1  0
 20 21  1  0
 21 22  2  0
 22 23  1  0
 23 24  2  0
 26 27  1  0
 27 32  1  0
 27 28  2  0
 28 29  1  0
 29 30  2  0
 30 31  1  0
 31 32  2  0
 34 39  1  0
 34 35  2  0
 35 36  1  0
 36 37  2  0
 37 38  1  0
 38 39  2  0
  4 40  1  0
  4 41  1  0
  6 42  1  0
  7 43  1  0
  8 44  1  0
  9 45  1  0
 10 46  1  0
 11 47  1  0
 12 48  1  0
 12 49  1  0
 13 50  1  0
 14 51  1  0
 14 52  1  0
 15 53  1  0
 20 54  1  0
 21 55  1  0
 22 56  1  0
 23 57  1  0
 24 58  1  0
 26 59  1  0
 26 60  1  0
 28 61  1  0
 29 62  1  0
 30 63  1  0
 31 64  1  0
 32 65  1  0
 35 66  1  0
 36 67  1  0
 37 68  1  0
 38 69  1  0
 39 70  1  0
A    1
O10
A    2
S8
A    3
N28
A    4
C7
A    5
C12
A    6
C13
A    7
C29
A    8
C31
A    9
C30
A   10
C14
A   11
C23
A   12
C21
A   13
N22
A   14
C25
A   15
C24
A   16
N32
A   17
S9
A   18
O11
A   19
C27
A   20
C18
A   21
C2
A   22
C6
A   23
C5
A   24
C20
A   25
O40
A   26
C33
A   27
C34
A   28
C35
A   29
C36
A   30
C37
A   31
C39
A   32
C38
A   33
O41
A   34
C26
A   35
C19
A   36
C3
A   37
C4
A   38
C1
A   39
C17
M  END
