2PRH_238_A_400
     RDKit          3D

 43 46  0  0  0  0  0  0  0  0999 V2000
   54.4340   48.0210   -3.2080 F   0  0  0  0  0  0  0  0  0  0  0  0
   54.9160   47.8690   -1.9460 C   0  0  0  0  0  0  0  0  0  0  0  0
   55.9660   48.6640   -1.4480 C   0  0  0  0  0  0  0  0  0  0  0  0
   56.3970   48.5680   -0.1080 C   0  0  0  0  0  0  0  0  0  0  0  0
   55.9750   47.4370    0.6770 C   0  0  0  0  0  0  0  0  0  0  0  0
   54.8460   46.6430    0.2590 C   0  0  0  0  0  0  0  0  0  0  0  0
   54.3420   46.8360   -1.0740 C   0  0  0  0  0  0  0  0  0  0  0  0
   53.2620   45.8530   -1.4710 C   0  0  0  0  0  0  0  0  0  0  0  0
   53.5620   45.0500   -2.6080 C   0  0  0  0  0  0  0  0  0  0  0  0
   52.0230   45.6590   -0.6880 C   0  0  0  0  0  0  0  0  0  0  0  0
   51.1290   44.6550   -1.1350 C   0  0  0  0  0  0  0  0  0  0  0  0
   51.4650   43.8900   -2.2910 C   0  0  0  0  0  0  0  0  0  0  0  0
   52.7070   44.0640   -3.0610 C   0  0  0  0  0  0  0  0  0  0  0  0
   50.5430   42.8270   -2.7550 C   0  0  0  0  0  0  0  0  0  0  0  0
   50.2120   42.0480   -1.6180 N   0  0  0  0  0  0  0  0  0  0  0  0
   49.3740   40.9660   -1.6760 C   0  0  0  0  0  0  0  0  0  0  0  0
   49.0920   40.2560   -0.4490 C   0  0  0  0  0  0  0  0  0  0  0  0
   48.2240   39.1200   -0.4820 C   0  0  0  0  0  0  0  0  0  0  0  0
   47.6550   38.7200   -1.7560 C   0  0  0  0  0  0  0  0  0  0  0  0
   46.5990   37.3740   -1.8630 Cl  0  0  0  0  0  0  0  0  0  0  0  0
   47.9420   39.4230   -2.9380 C   0  0  0  0  0  0  0  0  0  0  0  0
   48.8160   40.5770   -2.9070 C   0  0  0  0  0  0  0  0  0  0  0  0
   49.1660   41.3560   -4.0990 C   0  0  0  0  0  0  0  0  0  0  0  0
   48.6220   40.9270   -5.4340 C   0  0  0  0  0  0  0  0  0  0  0  0
   49.3590   40.3300   -6.1810 O   0  0  0  0  0  0  0  0  0  0  0  0
   47.3990   41.2040   -5.7900 O   0  0  0  0  0  0  0  0  0  0  0  0
   50.0460   42.5120   -4.0470 C   0  0  0  0  0  0  0  0  0  0  0  0
   50.3890   43.2750   -5.2070 C   0  0  0  0  0  0  0  0  0  0  0  0
   56.4630   49.3782   -2.1209 H   0  0  0  0  0  0  0  0  0  0  0  0
   57.0437   49.3431    0.3291 H   0  0  0  0  0  0  0  0  0  0  0  0
   56.5159   47.1776    1.5991 H   0  0  0  0  0  0  0  0  0  0  0  0
   54.3844   45.9120    0.9391 H   0  0  0  0  0  0  0  0  0  0  0  0
   54.5072   45.2207   -3.1442 H   0  0  0  0  0  0  0  0  0  0  0  0
   51.8050   46.2673    0.2022 H   0  0  0  0  0  0  0  0  0  0  0  0
   50.1877   44.4678   -0.5974 H   0  0  0  0  0  0  0  0  0  0  0  0
   52.9399   43.4477   -3.9419 H   0  0  0  0  0  0  0  0  0  0  0  0
   49.5402   40.5859    0.4998 H   0  0  0  0  0  0  0  0  0  0  0  0
   47.9928   38.5619    0.4373 H   0  0  0  0  0  0  0  0  0  0  0  0
   47.5009   39.0954   -3.8910 H   0  0  0  0  0  0  0  0  0  0  0  0
   46.7062   41.3609   -5.1004 H   0  0  0  0  0  0  0  0  0  0  0  0
   50.8218   44.2378   -4.8978 H   0  0  0  0  0  0  0  0  0  0  0  0
   51.1237   42.7188   -5.8077 H   0  0  0  0  0  0  0  0  0  0  0  0
   49.4853   43.4553   -5.8077 H   0  0  0  0  0  0  0  0  0  0  0  0
  1  2  1  0
  2  3  2  0
  2  7  1  0
  3  4  1  0
  4  5  2  0
  5  6  1  0
  6  7  2  0
  7  8  1  0
  8  9  2  0
  8 10  1  0
  9 13  1  0
 10 11  2  0
 11 12  1  0
 12 13  2  0
 12 14  1  0
 14 27  1  0
 14 15  2  0
 15 16  1  0
 16 22  2  0
 16 17  1  0
 17 18  2  0
 18 19  1  0
 19 21  2  0
 19 20  1  0
 21 22  1  0
 22 23  1  0
 23 24  1  0
 23 27  2  0
 24 25  2  0
 24 26  1  0
 27 28  1  0
  3 29  1  0
  4 30  1  0
  5 31  1  0
  6 32  1  0
  9 33  1  0
 10 34  1  0
 11 35  1  0
 13 36  1  0
 17 37  1  0
 18 38  1  0
 21 39  1  0
 26 40  1  0
 28 41  1  0
 28 42  1  0
 28 43  1  0
A    1
F1
A    2
C19
A    3
C22
A    4
C21
A    5
C20
A    6
C18
A    7
C17
A    8
C16
A    9
C12
A   10
C13
A   11
C9
A   12
C23
A   13
C8
A   14
C3
A   15
N1
A   16
C7
A   17
C11
A   18
C15
A   19
C14
A   20
CL1
A   21
C10
A   22
C6
A   23
C4
A   24
C5
A   25
O2
A   26
O1
A   27
C2
A   28
C1
M  END
