2PRL_R2C_A_400
     RDKit          3D

 42 44  0  0  0  0  0  0  0  0999 V2000
   48.2330   39.8020   -2.7330 C   0  0  0  0  0  0  0  0  0  0  0  0
   48.4850   39.6010   -1.3400 C   0  0  0  0  0  0  0  0  0  0  0  0
   49.3370   40.5010   -0.6690 C   0  0  0  0  0  0  0  0  0  0  0  0
   49.9540   41.6120   -1.3550 C   0  0  0  0  0  0  0  0  0  0  0  0
   49.7000   41.8150   -2.7520 C   0  0  0  0  0  0  0  0  0  0  0  0
   48.8190   40.8910   -3.4470 C   0  0  0  0  0  0  0  0  0  0  0  0
   48.4890   41.0270   -4.9110 C   0  0  0  0  0  0  0  0  0  0  0  0
   47.4490   40.4270   -5.4440 O   0  0  0  0  0  0  0  0  0  0  0  0
   49.2180   41.7200   -5.6180 O   0  0  0  0  0  0  0  0  0  0  0  0
   47.9230   38.5450   -0.6470 O   0  0  0  0  0  0  0  0  0  0  0  0
   47.0670   37.6190   -1.3370 C   0  0  0  0  0  0  0  0  0  0  0  0
   50.2970   42.9180   -3.4770 N   0  0  0  0  0  0  0  0  0  0  0  0
   51.1890   43.8950   -2.9040 C   0  0  0  0  0  0  0  0  0  0  0  0
   50.8970   44.5630   -1.5350 C   0  0  0  0  0  0  0  0  0  0  0  0
   51.8270   45.5200   -1.0290 C   0  0  0  0  0  0  0  0  0  0  0  0
   53.0040   45.8480   -1.7830 C   0  0  0  0  0  0  0  0  0  0  0  0
   53.2520   45.2140   -3.0600 C   0  0  0  0  0  0  0  0  0  0  0  0
   52.3540   44.2560   -3.6050 C   0  0  0  0  0  0  0  0  0  0  0  0
   53.9410   46.7440   -1.2130 O   0  0  0  0  0  0  0  0  0  0  0  0
   54.7910   47.6280   -1.9100 C   0  0  0  0  0  0  0  0  0  0  0  0
   54.3920   48.3820   -3.0670 C   0  0  0  0  0  0  0  0  0  0  0  0
   55.3110   49.2510   -3.7330 C   0  0  0  0  0  0  0  0  0  0  0  0
   56.6460   49.3750   -3.2480 C   0  0  0  0  0  0  0  0  0  0  0  0
   57.0470   48.6280   -2.0960 C   0  0  0  0  0  0  0  0  0  0  0  0
   56.1290   47.7590   -1.4260 C   0  0  0  0  0  0  0  0  0  0  0  0
   47.5730   39.1022   -3.2666 H   0  0  0  0  0  0  0  0  0  0  0  0
   49.5368   40.3538    0.4026 H   0  0  0  0  0  0  0  0  0  0  0  0
   50.6160   42.2997   -0.8084 H   0  0  0  0  0  0  0  0  0  0  0  0
   46.7558   40.0271   -4.8612 H   0  0  0  0  0  0  0  0  0  0  0  0
   46.5107   37.0172   -0.6032 H   0  0  0  0  0  0  0  0  0  0  0  0
   46.3581   38.1752   -1.9679 H   0  0  0  0  0  0  0  0  0  0  0  0
   47.6771   36.9559   -1.9679 H   0  0  0  0  0  0  0  0  0  0  0  0
   50.0670   43.0112   -4.4767 H   0  0  0  0  0  0  0  0  0  0  0  0
   49.9919   44.3045   -0.9659 H   0  0  0  0  0  0  0  0  0  0  0  0
   51.6418   46.0069   -0.0602 H   0  0  0  0  0  0  0  0  0  0  0  0
   54.1585   45.4801   -3.6234 H   0  0  0  0  0  0  0  0  0  0  0  0
   52.5712   43.7947   -4.5797 H   0  0  0  0  0  0  0  0  0  0  0  0
   53.3635   48.2888   -3.4457 H   0  0  0  0  0  0  0  0  0  0  0  0
   54.9894   49.8220   -4.6165 H   0  0  0  0  0  0  0  0  0  0  0  0
   57.3612   50.0392   -3.7552 H   0  0  0  0  0  0  0  0  0  0  0  0
   58.0763   48.7231   -1.7197 H   0  0  0  0  0  0  0  0  0  0  0  0
   56.4525   47.1929   -0.5401 H   0  0  0  0  0  0  0  0  0  0  0  0
  1  6  2  0
  1  2  1  0
  2  3  2  0
  2 10  1  0
  3  4  1  0
  4  5  2  0
  5 12  1  0
  5  6  1  0
  6  7  1  0
  7  9  2  0
  7  8  1  0
 10 11  1  0
 12 13  1  0
 13 18  1  0
 13 14  2  0
 14 15  1  0
 15 16  2  0
 16 17  1  0
 16 19  1  0
 17 18  2  0
 19 20  1  0
 20 21  2  0
 20 25  1  0
 21 22  1  0
 22 23  2  0
 23 24  1  0
 24 25  2  0
  1 26  1  0
  3 27  1  0
  4 28  1  0
  8 29  1  0
 11 30  1  0
 11 31  1  0
 11 32  1  0
 12 33  1  0
 14 34  1  0
 15 35  1  0
 17 36  1  0
 18 37  1  0
 21 38  1  0
 22 39  1  0
 23 40  1  0
 24 41  1  0
 25 42  1  0
A    1
C1
A    2
C2
A    3
C3
A    4
C4
A    5
C5
A    6
C6
A    7
C7
A    8
O8
A    9
O9
A   10
O10
A   11
C11
A   12
N12
A   13
C13
A   14
C14
A   15
C15
A   16
C16
A   17
C17
A   18
C18
A   19
O19
A   20
C20
A   21
C21
A   22
C22
A   23
C23
A   24
C24
A   25
C25
M  END
