2PVJ_P44_A_501
     RDKit          3D

 47 50  0  0  0  0  0  0  0  0999 V2000
   20.1150    9.5890   19.7490 N   0  0  0  0  0  0  0  0  0  0  0  0
   20.3570    9.8500   18.4370 C   0  0  0  0  0  0  0  0  0  0  0  0
   21.3330    8.9370   17.9920 C   0  0  0  0  0  0  0  0  0  0  0  0
   21.6480    8.1070   19.1310 C   0  0  0  0  0  0  0  0  0  0  0  0
   20.8890    8.5490   20.1760 N   0  0  0  0  0  0  0  0  0  0  0  0
   22.4960    7.0790   19.2960 N   0  0  0  0  0  0  0  0  0  0  0  0
   22.5510    6.5420   20.5110 C   0  0  0  0  0  0  0  0  0  0  0  0
   21.8330    6.9620   21.5460 N   0  0  0  0  0  0  0  0  0  0  0  0
   20.9950    7.9770   21.3620 C   0  0  0  0  0  0  0  0  0  0  0  0
   20.2380    8.4540   22.3830 N   0  0  0  0  0  0  0  0  0  0  0  0
   20.3150    8.1190   23.7000 C   0  0  0  0  0  0  0  0  0  0  0  0
   20.6540    6.8510   24.1700 C   0  0  0  0  0  0  0  0  0  0  0  0
   20.6440    6.5590   25.5330 C   0  0  0  0  0  0  0  0  0  0  0  0
   20.2930    7.5460   26.4500 C   0  0  0  0  0  0  0  0  0  0  0  0
   19.9870    8.8250   25.9910 C   0  0  0  0  0  0  0  0  0  0  0  0
   19.9990    9.1130   24.6270 C   0  0  0  0  0  0  0  0  0  0  0  0
   23.3800    5.4860   20.6960 N   0  0  0  0  0  0  0  0  0  0  0  0
   23.5450    4.8670   22.0080 C   0  0  0  0  0  0  0  0  0  0  0  0
   22.5240    3.7540   22.2420 C   0  0  0  0  0  0  0  0  0  0  0  0
   22.6730    2.6100   21.2330 C   0  0  0  0  0  0  0  0  0  0  0  0
   21.5680    1.5720   21.4640 C   0  0  0  0  0  0  0  0  0  0  0  0
   21.6170    1.0080   22.8870 C   0  0  0  0  0  0  0  0  0  0  0  0
   21.4980    2.1430   23.9130 C   0  0  0  0  0  0  0  0  0  0  0  0
   22.5540    3.2280   23.6820 C   0  0  0  0  0  0  0  0  0  0  0  0
   21.9590    8.8590   16.7050 C   0  0  0  0  0  0  0  0  0  0  0  0
   22.5400    8.8590   15.7020 N   0  0  0  0  0  0  0  0  0  0  0  0
   19.8770   10.6332   17.8318 H   0  0  0  0  0  0  0  0  0  0  0  0
   19.5220    9.1505   22.1318 H   0  0  0  0  0  0  0  0  0  0  0  0
   20.9346    6.0664   23.4519 H   0  0  0  0  0  0  0  0  0  0  0  0
   20.9127    5.5514   25.8831 H   0  0  0  0  0  0  0  0  0  0  0  0
   20.2577    7.3182   27.5256 H   0  0  0  0  0  0  0  0  0  0  0  0
   19.7333    9.6159   26.7121 H   0  0  0  0  0  0  0  0  0  0  0  0
   19.7582   10.1286   24.2799 H   0  0  0  0  0  0  0  0  0  0  0  0
   23.9054    5.1117   19.8931 H   0  0  0  0  0  0  0  0  0  0  0  0
   24.5573    4.4420   22.0766 H   0  0  0  0  0  0  0  0  0  0  0  0
   23.3890    5.6411   22.7737 H   0  0  0  0  0  0  0  0  0  0  0  0
   21.5355    4.2090   22.0812 H   0  0  0  0  0  0  0  0  0  0  0  0
   22.5915    3.0100   20.2116 H   0  0  0  0  0  0  0  0  0  0  0  0
   23.6553    2.1328   21.3648 H   0  0  0  0  0  0  0  0  0  0  0  0
   20.5900    2.0488   21.3019 H   0  0  0  0  0  0  0  0  0  0  0  0
   21.7207    0.7422   20.7582 H   0  0  0  0  0  0  0  0  0  0  0  0
   20.7842    0.3032   23.0271 H   0  0  0  0  0  0  0  0  0  0  0  0
   22.5766    0.4908   23.0346 H   0  0  0  0  0  0  0  0  0  0  0  0
   20.4985    2.5949   23.8305 H   0  0  0  0  0  0  0  0  0  0  0  0
   21.6566    1.7177   24.9150 H   0  0  0  0  0  0  0  0  0  0  0  0
   23.5490    2.8058   23.8862 H   0  0  0  0  0  0  0  0  0  0  0  0
   22.3348    4.0680   24.3576 H   0  0  0  0  0  0  0  0  0  0  0  0
  1  2  2  0
  1  5  1  0
  2  3  1  0
  3 25  1  0
  3  4  2  0
  4  6  1  0
  4  5  1  0
  5  9  1  0
  6  7  2  0
  7 17  1  0
  7  8  1  0
  8  9  2  0
  9 10  1  0
 10 11  1  0
 11 12  2  0
 11 16  1  0
 12 13  1  0
 13 14  2  0
 14 15  1  0
 15 16  2  0
 17 18  1  0
 18 19  1  0
 19 20  1  0
 19 24  1  0
 20 21  1  0
 21 22  1  0
 22 23  1  0
 23 24  1  0
 25 26  3  0
  2 27  1  0
 10 28  1  0
 12 29  1  0
 13 30  1  0
 14 31  1  0
 15 32  1  0
 16 33  1  0
 17 34  1  0
 18 35  1  0
 18 36  1  0
 19 37  1  0
 20 38  1  0
 20 39  1  0
 21 40  1  0
 21 41  1  0
 22 42  1  0
 22 43  1  0
 23 44  1  0
 23 45  1  0
 24 46  1  0
 24 47  1  0
A    1
N01
A    2
C02
A    3
C03
A    4
C04
A    5
N05
A    6
N06
A    7
C07
A    8
N08
A    9
C09
A   10
N10
A   11
C11
A   12
C12
A   13
C13
A   14
C14
A   15
C15
A   16
C16
A   17
N17
A   18
C18
A   19
C19
A   20
C20
A   21
C21
A   22
C22
A   23
C23
A   24
C24
A   25
C25
A   26
N26
M  END
