2PVL_P55_A_501
     RDKit          3D

 46 49  0  0  0  0  0  0  0  0999 V2000
   19.9040    9.4950   19.7460 N   0  0  0  0  0  0  0  0  0  0  0  0
   20.1960    9.7280   18.4440 C   0  0  0  0  0  0  0  0  0  0  0  0
   21.1950    8.8240   18.0370 C   0  0  0  0  0  0  0  0  0  0  0  0
   21.4780    8.0190   19.2080 C   0  0  0  0  0  0  0  0  0  0  0  0
   20.6740    8.4740   20.2140 N   0  0  0  0  0  0  0  0  0  0  0  0
   22.3180    7.0010   19.4520 N   0  0  0  0  0  0  0  0  0  0  0  0
   22.3100    6.4970   20.6840 C   0  0  0  0  0  0  0  0  0  0  0  0
   21.5420    6.9320   21.6780 N   0  0  0  0  0  0  0  0  0  0  0  0
   20.7160    7.9390   21.4220 C   0  0  0  0  0  0  0  0  0  0  0  0
   19.9170    8.4610   22.3860 N   0  0  0  0  0  0  0  0  0  0  0  0
   20.0020    8.1390   23.7050 C   0  0  0  0  0  0  0  0  0  0  0  0
   20.1590    6.8170   24.1280 C   0  0  0  0  0  0  0  0  0  0  0  0
   20.1270    6.4850   25.4800 C   0  0  0  0  0  0  0  0  0  0  0  0
   19.9420    7.4890   26.4320 C   0  0  0  0  0  0  0  0  0  0  0  0
   19.8490    8.8180   26.0200 C   0  0  0  0  0  0  0  0  0  0  0  0
   19.8850    9.1460   24.6640 C   0  0  0  0  0  0  0  0  0  0  0  0
   23.1660    5.4020   20.9610 N   0  0  0  0  0  0  0  0  0  0  0  0
   23.2550    4.8370   22.3190 C   0  0  0  0  0  0  0  0  0  0  0  0
   22.5450    3.4810   22.4110 C   0  0  0  0  0  0  0  0  0  0  0  0
   22.9970    2.6210   21.3000 N   0  0  0  0  0  0  0  0  0  0  0  0
   22.8320    3.1840   19.9500 C   0  0  0  0  0  0  0  0  0  0  0  0
   23.5200    4.5420   19.8170 C   0  0  0  0  0  0  0  0  0  0  0  0
   22.4740    1.2450   21.3430 C   0  0  0  0  0  0  0  0  0  0  0  0
   20.9450    1.2080   21.2520 C   0  0  0  0  0  0  0  0  0  0  0  0
   21.8110    8.7640   16.7440 C   0  0  0  0  0  0  0  0  0  0  0  0
   22.3100    8.8090   15.6980 N   0  0  0  0  0  0  0  0  0  0  0  0
   19.7297   10.4964   17.8099 H   0  0  0  0  0  0  0  0  0  0  0  0
   19.2008    9.1443   22.1013 H   0  0  0  0  0  0  0  0  0  0  0  0
   20.3105    6.0246   23.3803 H   0  0  0  0  0  0  0  0  0  0  0  0
   20.2468    5.4381   25.7958 H   0  0  0  0  0  0  0  0  0  0  0  0
   19.8701    7.2337   27.4995 H   0  0  0  0  0  0  0  0  0  0  0  0
   19.7463    9.6153   26.7709 H   0  0  0  0  0  0  0  0  0  0  0  0
   19.8211   10.1986   24.3510 H   0  0  0  0  0  0  0  0  0  0  0  0
   24.3148    4.7042   22.5822 H   0  0  0  0  0  0  0  0  0  0  0  0
   22.7629    5.5322   23.0151 H   0  0  0  0  0  0  0  0  0  0  0  0
   22.7897    3.0018   23.3704 H   0  0  0  0  0  0  0  0  0  0  0  0
   21.4568    3.6281   22.3458 H   0  0  0  0  0  0  0  0  0  0  0  0
   23.2695    2.4893   19.2179 H   0  0  0  0  0  0  0  0  0  0  0  0
   21.7567    3.3244   19.7657 H   0  0  0  0  0  0  0  0  0  0  0  0
   23.1946    5.0252   18.8839 H   0  0  0  0  0  0  0  0  0  0  0  0
   24.6099    4.3940   19.8007 H   0  0  0  0  0  0  0  0  0  0  0  0
   22.8937    0.6792   20.4982 H   0  0  0  0  0  0  0  0  0  0  0  0
   22.7675    0.8003   22.3053 H   0  0  0  0  0  0  0  0  0  0  0  0
   20.5175    1.1977   22.2655 H   0  0  0  0  0  0  0  0  0  0  0  0
   20.5881    2.0978   20.7126 H   0  0  0  0  0  0  0  0  0  0  0  0
   20.6316    0.3020   20.7126 H   0  0  0  0  0  0  0  0  0  0  0  0
  1  2  2  0
  1  5  1  0
  2  3  1  0
  3 25  1  0
  3  4  2  0
  4  6  1  0
  4  5  1  0
  5  9  1  0
  6  7  2  0
  7 17  1  0
  7  8  1  0
  8  9  2  0
  9 10  1  0
 10 11  1  0
 11 12  2  0
 11 16  1  0
 12 13  1  0
 13 14  2  0
 14 15  1  0
 15 16  2  0
 17 22  1  0
 17 18  1  0
 18 19  1  0
 19 20  1  0
 20 21  1  0
 20 23  1  0
 21 22  1  0
 23 24  1  0
 25 26  3  0
  2 27  1  0
 10 28  1  0
 12 29  1  0
 13 30  1  0
 14 31  1  0
 15 32  1  0
 16 33  1  0
 18 34  1  0
 18 35  1  0
 19 36  1  0
 19 37  1  0
 21 38  1  0
 21 39  1  0
 22 40  1  0
 22 41  1  0
 23 42  1  0
 23 43  1  0
 24 44  1  0
 24 45  1  0
 24 46  1  0
A    1
N01
A    2
C02
A    3
C03
A    4
C04
A    5
N05
A    6
N06
A    7
C07
A    8
N08
A    9
C09
A   10
N10
A   11
C11
A   12
C12
A   13
C13
A   14
C14
A   15
C15
A   16
C16
A   17
N17
A   18
C18
A   19
C19
A   20
N20
A   21
C21
A   22
C22
A   23
C23
A   24
C24
A   25
C25
A   26
N26
M  END
