2PVV_OSE_A_1768
     RDKit          3D

 18 17  0  0  0  0  0  0  0  0999 V2000
   16.1140   44.9720   43.0010 N   0  0  0  0  0  0  0  0  0  0  0  0
   15.8500   44.7730   41.6870 C   0  0  0  0  0  0  0  0  0  0  0  0
   14.4700   45.0540   41.2170 C   0  0  0  0  0  0  0  0  0  0  0  0
   14.6210   46.5040   41.2920 O   0  0  0  0  0  0  0  0  0  0  0  0
   16.8660   44.6740   40.6470 C   0  0  0  0  0  0  0  0  0  0  0  0
   17.7540   45.5610   40.6870 O   0  0  0  0  0  0  0  0  0  0  0  0
   13.9870   47.4220   40.1320 S   0  0  0  0  0  0  0  0  0  0  0  0
   14.4100   46.8740   38.8510 O   0  0  0  0  0  0  0  0  0  0  0  0
   14.4670   48.7770   40.3020 O   0  0  0  0  0  0  0  0  0  0  0  0
   12.5610   47.0900   40.2710 O   0  0  0  0  0  0  0  0  0  0  0  0
   16.7890   43.8970   39.6750 O   0  0  0  0  0  0  0  0  0  0  0  0
   15.4289   44.4556   43.5709 H   0  0  0  0  0  0  0  0  0  0  0  0
   17.0631   44.6343   43.2155 H   0  0  0  0  0  0  0  0  0  0  0  0
   15.9985   43.7097   41.9267 H   0  0  0  0  0  0  0  0  0  0  0  0
   14.2795   44.6920   40.1959 H   0  0  0  0  0  0  0  0  0  0  0  0
   13.6336   44.5920   41.7621 H   0  0  0  0  0  0  0  0  0  0  0  0
   12.3270   47.0355   41.2314 H   0  0  0  0  0  0  0  0  0  0  0  0
   16.6925   42.9234   39.8260 H   0  0  0  0  0  0  0  0  0  0  0  0
  1  2  1  0
  2  3  1  0
  2  5  1  0
  3  4  1  0
  4  7  1  0
  5  6  2  0
  5 11  1  0
  7  8  2  0
  7  9  2  0
  7 10  1  0
  1 12  1  0
  1 13  1  0
  2 14  1  0
  3 15  1  0
  3 16  1  0
 10 17  1  0
 11 18  1  0
A    1
N
A    2
CA
A    3
CB
A    4
OG
A    5
C
A    6
O
A    7
S
A    8
O1S
A    9
O2S
A   10
O3S
A   11
OXT
M  END
