2PWA_B2A_A_2001
     RDKit          3D

 14 13  0  0  0  0  0  0  0  0999 V2000
   15.5190   -9.5520  -12.3410 N   0  0  0  0  0  0  0  0  0  0  0  0
   16.8900   -9.6400  -11.7790 C   0  0  0  0  0  0  0  0  0  0  0  0
   17.2820   -8.3410  -11.0920 C   0  0  0  0  0  0  0  0  0  0  0  0
   16.9560  -10.8300  -10.8040 B   0  0  0  0  0  0  0  0  0  0  0  0
   16.5300  -12.1260  -11.3290 O   0  0  0  0  0  0  0  0  0  0  0  0
   18.0970  -11.0500   -9.8960 O   0  0  0  0  0  0  0  0  0  0  0  0
   14.8350   -9.5081  -11.5722 H   0  0  0  0  0  0  0  0  0  0  0  0
   15.4392   -8.7042  -12.9204 H   0  0  0  0  0  0  0  0  0  0  0  0
   17.6097   -9.8024  -12.5949 H   0  0  0  0  0  0  0  0  0  0  0  0
   17.2412   -8.4763  -10.0011 H   0  0  0  0  0  0  0  0  0  0  0  0
   18.3040   -8.0631  -11.3890 H   0  0  0  0  0  0  0  0  0  0  0  0
   16.5843   -7.5441  -11.3890 H   0  0  0  0  0  0  0  0  0  0  0  0
   16.3291  -12.7370  -10.5764 H   0  0  0  0  0  0  0  0  0  0  0  0
   17.7880  -10.9904   -8.9573 H   0  0  0  0  0  0  0  0  0  0  0  0
  1  2  1  0
  2  3  1  0
  2  4  1  0
  4  5  1  0
  4  6  1  0
  1  7  1  0
  1  8  1  0
  2  9  1  0
  3 10  1  0
  3 11  1  0
  3 12  1  0
  5 13  1  0
  6 14  1  0
A    1
N
A    2
CA
A    3
CB
A    4
B
A    5
O1
A    6
O2
M  END
