2PXH_BP5_A_308
     RDKit          3D

 31 32  0  0  0  0  0  0  0  0999 V2000
  -22.0200   -9.8840   21.9510 C   0  0  0  0  0  0  0  0  0  0  0  0
  -22.7760   -8.7170   21.7790 C   0  0  0  0  0  0  0  0  0  0  0  0
  -22.4320   -7.5930   22.5720 C   0  0  0  0  0  0  0  0  0  0  0  0
  -21.3650   -7.6850   23.5110 C   0  0  0  0  0  0  0  0  0  0  0  0
  -19.8500   -4.2770   25.3160 C   0  0  0  0  0  0  0  0  0  0  0  0
  -19.0950   -5.4050   25.0310 C   0  0  0  0  0  0  0  0  0  0  0  0
  -20.9510   -6.5540   24.1880 C   0  0  0  0  0  0  0  0  0  0  0  0
  -21.7410   -5.4250   24.4150 C   0  0  0  0  0  0  0  0  0  0  0  0
  -21.1980   -4.2700   24.9940 C   0  0  0  0  0  0  0  0  0  0  0  0
  -22.2470  -11.1890   21.0940 C   0  0  0  0  0  0  0  0  0  0  0  0
  -20.9570   -9.8920   22.8680 C   0  0  0  0  0  0  0  0  0  0  0  0
  -19.6430   -6.4960   24.4680 N   0  0  0  0  0  0  0  0  0  0  0  0
  -20.6220   -8.8280   23.6240 N   0  0  0  0  0  0  0  0  0  0  0  0
  -23.6820  -11.5810   20.8430 C   0  0  0  0  0  0  0  0  0  0  0  0
  -23.6770  -12.6420   19.7180 C   0  0  0  0  0  0  0  0  0  0  0  0
  -24.2830  -13.7370   19.9280 O   0  0  0  0  0  0  0  0  0  0  0  0
  -23.0350  -12.3530   18.6850 O   0  0  0  0  0  0  0  0  0  0  0  0
  -24.1200  -12.1530   22.1300 N   0  0  0  0  0  0  0  0  0  0  0  0
  -23.6045   -8.6744   21.0566 H   0  0  0  0  0  0  0  0  0  0  0  0
  -22.9888   -6.6507   22.4621 H   0  0  0  0  0  0  0  0  0  0  0  0
  -19.3854   -3.4003   25.7909 H   0  0  0  0  0  0  0  0  0  0  0  0
  -18.0216   -5.4070   25.2715 H   0  0  0  0  0  0  0  0  0  0  0  0
  -22.8047   -5.4425   24.1353 H   0  0  0  0  0  0  0  0  0  0  0  0
  -21.8224   -3.3852   25.1869 H   0  0  0  0  0  0  0  0  0  0  0  0
  -21.7651  -11.0367   20.1170 H   0  0  0  0  0  0  0  0  0  0  0  0
  -21.8179  -12.0092   21.6883 H   0  0  0  0  0  0  0  0  0  0  0  0
  -20.3672  -10.8143   22.9749 H   0  0  0  0  0  0  0  0  0  0  0  0
  -24.3444  -10.7608   20.5292 H   0  0  0  0  0  0  0  0  0  0  0  0
  -24.4507  -14.0400   20.8555 H   0  0  0  0  0  0  0  0  0  0  0  0
  -23.7068  -11.6134   22.9039 H   0  0  0  0  0  0  0  0  0  0  0  0
  -25.1473  -12.1112   22.1924 H   0  0  0  0  0  0  0  0  0  0  0  0
  1 10  1  0
  1  2  2  0
  1 11  1  0
  2  3  1  0
  3  4  2  0
  4 13  1  0
  4  7  1  0
  5  9  2  0
  5  6  1  0
  6 12  2  0
  7  8  2  0
  7 12  1  0
  8  9  1  0
 10 14  1  0
 11 13  2  0
 14 15  1  0
 14 18  1  0
 15 17  2  0
 15 16  1  0
  2 19  1  0
  3 20  1  0
  5 21  1  0
  6 22  1  0
  8 23  1  0
  9 24  1  0
 10 25  1  0
 10 26  1  0
 11 27  1  0
 14 28  1  0
 16 29  1  0
 18 30  1  0
 18 31  1  0
A    1
C9
A    2
C8
A    3
C7
A    4
C6
A    5
C5
A    6
C4
A    7
C3
A    8
C2
A    9
C1
A   10
C12
A   11
C11
A   12
N1
A   13
N2
A   14
C13
A   15
C14
A   16
O1
A   17
O2
A   18
N
M  END
