2PZI_AXX_A_753
     RDKit          3D

 34 36  0  0  0  0  0  0  0  0999 V2000
   19.0850   -9.2450   -3.5240 O   0  0  0  0  0  0  0  0  0  0  0  0
   19.7770   -9.5920   -2.5650 C   0  0  0  0  0  0  0  0  0  0  0  0
   19.2850   -9.4500   -1.1400 C   0  0  0  0  0  0  0  0  0  0  0  0
   17.8680  -10.0160   -1.0820 C   0  0  0  0  0  0  0  0  0  0  0  0
   18.0840   -8.5070   -1.0200 C   0  0  0  0  0  0  0  0  0  0  0  0
   20.9900  -10.1370   -2.6880 N   0  0  0  0  0  0  0  0  0  0  0  0
   21.6850  -10.2130   -3.8520 C   0  0  0  0  0  0  0  0  0  0  0  0
   21.1860   -9.6150   -5.3790 S   0  0  0  0  0  0  0  0  0  0  0  0
   22.6330  -10.1400   -6.1760 C   0  0  0  0  0  0  0  0  0  0  0  0
   22.7630   -9.8720   -7.6470 C   0  0  0  0  0  0  0  0  0  0  0  0
   24.2540   -9.9470   -7.9610 C   0  0  0  0  0  0  0  0  0  0  0  0
   24.9120  -11.1980   -7.3740 C   0  0  0  0  0  0  0  0  0  0  0  0
   24.8280  -11.3200   -5.8510 C   0  0  0  0  0  0  0  0  0  0  0  0
   23.5100  -10.7990   -5.3290 C   0  0  0  0  0  0  0  0  0  0  0  0
   23.0100  -10.8400   -4.0050 C   0  0  0  0  0  0  0  0  0  0  0  0
   23.6740  -11.4560   -2.8350 C   0  0  0  0  0  0  0  0  0  0  0  0
   23.0170  -11.5090   -1.8100 O   0  0  0  0  0  0  0  0  0  0  0  0
   24.9140  -11.9240   -2.9420 N   0  0  0  0  0  0  0  0  0  0  0  0
   20.2264   -9.5526   -0.5803 H   0  0  0  0  0  0  0  0  0  0  0  0
   17.4209  -10.4706   -1.9784 H   0  0  0  0  0  0  0  0  0  0  0  0
   17.3516  -10.7531   -0.4495 H   0  0  0  0  0  0  0  0  0  0  0  0
   17.9030   -7.9634   -0.0810 H   0  0  0  0  0  0  0  0  0  0  0  0
   17.7124   -7.6435   -1.5912 H   0  0  0  0  0  0  0  0  0  0  0  0
   21.4286  -10.5266   -1.8414 H   0  0  0  0  0  0  0  0  0  0  0  0
   22.2130  -10.6306   -8.2232 H   0  0  0  0  0  0  0  0  0  0  0  0
   22.3449   -8.8905   -7.9150 H   0  0  0  0  0  0  0  0  0  0  0  0
   24.3848   -9.9585   -9.0531 H   0  0  0  0  0  0  0  0  0  0  0  0
   24.7369   -9.0695   -7.5063 H   0  0  0  0  0  0  0  0  0  0  0  0
   24.4225  -12.0793   -7.8142 H   0  0  0  0  0  0  0  0  0  0  0  0
   25.9822  -11.1249   -7.6175 H   0  0  0  0  0  0  0  0  0  0  0  0
   24.9309  -12.3786   -5.5704 H   0  0  0  0  0  0  0  0  0  0  0  0
   25.6371  -10.7192   -5.4101 H   0  0  0  0  0  0  0  0  0  0  0  0
   25.4614  -12.1306   -2.0943 H   0  0  0  0  0  0  0  0  0  0  0  0
   25.3271  -12.0799   -3.8726 H   0  0  0  0  0  0  0  0  0  0  0  0
  1  2  2  0
  2  6  1  0
  2  3  1  0
  3  4  1  0
  3  5  1  0
  4  5  1  0
  6  7  1  0
  7  8  1  0
  7 15  2  0
  8  9  1  0
  9 10  1  0
  9 14  2  0
 10 11  1  0
 11 12  1  0
 12 13  1  0
 13 14  1  0
 14 15  1  0
 15 16  1  0
 16 18  1  0
 16 17  2  0
  3 19  1  0
  4 20  1  0
  4 21  1  0
  5 22  1  0
  5 23  1  0
  6 24  1  0
 10 25  1  0
 10 26  1  0
 11 27  1  0
 11 28  1  0
 12 29  1  0
 12 30  1  0
 13 31  1  0
 13 32  1  0
 18 33  1  0
 18 34  1  0
A    1
O5
A    2
C4
A    3
C2
A    4
C3
A    5
C1
A    6
N6
A    7
C7
A    8
S11
A    9
C10
A   10
C18
A   11
C17
A   12
C16
A   13
C15
A   14
C9
A   15
C8
A   16
C12
A   17
O13
A   18
N14
M  END
