2I2C_DTA_A_273
     RDKit          3D

 62 67  0  0  0  0  0  0  0  0999 V2000
   18.5590    3.0940    6.7060 N   0  0  0  0  0  0  0  0  0  0  0  0
   18.7240    4.2500    7.3660 C   0  0  0  0  0  0  0  0  0  0  0  0
   19.9290    4.5530    7.8720 N   0  0  0  0  0  0  0  0  0  0  0  0
   20.1590    5.6710    8.5410 C   0  0  0  0  0  0  0  0  0  0  0  0
   19.1980    6.5590    8.7380 N   0  0  0  0  0  0  0  0  0  0  0  0
   17.9580    6.3190    8.2600 C   0  0  0  0  0  0  0  0  0  0  0  0
   17.6790    5.1590    7.5570 C   0  0  0  0  0  0  0  0  0  0  0  0
   16.3880    5.2020    7.2170 N   0  0  0  0  0  0  0  0  0  0  0  0
   15.8740    6.3500    7.6830 C   0  0  0  0  0  0  0  0  0  0  0  0
   16.8390    7.0310    8.3190 N   0  0  0  0  0  0  0  0  0  0  0  0
   16.7510    8.3490    9.0050 C   0  0  0  0  0  0  0  0  0  0  0  0
   15.5520    8.4440    9.8090 O   0  0  0  0  0  0  0  0  0  0  0  0
   16.6510    9.4640    7.9550 C   0  0  0  0  0  0  0  0  0  0  0  0
   17.8330   10.2710    8.0070 O   0  0  0  0  0  0  0  0  0  0  0  0
   15.4190   10.2640    8.4070 C   0  0  0  0  0  0  0  0  0  0  0  0
   15.6470   11.6680    8.3270 O   0  0  0  0  0  0  0  0  0  0  0  0
   15.2430    9.8360    9.8630 C   0  0  0  0  0  0  0  0  0  0  0  0
   13.7780   10.0340   10.2670 C   0  0  0  0  0  0  0  0  0  0  0  0
   13.3070    9.3070   11.8850 S   0  0  0  0  0  0  0  0  0  0  0  0
   14.9200    9.5490   13.1210 S   0  0  0  0  0  0  0  0  0  0  0  0
   15.4540    7.8380   13.5400 C   0  0  0  0  0  0  0  0  0  0  0  0
   16.9750    7.6710   13.8250 C   0  0  0  0  0  0  0  0  0  0  0  0
   17.7440    8.5720   12.9740 O   0  0  0  0  0  0  0  0  0  0  0  0
   17.3480    8.0260   15.2750 C   0  0  0  0  0  0  0  0  0  0  0  0
   18.2810    7.0580   15.7880 O   0  0  0  0  0  0  0  0  0  0  0  0
   18.0060    9.4000   15.1540 C   0  0  0  0  0  0  0  0  0  0  0  0
   18.9740    9.6180   16.1940 O   0  0  0  0  0  0  0  0  0  0  0  0
   18.7060    9.2610   13.8150 C   0  0  0  0  0  0  0  0  0  0  0  0
   19.0230   10.5760   13.1930 N   0  0  0  0  0  0  0  0  0  0  0  0
   18.1550   11.5260   12.8280 C   0  0  0  0  0  0  0  0  0  0  0  0
   18.8190   12.5570   12.3050 N   0  0  0  0  0  0  0  0  0  0  0  0
   20.1160   12.2540   12.3240 C   0  0  0  0  0  0  0  0  0  0  0  0
   20.2450   10.9910   12.8880 C   0  0  0  0  0  0  0  0  0  0  0  0
   21.4650   10.4380   13.0380 N   0  0  0  0  0  0  0  0  0  0  0  0
   22.5480   11.0940   12.6400 C   0  0  0  0  0  0  0  0  0  0  0  0
   22.4620   12.3040   12.0960 N   0  0  0  0  0  0  0  0  0  0  0  0
   21.2760   12.9140   11.9140 C   0  0  0  0  0  0  0  0  0  0  0  0
   21.2180   14.1270   11.3620 N   0  0  0  0  0  0  0  0  0  0  0  0
   18.4336    2.2156    7.2291 H   0  0  0  0  0  0  0  0  0  0  0  0
   18.5577    3.0847    5.6760 H   0  0  0  0  0  0  0  0  0  0  0  0
   21.1655    5.8655    8.9399 H   0  0  0  0  0  0  0  0  0  0  0  0
   14.8313    6.6793    7.5632 H   0  0  0  0  0  0  0  0  0  0  0  0
   17.6459    8.4491    9.6367 H   0  0  0  0  0  0  0  0  0  0  0  0
   16.5604    9.0996    6.9211 H   0  0  0  0  0  0  0  0  0  0  0  0
   18.0774   10.4378    8.9517 H   0  0  0  0  0  0  0  0  0  0  0  0
   14.5368   10.0714    7.7788 H   0  0  0  0  0  0  0  0  0  0  0  0
   15.7082   12.0450    9.2404 H   0  0  0  0  0  0  0  0  0  0  0  0
   15.8598   10.3955   10.5817 H   0  0  0  0  0  0  0  0  0  0  0  0
   13.5801   11.1152   10.3095 H   0  0  0  0  0  0  0  0  0  0  0  0
   13.1792    9.5064    9.5100 H   0  0  0  0  0  0  0  0  0  0  0  0
   14.9025    7.5191   14.4367 H   0  0  0  0  0  0  0  0  0  0  0  0
   15.2401    7.2248   12.6522 H   0  0  0  0  0  0  0  0  0  0  0  0
   17.2048    6.6130   13.6304 H   0  0  0  0  0  0  0  0  0  0  0  0
   16.4869    8.0305   15.9595 H   0  0  0  0  0  0  0  0  0  0  0  0
   18.2640    7.0756   16.7777 H   0  0  0  0  0  0  0  0  0  0  0  0
   17.3007   10.2403   15.2339 H   0  0  0  0  0  0  0  0  0  0  0  0
   18.5374    9.5197   17.0771 H   0  0  0  0  0  0  0  0  0  0  0  0
   19.6644    8.7348   13.9356 H   0  0  0  0  0  0  0  0  0  0  0  0
   17.0625   11.4659   12.9417 H   0  0  0  0  0  0  0  0  0  0  0  0
   23.5364   10.6272   12.7627 H   0  0  0  0  0  0  0  0  0  0  0  0
   21.1780   14.9640   11.9609 H   0  0  0  0  0  0  0  0  0  0  0  0
   21.2132   14.2266   10.3368 H   0  0  0  0  0  0  0  0  0  0  0  0
  1  2  1  0
  2  7  2  0
  2  3  1  0
  3  4  2  0
  4  5  1  0
  5  6  2  0
  6  7  1  0
  6 10  1  0
  7  8  1  0
  8  9  2  0
  9 10  1  0
 10 11  1  0
 11 13  1  0
 11 12  1  0
 12 17  1  0
 13 14  1  0
 13 15  1  0
 15 16  1  0
 15 17  1  0
 17 18  1  0
 18 19  1  0
 19 20  1  0
 20 21  1  0
 21 22  1  0
 22 23  1  0
 22 24  1  0
 23 28  1  0
 24 26  1  0
 24 25  1  0
 26 28  1  0
 26 27  1  0
 28 29  1  0
 29 30  1  0
 29 33  1  0
 30 31  2  0
 31 32  1  0
 32 37  1  0
 32 33  2  0
 33 34  1  0
 34 35  2  0
 35 36  1  0
 36 37  2  0
 37 38  1  0
  1 39  1  0
  1 40  1  0
  4 41  1  0
  9 42  1  0
 11 43  1  0
 13 44  1  0
 14 45  1  0
 15 46  1  0
 16 47  1  0
 17 48  1  0
 18 49  1  0
 18 50  1  0
 21 51  1  0
 21 52  1  0
 22 53  1  0
 24 54  1  0
 25 55  1  0
 26 56  1  0
 27 57  1  0
 28 58  1  0
 30 59  1  0
 35 60  1  0
 38 61  1  0
 38 62  1  0
A    1
N62
A    2
C62
A    3
N12
A    4
C22
A    5
N32
A    6
C42
A    7
C52
A    8
N72
A    9
C82
A   10
N92
A   11
C1'
A   12
O4'
A   13
C2'
A   14
O2'
A   15
C3'
A   16
O3'
A   17
C4'
A   18
C5'
A   19
S5'
A   20
S5R
A   21
C5R
A   22
C4R
A   23
O4R
A   24
C3R
A   25
O3R
A   26
C2R
A   27
O2R
A   28
C1R
A   29
N91
A   30
C81
A   31
N71
A   32
C51
A   33
C41
A   34
N31
A   35
C21
A   36
N11
A   37
C61
A   38
N61
M  END
