2Q5G_1FA_A_501
     RDKit          3D

 69 73  0  0  0  0  0  0  0  0999 V2000
  -11.0060   -6.0790   43.0630 F   0  0  0  0  0  0  0  0  0  0  0  0
  -11.9530   -6.4730   42.2450 C   0  0  0  0  0  0  0  0  0  0  0  0
  -13.1200   -5.9020   42.5260 F   0  0  0  0  0  0  0  0  0  0  0  0
  -12.0480   -7.7740   42.4750 F   0  0  0  0  0  0  0  0  0  0  0  0
  -11.4990   -6.0500   40.8560 C   0  0  0  0  0  0  0  0  0  0  0  0
  -10.7620   -6.9070   40.0400 C   0  0  0  0  0  0  0  0  0  0  0  0
  -10.3420   -6.4990   38.7800 C   0  0  0  0  0  0  0  0  0  0  0  0
  -11.7850   -4.7620   40.3960 C   0  0  0  0  0  0  0  0  0  0  0  0
  -11.3560   -4.3440   39.1320 C   0  0  0  0  0  0  0  0  0  0  0  0
  -10.6300   -5.2150   38.3120 C   0  0  0  0  0  0  0  0  0  0  0  0
  -10.2270   -4.8450   37.1400 C   0  0  0  0  0  0  0  0  0  0  0  0
   -9.9240   -4.4640   36.0500 C   0  0  0  0  0  0  0  0  0  0  0  0
   -9.5940   -3.8930   34.9270 C   0  0  0  0  0  0  0  0  0  0  0  0
   -9.7090   -4.6070   33.7290 C   0  0  0  0  0  0  0  0  0  0  0  0
   -9.1730   -2.5870   34.8980 N   0  0  0  0  0  0  0  0  0  0  0  0
   -8.8510   -1.9780   33.7170 C   0  0  0  0  0  0  0  0  0  0  0  0
   -8.4530   -0.7530   33.6740 C   0  0  0  0  0  0  0  0  0  0  0  0
   -8.0740    0.3700   33.6340 C   0  0  0  0  0  0  0  0  0  0  0  0
   -7.6730    1.6080   33.6650 C   0  0  0  0  0  0  0  0  0  0  0  0
   -7.0300    2.1230   32.4440 N   0  0  0  0  0  0  0  0  0  0  0  0
   -5.5920    1.9860   32.2570 C   0  0  0  0  0  0  0  0  0  0  0  0
   -5.0740    3.4240   32.1570 C   0  0  0  0  0  0  0  0  0  0  0  0
   -5.8590    4.2370   31.2520 O   0  0  0  0  0  0  0  0  0  0  0  0
   -7.2770    4.2530   31.5060 C   0  0  0  0  0  0  0  0  0  0  0  0
   -7.8250    2.8290   31.4440 C   0  0  0  0  0  0  0  0  0  0  0  0
   -8.9420   -2.6700   32.5130 C   0  0  0  0  0  0  0  0  0  0  0  0
   -9.3700   -3.9860   32.5130 C   0  0  0  0  0  0  0  0  0  0  0  0
   -9.4970   -4.7990   31.0270 S   0  0  0  0  0  0  0  0  0  0  0  0
  -10.5990   -6.0570   31.2710 C   0  0  0  0  0  0  0  0  0  0  0  0
  -11.9680   -5.9160   31.0070 C   0  0  0  0  0  0  0  0  0  0  0  0
  -12.8750   -6.9600   31.2460 C   0  0  0  0  0  0  0  0  0  0  0  0
  -10.1010   -7.3410   31.8210 C   0  0  0  0  0  0  0  0  0  0  0  0
   -8.6990   -7.7210   32.2030 C   0  0  0  0  0  0  0  0  0  0  0  0
   -8.8890   -9.2410   32.3130 C   0  0  0  0  0  0  0  0  0  0  0  0
  -10.3460   -9.6210   32.6280 C   0  0  0  0  0  0  0  0  0  0  0  0
  -11.0420   -8.4170   32.0670 C   0  0  0  0  0  0  0  0  0  0  0  0
  -12.4790   -8.2180   31.7560 C   0  0  0  0  0  0  0  0  0  0  0  0
  -13.3820   -9.2450   32.0090 O   0  0  0  0  0  0  0  0  0  0  0  0
  -14.0510   -9.9960   30.9990 C   0  0  0  0  0  0  0  0  0  0  0  0
  -14.9210   -9.0440   30.2280 C   0  0  0  0  0  0  0  0  0  0  0  0
  -14.5640   -8.6390   29.0860 O   0  0  0  0  0  0  0  0  0  0  0  0
  -15.9590   -8.6830   30.8160 O   0  0  0  0  0  0  0  0  0  0  0  0
  -10.5104   -7.9165   40.3973 H   0  0  0  0  0  0  0  0  0  0  0  0
   -9.7761   -7.1953   38.1437 H   0  0  0  0  0  0  0  0  0  0  0  0
  -12.3534   -4.0696   41.0344 H   0  0  0  0  0  0  0  0  0  0  0  0
  -11.5900   -3.3279   38.7816 H   0  0  0  0  0  0  0  0  0  0  0  0
  -10.0627   -5.6486   33.7380 H   0  0  0  0  0  0  0  0  0  0  0  0
   -8.5507    2.2382   33.8713 H   0  0  0  0  0  0  0  0  0  0  0  0
   -6.8931    1.6413   34.4400 H   0  0  0  0  0  0  0  0  0  0  0  0
   -5.1369    1.4685   33.1144 H   0  0  0  0  0  0  0  0  0  0  0  0
   -5.3431    1.3911   31.3659 H   0  0  0  0  0  0  0  0  0  0  0  0
   -5.1053    3.8801   33.1575 H   0  0  0  0  0  0  0  0  0  0  0  0
   -4.0481    3.3818   31.7622 H   0  0  0  0  0  0  0  0  0  0  0  0
   -7.4653    4.6745   32.5045 H   0  0  0  0  0  0  0  0  0  0  0  0
   -7.7773    4.8702   30.7452 H   0  0  0  0  0  0  0  0  0  0  0  0
   -7.6793    2.3933   30.4445 H   0  0  0  0  0  0  0  0  0  0  0  0
   -8.9069    2.7740   31.6350 H   0  0  0  0  0  0  0  0  0  0  0  0
   -8.6756   -2.1743   31.5679 H   0  0  0  0  0  0  0  0  0  0  0  0
  -12.3410   -4.9635   30.6024 H   0  0  0  0  0  0  0  0  0  0  0  0
  -13.9399   -6.7924   31.0271 H   0  0  0  0  0  0  0  0  0  0  0  0
   -7.9708   -7.4508   31.4241 H   0  0  0  0  0  0  0  0  0  0  0  0
   -8.3007   -7.2260   33.1009 H   0  0  0  0  0  0  0  0  0  0  0  0
   -8.6001   -9.7045   31.3582 H   0  0  0  0  0  0  0  0  0  0  0  0
   -8.2587   -9.6022   33.1390 H   0  0  0  0  0  0  0  0  0  0  0  0
  -10.6489  -10.5460   32.1156 H   0  0  0  0  0  0  0  0  0  0  0  0
  -10.5564   -9.8328   33.6867 H   0  0  0  0  0  0  0  0  0  0  0  0
  -13.3145  -10.4599   30.3265 H   0  0  0  0  0  0  0  0  0  0  0  0
  -14.6572  -10.7958   31.4493 H   0  0  0  0  0  0  0  0  0  0  0  0
  -15.9892   -8.6725   31.8055 H   0  0  0  0  0  0  0  0  0  0  0  0
  1  2  1  0
  2  5  1  0
  2  4  1  0
  2  3  1  0
  5  6  2  0
  5  8  1  0
  6  7  1  0
  7 10  2  0
  8  9  2  0
  9 10  1  0
 10 11  1  0
 11 12  3  0
 12 13  1  0
 13 15  1  0
 13 14  2  0
 14 27  1  0
 15 16  2  0
 16 26  1  0
 16 17  1  0
 17 18  3  0
 18 19  1  0
 19 20  1  0
 20 25  1  0
 20 21  1  0
 21 22  1  0
 22 23  1  0
 23 24  1  0
 24 25  1  0
 26 27  2  0
 27 28  1  0
 28 29  1  0
 29 30  2  0
 29 32  1  0
 30 31  1  0
 31 37  2  0
 32 33  1  0
 32 36  2  0
 33 34  1  0
 34 35  1  0
 35 36  1  0
 36 37  1  0
 37 38  1  0
 38 39  1  0
 39 40  1  0
 40 41  2  0
 40 42  1  0
  6 43  1  0
  7 44  1  0
  8 45  1  0
  9 46  1  0
 14 47  1  0
 19 48  1  0
 19 49  1  0
 21 50  1  0
 21 51  1  0
 22 52  1  0
 22 53  1  0
 24 54  1  0
 24 55  1  0
 25 56  1  0
 25 57  1  0
 26 58  1  0
 30 59  1  0
 31 60  1  0
 33 61  1  0
 33 62  1  0
 34 63  1  0
 34 64  1  0
 35 65  1  0
 35 66  1  0
 39 67  1  0
 39 68  1  0
 42 69  1  0
A    1
F25
A    2
C24
A    3
F27
A    4
F26
A    5
C21
A    6
C22
A    7
C23
A    8
C20
A    9
C19
A   10
C18
A   11
C17
A   12
C16
A   13
C3
A   14
C4
A   15
N2
A   16
C1
A   17
C7
A   18
C8
A   19
C9
A   20
N10
A   21
C11
A   22
C12
A   23
O13
A   24
C14
A   25
C15
A   26
C6
A   27
C5
A   28
S28
A   29
C29
A   30
C30
A   31
C31
A   32
C34
A   33
C35
A   34
C36
A   35
C37
A   36
C33
A   37
C32
A   38
O38
A   39
C39
A   40
C40
A   41
O42
A   42
O41
M  END
