2Q5P_241_A_5001
     RDKit          3D

 62 65  0  0  0  0  0  0  0  0999 V2000
   -3.7760   56.8650   74.4910 C   0  0  0  0  0  0  0  0  0  0  0  0
   -2.6130   56.2080   73.9950 O   0  0  0  0  0  0  0  0  0  0  0  0
   -2.0210   56.9200   72.9950 C   0  0  0  0  0  0  0  0  0  0  0  0
   -0.7610   56.5640   72.4990 C   0  0  0  0  0  0  0  0  0  0  0  0
   -0.1810   57.3040   71.4670 C   0  0  0  0  0  0  0  0  0  0  0  0
   -2.6920   58.0080   72.4390 C   0  0  0  0  0  0  0  0  0  0  0  0
   -2.1050   58.7420   71.4140 C   0  0  0  0  0  0  0  0  0  0  0  0
   -0.8520   58.4030   70.9210 C   0  0  0  0  0  0  0  0  0  0  0  0
   -0.2870   59.2910   69.7910 C   0  0  0  0  0  0  0  0  0  0  0  0
   -1.0780   59.8330   69.0220 O   0  0  0  0  0  0  0  0  0  0  0  0
    1.0440   59.5190   69.6560 N   0  0  0  0  0  0  0  0  0  0  0  0
    1.7180   59.6520   68.5010 C   0  0  0  0  0  0  0  0  0  0  0  0
    1.1310   59.5640   67.0870 C   0  0  0  0  0  0  0  0  0  0  0  0
    1.8980   59.6630   70.6820 C   0  0  0  0  0  0  0  0  0  0  0  0
    1.7190   59.6300   72.0690 C   0  0  0  0  0  0  0  0  0  0  0  0
    2.7960   59.8040   72.9260 C   0  0  0  0  0  0  0  0  0  0  0  0
    4.0680   60.0150   72.4060 C   0  0  0  0  0  0  0  0  0  0  0  0
    5.1180   60.1980   73.2580 O   0  0  0  0  0  0  0  0  0  0  0  0
    5.8530   58.9990   73.6270 C   0  0  0  0  0  0  0  0  0  0  0  0
    5.0830   58.1050   74.2560 F   0  0  0  0  0  0  0  0  0  0  0  0
    6.3390   58.4650   72.5150 F   0  0  0  0  0  0  0  0  0  0  0  0
    6.8590   59.3310   74.4540 F   0  0  0  0  0  0  0  0  0  0  0  0
    4.2540   60.0620   71.0220 C   0  0  0  0  0  0  0  0  0  0  0  0
    3.1740   59.8860   70.1570 C   0  0  0  0  0  0  0  0  0  0  0  0
    3.0620   59.8920   68.7670 C   0  0  0  0  0  0  0  0  0  0  0  0
    4.2040   60.0690   67.7360 C   0  0  0  0  0  0  0  0  0  0  0  0
    4.5070   61.5130   67.2760 C   0  0  0  0  0  0  0  0  0  0  0  0
    3.6480   62.6020   67.4840 C   0  0  0  0  0  0  0  0  0  0  0  0
    5.7150   61.7090   66.5980 C   0  0  0  0  0  0  0  0  0  0  0  0
    6.0730   62.9730   66.1370 C   0  0  0  0  0  0  0  0  0  0  0  0
    5.2170   64.0550   66.3520 C   0  0  0  0  0  0  0  0  0  0  0  0
    3.9970   63.8770   67.0080 C   0  0  0  0  0  0  0  0  0  0  0  0
    3.2010   64.9770   67.2130 O   0  0  0  0  0  0  0  0  0  0  0  0
    2.1010   65.3790   66.3100 C   0  0  0  0  0  0  0  0  0  0  0  0
    2.5390   65.6400   64.8500 C   0  0  0  0  0  0  0  0  0  0  0  0
    0.8690   64.4440   66.4360 C   0  0  0  0  0  0  0  0  0  0  0  0
   -0.2160   64.9530   66.7980 O   0  0  0  0  0  0  0  0  0  0  0  0
    1.0070   63.2300   66.1930 O   0  0  0  0  0  0  0  0  0  0  0  0
   -3.7610   56.8565   75.5909 H   0  0  0  0  0  0  0  0  0  0  0  0
   -3.7907   57.9048   74.1325 H   0  0  0  0  0  0  0  0  0  0  0  0
   -4.6742   56.3409   74.1325 H   0  0  0  0  0  0  0  0  0  0  0  0
   -0.2276   55.7004   72.9229 H   0  0  0  0  0  0  0  0  0  0  0  0
    0.8095   57.0211   71.0811 H   0  0  0  0  0  0  0  0  0  0  0  0
   -3.6886   58.2867   72.8120 H   0  0  0  0  0  0  0  0  0  0  0  0
   -2.6407   59.6031   70.9879 H   0  0  0  0  0  0  0  0  0  0  0  0
    0.0450   59.4012   67.1503 H   0  0  0  0  0  0  0  0  0  0  0  0
    1.3303   60.5021   66.5482 H   0  0  0  0  0  0  0  0  0  0  0  0
    1.5966   58.7256   66.5482 H   0  0  0  0  0  0  0  0  0  0  0  0
    0.7140   59.4644   72.4844 H   0  0  0  0  0  0  0  0  0  0  0  0
    2.6438   59.7751   74.0150 H   0  0  0  0  0  0  0  0  0  0  0  0
    5.2591   60.2390   70.6117 H   0  0  0  0  0  0  0  0  0  0  0  0
    5.1228   59.6621   68.1834 H   0  0  0  0  0  0  0  0  0  0  0  0
    3.8611   59.5440   66.8323 H   0  0  0  0  0  0  0  0  0  0  0  0
    2.6989   62.4576   68.0210 H   0  0  0  0  0  0  0  0  0  0  0  0
    6.3885   60.8561   66.4275 H   0  0  0  0  0  0  0  0  0  0  0  0
    7.0253   63.1185   65.6061 H   0  0  0  0  0  0  0  0  0  0  0  0
    5.5062   65.0567   66.0015 H   0  0  0  0  0  0  0  0  0  0  0  0
    1.7743   66.3680   66.6636 H   0  0  0  0  0  0  0  0  0  0  0  0
    3.4839   66.2031   64.8458 H   0  0  0  0  0  0  0  0  0  0  0  0
    2.6821   64.6797   64.3329 H   0  0  0  0  0  0  0  0  0  0  0  0
    1.7625   66.2228   64.3329 H   0  0  0  0  0  0  0  0  0  0  0  0
   -0.4206   65.0490   67.7619 H   0  0  0  0  0  0  0  0  0  0  0  0
  1  2  1  0
  2  3  1  0
  3  6  2  0
  3  4  1  0
  4  5  2  0
  5  8  1  0
  6  7  1  0
  7  8  2  0
  8  9  1  0
  9 10  2  0
  9 11  1  0
 11 12  1  0
 11 14  1  0
 12 13  1  0
 12 25  2  0
 14 24  2  0
 14 15  1  0
 15 16  2  0
 16 17  1  0
 17 23  2  0
 17 18  1  0
 18 19  1  0
 19 21  1  0
 19 20  1  0
 19 22  1  0
 23 24  1  0
 24 25  1  0
 25 26  1  0
 26 27  1  0
 27 29  1  0
 27 28  2  0
 28 32  1  0
 29 30  2  0
 30 31  1  0
 31 32  2  0
 32 33  1  0
 33 34  1  0
 34 35  1  0
 34 36  1  0
 36 38  2  0
 36 37  1  0
  1 39  1  0
  1 40  1  0
  1 41  1  0
  4 42  1  0
  5 43  1  0
  6 44  1  0
  7 45  1  0
 13 46  1  0
 13 47  1  0
 13 48  1  0
 15 49  1  0
 16 50  1  0
 23 51  1  0
 26 52  1  0
 26 53  1  0
 28 54  1  0
 29 55  1  0
 30 56  1  0
 31 57  1  0
 34 58  1  0
 35 59  1  0
 35 60  1  0
 35 61  1  0
 37 62  1  0
A    1
CAA
A    2
OAV
A    3
CBC
A    4
CAM
A    5
CAO
A    6
CAN
A    7
CAP
A    8
CBF
A    9
CAZ
A   10
OAE
A   11
NBK
A   12
CBB
A   13
CAB
A   14
CBI
A   15
CAR
A   16
CAQ
A   17
CBE
A   18
OAX
A   19
CBL
A   20
FAI
A   21
FAG
A   22
FAH
A   23
CAT
A   24
CBH
A   25
CBG
A   26
CAU
A   27
CBA
A   28
CAS
A   29
CAK
A   30
CAJ
A   31
CAL
A   32
CBD
A   33
OAW
A   34
CBJ
A   35
CAC
A   36
CAY
A   37
OAD
A   38
OAF
M  END
