2Q5Q_KPV_A_5001
     RDKit          3D

 26 26  0  0  0  0  0  0  0  0999 V2000
    4.5010   91.9570   24.1120 C   0  0  0  0  0  0  0  0  0  0  0  0
    3.1040   91.6900   24.0500 C   0  0  0  0  0  0  0  0  0  0  0  0
    2.3760   91.9810   22.8760 C   0  0  0  0  0  0  0  0  0  0  0  0
    3.0390   92.5410   21.7570 C   0  0  0  0  0  0  0  0  0  0  0  0
    4.4250   92.8050   21.8140 C   0  0  0  0  0  0  0  0  0  0  0  0
    5.1590   92.5130   22.9910 C   0  0  0  0  0  0  0  0  0  0  0  0
    5.2820   91.6500   25.3750 C   0  0  0  0  0  0  0  0  0  0  0  0
    5.9430   90.2720   25.4010 C   0  0  0  0  0  0  0  0  0  0  0  0
    4.9780   89.2640   26.0340 C   0  0  0  0  0  0  0  0  0  0  0  0
    5.5220   87.8650   25.8660 C   0  0  0  0  0  0  0  0  0  0  0  0
    4.5840   86.7200   25.7640 C   0  0  0  0  0  0  0  0  0  0  0  0
    5.0280   85.5600   25.2610 O   0  0  0  0  0  0  0  0  0  0  0  0
    3.4340   86.8200   26.1670 O   0  0  0  0  0  0  0  0  0  0  0  0
    6.7150   87.6470   25.8590 O   0  0  0  0  0  0  0  0  0  0  0  0
    2.5900   91.2554   24.9200 H   0  0  0  0  0  0  0  0  0  0  0  0
    1.2967   91.7733   22.8306 H   0  0  0  0  0  0  0  0  0  0  0  0
    2.4734   92.7707   20.8419 H   0  0  0  0  0  0  0  0  0  0  0  0
    4.9368   93.2387   20.9422 H   0  0  0  0  0  0  0  0  0  0  0  0
    6.2388   92.7187   23.0321 H   0  0  0  0  0  0  0  0  0  0  0  0
    6.0702   92.4097   25.4831 H   0  0  0  0  0  0  0  0  0  0  0  0
    4.5538   91.6597   26.1994 H   0  0  0  0  0  0  0  0  0  0  0  0
    6.1814   89.9585   24.3739 H   0  0  0  0  0  0  0  0  0  0  0  0
    6.8704   90.3173   25.9907 H   0  0  0  0  0  0  0  0  0  0  0  0
    4.8670   89.4871   27.1054 H   0  0  0  0  0  0  0  0  0  0  0  0
    3.9986   89.3363   25.5386 H   0  0  0  0  0  0  0  0  0  0  0  0
    3.2500   86.8360   27.1396 H   0  0  0  0  0  0  0  0  0  0  0  0
  1  6  2  0
  1  2  1  0
  1  7  1  0
  2  3  2  0
  3  4  1  0
  4  5  2  0
  5  6  1  0
  7  8  1  0
  8  9  1  0
  9 10  1  0
 10 11  1  0
 10 14  2  0
 11 12  2  0
 11 13  1  0
  2 15  1  0
  3 16  1  0
  4 17  1  0
  5 18  1  0
  6 19  1  0
  7 20  1  0
  7 21  1  0
  8 22  1  0
  8 23  1  0
  9 24  1  0
  9 25  1  0
 13 26  1  0
A    1
C1
A    2
C2
A    3
C3
A    4
C4
A    5
C5
A    6
C6
A    7
C7
A    8
C8
A    9
C9
A   10
C10
A   11
C11
A   12
O1
A   13
O2
A   14
O3
M  END
