2Q5S_NZA_A_7001
     RDKit          3D

 43 46  0  0  0  0  0  0  0  0999 V2000
   16.0130   18.0620   11.6120 C   0  0  0  0  0  0  0  0  0  0  0  0
   15.7300   17.8690   12.9670 C   0  0  0  0  0  0  0  0  0  0  0  0
   14.5520   17.2100   13.3150 C   0  0  0  0  0  0  0  0  0  0  0  0
   14.1500   16.9550   14.9740 Cl  0  0  0  0  0  0  0  0  0  0  0  0
   13.6770   16.7540   12.3320 C   0  0  0  0  0  0  0  0  0  0  0  0
   13.9730   16.9440   10.9820 C   0  0  0  0  0  0  0  0  0  0  0  0
   15.1450   17.6000   10.6070 C   0  0  0  0  0  0  0  0  0  0  0  0
   15.4670   17.8070    9.1000 C   0  0  0  0  0  0  0  0  0  0  0  0
   16.5670   18.7830    9.0460 N   0  0  0  0  0  0  0  0  0  0  0  0
   16.4070   20.1010    8.9660 C   0  0  0  0  0  0  0  0  0  0  0  0
   15.0650   20.8400    8.8420 C   0  0  0  0  0  0  0  0  0  0  0  0
   14.0920   20.1880    8.4210 O   0  0  0  0  0  0  0  0  0  0  0  0
   14.9920   22.0500    9.1480 O   0  0  0  0  0  0  0  0  0  0  0  0
   17.8620   18.4620    9.1340 C   0  0  0  0  0  0  0  0  0  0  0  0
   18.5100   17.2330    9.2490 C   0  0  0  0  0  0  0  0  0  0  0  0
   19.9020   17.1910    9.3140 C   0  0  0  0  0  0  0  0  0  0  0  0
   20.6280   18.3770    9.2700 C   0  0  0  0  0  0  0  0  0  0  0  0
   22.3440   18.2840    9.3630 Cl  0  0  0  0  0  0  0  0  0  0  0  0
   19.9910   19.6140    9.1590 C   0  0  0  0  0  0  0  0  0  0  0  0
   18.5990   19.6490    9.0940 C   0  0  0  0  0  0  0  0  0  0  0  0
   17.6660   20.6700    8.9670 C   0  0  0  0  0  0  0  0  0  0  0  0
   17.9700   22.3890    8.9000 S   0  0  0  0  0  0  0  0  0  0  0  0
   18.8520   22.7090    7.4230 C   0  0  0  0  0  0  0  0  0  0  0  0
   18.9450   21.7780    6.3890 C   0  0  0  0  0  0  0  0  0  0  0  0
   19.6610   22.1000    5.2310 C   0  0  0  0  0  0  0  0  0  0  0  0
   20.2750   23.3460    5.1020 C   0  0  0  0  0  0  0  0  0  0  0  0
   20.1740   24.2780    6.1340 C   0  0  0  0  0  0  0  0  0  0  0  0
   19.4600   23.9590    7.2900 C   0  0  0  0  0  0  0  0  0  0  0  0
   16.9359   18.5874   11.3253 H   0  0  0  0  0  0  0  0  0  0  0  0
   16.4221   18.2294   13.7423 H   0  0  0  0  0  0  0  0  0  0  0  0
   12.7478   16.2414   12.6216 H   0  0  0  0  0  0  0  0  0  0  0  0
   13.2801   16.5754   10.2113 H   0  0  0  0  0  0  0  0  0  0  0  0
   15.7779   16.8563    8.6423 H   0  0  0  0  0  0  0  0  0  0  0  0
   14.5859   18.1648    8.5471 H   0  0  0  0  0  0  0  0  0  0  0  0
   13.4641   19.7673    9.0604 H   0  0  0  0  0  0  0  0  0  0  0  0
   17.9262   16.3015    9.2882 H   0  0  0  0  0  0  0  0  0  0  0  0
   20.4231   16.2260    9.3996 H   0  0  0  0  0  0  0  0  0  0  0  0
   20.5768   20.5444    9.1235 H   0  0  0  0  0  0  0  0  0  0  0  0
   18.4582   20.7961    6.4833 H   0  0  0  0  0  0  0  0  0  0  0  0
   19.7404   21.3653    4.4162 H   0  0  0  0  0  0  0  0  0  0  0  0
   20.8370   23.5923    4.1890 H   0  0  0  0  0  0  0  0  0  0  0  0
   20.6558   25.2621    6.0374 H   0  0  0  0  0  0  0  0  0  0  0  0
   19.3757   24.6969    8.1014 H   0  0  0  0  0  0  0  0  0  0  0  0
  1  2  2  0
  1  7  1  0
  2  3  1  0
  3  4  1  0
  3  5  2  0
  5  6  1  0
  6  7  2  0
  7  8  1  0
  8  9  1  0
  9 14  1  0
  9 10  1  0
 10 11  1  0
 10 21  2  0
 11 13  2  0
 11 12  1  0
 14 15  2  0
 14 20  1  0
 15 16  1  0
 16 17  2  0
 17 18  1  0
 17 19  1  0
 19 20  2  0
 20 21  1  0
 21 22  1  0
 22 23  1  0
 23 28  1  0
 23 24  2  0
 24 25  1  0
 25 26  2  0
 26 27  1  0
 27 28  2  0
  1 29  1  0
  2 30  1  0
  5 31  1  0
  6 32  1  0
  8 33  1  0
  8 34  1  0
 12 35  1  0
 15 36  1  0
 16 37  1  0
 19 38  1  0
 24 39  1  0
 25 40  1  0
 26 41  1  0
 27 42  1  0
 28 43  1  0
A    1
CAM
A    2
CAJ
A    3
CAT
A    4
CLAC
A    5
CAK
A    6
CAN
A    7
CAV
A    8
CAQ
A    9
NBB
A   10
CAY
A   11
CAS
A   12
OAB
A   13
OAA
A   14
CBA
A   15
CAO
A   16
CAL
A   17
CAU
A   18
CLAD
A   19
CAP
A   20
CAZ
A   21
CAX
A   22
SAR
A   23
CAW
A   24
CAH
A   25
CAF
A   26
CAE
A   27
CAG
A   28
CAI
M  END
