2Q6C_HR1_A_3002
     RDKit          3D

 74 78  0  0  0  0  0  0  0  0999 V2000
   79.7130    8.9850   -5.2000 N   0  0  0  0  0  0  0  0  0  0  0  0
   79.5340   13.2960  -10.6860 C   0  0  0  0  0  0  0  0  0  0  0  0
   77.5400    8.1920   -5.1730 C   0  0  0  0  0  0  0  0  0  0  0  0
   81.1730    9.1830   -4.9250 C   0  0  0  0  0  0  0  0  0  0  0  0
   79.4540    7.0350   -3.5860 C   0  0  0  0  0  0  0  0  0  0  0  0
   78.5130    5.9250   -3.1560 C   0  0  0  0  0  0  0  0  0  0  0  0
   78.7160    5.7560   -0.6390 C   0  0  0  0  0  0  0  0  0  0  0  0
   81.9890    7.9470   -5.3030 C   0  0  0  0  0  0  0  0  0  0  0  0
   74.6740    5.7530   -5.5160 C   0  0  0  0  0  0  0  0  0  0  0  0
   78.8420   13.7820   -8.0260 C   0  0  0  0  0  0  0  0  0  0  0  0
   78.7700   12.4880   -8.5360 C   0  0  0  0  0  0  0  0  0  0  0  0
   75.5430    7.7160   -3.7440 C   0  0  0  0  0  0  0  0  0  0  0  0
   74.3650   10.2070   -7.8810 C   0  0  0  0  0  0  0  0  0  0  0  0
   74.3720    7.0120   -3.4830 C   0  0  0  0  0  0  0  0  0  0  0  0
   79.1190   12.2470   -9.8660 C   0  0  0  0  0  0  0  0  0  0  0  0
   74.8030   11.2640   -8.6680 C   0  0  0  0  0  0  0  0  0  0  0  0
   80.4480   11.2690   -6.9570 O   0  0  0  0  0  0  0  0  0  0  0  0
   79.2820   10.8270   -6.9270 C   0  0  0  0  0  0  0  0  0  0  0  0
   79.0060    9.7510   -6.0780 C   0  0  0  0  0  0  0  0  0  0  0  0
   81.3780    9.6200   -3.4720 C   0  0  0  0  0  0  0  0  0  0  0  0
   77.6130    9.3090   -6.1120 C   0  0  0  0  0  0  0  0  0  0  0  0
   76.5990    9.9580   -6.9870 C   0  0  0  0  0  0  0  0  0  0  0  0
   75.2620    9.5550   -7.0410 C   0  0  0  0  0  0  0  0  0  0  0  0
   77.0490   11.0150   -7.7730 C   0  0  0  0  0  0  0  0  0  0  0  0
   76.1330   11.6660   -8.6140 C   0  0  0  0  0  0  0  0  0  0  0  0
   78.3470   11.4100   -7.7200 N   0  0  0  0  0  0  0  0  0  0  0  0
   79.6050   14.5900  -10.1730 C   0  0  0  0  0  0  0  0  0  0  0  0
   79.2600   14.8300   -8.8450 C   0  0  0  0  0  0  0  0  0  0  0  0
   76.2920    7.4290   -4.8840 C   0  0  0  0  0  0  0  0  0  0  0  0
   73.9360    6.0330   -4.3680 C   0  0  0  0  0  0  0  0  0  0  0  0
   75.8510    6.4530   -5.7750 C   0  0  0  0  0  0  0  0  0  0  0  0
   72.8020    5.3620   -4.1050 F   0  0  0  0  0  0  0  0  0  0  0  0
   78.9200    8.0280   -4.6070 C   0  0  0  0  0  0  0  0  0  0  0  0
   79.1000    5.1320   -1.9790 C   0  0  0  0  0  0  0  0  0  0  0  0
   80.5170    5.0790   -2.0420 O   0  0  0  0  0  0  0  0  0  0  0  0
   77.2110    5.7430   -0.3990 C   0  0  0  0  0  0  0  0  0  0  0  0
   76.6950    4.4590   -0.7040 O   0  0  0  0  0  0  0  0  0  0  0  0
   76.9110    6.0850    1.0540 C   0  0  0  0  0  0  0  0  0  0  0  0
   75.4670    6.5050    1.1730 C   0  0  0  0  0  0  0  0  0  0  0  0
   74.6760    5.7580    1.7860 O   0  0  0  0  0  0  0  0  0  0  0  0
   75.1180    7.5870    0.6460 O   0  0  0  0  0  0  0  0  0  0  0  0
   79.8045   13.1027  -11.7346 H   0  0  0  0  0  0  0  0  0  0  0  0
   81.5517    9.9931   -5.5656 H   0  0  0  0  0  0  0  0  0  0  0  0
   79.7343    7.6014   -2.6857 H   0  0  0  0  0  0  0  0  0  0  0  0
   80.2898    6.5261   -4.0884 H   0  0  0  0  0  0  0  0  0  0  0  0
   77.5528    6.3657   -2.8498 H   0  0  0  0  0  0  0  0  0  0  0  0
   78.3689    5.2392   -4.0039 H   0  0  0  0  0  0  0  0  0  0  0  0
   79.2066    5.1906    0.1670 H   0  0  0  0  0  0  0  0  0  0  0  0
   79.0431    6.8061   -0.6534 H   0  0  0  0  0  0  0  0  0  0  0  0
   82.3260    7.4365   -4.3888 H   0  0  0  0  0  0  0  0  0  0  0  0
   81.3646    7.2627   -5.8961 H   0  0  0  0  0  0  0  0  0  0  0  0
   82.8636    8.2524   -5.8961 H   0  0  0  0  0  0  0  0  0  0  0  0
   74.3279    4.9798   -6.2177 H   0  0  0  0  0  0  0  0  0  0  0  0
   78.5694   13.9769   -6.9783 H   0  0  0  0  0  0  0  0  0  0  0  0
   75.8785    8.5004   -3.0497 H   0  0  0  0  0  0  0  0  0  0  0  0
   73.3135    9.8867   -7.9216 H   0  0  0  0  0  0  0  0  0  0  0  0
   73.7904    7.2303   -2.5752 H   0  0  0  0  0  0  0  0  0  0  0  0
   79.0664   11.2249  -10.2691 H   0  0  0  0  0  0  0  0  0  0  0  0
   74.0980   11.7831   -9.3339 H   0  0  0  0  0  0  0  0  0  0  0  0
   81.0091    8.8336   -2.7971 H   0  0  0  0  0  0  0  0  0  0  0  0
   82.4492    9.7887   -3.2875 H   0  0  0  0  0  0  0  0  0  0  0  0
   80.8230   10.5516   -3.2875 H   0  0  0  0  0  0  0  0  0  0  0  0
   74.9171    8.7180   -6.4161 H   0  0  0  0  0  0  0  0  0  0  0  0
   76.4719   12.5055   -9.2388 H   0  0  0  0  0  0  0  0  0  0  0  0
   79.9329   15.4203  -10.8157 H   0  0  0  0  0  0  0  0  0  0  0  0
   79.3176   15.8513   -8.4405 H   0  0  0  0  0  0  0  0  0  0  0  0
   76.4320    6.2348   -6.6832 H   0  0  0  0  0  0  0  0  0  0  0  0
   78.6830    4.1170   -2.0552 H   0  0  0  0  0  0  0  0  0  0  0  0
   80.8878    5.0651   -1.1242 H   0  0  0  0  0  0  0  0  0  0  0  0
   76.7356    6.4935   -1.0476 H   0  0  0  0  0  0  0  0  0  0  0  0
   76.4999    3.9736    0.1365 H   0  0  0  0  0  0  0  0  0  0  0  0
   77.0913    5.2023    1.6852 H   0  0  0  0  0  0  0  0  0  0  0  0
   77.5646    6.9056    1.3846 H   0  0  0  0  0  0  0  0  0  0  0  0
   74.6684    5.7509    2.7759 H   0  0  0  0  0  0  0  0  0  0  0  0
  1  4  1  0
  1 33  1  0
  1 19  1  0
  2 27  2  0
  2 15  1  0
  3 33  2  0
  3 21  1  0
  3 29  1  0
  4  8  1  0
  4 20  1  0
  5  6  1  0
  5 33  1  0
  6 34  1  0
  7 34  1  0
  7 36  1  0
  9 31  2  0
  9 30  1  0
 10 28  2  0
 10 11  1  0
 11 15  2  0
 11 26  1  0
 12 29  2  0
 12 14  1  0
 13 23  2  0
 13 16  1  0
 14 30  2  0
 16 25  2  0
 17 18  2  0
 18 19  1  0
 18 26  1  0
 19 21  2  0
 21 22  1  0
 22 24  2  0
 22 23  1  0
 24 26  1  0
 24 25  1  0
 27 28  1  0
 29 31  1  0
 30 32  1  0
 34 35  1  0
 36 38  1  0
 36 37  1  0
 38 39  1  0
 39 41  2  0
 39 40  1  0
  2 42  1  0
  4 43  1  0
  5 44  1  0
  5 45  1  0
  6 46  1  0
  6 47  1  0
  7 48  1  0
  7 49  1  0
  8 50  1  0
  8 51  1  0
  8 52  1  0
  9 53  1  0
 10 54  1  0
 12 55  1  0
 13 56  1  0
 14 57  1  0
 15 58  1  0
 16 59  1  0
 20 60  1  0
 20 61  1  0
 20 62  1  0
 23 63  1  0
 25 64  1  0
 27 65  1  0
 28 66  1  0
 31 67  1  0
 34 68  1  0
 35 69  1  0
 36 70  1  0
 37 71  1  0
 38 72  1  0
 38 73  1  0
 40 74  1  0
A    1
N1
A    2
C4
A    3
C5
A    4
C6
A    5
C7
A    6
C8
A    7
C10
A    8
C13
A    9
C15
A   10
C17
A   11
C20
A   12
C21
A   13
C22
A   14
C24
A   15
C26
A   16
C28
A   17
O1
A   18
C3
A   19
C2
A   20
C14
A   21
C1
A   22
C31
A   23
C25
A   24
C16
A   25
C19
A   26
N2
A   27
C23
A   28
C29
A   29
C27
A   30
C30
A   31
C18
A   32
F1
A   33
C12
A   34
C9
A   35
O4
A   36
C11
A   37
O3
A   38
C35
A   39
C36
A   40
O7
A   41
O6
M  END
