2Q6R_SF2_A_5001
     RDKit          3D

 47 50  0  0  0  0  0  0  0  0999 V2000
  -12.7490   14.3290  -13.1760 C   0  0  0  0  0  0  0  0  0  0  0  0
  -12.5380   15.7700  -13.1460 O   0  0  0  0  0  0  0  0  0  0  0  0
  -13.6280   16.4650  -12.7000 C   0  0  0  0  0  0  0  0  0  0  0  0
  -13.7780   16.7500  -11.3320 C   0  0  0  0  0  0  0  0  0  0  0  0
  -14.5780   16.9100  -13.6220 C   0  0  0  0  0  0  0  0  0  0  0  0
  -15.6870   17.6240  -13.1780 C   0  0  0  0  0  0  0  0  0  0  0  0
  -15.8300   17.8940  -11.8180 C   0  0  0  0  0  0  0  0  0  0  0  0
  -14.8900   17.4670  -10.8710 C   0  0  0  0  0  0  0  0  0  0  0  0
  -15.1010   17.7950   -9.3570 C   0  0  0  0  0  0  0  0  0  0  0  0
  -16.2230   18.7570   -9.2720 N   0  0  0  0  0  0  0  0  0  0  0  0
  -16.1290   20.0950   -9.2030 C   0  0  0  0  0  0  0  0  0  0  0  0
  -14.8460   20.9370   -9.1060 C   0  0  0  0  0  0  0  0  0  0  0  0
  -13.7610   20.3460   -8.9030 O   0  0  0  0  0  0  0  0  0  0  0  0
  -14.9490   22.1820   -9.1900 O   0  0  0  0  0  0  0  0  0  0  0  0
  -17.5110   18.3870   -9.3190 C   0  0  0  0  0  0  0  0  0  0  0  0
  -18.1450   17.1440   -9.4080 C   0  0  0  0  0  0  0  0  0  0  0  0
  -19.5370   17.0740   -9.4320 C   0  0  0  0  0  0  0  0  0  0  0  0
  -20.2990   18.2360   -9.3700 C   0  0  0  0  0  0  0  0  0  0  0  0
  -22.0230   18.1530   -9.3980 Cl  0  0  0  0  0  0  0  0  0  0  0  0
  -19.6720   19.4700   -9.2810 C   0  0  0  0  0  0  0  0  0  0  0  0
  -18.2860   19.5450   -9.2610 C   0  0  0  0  0  0  0  0  0  0  0  0
  -17.4170   20.6120   -9.1480 C   0  0  0  0  0  0  0  0  0  0  0  0
  -17.9100   22.3130   -9.1190 S   0  0  0  0  0  0  0  0  0  0  0  0
  -18.1870   23.0530   -7.5650 C   0  0  0  0  0  0  0  0  0  0  0  0
  -19.0770   22.5520   -6.6160 C   0  0  0  0  0  0  0  0  0  0  0  0
  -19.2530   23.2440   -5.4160 C   0  0  0  0  0  0  0  0  0  0  0  0
  -18.5690   24.4330   -5.1700 C   0  0  0  0  0  0  0  0  0  0  0  0
  -17.6970   24.9420   -6.1320 C   0  0  0  0  0  0  0  0  0  0  0  0
  -17.5210   24.2550   -7.3300 C   0  0  0  0  0  0  0  0  0  0  0  0
  -12.8052   13.9451  -12.1467 H   0  0  0  0  0  0  0  0  0  0  0  0
  -13.6892   14.1070  -13.7020 H   0  0  0  0  0  0  0  0  0  0  0  0
  -11.9119   13.8467  -13.7020 H   0  0  0  0  0  0  0  0  0  0  0  0
  -13.0157   16.4072  -10.6169 H   0  0  0  0  0  0  0  0  0  0  0  0
  -14.4503   16.6972  -14.6936 H   0  0  0  0  0  0  0  0  0  0  0  0
  -16.4450   17.9726  -13.8949 H   0  0  0  0  0  0  0  0  0  0  0  0
  -16.7092   18.4606  -11.4773 H   0  0  0  0  0  0  0  0  0  0  0  0
  -15.3481   16.8773   -8.8030 H   0  0  0  0  0  0  0  0  0  0  0  0
  -14.1867   18.2203   -8.9175 H   0  0  0  0  0  0  0  0  0  0  0  0
  -13.4541   20.1788   -7.9767 H   0  0  0  0  0  0  0  0  0  0  0  0
  -17.5462   16.2227   -9.4590 H   0  0  0  0  0  0  0  0  0  0  0  0
  -20.0350   16.0956   -9.5003 H   0  0  0  0  0  0  0  0  0  0  0  0
  -20.2732   20.3895   -9.2262 H   0  0  0  0  0  0  0  0  0  0  0  0
  -19.6336   21.6233   -6.8101 H   0  0  0  0  0  0  0  0  0  0  0  0
  -19.9403   22.8455   -4.6552 H   0  0  0  0  0  0  0  0  0  0  0  0
  -18.7164   24.9682   -4.2203 H   0  0  0  0  0  0  0  0  0  0  0  0
  -17.1523   25.8793   -5.9456 H   0  0  0  0  0  0  0  0  0  0  0  0
  -16.8496   24.6648   -8.0990 H   0  0  0  0  0  0  0  0  0  0  0  0
  1  2  1  0
  2  3  1  0
  3  5  2  0
  3  4  1  0
  4  8  2  0
  5  6  1  0
  6  7  2  0
  7  8  1  0
  8  9  1  0
  9 10  1  0
 10 15  1  0
 10 11  1  0
 11 22  2  0
 11 12  1  0
 12 14  2  0
 12 13  1  0
 15 16  2  0
 15 21  1  0
 16 17  1  0
 17 18  2  0
 18 19  1  0
 18 20  1  0
 20 21  2  0
 21 22  1  0
 22 23  1  0
 23 24  1  0
 24 29  1  0
 24 25  2  0
 25 26  1  0
 26 27  2  0
 27 28  1  0
 28 29  2  0
  1 30  1  0
  1 31  1  0
  1 32  1  0
  4 33  1  0
  5 34  1  0
  6 35  1  0
  7 36  1  0
  9 37  1  0
  9 38  1  0
 13 39  1  0
 16 40  1  0
 17 41  1  0
 20 42  1  0
 25 43  1  0
 26 44  1  0
 27 45  1  0
 28 46  1  0
 29 47  1  0
A    1
CAA
A    2
OAR
A    3
CAW
A    4
CAO
A    5
CAJ
A    6
CAH
A    7
CAI
A    8
CAV
A    9
CAQ
A   10
NBC
A   11
CAZ
A   12
CAT
A   13
OAB
A   14
OAC
A   15
CBB
A   16
CAN
A   17
CAM
A   18
CAU
A   19
CLAD
A   20
CAP
A   21
CBA
A   22
CAY
A   23
SAS
A   24
CAX
A   25
CAK
A   26
CAF
A   27
CAE
A   28
CAG
A   29
CAL
M  END
