2Q85_973_A_401
     RDKit          3D

 38 41  0  0  0  0  0  0  0  0999 V2000
    7.1540  -14.9410   11.4290 C   0  0  0  0  0  0  0  0  0  0  0  0
    7.8310  -13.7540   11.1770 C   0  0  0  0  0  0  0  0  0  0  0  0
    7.1180  -12.5910   10.8640 C   0  0  0  0  0  0  0  0  0  0  0  0
    5.6980  -12.5760   10.7930 C   0  0  0  0  0  0  0  0  0  0  0  0
    5.0270  -13.8090   11.0570 C   0  0  0  0  0  0  0  0  0  0  0  0
    5.7620  -14.9680   11.3710 C   0  0  0  0  0  0  0  0  0  0  0  0
    3.6260  -13.8790   11.0070 C   0  0  0  0  0  0  0  0  0  0  0  0
    2.8710  -12.7530   10.7000 C   0  0  0  0  0  0  0  0  0  0  0  0
    3.5020  -11.5410   10.4400 C   0  0  0  0  0  0  0  0  0  0  0  0
    4.9110  -11.4200   10.4810 C   0  0  0  0  0  0  0  0  0  0  0  0
    5.5360  -10.1050   10.1910 C   0  0  0  0  0  0  0  0  0  0  0  0
    4.9700   -8.9040   10.4240 C   0  0  0  0  0  0  0  0  0  0  0  0
    5.4900   -7.6110   10.1120 C   0  0  0  0  0  0  0  0  0  0  0  0
    4.6420   -6.6500   10.4880 C   0  0  0  0  0  0  0  0  0  0  0  0
    3.5060   -7.3940   11.0740 C   0  0  0  0  0  0  0  0  0  0  0  0
    2.4970   -6.8930   11.5450 O   0  0  0  0  0  0  0  0  0  0  0  0
    3.7290   -8.7440   11.0270 O   0  0  0  0  0  0  0  0  0  0  0  0
    4.7290   -5.1940   10.3790 C   0  0  0  0  0  0  0  0  0  0  0  0
    5.2850   -4.5780    9.2430 C   0  0  0  0  0  0  0  0  0  0  0  0
    5.3570   -3.1810    9.1480 C   0  0  0  0  0  0  0  0  0  0  0  0
    4.8680   -2.3880   10.1890 C   0  0  0  0  0  0  0  0  0  0  0  0
    4.3120   -2.9820   11.3210 C   0  0  0  0  0  0  0  0  0  0  0  0
    4.2420   -4.3760   11.4140 C   0  0  0  0  0  0  0  0  0  0  0  0
    4.9510   -0.6710   10.0850 Cl  0  0  0  0  0  0  0  0  0  0  0  0
    6.7070   -7.4890    9.5100 O   0  0  0  0  0  0  0  0  0  0  0  0
    7.7145  -15.8554   11.6732 H   0  0  0  0  0  0  0  0  0  0  0  0
    8.9297  -13.7283   11.2236 H   0  0  0  0  0  0  0  0  0  0  0  0
    7.6723  -11.6615   10.6672 H   0  0  0  0  0  0  0  0  0  0  0  0
    5.2295  -15.9089   11.5736 H   0  0  0  0  0  0  0  0  0  0  0  0
    3.1207  -14.8341   11.2127 H   0  0  0  0  0  0  0  0  0  0  0  0
    1.7737  -12.8205   10.6626 H   0  0  0  0  0  0  0  0  0  0  0  0
    2.8926  -10.6579   10.1974 H   0  0  0  0  0  0  0  0  0  0  0  0
    6.5436  -10.1112    9.7498 H   0  0  0  0  0  0  0  0  0  0  0  0
    5.6676   -5.1994    8.4199 H   0  0  0  0  0  0  0  0  0  0  0  0
    5.7973   -2.7107    8.2564 H   0  0  0  0  0  0  0  0  0  0  0  0
    3.9289   -2.3554   12.1399 H   0  0  0  0  0  0  0  0  0  0  0  0
    3.8000   -4.8386   12.3088 H   0  0  0  0  0  0  0  0  0  0  0  0
    7.5256   -7.4069   10.0606 H   0  0  0  0  0  0  0  0  0  0  0  0
  1  2  2  0
  1  6  1  0
  2  3  1  0
  3  4  2  0
  4 10  1  0
  4  5  1  0
  5  7  1  0
  5  6  2  0
  7  8  2  0
  8  9  1  0
  9 10  2  0
 10 11  1  0
 11 12  2  0
 12 13  1  0
 12 17  1  0
 13 25  1  0
 13 14  2  0
 14 18  1  0
 14 15  1  0
 15 17  1  0
 15 16  2  0
 18 19  2  0
 18 23  1  0
 19 20  1  0
 20 21  2  0
 21 24  1  0
 21 22  1  0
 22 23  2  0
  1 26  1  0
  2 27  1  0
  3 28  1  0
  6 29  1  0
  7 30  1  0
  8 31  1  0
  9 32  1  0
 11 33  1  0
 19 34  1  0
 20 35  1  0
 22 36  1  0
 23 37  1  0
 25 38  1  0
A    1
C1
A    2
C2
A    3
C3
A    4
C4
A    5
C5
A    6
C6
A    7
C7
A    8
C8
A    9
C9
A   10
C10
A   11
C11
A   12
C12
A   13
C13
A   14
C14
A   15
C15
A   16
O1
A   17
O2
A   18
C16
A   19
C17
A   20
C18
A   21
C19
A   22
C20
A   23
C21
A   24
CL1
A   25
O3
M  END
