1ZAJ_M2P_A_3001
     RDKit          3D

 36 35  0  0  0  0  0  0  0  0999 V2000
    5.8470  -30.5860   47.9390 C   0  0  0  0  0  0  0  0  0  0  0  0
    2.5090  -30.2410   51.4720 C   0  0  0  0  0  0  0  0  0  0  0  0
    1.0680  -30.7010   51.6990 C   0  0  0  0  0  0  0  0  0  0  0  0
    2.8050  -30.2320   49.9720 C   0  0  0  0  0  0  0  0  0  0  0  0
    4.2210  -29.7370   49.6670 C   0  0  0  0  0  0  0  0  0  0  0  0
    4.5250  -29.8520   48.1720 C   0  0  0  0  0  0  0  0  0  0  0  0
    8.1140  -32.4350   47.5370 O   0  0  0  0  0  0  0  0  0  0  0  0
    6.7340  -33.0720   48.0710 P   0  0  0  0  0  0  0  0  0  0  0  0
    5.9510  -33.6140   46.7720 O   0  0  0  0  0  0  0  0  0  0  0  0
    6.9460  -34.1180   49.0960 O   0  0  0  0  0  0  0  0  0  0  0  0
    5.8480  -31.8440   48.6190 O   0  0  0  0  0  0  0  0  0  0  0  0
    3.4670  -30.5500   47.5070 O   0  0  0  0  0  0  0  0  0  0  0  0
    4.3360  -28.3640   50.0530 O   0  0  0  0  0  0  0  0  0  0  0  0
    1.8460  -29.3950   49.3190 O   0  0  0  0  0  0  0  0  0  0  0  0
    3.3980  -31.1450   52.1330 O   0  0  0  0  0  0  0  0  0  0  0  0
    0.7020  -30.5920   53.0750 O   0  0  0  0  0  0  0  0  0  0  0  0
   -0.7800  -31.0410   53.5080 P   0  0  0  0  0  0  0  0  0  0  0  0
   -0.8750  -30.7350   55.0850 O   0  0  0  0  0  0  0  0  0  0  0  0
   -0.8430  -32.6390   53.3290 O   0  0  0  0  0  0  0  0  0  0  0  0
   -1.8200  -30.3380   52.7250 O   0  0  0  0  0  0  0  0  0  0  0  0
    5.9808  -30.7573   46.8607 H   0  0  0  0  0  0  0  0  0  0  0  0
    6.6699  -29.9696   48.3300 H   0  0  0  0  0  0  0  0  0  0  0  0
    2.6475  -29.2276   51.8768 H   0  0  0  0  0  0  0  0  0  0  0  0
    0.3925  -30.0751   51.0974 H   0  0  0  0  0  0  0  0  0  0  0  0
    0.9880  -31.7565   51.3998 H   0  0  0  0  0  0  0  0  0  0  0  0
    2.7351  -31.2647   49.5997 H   0  0  0  0  0  0  0  0  0  0  0  0
    4.9351  -30.3572   50.2287 H   0  0  0  0  0  0  0  0  0  0  0  0
    4.6091  -28.8350   47.7613 H   0  0  0  0  0  0  0  0  0  0  0  0
    5.1716  -34.1535   47.0577 H   0  0  0  0  0  0  0  0  0  0  0  0
    6.8649  -33.7176   49.9978 H   0  0  0  0  0  0  0  0  0  0  0  0
    2.8611  -30.9497   48.1802 H   0  0  0  0  0  0  0  0  0  0  0  0
    4.3415  -28.2983   51.0408 H   0  0  0  0  0  0  0  0  0  0  0  0
    1.3038  -28.9218   49.9989 H   0  0  0  0  0  0  0  0  0  0  0  0
    3.3006  -31.0460   53.1132 H   0  0  0  0  0  0  0  0  0  0  0  0
   -0.6233  -31.5458   55.5942 H   0  0  0  0  0  0  0  0  0  0  0  0
   -0.8600  -33.0704   54.2199 H   0  0  0  0  0  0  0  0  0  0  0  0
  1  6  1  0
  1 11  1  0
  2  3  1  0
  2  4  1  0
  2 15  1  0
  3 16  1  0
  4  5  1  0
  4 14  1  0
  5  6  1  0
  5 13  1  0
  6 12  1  0
  7  8  2  0
  8  9  1  0
  8 10  1  0
  8 11  1  0
 16 17  1  0
 17 18  1  0
 17 19  1  0
 17 20  2  0
  1 21  1  0
  1 22  1  0
  2 23  1  0
  3 24  1  0
  3 25  1  0
  4 26  1  0
  5 27  1  0
  6 28  1  0
  9 29  1  0
 10 30  1  0
 12 31  1  0
 13 32  1  0
 14 33  1  0
 15 34  1  0
 18 35  1  0
 19 36  1  0
A    1
C1
A    2
C5
A    3
C6
A    4
C4
A    5
C3
A    6
C2
A    7
O12
A    8
P1
A    9
O13
A   10
O11
A   11
O1
A   12
O2
A   13
O3
A   14
O4
A   15
O5
A   16
O6
A   17
P6
A   18
O62
A   19
O63
A   20
O61
M  END
