2QBP_527_A_800
     RDKit          3D

 62 65  0  0  0  0  0  0  0  0999 V2000
   44.5640   14.2390    0.6740 S   0  0  0  0  0  0  0  0  0  0  0  0
   44.7660   15.6490    1.7560 C   0  0  0  0  0  0  0  0  0  0  0  0
   45.6900   15.3960    2.6670 C   0  0  0  0  0  0  0  0  0  0  0  0
   46.2550   14.0410    2.5740 C   0  0  0  0  0  0  0  0  0  0  0  0
   45.8210   13.2870    1.5520 C   0  0  0  0  0  0  0  0  0  0  0  0
   44.0600   16.8790    1.4690 C   0  0  0  0  0  0  0  0  0  0  0  0
   43.5980   16.8930    0.3080 O   0  0  0  0  0  0  0  0  0  0  0  0
   43.9340   17.8230    2.2800 O   0  0  0  0  0  0  0  0  0  0  0  0
   46.1250   11.9050    1.1290 C   0  0  0  0  0  0  0  0  0  0  0  0
   47.4420   11.3150    1.3100 C   0  0  0  0  0  0  0  0  0  0  0  0
   47.6400    9.9460    0.9420 C   0  0  0  0  0  0  0  0  0  0  0  0
   46.5390    9.1680    0.3780 C   0  0  0  0  0  0  0  0  0  0  0  0
   45.2230    9.7500    0.1790 C   0  0  0  0  0  0  0  0  0  0  0  0
   45.0420   11.1270    0.5390 C   0  0  0  0  0  0  0  0  0  0  0  0
   47.3890   13.4840    3.9420 Br  0  0  0  0  0  0  0  0  0  0  0  0
   45.9800   16.2840    3.6070 O   0  0  0  0  0  0  0  0  0  0  0  0
   47.1930   16.9880    3.4380 C   0  0  0  0  0  0  0  0  0  0  0  0
   47.4320   17.6890    4.7000 C   0  0  0  0  0  0  0  0  0  0  0  0
   48.5780   18.1510    4.8510 O   0  0  0  0  0  0  0  0  0  0  0  0
   46.5110   17.7930    5.5420 O   0  0  0  0  0  0  0  0  0  0  0  0
   48.9040    9.4960    1.1630 N   0  0  0  0  0  0  0  0  0  0  0  0
   49.1900    8.1380    1.5130 C   0  0  0  0  0  0  0  0  0  0  0  0
   50.7090    7.9840    1.5980 C   0  0  0  0  0  0  0  0  0  0  0  0
   51.1460    6.6380    2.1280 C   0  0  0  0  0  0  0  0  0  0  0  0
   50.3910    6.3890    3.3570 N   0  0  0  0  0  0  0  0  0  0  0  0
   48.9270    6.4400    3.3730 C   0  0  0  0  0  0  0  0  0  0  0  0
   48.4990    7.7770    2.8260 C   0  0  0  0  0  0  0  0  0  0  0  0
   51.1020    5.4460    4.5910 S   0  0  0  0  0  0  0  0  0  0  0  0
   50.2210    5.5670    5.7300 O   0  0  0  0  0  0  0  0  0  0  0  0
   52.4790    5.8920    4.6940 O   0  0  0  0  0  0  0  0  0  0  0  0
   50.8960    3.7760    3.9330 C   0  0  0  0  0  0  0  0  0  0  0  0
   51.2570    2.7890    5.0020 C   0  0  0  0  0  0  0  0  0  0  0  0
   52.6630    2.4580    5.1260 C   0  0  0  0  0  0  0  0  0  0  0  0
   53.0480    1.5950    6.2220 C   0  0  0  0  0  0  0  0  0  0  0  0
   52.0250    1.0640    7.1210 C   0  0  0  0  0  0  0  0  0  0  0  0
   50.6230    1.4160    6.9910 C   0  0  0  0  0  0  0  0  0  0  0  0
   50.2150    2.2910    5.9050 C   0  0  0  0  0  0  0  0  0  0  0  0
   43.9577   17.6456    3.2537 H   0  0  0  0  0  0  0  0  0  0  0  0
   48.2705   11.9098    1.7220 H   0  0  0  0  0  0  0  0  0  0  0  0
   46.7106    8.1182    0.0979 H   0  0  0  0  0  0  0  0  0  0  0  0
   44.3942    9.1558   -0.2333 H   0  0  0  0  0  0  0  0  0  0  0  0
   44.0666   11.6054    0.3665 H   0  0  0  0  0  0  0  0  0  0  0  0
   48.0151   16.2879    3.2281 H   0  0  0  0  0  0  0  0  0  0  0  0
   47.1374   17.6890    2.5921 H   0  0  0  0  0  0  0  0  0  0  0  0
   46.7198   17.7694    6.5094 H   0  0  0  0  0  0  0  0  0  0  0  0
   49.6872   10.1592    1.0750 H   0  0  0  0  0  0  0  0  0  0  0  0
   48.8032    7.4442    0.7521 H   0  0  0  0  0  0  0  0  0  0  0  0
   51.1299    8.1155    0.5903 H   0  0  0  0  0  0  0  0  0  0  0  0
   51.0741    8.7453    2.3031 H   0  0  0  0  0  0  0  0  0  0  0  0
   50.9298    5.8536    1.3878 H   0  0  0  0  0  0  0  0  0  0  0  0
   52.2279    6.6299    2.3268 H   0  0  0  0  0  0  0  0  0  0  0  0
   48.5190    5.6330    2.7467 H   0  0  0  0  0  0  0  0  0  0  0  0
   48.5525    6.3106    4.3991 H   0  0  0  0  0  0  0  0  0  0  0  0
   48.7359    8.5515    3.5704 H   0  0  0  0  0  0  0  0  0  0  0  0
   47.4198    7.7168    2.6220 H   0  0  0  0  0  0  0  0  0  0  0  0
   49.8500    3.6250    3.6280 H   0  0  0  0  0  0  0  0  0  0  0  0
   51.5478    3.6354    3.0582 H   0  0  0  0  0  0  0  0  0  0  0  0
   53.4072    2.8472    4.4156 H   0  0  0  0  0  0  0  0  0  0  0  0
   54.1065    1.3396    6.3780 H   0  0  0  0  0  0  0  0  0  0  0  0
   52.3279    0.3746    7.9228 H   0  0  0  0  0  0  0  0  0  0  0  0
   49.8809    1.0265    7.7034 H   0  0  0  0  0  0  0  0  0  0  0  0
   49.1602    2.5702    5.7652 H   0  0  0  0  0  0  0  0  0  0  0  0
  1  2  1  0
  1  5  1  0
  2  3  2  0
  2  6  1  0
  3  4  1  0
  3 16  1  0
  4  5  2  0
  4 15  1  0
  5  9  1  0
  6  7  2  0
  6  8  1  0
  9 10  2  0
  9 14  1  0
 10 11  1  0
 11 12  2  0
 11 21  1  0
 12 13  1  0
 13 14  2  0
 16 17  1  0
 17 18  1  0
 18 19  2  0
 18 20  1  0
 21 22  1  0
 22 23  1  0
 22 27  1  0
 23 24  1  0
 24 25  1  0
 25 26  1  0
 25 28  1  0
 26 27  1  0
 28 29  2  0
 28 30  2  0
 28 31  1  0
 31 32  1  0
 32 33  2  0
 32 37  1  0
 33 34  1  0
 34 35  2  0
 35 36  1  0
 36 37  2  0
  8 38  1  0
 10 39  1  0
 12 40  1  0
 13 41  1  0
 14 42  1  0
 17 43  1  0
 17 44  1  0
 20 45  1  0
 21 46  1  0
 22 47  1  0
 23 48  1  0
 23 49  1  0
 24 50  1  0
 24 51  1  0
 26 52  1  0
 26 53  1  0
 27 54  1  0
 27 55  1  0
 31 56  1  0
 31 57  1  0
 33 58  1  0
 34 59  1  0
 35 60  1  0
 36 61  1  0
 37 62  1  0
A    1
S1
A    2
C2
A    3
C3
A    4
C4
A    5
C5
A    6
C6
A    7
O7
A    8
O8
A    9
C9
A   10
C10
A   11
C11
A   12
C12
A   13
C13
A   14
C14
A   15
BR19
A   16
O20
A   17
C21
A   18
C22
A   19
O25
A   20
O26
A   21
N29
A   22
C30
A   23
C31
A   24
C32
A   25
N33
A   26
C34
A   27
C35
A   28
S46
A   29
O47
A   30
O48
A   31
C49
A   32
C50
A   33
C53
A   34
C54
A   35
C55
A   36
C56
A   37
C57
M  END
