2QBQ_4B3_A_800
     RDKit          3D

 59 61  0  0  0  0  0  0  0  0999 V2000
   44.6110   14.0460    0.5060 S   0  0  0  0  0  0  0  0  0  0  0  0
   44.7660   15.4390    1.5570 C   0  0  0  0  0  0  0  0  0  0  0  0
   45.6230   15.1800    2.5630 C   0  0  0  0  0  0  0  0  0  0  0  0
   46.1880   13.8140    2.5260 C   0  0  0  0  0  0  0  0  0  0  0  0
   45.7320   13.0860    1.4880 C   0  0  0  0  0  0  0  0  0  0  0  0
   44.0300   16.6790    1.2250 C   0  0  0  0  0  0  0  0  0  0  0  0
   43.5770   16.7220    0.0620 O   0  0  0  0  0  0  0  0  0  0  0  0
   43.8610   17.6020    2.0480 O   0  0  0  0  0  0  0  0  0  0  0  0
   46.0430   11.6520    1.1530 C   0  0  0  0  0  0  0  0  0  0  0  0
   47.3940   11.1220    1.2180 C   0  0  0  0  0  0  0  0  0  0  0  0
   47.6340    9.7720    0.8020 C   0  0  0  0  0  0  0  0  0  0  0  0
   46.5410    8.9630    0.2800 C   0  0  0  0  0  0  0  0  0  0  0  0
   45.1890    9.4480    0.2030 C   0  0  0  0  0  0  0  0  0  0  0  0
   44.9770   10.8000    0.6540 C   0  0  0  0  0  0  0  0  0  0  0  0
   47.4150   13.2710    3.8780 Br  0  0  0  0  0  0  0  0  0  0  0  0
   45.9150   16.0160    3.5510 O   0  0  0  0  0  0  0  0  0  0  0  0
   47.0570   16.8320    3.3680 C   0  0  0  0  0  0  0  0  0  0  0  0
   47.4380   17.4450    4.7040 C   0  0  0  0  0  0  0  0  0  0  0  0
   46.6490   17.4000    5.6750 O   0  0  0  0  0  0  0  0  0  0  0  0
   48.5590   17.9810    4.7670 O   0  0  0  0  0  0  0  0  0  0  0  0
   48.9250    9.3140    0.9620 N   0  0  0  0  0  0  0  0  0  0  0  0
   49.2920    7.9430    1.3340 C   0  0  0  0  0  0  0  0  0  0  0  0
   50.8110    7.7520    1.2640 C   0  0  0  0  0  0  0  0  0  0  0  0
   51.2020    6.3090    1.6550 C   0  0  0  0  0  0  0  0  0  0  0  0
   50.5160    5.8480    2.9610 C   0  0  0  0  0  0  0  0  0  0  0  0
   49.0100    6.1590    3.0880 C   0  0  0  0  0  0  0  0  0  0  0  0
   48.7280    7.6260    2.7220 C   0  0  0  0  0  0  0  0  0  0  0  0
   52.7280    6.2000    1.8710 C   0  0  0  0  0  0  0  0  0  0  0  0
   50.8260    5.3220    0.5100 C   0  0  0  0  0  0  0  0  0  0  0  0
   48.7000    5.9580    4.5790 C   0  0  0  0  0  0  0  0  0  0  0  0
   48.0950    5.2090    2.2450 C   0  0  0  0  0  0  0  0  0  0  0  0
   43.8958   17.4120    3.0190 H   0  0  0  0  0  0  0  0  0  0  0  0
   48.2217   11.7487    1.5817 H   0  0  0  0  0  0  0  0  0  0  0  0
   46.7577    7.9424   -0.0686 H   0  0  0  0  0  0  0  0  0  0  0  0
   44.3665    8.8244   -0.1773 H   0  0  0  0  0  0  0  0  0  0  0  0
   43.9560   11.2079    0.6187 H   0  0  0  0  0  0  0  0  0  0  0  0
   47.8906   16.2222    2.9896 H   0  0  0  0  0  0  0  0  0  0  0  0
   46.8362   17.6272    2.6407 H   0  0  0  0  0  0  0  0  0  0  0  0
   47.0009   17.4201    6.6001 H   0  0  0  0  0  0  0  0  0  0  0  0
   49.6903    9.9860    0.8086 H   0  0  0  0  0  0  0  0  0  0  0  0
   48.8527    7.2325    0.6183 H   0  0  0  0  0  0  0  0  0  0  0  0
   51.1526    7.9526    0.2378 H   0  0  0  0  0  0  0  0  0  0  0  0
   51.2866    8.4493    1.9695 H   0  0  0  0  0  0  0  0  0  0  0  0
   50.6409    4.7579    3.0386 H   0  0  0  0  0  0  0  0  0  0  0  0
   51.0026    6.4189    3.7655 H   0  0  0  0  0  0  0  0  0  0  0  0
   49.2021    8.2835    3.4656 H   0  0  0  0  0  0  0  0  0  0  0  0
   47.6405    7.7910    2.7136 H   0  0  0  0  0  0  0  0  0  0  0  0
   52.9455    6.1845    2.9492 H   0  0  0  0  0  0  0  0  0  0  0  0
   53.0985    5.2731    1.4088 H   0  0  0  0  0  0  0  0  0  0  0  0
   53.2264    7.0648    1.4088 H   0  0  0  0  0  0  0  0  0  0  0  0
   50.4661    4.3773    0.9437 H   0  0  0  0  0  0  0  0  0  0  0  0
   50.0339    5.7656   -0.1111 H   0  0  0  0  0  0  0  0  0  0  0  0
   51.7125    5.1261   -0.1111 H   0  0  0  0  0  0  0  0  0  0  0  0
   49.4706    6.4577    5.1843 H   0  0  0  0  0  0  0  0  0  0  0  0
   47.7151    6.3898    4.8102 H   0  0  0  0  0  0  0  0  0  0  0  0
   48.6923    4.8826    4.8102 H   0  0  0  0  0  0  0  0  0  0  0  0
   47.4932    4.5842    2.9214 H   0  0  0  0  0  0  0  0  0  0  0  0
   47.4275    5.8107    1.6106 H   0  0  0  0  0  0  0  0  0  0  0  0
   48.7213    4.5645    1.6106 H   0  0  0  0  0  0  0  0  0  0  0  0
  1  2  1  0
  1  5  1  0
  2  3  2  0
  2  6  1  0
  3  4  1  0
  3 16  1  0
  4  5  2  0
  4 15  1  0
  5  9  1  0
  6  7  2  0
  6  8  1  0
  9 10  2  0
  9 14  1  0
 10 11  1  0
 11 12  2  0
 11 21  1  0
 12 13  1  0
 13 14  2  0
 16 17  1  0
 17 18  1  0
 18 19  1  0
 18 20  2  0
 21 22  1  0
 22 23  1  0
 22 27  1  0
 23 24  1  0
 24 25  1  0
 24 28  1  0
 24 29  1  0
 25 26  1  0
 26 27  1  0
 26 30  1  0
 26 31  1  0
  8 32  1  0
 10 33  1  0
 12 34  1  0
 13 35  1  0
 14 36  1  0
 17 37  1  0
 17 38  1  0
 19 39  1  0
 21 40  1  0
 22 41  1  0
 23 42  1  0
 23 43  1  0
 25 44  1  0
 25 45  1  0
 27 46  1  0
 27 47  1  0
 28 48  1  0
 28 49  1  0
 28 50  1  0
 29 51  1  0
 29 52  1  0
 29 53  1  0
 30 54  1  0
 30 55  1  0
 30 56  1  0
 31 57  1  0
 31 58  1  0
 31 59  1  0
A    1
S1
A    2
C2
A    3
C3
A    4
C4
A    5
C5
A    6
C6
A    7
O7
A    8
O8
A    9
C9
A   10
C10
A   11
C11
A   12
C12
A   13
C13
A   14
C14
A   15
BR1
A   16
O20
A   17
C21
A   18
C22
A   19
O25
A   20
O26
A   21
N27
A   22
C28
A   23
C30
A   24
C31
A   25
C32
A   26
C33
A   27
C34
A   28
C42
A   29
C46
A   30
C50
A   31
C54
M  END
