2QBR_910_A_800
     RDKit          3D

 44 46  0  0  0  0  0  0  0  0999 V2000
   44.9240   14.3230    0.6640 S   0  0  0  0  0  0  0  0  0  0  0  0
   45.0960   15.6460    1.7300 C   0  0  0  0  0  0  0  0  0  0  0  0
   45.9700   15.2890    2.7910 C   0  0  0  0  0  0  0  0  0  0  0  0
   46.4440   13.9560    2.6530 C   0  0  0  0  0  0  0  0  0  0  0  0
   45.9450   13.2820    1.5090 C   0  0  0  0  0  0  0  0  0  0  0  0
   44.4140   16.8590    1.4850 C   0  0  0  0  0  0  0  0  0  0  0  0
   44.4470   17.7800    2.2990 O   0  0  0  0  0  0  0  0  0  0  0  0
   43.7890   16.9570    0.4240 O   0  0  0  0  0  0  0  0  0  0  0  0
   46.2010   11.8870    1.0260 C   0  0  0  0  0  0  0  0  0  0  0  0
   47.5180   11.3150    1.0600 C   0  0  0  0  0  0  0  0  0  0  0  0
   47.7370    9.9830    0.6010 C   0  0  0  0  0  0  0  0  0  0  0  0
   46.6290    9.2030    0.0970 C   0  0  0  0  0  0  0  0  0  0  0  0
   45.3100    9.7660    0.0560 C   0  0  0  0  0  0  0  0  0  0  0  0
   45.1080   11.1050    0.5240 C   0  0  0  0  0  0  0  0  0  0  0  0
   47.6320   13.1870    3.9130 Br  0  0  0  0  0  0  0  0  0  0  0  0
   46.3660   16.1140    3.9000 O   0  0  0  0  0  0  0  0  0  0  0  0
   47.5820   16.8460    3.7100 C   0  0  0  0  0  0  0  0  0  0  0  0
   47.9420   17.5920    4.9940 C   0  0  0  0  0  0  0  0  0  0  0  0
   47.1630   17.5430    5.9630 O   0  0  0  0  0  0  0  0  0  0  0  0
   49.0030   18.2220    5.0270 O   0  0  0  0  0  0  0  0  0  0  0  0
   49.0320    9.5000    0.6690 N   0  0  0  0  0  0  0  0  0  0  0  0
   49.4040    8.0820    0.8060 C   0  0  0  0  0  0  0  0  0  0  0  0
   49.4490    7.6120    2.2450 C   0  0  0  0  0  0  0  0  0  0  0  0
   48.2330    7.1950    2.8950 C   0  0  0  0  0  0  0  0  0  0  0  0
   48.2680    6.7450    4.2530 C   0  0  0  0  0  0  0  0  0  0  0  0
   49.5260    6.7190    4.9440 C   0  0  0  0  0  0  0  0  0  0  0  0
   50.7460    7.1350    4.3000 C   0  0  0  0  0  0  0  0  0  0  0  0
   50.7060    7.5850    2.9370 C   0  0  0  0  0  0  0  0  0  0  0  0
   44.4400   17.5836    3.2693 H   0  0  0  0  0  0  0  0  0  0  0  0
   48.3622   11.9077    1.4422 H   0  0  0  0  0  0  0  0  0  0  0  0
   46.7977    8.1749   -0.2560 H   0  0  0  0  0  0  0  0  0  0  0  0
   44.4647    9.1772   -0.3298 H   0  0  0  0  0  0  0  0  0  0  0  0
   44.0983   11.5406    0.4980 H   0  0  0  0  0  0  0  0  0  0  0  0
   48.3925   16.1478    3.4536 H   0  0  0  0  0  0  0  0  0  0  0  0
   47.4461   17.5712    2.8941 H   0  0  0  0  0  0  0  0  0  0  0  0
   47.5195   17.5654    6.8863 H   0  0  0  0  0  0  0  0  0  0  0  0
   49.7972   10.1877    0.6198 H   0  0  0  0  0  0  0  0  0  0  0  0
   48.6664    7.4732    0.2626 H   0  0  0  0  0  0  0  0  0  0  0  0
   50.4177    7.9693    0.3941 H   0  0  0  0  0  0  0  0  0  0  0  0
   47.2789    7.2224    2.3483 H   0  0  0  0  0  0  0  0  0  0  0  0
   47.3456    6.4241    4.7593 H   0  0  0  0  0  0  0  0  0  0  0  0
   49.5593    6.3740    5.9880 H   0  0  0  0  0  0  0  0  0  0  0  0
   51.6996    7.1081    4.8477 H   0  0  0  0  0  0  0  0  0  0  0  0
   51.6278    7.9052    2.4293 H   0  0  0  0  0  0  0  0  0  0  0  0
  1  2  1  0
  1  5  1  0
  2  3  2  0
  2  6  1  0
  3  4  1  0
  3 16  1  0
  4  5  2  0
  4 15  1  0
  5  9  1  0
  6  7  1  0
  6  8  2  0
  9 10  2  0
  9 14  1  0
 10 11  1  0
 11 12  2  0
 11 21  1  0
 12 13  1  0
 13 14  2  0
 16 17  1  0
 17 18  1  0
 18 19  1  0
 18 20  2  0
 21 22  1  0
 22 23  1  0
 23 24  2  0
 23 28  1  0
 24 25  1  0
 25 26  2  0
 26 27  1  0
 27 28  2  0
  7 29  1  0
 10 30  1  0
 12 31  1  0
 13 32  1  0
 14 33  1  0
 17 34  1  0
 17 35  1  0
 19 36  1  0
 21 37  1  0
 22 38  1  0
 22 39  1  0
 24 40  1  0
 25 41  1  0
 26 42  1  0
 27 43  1  0
 28 44  1  0
A    1
S1
A    2
C2
A    3
C3
A    4
C4
A    5
C5
A    6
C6
A    7
O7
A    8
O8
A    9
C9
A   10
C10
A   11
C11
A   12
C12
A   13
C13
A   14
C14
A   15
BR19
A   16
O20
A   17
C21
A   18
C22
A   19
O25
A   20
O26
A   21
N29
A   22
C30
A   23
C31
A   24
C34
A   25
C35
A   26
C36
A   27
C37
A   28
C38
M  END
