2BVC_P3S_A_500
     RDKit          3D

 28 27  0  0  0  0  0  0  0  0999 V2000
  -22.5380   84.1620   22.0620 O   0  0  0  0  0  0  0  0  0  0  0  0
  -23.4500   82.9670   21.9820 P   0  0  0  0  0  0  0  0  0  0  0  0
  -22.9310   81.8260   21.1490 O   0  0  0  0  0  0  0  0  0  0  0  0
  -24.8810   83.3480   21.6580 O   0  0  0  0  0  0  0  0  0  0  0  0
  -23.5070   82.2620   23.5100 N   0  0  0  0  0  0  0  0  0  0  0  0
  -23.2510   83.0150   24.8280 S   0  0  0  0  0  0  0  0  0  0  0  0
  -23.9890   84.2390   25.1210 O   0  0  0  0  0  0  0  0  0  0  0  0
  -21.5220   83.3580   24.8960 C   0  0  0  0  0  0  0  0  0  0  0  0
  -23.5290   81.8890   26.1960 C   0  0  0  0  0  0  0  0  0  0  0  0
  -24.9770   81.4160   26.3090 C   0  0  0  0  0  0  0  0  0  0  0  0
  -25.2060   80.5410   27.5400 C   0  0  0  0  0  0  0  0  0  0  0  0
  -24.3280   79.3830   27.4840 N   0  0  0  0  0  0  0  0  0  0  0  0
  -26.6310   80.0520   27.5980 C   0  0  0  0  0  0  0  0  0  0  0  0
  -27.4790   80.4810   26.7840 O   0  0  0  0  0  0  0  0  0  0  0  0
  -26.9200   79.2110   28.4720 O   0  0  0  0  0  0  0  0  0  0  0  0
  -22.3682   84.3845   23.0116 H   0  0  0  0  0  0  0  0  0  0  0  0
  -25.3853   83.4823   22.4993 H   0  0  0  0  0  0  0  0  0  0  0  0
  -21.2018   83.4215   25.9465 H   0  0  0  0  0  0  0  0  0  0  0  0
  -20.9682   82.5522   24.3920 H   0  0  0  0  0  0  0  0  0  0  0  0
  -21.3178   84.3142   24.3920 H   0  0  0  0  0  0  0  0  0  0  0  0
  -22.8844   81.0083   26.0590 H   0  0  0  0  0  0  0  0  0  0  0  0
  -23.2939   82.4372   27.1202 H   0  0  0  0  0  0  0  0  0  0  0  0
  -25.6329   82.2967   26.3739 H   0  0  0  0  0  0  0  0  0  0  0  0
  -25.2041   80.8110   25.4188 H   0  0  0  0  0  0  0  0  0  0  0  0
  -24.9939   81.1478   28.4327 H   0  0  0  0  0  0  0  0  0  0  0  0
  -24.0981   79.0798   28.4412 H   0  0  0  0  0  0  0  0  0  0  0  0
  -24.8022   78.6164   26.9856 H   0  0  0  0  0  0  0  0  0  0  0  0
  -28.3121   80.9025   27.1131 H   0  0  0  0  0  0  0  0  0  0  0  0
  1  2  1  0
  2  3  2  0
  2  4  1  0
  2  5  1  0
  5  6  2  0
  6  7  2  0
  6  8  1  0
  6  9  1  0
  9 10  1  0
 10 11  1  0
 11 12  1  0
 11 13  1  0
 13 14  1  0
 13 15  2  0
  1 16  1  0
  4 17  1  0
  8 18  1  0
  8 19  1  0
  8 20  1  0
  9 21  1  0
  9 22  1  0
 10 23  1  0
 10 24  1  0
 11 25  1  0
 12 26  1  0
 12 27  1  0
 14 28  1  0
A    1
O3A
A    2
PA
A    3
O1A
A    4
O2A
A    5
NE
A    6
SD
A    7
OE
A    8
CE
A    9
CG
A   10
CB
A   11
CA
A   12
N
A   13
C
A   14
OT
A   15
O
M  END
