2QCF_5FU_A_501
     RDKit          3D

 34 35  0  0  0  0  0  0  0  0999 V2000
   16.3060    8.7520   33.7230 F   0  0  0  0  0  0  0  0  0  0  0  0
   15.9800    9.2210   34.9890 C   0  0  0  0  0  0  0  0  0  0  0  0
   16.9390    9.4440   35.9280 C   0  0  0  0  0  0  0  0  0  0  0  0
   18.1720    9.1820   35.7460 O   0  0  0  0  0  0  0  0  0  0  0  0
   16.5800    9.8720   37.1420 N   0  0  0  0  0  0  0  0  0  0  0  0
   15.2840   10.1580   37.4230 C   0  0  0  0  0  0  0  0  0  0  0  0
   14.9760   10.5570   38.5550 O   0  0  0  0  0  0  0  0  0  0  0  0
   14.6790    9.5550   35.2410 C   0  0  0  0  0  0  0  0  0  0  0  0
   14.3380    9.9890   36.4470 N   0  0  0  0  0  0  0  0  0  0  0  0
   12.9200   10.2800   36.6940 C   0  0  0  0  0  0  0  0  0  0  0  0
   12.7930   11.6730   37.0280 O   0  0  0  0  0  0  0  0  0  0  0  0
   12.2680    9.5120   37.8100 C   0  0  0  0  0  0  0  0  0  0  0  0
   11.6420    8.3250   37.3530 O   0  0  0  0  0  0  0  0  0  0  0  0
   11.2490   10.4610   38.3510 C   0  0  0  0  0  0  0  0  0  0  0  0
   10.0380   10.3420   37.6040 O   0  0  0  0  0  0  0  0  0  0  0  0
   11.8760   11.8080   38.1280 C   0  0  0  0  0  0  0  0  0  0  0  0
   12.6580   12.2880   39.3330 C   0  0  0  0  0  0  0  0  0  0  0  0
   11.6870   12.5960   40.3270 O   0  0  0  0  0  0  0  0  0  0  0  0
   12.0870   13.2910   41.7190 P   0  0  0  0  0  0  0  0  0  0  0  0
   10.8150   13.1480   42.4880 O   0  0  0  0  0  0  0  0  0  0  0  0
   13.2260   12.5200   42.3150 O   0  0  0  0  0  0  0  0  0  0  0  0
   12.3990   14.7290   41.4060 O   0  0  0  0  0  0  0  0  0  0  0  0
   17.2962    9.9862   37.8734 H   0  0  0  0  0  0  0  0  0  0  0  0
   13.9204    9.4646   34.4496 H   0  0  0  0  0  0  0  0  0  0  0  0
   12.4097    9.9813   35.7665 H   0  0  0  0  0  0  0  0  0  0  0  0
   13.0035    9.1829   38.5588 H   0  0  0  0  0  0  0  0  0  0  0  0
   11.3559    7.7825   38.1302 H   0  0  0  0  0  0  0  0  0  0  0  0
   10.9927   10.2795   39.4052 H   0  0  0  0  0  0  0  0  0  0  0  0
    9.2721   10.2667   38.2268 H   0  0  0  0  0  0  0  0  0  0  0  0
   11.0770   12.5386   37.9335 H   0  0  0  0  0  0  0  0  0  0  0  0
   13.3347   11.4978   39.6902 H   0  0  0  0  0  0  0  0  0  0  0  0
   13.2805   13.1618   39.0902 H   0  0  0  0  0  0  0  0  0  0  0  0
   13.1694   12.5583   43.3026 H   0  0  0  0  0  0  0  0  0  0  0  0
   12.5086   15.2342   42.2503 H   0  0  0  0  0  0  0  0  0  0  0  0
  1  2  1  0
  2  8  2  0
  2  3  1  0
  3  4  2  0
  3  5  1  0
  5  6  1  0
  6  9  1  0
  6  7  2  0
  8  9  1  0
  9 10  1  0
 10 12  1  0
 10 11  1  0
 11 16  1  0
 12 13  1  0
 12 14  1  0
 14 16  1  0
 14 15  1  0
 16 17  1  0
 17 18  1  0
 18 19  1  0
 19 20  2  0
 19 21  1  0
 19 22  1  0
  5 23  1  0
  8 24  1  0
 10 25  1  0
 12 26  1  0
 13 27  1  0
 14 28  1  0
 15 29  1  0
 16 30  1  0
 17 31  1  0
 17 32  1  0
 21 33  1  0
 22 34  1  0
A    1
F5
A    2
C5
A    3
C4
A    4
O4
A    5
N3
A    6
C2
A    7
O2
A    8
C6
A    9
N1
A   10
C1'
A   11
O4'
A   12
C2'
A   13
O2'
A   14
C3'
A   15
O3'
A   16
C4'
A   17
C5'
A   18
O5'
A   19
P
A   20
O1P
A   21
O2P
A   22
O3P
M  END
