2QDT_I38_A_501
     RDKit          3D

 22 21  0  0  0  0  0  0  0  0999 V2000
   12.9820   31.5080   31.6640 S   0  0  0  0  0  0  0  0  0  0  0  0
   13.5230   30.4940   30.4480 C   0  0  0  0  0  0  0  0  0  0  0  0
   12.5450   29.3450   30.2370 C   0  0  0  0  0  0  0  0  0  0  0  0
   12.4230   28.4640   31.4650 C   0  0  0  0  0  0  0  0  0  0  0  0
   12.9710   27.4010   31.4110 O   0  0  0  0  0  0  0  0  0  0  0  0
   11.7410   28.8910   32.5400 N   0  0  0  0  0  0  0  0  0  0  0  0
   11.4840   28.1320   33.7660 C   0  0  0  0  0  0  0  0  0  0  0  0
    9.9690   28.0440   33.9450 C   0  0  0  0  0  0  0  0  0  0  0  0
   12.1340   28.7300   35.0060 C   0  0  0  0  0  0  0  0  0  0  0  0
   12.5230   29.9380   34.9390 O   0  0  0  0  0  0  0  0  0  0  0  0
   12.2670   28.0220   36.0600 O   0  0  0  0  0  0  0  0  0  0  0  0
   13.2762   30.9565   32.8831 H   0  0  0  0  0  0  0  0  0  0  0  0
   13.6157   31.0668   29.5135 H   0  0  0  0  0  0  0  0  0  0  0  0
   14.5003   30.0807   30.7379 H   0  0  0  0  0  0  0  0  0  0  0  0
   11.5549   29.7615   30.0000 H   0  0  0  0  0  0  0  0  0  0  0  0
   12.9259   28.7243   29.4126 H   0  0  0  0  0  0  0  0  0  0  0  0
   11.3608   29.8474   32.4983 H   0  0  0  0  0  0  0  0  0  0  0  0
   11.9379   27.1361   33.6556 H   0  0  0  0  0  0  0  0  0  0  0  0
    9.7268   28.0299   35.0179 H   0  0  0  0  0  0  0  0  0  0  0  0
    9.4927   28.9160   33.4730 H   0  0  0  0  0  0  0  0  0  0  0  0
    9.5969   27.1227   33.4730 H   0  0  0  0  0  0  0  0  0  0  0  0
   12.1879   28.4432   36.9525 H   0  0  0  0  0  0  0  0  0  0  0  0
  1  2  1  0
  2  3  1  0
  3  4  1  0
  4  5  2  0
  4  6  1  0
  6  7  1  0
  7  8  1  0
  7  9  1  0
  9 10  2  0
  9 11  1  0
  1 12  1  0
  2 13  1  0
  2 14  1  0
  3 15  1  0
  3 16  1  0
  6 17  1  0
  7 18  1  0
  8 19  1  0
  8 20  1  0
  8 21  1  0
 11 22  1  0
A    1
S
A    2
C1
A    3
C2
A    4
C3
A    5
O3
A    6
N4
A    7
C5
A    8
C51
A    9
C6
A   10
O62
A   11
O61
M  END
