2QE2_452_A_579
     RDKit          3D

 39 40  0  0  0  0  0  0  0  0999 V2000
  -21.4520   -1.9140   11.4110 C   0  0  0  0  0  0  0  0  0  0  0  0
  -20.0180   -1.7770   10.9480 C   0  0  0  0  0  0  0  0  0  0  0  0
  -19.3240   -0.7910   11.3020 O   0  0  0  0  0  0  0  0  0  0  0  0
  -19.4170   -2.8700   10.0660 C   0  0  0  0  0  0  0  0  0  0  0  0
  -20.2920   -3.8840    9.5080 C   0  0  0  0  0  0  0  0  0  0  0  0
  -19.7590   -4.9380    8.6800 C   0  0  0  0  0  0  0  0  0  0  0  0
  -18.3590   -4.9810    8.4010 C   0  0  0  0  0  0  0  0  0  0  0  0
  -17.5190   -3.9830    8.9350 C   0  0  0  0  0  0  0  0  0  0  0  0
  -17.9970   -2.8980    9.7800 C   0  0  0  0  0  0  0  0  0  0  0  0
  -17.1370   -1.8910   10.3240 N   0  0  0  0  0  0  0  0  0  0  0  0
  -15.6860   -1.7200   10.1180 C   0  0  0  0  0  0  0  0  0  0  0  0
  -14.8480   -2.6840   10.9710 C   0  0  0  0  0  0  0  0  0  0  0  0
  -13.6350   -2.6810   10.8640 O   0  0  0  0  0  0  0  0  0  0  0  0
  -15.6210   -3.4730   11.8330 N   0  0  0  0  0  0  0  0  0  0  0  0
  -15.2180   -4.5090   12.7690 C   0  0  0  0  0  0  0  0  0  0  0  0
  -13.9460   -5.1950   12.6800 C   0  0  0  0  0  0  0  0  0  0  0  0
  -13.5770   -6.2010   13.5970 C   0  0  0  0  0  0  0  0  0  0  0  0
  -14.4540   -6.5730   14.6300 C   0  0  0  0  0  0  0  0  0  0  0  0
  -15.7120   -5.9430   14.7540 C   0  0  0  0  0  0  0  0  0  0  0  0
  -16.1300   -4.9100   13.8420 C   0  0  0  0  0  0  0  0  0  0  0  0
  -17.5100   -4.3020   14.0580 C   0  0  0  0  0  0  0  0  0  0  0  0
  -18.1400   -4.6540   15.1100 O   0  0  0  0  0  0  0  0  0  0  0  0
  -17.9400   -3.4950   13.1760 O   0  0  0  0  0  0  0  0  0  0  0  0
  -17.6590   -6.2270    7.4400 Cl  0  0  0  0  0  0  0  0  0  0  0  0
  -20.6130   -5.8790    8.1670 F   0  0  0  0  0  0  0  0  0  0  0  0
  -21.4836   -1.9170   12.5105 H   0  0  0  0  0  0  0  0  0  0  0  0
  -22.0429   -1.0682   11.0295 H   0  0  0  0  0  0  0  0  0  0  0  0
  -21.8720   -2.8564   11.0295 H   0  0  0  0  0  0  0  0  0  0  0  0
  -21.3711   -3.8487    9.7182 H   0  0  0  0  0  0  0  0  0  0  0  0
  -16.4451   -4.0262    8.7008 H   0  0  0  0  0  0  0  0  0  0  0  0
  -17.5887   -1.1976   10.9373 H   0  0  0  0  0  0  0  0  0  0  0  0
  -15.4577   -1.8997    9.0571 H   0  0  0  0  0  0  0  0  0  0  0  0
  -15.4259   -0.6955   10.4225 H   0  0  0  0  0  0  0  0  0  0  0  0
  -16.6340   -3.2900   11.7977 H   0  0  0  0  0  0  0  0  0  0  0  0
  -13.2477   -4.9239   11.8744 H   0  0  0  0  0  0  0  0  0  0  0  0
  -12.5992   -6.6962   13.5032 H   0  0  0  0  0  0  0  0  0  0  0  0
  -14.1601   -7.3567   15.3437 H   0  0  0  0  0  0  0  0  0  0  0  0
  -16.3881   -6.2485   15.5661 H   0  0  0  0  0  0  0  0  0  0  0  0
  -17.7673   -4.4457   16.0032 H   0  0  0  0  0  0  0  0  0  0  0  0
  1  2  1  0
  2  4  1  0
  2  3  2  0
  4  5  2  0
  4  9  1  0
  5  6  1  0
  6 25  1  0
  6  7  2  0
  7 24  1  0
  7  8  1  0
  8  9  2  0
  9 10  1  0
 10 11  1  0
 11 12  1  0
 12 13  2  0
 12 14  1  0
 14 15  1  0
 15 16  2  0
 15 20  1  0
 16 17  1  0
 17 18  2  0
 18 19  1  0
 19 20  2  0
 20 21  1  0
 21 23  2  0
 21 22  1  0
  1 26  1  0
  1 27  1  0
  1 28  1  0
  5 29  1  0
  8 30  1  0
 10 31  1  0
 11 32  1  0
 11 33  1  0
 14 34  1  0
 16 35  1  0
 17 36  1  0
 18 37  1  0
 19 38  1  0
 22 39  1  0
A    1
C1
A    2
C2
A    3
O1
A    4
C3
A    5
C4
A    6
C5
A    7
C6
A    8
C7
A    9
C8
A   10
N1
A   11
C9
A   12
C10
A   13
O2
A   14
N2
A   15
C11
A   16
C12
A   17
C13
A   18
C14
A   19
C15
A   20
C16
A   21
C17
A   22
O3
A   23
O4
A   24
CL1
A   25
F1
M  END
