2QHN_582_A_500
     RDKit          3D

 30 32  0  0  0  0  0  0  0  0999 V2000
   20.6950   -2.3020    9.5550 C   0  0  0  0  0  0  0  0  0  0  0  0
   19.6500   -2.9430   10.3190 C   0  0  0  0  0  0  0  0  0  0  0  0
   18.3000   -2.4110   10.2590 C   0  0  0  0  0  0  0  0  0  0  0  0
   18.0320   -1.2250    9.4580 C   0  0  0  0  0  0  0  0  0  0  0  0
   19.0590   -0.5850    8.7630 C   0  0  0  0  0  0  0  0  0  0  0  0
   20.3930   -1.1200    8.7920 C   0  0  0  0  0  0  0  0  0  0  0  0
   17.2220   -3.0070   10.9410 N   0  0  0  0  0  0  0  0  0  0  0  0
   15.9250   -2.5160   10.8570 C   0  0  0  0  0  0  0  0  0  0  0  0
   15.6610   -1.2770   10.1070 C   0  0  0  0  0  0  0  0  0  0  0  0
   16.6670   -0.6590    9.4540 C   0  0  0  0  0  0  0  0  0  0  0  0
   14.9620   -3.0130   11.4100 O   0  0  0  0  0  0  0  0  0  0  0  0
   17.3070   -4.2380   11.8070 C   0  0  0  0  0  0  0  0  0  0  0  0
   16.1200    0.5590    8.8780 N   0  0  0  0  0  0  0  0  0  0  0  0
   14.4610   -0.4930    9.8870 C   0  0  0  0  0  0  0  0  0  0  0  0
   13.0600   -0.7620   10.3980 C   0  0  0  0  0  0  0  0  0  0  0  0
   14.8370    0.5970    9.1460 N   0  0  0  0  0  0  0  0  0  0  0  0
   17.4600   -5.4500   10.8780 C   0  0  0  0  0  0  0  0  0  0  0  0
   21.7147   -2.7146    9.5565 H   0  0  0  0  0  0  0  0  0  0  0  0
   19.8741   -3.8236   10.9389 H   0  0  0  0  0  0  0  0  0  0  0  0
   18.8473    0.3309    8.1917 H   0  0  0  0  0  0  0  0  0  0  0  0
   21.1918   -0.6202    8.2245 H   0  0  0  0  0  0  0  0  0  0  0  0
   18.1770   -4.1663   12.4762 H   0  0  0  0  0  0  0  0  0  0  0  0
   16.4032   -4.3377   12.4260 H   0  0  0  0  0  0  0  0  0  0  0  0
   16.6486    1.2687    8.3510 H   0  0  0  0  0  0  0  0  0  0  0  0
   13.0645   -0.7611   11.4980 H   0  0  0  0  0  0  0  0  0  0  0  0
   12.3799    0.0220   10.0335 H   0  0  0  0  0  0  0  0  0  0  0  0
   12.7186   -1.7421   10.0335 H   0  0  0  0  0  0  0  0  0  0  0  0
   17.5752   -6.3624   11.4816 H   0  0  0  0  0  0  0  0  0  0  0  0
   16.5662   -5.5406   10.2433 H   0  0  0  0  0  0  0  0  0  0  0  0
   18.3483   -5.3157   10.2433 H   0  0  0  0  0  0  0  0  0  0  0  0
  1  6  2  0
  1  2  1  0
  2  3  2  0
  3  4  1  0
  3  7  1  0
  4  5  2  0
  4 10  1  0
  5  6  1  0
  7  8  1  0
  7 12  1  0
  8  9  1  0
  8 11  2  0
  9 10  2  0
  9 14  1  0
 10 13  1  0
 12 17  1  0
 13 16  1  0
 14 16  2  0
 14 15  1  0
  1 18  1  0
  2 19  1  0
  5 20  1  0
  6 21  1  0
 12 22  1  0
 12 23  1  0
 13 24  1  0
 15 25  1  0
 15 26  1  0
 15 27  1  0
 17 28  1  0
 17 29  1  0
 17 30  1  0
A    1
C1
A    2
C2
A    3
C3
A    4
C4
A    5
C5
A    6
C6
A    7
N11
A    8
C12
A    9
C13
A   10
C14
A   11
O2
A   12
C18
A   13
N1
A   14
C23
A   15
C9
A   16
N2
A   17
C7
M  END
