2QHX_FE1_A_1301
     RDKit          3D

 59 62  0  0  0  0  0  0  0  0999 V2000
   -9.9080   34.6430   71.0220 O   0  0  0  0  0  0  0  0  0  0  0  0
   -9.6470   33.7170   70.2590 C   0  0  0  0  0  0  0  0  0  0  0  0
  -10.0880   32.4700   70.5030 N   0  0  0  0  0  0  0  0  0  0  0  0
   -9.7960   31.3250   69.6260 C   0  0  0  0  0  0  0  0  0  0  0  0
  -11.1430   30.7830   69.1400 C   0  0  0  0  0  0  0  0  0  0  0  0
  -10.8940   32.1650   71.6950 C   0  0  0  0  0  0  0  0  0  0  0  0
  -12.2120   31.5200   71.2360 C   0  0  0  0  0  0  0  0  0  0  0  0
  -11.9290   30.2960   70.3530 C   0  0  0  0  0  0  0  0  0  0  0  0
  -13.1610   29.5270   69.9290 C   0  0  0  0  0  0  0  0  0  0  0  0
  -14.2690   30.0410   69.9020 O   0  0  0  0  0  0  0  0  0  0  0  0
  -13.0330   28.1290   69.5290 O   0  0  0  0  0  0  0  0  0  0  0  0
  -12.8320   27.1000   70.5080 C   0  0  0  0  0  0  0  0  0  0  0  0
   -8.8170   34.0420   69.0370 C   0  0  0  0  0  0  0  0  0  0  0  0
   -7.6360   34.7750   69.1720 C   0  0  0  0  0  0  0  0  0  0  0  0
   -6.8670   35.0850   68.0490 C   0  0  0  0  0  0  0  0  0  0  0  0
   -7.2690   34.6700   66.7740 C   0  0  0  0  0  0  0  0  0  0  0  0
   -8.4550   33.9410   66.6440 C   0  0  0  0  0  0  0  0  0  0  0  0
   -9.2250   33.6370   67.7640 C   0  0  0  0  0  0  0  0  0  0  0  0
   -6.5240   34.9670   65.6650 N   0  0  0  0  0  0  0  0  0  0  0  0
   -5.2830   35.7340   65.7780 C   0  0  0  0  0  0  0  0  0  0  0  0
   -6.9760   34.5240   64.3450 C   0  0  0  0  0  0  0  0  0  0  0  0
   -6.1490   33.3670   63.8240 C   0  0  0  0  0  0  0  0  0  0  0  0
   -4.8200   33.3350   64.0670 N   0  0  0  0  0  0  0  0  0  0  0  0
   -4.0670   32.3190   63.6110 C   0  0  0  0  0  0  0  0  0  0  0  0
   -4.6600   31.2960   62.8810 C   0  0  0  0  0  0  0  0  0  0  0  0
   -5.9930   31.3260   62.6330 N   0  0  0  0  0  0  0  0  0  0  0  0
   -6.7450   32.3420   63.0870 C   0  0  0  0  0  0  0  0  0  0  0  0
   -2.7000   32.2860   63.8620 C   0  0  0  0  0  0  0  0  0  0  0  0
   -2.1140   33.2790   64.5710 N   0  0  0  0  0  0  0  0  0  0  0  0
   -1.9680   31.2520   63.3930 N   0  0  0  0  0  0  0  0  0  0  0  0
   -2.5600   30.2640   62.6800 C   0  0  0  0  0  0  0  0  0  0  0  0
   -3.8900   30.2830   62.4260 N   0  0  0  0  0  0  0  0  0  0  0  0
   -1.8170   29.2350   62.2120 N   0  0  0  0  0  0  0  0  0  0  0  0
   -9.1876   31.6501   68.7692 H   0  0  0  0  0  0  0  0  0  0  0  0
   -9.2307   30.5502   70.1647 H   0  0  0  0  0  0  0  0  0  0  0  0
  -11.7028   31.5808   68.6299 H   0  0  0  0  0  0  0  0  0  0  0  0
  -10.9856   29.9551   68.4330 H   0  0  0  0  0  0  0  0  0  0  0  0
  -10.3459   31.4679   72.3459 H   0  0  0  0  0  0  0  0  0  0  0  0
  -11.0999   33.0869   72.2587 H   0  0  0  0  0  0  0  0  0  0  0  0
  -12.7882   31.2050   72.1185 H   0  0  0  0  0  0  0  0  0  0  0  0
  -12.7858   32.2557   70.6533 H   0  0  0  0  0  0  0  0  0  0  0  0
  -11.3537   29.5721   70.9488 H   0  0  0  0  0  0  0  0  0  0  0  0
  -12.9163   27.5316   71.5163 H   0  0  0  0  0  0  0  0  0  0  0  0
  -13.5943   26.3175   70.3792 H   0  0  0  0  0  0  0  0  0  0  0  0
  -11.8313   26.6618   70.3792 H   0  0  0  0  0  0  0  0  0  0  0  0
   -7.3102   35.1096   70.1679 H   0  0  0  0  0  0  0  0  0  0  0  0
   -5.9370   35.6604   68.1670 H   0  0  0  0  0  0  0  0  0  0  0  0
   -8.7825   33.6049   65.6491 H   0  0  0  0  0  0  0  0  0  0  0  0
  -10.1621   33.0734   67.6451 H   0  0  0  0  0  0  0  0  0  0  0  0
   -5.0402   35.8841   66.8403 H   0  0  0  0  0  0  0  0  0  0  0  0
   -4.4658   35.1832   65.2893 H   0  0  0  0  0  0  0  0  0  0  0  0
   -5.4102   36.7113   65.2893 H   0  0  0  0  0  0  0  0  0  0  0  0
   -8.0266   34.2062   64.4170 H   0  0  0  0  0  0  0  0  0  0  0  0
   -6.8634   35.3657   63.6458 H   0  0  0  0  0  0  0  0  0  0  0  0
   -7.8249   32.3664   62.8792 H   0  0  0  0  0  0  0  0  0  0  0  0
   -2.1285   33.2544   65.6006 H   0  0  0  0  0  0  0  0  0  0  0  0
   -1.6536   34.0592   64.0809 H   0  0  0  0  0  0  0  0  0  0  0  0
   -1.3535   28.5931   62.8708 H   0  0  0  0  0  0  0  0  0  0  0  0
   -1.7148   29.0934   61.1969 H   0  0  0  0  0  0  0  0  0  0  0  0
  1  2  2  0
  2  3  1  0
  2 13  1  0
  3  4  1  0
  3  6  1  0
  4  5  1  0
  5  8  1  0
  6  7  1  0
  7  8  1  0
  8  9  1  0
  9 10  2  0
  9 11  1  0
 11 12  1  0
 13 14  2  0
 13 18  1  0
 14 15  1  0
 15 16  2  0
 16 17  1  0
 16 19  1  0
 17 18  2  0
 19 20  1  0
 19 21  1  0
 21 22  1  0
 22 23  2  0
 22 27  1  0
 23 24  1  0
 24 25  2  0
 24 28  1  0
 25 26  1  0
 25 32  1  0
 26 27  2  0
 28 29  1  0
 28 30  2  0
 30 31  1  0
 31 32  2  0
 31 33  1  0
  4 34  1  0
  4 35  1  0
  5 36  1  0
  5 37  1  0
  6 38  1  0
  6 39  1  0
  7 40  1  0
  7 41  1  0
  8 42  1  0
 12 43  1  0
 12 44  1  0
 12 45  1  0
 14 46  1  0
 15 47  1  0
 17 48  1  0
 18 49  1  0
 20 50  1  0
 20 51  1  0
 20 52  1  0
 21 53  1  0
 21 54  1  0
 27 55  1  0
 29 56  1  0
 29 57  1  0
 33 58  1  0
 33 59  1  0
A    1
OAZ
A    2
CAU
A    3
NAV
A    4
CAW
A    5
CAX
A    6
CBA
A    7
CBB
A    8
CBC
A    9
CBD
A   10
OBG
A   11
OBE
A   12
CBF
A   13
CAT
A   14
CAS
A   15
CAR
A   16
CAJ
A   17
CAK
A   18
CAL
A   19
N10
A   20
CAB
A   21
C9
A   22
C6
A   23
N5
A   24
C4A
A   25
C8A
A   26
N8
A   27
C7
A   28
C4
A   29
N4
A   30
N3
A   31
C2
A   32
N1
A   33
N2
M  END
