2QI0_MZ3_B_200
     RDKit          3D

 71 74  0  0  0  0  0  0  0  0999 V2000
   26.0590   27.3430   11.9470 F   0  0  0  0  0  0  0  0  0  0  0  0
   24.7440   27.1990   11.6950 C   0  0  0  0  0  0  0  0  0  0  0  0
   24.2940   26.1780   10.8680 C   0  0  0  0  0  0  0  0  0  0  0  0
   22.9390   26.0370   10.6160 C   0  0  0  0  0  0  0  0  0  0  0  0
   22.0330   26.9120   11.2060 C   0  0  0  0  0  0  0  0  0  0  0  0
   23.8430   28.0790   12.2630 C   0  0  0  0  0  0  0  0  0  0  0  0
   24.3250   29.1820   13.1520 C   0  0  0  0  0  0  0  0  0  0  0  0
   22.4880   27.9420   12.0290 C   0  0  0  0  0  0  0  0  0  0  0  0
   21.5100   28.9360   12.6350 C   0  0  0  0  0  0  0  0  0  0  0  0
   21.5280   30.0610   12.1780 O   0  0  0  0  0  0  0  0  0  0  0  0
   20.6720   28.5760   13.6090 N   0  0  0  0  0  0  0  0  0  0  0  0
   19.6790   29.4590   14.2150 C   0  0  0  0  0  0  0  0  0  0  0  0
   18.4020   28.6120   14.2450 C   0  0  0  0  0  0  0  0  0  0  0  0
   18.0200   28.1830   12.8350 C   0  0  0  0  0  0  0  0  0  0  0  0
   17.5380   29.1100   11.9310 C   0  0  0  0  0  0  0  0  0  0  0  0
   17.1840   28.7020   10.6530 C   0  0  0  0  0  0  0  0  0  0  0  0
   17.3110   27.3760   10.2650 C   0  0  0  0  0  0  0  0  0  0  0  0
   17.8000   26.4430   11.1690 C   0  0  0  0  0  0  0  0  0  0  0  0
   18.1500   26.8520   12.4520 C   0  0  0  0  0  0  0  0  0  0  0  0
   20.1000   29.8630   15.6340 C   0  0  0  0  0  0  0  0  0  0  0  0
   20.0710   28.7450   16.5360 O   0  0  0  0  0  0  0  0  0  0  0  0
   19.1760   30.9390   16.2300 C   0  0  0  0  0  0  0  0  0  0  0  0
   19.4250   32.2220   15.5460 N   0  0  0  0  0  0  0  0  0  0  0  0
   20.1690   33.2180   16.3540 C   0  0  0  0  0  0  0  0  0  0  0  0
   21.6560   33.1850   15.9960 C   0  0  0  0  0  0  0  0  0  0  0  0
   22.6030   33.1760   16.9610 C   0  0  0  0  0  0  0  0  0  0  0  0
   23.8990   33.1370   16.3600 C   0  0  0  0  0  0  0  0  0  0  0  0
   23.8050   33.1250   15.0100 C   0  0  0  0  0  0  0  0  0  0  0  0
   22.2440   33.1420   14.4230 S   0  0  0  0  0  0  0  0  0  0  0  0
   18.1010   32.7860   14.7930 S   0  0  0  0  0  0  0  0  0  0  0  0
   18.5870   33.6010   13.7100 O   0  0  0  0  0  0  0  0  0  0  0  0
   17.3690   31.6840   14.2440 O   0  0  0  0  0  0  0  0  0  0  0  0
   17.1290   33.6360   15.7700 C   0  0  0  0  0  0  0  0  0  0  0  0
   17.3850   34.9820   16.0000 C   0  0  0  0  0  0  0  0  0  0  0  0
   16.5790   35.7500   16.8370 C   0  0  0  0  0  0  0  0  0  0  0  0
   16.9200   37.0850   16.9990 O   0  0  0  0  0  0  0  0  0  0  0  0
   16.1300   38.0210   17.7200 C   0  0  0  0  0  0  0  0  0  0  0  0
   15.4840   35.1480   17.4720 C   0  0  0  0  0  0  0  0  0  0  0  0
   15.1960   33.8100   17.2350 C   0  0  0  0  0  0  0  0  0  0  0  0
   16.0200   33.0580   16.3920 C   0  0  0  0  0  0  0  0  0  0  0  0
   25.0134   25.4813   10.4131 H   0  0  0  0  0  0  0  0  0  0  0  0
   22.5811   25.2363    9.9520 H   0  0  0  0  0  0  0  0  0  0  0  0
   20.9550   26.7914   11.0231 H   0  0  0  0  0  0  0  0  0  0  0  0
   24.1964   28.8877   14.2041 H   0  0  0  0  0  0  0  0  0  0  0  0
   25.3895   29.3749   12.9527 H   0  0  0  0  0  0  0  0  0  0  0  0
   23.7435   30.0942   12.9527 H   0  0  0  0  0  0  0  0  0  0  0  0
   20.7294   27.6085   13.9576 H   0  0  0  0  0  0  0  0  0  0  0  0
   19.5516   30.3991   13.6582 H   0  0  0  0  0  0  0  0  0  0  0  0
   18.5738   27.7180   14.8624 H   0  0  0  0  0  0  0  0  0  0  0  0
   17.5842   29.2121   14.6706 H   0  0  0  0  0  0  0  0  0  0  0  0
   17.4355   30.1656   12.2228 H   0  0  0  0  0  0  0  0  0  0  0  0
   16.7967   29.4412    9.9364 H   0  0  0  0  0  0  0  0  0  0  0  0
   17.0263   27.0664    9.2486 H   0  0  0  0  0  0  0  0  0  0  0  0
   17.9099   25.3891   10.8735 H   0  0  0  0  0  0  0  0  0  0  0  0
   18.5340   26.1142   13.1719 H   0  0  0  0  0  0  0  0  0  0  0  0
   21.1230   30.2539   15.5308 H   0  0  0  0  0  0  0  0  0  0  0  0
   20.0795   29.0740   17.4697 H   0  0  0  0  0  0  0  0  0  0  0  0
   18.1262   30.6432   16.0873 H   0  0  0  0  0  0  0  0  0  0  0  0
   19.3788   31.0471   17.3057 H   0  0  0  0  0  0  0  0  0  0  0  0
   19.7687   34.2223   16.1511 H   0  0  0  0  0  0  0  0  0  0  0  0
   20.0513   32.9748   17.4203 H   0  0  0  0  0  0  0  0  0  0  0  0
   22.4060   33.1957   18.0430 H   0  0  0  0  0  0  0  0  0  0  0  0
   24.8459   33.1191   16.9196 H   0  0  0  0  0  0  0  0  0  0  0  0
   24.6870   33.1056   14.3529 H   0  0  0  0  0  0  0  0  0  0  0  0
   18.2479   35.4541   15.5076 H   0  0  0  0  0  0  0  0  0  0  0  0
   16.2655   37.8604   18.7997 H   0  0  0  0  0  0  0  0  0  0  0  0
   16.4429   39.0428   17.4591 H   0  0  0  0  0  0  0  0  0  0  0  0
   15.0702   37.8842   17.4591 H   0  0  0  0  0  0  0  0  0  0  0  0
   14.8537   35.7342   18.1569 H   0  0  0  0  0  0  0  0  0  0  0  0
   14.3208   33.3426   17.7099 H   0  0  0  0  0  0  0  0  0  0  0  0
   15.7917   31.9964   16.2162 H   0  0  0  0  0  0  0  0  0  0  0  0
  1  2  1  0
  2  3  2  0
  2  6  1  0
  3  4  1  0
  4  5  2  0
  5  8  1  0
  6  8  2  0
  6  7  1  0
  8  9  1  0
  9 10  2  0
  9 11  1  0
 11 12  1  0
 12 13  1  0
 12 20  1  0
 13 14  1  0
 14 15  2  0
 14 19  1  0
 15 16  1  0
 16 17  2  0
 17 18  1  0
 18 19  2  0
 20 22  1  0
 20 21  1  0
 22 23  1  0
 23 30  1  0
 23 24  1  0
 24 25  1  0
 25 29  1  0
 25 26  2  0
 26 27  1  0
 27 28  2  0
 28 29  1  0
 30 31  2  0
 30 32  2  0
 30 33  1  0
 33 34  2  0
 33 40  1  0
 34 35  1  0
 35 36  1  0
 35 38  2  0
 36 37  1  0
 38 39  1  0
 39 40  2  0
  3 41  1  0
  4 42  1  0
  5 43  1  0
  7 44  1  0
  7 45  1  0
  7 46  1  0
 11 47  1  0
 12 48  1  0
 13 49  1  0
 13 50  1  0
 15 51  1  0
 16 52  1  0
 17 53  1  0
 18 54  1  0
 19 55  1  0
 20 56  1  0
 21 57  1  0
 22 58  1  0
 22 59  1  0
 24 60  1  0
 24 61  1  0
 26 62  1  0
 27 63  1  0
 28 64  1  0
 34 65  1  0
 37 66  1  0
 37 67  1  0
 37 68  1  0
 38 69  1  0
 39 70  1  0
 40 71  1  0
A    1
F29
A    2
C26
A    3
C25
A    4
C24
A    5
C23
A    6
C27
A    7
C28
A    8
C22
A    9
C21
A   10
O22
A   11
N20
A   12
C19
A   13
C32
A   14
C38
A   15
C37
A   16
C36
A   17
C35
A   18
C34
A   19
C33
A   20
C17
A   21
O18
A   22
C16
A   23
N11
A   24
C12
A   25
C15
A   26
C18
A   27
C14
A   28
C13
A   29
S1
A   30
S8
A   31
O9
A   32
O10
A   33
C5
A   34
C6
A   35
C7
A   36
O19
A   37
C20
A   38
C2
A   39
C3
A   40
C4
M  END
