2QI1_MZ4_A_200
     RDKit          3D

 70 73  0  0  0  0  0  0  0  0999 V2000
   17.1220   31.6020   14.3590 O   0  0  0  0  0  0  0  0  0  0  0  0
   17.8400   32.7330   14.8730 S   0  0  0  0  0  0  0  0  0  0  0  0
   18.2750   33.5550   13.7780 O   0  0  0  0  0  0  0  0  0  0  0  0
   16.8800   33.6080   15.8550 C   0  0  0  0  0  0  0  0  0  0  0  0
   15.8300   33.0160   16.5670 C   0  0  0  0  0  0  0  0  0  0  0  0
   15.0200   33.7810   17.4110 C   0  0  0  0  0  0  0  0  0  0  0  0
   15.2430   35.1470   17.5690 C   0  0  0  0  0  0  0  0  0  0  0  0
   16.2880   35.7550   16.8700 C   0  0  0  0  0  0  0  0  0  0  0  0
   16.5500   37.1000   16.9910 O   0  0  0  0  0  0  0  0  0  0  0  0
   16.0760   37.8990   18.0720 C   0  0  0  0  0  0  0  0  0  0  0  0
   17.0910   34.9810   16.0220 C   0  0  0  0  0  0  0  0  0  0  0  0
   19.1920   32.2040   15.6080 N   0  0  0  0  0  0  0  0  0  0  0  0
   19.9830   33.2230   16.3500 C   0  0  0  0  0  0  0  0  0  0  0  0
   21.4570   33.0460   15.9320 C   0  0  0  0  0  0  0  0  0  0  0  0
   21.9400   32.8560   14.3260 S   0  0  0  0  0  0  0  0  0  0  0  0
   23.5230   32.7310   14.8390 C   0  0  0  0  0  0  0  0  0  0  0  0
   23.7150   32.8560   16.1740 C   0  0  0  0  0  0  0  0  0  0  0  0
   22.4660   33.0190   16.8400 C   0  0  0  0  0  0  0  0  0  0  0  0
   19.0490   30.9450   16.3700 C   0  0  0  0  0  0  0  0  0  0  0  0
   20.0810   29.9190   15.8420 C   0  0  0  0  0  0  0  0  0  0  0  0
   20.0870   28.7830   16.7170 O   0  0  0  0  0  0  0  0  0  0  0  0
   19.7790   29.5210   14.3860 C   0  0  0  0  0  0  0  0  0  0  0  0
   18.5780   28.5630   14.2320 C   0  0  0  0  0  0  0  0  0  0  0  0
   18.3100   28.2510   12.7430 C   0  0  0  0  0  0  0  0  0  0  0  0
   18.8130   27.0880   12.1450 C   0  0  0  0  0  0  0  0  0  0  0  0
   18.5810   26.8050   10.7970 C   0  0  0  0  0  0  0  0  0  0  0  0
   17.8330   27.6900   10.0270 C   0  0  0  0  0  0  0  0  0  0  0  0
   17.3310   28.8480   10.6140 C   0  0  0  0  0  0  0  0  0  0  0  0
   17.5650   29.1240   11.9580 C   0  0  0  0  0  0  0  0  0  0  0  0
   20.9330   28.8070   13.8230 N   0  0  0  0  0  0  0  0  0  0  0  0
   21.4610   29.1590   12.6240 C   0  0  0  0  0  0  0  0  0  0  0  0
   21.0620   30.0780   11.9200 O   0  0  0  0  0  0  0  0  0  0  0  0
   22.6150   28.3490   12.0700 C   0  0  0  0  0  0  0  0  0  0  0  0
   23.6150   27.8510   12.8980 C   0  0  0  0  0  0  0  0  0  0  0  0
   24.6330   27.0880   12.3510 C   0  0  0  0  0  0  0  0  0  0  0  0
   22.6330   28.0830   10.7100 C   0  0  0  0  0  0  0  0  0  0  0  0
   23.6530   27.3330   10.1590 C   0  0  0  0  0  0  0  0  0  0  0  0
   23.6870   27.0820    8.8140 O   0  0  0  0  0  0  0  0  0  0  0  0
   24.6460   26.8280   10.9860 C   0  0  0  0  0  0  0  0  0  0  0  0
   25.6560   26.0970   10.4320 O   0  0  0  0  0  0  0  0  0  0  0  0
   15.6405   31.9376   16.4611 H   0  0  0  0  0  0  0  0  0  0  0  0
   14.1962   33.2984   17.9573 H   0  0  0  0  0  0  0  0  0  0  0  0
   14.6024   35.7408   18.2376 H   0  0  0  0  0  0  0  0  0  0  0  0
   16.3554   37.4281   19.0260 H   0  0  0  0  0  0  0  0  0  0  0  0
   16.5259   38.9010   18.0121 H   0  0  0  0  0  0  0  0  0  0  0  0
   14.9810   37.9845   18.0121 H   0  0  0  0  0  0  0  0  0  0  0  0
   17.9106   35.4665   15.4719 H   0  0  0  0  0  0  0  0  0  0  0  0
   19.6356   34.2336   16.0891 H   0  0  0  0  0  0  0  0  0  0  0  0
   19.8661   33.0944   17.4362 H   0  0  0  0  0  0  0  0  0  0  0  0
   24.3547   32.5587   14.1400 H   0  0  0  0  0  0  0  0  0  0  0  0
   24.6952   32.8347   16.6728 H   0  0  0  0  0  0  0  0  0  0  0  0
   22.3382   33.1096   17.9288 H   0  0  0  0  0  0  0  0  0  0  0  0
   19.2320   31.1368   17.4376 H   0  0  0  0  0  0  0  0  0  0  0  0
   18.0310   30.5475   16.2451 H   0  0  0  0  0  0  0  0  0  0  0  0
   21.0834   30.3720   15.8357 H   0  0  0  0  0  0  0  0  0  0  0  0
   20.0854   29.0911   17.6578 H   0  0  0  0  0  0  0  0  0  0  0  0
   19.5519   30.4657   13.8702 H   0  0  0  0  0  0  0  0  0  0  0  0
   18.7952   27.6246   14.7633 H   0  0  0  0  0  0  0  0  0  0  0  0
   17.6857   29.0466   14.6562 H   0  0  0  0  0  0  0  0  0  0  0  0
   19.4028   26.3833   12.7496 H   0  0  0  0  0  0  0  0  0  0  0  0
   18.9875   25.8874   10.3467 H   0  0  0  0  0  0  0  0  0  0  0  0
   17.6403   27.4768    8.9652 H   0  0  0  0  0  0  0  0  0  0  0  0
   16.7425   29.5532   10.0087 H   0  0  0  0  0  0  0  0  0  0  0  0
   17.1561   30.0427   12.4040 H   0  0  0  0  0  0  0  0  0  0  0  0
   21.3488   28.0247   14.3484 H   0  0  0  0  0  0  0  0  0  0  0  0
   23.5976   28.0612   13.9776 H   0  0  0  0  0  0  0  0  0  0  0  0
   25.4297   26.6885   12.9957 H   0  0  0  0  0  0  0  0  0  0  0  0
   21.8303   28.4715   10.0660 H   0  0  0  0  0  0  0  0  0  0  0  0
   23.8124   26.1563    8.4862 H   0  0  0  0  0  0  0  0  0  0  0  0
   26.3045   25.6277   11.0145 H   0  0  0  0  0  0  0  0  0  0  0  0
  1  2  2  0
  2  3  2  0
  2 12  1  0
  2  4  1  0
  4 11  1  0
  4  5  2  0
  5  6  1  0
  6  7  2  0
  7  8  1  0
  8 11  2  0
  8  9  1  0
  9 10  1  0
 12 13  1  0
 12 19  1  0
 13 14  1  0
 14 15  1  0
 14 18  2  0
 15 16  1  0
 16 17  2  0
 17 18  1  0
 19 20  1  0
 20 22  1  0
 20 21  1  0
 22 30  1  0
 22 23  1  0
 23 24  1  0
 24 29  1  0
 24 25  2  0
 25 26  1  0
 26 27  2  0
 27 28  1  0
 28 29  2  0
 30 31  1  0
 31 32  2  0
 31 33  1  0
 33 36  1  0
 33 34  2  0
 34 35  1  0
 35 39  2  0
 36 37  2  0
 37 38  1  0
 37 39  1  0
 39 40  1  0
  5 41  1  0
  6 42  1  0
  7 43  1  0
 10 44  1  0
 10 45  1  0
 10 46  1  0
 11 47  1  0
 13 48  1  0
 13 49  1  0
 16 50  1  0
 17 51  1  0
 18 52  1  0
 19 53  1  0
 19 54  1  0
 20 55  1  0
 21 56  1  0
 22 57  1  0
 23 58  1  0
 23 59  1  0
 25 60  1  0
 26 61  1  0
 27 62  1  0
 28 63  1  0
 29 64  1  0
 30 65  1  0
 34 66  1  0
 35 67  1  0
 36 68  1  0
 38 69  1  0
 40 70  1  0
A    1
O10
A    2
S8
A    3
O9
A    4
C5
A    5
C4
A    6
C3
A    7
C2
A    8
C7
A    9
O19
A   10
C20
A   11
C6
A   12
N11
A   13
C12
A   14
C15
A   15
S1
A   16
C13
A   17
C14
A   18
C18
A   19
C16
A   20
C17
A   21
O18
A   22
C19
A   23
C32
A   24
C38
A   25
C33
A   26
C34
A   27
C35
A   28
C36
A   29
C37
A   30
N20
A   31
C21
A   32
O22
A   33
C22
A   34
C23
A   35
C24
A   36
C27
A   37
C26
A   38
O29
A   39
C25
A   40
O28
M  END
