2QI4_MZ6_A_200
     RDKit          3D

 72 75  0  0  0  0  0  0  0  0999 V2000
   21.4760   29.9050   12.2310 O   0  0  0  0  0  0  0  0  0  0  0  0
   21.3670   28.7580   12.6410 C   0  0  0  0  0  0  0  0  0  0  0  0
   22.1510   27.6830   11.9740 C   0  0  0  0  0  0  0  0  0  0  0  0
   23.4940   27.7990   11.6830 C   0  0  0  0  0  0  0  0  0  0  0  0
   24.1310   26.7550   11.0190 C   0  0  0  0  0  0  0  0  0  0  0  0
   25.4460   26.8580   10.7410 O   0  0  0  0  0  0  0  0  0  0  0  0
   23.4420   25.6030   10.6470 C   0  0  0  0  0  0  0  0  0  0  0  0
   22.0890   25.4830   10.9390 C   0  0  0  0  0  0  0  0  0  0  0  0
   21.4480   26.5320   11.5880 C   0  0  0  0  0  0  0  0  0  0  0  0
   20.5580   28.3660   13.6150 N   0  0  0  0  0  0  0  0  0  0  0  0
   19.6170   29.2450   14.2860 C   0  0  0  0  0  0  0  0  0  0  0  0
   18.3080   28.4450   14.2070 C   0  0  0  0  0  0  0  0  0  0  0  0
   17.9840   28.1020   12.7470 C   0  0  0  0  0  0  0  0  0  0  0  0
   17.5730   29.0860   11.8520 C   0  0  0  0  0  0  0  0  0  0  0  0
   17.2890   28.7640   10.5240 C   0  0  0  0  0  0  0  0  0  0  0  0
   17.4080   27.4510   10.0830 C   0  0  0  0  0  0  0  0  0  0  0  0
   17.8120   26.4670   10.9730 C   0  0  0  0  0  0  0  0  0  0  0  0
   18.0900   26.7890   12.2960 C   0  0  0  0  0  0  0  0  0  0  0  0
   20.0650   29.5980   15.6920 C   0  0  0  0  0  0  0  0  0  0  0  0
   20.0150   28.4250   16.5180 O   0  0  0  0  0  0  0  0  0  0  0  0
   19.1980   30.7250   16.2840 C   0  0  0  0  0  0  0  0  0  0  0  0
   19.4380   31.9630   15.4970 N   0  0  0  0  0  0  0  0  0  0  0  0
   20.1530   33.0000   16.2810 C   0  0  0  0  0  0  0  0  0  0  0  0
   21.6520   32.6580   16.3160 C   0  0  0  0  0  0  0  0  0  0  0  0
   22.3900   33.5920   17.2860 C   0  0  0  0  0  0  0  0  0  0  0  0
   22.1950   35.0700   17.0060 C   0  0  0  0  0  0  0  0  0  0  0  0
   22.3000   32.6680   14.9290 C   0  0  0  0  0  0  0  0  0  0  0  0
   18.0900   32.5750   14.7950 S   0  0  0  0  0  0  0  0  0  0  0  0
   17.3350   31.4910   14.2590 O   0  0  0  0  0  0  0  0  0  0  0  0
   18.5620   33.4330   13.7410 O   0  0  0  0  0  0  0  0  0  0  0  0
   17.2020   33.4440   15.8720 C   0  0  0  0  0  0  0  0  0  0  0  0
   16.2480   32.7630   16.6300 C   0  0  0  0  0  0  0  0  0  0  0  0
   15.4790   33.4180   17.5920 C   0  0  0  0  0  0  0  0  0  0  0  0
   15.6200   34.7770   17.8240 C   0  0  0  0  0  0  0  0  0  0  0  0
   16.5560   35.5130   17.0860 C   0  0  0  0  0  0  0  0  0  0  0  0
   17.3480   34.8400   16.1140 C   0  0  0  0  0  0  0  0  0  0  0  0
   14.9680   35.5770   18.7000 N   0  0  0  0  0  0  0  0  0  0  0  0
   15.3770   36.8600   18.6450 C   0  0  0  0  0  0  0  0  0  0  0  0
   16.6230   37.1790   17.4730 S   0  0  0  0  0  0  0  0  0  0  0  0
   24.0525   28.7018   11.9710 H   0  0  0  0  0  0  0  0  0  0  0  0
   26.1052   26.9096   11.4779 H   0  0  0  0  0  0  0  0  0  0  0  0
   23.9675   24.7907   10.1236 H   0  0  0  0  0  0  0  0  0  0  0  0
   21.5349   24.5742   10.6616 H   0  0  0  0  0  0  0  0  0  0  0  0
   20.3716   26.4583   11.8024 H   0  0  0  0  0  0  0  0  0  0  0  0
   20.5992   27.3810   13.9131 H   0  0  0  0  0  0  0  0  0  0  0  0
   19.5155   30.2392   13.8263 H   0  0  0  0  0  0  0  0  0  0  0  0
   18.4155   27.5144   14.7836 H   0  0  0  0  0  0  0  0  0  0  0  0
   17.4905   29.0522   14.6230 H   0  0  0  0  0  0  0  0  0  0  0  0
   17.4712   30.1264   12.1945 H   0  0  0  0  0  0  0  0  0  0  0  0
   16.9703   29.5510    9.8247 H   0  0  0  0  0  0  0  0  0  0  0  0
   17.1836   27.1947    9.0371 H   0  0  0  0  0  0  0  0  0  0  0  0
   17.9129   25.4267   10.6300 H   0  0  0  0  0  0  0  0  0  0  0  0
   18.3974   25.9973   12.9951 H   0  0  0  0  0  0  0  0  0  0  0  0
   21.1006   29.9669   15.6536 H   0  0  0  0  0  0  0  0  0  0  0  0
   20.0264   28.6919   17.4713 H   0  0  0  0  0  0  0  0  0  0  0  0
   18.1354   30.4468   16.2244 H   0  0  0  0  0  0  0  0  0  0  0  0
   19.4614   30.8904   17.3391 H   0  0  0  0  0  0  0  0  0  0  0  0
   20.0102   33.9830   15.8085 H   0  0  0  0  0  0  0  0  0  0  0  0
   19.7552   33.0303   17.3061 H   0  0  0  0  0  0  0  0  0  0  0  0
   21.7394   31.6246   16.6827 H   0  0  0  0  0  0  0  0  0  0  0  0
   22.0293   33.3846   18.3043 H   0  0  0  0  0  0  0  0  0  0  0  0
   23.4637   33.3886   17.1607 H   0  0  0  0  0  0  0  0  0  0  0  0
   22.1228   35.6171   17.9576 H   0  0  0  0  0  0  0  0  0  0  0  0
   23.0508   35.4499   16.4287 H   0  0  0  0  0  0  0  0  0  0  0  0
   21.2700   35.2149   16.4287 H   0  0  0  0  0  0  0  0  0  0  0  0
   23.3947   32.6849   15.0358 H   0  0  0  0  0  0  0  0  0  0  0  0
   21.9993   31.7651   14.3773 H   0  0  0  0  0  0  0  0  0  0  0  0
   21.9716   33.5612   14.3773 H   0  0  0  0  0  0  0  0  0  0  0  0
   16.0993   31.6857   16.4650 H   0  0  0  0  0  0  0  0  0  0  0  0
   14.7460   32.8443   18.1782 H   0  0  0  0  0  0  0  0  0  0  0  0
   18.0899   35.4109   15.5364 H   0  0  0  0  0  0  0  0  0  0  0  0
   14.9559   37.6446   19.2908 H   0  0  0  0  0  0  0  0  0  0  0  0
  1  2  2  0
  2  3  1  0
  2 10  1  0
  3  9  1  0
  3  4  2  0
  4  5  1  0
  5  7  2  0
  5  6  1  0
  7  8  1  0
  8  9  2  0
 10 11  1  0
 11 12  1  0
 11 19  1  0
 12 13  1  0
 13 14  2  0
 13 18  1  0
 14 15  1  0
 15 16  2  0
 16 17  1  0
 17 18  2  0
 19 21  1  0
 19 20  1  0
 21 22  1  0
 22 28  1  0
 22 23  1  0
 23 24  1  0
 24 27  1  0
 24 25  1  0
 25 26  1  0
 28 30  2  0
 28 29  2  0
 28 31  1  0
 31 36  1  0
 31 32  2  0
 32 33  1  0
 33 34  2  0
 34 35  1  0
 34 37  1  0
 35 36  2  0
 35 39  1  0
 37 38  2  0
 38 39  1  0
  4 40  1  0
  6 41  1  0
  7 42  1  0
  8 43  1  0
  9 44  1  0
 10 45  1  0
 11 46  1  0
 12 47  1  0
 12 48  1  0
 14 49  1  0
 15 50  1  0
 16 51  1  0
 17 52  1  0
 18 53  1  0
 19 54  1  0
 20 55  1  0
 21 56  1  0
 21 57  1  0
 23 58  1  0
 23 59  1  0
 24 60  1  0
 25 61  1  0
 25 62  1  0
 26 63  1  0
 26 64  1  0
 26 65  1  0
 27 66  1  0
 27 67  1  0
 27 68  1  0
 32 69  1  0
 33 70  1  0
 36 71  1  0
 38 72  1  0
A    1
O22
A    2
C21
A    3
C22
A    4
C27
A    5
C26
A    6
O27
A    7
C25
A    8
C24
A    9
C23
A   10
N20
A   11
C19
A   12
C32
A   13
C38
A   14
C37
A   15
C36
A   16
C35
A   17
C34
A   18
C33
A   19
C17
A   20
O18
A   21
C16
A   22
N11
A   23
C12
A   24
C13
A   25
C15
A   26
C18
A   27
C14
A   28
S8
A   29
O10
A   30
O9
A   31
C5
A   32
C6
A   33
C7
A   34
C2
A   35
C3
A   36
C4
A   37
N1
A   38
C1
A   39
S1
M  END
