2QI5_MZ7_B_200
     RDKit          3D

 80 82  0  0  0  0  0  0  0  0999 V2000
   18.6240   33.2560   13.5970 O   0  0  0  0  0  0  0  0  0  0  0  0
   18.1460   32.4480   14.6710 S   0  0  0  0  0  0  0  0  0  0  0  0
   17.4000   31.3250   14.1640 O   0  0  0  0  0  0  0  0  0  0  0  0
   17.2080   33.2970   15.6800 C   0  0  0  0  0  0  0  0  0  0  0  0
   16.2220   32.6100   16.3830 C   0  0  0  0  0  0  0  0  0  0  0  0
   15.3930   33.2710   17.2860 C   0  0  0  0  0  0  0  0  0  0  0  0
   17.3370   34.6760   15.9100 C   0  0  0  0  0  0  0  0  0  0  0  0
   16.4900   35.3510   16.8070 C   0  0  0  0  0  0  0  0  0  0  0  0
   15.5200   34.6350   17.5030 C   0  0  0  0  0  0  0  0  0  0  0  0
   14.8430   35.4600   18.3420 N   0  0  0  0  0  0  0  0  0  0  0  0
   16.5660   37.0220   17.1350 S   0  0  0  0  0  0  0  0  0  0  0  0
   15.2630   36.7470   18.2530 C   0  0  0  0  0  0  0  0  0  0  0  0
   19.4280   31.8300   15.4360 N   0  0  0  0  0  0  0  0  0  0  0  0
   20.0930   32.8040   16.3140 C   0  0  0  0  0  0  0  0  0  0  0  0
   21.5970   32.5090   16.3670 C   0  0  0  0  0  0  0  0  0  0  0  0
   22.3430   33.6490   17.0670 C   0  0  0  0  0  0  0  0  0  0  0  0
   22.2900   35.0280   16.4010 C   0  0  0  0  0  0  0  0  0  0  0  0
   22.7110   34.9970   14.9460 C   0  0  0  0  0  0  0  0  0  0  0  0
   19.1400   30.5370   16.0960 C   0  0  0  0  0  0  0  0  0  0  0  0
   20.0510   29.4540   15.5080 C   0  0  0  0  0  0  0  0  0  0  0  0
   20.0530   28.3480   16.4180 O   0  0  0  0  0  0  0  0  0  0  0  0
   19.6500   29.0060   14.0920 C   0  0  0  0  0  0  0  0  0  0  0  0
   20.7120   28.2390   13.4590 N   0  0  0  0  0  0  0  0  0  0  0  0
   21.4930   28.6330   12.4470 C   0  0  0  0  0  0  0  0  0  0  0  0
   21.4830   29.7260   11.9150 O   0  0  0  0  0  0  0  0  0  0  0  0
   22.4380   27.5660   11.9580 C   0  0  0  0  0  0  0  0  0  0  0  0
   23.8420   28.0730   11.6990 C   0  0  0  0  0  0  0  0  0  0  0  0
   24.7720   26.9320   11.2630 C   0  0  0  0  0  0  0  0  0  0  0  0
   24.3630   28.7670   12.9480 C   0  0  0  0  0  0  0  0  0  0  0  0
   21.9300   26.8710   10.7870 N   0  0  0  0  0  0  0  0  0  0  0  0
   21.6850   25.5630   10.8050 C   0  0  0  0  0  0  0  0  0  0  0  0
   21.8350   24.8590   11.8050 O   0  0  0  0  0  0  0  0  0  0  0  0
   21.2180   25.0190    9.4880 C   0  0  0  0  0  0  0  0  0  0  0  0
   18.3610   28.1810   14.0610 C   0  0  0  0  0  0  0  0  0  0  0  0
   17.9990   27.8080   12.6430 C   0  0  0  0  0  0  0  0  0  0  0  0
   18.2310   26.5150   12.1850 C   0  0  0  0  0  0  0  0  0  0  0  0
   17.9230   26.1670   10.8730 C   0  0  0  0  0  0  0  0  0  0  0  0
   17.3640   27.1070   10.0220 C   0  0  0  0  0  0  0  0  0  0  0  0
   17.1220   28.3990   10.4720 C   0  0  0  0  0  0  0  0  0  0  0  0
   17.4390   28.7450   11.7830 C   0  0  0  0  0  0  0  0  0  0  0  0
   16.0959   31.5291   16.2228 H   0  0  0  0  0  0  0  0  0  0  0  0
   14.6269   32.7035   17.8347 H   0  0  0  0  0  0  0  0  0  0  0  0
   18.1168   35.2402   15.3775 H   0  0  0  0  0  0  0  0  0  0  0  0
   14.8122   37.5572   18.8448 H   0  0  0  0  0  0  0  0  0  0  0  0
   19.9330   33.8191   15.9215 H   0  0  0  0  0  0  0  0  0  0  0  0
   19.6710   32.7291   17.3271 H   0  0  0  0  0  0  0  0  0  0  0  0
   21.7631   31.5735   16.9214 H   0  0  0  0  0  0  0  0  0  0  0  0
   21.9772   32.4133   15.3392 H   0  0  0  0  0  0  0  0  0  0  0  0
   21.9193   33.7518   18.0769 H   0  0  0  0  0  0  0  0  0  0  0  0
   23.4033   33.3577   17.0361 H   0  0  0  0  0  0  0  0  0  0  0  0
   21.2590   35.4068   16.4600 H   0  0  0  0  0  0  0  0  0  0  0  0
   22.9970   35.6798   16.9352 H   0  0  0  0  0  0  0  0  0  0  0  0
   23.8062   34.9164   14.8828 H   0  0  0  0  0  0  0  0  0  0  0  0
   22.2503   34.1303   14.4494 H   0  0  0  0  0  0  0  0  0  0  0  0
   22.3822   35.9218   14.4494 H   0  0  0  0  0  0  0  0  0  0  0  0
   19.3258   30.6266   17.1765 H   0  0  0  0  0  0  0  0  0  0  0  0
   18.0877   30.2641   15.9283 H   0  0  0  0  0  0  0  0  0  0  0  0
   21.0602   29.8757   15.3914 H   0  0  0  0  0  0  0  0  0  0  0  0
   20.0524   28.6862   17.3484 H   0  0  0  0  0  0  0  0  0  0  0  0
   19.4716   29.9367   13.5334 H   0  0  0  0  0  0  0  0  0  0  0  0
   20.8802   27.2927   13.8292 H   0  0  0  0  0  0  0  0  0  0  0  0
   22.5016   26.8473   12.7883 H   0  0  0  0  0  0  0  0  0  0  0  0
   23.8167   28.7984   10.8725 H   0  0  0  0  0  0  0  0  0  0  0  0
   25.1802   26.4312   12.1533 H   0  0  0  0  0  0  0  0  0  0  0  0
   24.2049   26.2062   10.6617 H   0  0  0  0  0  0  0  0  0  0  0  0
   25.5973   27.3411   10.6617 H   0  0  0  0  0  0  0  0  0  0  0  0
   23.9773   28.2532   13.8409 H   0  0  0  0  0  0  0  0  0  0  0  0
   25.4625   28.7357   12.9532 H   0  0  0  0  0  0  0  0  0  0  0  0
   24.0260   29.8141   12.9532 H   0  0  0  0  0  0  0  0  0  0  0  0
   21.7555   27.4034    9.9227 H   0  0  0  0  0  0  0  0  0  0  0  0
   20.5105   24.1948    9.6618 H   0  0  0  0  0  0  0  0  0  0  0  0
   20.7190   25.8166    8.9180 H   0  0  0  0  0  0  0  0  0  0  0  0
   22.0819   24.6465    8.9180 H   0  0  0  0  0  0  0  0  0  0  0  0
   18.5056   27.2633   14.6499 H   0  0  0  0  0  0  0  0  0  0  0  0
   17.5454   28.7838   14.4870 H   0  0  0  0  0  0  0  0  0  0  0  0
   18.6603   25.7633   12.8637 H   0  0  0  0  0  0  0  0  0  0  0  0
   18.1230   25.1473   10.5122 H   0  0  0  0  0  0  0  0  0  0  0  0
   17.1113   26.8297    8.9880 H   0  0  0  0  0  0  0  0  0  0  0  0
   16.6816   29.1459    9.7951 H   0  0  0  0  0  0  0  0  0  0  0  0
   17.2448   29.7670   12.1404 H   0  0  0  0  0  0  0  0  0  0  0  0
  1  2  2  0
  2  3  2  0
  2 13  1  0
  2  4  1  0
  4  7  1  0
  4  5  2  0
  5  6  1  0
  6  9  2  0
  7  8  2  0
  8 11  1  0
  8  9  1  0
  9 10  1  0
 10 12  2  0
 11 12  1  0
 13 19  1  0
 13 14  1  0
 14 15  1  0
 15 16  1  0
 16 17  1  0
 17 18  1  0
 19 20  1  0
 20 22  1  0
 20 21  1  0
 22 23  1  0
 22 34  1  0
 23 24  1  0
 24 25  2  0
 24 26  1  0
 26 30  1  0
 26 27  1  0
 27 28  1  0
 27 29  1  0
 30 31  1  0
 31 33  1  0
 31 32  2  0
 34 35  1  0
 35 40  1  0
 35 36  2  0
 36 37  1  0
 37 38  2  0
 38 39  1  0
 39 40  2  0
  5 41  1  0
  6 42  1  0
  7 43  1  0
 12 44  1  0
 14 45  1  0
 14 46  1  0
 15 47  1  0
 15 48  1  0
 16 49  1  0
 16 50  1  0
 17 51  1  0
 17 52  1  0
 18 53  1  0
 18 54  1  0
 18 55  1  0
 19 56  1  0
 19 57  1  0
 20 58  1  0
 21 59  1  0
 22 60  1  0
 23 61  1  0
 26 62  1  0
 27 63  1  0
 28 64  1  0
 28 65  1  0
 28 66  1  0
 29 67  1  0
 29 68  1  0
 29 69  1  0
 30 70  1  0
 33 71  1  0
 33 72  1  0
 33 73  1  0
 34 74  1  0
 34 75  1  0
 36 76  1  0
 37 77  1  0
 38 78  1  0
 39 79  1  0
 40 80  1  0
A    1
O9
A    2
S8
A    3
O10
A    4
C5
A    5
C6
A    6
C7
A    7
C4
A    8
C3
A    9
C2
A   10
N1
A   11
S1
A   12
C1
A   13
N11
A   14
C12
A   15
C13
A   16
C14
A   17
C15
A   18
C18
A   19
C16
A   20
C17
A   21
O18
A   22
C19
A   23
N20
A   24
C21
A   25
O22
A   26
C22
A   27
C23
A   28
C25
A   29
C24
A   30
N26
A   31
C27
A   32
O28
A   33
C29
A   34
C32
A   35
C38
A   36
C33
A   37
C34
A   38
C35
A   39
C36
A   40
C37
M  END
