2QI6_MZ8_A_200
     RDKit          3D

 69 72  0  0  0  0  0  0  0  0999 V2000
   18.7210   33.4810   13.7780 O   0  0  0  0  0  0  0  0  0  0  0  0
   18.2190   32.6640   14.8350 S   0  0  0  0  0  0  0  0  0  0  0  0
   17.4440   31.5890   14.2840 O   0  0  0  0  0  0  0  0  0  0  0  0
   17.3360   33.5400   15.8980 C   0  0  0  0  0  0  0  0  0  0  0  0
   17.4880   34.9220   16.1480 C   0  0  0  0  0  0  0  0  0  0  0  0
   16.7060   35.6050   17.1110 C   0  0  0  0  0  0  0  0  0  0  0  0
   16.8070   37.2670   17.4970 S   0  0  0  0  0  0  0  0  0  0  0  0
   15.5420   36.9760   18.6520 C   0  0  0  0  0  0  0  0  0  0  0  0
   15.1120   35.6960   18.7270 N   0  0  0  0  0  0  0  0  0  0  0  0
   15.7570   34.8860   17.8460 C   0  0  0  0  0  0  0  0  0  0  0  0
   15.5950   33.5260   17.6090 C   0  0  0  0  0  0  0  0  0  0  0  0
   16.3590   32.8690   16.6450 C   0  0  0  0  0  0  0  0  0  0  0  0
   19.5460   32.0280   15.5330 N   0  0  0  0  0  0  0  0  0  0  0  0
   20.3050   33.0090   16.3460 C   0  0  0  0  0  0  0  0  0  0  0  0
   21.8000   32.6630   16.3620 C   0  0  0  0  0  0  0  0  0  0  0  0
   22.4140   32.6170   14.9630 C   0  0  0  0  0  0  0  0  0  0  0  0
   22.5300   33.6430   17.2740 C   0  0  0  0  0  0  0  0  0  0  0  0
   19.2780   30.7630   16.2530 C   0  0  0  0  0  0  0  0  0  0  0  0
   20.0940   29.6050   15.6720 C   0  0  0  0  0  0  0  0  0  0  0  0
   20.0180   28.4520   16.5290 O   0  0  0  0  0  0  0  0  0  0  0  0
   19.6190   29.2710   14.2680 C   0  0  0  0  0  0  0  0  0  0  0  0
   18.3030   28.4780   14.2000 C   0  0  0  0  0  0  0  0  0  0  0  0
   17.9430   28.1560   12.7560 C   0  0  0  0  0  0  0  0  0  0  0  0
   17.9810   26.8290   12.3090 C   0  0  0  0  0  0  0  0  0  0  0  0
   17.6780   26.5180   10.9930 C   0  0  0  0  0  0  0  0  0  0  0  0
   17.3230   27.5230   10.1020 C   0  0  0  0  0  0  0  0  0  0  0  0
   17.2850   28.8450   10.5340 C   0  0  0  0  0  0  0  0  0  0  0  0
   17.5920   29.1580   11.8600 C   0  0  0  0  0  0  0  0  0  0  0  0
   20.5600   28.4090   13.5660 N   0  0  0  0  0  0  0  0  0  0  0  0
   21.4160   28.8060   12.6320 C   0  0  0  0  0  0  0  0  0  0  0  0
   21.5770   29.9590   12.2540 O   0  0  0  0  0  0  0  0  0  0  0  0
   22.1820   27.7330   11.9320 C   0  0  0  0  0  0  0  0  0  0  0  0
   21.4700   26.6080   11.5000 C   0  0  0  0  0  0  0  0  0  0  0  0
   22.1020   25.5750   10.8090 C   0  0  0  0  0  0  0  0  0  0  0  0
   23.4540   25.6830   10.5210 C   0  0  0  0  0  0  0  0  0  0  0  0
   24.1510   26.8190   10.9330 C   0  0  0  0  0  0  0  0  0  0  0  0
   25.4730   26.9220   10.6600 O   0  0  0  0  0  0  0  0  0  0  0  0
   23.5260   27.8440   11.6340 C   0  0  0  0  0  0  0  0  0  0  0  0
   18.2388   35.4864   15.5756 H   0  0  0  0  0  0  0  0  0  0  0  0
   15.1207   37.7764   19.2780 H   0  0  0  0  0  0  0  0  0  0  0  0
   14.8529   32.9594   18.1906 H   0  0  0  0  0  0  0  0  0  0  0  0
   16.1903   31.7968   16.4666 H   0  0  0  0  0  0  0  0  0  0  0  0
   20.1718   34.0130   15.9167 H   0  0  0  0  0  0  0  0  0  0  0  0
   19.9254   32.9803   17.3780 H   0  0  0  0  0  0  0  0  0  0  0  0
   21.9140   31.6440   16.7603 H   0  0  0  0  0  0  0  0  0  0  0  0
   23.5079   32.5350   15.0452 H   0  0  0  0  0  0  0  0  0  0  0  0
   22.0209   31.7458   14.4185 H   0  0  0  0  0  0  0  0  0  0  0  0
   22.1551   33.5371   14.4185 H   0  0  0  0  0  0  0  0  0  0  0  0
   22.3350   33.3812   18.3244 H   0  0  0  0  0  0  0  0  0  0  0  0
   23.6111   33.5909   17.0777 H   0  0  0  0  0  0  0  0  0  0  0  0
   22.1705   34.6639   17.0777 H   0  0  0  0  0  0  0  0  0  0  0  0
   19.5434   30.8914   17.3127 H   0  0  0  0  0  0  0  0  0  0  0  0
   18.2101   30.5225   16.1440 H   0  0  0  0  0  0  0  0  0  0  0  0
   21.1475   29.9157   15.6121 H   0  0  0  0  0  0  0  0  0  0  0  0
   20.0371   28.7423   17.4753 H   0  0  0  0  0  0  0  0  0  0  0  0
   19.5031   30.2692   13.8206 H   0  0  0  0  0  0  0  0  0  0  0  0
   18.4177   27.5391   14.7616 H   0  0  0  0  0  0  0  0  0  0  0  0
   17.4992   29.0884   14.6373 H   0  0  0  0  0  0  0  0  0  0  0  0
   18.2540   26.0260   13.0094 H   0  0  0  0  0  0  0  0  0  0  0  0
   17.7187   25.4727   10.6530 H   0  0  0  0  0  0  0  0  0  0  0  0
   17.0731   27.2748    9.0599 H   0  0  0  0  0  0  0  0  0  0  0  0
   17.0127   29.6451    9.8299 H   0  0  0  0  0  0  0  0  0  0  0  0
   17.5557   30.2045   12.1971 H   0  0  0  0  0  0  0  0  0  0  0  0
   20.5615   27.4094   13.8145 H   0  0  0  0  0  0  0  0  0  0  0  0
   20.3924   26.5376   11.7094 H   0  0  0  0  0  0  0  0  0  0  0  0
   21.5352   24.6856   10.4963 H   0  0  0  0  0  0  0  0  0  0  0  0
   23.9715   24.8815    9.9735 H   0  0  0  0  0  0  0  0  0  0  0  0
   26.1287   26.9731   11.3999 H   0  0  0  0  0  0  0  0  0  0  0  0
   24.0946   28.7320   11.9473 H   0  0  0  0  0  0  0  0  0  0  0  0
  1  2  2  0
  2  3  2  0
  2 13  1  0
  2  4  1  0
  4  5  2  0
  4 12  1  0
  5  6  1  0
  6  7  1  0
  6 10  2  0
  7  8  1  0
  8  9  2  0
  9 10  1  0
 10 11  1  0
 11 12  2  0
 13 18  1  0
 13 14  1  0
 14 15  1  0
 15 16  1  0
 15 17  1  0
 18 19  1  0
 19 21  1  0
 19 20  1  0
 21 29  1  0
 21 22  1  0
 22 23  1  0
 23 28  1  0
 23 24  2  0
 24 25  1  0
 25 26  2  0
 26 27  1  0
 27 28  2  0
 29 30  1  0
 30 32  1  0
 30 31  2  0
 32 33  2  0
 32 38  1  0
 33 34  1  0
 34 35  2  0
 35 36  1  0
 36 37  1  0
 36 38  2  0
  5 39  1  0
  8 40  1  0
 11 41  1  0
 12 42  1  0
 14 43  1  0
 14 44  1  0
 15 45  1  0
 16 46  1  0
 16 47  1  0
 16 48  1  0
 17 49  1  0
 17 50  1  0
 17 51  1  0
 18 52  1  0
 18 53  1  0
 19 54  1  0
 20 55  1  0
 21 56  1  0
 22 57  1  0
 22 58  1  0
 24 59  1  0
 25 60  1  0
 26 61  1  0
 27 62  1  0
 28 63  1  0
 29 64  1  0
 33 65  1  0
 34 66  1  0
 35 67  1  0
 37 68  1  0
 38 69  1  0
A    1
O9
A    2
S8
A    3
O10
A    4
C5
A    5
C4
A    6
C3
A    7
S1
A    8
C1
A    9
N1
A   10
C2
A   11
C7
A   12
C6
A   13
N11
A   14
C12
A   15
C13
A   16
C14
A   17
C15
A   18
C16
A   19
C17
A   20
O18
A   21
C19
A   22
C32
A   23
C38
A   24
C33
A   25
C34
A   26
C35
A   27
C36
A   28
C37
A   29
N20
A   30
C21
A   31
O22
A   32
C22
A   33
C23
A   34
C24
A   35
C25
A   36
C26
A   37
O27
A   38
C27
M  END
