2QIQ_CYV_A_302
     RDKit          3D

 99 99  0  0  0  0  0  0  0  0999 V2000
   18.5550  -32.9900   21.6270 O   0  0  0  0  0  0  0  0  0  0  0  0
   19.2210  -32.9880   20.5980 C   0  0  0  0  0  0  0  0  0  0  0  0
   20.2040  -31.9160   20.3990 O   0  0  0  0  0  0  0  0  0  0  0  0
   21.5380  -31.9020   20.9580 C   0  0  0  0  0  0  0  0  0  0  0  0
   22.2930  -30.7170   20.3570 C   0  0  0  0  0  0  0  0  0  0  0  0
   21.4720  -31.7160   22.4770 C   0  0  0  0  0  0  0  0  0  0  0  0
   22.2980  -33.1850   20.6050 C   0  0  0  0  0  0  0  0  0  0  0  0
   19.0770  -33.9100   19.6380 N   0  0  0  0  0  0  0  0  0  0  0  0
   18.1370  -35.0250   19.7280 C   0  0  0  0  0  0  0  0  0  0  0  0
   17.8800  -35.4860   18.2910 C   0  0  0  0  0  0  0  0  0  0  0  0
   19.0710  -36.0030   17.6730 O   0  0  0  0  0  0  0  0  0  0  0  0
   18.6780  -36.1640   20.5560 C   0  0  0  0  0  0  0  0  0  0  0  0
   19.8470  -36.5310   20.4560 O   0  0  0  0  0  0  0  0  0  0  0  0
   17.7910  -36.7150   21.3880 N   0  0  0  0  0  0  0  0  0  0  0  0
   18.0960  -37.8280   22.2820 C   0  0  0  0  0  0  0  0  0  0  0  0
   17.7140  -37.3400   23.6930 C   0  0  0  0  0  0  0  0  0  0  0  0
   17.6110  -38.4600   24.7250 C   0  0  0  0  0  0  0  0  0  0  0  0
   18.6990  -36.2860   24.2000 C   0  0  0  0  0  0  0  0  0  0  0  0
   17.3540  -39.0570   21.8210 C   0  0  0  0  0  0  0  0  0  0  0  0
   16.1320  -39.0630   21.8200 O   0  0  0  0  0  0  0  0  0  0  0  0
   18.1480  -40.2640   21.3450 C   0  0  0  0  0  0  0  0  0  0  0  0
   17.3370  -41.5680   21.3190 C   0  0  0  0  0  0  0  0  0  0  0  0
   18.2420  -42.7650   21.0270 C   0  0  0  0  0  0  0  0  0  0  0  0
   19.0970  -42.5740   19.7880 C   0  0  0  0  0  0  0  0  0  0  0  0
   20.2090  -43.3070   19.5460 C   0  0  0  0  0  0  0  0  0  0  0  0
   21.0060  -43.0590   18.3010 C   0  0  0  0  0  0  0  0  0  0  0  0
   20.6990  -44.3810   20.4850 C   0  0  0  0  0  0  0  0  0  0  0  0
   16.6400  -41.7690   22.6430 C   0  0  0  0  0  0  0  0  0  0  0  0
   17.2210  -41.5070   23.6910 O   0  0  0  0  0  0  0  0  0  0  0  0
   15.3830  -42.2300   22.6310 N   0  0  0  0  0  0  0  0  0  0  0  0
   14.6700  -42.4200   23.9000 C   0  0  0  0  0  0  0  0  0  0  0  0
   14.4150  -43.9070   24.1280 C   0  0  0  0  0  0  0  0  0  0  0  0
   15.6640  -44.7910   24.1350 C   0  0  0  0  0  0  0  0  0  0  0  0
   15.3520  -46.1180   24.7990 C   0  0  0  0  0  0  0  0  0  0  0  0
   16.4340  -47.0280   25.1740 O   0  0  0  0  0  0  0  0  0  0  0  0
   17.1900  -46.8370   26.3780 C   0  0  0  0  0  0  0  0  0  0  0  0
   16.3140  -46.9610   27.6120 C   0  0  0  0  0  0  0  0  0  0  0  0
   14.1970  -46.4520   25.0390 O   0  0  0  0  0  0  0  0  0  0  0  0
   13.4090  -41.5740   23.7740 C   0  0  0  0  0  0  0  0  0  0  0  0
   13.2750  -40.2770   24.7040 C   0  0  0  0  0  0  0  0  0  0  0  0
   13.2600  -40.3100   26.2340 C   0  0  0  0  0  0  0  0  0  0  0  0
   12.7780  -38.8660   26.6040 C   0  0  0  0  0  0  0  0  0  0  0  0
   11.8830  -38.5380   25.5150 N   0  0  0  0  0  0  0  0  0  0  0  0
   12.0490  -39.3830   24.5700 C   0  0  0  0  0  0  0  0  0  0  0  0
   11.3090  -39.4520   23.6110 O   0  0  0  0  0  0  0  0  0  0  0  0
   22.6933  -30.0887   21.1663 H   0  0  0  0  0  0  0  0  0  0  0  0
   23.1220  -31.0873   19.7360 H   0  0  0  0  0  0  0  0  0  0  0  0
   21.6071  -30.1221   19.7360 H   0  0  0  0  0  0  0  0  0  0  0  0
   21.8001  -32.6407   22.9742 H   0  0  0  0  0  0  0  0  0  0  0  0
   22.1307  -30.8865   22.7738 H   0  0  0  0  0  0  0  0  0  0  0  0
   20.4378  -31.4872   22.7738 H   0  0  0  0  0  0  0  0  0  0  0  0
   22.6016  -33.6975   21.5297 H   0  0  0  0  0  0  0  0  0  0  0  0
   21.6462  -33.8470   20.0159 H   0  0  0  0  0  0  0  0  0  0  0  0
   23.1917  -32.9315   20.0159 H   0  0  0  0  0  0  0  0  0  0  0  0
   19.6591  -33.8291   18.7921 H   0  0  0  0  0  0  0  0  0  0  0  0
   17.2127  -34.7002   20.2282 H   0  0  0  0  0  0  0  0  0  0  0  0
   17.1138  -36.2752   18.3023 H   0  0  0  0  0  0  0  0  0  0  0  0
   17.5438  -34.6155   17.7085 H   0  0  0  0  0  0  0  0  0  0  0  0
   19.7123  -36.2814   18.3740 H   0  0  0  0  0  0  0  0  0  0  0  0
   16.8349  -36.3321   21.3998 H   0  0  0  0  0  0  0  0  0  0  0  0
   19.1557  -38.1228   22.2849 H   0  0  0  0  0  0  0  0  0  0  0  0
   16.7116  -36.9010   23.5811 H   0  0  0  0  0  0  0  0  0  0  0  0
   17.6505  -38.0308   25.7371 H   0  0  0  0  0  0  0  0  0  0  0  0
   16.6598  -38.9959   24.5908 H   0  0  0  0  0  0  0  0  0  0  0  0
   18.4485  -39.1604   24.5908 H   0  0  0  0  0  0  0  0  0  0  0  0
   18.7004  -36.2845   25.3000 H   0  0  0  0  0  0  0  0  0  0  0  0
   19.7088  -36.5209   23.8324 H   0  0  0  0  0  0  0  0  0  0  0  0
   18.3964  -35.2944   23.8324 H   0  0  0  0  0  0  0  0  0  0  0  0
   18.5109  -40.0608   20.3266 H   0  0  0  0  0  0  0  0  0  0  0  0
   18.9686  -40.4111   22.0626 H   0  0  0  0  0  0  0  0  0  0  0  0
   16.5869  -41.4916   20.5181 H   0  0  0  0  0  0  0  0  0  0  0  0
   18.9057  -42.9213   21.8901 H   0  0  0  0  0  0  0  0  0  0  0  0
   17.5911  -43.6332   20.8468 H   0  0  0  0  0  0  0  0  0  0  0  0
   18.8009  -41.8081   19.0561 H   0  0  0  0  0  0  0  0  0  0  0  0
   22.0235  -42.7424   18.5740 H   0  0  0  0  0  0  0  0  0  0  0  0
   21.0566  -43.9839   17.7077 H   0  0  0  0  0  0  0  0  0  0  0  0
   20.5229  -42.2687   17.7077 H   0  0  0  0  0  0  0  0  0  0  0  0
   20.5501  -44.0547   21.5249 H   0  0  0  0  0  0  0  0  0  0  0  0
   20.1350  -45.3086   20.3074 H   0  0  0  0  0  0  0  0  0  0  0  0
   21.7692  -44.5629   20.3074 H   0  0  0  0  0  0  0  0  0  0  0  0
   14.9196  -42.4497   21.7377 H   0  0  0  0  0  0  0  0  0  0  0  0
   15.2357  -42.0978   24.7867 H   0  0  0  0  0  0  0  0  0  0  0  0
   13.9128  -44.0206   25.1001 H   0  0  0  0  0  0  0  0  0  0  0  0
   13.8074  -44.2456   23.2759 H   0  0  0  0  0  0  0  0  0  0  0  0
   15.9910  -44.9688   23.0999 H   0  0  0  0  0  0  0  0  0  0  0  0
   16.4637  -44.2844   24.6952 H   0  0  0  0  0  0  0  0  0  0  0  0
   17.9839  -47.5969   26.4257 H   0  0  0  0  0  0  0  0  0  0  0  0
   17.6177  -45.8237   26.3593 H   0  0  0  0  0  0  0  0  0  0  0  0
   16.9370  -46.8728   28.5143 H   0  0  0  0  0  0  0  0  0  0  0  0
   15.5593  -46.1607   27.6078 H   0  0  0  0  0  0  0  0  0  0  0  0
   15.8111  -47.9393   27.6078 H   0  0  0  0  0  0  0  0  0  0  0  0
   13.3461  -41.2349   22.7295 H   0  0  0  0  0  0  0  0  0  0  0  0
   12.5993  -42.2377   24.1115 H   0  0  0  0  0  0  0  0  0  0  0  0
   14.2335  -39.9564   24.2699 H   0  0  0  0  0  0  0  0  0  0  0  0
   12.5585  -41.0704   26.6076 H   0  0  0  0  0  0  0  0  0  0  0  0
   14.2331  -40.5721   26.6749 H   0  0  0  0  0  0  0  0  0  0  0  0
   12.2481  -38.8600   27.5679 H   0  0  0  0  0  0  0  0  0  0  0  0
   13.6031  -38.1480   26.7210 H   0  0  0  0  0  0  0  0  0  0  0  0
   11.2192  -37.7506   25.5032 H   0  0  0  0  0  0  0  0  0  0  0  0
  1  2  2  0
  2  8  1  0
  2  3  1  0
  3  4  1  0
  4  5  1  0
  4  7  1  0
  4  6  1  0
  8  9  1  0
  9 10  1  0
  9 12  1  0
 10 11  1  0
 12 13  2  0
 12 14  1  0
 14 15  1  0
 15 19  1  0
 15 16  1  0
 16 18  1  0
 16 17  1  0
 19 21  1  0
 19 20  2  0
 21 22  1  0
 22 23  1  0
 22 28  1  0
 23 24  1  0
 24 25  2  0
 25 26  1  0
 25 27  1  0
 28 30  1  0
 28 29  2  0
 30 31  1  0
 31 39  1  0
 31 32  1  0
 32 33  1  0
 33 34  1  0
 34 38  2  0
 34 35  1  0
 35 36  1  0
 36 37  1  0
 39 40  1  0
 40 44  1  0
 40 41  1  0
 41 42  1  0
 42 43  1  0
 43 44  1  0
 44 45  2  0
  5 46  1  0
  5 47  1  0
  5 48  1  0
  6 49  1  0
  6 50  1  0
  6 51  1  0
  7 52  1  0
  7 53  1  0
  7 54  1  0
  8 55  1  0
  9 56  1  0
 10 57  1  0
 10 58  1  0
 11 59  1  0
 14 60  1  0
 15 61  1  0
 16 62  1  0
 17 63  1  0
 17 64  1  0
 17 65  1  0
 18 66  1  0
 18 67  1  0
 18 68  1  0
 21 69  1  0
 21 70  1  0
 22 71  1  0
 23 72  1  0
 23 73  1  0
 24 74  1  0
 26 75  1  0
 26 76  1  0
 26 77  1  0
 27 78  1  0
 27 79  1  0
 27 80  1  0
 30 81  1  0
 31 82  1  0
 32 83  1  0
 32 84  1  0
 33 85  1  0
 33 86  1  0
 36 87  1  0
 36 88  1  0
 37 89  1  0
 37 90  1  0
 37 91  1  0
 39 92  1  0
 39 93  1  0
 40 94  1  0
 41 95  1  0
 41 96  1  0
 42 97  1  0
 42 98  1  0
 43 99  1  0
A    1
O43
A    2
C42
A    3
O44
A    4
C46
A    5
C49
A    6
C48
A    7
C47
A    8
N41
A    9
C39
A   10
C40
A   11
O45
A   12
C37
A   13
O38
A   14
N36
A   15
C32
A   16
C33
A   17
C35
A   18
C34
A   19
C30
A   20
O31
A   21
C29
A   22
C22
A   23
C23
A   24
C24
A   25
C25
A   26
C26
A   27
C27
A   28
C21
A   29
O28
A   30
N20
A   31
C12
A   32
C5
A   33
C6
A   34
C7
A   35
O11
A   36
C9
A   37
C10
A   38
O8
A   39
C19
A   40
C13
A   41
C14
A   42
C15
A   43
N16
A   44
C17
A   45
O18
M  END
