2QLQ_SR2_A_1345
     RDKit          3D

 47 49  0  0  0  0  0  0  0  0999 V2000
    5.1570    3.6610    7.7270 C   0  0  0  0  0  0  0  0  0  0  0  0
    4.2650    3.1910    8.7070 C   0  0  0  0  0  0  0  0  0  0  0  0
    2.7640    2.0450    8.3310 Br  0  0  0  0  0  0  0  0  0  0  0  0
    4.5160    3.5800   10.0250 C   0  0  0  0  0  0  0  0  0  0  0  0
    5.5840    4.3870   10.3870 C   0  0  0  0  0  0  0  0  0  0  0  0
    6.4200    4.8290    9.3640 C   0  0  0  0  0  0  0  0  0  0  0  0
    6.2520    4.4850    8.0260 C   0  0  0  0  0  0  0  0  0  0  0  0
    7.0950    4.9560    7.0540 N   0  0  0  0  0  0  0  0  0  0  0  0
    8.4310    4.7790    6.9660 C   0  0  0  0  0  0  0  0  0  0  0  0
    9.3260    5.5030    6.1230 C   0  0  0  0  0  0  0  0  0  0  0  0
    8.9790    6.5240    5.2400 C   0  0  0  0  0  0  0  0  0  0  0  0
    8.9610    3.8160    7.7320 N   0  0  0  0  0  0  0  0  0  0  0  0
   10.2370    3.5350    7.7200 C   0  0  0  0  0  0  0  0  0  0  0  0
   11.0890    4.1800    6.9700 N   0  0  0  0  0  0  0  0  0  0  0  0
   10.6790    5.1570    6.1710 C   0  0  0  0  0  0  0  0  0  0  0  0
   11.6140    5.8020    5.3960 C   0  0  0  0  0  0  0  0  0  0  0  0
   11.2410    6.7970    4.5400 C   0  0  0  0  0  0  0  0  0  0  0  0
    9.9300    7.2020    4.4690 C   0  0  0  0  0  0  0  0  0  0  0  0
    9.6430    8.1400    3.5650 N   0  0  0  0  0  0  0  0  0  0  0  0
    8.4240    8.0640    3.0720 C   0  0  0  0  0  0  0  0  0  0  0  0
    7.5780    7.4080    3.6460 O   0  0  0  0  0  0  0  0  0  0  0  0
    7.9250    8.9270    1.9140 C   0  0  0  0  0  0  0  0  0  0  0  0
    8.6160    9.0850    0.5590 C   0  0  0  0  0  0  0  0  0  0  0  0
    7.9630   10.3780    0.0800 C   0  0  0  0  0  0  0  0  0  0  0  0
    7.0140   10.1600   -1.0110 N   0  0  0  0  0  0  0  0  0  0  0  0
    6.0390    9.1070   -0.8290 C   0  0  0  0  0  0  0  0  0  0  0  0
    6.3000   11.3580   -1.3970 C   0  0  0  0  0  0  0  0  0  0  0  0
    4.9887    3.3697    6.6797 H   0  0  0  0  0  0  0  0  0  0  0  0
    3.8338    3.2294   10.8134 H   0  0  0  0  0  0  0  0  0  0  0  0
    5.7632    4.6659   11.4359 H   0  0  0  0  0  0  0  0  0  0  0  0
    7.2606    5.4872    9.6288 H   0  0  0  0  0  0  0  0  0  0  0  0
    6.6590    5.5096    6.3028 H   0  0  0  0  0  0  0  0  0  0  0  0
    7.9202    6.8069    5.1458 H   0  0  0  0  0  0  0  0  0  0  0  0
   10.6070    2.7250    8.3657 H   0  0  0  0  0  0  0  0  0  0  0  0
   12.6730    5.5130    5.4668 H   0  0  0  0  0  0  0  0  0  0  0  0
   11.9961    7.2788    3.9015 H   0  0  0  0  0  0  0  0  0  0  0  0
   10.3178    8.8628    3.2768 H   0  0  0  0  0  0  0  0  0  0  0  0
    6.9881    9.4824    2.0683 H   0  0  0  0  0  0  0  0  0  0  0  0
    9.3683    8.4488    0.0698 H   0  0  0  0  0  0  0  0  0  0  0  0
    8.7507   11.0615   -0.2699 H   0  0  0  0  0  0  0  0  0  0  0  0
    7.4039   10.8017    0.9272 H   0  0  0  0  0  0  0  0  0  0  0  0
    5.8805    8.9358    0.2460 H   0  0  0  0  0  0  0  0  0  0  0  0
    5.0885    9.4024   -1.2973 H   0  0  0  0  0  0  0  0  0  0  0  0
    6.4066    8.1820   -1.2973 H   0  0  0  0  0  0  0  0  0  0  0  0
    5.9775   11.8992   -0.4953 H   0  0  0  0  0  0  0  0  0  0  0  0
    6.9614   12.0026   -1.9946 H   0  0  0  0  0  0  0  0  0  0  0  0
    5.4184   11.0829   -1.9946 H   0  0  0  0  0  0  0  0  0  0  0  0
 27 25  1  0
 25 26  1  0
 25 24  1  0
 24 23  1  0
 23 22  2  0
 22 20  1  0
 20 19  1  0
 20 21  2  0
 19 18  1  0
 18 17  1  0
 18 11  2  0
 17 16  2  0
 11 10  1  0
 16 15  1  0
 10 15  2  0
 10  9  1  0
 15 14  1  0
  9  8  1  0
  9 12  2  0
 14 13  2  0
  8  7  1  0
 13 12  1  0
  1  7  2  0
  1  2  1  0
  7  6  1  0
  3  2  1  0
  2  4  2  0
  6  5  2  0
  4  5  1  0
  1 28  1  0
  4 29  1  0
  5 30  1  0
  6 31  1  0
  8 32  1  0
 11 33  1  0
 13 34  1  0
 16 35  1  0
 17 36  1  0
 19 37  1  0
 22 38  1  0
 23 39  1  0
 24 40  1  0
 24 41  1  0
 26 42  1  0
 26 43  1  0
 26 44  1  0
 27 45  1  0
 27 46  1  0
 27 47  1  0
A    1
C4
A    2
C3
A    3
BRR1
A    4
C22
A    5
C21
A    6
C20
A    7
C5
A    8
N1
A    9
C6
A   10
C7
A   11
C8
A   12
N3
A   13
C19
A   14
N2
A   15
C18
A   16
C17
A   17
C13
A   18
C9
A   19
N11
A   20
C10
A   21
O61
A   22
C11
A   23
C51
A   24
C61
A   25
N63
A   26
C65
A   27
C67
M  END
