2QMY_AD1_A_501
     RDKit          3D

 22 23  0  0  0  0  0  0  0  0999 V2000
   16.8430  -16.3340   29.9440 C   0  0  0  0  0  0  0  0  0  0  0  0
   15.5910  -15.9130   30.5990 N   0  0  0  0  0  0  0  0  0  0  0  0
   14.2440  -16.2070   30.0270 C   0  0  0  0  0  0  0  0  0  0  0  0
   15.8440  -15.2600   31.7570 C   0  0  0  0  0  0  0  0  0  0  0  0
   15.0570  -14.3530   32.5430 C   0  0  0  0  0  0  0  0  0  0  0  0
   15.6160  -13.8200   33.7490 C   0  0  0  0  0  0  0  0  0  0  0  0
   14.9210  -13.0450   34.4070 O   0  0  0  0  0  0  0  0  0  0  0  0
   16.9510  -14.1910   34.1710 C   0  0  0  0  0  0  0  0  0  0  0  0
   17.4530  -13.7490   35.2070 O   0  0  0  0  0  0  0  0  0  0  0  0
   17.7340  -15.0940   33.3850 C   0  0  0  0  0  0  0  0  0  0  0  0
   17.1700  -15.6200   32.1850 C   0  0  0  0  0  0  0  0  0  0  0  0
   17.7450  -16.5910   31.1470 C   0  0  0  0  0  0  0  0  0  0  0  0
   19.1070  -16.2600   30.8060 O   0  0  0  0  0  0  0  0  0  0  0  0
   16.6974  -17.2474   29.3487 H   0  0  0  0  0  0  0  0  0  0  0  0
   17.2451  -15.5989   29.2313 H   0  0  0  0  0  0  0  0  0  0  0  0
   13.5248  -16.3640   30.8444 H   0  0  0  0  0  0  0  0  0  0  0  0
   13.9157  -15.3594   29.4075 H   0  0  0  0  0  0  0  0  0  0  0  0
   14.2988  -17.1143   29.4075 H   0  0  0  0  0  0  0  0  0  0  0  0
   14.0422  -14.0721   32.2247 H   0  0  0  0  0  0  0  0  0  0  0  0
   18.7495  -15.3768   33.6993 H   0  0  0  0  0  0  0  0  0  0  0  0
   17.7674  -17.6330   31.4987 H   0  0  0  0  0  0  0  0  0  0  0  0
   19.6330  -16.1322   31.6349 H   0  0  0  0  0  0  0  0  0  0  0  0
  1  2  1  0
  1 12  1  0
  2  4  1  0
  3  2  1  0
  4 11  1  0
  4  5  2  0
  5  6  1  0
  6  8  1  0
  6  7  2  0
  8  9  2  0
 10  8  1  0
 11 10  2  0
 12 11  1  0
 13 12  1  0
  1 14  1  0
  1 15  1  0
  3 16  1  0
  3 17  1  0
  3 18  1  0
  5 19  1  0
 10 20  1  0
 12 21  1  0
 13 22  1  0
A    1
CAG
A    2
NAM
A    3
CAA
A    4
CAI
A    5
CAF
A    6
CAK
A    7
OAC
A    8
CAJ
A    9
OAB
A   10
CAE
A   11
CAH
A   12
CAL
A   13
OAD
M  END
