2QN1_0AS_A_930
     RDKit          3D

 83 87  0  0  0  0  0  0  0  0999 V2000
   24.0630   -4.0930   54.4410 O   0  0  0  0  0  0  0  0  0  0  0  0
   25.2010   -3.2240   54.4770 C   0  0  0  0  0  0  0  0  0  0  0  0
   26.4510   -3.9890   54.0000 C   0  0  0  0  0  0  0  0  0  0  0  0
   26.6610   -5.1290   54.8330 O   0  0  0  0  0  0  0  0  0  0  0  0
   27.7130   -3.1050   54.0280 C   0  0  0  0  0  0  0  0  0  0  0  0
   27.5730   -1.8210   53.1800 C   0  0  0  0  0  0  0  0  0  0  0  0
   27.5740   -2.2000   51.6830 C   0  0  0  0  0  0  0  0  0  0  0  0
   28.7670   -0.8740   53.5280 C   0  0  0  0  0  0  0  0  0  0  0  0
   30.1520   -1.5300   53.2460 C   0  0  0  0  0  0  0  0  0  0  0  0
   31.2010   -0.6130   53.3080 C   0  0  0  0  0  0  0  0  0  0  0  0
   31.1340    0.7640   53.5550 C   0  0  0  0  0  0  0  0  0  0  0  0
   32.4780    1.5490   53.5500 C   0  0  0  0  0  0  0  0  0  0  0  0
   33.1830    1.4460   54.9430 C   0  0  0  0  0  0  0  0  0  0  0  0
   33.9140    0.0980   55.0530 C   0  0  0  0  0  0  0  0  0  0  0  0
   34.1700    2.5850   55.3180 C   0  0  0  0  0  0  0  0  0  0  0  0
   34.2930    2.7110   56.8430 C   0  0  0  0  0  0  0  0  0  0  0  0
   33.8380    3.9620   54.7100 C   0  0  0  0  0  0  0  0  0  0  0  0
   33.4940    3.8750   53.2140 C   0  0  0  0  0  0  0  0  0  0  0  0
   32.2690    2.9810   52.9600 C   0  0  0  0  0  0  0  0  0  0  0  0
   32.0460    2.8920   51.4300 C   0  0  0  0  0  0  0  0  0  0  0  0
   31.5370    3.8900   50.8700 O   0  0  0  0  0  0  0  0  0  0  0  0
   32.3830    1.8360   50.8440 O   0  0  0  0  0  0  0  0  0  0  0  0
   31.0340    3.6720   53.5870 C   0  0  0  0  0  0  0  0  0  0  0  0
   29.7290    2.9110   53.3090 C   0  0  0  0  0  0  0  0  0  0  0  0
   29.7490    1.4490   53.8050 C   0  0  0  0  0  0  0  0  0  0  0  0
   29.4620    1.4410   55.3240 C   0  0  0  0  0  0  0  0  0  0  0  0
   28.6720    0.6210   53.0330 C   0  0  0  0  0  0  0  0  0  0  0  0
   28.8850    0.7740   51.5080 C   0  0  0  0  0  0  0  0  0  0  0  0
   27.2630    1.2120   53.3430 C   0  0  0  0  0  0  0  0  0  0  0  0
   26.1010    0.2970   52.9260 C   0  0  0  0  0  0  0  0  0  0  0  0
   26.2570   -1.0760   53.6200 C   0  0  0  0  0  0  0  0  0  0  0  0
   24.9440   -1.9360   53.6580 C   0  0  0  0  0  0  0  0  0  0  0  0
   24.4220   -2.2820   52.2530 C   0  0  0  0  0  0  0  0  0  0  0  0
   23.8220   -1.1300   54.3430 C   0  0  0  0  0  0  0  0  0  0  0  0
   24.2150   -0.6630   55.6320 O   0  0  0  0  0  0  0  0  0  0  0  0
   23.7822   -4.3075   55.3658 H   0  0  0  0  0  0  0  0  0  0  0  0
   25.3802   -2.8992   55.5125 H   0  0  0  0  0  0  0  0  0  0  0  0
   26.2740   -4.2989   52.9595 H   0  0  0  0  0  0  0  0  0  0  0  0
   26.6109   -4.8569   55.7835 H   0  0  0  0  0  0  0  0  0  0  0  0
   28.5592   -3.6906   53.6394 H   0  0  0  0  0  0  0  0  0  0  0  0
   27.8719   -2.7934   55.0709 H   0  0  0  0  0  0  0  0  0  0  0  0
   27.5769   -3.2954   51.5821 H   0  0  0  0  0  0  0  0  0  0  0  0
   26.6748   -1.7897   51.2003 H   0  0  0  0  0  0  0  0  0  0  0  0
   28.4711   -1.7849   51.2003 H   0  0  0  0  0  0  0  0  0  0  0  0
   28.6686   -0.7538   54.6170 H   0  0  0  0  0  0  0  0  0  0  0  0
   30.1327   -1.9761   52.2407 H   0  0  0  0  0  0  0  0  0  0  0  0
   30.3260   -2.2892   54.0227 H   0  0  0  0  0  0  0  0  0  0  0  0
   32.2081   -1.0230   53.1419 H   0  0  0  0  0  0  0  0  0  0  0  0
   33.2046    1.0889   52.8641 H   0  0  0  0  0  0  0  0  0  0  0  0
   32.3580    1.5429   55.6641 H   0  0  0  0  0  0  0  0  0  0  0  0
   34.0530   -0.1583   56.1137 H   0  0  0  0  0  0  0  0  0  0  0  0
   33.3165   -0.6843   54.5620 H   0  0  0  0  0  0  0  0  0  0  0  0
   34.8956    0.1720   54.5620 H   0  0  0  0  0  0  0  0  0  0  0  0
   35.1297    2.2836   54.8729 H   0  0  0  0  0  0  0  0  0  0  0  0
   33.6027    2.0039   57.3262 H   0  0  0  0  0  0  0  0  0  0  0  0
   35.3249    2.4823   57.1478 H   0  0  0  0  0  0  0  0  0  0  0  0
   34.0395    3.7371   57.1478 H   0  0  0  0  0  0  0  0  0  0  0  0
   34.7090    4.6223   54.8343 H   0  0  0  0  0  0  0  0  0  0  0  0
   32.9551    4.3561   55.2346 H   0  0  0  0  0  0  0  0  0  0  0  0
   34.3569    3.4581   52.6740 H   0  0  0  0  0  0  0  0  0  0  0  0
   33.2567    4.8886   52.8586 H   0  0  0  0  0  0  0  0  0  0  0  0
   31.1617    4.6259   51.4156 H   0  0  0  0  0  0  0  0  0  0  0  0
   31.1802    3.7355   54.6754 H   0  0  0  0  0  0  0  0  0  0  0  0
   30.9424    4.6693   53.1320 H   0  0  0  0  0  0  0  0  0  0  0  0
   28.9050    3.4379   53.8125 H   0  0  0  0  0  0  0  0  0  0  0  0
   29.5999    2.8797   52.2171 H   0  0  0  0  0  0  0  0  0  0  0  0
   30.4126    1.4675   55.8769 H   0  0  0  0  0  0  0  0  0  0  0  0
   28.8596    2.3227   55.5880 H   0  0  0  0  0  0  0  0  0  0  0  0
   28.9096    0.5271   55.5880 H   0  0  0  0  0  0  0  0  0  0  0  0
   29.7656    1.4065   51.3224 H   0  0  0  0  0  0  0  0  0  0  0  0
   29.0444   -0.2173   51.0588 H   0  0  0  0  0  0  0  0  0  0  0  0
   27.9964    1.2416   51.0588 H   0  0  0  0  0  0  0  0  0  0  0  0
   27.1619    2.1671   52.8068 H   0  0  0  0  0  0  0  0  0  0  0  0
   27.1995    1.3331   54.4345 H   0  0  0  0  0  0  0  0  0  0  0  0
   25.1469    0.7545   53.2268 H   0  0  0  0  0  0  0  0  0  0  0  0
   26.1123    0.1614   51.8344 H   0  0  0  0  0  0  0  0  0  0  0  0
   26.4114   -0.8740   54.6902 H   0  0  0  0  0  0  0  0  0  0  0  0
   23.5080   -2.8878   52.3403 H   0  0  0  0  0  0  0  0  0  0  0  0
   24.1961   -1.3542   51.7070 H   0  0  0  0  0  0  0  0  0  0  0  0
   25.1886   -2.8514   51.7070 H   0  0  0  0  0  0  0  0  0  0  0  0
   23.5698   -0.2645   53.7126 H   0  0  0  0  0  0  0  0  0  0  0  0
   22.9539   -1.7935   54.4703 H   0  0  0  0  0  0  0  0  0  0  0  0
   23.7628   -1.2004   56.3297 H   0  0  0  0  0  0  0  0  0  0  0  0
 22 20  2  0
 21 20  1  0
 20 19  1  0
 28 27  1  0
  7  6  1  0
 33 32  1  0
 30 29  1  0
 30 31  1  0
 19 18  1  0
 19 12  1  0
 19 23  1  0
 27 29  1  0
 27  8  1  0
 27 25  1  0
  6  8  1  0
  6 31  1  0
  6  5  1  0
 18 17  1  0
  9 10  1  0
  9  8  1  0
 10 11  2  0
 24 23  1  0
 24 25  1  0
 12 11  1  0
 12 13  1  0
 11 25  1  0
 31 32  1  0
 32 34  1  0
 32  2  1  0
 25 26  1  0
  3  5  1  0
  3  2  1  0
  3  4  1  0
 34 35  1  0
  1  2  1  0
 17 15  1  0
 13 14  1  0
 13 15  1  0
 15 16  1  0
  1 36  1  0
  2 37  1  0
  3 38  1  0
  4 39  1  0
  5 40  1  0
  5 41  1  0
  7 42  1  0
  7 43  1  0
  7 44  1  0
  8 45  1  0
  9 46  1  0
  9 47  1  0
 10 48  1  0
 12 49  1  0
 13 50  1  0
 14 51  1  0
 14 52  1  0
 14 53  1  0
 15 54  1  0
 16 55  1  0
 16 56  1  0
 16 57  1  0
 17 58  1  0
 17 59  1  0
 18 60  1  0
 18 61  1  0
 21 62  1  0
 23 63  1  0
 23 64  1  0
 24 65  1  0
 24 66  1  0
 26 67  1  0
 26 68  1  0
 26 69  1  0
 28 70  1  0
 28 71  1  0
 28 72  1  0
 29 73  1  0
 29 74  1  0
 30 75  1  0
 30 76  1  0
 31 77  1  0
 33 78  1  0
 33 79  1  0
 33 80  1  0
 34 81  1  0
 34 82  1  0
 35 83  1  0
A    1
O3
A    2
C3
A    3
C2
A    4
O2
A    5
C1
A    6
C10
A    7
C25
A    8
C9
A    9
C11
A   10
C12
A   11
C13
A   12
C18
A   13
C19
A   14
C29
A   15
C20
A   16
C30
A   17
C21
A   18
C22
A   19
C17
A   20
C28
A   21
O29
A   22
O28
A   23
C16
A   24
C15
A   25
C14
A   26
C27
A   27
C8
A   28
C26
A   29
C7
A   30
C6
A   31
C5
A   32
C4
A   33
C24
A   34
C23
A   35
O23
M  END
