2QN2_0MA_A_930
     RDKit          3D

 80 84  0  0  0  0  0  0  0  0999 V2000
   24.2160   -3.8110   54.4740 O   0  0  0  0  0  0  0  0  0  0  0  0
   25.3170   -2.8950   54.5200 C   0  0  0  0  0  0  0  0  0  0  0  0
   24.9610   -1.5680   53.8050 C   0  0  0  0  0  0  0  0  0  0  0  0
   23.9000   -0.8540   54.6470 C   0  0  0  0  0  0  0  0  0  0  0  0
   24.3780   -1.8350   52.4060 C   0  0  0  0  0  0  0  0  0  0  0  0
   26.2450   -0.6570   53.7420 C   0  0  0  0  0  0  0  0  0  0  0  0
   26.0210    0.7560   53.1370 C   0  0  0  0  0  0  0  0  0  0  0  0
   27.1840    1.6800   53.5460 C   0  0  0  0  0  0  0  0  0  0  0  0
   28.6020    1.1560   53.1670 C   0  0  0  0  0  0  0  0  0  0  0  0
   28.8110    1.4150   51.6600 C   0  0  0  0  0  0  0  0  0  0  0  0
   29.6970    1.8990   53.9970 C   0  0  0  0  0  0  0  0  0  0  0  0
   29.4670    1.7310   55.5170 C   0  0  0  0  0  0  0  0  0  0  0  0
   29.7220    3.4170   53.6760 C   0  0  0  0  0  0  0  0  0  0  0  0
   31.0640    4.1130   53.9970 C   0  0  0  0  0  0  0  0  0  0  0  0
   32.2340    3.4640   53.2370 C   0  0  0  0  0  0  0  0  0  0  0  0
   31.8920    3.5130   51.7230 C   0  0  0  0  0  0  0  0  0  0  0  0
   32.1520    2.5120   51.0140 O   0  0  0  0  0  0  0  0  0  0  0  0
   31.3710    4.5680   51.2990 O   0  0  0  0  0  0  0  0  0  0  0  0
   33.5450    4.2610   53.4570 C   0  0  0  0  0  0  0  0  0  0  0  0
   34.3210    3.9610   54.7730 C   0  0  0  0  0  0  0  0  0  0  0  0
   34.4210    2.4770   55.2100 C   0  0  0  0  0  0  0  0  0  0  0  0
   35.4130    1.6780   54.3510 C   0  0  0  0  0  0  0  0  0  0  0  0
   34.8850    2.4060   56.6650 C   0  0  0  0  0  0  0  0  0  0  0  0
   33.0210    1.8440   55.1270 C   0  0  0  0  0  0  0  0  0  0  0  0
   32.4110    1.9910   53.7120 C   0  0  0  0  0  0  0  0  0  0  0  0
   31.0790    1.2320   53.6480 C   0  0  0  0  0  0  0  0  0  0  0  0
   31.1720   -0.1020   53.2490 C   0  0  0  0  0  0  0  0  0  0  0  0
   30.1250   -1.0030   53.0930 C   0  0  0  0  0  0  0  0  0  0  0  0
   28.7570   -0.3920   53.5200 C   0  0  0  0  0  0  0  0  0  0  0  0
   27.5520   -1.3300   53.1860 C   0  0  0  0  0  0  0  0  0  0  0  0
   27.5140   -1.6560   51.6720 C   0  0  0  0  0  0  0  0  0  0  0  0
   27.7950   -2.6600   53.9470 C   0  0  0  0  0  0  0  0  0  0  0  0
   26.5700   -3.5910   53.9510 C   0  0  0  0  0  0  0  0  0  0  0  0
   26.8700   -4.7420   54.7400 O   0  0  0  0  0  0  0  0  0  0  0  0
   23.9394   -4.0411   55.3963 H   0  0  0  0  0  0  0  0  0  0  0  0
   25.5407   -2.6133   55.5595 H   0  0  0  0  0  0  0  0  0  0  0  0
   24.1191   -1.0014   55.7148 H   0  0  0  0  0  0  0  0  0  0  0  0
   23.9108    0.2213   54.4155 H   0  0  0  0  0  0  0  0  0  0  0  0
   22.9079   -1.2690   54.4155 H   0  0  0  0  0  0  0  0  0  0  0  0
   23.3819   -2.2912   52.5048 H   0  0  0  0  0  0  0  0  0  0  0  0
   24.2937   -0.8858   51.8566 H   0  0  0  0  0  0  0  0  0  0  0  0
   25.0417   -2.5189   51.8566 H   0  0  0  0  0  0  0  0  0  0  0  0
   26.4395   -0.5095   54.8146 H   0  0  0  0  0  0  0  0  0  0  0  0
   25.0739    1.1701   53.5133 H   0  0  0  0  0  0  0  0  0  0  0  0
   25.9791    0.6828   52.0402 H   0  0  0  0  0  0  0  0  0  0  0  0
   27.0365    2.6530   53.0546 H   0  0  0  0  0  0  0  0  0  0  0  0
   27.1599    1.7391   54.6442 H   0  0  0  0  0  0  0  0  0  0  0  0
   29.4966    2.2646   51.5256 H   0  0  0  0  0  0  0  0  0  0  0  0
   29.2416    0.5185   51.1901 H   0  0  0  0  0  0  0  0  0  0  0  0
   27.8437    1.6465   51.1901 H   0  0  0  0  0  0  0  0  0  0  0  0
   30.2356    2.2924   56.0684 H   0  0  0  0  0  0  0  0  0  0  0  0
   28.4711    2.1158   55.7819 H   0  0  0  0  0  0  0  0  0  0  0  0
   29.5307    0.6653   55.7819 H   0  0  0  0  0  0  0  0  0  0  0  0
   29.5151    3.5457   52.6033 H   0  0  0  0  0  0  0  0  0  0  0  0
   28.9620    3.8871   54.3174 H   0  0  0  0  0  0  0  0  0  0  0  0
   31.2552    4.0388   55.0777 H   0  0  0  0  0  0  0  0  0  0  0  0
   30.9903    5.1646   53.6827 H   0  0  0  0  0  0  0  0  0  0  0  0
   31.0361    5.2462   51.9378 H   0  0  0  0  0  0  0  0  0  0  0  0
   33.9069    4.9974   52.7244 H   0  0  0  0  0  0  0  0  0  0  0  0
   34.7781    4.7665   55.3665 H   0  0  0  0  0  0  0  0  0  0  0  0
   36.1013    1.1236   55.0058 H   0  0  0  0  0  0  0  0  0  0  0  0
   34.8606    0.9697   53.7161 H   0  0  0  0  0  0  0  0  0  0  0  0
   35.9873    2.3686   53.7161 H   0  0  0  0  0  0  0  0  0  0  0  0
   34.0206    2.5383   57.3324 H   0  0  0  0  0  0  0  0  0  0  0  0
   35.3483    1.4265   56.8547 H   0  0  0  0  0  0  0  0  0  0  0  0
   35.6200    3.2021   56.8547 H   0  0  0  0  0  0  0  0  0  0  0  0
   32.3611    2.3409   55.8534 H   0  0  0  0  0  0  0  0  0  0  0  0
   33.1152    0.7711   55.3508 H   0  0  0  0  0  0  0  0  0  0  0  0
   33.1364    1.5516   53.0114 H   0  0  0  0  0  0  0  0  0  0  0  0
   32.1821   -0.4812   53.0350 H   0  0  0  0  0  0  0  0  0  0  0  0
   30.0665   -1.2990   52.0352 H   0  0  0  0  0  0  0  0  0  0  0  0
   30.3252   -1.8700   53.7397 H   0  0  0  0  0  0  0  0  0  0  0  0
   28.7414   -0.3580   54.6194 H   0  0  0  0  0  0  0  0  0  0  0  0
   27.3877   -2.7399   51.5334 H   0  0  0  0  0  0  0  0  0  0  0  0
   26.6716   -1.1258   51.2038 H   0  0  0  0  0  0  0  0  0  0  0  0
   28.4558   -1.3338   51.2038 H   0  0  0  0  0  0  0  0  0  0  0  0
   28.6332   -3.1879   53.4688 H   0  0  0  0  0  0  0  0  0  0  0  0
   28.0115   -2.4016   54.9941 H   0  0  0  0  0  0  0  0  0  0  0  0
   26.3507   -3.8739   52.9109 H   0  0  0  0  0  0  0  0  0  0  0  0
   26.8092   -4.5088   55.7002 H   0  0  0  0  0  0  0  0  0  0  0  0
 17 16  2  0
 18 16  1  0
 10  9  1  0
 31 30  1  0
 16 15  1  0
  5  3  1  0
 28 27  1  0
 28 29  1  0
  7  8  1  0
  7  6  1  0
  9 29  1  0
  9  8  1  0
  9 11  1  0
 30 29  1  0
 30  6  1  0
 30 32  1  0
 15 19  1  0
 15 25  1  0
 15 14  1  0
 27 26  2  0
 19 20  2  0
 26 25  1  0
 26 11  1  0
 13 11  1  0
 13 14  1  0
 25 24  1  0
  6  3  1  0
  3  2  1  0
  3  4  1  0
 32 33  1  0
 33  2  1  0
 33 34  1  0
 11 12  1  0
 22 21  1  0
  1  2  1  0
 20 21  1  0
 24 21  1  0
 21 23  1  0
  1 35  1  0
  2 36  1  0
  4 37  1  0
  4 38  1  0
  4 39  1  0
  5 40  1  0
  5 41  1  0
  5 42  1  0
  6 43  1  0
  7 44  1  0
  7 45  1  0
  8 46  1  0
  8 47  1  0
 10 48  1  0
 10 49  1  0
 10 50  1  0
 12 51  1  0
 12 52  1  0
 12 53  1  0
 13 54  1  0
 13 55  1  0
 14 56  1  0
 14 57  1  0
 18 58  1  0
 19 59  1  0
 20 60  1  0
 22 61  1  0
 22 62  1  0
 22 63  1  0
 23 64  1  0
 23 65  1  0
 23 66  1  0
 24 67  1  0
 24 68  1  0
 25 69  1  0
 27 70  1  0
 28 71  1  0
 28 72  1  0
 29 73  1  0
 31 74  1  0
 31 75  1  0
 31 76  1  0
 32 77  1  0
 32 78  1  0
 33 79  1  0
 34 80  1  0
A    1
O3
A    2
C3
A    3
C4
A    4
C23
A    5
C24
A    6
C5
A    7
C6
A    8
C7
A    9
C8
A   10
C26
A   11
C14
A   12
C27
A   13
C15
A   14
C16
A   15
C17
A   16
C28
A   17
O28
A   18
O29
A   19
C22
A   20
C21
A   21
C20
A   22
C29
A   23
C30
A   24
C19
A   25
C18
A   26
C13
A   27
C12
A   28
C11
A   29
C9
A   30
C10
A   31
C25
A   32
C1
A   33
C2
A   34
O2
M  END
