2QN8_NBY_A_920
     RDKit          3D

 43 44  0  0  0  0  0  0  0  0999 V2000
   19.2610   12.5300   59.1560 O   0  0  0  0  0  0  0  0  0  0  0  0
   18.4420   13.3600   58.2380 C   0  0  0  0  0  0  0  0  0  0  0  0
   17.0210   13.6460   58.8460 C   0  0  0  0  0  0  0  0  0  0  0  0
   16.2290   14.4530   57.9540 O   0  0  0  0  0  0  0  0  0  0  0  0
   17.2080   14.3690   60.2150 C   0  0  0  0  0  0  0  0  0  0  0  0
   15.9260   14.6530   60.8060 O   0  0  0  0  0  0  0  0  0  0  0  0
   18.0650   13.4700   61.1440 C   0  0  0  0  0  0  0  0  0  0  0  0
   18.2670   14.0980   62.4340 O   0  0  0  0  0  0  0  0  0  0  0  0
   19.4580   13.1640   60.4720 C   0  0  0  0  0  0  0  0  0  0  0  0
   20.3360   12.2320   61.3800 C   0  0  0  0  0  0  0  0  0  0  0  0
   19.6270   10.9840   61.6450 O   0  0  0  0  0  0  0  0  0  0  0  0
   18.3000   12.6830   56.9550 N   0  0  0  0  0  0  0  0  0  0  0  0
   18.8900   13.1810   55.8780 C   0  0  0  0  0  0  0  0  0  0  0  0
   19.5690   14.2330   55.9510 O   0  0  0  0  0  0  0  0  0  0  0  0
   18.7670   12.5270   54.6340 N   0  0  0  0  0  0  0  0  0  0  0  0
   18.0620   11.4150   54.4870 C   0  0  0  0  0  0  0  0  0  0  0  0
   17.4600   10.8960   55.4390 O   0  0  0  0  0  0  0  0  0  0  0  0
   17.9630   10.7240   53.1370 C   0  0  0  0  0  0  0  0  0  0  0  0
   17.1860    9.5040   52.9940 C   0  0  0  0  0  0  0  0  0  0  0  0
   17.0880    8.8310   51.7330 C   0  0  0  0  0  0  0  0  0  0  0  0
   17.7590    9.3460   50.5500 C   0  0  0  0  0  0  0  0  0  0  0  0
   18.5400   10.5820   50.7030 C   0  0  0  0  0  0  0  0  0  0  0  0
   18.6380   11.2600   51.9760 C   0  0  0  0  0  0  0  0  0  0  0  0
   17.6660    8.6860   49.3230 N   0  0  0  0  0  0  0  0  0  0  0  0
   18.2260    9.1190   48.3520 O   0  0  0  0  0  0  0  0  0  0  0  0
   17.0010    7.6450   49.2270 O   0  0  0  0  0  0  0  0  0  0  0  0
   18.9558   14.3220   58.0949 H   0  0  0  0  0  0  0  0  0  0  0  0
   16.4861   12.6958   58.9908 H   0  0  0  0  0  0  0  0  0  0  0  0
   15.6426   15.0505   58.4824 H   0  0  0  0  0  0  0  0  0  0  0  0
   17.7266   15.3276   60.0660 H   0  0  0  0  0  0  0  0  0  0  0  0
   16.0062   14.6352   61.7926 H   0  0  0  0  0  0  0  0  0  0  0  0
   17.5226   12.5257   61.2995 H   0  0  0  0  0  0  0  0  0  0  0  0
   18.0585   13.4499   63.1528 H   0  0  0  0  0  0  0  0  0  0  0  0
   19.9858   14.1205   60.3431 H   0  0  0  0  0  0  0  0  0  0  0  0
   21.2837   12.0111   60.8671 H   0  0  0  0  0  0  0  0  0  0  0  0
   20.5387   12.7423   62.3332 H   0  0  0  0  0  0  0  0  0  0  0  0
   19.5504   10.8492   62.6228 H   0  0  0  0  0  0  0  0  0  0  0  0
   17.7425   11.8197   56.8857 H   0  0  0  0  0  0  0  0  0  0  0  0
   19.2414   12.9276   53.8122 H   0  0  0  0  0  0  0  0  0  0  0  0
   16.6640    9.0901   53.8693 H   0  0  0  0  0  0  0  0  0  0  0  0
   16.4944    7.9079   51.6583 H   0  0  0  0  0  0  0  0  0  0  0  0
   19.0614   11.0003   49.8294 H   0  0  0  0  0  0  0  0  0  0  0  0
   19.2270   12.1851   52.0616 H   0  0  0  0  0  0  0  0  0  0  0  0
 25 24  2  0
 26 24  1  0
 24 21  1  0
 21 22  2  0
 21 20  1  0
 22 23  1  0
 20 19  2  0
 23 18  2  0
 19 18  1  0
 18 16  1  0
 16 15  1  0
 16 17  2  0
 15 13  1  0
 13 14  2  0
 13 12  1  0
 12  2  1  0
  4  3  1  0
  2  3  1  0
  2  1  1  0
  3  5  1  0
  1  9  1  0
  5  6  1  0
  5  7  1  0
  9  7  1  0
  9 10  1  0
  7  8  1  0
 10 11  1  0
  2 27  1  0
  3 28  1  0
  4 29  1  0
  5 30  1  0
  6 31  1  0
  7 32  1  0
  8 33  1  0
  9 34  1  0
 10 35  1  0
 10 36  1  0
 11 37  1  0
 12 38  1  0
 15 39  1  0
 19 40  1  0
 20 41  1  0
 22 42  1  0
 23 43  1  0
M  CHG  2  24   1  26  -1
A    1
O5
A    2
C1
A    3
C2
A    4
O2
A    5
C3
A    6
O3
A    7
C4
A    8
O4
A    9
C5
A   10
C6
A   11
O6
A   12
N1
A   13
C7
A   14
O7
A   15
N2
A   16
C8
A   17
O8
A   18
C9
A   19
C10
A   20
C11
A   21
C12
A   22
C13
A   23
C14
A   24
N3
A   25
O9
A   26
O10
M  END
