2QO8_3CC_A_800
     RDKit          3D

 49 50  0  0  0  0  0  0  0  0999 V2000
   -4.1360    2.5460   15.0980 C   0  0  0  0  0  0  0  0  0  0  0  0
   -5.3780    2.4270   15.7410 C   0  0  0  0  0  0  0  0  0  0  0  0
   -6.3370    3.4800   15.7110 C   0  0  0  0  0  0  0  0  0  0  0  0
   -6.0410    4.6680   15.0240 C   0  0  0  0  0  0  0  0  0  0  0  0
   -3.8470    3.7650   14.4010 C   0  0  0  0  0  0  0  0  0  0  0  0
   -4.8280    4.7930   14.3920 C   0  0  0  0  0  0  0  0  0  0  0  0
   -4.2810    5.9060   13.6180 C   0  0  0  0  0  0  0  0  0  0  0  0
   -3.2090    5.3530   12.8240 C   0  0  0  0  0  0  0  0  0  0  0  0
   -2.6640    4.2220   13.6290 C   0  0  0  0  0  0  0  0  0  0  0  0
   -5.8200    0.9510   16.6350 S   0  0  0  0  0  0  0  0  0  0  0  0
   -5.2710    1.0780   17.9540 O   0  0  0  0  0  0  0  0  0  0  0  0
   -7.2490    0.8090   16.5010 O   0  0  0  0  0  0  0  0  0  0  0  0
   -5.1460   -0.3060   15.9840 N   0  0  0  0  0  0  0  0  0  0  0  0
   -2.1590    6.3770   12.5290 N   0  0  0  0  0  0  0  0  0  0  0  0
   -2.3190    7.4950   11.7640 C   0  0  0  0  0  0  0  0  0  0  0  0
   -3.4470    7.6510   11.2820 O   0  0  0  0  0  0  0  0  0  0  0  0
   -1.2010    8.5590   11.4660 C   0  0  0  0  0  0  0  0  0  0  0  0
   -0.5330    9.0940   12.7750 C   0  0  0  0  0  0  0  0  0  0  0  0
   -1.4750    9.6020   13.8930 C   0  0  0  0  0  0  0  0  0  0  0  0
   -0.8660    9.3860   15.2820 C   0  0  0  0  0  0  0  0  0  0  0  0
   -0.1390    7.9690   10.4650 C   0  0  0  0  0  0  0  0  0  0  0  0
   -0.6710    7.3110    9.1660 C   0  0  0  0  0  0  0  0  0  0  0  0
   -0.6590    8.2810    7.9780 C   0  0  0  0  0  0  0  0  0  0  0  0
   -3.4038    1.7257   15.1281 H   0  0  0  0  0  0  0  0  0  0  0  0
   -7.3035    3.3630   16.2230 H   0  0  0  0  0  0  0  0  0  0  0  0
   -6.7721    5.4893   14.9922 H   0  0  0  0  0  0  0  0  0  0  0  0
   -3.8946    6.6856   14.2910 H   0  0  0  0  0  0  0  0  0  0  0  0
   -5.0507    6.3720   12.9852 H   0  0  0  0  0  0  0  0  0  0  0  0
   -3.5669    5.0126   11.8411 H   0  0  0  0  0  0  0  0  0  0  0  0
   -2.2822    3.4212   12.9787 H   0  0  0  0  0  0  0  0  0  0  0  0
   -1.8148    4.5111   14.2655 H   0  0  0  0  0  0  0  0  0  0  0  0
   -4.8079   -0.9366   16.7249 H   0  0  0  0  0  0  0  0  0  0  0  0
   -5.8348   -0.8010   15.3997 H   0  0  0  0  0  0  0  0  0  0  0  0
   -1.2281    6.2235   12.9422 H   0  0  0  0  0  0  0  0  0  0  0  0
   -1.6787    9.4270   10.9881 H   0  0  0  0  0  0  0  0  0  0  0  0
    0.0703    8.2765   13.1966 H   0  0  0  0  0  0  0  0  0  0  0  0
    0.0375    9.9803   12.4604 H   0  0  0  0  0  0  0  0  0  0  0  0
   -1.6572   10.6768   13.7459 H   0  0  0  0  0  0  0  0  0  0  0  0
   -2.4153    9.0339   13.8364 H   0  0  0  0  0  0  0  0  0  0  0  0
   -1.6065    9.6486   16.0519 H   0  0  0  0  0  0  0  0  0  0  0  0
   -0.5774    8.3307   15.3957 H   0  0  0  0  0  0  0  0  0  0  0  0
    0.0231   10.0236   15.3957 H   0  0  0  0  0  0  0  0  0  0  0  0
    0.4386    7.2066   11.0083 H   0  0  0  0  0  0  0  0  0  0  0  0
    0.4389    8.8401   10.1226 H   0  0  0  0  0  0  0  0  0  0  0  0
   -1.7038    6.9735    9.3373 H   0  0  0  0  0  0  0  0  0  0  0  0
   -0.0096    6.4673    8.9196 H   0  0  0  0  0  0  0  0  0  0  0  0
   -0.6462    9.3161    8.3499 H   0  0  0  0  0  0  0  0  0  0  0  0
    0.2370    8.1002    7.3660 H   0  0  0  0  0  0  0  0  0  0  0  0
   -1.5592    8.1224    7.3660 H   0  0  0  0  0  0  0  0  0  0  0  0
 23 22  1  0
 22 21  1  0
 21 17  1  0
 16 15  2  0
 17 15  1  0
 17 18  1  0
 15 14  1  0
 14  8  1  0
 18 19  1  0
  8  7  1  0
  8  9  1  0
  7  6  1  0
  9  5  1  0
 19 20  1  0
  6  5  1  0
  6  4  2  0
  5  1  2  0
  4  3  1  0
  1  2  1  0
  3  2  2  0
  2 10  1  0
 13 10  1  0
 12 10  2  0
 10 11  2  0
  1 24  1  0
  3 25  1  0
  4 26  1  0
  7 27  1  0
  7 28  1  0
  8 29  1  0
  9 30  1  0
  9 31  1  0
 13 32  1  0
 13 33  1  0
 14 34  1  0
 17 35  1  0
 18 36  1  0
 18 37  1  0
 19 38  1  0
 19 39  1  0
 20 40  1  0
 20 41  1  0
 20 42  1  0
 21 43  1  0
 21 44  1  0
 22 45  1  0
 22 46  1  0
 23 47  1  0
 23 48  1  0
 23 49  1  0
A    1
C1
A    2
C2
A    3
C3
A    4
C4
A    5
C5
A    6
C6
A    7
C7
A    8
C8
A    9
C9
A   10
S1
A   11
O1
A   12
O2
A   13
N1
A   14
N2
A   15
C10
A   16
O3
A   17
C11
A   18
C12
A   19
C13
A   20
C14
A   21
C15
A   22
C16
A   23
C17
M  END
