2QPJ_I20_A_755
     RDKit          3D

 74 75  0  0  0  0  0  0  0  0999 V2000
   26.7960   50.8820   31.3780 C   0  0  0  0  0  0  0  0  0  0  0  0
   26.2050   50.0660   30.2300 C   0  0  0  0  0  0  0  0  0  0  0  0
   24.2910   48.4160   29.5940 O   0  0  0  0  0  0  0  0  0  0  0  0
   24.8460   48.5540   32.0420 C   0  0  0  0  0  0  0  0  0  0  0  0
   23.6360   48.2430   32.9010 C   0  0  0  0  0  0  0  0  0  0  0  0
   23.8280   46.9640   33.7170 C   0  0  0  0  0  0  0  0  0  0  0  0
   23.3770   49.3880   33.8340 C   0  0  0  0  0  0  0  0  0  0  0  0
   22.6180   46.6560   34.5830 C   0  0  0  0  0  0  0  0  0  0  0  0
   22.6740   46.8380   35.9620 C   0  0  0  0  0  0  0  0  0  0  0  0
   21.5670   46.5400   36.7580 C   0  0  0  0  0  0  0  0  0  0  0  0
   20.3930   46.0660   36.1890 C   0  0  0  0  0  0  0  0  0  0  0  0
   20.3360   45.8880   34.8130 C   0  0  0  0  0  0  0  0  0  0  0  0
   21.4450   46.1770   34.0200 C   0  0  0  0  0  0  0  0  0  0  0  0
   25.1750   51.0460   25.9240 C   0  0  0  0  0  0  0  0  0  0  0  0
   26.4870   50.1680   24.1380 N   0  0  0  0  0  0  0  0  0  0  0  0
   26.5920   50.5130   27.8970 C   0  0  0  0  0  0  0  0  0  0  0  0
   26.4240   51.4310   26.7090 C   0  0  0  0  0  0  0  0  0  0  0  0
   24.2860   50.9160   35.4740 C   0  0  0  0  0  0  0  0  0  0  0  0
   26.6190   56.1920   22.8970 N   0  0  0  0  0  0  0  0  0  0  0  0
   27.0060   55.0960   22.7310 C   0  0  0  0  0  0  0  0  0  0  0  0
   27.4810   53.8570   22.5450 C   0  0  0  0  0  0  0  0  0  0  0  0
   28.6830   53.5900   21.7400 C   0  0  0  0  0  0  0  0  0  0  0  0
   28.6850   51.9510   21.4740 C   0  0  0  0  0  0  0  0  0  0  0  0
   27.6150   51.3850   22.5400 C   0  0  0  0  0  0  0  0  0  0  0  0
   26.9210   52.5720   23.0640 N   0  0  0  0  0  0  0  0  0  0  0  0
   25.8780   52.4860   24.0200 C   0  0  0  0  0  0  0  0  0  0  0  0
   25.3870   53.4860   24.5150 O   0  0  0  0  0  0  0  0  0  0  0  0
   25.4250   51.1200   24.4210 C   0  0  0  0  0  0  0  0  0  0  0  0
   27.1920   49.4560   27.7810 O   0  0  0  0  0  0  0  0  0  0  0  0
   26.0600   50.9080   29.0510 N   0  0  0  0  0  0  0  0  0  0  0  0
   24.6650   49.4170   30.6560 P   0  0  0  0  0  0  0  0  0  0  0  0
   23.7260   50.5600   30.9520 O   0  0  0  0  0  0  0  0  0  0  0  0
   24.4470   49.9240   34.4160 N   0  0  0  0  0  0  0  0  0  0  0  0
   25.2400   52.0490   35.2530 C   0  0  0  0  0  0  0  0  0  0  0  0
   25.0200   53.1410   35.7630 O   0  0  0  0  0  0  0  0  0  0  0  0
   26.2330   51.8760   34.5530 O   0  0  0  0  0  0  0  0  0  0  0  0
   24.5360   50.2830   36.8390 C   0  0  0  0  0  0  0  0  0  0  0  0
   22.2340   49.7760   34.0280 O   0  0  0  0  0  0  0  0  0  0  0  0
   26.4807   50.4466   32.3377 H   0  0  0  0  0  0  0  0  0  0  0  0
   27.8939   50.8667   31.3115 H   0  0  0  0  0  0  0  0  0  0  0  0
   26.4391   51.9204   31.3115 H   0  0  0  0  0  0  0  0  0  0  0  0
   26.8905   49.2327   30.0162 H   0  0  0  0  0  0  0  0  0  0  0  0
   25.2926   47.5891   31.7600 H   0  0  0  0  0  0  0  0  0  0  0  0
   25.4463   49.2197   32.6796 H   0  0  0  0  0  0  0  0  0  0  0  0
   22.7788   48.0919   32.2284 H   0  0  0  0  0  0  0  0  0  0  0  0
   23.9943   46.1237   33.0269 H   0  0  0  0  0  0  0  0  0  0  0  0
   24.6931   47.1102   34.3805 H   0  0  0  0  0  0  0  0  0  0  0  0
   23.5955   47.2187   36.4267 H   0  0  0  0  0  0  0  0  0  0  0  0
   21.6255   46.6822   37.8472 H   0  0  0  0  0  0  0  0  0  0  0  0
   19.5210   45.8349   36.8185 H   0  0  0  0  0  0  0  0  0  0  0  0
   19.4113   45.5172   34.3468 H   0  0  0  0  0  0  0  0  0  0  0  0
   21.3889   46.0229   32.9323 H   0  0  0  0  0  0  0  0  0  0  0  0
   24.3591   51.7355   26.1866 H   0  0  0  0  0  0  0  0  0  0  0  0
   24.9058   50.0112   26.1823 H   0  0  0  0  0  0  0  0  0  0  0  0
   26.8785   49.8171   25.0237 H   0  0  0  0  0  0  0  0  0  0  0  0
   26.1060   49.3801   23.5949 H   0  0  0  0  0  0  0  0  0  0  0  0
   27.3051   51.3463   26.0559 H   0  0  0  0  0  0  0  0  0  0  0  0
   26.3213   52.4667   27.0651 H   0  0  0  0  0  0  0  0  0  0  0  0
   23.2550   51.2987   35.4488 H   0  0  0  0  0  0  0  0  0  0  0  0
   28.1063   53.9618   23.4439 H   0  0  0  0  0  0  0  0  0  0  0  0
   29.5876   53.8914   22.2885 H   0  0  0  0  0  0  0  0  0  0  0  0
   28.6761   54.1561   20.7969 H   0  0  0  0  0  0  0  0  0  0  0  0
   28.3718   51.7209   20.4449 H   0  0  0  0  0  0  0  0  0  0  0  0
   29.6822   51.5025   21.5942 H   0  0  0  0  0  0  0  0  0  0  0  0
   26.9015   50.7083   22.0470 H   0  0  0  0  0  0  0  0  0  0  0  0
   28.1009   50.8082   23.3408 H   0  0  0  0  0  0  0  0  0  0  0  0
   24.5017   50.8959   23.8666 H   0  0  0  0  0  0  0  0  0  0  0  0
   25.5503   51.8011   29.1097 H   0  0  0  0  0  0  0  0  0  0  0  0
   23.6369   50.6685   31.9320 H   0  0  0  0  0  0  0  0  0  0  0  0
   25.3909   49.6380   34.1190 H   0  0  0  0  0  0  0  0  0  0  0  0
   25.0016   53.2323   36.7486 H   0  0  0  0  0  0  0  0  0  0  0  0
   24.2552   50.9941   37.6299 H   0  0  0  0  0  0  0  0  0  0  0  0
   23.9312   49.3693   36.9358 H   0  0  0  0  0  0  0  0  0  0  0  0
   25.6019   50.0291   36.9358 H   0  0  0  0  0  0  0  0  0  0  0  0
 23 22  1  0
 23 24  1  0
 22 21  1  0
 24 25  1  0
 21 20  1  0
 21 25  1  0
 20 19  3  0
 25 26  1  0
 26 28  1  0
 26 27  2  0
 15 28  1  0
 28 14  1  0
 14 17  1  0
 17 16  1  0
 29 16  2  0
 16 30  1  0
 30  2  1  0
  3 31  2  0
  2 31  1  0
  2  1  1  0
 31 32  1  0
 31  4  1  0
  4  5  1  0
  5  6  1  0
  5  7  1  0
  6  8  1  0
  7 38  2  0
  7 33  1  0
 13  8  1  0
 13 12  2  0
 33 18  1  0
 36 34  2  0
  8  9  2  0
 12 11  1  0
 34 18  1  0
 34 35  1  0
 18 37  1  0
  9 10  1  0
 11 10  2  0
  1 39  1  0
  1 40  1  0
  1 41  1  0
  2 42  1  0
  4 43  1  0
  4 44  1  0
  5 45  1  0
  6 46  1  0
  6 47  1  0
  9 48  1  0
 10 49  1  0
 11 50  1  0
 12 51  1  0
 13 52  1  0
 14 53  1  0
 14 54  1  0
 15 55  1  0
 15 56  1  0
 17 57  1  0
 17 58  1  0
 18 59  1  0
 21 60  1  0
 22 61  1  0
 22 62  1  0
 23 63  1  0
 23 64  1  0
 24 65  1  0
 24 66  1  0
 28 67  1  0
 30 68  1  0
 32 69  1  0
 33 70  1  0
 35 71  1  0
 37 72  1  0
 37 73  1  0
 37 74  1  0
A    1
C1
A    2
C2
A    3
O5
A    4
C7
A    5
C8
A    6
C9
A    7
C10
A    8
C11
A    9
C12
A   10
C13
A   11
C14
A   12
C15
A   13
C16
A   14
C27
A   15
N29
A   16
C30
A   17
C32
A   18
C35
A   19
NZ
A   20
CE
A   21
CD
A   22
CG
A   23
CB
A   24
CA
A   25
N
A   26
C
A   27
O
A   28
C28
A   29
O31
A   30
N3
A   31
P4
A   32
O6
A   33
N34
A   34
C37
A   35
O39
A   36
O38
A   37
C36
A   38
O33
M  END
