1NQ0_4HY_A_500
     RDKit          3D

 30 31  0  0  0  0  0  0  0  0999 V2000
   53.9720   16.3470  114.4140 C   0  0  0  0  0  0  0  0  0  0  0  0
   54.5320   12.1600  117.3080 C   0  0  0  0  0  0  0  0  0  0  0  0
   54.3770   16.4890  115.8110 C   0  0  0  0  0  0  0  0  0  0  0  0
   55.0680   11.5400  118.4120 C   0  0  0  0  0  0  0  0  0  0  0  0
   54.8850   15.3690  116.5070 C   0  0  0  0  0  0  0  0  0  0  0  0
   54.3140   10.6790  119.1910 C   0  0  0  0  0  0  0  0  0  0  0  0
   55.0050   14.1230  115.8820 C   0  0  0  0  0  0  0  0  0  0  0  0
   52.9540   10.4180  118.8470 C   0  0  0  0  0  0  0  0  0  0  0  0
   54.6250   13.9980  114.5120 C   0  0  0  0  0  0  0  0  0  0  0  0
   52.3800   11.0570  117.7190 C   0  0  0  0  0  0  0  0  0  0  0  0
   54.0980   15.1420  113.7770 C   0  0  0  0  0  0  0  0  0  0  0  0
   53.1710   11.9330  116.9460 C   0  0  0  0  0  0  0  0  0  0  0  0
   53.3320   17.5050  113.7010 C   0  0  0  0  0  0  0  0  0  0  0  0
   54.2890   18.4950  112.9510 C   0  0  0  0  0  0  0  0  0  0  0  0
   55.5530   15.5570  118.5290 I   0  0  0  0  0  0  0  0  0  0  0  0
   55.1600    9.8120  120.8890 I   0  0  0  0  0  0  0  0  0  0  0  0
   54.9110   12.1250  113.5780 I   0  0  0  0  0  0  0  0  0  0  0  0
   55.4420   18.0910  112.6690 O   0  0  0  0  0  0  0  0  0  0  0  0
   55.4110   12.9740  116.5570 O   0  0  0  0  0  0  0  0  0  0  0  0
   52.2230    9.4940  119.6040 O   0  0  0  0  0  0  0  0  0  0  0  0
   53.8180   19.6280  112.6840 O   0  0  0  0  0  0  0  0  0  0  0  0
   54.2870   17.4613  116.3174 H   0  0  0  0  0  0  0  0  0  0  0  0
   56.1170   11.7320  118.6817 H   0  0  0  0  0  0  0  0  0  0  0  0
   51.3297   10.8719  117.4495 H   0  0  0  0  0  0  0  0  0  0  0  0
   53.8049   15.0377  112.7219 H   0  0  0  0  0  0  0  0  0  0  0  0
   52.7405   12.4382  116.0688 H   0  0  0  0  0  0  0  0  0  0  0  0
   52.6330   17.0924  112.9586 H   0  0  0  0  0  0  0  0  0  0  0  0
   52.8636   18.1059  114.4945 H   0  0  0  0  0  0  0  0  0  0  0  0
   52.2522    9.5309  120.5929 H   0  0  0  0  0  0  0  0  0  0  0  0
   53.5624   20.2430  113.4165 H   0  0  0  0  0  0  0  0  0  0  0  0
  1  3  2  0
  1 11  1  0
  1 13  1  0
  2  4  2  0
  2 12  1  0
  2 19  1  0
  3  5  1  0
  4  6  1  0
  5  7  2  0
  5 15  1  0
  6  8  2  0
  6 16  1  0
  7  9  1  0
  7 19  1  0
  8 10  1  0
  8 20  1  0
  9 11  2  0
  9 17  1  0
 10 12  2  0
 13 14  1  0
 14 18  2  0
 14 21  1  0
  3 22  1  0
  4 23  1  0
 10 24  1  0
 11 25  1  0
 12 26  1  0
 13 27  1  0
 13 28  1  0
 20 29  1  0
 21 30  1  0
A    1
C1
A    2
C2
A    3
C3
A    4
C4
A    5
C5
A    6
C6
A    7
C7
A    8
C8
A    9
C9
A   10
C10
A   11
C11
A   12
C12
A   13
C13
A   14
C14
A   15
I1
A   16
I2
A   17
I3
A   18
O3
A   19
O2
A   20
O1
A   21
O4
M  END
