2QS3_UBE_A_603
     RDKit          3D

 49 51  0  0  0  0  0  0  0  0999 V2000
   -1.2010   -7.0020   14.0160 O   0  0  0  0  0  0  0  0  0  0  0  0
   -1.5080   -7.6680   15.0320 C   0  0  0  0  0  0  0  0  0  0  0  0
   -1.4920   -8.9140   15.0810 O   0  0  0  0  0  0  0  0  0  0  0  0
   -1.8970   -6.9360   16.2590 C   0  0  0  0  0  0  0  0  0  0  0  0
   -1.5840   -7.5790   17.8130 S   0  0  0  0  0  0  0  0  0  0  0  0
   -2.2970   -6.2050   18.6140 C   0  0  0  0  0  0  0  0  0  0  0  0
   -2.2940   -6.1970   20.0990 C   0  0  0  0  0  0  0  0  0  0  0  0
   -1.7380   -5.0840   20.7360 C   0  0  0  0  0  0  0  0  0  0  0  0
   -1.7090   -5.0220   22.1310 C   0  0  0  0  0  0  0  0  0  0  0  0
   -2.2460   -6.0780   22.8690 C   0  0  0  0  0  0  0  0  0  0  0  0
   -2.8030   -7.1880   22.2300 C   0  0  0  0  0  0  0  0  0  0  0  0
   -2.8310   -7.2480   20.8350 C   0  0  0  0  0  0  0  0  0  0  0  0
   -2.7680   -5.2560   17.7100 C   0  0  0  0  0  0  0  0  0  0  0  0
   -2.5710   -5.6260   16.3780 C   0  0  0  0  0  0  0  0  0  0  0  0
   -2.9630   -4.8380   15.1860 C   0  0  0  0  0  0  0  0  0  0  0  0
   -4.1150   -3.9910   15.4490 N   0  0  0  0  0  0  0  0  0  0  0  0
   -5.4210   -4.5030   15.5970 C   0  0  0  0  0  0  0  0  0  0  0  0
   -5.6450   -5.7310   15.5420 O   0  0  0  0  0  0  0  0  0  0  0  0
   -3.8870   -2.6120   15.5170 C   0  0  0  0  0  0  0  0  0  0  0  0
   -2.7370   -2.1550   15.3770 O   0  0  0  0  0  0  0  0  0  0  0  0
   -5.0440   -1.7130   15.7430 C   0  0  0  0  0  0  0  0  0  0  0  0
   -4.8380   -0.2220   15.8270 C   0  0  0  0  0  0  0  0  0  0  0  0
   -6.3040   -2.2800   15.8840 C   0  0  0  0  0  0  0  0  0  0  0  0
   -6.5000   -3.6080   15.8120 N   0  0  0  0  0  0  0  0  0  0  0  0
   -7.8610   -4.1440   15.9450 C   0  0  0  0  0  0  0  0  0  0  0  0
   -8.3330   -4.5400   14.5290 C   0  0  0  0  0  0  0  0  0  0  0  0
   -8.0950   -3.4720   13.5630 N   0  0  0  0  0  0  0  0  0  0  0  0
   -9.7850   -4.9080   14.5260 C   0  0  0  0  0  0  0  0  0  0  0  0
  -10.5550   -4.2790   13.7580 O   0  0  0  0  0  0  0  0  0  0  0  0
  -10.1810   -5.8380   15.2680 O   0  0  0  0  0  0  0  0  0  0  0  0
   -1.4861   -9.3749   15.9572 H   0  0  0  0  0  0  0  0  0  0  0  0
   -1.3238   -4.2579   20.1393 H   0  0  0  0  0  0  0  0  0  0  0  0
   -1.2688   -4.1526   22.6412 H   0  0  0  0  0  0  0  0  0  0  0  0
   -2.2303   -6.0355   23.9681 H   0  0  0  0  0  0  0  0  0  0  0  0
   -3.2193   -8.0143   22.8250 H   0  0  0  0  0  0  0  0  0  0  0  0
   -3.2726   -8.1164   20.3242 H   0  0  0  0  0  0  0  0  0  0  0  0
   -3.2456   -4.3128   18.0138 H   0  0  0  0  0  0  0  0  0  0  0  0
   -3.2105   -5.5305   14.3679 H   0  0  0  0  0  0  0  0  0  0  0  0
   -2.1179   -4.1883   14.9147 H   0  0  0  0  0  0  0  0  0  0  0  0
   -4.7958    0.0834   16.8829 H   0  0  0  0  0  0  0  0  0  0  0  0
   -3.8942    0.0464   15.3297 H   0  0  0  0  0  0  0  0  0  0  0  0
   -5.6736    0.2922   15.3297 H   0  0  0  0  0  0  0  0  0  0  0  0
   -7.1680   -1.6223   16.0600 H   0  0  0  0  0  0  0  0  0  0  0  0
   -8.5291   -3.3776   16.3649 H   0  0  0  0  0  0  0  0  0  0  0  0
   -7.8757   -5.0125   16.6199 H   0  0  0  0  0  0  0  0  0  0  0  0
   -7.7412   -5.4176   14.2298 H   0  0  0  0  0  0  0  0  0  0  0  0
   -7.8992   -2.5935   14.0638 H   0  0  0  0  0  0  0  0  0  0  0  0
   -7.2881   -3.7174   12.9718 H   0  0  0  0  0  0  0  0  0  0  0  0
  -10.1386   -5.7383   16.2521 H   0  0  0  0  0  0  0  0  0  0  0  0
 27 26  1  0
 29 28  2  0
  1  2  2  0
 28 26  1  0
 28 30  1  0
 26 25  1  0
  2  3  1  0
  2  4  1  0
 15 16  1  0
 15 14  1  0
 20 19  2  0
 16 19  1  0
 16 17  1  0
 19 21  1  0
 18 17  2  0
 17 24  1  0
 21 22  1  0
 21 23  2  0
 24 23  1  0
 24 25  1  0
  4 14  2  0
  4  5  1  0
 14 13  1  0
 13  6  2  0
  5  6  1  0
  6  7  1  0
  7  8  2  0
  7 12  1  0
  8  9  1  0
 12 11  2  0
  9 10  2  0
 11 10  1  0
  3 31  1  0
  8 32  1  0
  9 33  1  0
 10 34  1  0
 11 35  1  0
 12 36  1  0
 13 37  1  0
 15 38  1  0
 15 39  1  0
 22 40  1  0
 22 41  1  0
 22 42  1  0
 23 43  1  0
 25 44  1  0
 25 45  1  0
 26 46  1  0
 27 47  1  0
 27 48  1  0
 30 49  1  0
A    1
O24
A    2
C22
A    3
O23
A    4
C21
A    5
S20
A    6
C19
A    7
C25
A    8
C30
A    9
C29
A   10
C28
A   11
C27
A   12
C26
A   13
C18
A   14
C17
A   15
C16
A   16
N3
A   17
C4
A   18
O15
A   19
C2
A   20
O14
A   21
C1
A   22
C13
A   23
C6
A   24
N5
A   25
C7
A   26
C8
A   27
N9
A   28
C10
A   29
O11
A   30
O12
M  END
