2QT0_NNR_A_1103
     RDKit          3D

 33 34  0  0  0  0  0  0  0  0999 V2000
  -19.3880   -2.3470  -12.0210 O   0  0  0  0  0  0  0  0  0  0  0  0
  -19.2160   -1.4430  -10.8660 C   0  0  0  0  0  0  0  0  0  0  0  0
  -20.3710   -1.5120   -9.8560 C   0  0  0  0  0  0  0  0  0  0  0  0
  -21.5020   -2.1800  -10.4080 O   0  0  0  0  0  0  0  0  0  0  0  0
  -20.7240   -0.0220   -9.5700 C   0  0  0  0  0  0  0  0  0  0  0  0
  -20.9490    0.2550   -8.0390 C   0  0  0  0  0  0  0  0  0  0  0  0
  -20.3460    1.4850   -7.7020 O   0  0  0  0  0  0  0  0  0  0  0  0
  -19.5990    0.7590  -10.0730 O   0  0  0  0  0  0  0  0  0  0  0  0
  -19.2540    0.0310  -11.2950 C   0  0  0  0  0  0  0  0  0  0  0  0
  -17.8810    0.4070  -11.7610 N   0  0  0  0  0  0  0  0  0  0  0  0
  -17.0730    1.2500  -10.9760 C   0  0  0  0  0  0  0  0  0  0  0  0
  -17.3710   -0.1150  -12.9730 C   0  0  0  0  0  0  0  0  0  0  0  0
  -16.0900    0.2450  -13.3860 C   0  0  0  0  0  0  0  0  0  0  0  0
  -15.3150    1.0910  -12.6090 C   0  0  0  0  0  0  0  0  0  0  0  0
  -15.8010    1.5970  -11.4070 C   0  0  0  0  0  0  0  0  0  0  0  0
  -14.9250    2.5270  -10.5500 C   0  0  0  0  0  0  0  0  0  0  0  0
  -13.7170    2.3840  -10.5390 O   0  0  0  0  0  0  0  0  0  0  0  0
  -15.5640    3.4380   -9.8280 N   0  0  0  0  0  0  0  0  0  0  0  0
  -19.5629   -3.2662  -11.6975 H   0  0  0  0  0  0  0  0  0  0  0  0
  -18.2583   -1.7676  -10.4330 H   0  0  0  0  0  0  0  0  0  0  0  0
  -20.0892   -2.0712   -8.9516 H   0  0  0  0  0  0  0  0  0  0  0  0
  -22.0753   -2.5186   -9.6754 H   0  0  0  0  0  0  0  0  0  0  0  0
  -21.6693    0.2490  -10.0628 H   0  0  0  0  0  0  0  0  0  0  0  0
  -22.0274    0.3025   -7.8273 H   0  0  0  0  0  0  0  0  0  0  0  0
  -20.5001   -0.5545   -7.4447 H   0  0  0  0  0  0  0  0  0  0  0  0
  -20.3031    1.5725   -6.7168 H   0  0  0  0  0  0  0  0  0  0  0  0
  -19.9662    0.2444  -12.1056 H   0  0  0  0  0  0  0  0  0  0  0  0
  -17.4512    1.6351  -10.0175 H   0  0  0  0  0  0  0  0  0  0  0  0
  -17.9798   -0.7983  -13.5832 H   0  0  0  0  0  0  0  0  0  0  0  0
  -15.6915   -0.1446  -14.3344 H   0  0  0  0  0  0  0  0  0  0  0  0
  -14.3045    1.3657  -12.9459 H   0  0  0  0  0  0  0  0  0  0  0  0
  -15.5333    3.3942   -8.7994 H   0  0  0  0  0  0  0  0  0  0  0  0
  -16.0909    4.1892  -10.2960 H   0  0  0  0  0  0  0  0  0  0  0  0
 13 12  2  0
 13 14  1  0
 12 10  1  0
 14 15  2  0
  1  2  1  0
 10  9  1  0
 10 11  2  0
 15 11  1  0
 15 16  1  0
  9  2  1  0
  9  8  1  0
  2  3  1  0
 16 17  2  0
 16 18  1  0
  4  3  1  0
  8  5  1  0
  3  5  1  0
  5  6  1  0
  6  7  1  0
  1 19  1  0
  2 20  1  0
  3 21  1  0
  4 22  1  0
  5 23  1  0
  6 24  1  0
  6 25  1  0
  7 26  1  0
  9 27  1  0
 11 28  1  0
 12 29  1  0
 13 30  1  0
 14 31  1  0
 18 32  1  0
 18 33  1  0
M  CHG  1  10   1
A    1
O2R
A    2
C2R
A    3
C3R
A    4
O3R
A    5
C4R
A    6
C5R
A    7
O5R
A    8
O4R
A    9
C1R
A   10
N1
A   11
C2
A   12
C6
A   13
C5
A   14
C4
A   15
C3
A   16
C7
A   17
O7
A   18
N7
M  END
