2QU3_462_A_1
     RDKit          3D

 51 53  0  0  0  0  0  0  0  0999 V2000
    8.8600   -2.0220   13.9810 C   0  0  0  0  0  0  0  0  0  0  0  0
    8.5370   -3.2560   14.7620 C   0  0  0  0  0  0  0  0  0  0  0  0
    9.6450   -4.2670   14.7850 C   0  0  0  0  0  0  0  0  0  0  0  0
    9.1350   -5.4170   15.4240 O   0  0  0  0  0  0  0  0  0  0  0  0
    9.9380   -6.3600   15.9930 C   0  0  0  0  0  0  0  0  0  0  0  0
    9.5660   -7.7070   16.2220 C   0  0  0  0  0  0  0  0  0  0  0  0
   10.4550   -8.6200   16.8300 C   0  0  0  0  0  0  0  0  0  0  0  0
   11.7580   -8.2410   17.1800 C   0  0  0  0  0  0  0  0  0  0  0  0
   12.1190   -6.8710   16.9410 C   0  0  0  0  0  0  0  0  0  0  0  0
   11.2500   -5.9650   16.3420 C   0  0  0  0  0  0  0  0  0  0  0  0
   12.6740   -9.2070   17.8060 C   0  0  0  0  0  0  0  0  0  0  0  0
   12.3170  -10.0170   18.9300 C   0  0  0  0  0  0  0  0  0  0  0  0
   13.5460  -11.0820   19.4240 S   0  0  0  0  0  0  0  0  0  0  0  0
   14.5830  -10.5440   18.2130 C   0  0  0  0  0  0  0  0  0  0  0  0
   13.9960   -9.5600   17.3730 C   0  0  0  0  0  0  0  0  0  0  0  0
   14.7640   -8.9120   16.2320 C   0  0  0  0  0  0  0  0  0  0  0  0
   15.4510   -7.6670   16.7550 C   0  0  0  0  0  0  0  0  0  0  0  0
   15.7470   -7.6040   17.9260 O   0  0  0  0  0  0  0  0  0  0  0  0
   15.7340   -6.8080   15.7290 N   0  0  0  0  0  0  0  0  0  0  0  0
   16.2580   -5.6490   15.8760 C   0  0  0  0  0  0  0  0  0  0  0  0
   16.7670   -5.1010   16.9950 N   0  0  0  0  0  0  0  0  0  0  0  0
   16.4490   -4.8470   14.8020 N   0  0  0  0  0  0  0  0  0  0  0  0
   15.8980  -11.0980   18.0410 C   0  0  0  0  0  0  0  0  0  0  0  0
   16.9250  -10.7100   18.9880 C   0  0  0  0  0  0  0  0  0  0  0  0
   18.2290  -11.2180   18.8530 C   0  0  0  0  0  0  0  0  0  0  0  0
   18.5600  -12.0590   17.7680 C   0  0  0  0  0  0  0  0  0  0  0  0
   17.5740  -12.4410   16.8330 C   0  0  0  0  0  0  0  0  0  0  0  0
   16.2540  -11.9470   16.9430 C   0  0  0  0  0  0  0  0  0  0  0  0
   15.1300  -12.4800   15.7320 Cl  0  0  0  0  0  0  0  0  0  0  0  0
    9.0763   -1.1956   14.6740 H   0  0  0  0  0  0  0  0  0  0  0  0
    9.7395   -2.2089   13.3473 H   0  0  0  0  0  0  0  0  0  0  0  0
    8.0017   -1.7540   13.3473 H   0  0  0  0  0  0  0  0  0  0  0  0
    8.3147   -2.9619   15.7984 H   0  0  0  0  0  0  0  0  0  0  0  0
    7.6791   -3.7331   14.2657 H   0  0  0  0  0  0  0  0  0  0  0  0
    9.9563   -4.5109   13.7586 H   0  0  0  0  0  0  0  0  0  0  0  0
   10.5243   -3.8766   15.3183 H   0  0  0  0  0  0  0  0  0  0  0  0
    8.5649   -8.0487   15.9203 H   0  0  0  0  0  0  0  0  0  0  0  0
   10.1187   -9.6475   17.0327 H   0  0  0  0  0  0  0  0  0  0  0  0
   13.1190   -6.5261   17.2427 H   0  0  0  0  0  0  0  0  0  0  0  0
   11.5848   -4.9371   16.1390 H   0  0  0  0  0  0  0  0  0  0  0  0
   11.3381   -9.9562   19.4281 H   0  0  0  0  0  0  0  0  0  0  0  0
   14.0680   -8.6395   15.4249 H   0  0  0  0  0  0  0  0  0  0  0  0
   15.5119   -9.6150   15.8365 H   0  0  0  0  0  0  0  0  0  0  0  0
   15.5100   -7.1147   14.7716 H   0  0  0  0  0  0  0  0  0  0  0  0
   16.6944   -5.6012   17.8924 H   0  0  0  0  0  0  0  0  0  0  0  0
   16.6856   -3.8536   14.9366 H   0  0  0  0  0  0  0  0  0  0  0  0
   16.3577   -5.2303   13.8503 H   0  0  0  0  0  0  0  0  0  0  0  0
   16.6845  -10.0198   19.8101 H   0  0  0  0  0  0  0  0  0  0  0  0
   18.9963  -10.9587   19.5973 H   0  0  0  0  0  0  0  0  0  0  0  0
   19.5929  -12.4187   17.6507 H   0  0  0  0  0  0  0  0  0  0  0  0
   17.8343  -13.1273   16.0137 H   0  0  0  0  0  0  0  0  0  0  0  0
  1  2  1  0
  2  3  1  0
  3  4  1  0
 22 20  1  0
  4  5  1  0
 19 20  1  0
 19 17  1  0
 29 28  1  0
 20 21  2  3
  5  6  2  0
  5 10  1  0
  6  7  1  0
 16 17  1  0
 16 15  1  0
 10  9  2  0
 17 18  2  0
  7  8  2  0
 27 28  2  0
 27 26  1  0
  9  8  1  0
 28 23  1  0
  8 11  1  0
 15 11  1  0
 15 14  2  0
 26 25  2  0
 11 12  2  0
 23 14  1  0
 23 24  2  0
 14 13  1  0
 25 24  1  0
 12 13  1  0
  1 30  1  0
  1 31  1  0
  1 32  1  0
  2 33  1  0
  2 34  1  0
  3 35  1  0
  3 36  1  0
  6 37  1  0
  7 38  1  0
  9 39  1  0
 10 40  1  0
 12 41  1  0
 16 42  1  0
 16 43  1  0
 19 44  1  0
 21 45  1  0
 22 46  1  0
 22 47  1  0
 24 48  1  0
 25 49  1  0
 26 50  1  0
 27 51  1  0
A    1
C1
A    2
C2
A    3
C3
A    4
O1
A    5
C4
A    6
C5
A    7
C6
A    8
C7
A    9
C8
A   10
C9
A   11
C10
A   12
C11
A   13
S1
A   14
C12
A   15
C13
A   16
C14
A   17
C15
A   18
O2
A   19
N1
A   20
C16
A   21
N2
A   22
N3
A   23
C17
A   24
C18
A   25
C19
A   26
C20
A   27
C21
A   28
C22
A   29
CL1
M  END
