2QU6_857_A_501
     RDKit          3D

 62 66  0  0  0  0  0  0  0  0999 V2000
   39.6450   38.4890   10.4420 C   0  0  0  0  0  0  0  0  0  0  0  0
   38.7970   37.4690   10.9550 C   0  0  0  0  0  0  0  0  0  0  0  0
   37.6380   37.8100   11.7690 C   0  0  0  0  0  0  0  0  0  0  0  0
   37.2520   39.1400   12.0840 C   0  0  0  0  0  0  0  0  0  0  0  0
   38.0880   40.1830   11.5640 C   0  0  0  0  0  0  0  0  0  0  0  0
   39.2510   39.8260   10.7710 C   0  0  0  0  0  0  0  0  0  0  0  0
   40.9570   27.6530   13.2560 C   0  0  0  0  0  0  0  0  0  0  0  0
   40.9480   27.7800   11.8820 N   0  0  0  0  0  0  0  0  0  0  0  0
   40.1950   28.5270   14.0560 C   0  0  0  0  0  0  0  0  0  0  0  0
   39.4410   29.4710   13.3130 C   0  0  0  0  0  0  0  0  0  0  0  0
   39.4360   29.5680   11.8620 C   0  0  0  0  0  0  0  0  0  0  0  0
   40.2500   28.6630   11.1300 C   0  0  0  0  0  0  0  0  0  0  0  0
   38.6950   32.6260   13.5220 C   0  0  0  0  0  0  0  0  0  0  0  0
   37.8610   33.6870   13.0770 C   0  0  0  0  0  0  0  0  0  0  0  0
   36.4470   33.4940   12.8460 C   0  0  0  0  0  0  0  0  0  0  0  0
   35.7930   32.2230   13.1150 C   0  0  0  0  0  0  0  0  0  0  0  0
   36.5820   31.1190   13.6090 C   0  0  0  0  0  0  0  0  0  0  0  0
   38.0140   31.3540   13.7710 C   0  0  0  0  0  0  0  0  0  0  0  0
   36.9340   35.5190   12.5550 C   0  0  0  0  0  0  0  0  0  0  0  0
   36.7430   36.9140   12.2430 N   0  0  0  0  0  0  0  0  0  0  0  0
   38.1380   34.9840   12.9020 N   0  0  0  0  0  0  0  0  0  0  0  0
   40.2450   41.0850   10.1650 Cl  0  0  0  0  0  0  0  0  0  0  0  0
   38.7070   30.2420   14.1750 O   0  0  0  0  0  0  0  0  0  0  0  0
   35.8870   34.6340   12.5110 O   0  0  0  0  0  0  0  0  0  0  0  0
   41.6870   26.5810   13.9270 C   0  0  0  0  0  0  0  0  0  0  0  0
   41.6550   26.4290   15.1430 O   0  0  0  0  0  0  0  0  0  0  0  0
   42.4110   25.7570   13.1440 N   0  0  0  0  0  0  0  0  0  0  0  0
   43.1400   24.7140   13.8860 C   0  0  0  0  0  0  0  0  0  0  0  0
   37.7660   41.5070   11.8390 O   0  0  0  0  0  0  0  0  0  0  0  0
   36.9760   41.7190   13.0240 C   0  0  0  0  0  0  0  0  0  0  0  0
   37.5600   43.9470   13.9550 N   0  0  0  0  0  0  0  0  0  0  0  0
   38.4760   44.8730   13.2250 C   0  0  0  0  0  0  0  0  0  0  0  0
   38.0680   44.7030   11.7730 C   0  0  0  0  0  0  0  0  0  0  0  0
   36.8280   43.8450   11.7420 C   0  0  0  0  0  0  0  0  0  0  0  0
   36.5800   43.1900   13.0970 C   0  0  0  0  0  0  0  0  0  0  0  0
   37.1500   44.3340   15.3240 C   0  0  0  0  0  0  0  0  0  0  0  0
   40.5370   38.2675    9.8376 H   0  0  0  0  0  0  0  0  0  0  0  0
   39.0181   36.4141   10.7354 H   0  0  0  0  0  0  0  0  0  0  0  0
   36.3620   39.3579   12.6925 H   0  0  0  0  0  0  0  0  0  0  0  0
   40.1856   28.4816   15.1550 H   0  0  0  0  0  0  0  0  0  0  0  0
   38.8202   30.3198   11.3467 H   0  0  0  0  0  0  0  0  0  0  0  0
   40.3089   28.6785   10.0317 H   0  0  0  0  0  0  0  0  0  0  0  0
   39.7778   32.7517   13.6693 H   0  0  0  0  0  0  0  0  0  0  0  0
   34.7128   32.1044   12.9446 H   0  0  0  0  0  0  0  0  0  0  0  0
   36.1262   30.1477   13.8516 H   0  0  0  0  0  0  0  0  0  0  0  0
   35.7931   37.2784   12.4035 H   0  0  0  0  0  0  0  0  0  0  0  0
   42.4510   25.8483   12.1188 H   0  0  0  0  0  0  0  0  0  0  0  0
   43.0222   24.8826   14.9666 H   0  0  0  0  0  0  0  0  0  0  0  0
   42.7349   23.7258   13.6227 H   0  0  0  0  0  0  0  0  0  0  0  0
   44.2073   24.7548   13.6227 H   0  0  0  0  0  0  0  0  0  0  0  0
   36.0713   41.0947   12.9812 H   0  0  0  0  0  0  0  0  0  0  0  0
   37.5600   41.4456   13.9152 H   0  0  0  0  0  0  0  0  0  0  0  0
   38.3299   45.9120   13.5554 H   0  0  0  0  0  0  0  0  0  0  0  0
   39.5389   44.6506   13.4003 H   0  0  0  0  0  0  0  0  0  0  0  0
   38.8769   44.2126   11.2116 H   0  0  0  0  0  0  0  0  0  0  0  0
   37.8706   45.6818   11.3114 H   0  0  0  0  0  0  0  0  0  0  0  0
   36.9528   43.0605   10.9811 H   0  0  0  0  0  0  0  0  0  0  0  0
   35.9664   44.4845   11.4999 H   0  0  0  0  0  0  0  0  0  0  0  0
   35.5396   43.2216   13.4526 H   0  0  0  0  0  0  0  0  0  0  0  0
   37.7458   43.7716   16.0580 H   0  0  0  0  0  0  0  0  0  0  0  0
   37.3163   45.4121   15.4656 H   0  0  0  0  0  0  0  0  0  0  0  0
   36.0833   44.1058   15.4656 H   0  0  0  0  0  0  0  0  0  0  0  0
 28 27  1  0
 26 25  2  0
 27 25  1  0
 25  7  1  0
  7  8  2  0
  7  9  1  0
  8 12  1  0
  9 10  2  0
 12 11  2  0
 10 11  1  0
 10 23  1  0
 23 18  1  0
 17 18  1  0
 17 16  2  0
 18 13  2  0
 16 15  1  0
 13 14  1  0
 15 14  2  0
 15 24  1  0
 14 21  1  0
 24 19  1  0
 21 19  2  0
 19 20  1  0
 20  3  1  0
  3  2  1  0
  3  4  2  0
  2  1  2  0
  4  5  1  0
  1  6  1  0
  5  6  2  0
  5 29  1  0
  6 22  1  0
 30 29  1  0
 30 35  1  0
 35 31  1  0
 35 34  1  0
 36 31  1  0
 31 32  1  0
 34 33  1  0
 32 33  1  0
  1 37  1  0
  2 38  1  0
  4 39  1  0
  9 40  1  0
 11 41  1  0
 12 42  1  0
 13 43  1  0
 16 44  1  0
 17 45  1  0
 20 46  1  0
 27 47  1  0
 28 48  1  0
 28 49  1  0
 28 50  1  0
 30 51  1  0
 30 52  1  0
 32 53  1  0
 32 54  1  0
 33 55  1  0
 33 56  1  0
 34 57  1  0
 34 58  1  0
 35 59  1  0
 36 60  1  0
 36 61  1  0
 36 62  1  0
A    1
C21
A    2
C24
A    3
C25
A    4
C6
A    5
C7
A    6
C10
A    7
C11
A    8
N3
A    9
C12
A   10
C13
A   11
C8
A   12
C9
A   13
C14
A   14
C15
A   15
C16
A   16
C17
A   17
C1
A   18
C18
A   19
C19
A   20
N2
A   21
N4
A   22
CL
A   23
O1
A   24
O4
A   25
C20
A   26
O2
A   27
N5
A   28
C22
A   29
O3
A   30
C23
A   31
N1
A   32
C2
A   33
C3
A   34
C4
A   35
C5
A   36
C26
M  END
