2QWE_GNA_A_800
     RDKit          3D

 45 45  0  0  0  0  0  0  0  0999 V2000
   23.5900   19.7430   64.7850 C   0  0  0  0  0  0  0  0  0  0  0  0
   24.3030   18.7620   64.0840 C   0  0  0  0  0  0  0  0  0  0  0  0
   23.6740   17.6240   63.5690 C   0  0  0  0  0  0  0  0  0  0  0  0
   24.3480   16.6530   62.6020 C   0  0  0  0  0  0  0  0  0  0  0  0
   25.8650   16.7360   62.8420 C   0  0  0  0  0  0  0  0  0  0  0  0
   26.3000   18.2030   62.7870 C   0  0  0  0  0  0  0  0  0  0  0  0
   27.8160   18.3480   62.9150 C   0  0  0  0  0  0  0  0  0  0  0  0
   28.2250   19.8380   63.0090 C   0  0  0  0  0  0  0  0  0  0  0  0
   29.7320   20.1250   63.1090 C   0  0  0  0  0  0  0  0  0  0  0  0
   27.0310   14.7840   61.9000 C   0  0  0  0  0  0  0  0  0  0  0  0
   27.6800   14.2030   60.6390 C   0  0  0  0  0  0  0  0  0  0  0  0
   26.5400   16.0100   61.7400 N   0  0  0  0  0  0  0  0  0  0  0  0
   23.8240   15.2990   62.7340 N   0  0  0  0  0  0  0  0  0  0  0  0
   23.7700   14.3740   61.7680 C   0  0  0  0  0  0  0  0  0  0  0  0
   23.8750   14.7120   60.4780 N   0  0  0  0  0  0  0  0  0  0  0  0
   23.6430   13.0920   62.1020 N   0  0  0  0  0  0  0  0  0  0  0  0
   24.1940   20.7960   65.0460 O   0  0  0  0  0  0  0  0  0  0  0  0
   22.3740   19.6110   65.0730 O   0  0  0  0  0  0  0  0  0  0  0  0
   25.6830   18.9100   63.8820 O   0  0  0  0  0  0  0  0  0  0  0  0
   28.2320   17.6940   64.0550 O   0  0  0  0  0  0  0  0  0  0  0  0
   27.8180   20.3710   61.8230 O   0  0  0  0  0  0  0  0  0  0  0  0
   30.4290   19.4520   62.1410 O   0  0  0  0  0  0  0  0  0  0  0  0
   26.9920   14.1770   62.9710 O   0  0  0  0  0  0  0  0  0  0  0  0
   24.4960   18.2288   65.0266 H   0  0  0  0  0  0  0  0  0  0  0  0
   23.3789   17.0228   64.4416 H   0  0  0  0  0  0  0  0  0  0  0  0
   22.9094   18.0765   62.9204 H   0  0  0  0  0  0  0  0  0  0  0  0
   24.1287   16.9356   61.5618 H   0  0  0  0  0  0  0  0  0  0  0  0
   26.1229   16.3029   63.8197 H   0  0  0  0  0  0  0  0  0  0  0  0
   25.9905   18.6153   61.8153 H   0  0  0  0  0  0  0  0  0  0  0  0
   28.2887   17.9116   62.0228 H   0  0  0  0  0  0  0  0  0  0  0  0
   27.7817   20.2466   63.9291 H   0  0  0  0  0  0  0  0  0  0  0  0
   29.9005   21.2052   62.9872 H   0  0  0  0  0  0  0  0  0  0  0  0
   30.0869   19.7860   64.0935 H   0  0  0  0  0  0  0  0  0  0  0  0
   28.4710   13.4949   60.9268 H   0  0  0  0  0  0  0  0  0  0  0  0
   26.9183   13.6794   60.0426 H   0  0  0  0  0  0  0  0  0  0  0  0
   28.1164   15.0177   60.0426 H   0  0  0  0  0  0  0  0  0  0  0  0
   26.6317   16.4687   60.8224 H   0  0  0  0  0  0  0  0  0  0  0  0
   23.4606   15.0283   63.6590 H   0  0  0  0  0  0  0  0  0  0  0  0
   23.8309   13.9848   59.7499 H   0  0  0  0  0  0  0  0  0  0  0  0
   23.6159   12.8187   63.0947 H   0  0  0  0  0  0  0  0  0  0  0  0
   23.5718   12.3731   61.3678 H   0  0  0  0  0  0  0  0  0  0  0  0
   22.0903   19.5802   66.0210 H   0  0  0  0  0  0  0  0  0  0  0  0
   27.9173   18.1887   64.8527 H   0  0  0  0  0  0  0  0  0  0  0  0
   27.2263   21.1458   61.9952 H   0  0  0  0  0  0  0  0  0  0  0  0
   31.0715   18.8316   62.5681 H   0  0  0  0  0  0  0  0  0  0  0  0
  1  2  1  0
  1 17  2  0
  1 18  1  0
  2  3  1  0
  2 19  1  0
  3  4  1  0
  4  5  1  0
  4 13  1  0
  5  6  1  0
  5 12  1  0
  6  7  1  0
  6 19  1  0
  7  8  1  0
  7 20  1  0
  8  9  1  0
  8 21  1  0
  9 22  1  0
 10 11  1  0
 10 12  1  0
 10 23  2  0
 13 14  1  0
 14 15  2  3
 14 16  1  0
  2 24  1  0
  3 25  1  0
  3 26  1  0
  4 27  1  0
  5 28  1  0
  6 29  1  0
  7 30  1  0
  8 31  1  0
  9 32  1  0
  9 33  1  0
 11 34  1  0
 11 35  1  0
 11 36  1  0
 12 37  1  0
 13 38  1  0
 15 39  1  0
 16 40  1  0
 16 41  1  0
 18 42  1  0
 20 43  1  0
 21 44  1  0
 22 45  1  0
A    1
C1
A    2
C2
A    3
C3
A    4
C4
A    5
C5
A    6
C6
A    7
C7
A    8
C8
A    9
C9
A   10
C10
A   11
C11
A   12
N5
A   13
N4
A   14
C12
A   15
N6
A   16
N7
A   17
O1A
A   18
O1B
A   19
O6
A   20
O7
A   21
O8
A   22
O9
A   23
O10
M  END
