2QWG_G28_A_800
     RDKit          3D

 44 44  0  0  0  0  0  0  0  0999 V2000
   23.4500   19.6580   64.7580 C   0  0  0  0  0  0  0  0  0  0  0  0
   24.1630   20.6230   65.0690 O   0  0  0  0  0  0  0  0  0  0  0  0
   22.2240   19.6710   64.9850 O   0  0  0  0  0  0  0  0  0  0  0  0
   24.0880   18.5950   64.0810 C   0  0  0  0  0  0  0  0  0  0  0  0
   23.3800   17.5400   63.5650 C   0  0  0  0  0  0  0  0  0  0  0  0
   24.0390   16.4860   62.6690 C   0  0  0  0  0  0  0  0  0  0  0  0
   25.5350   16.4960   62.8190 C   0  0  0  0  0  0  0  0  0  0  0  0
   26.1550   15.7860   61.6720 N   0  0  0  0  0  0  0  0  0  0  0  0
   26.8950   14.7050   61.8820 C   0  0  0  0  0  0  0  0  0  0  0  0
   27.0700   14.2590   63.0090 O   0  0  0  0  0  0  0  0  0  0  0  0
   27.4990   14.0410   60.6580 C   0  0  0  0  0  0  0  0  0  0  0  0
   26.0570   17.9380   62.8380 C   0  0  0  0  0  0  0  0  0  0  0  0
   25.4940   18.6490   63.8950 O   0  0  0  0  0  0  0  0  0  0  0  0
   27.5590   17.9210   63.0960 C   0  0  0  0  0  0  0  0  0  0  0  0
   27.9090   17.5890   64.2260 O   0  0  0  0  0  0  0  0  0  0  0  0
   28.4510   18.2570   62.1550 N   0  0  0  0  0  0  0  0  0  0  0  0
   29.8330   18.1900   62.6340 C   0  0  0  0  0  0  0  0  0  0  0  0
   30.3980   16.8090   62.3030 C   0  0  0  0  0  0  0  0  0  0  0  0
   28.0510   18.6840   60.8200 C   0  0  0  0  0  0  0  0  0  0  0  0
   28.1350   20.1720   60.7760 C   0  0  0  0  0  0  0  0  0  0  0  0
   23.5780   15.2040   63.0750 N   0  0  0  0  0  0  0  0  0  0  0  0
   24.3199   20.8354   66.0231 H   0  0  0  0  0  0  0  0  0  0  0  0
   24.1987   18.0551   65.0330 H   0  0  0  0  0  0  0  0  0  0  0  0
   22.9639   16.9967   64.4262 H   0  0  0  0  0  0  0  0  0  0  0  0
   22.6911   18.0402   62.8684 H   0  0  0  0  0  0  0  0  0  0  0  0
   23.7797   16.7094   61.6236 H   0  0  0  0  0  0  0  0  0  0  0  0
   25.7953   15.9959   63.7635 H   0  0  0  0  0  0  0  0  0  0  0  0
   26.0106   16.1327   60.7129 H   0  0  0  0  0  0  0  0  0  0  0  0
   28.2077   13.2619   60.9756 H   0  0  0  0  0  0  0  0  0  0  0  0
   26.6991   13.5856   60.0557 H   0  0  0  0  0  0  0  0  0  0  0  0
   28.0279   14.7943   60.0557 H   0  0  0  0  0  0  0  0  0  0  0  0
   25.8033   18.4023   61.8736 H   0  0  0  0  0  0  0  0  0  0  0  0
   30.4351   18.9653   62.1377 H   0  0  0  0  0  0  0  0  0  0  0  0
   29.8623   18.3571   63.7208 H   0  0  0  0  0  0  0  0  0  0  0  0
   30.6186   16.2698   63.2361 H   0  0  0  0  0  0  0  0  0  0  0  0
   29.6598   16.2415   61.7174 H   0  0  0  0  0  0  0  0  0  0  0  0
   31.3223   16.9217   61.7174 H   0  0  0  0  0  0  0  0  0  0  0  0
   28.7265   18.2482   60.0691 H   0  0  0  0  0  0  0  0  0  0  0  0
   27.0267   18.3492   60.5991 H   0  0  0  0  0  0  0  0  0  0  0  0
   28.1574   20.5685   61.8018 H   0  0  0  0  0  0  0  0  0  0  0  0
   29.0515   20.4720   60.2469 H   0  0  0  0  0  0  0  0  0  0  0  0
   27.2581   20.5733   60.2469 H   0  0  0  0  0  0  0  0  0  0  0  0
   23.5605   15.1554   64.1037 H   0  0  0  0  0  0  0  0  0  0  0  0
   22.6284   15.0485   62.7077 H   0  0  0  0  0  0  0  0  0  0  0  0
  1  2  1  0
  1  3  2  0
  1  4  1  0
  4  5  1  0
  4 13  1  0
  5  6  1  0
  6  7  1  0
  6 21  1  0
  7  8  1  0
  7 12  1  0
  8  9  1  0
  9 10  2  0
  9 11  1  0
 12 13  1  0
 12 14  1  0
 14 15  2  0
 14 16  1  0
 16 17  1  0
 16 19  1  0
 17 18  1  0
 19 20  1  0
  2 22  1  0
  4 23  1  0
  5 24  1  0
  5 25  1  0
  6 26  1  0
  7 27  1  0
  8 28  1  0
 11 29  1  0
 11 30  1  0
 11 31  1  0
 12 32  1  0
 17 33  1  0
 17 34  1  0
 18 35  1  0
 18 36  1  0
 18 37  1  0
 19 38  1  0
 19 39  1  0
 20 40  1  0
 20 41  1  0
 20 42  1  0
 21 43  1  0
 21 44  1  0
A    1
C1
A    2
O1A
A    3
O1B
A    4
C2
A    5
C3
A    6
C4
A    7
C5
A    8
N5
A    9
C10
A   10
O10
A   11
C11
A   12
C6
A   13
O6
A   14
C7
A   15
O7
A   16
N8
A   17
C81
A   18
C82
A   19
C9
A   20
C91
A   21
N4
M  END
