2QX8_ML2_A_235
     RDKit          3D

 33 34  0  0  0  0  0  0  0  0999 V2000
   24.9240   44.8810   68.8910 C   0  0  0  0  0  0  0  0  0  0  0  0
   25.9400   46.5820   69.7820 C   0  0  0  0  0  0  0  0  0  0  0  0
   26.8100   47.4130   70.4990 C   0  0  0  0  0  0  0  0  0  0  0  0
   26.6040   48.8080   70.4120 C   0  0  0  0  0  0  0  0  0  0  0  0
   26.3180   51.6760   70.2300 C   0  0  0  0  0  0  0  0  0  0  0  0
   24.2220   46.0120   68.4220 C   0  0  0  0  0  0  0  0  0  0  0  0
   23.0040   46.0550   67.4800 C   0  0  0  0  0  0  0  0  0  0  0  0
   20.6860   47.0620   67.4210 N   0  0  0  0  0  0  0  0  0  0  0  0
   20.7120   48.3400   67.1600 C   0  0  0  0  0  0  0  0  0  0  0  0
   19.5840   48.8510   66.2890 C   0  0  0  0  0  0  0  0  0  0  0  0
   24.5400   42.9200   68.4600 I   0  0  0  0  0  0  0  0  0  0  0  0
   25.9270   45.2650   69.6900 N   0  0  0  0  0  0  0  0  0  0  0  0
   25.5460   49.3720   69.6270 C   0  0  0  0  0  0  0  0  0  0  0  0
   25.4070   50.7670   69.5760 O   0  0  0  0  0  0  0  0  0  0  0  0
   24.6650   48.5080   68.9090 C   0  0  0  0  0  0  0  0  0  0  0  0
   24.8830   47.1060   68.9980 C   0  0  0  0  0  0  0  0  0  0  0  0
   21.7570   46.5310   68.2800 C   0  0  0  0  0  0  0  0  0  0  0  0
   21.5560   49.1500   67.5590 O   0  0  0  0  0  0  0  0  0  0  0  0
   27.6247   46.9944   71.1082 H   0  0  0  0  0  0  0  0  0  0  0  0
   27.2762   49.4817   70.9636 H   0  0  0  0  0  0  0  0  0  0  0  0
   26.2168   51.5750   71.3207 H   0  0  0  0  0  0  0  0  0  0  0  0
   27.3501   51.4370   69.9338 H   0  0  0  0  0  0  0  0  0  0  0  0
   26.0813   52.7086   69.9338 H   0  0  0  0  0  0  0  0  0  0  0  0
   22.8183   45.0504   67.0721 H   0  0  0  0  0  0  0  0  0  0  0  0
   23.2008   46.7519   66.6520 H   0  0  0  0  0  0  0  0  0  0  0  0
   19.9481   46.4511   67.0425 H   0  0  0  0  0  0  0  0  0  0  0  0
   18.7673   49.2210   66.9263 H   0  0  0  0  0  0  0  0  0  0  0  0
   19.9532   49.6698   65.6539 H   0  0  0  0  0  0  0  0  0  0  0  0
   19.2119   48.0335   65.6539 H   0  0  0  0  0  0  0  0  0  0  0  0
   26.5875   44.6302   70.1609 H   0  0  0  0  0  0  0  0  0  0  0  0
   23.8413   48.9153   68.3044 H   0  0  0  0  0  0  0  0  0  0  0  0
   22.0700   47.3216   68.9778 H   0  0  0  0  0  0  0  0  0  0  0  0
   21.3508   45.6540   68.8052 H   0  0  0  0  0  0  0  0  0  0  0  0
 10  9  1  0
  9  8  1  0
  9 18  2  0
  8 17  1  0
  7 17  1  0
  7  6  1  0
  6  1  2  0
  6 16  1  0
 11  1  1  0
  1 12  1  0
 15 16  2  0
 15 13  1  0
 16  2  1  0
 14 13  1  0
 14  5  1  0
 13  4  2  0
 12  2  1  0
  2  3  2  0
  4  3  1  0
  3 19  1  0
  4 20  1  0
  5 21  1  0
  5 22  1  0
  5 23  1  0
  7 24  1  0
  7 25  1  0
  8 26  1  0
 10 27  1  0
 10 28  1  0
 10 29  1  0
 12 30  1  0
 15 31  1  0
 17 32  1  0
 17 33  1  0
A    1
C2
A    2
C4
A    3
C5
A    4
C6
A    5
C9
A    6
C12
A    7
C13
A    8
N15
A    9
C16
A   10
C18
A   11
I1
A   12
N3
A   13
C7
A   14
O8
A   15
C10
A   16
C11
A   17
C14
A   18
O17
M  END
