2QZR_S79_A_500
     RDKit          3D

 43 47  0  0  0  0  0  0  0  0999 V2000
   14.0240   15.8320   25.0270 N   0  0  0  0  0  0  0  0  0  0  0  0
   14.9590   16.2410   24.0420 C   0  0  0  0  0  0  0  0  0  0  0  0
   14.5980   16.1580   22.7440 N   0  0  0  0  0  0  0  0  0  0  0  0
   15.4700   16.5360   21.7870 C   0  0  0  0  0  0  0  0  0  0  0  0
   15.1050   16.4690   20.3200 C   0  0  0  0  0  0  0  0  0  0  0  0
   16.1120   16.9010   19.3840 C   0  0  0  0  0  0  0  0  0  0  0  0
   15.9620   16.9320   18.0610 N   0  0  0  0  0  0  0  0  0  0  0  0
   17.0690   17.3700   17.6010 C   0  0  0  0  0  0  0  0  0  0  0  0
   17.3070   17.5300   16.2780 N   0  0  0  0  0  0  0  0  0  0  0  0
   16.1170   17.6540   15.4600 C   0  0  0  0  0  0  0  0  0  0  0  0
   16.4390   18.4280   14.1890 C   0  0  0  0  0  0  0  0  0  0  0  0
   16.9120   19.7430   14.2360 C   0  0  0  0  0  0  0  0  0  0  0  0
   17.1180   20.4040   15.4500 C   0  0  0  0  0  0  0  0  0  0  0  0
   17.6020   21.7150   15.4750 C   0  0  0  0  0  0  0  0  0  0  0  0
   17.8680   22.3860   14.2800 C   0  0  0  0  0  0  0  0  0  0  0  0
   17.6610   21.7290   13.0640 C   0  0  0  0  0  0  0  0  0  0  0  0
   17.1810   20.4160   13.0380 C   0  0  0  0  0  0  0  0  0  0  0  0
   16.9820   19.7760   11.8110 C   0  0  0  0  0  0  0  0  0  0  0  0
   16.5040   18.4610   11.7690 C   0  0  0  0  0  0  0  0  0  0  0  0
   16.2280   17.7870   12.9610 C   0  0  0  0  0  0  0  0  0  0  0  0
   18.0200   17.6830   18.4980 N   0  0  0  0  0  0  0  0  0  0  0  0
   17.1990   17.3090   19.7000 C   0  0  0  0  0  0  0  0  0  0  0  0
   17.6850   17.4150   21.0560 C   0  0  0  0  0  0  0  0  0  0  0  0
   16.7340   16.9980   22.1510 C   0  0  0  0  0  0  0  0  0  0  0  0
   17.0740   17.0630   23.5040 C   0  0  0  0  0  0  0  0  0  0  0  0
   18.3380   17.5120   23.8790 O   0  0  0  0  0  0  0  0  0  0  0  0
   16.1740   16.6840   24.4310 N   0  0  0  0  0  0  0  0  0  0  0  0
   14.2520   15.9318   26.0265 H   0  0  0  0  0  0  0  0  0  0  0  0
   13.1170   15.4352   24.7428 H   0  0  0  0  0  0  0  0  0  0  0  0
   14.1211   16.1089   19.9851 H   0  0  0  0  0  0  0  0  0  0  0  0
   15.1276   16.6596   17.5221 H   0  0  0  0  0  0  0  0  0  0  0  0
   18.2582   17.5611   15.8840 H   0  0  0  0  0  0  0  0  0  0  0  0
   15.3399   18.1890   16.0256 H   0  0  0  0  0  0  0  0  0  0  0  0
   15.7569   16.6501   15.1908 H   0  0  0  0  0  0  0  0  0  0  0  0
   16.8970   19.8872   16.3956 H   0  0  0  0  0  0  0  0  0  0  0  0
   17.7736   22.2188   16.4377 H   0  0  0  0  0  0  0  0  0  0  0  0
   18.2371   23.4221   14.2954 H   0  0  0  0  0  0  0  0  0  0  0  0
   17.8775   22.2493   12.1193 H   0  0  0  0  0  0  0  0  0  0  0  0
   17.2021   20.3085   10.8740 H   0  0  0  0  0  0  0  0  0  0  0  0
   16.3465   17.9608   10.8020 H   0  0  0  0  0  0  0  0  0  0  0  0
   15.8460   16.7558   12.9357 H   0  0  0  0  0  0  0  0  0  0  0  0
   18.6978   17.7814   21.2794 H   0  0  0  0  0  0  0  0  0  0  0  0
   16.4111   16.7317   25.4322 H   0  0  0  0  0  0  0  0  0  0  0  0
 19 18  2  0
 19 20  1  0
 18 17  1  0
 20 11  2  0
 17 16  2  0
 17 12  1  0
 16 15  1  0
 11 12  1  0
 11 10  1  0
 12 13  2  0
 15 14  2  0
 13 14  1  0
 10  9  1  0
  9  8  1  0
  8  7  1  0
  8 21  2  0
  7  6  1  0
 21 22  1  0
  6 22  2  0
  6  5  1  0
 22 23  1  0
  5  4  2  0
 23 24  2  0
  4 24  1  0
  4  3  1  0
 24 25  1  0
  3  2  2  0
 25 26  2  0
 25 27  1  0
  2 27  1  0
  2  1  1  0
  1 28  1  0
  1 29  1  0
  5 30  1  0
  7 31  1  0
  9 32  1  0
 10 33  1  0
 10 34  1  0
 13 35  1  0
 14 36  1  0
 15 37  1  0
 16 38  1  0
 18 39  1  0
 19 40  1  0
 20 41  1  0
 23 42  1  0
 27 43  1  0
A    1
N1
A    2
C8
A    3
N2
A    4
C4
A    5
C5
A    6
C6
A    7
N3
A    8
C9
A    9
N4
A   10
C17
A   11
C18
A   12
C20
A   13
C26
A   14
C25
A   15
C24
A   16
C23
A   17
C21
A   18
C22
A   19
C27
A   20
C19
A   21
N5
A   22
C1
A   23
C2
A   24
C3
A   25
C7
A   26
O1
A   27
N6
M  END
