2QZS_250_A_488
     RDKit          3D

 37 37  0  0  0  0  0  0  0  0999 V2000
   24.7520   -4.6430   26.5010 O   0  0  0  0  0  0  0  0  0  0  0  0
   25.9820   -4.0970   27.1060 S   0  0  0  0  0  0  0  0  0  0  0  0
   26.9860   -3.8130   26.0570 O   0  0  0  0  0  0  0  0  0  0  0  0
   25.6650   -2.8260   27.7940 O   0  0  0  0  0  0  0  0  0  0  0  0
   26.6860   -5.1890   28.1460 C   0  0  0  0  0  0  0  0  0  0  0  0
   25.7310   -5.6870   29.2300 C   0  0  0  0  0  0  0  0  0  0  0  0
   24.4070   -5.8530   28.6980 O   0  0  0  0  0  0  0  0  0  0  0  0
   25.7640   -4.7340   30.4220 C   0  0  0  0  0  0  0  0  0  0  0  0
   25.1730   -5.4670   31.5330 N   0  0  0  0  0  0  0  0  0  0  0  0
   23.7710   -5.2170   31.8760 C   0  0  0  0  0  0  0  0  0  0  0  0
   23.5060   -5.7290   33.2860 C   0  0  0  0  0  0  0  0  0  0  0  0
   23.9120   -7.1350   33.2860 N   0  0  0  0  0  0  0  0  0  0  0  0
   25.0500   -7.6200   32.5050 C   0  0  0  0  0  0  0  0  0  0  0  0
   25.9730   -6.4230   32.2780 C   0  0  0  0  0  0  0  0  0  0  0  0
   23.1730   -8.0890   34.1070 C   0  0  0  0  0  0  0  0  0  0  0  0
   24.0370   -8.2000   35.3680 C   0  0  0  0  0  0  0  0  0  0  0  0
   23.2070   -8.4860   36.4950 O   0  0  0  0  0  0  0  0  0  0  0  0
   25.6993   -2.9636   28.7738 H   0  0  0  0  0  0  0  0  0  0  0  0
   27.0342   -6.0538   27.5622 H   0  0  0  0  0  0  0  0  0  0  0  0
   27.5149   -4.6723   28.6518 H   0  0  0  0  0  0  0  0  0  0  0  0
   26.0570   -6.6761   29.5841 H   0  0  0  0  0  0  0  0  0  0  0  0
   23.7599   -5.9341   29.4428 H   0  0  0  0  0  0  0  0  0  0  0  0
   26.8006   -4.4514   30.6578 H   0  0  0  0  0  0  0  0  0  0  0  0
   25.2143   -3.8045   30.2124 H   0  0  0  0  0  0  0  0  0  0  0  0
   23.5675   -4.1369   31.8316 H   0  0  0  0  0  0  0  0  0  0  0  0
   23.1155   -5.7377   31.1624 H   0  0  0  0  0  0  0  0  0  0  0  0
   24.0986   -5.1598   34.0173 H   0  0  0  0  0  0  0  0  0  0  0  0
   22.4481   -5.6145   33.5647 H   0  0  0  0  0  0  0  0  0  0  0  0
   24.7042   -8.0197   31.5403 H   0  0  0  0  0  0  0  0  0  0  0  0
   25.5756   -8.4285   33.0342 H   0  0  0  0  0  0  0  0  0  0  0  0
   26.8581   -6.7220   31.6973 H   0  0  0  0  0  0  0  0  0  0  0  0
   26.3442   -6.0024   33.2242 H   0  0  0  0  0  0  0  0  0  0  0  0
   22.1691   -7.7092   34.3477 H   0  0  0  0  0  0  0  0  0  0  0  0
   23.0088   -9.0552   33.6074 H   0  0  0  0  0  0  0  0  0  0  0  0
   24.7705   -9.0095   35.2389 H   0  0  0  0  0  0  0  0  0  0  0  0
   24.5634   -7.2486   35.5346 H   0  0  0  0  0  0  0  0  0  0  0  0
   23.7114   -8.3122   37.3289 H   0  0  0  0  0  0  0  0  0  0  0  0
  3  2  2  0
  1  2  2  0
  2  4  1  0
  2  5  1  0
  5  6  1  0
  7  6  1  0
  6  8  1  0
  8  9  1  0
  9 14  1  0
  9 10  1  0
 14 13  1  0
 10 11  1  0
 13 12  1  0
 12 11  1  0
 12 15  1  0
 15 16  1  0
 16 17  1  0
  4 18  1  0
  5 19  1  0
  5 20  1  0
  6 21  1  0
  7 22  1  0
  8 23  1  0
  8 24  1  0
 10 25  1  0
 10 26  1  0
 11 27  1  0
 11 28  1  0
 13 29  1  0
 13 30  1  0
 14 31  1  0
 14 32  1  0
 15 33  1  0
 15 34  1  0
 16 35  1  0
 16 36  1  0
 17 37  1  0
A    1
O1
A    2
S1
A    3
O2
A    4
O3
A    5
C1
A    6
C2
A    7
O4
A    8
C3
A    9
N1
A   10
C7
A   11
C6
A   12
N2
A   13
C5
A   14
C4
A   15
C8
A   16
C9
A   17
O5
M  END
