2QZZ_EMF_A_601
     RDKit          3D

 33 34  0  0  0  0  0  0  0  0999 V2000
   17.0340   -8.1250   18.6020 O   0  0  0  0  0  0  0  0  0  0  0  0
   16.8430   -7.7500   19.7550 C   0  0  0  0  0  0  0  0  0  0  0  0
   17.2970   -8.5860   20.8650 O   0  0  0  0  0  0  0  0  0  0  0  0
   18.0960   -9.7570   20.6510 C   0  0  0  0  0  0  0  0  0  0  0  0
   19.4880   -9.3550   20.2080 C   0  0  0  0  0  0  0  0  0  0  0  0
   16.1430   -6.4510   20.0180 C   0  0  0  0  0  0  0  0  0  0  0  0
   15.0240   -6.4870   21.0580 C   0  0  0  0  0  0  0  0  0  0  0  0
   16.3750   -5.8330   21.4000 C   0  0  0  0  0  0  0  0  0  0  0  0
   16.4850   -4.3180   21.3060 C   0  0  0  0  0  0  0  0  0  0  0  0
   17.5110   -3.6430   22.0470 C   0  0  0  0  0  0  0  0  0  0  0  0
   17.6430   -2.2140   21.9760 C   0  0  0  0  0  0  0  0  0  0  0  0
   18.6110   -1.5120   22.6690 O   0  0  0  0  0  0  0  0  0  0  0  0
   19.0370   -1.8700   23.9900 C   0  0  0  0  0  0  0  0  0  0  0  0
   15.5830   -3.5550   20.4940 C   0  0  0  0  0  0  0  0  0  0  0  0
   15.6870   -2.1490   20.3970 C   0  0  0  0  0  0  0  0  0  0  0  0
   16.6870   -1.4490   21.1140 C   0  0  0  0  0  0  0  0  0  0  0  0
   16.7950   -0.0900   21.0250 O   0  0  0  0  0  0  0  0  0  0  0  0
   17.6306  -10.3793   19.8725 H   0  0  0  0  0  0  0  0  0  0  0  0
   18.1640  -10.3266   21.5896 H   0  0  0  0  0  0  0  0  0  0  0  0
   20.1162   -9.1736   21.0926 H   0  0  0  0  0  0  0  0  0  0  0  0
   19.9284  -10.1627   19.6049 H   0  0  0  0  0  0  0  0  0  0  0  0
   19.4300   -8.4369   19.6049 H   0  0  0  0  0  0  0  0  0  0  0  0
   16.2268   -6.0925   18.9814 H   0  0  0  0  0  0  0  0  0  0  0  0
   14.7396   -7.4402   21.5275 H   0  0  0  0  0  0  0  0  0  0  0  0
   13.9734   -6.1619   21.0826 H   0  0  0  0  0  0  0  0  0  0  0  0
   17.0615   -5.9529   22.2511 H   0  0  0  0  0  0  0  0  0  0  0  0
   18.2025   -4.2241   22.6748 H   0  0  0  0  0  0  0  0  0  0  0  0
   18.4143   -1.3467   24.7305 H   0  0  0  0  0  0  0  0  0  0  0  0
   18.9340   -2.9566   24.1266 H   0  0  0  0  0  0  0  0  0  0  0  0
   20.0896   -1.5814   24.1266 H   0  0  0  0  0  0  0  0  0  0  0  0
   14.7922   -4.0756   19.9339 H   0  0  0  0  0  0  0  0  0  0  0  0
   14.9844   -1.5934   19.7585 H   0  0  0  0  0  0  0  0  0  0  0  0
   16.8386    0.4581   21.8483 H   0  0  0  0  0  0  0  0  0  0  0  0
 13 12  1  0
 12 11  1  0
  5  4  1  0
 11 10  2  0
 11 16  1  0
 10  9  1  0
  4  3  1  0
  3  2  1  0
 17 16  1  0
 16 15  2  0
  9  8  1  0
  9 14  2  0
  8  6  1  0
  8  7  1  0
  2  6  1  0
  2  1  2  0
  6  7  1  0
 15 14  1  0
  4 18  1  0
  4 19  1  0
  5 20  1  0
  5 21  1  0
  5 22  1  0
  6 23  1  0
  7 24  1  0
  7 25  1  0
  8 26  1  0
 10 27  1  0
 13 28  1  0
 13 29  1  0
 13 30  1  0
 14 31  1  0
 15 32  1  0
 17 33  1  0
A    1
O9
A    2
C9
A    3
O10
A    4
C11
A    5
C12
A    6
C8
A    7
C14
A    8
C7
A    9
C1
A   10
C2
A   11
C3
A   12
O3
A   13
C13
A   14
C6
A   15
C5
A   16
C4
A   17
O4
M  END
