1U3A_PE5_B_301
     RDKit          3D

 58 57  0  0  0  0  0  0  0  0999 V2000
    9.7230    3.9420   59.1960 C   0  0  0  0  0  0  0  0  0  0  0  0
   10.8540    4.7360   58.8240 O   0  0  0  0  0  0  0  0  0  0  0  0
   10.7660    5.3110   57.5110 C   0  0  0  0  0  0  0  0  0  0  0  0
   12.0340    4.9970   56.7120 C   0  0  0  0  0  0  0  0  0  0  0  0
   11.9910    5.4980   55.3670 O   0  0  0  0  0  0  0  0  0  0  0  0
   13.1750    5.1400   54.6100 C   0  0  0  0  0  0  0  0  0  0  0  0
   14.0730    6.3620   54.3210 C   0  0  0  0  0  0  0  0  0  0  0  0
   15.4980    6.1840   54.5150 O   0  0  0  0  0  0  0  0  0  0  0  0
   16.2440    7.4190   54.4990 C   0  0  0  0  0  0  0  0  0  0  0  0
   17.6540    7.2270   55.0800 C   0  0  0  0  0  0  0  0  0  0  0  0
   18.6780    7.9470   54.3480 O   0  0  0  0  0  0  0  0  0  0  0  0
   19.9740    8.0510   54.9760 C   0  0  0  0  0  0  0  0  0  0  0  0
   21.0810    7.0950   54.4830 C   0  0  0  0  0  0  0  0  0  0  0  0
   21.1100    6.7750   53.0730 O   0  0  0  0  0  0  0  0  0  0  0  0
   21.5560    5.4190   52.8220 C   0  0  0  0  0  0  0  0  0  0  0  0
   21.3050    4.8980   51.3970 C   0  0  0  0  0  0  0  0  0  0  0  0
   19.9580    4.4050   51.2090 O   0  0  0  0  0  0  0  0  0  0  0  0
   19.5310    4.3620   49.8320 C   0  0  0  0  0  0  0  0  0  0  0  0
   18.5280    3.2200   49.5720 C   0  0  0  0  0  0  0  0  0  0  0  0
   18.9090    2.3890   48.4600 O   0  0  0  0  0  0  0  0  0  0  0  0
   17.9410    2.3110   47.3950 C   0  0  0  0  0  0  0  0  0  0  0  0
   18.2950    1.1820   46.4160 C   0  0  0  0  0  0  0  0  0  0  0  0
   18.5780    1.6840   45.1030 O   0  0  0  0  0  0  0  0  0  0  0  0
   18.8270    0.6490   44.1560 C   0  0  0  0  0  0  0  0  0  0  0  0
    9.6539    3.8935   60.2928 H   0  0  0  0  0  0  0  0  0  0  0  0
    8.8068    4.3962   58.7906 H   0  0  0  0  0  0  0  0  0  0  0  0
    9.8390    2.9260   58.7906 H   0  0  0  0  0  0  0  0  0  0  0  0
    9.8936    4.8919   56.9882 H   0  0  0  0  0  0  0  0  0  0  0  0
   10.6595    6.4020   57.6025 H   0  0  0  0  0  0  0  0  0  0  0  0
   12.8936    5.4505   57.2271 H   0  0  0  0  0  0  0  0  0  0  0  0
   12.1207    3.9021   56.6515 H   0  0  0  0  0  0  0  0  0  0  0  0
   13.7541    4.4028   55.1855 H   0  0  0  0  0  0  0  0  0  0  0  0
   12.8469    4.7259   53.6452 H   0  0  0  0  0  0  0  0  0  0  0  0
   13.9133    6.6521   53.2720 H   0  0  0  0  0  0  0  0  0  0  0  0
   13.7738    7.1210   55.0589 H   0  0  0  0  0  0  0  0  0  0  0  0
   16.3293    7.7728   53.4609 H   0  0  0  0  0  0  0  0  0  0  0  0
   15.7105    8.1551   55.1183 H   0  0  0  0  0  0  0  0  0  0  0  0
   17.6541    7.5819   56.1212 H   0  0  0  0  0  0  0  0  0  0  0  0
   17.8935    6.1558   55.0077 H   0  0  0  0  0  0  0  0  0  0  0  0
   20.3335    9.0792   54.8224 H   0  0  0  0  0  0  0  0  0  0  0  0
   19.8023    7.7656   56.0244 H   0  0  0  0  0  0  0  0  0  0  0  0
   22.0484    7.5531   54.7365 H   0  0  0  0  0  0  0  0  0  0  0  0
   20.8669    6.1385   54.9823 H   0  0  0  0  0  0  0  0  0  0  0  0
   22.6383    5.3762   53.0138 H   0  0  0  0  0  0  0  0  0  0  0  0
   20.9644    4.7756   53.4898 H   0  0  0  0  0  0  0  0  0  0  0  0
   21.4810    5.7192   50.6866 H   0  0  0  0  0  0  0  0  0  0  0  0
   21.9923    4.0563   51.2265 H   0  0  0  0  0  0  0  0  0  0  0  0
   19.0521    5.3194   49.5789 H   0  0  0  0  0  0  0  0  0  0  0  0
   20.4184    4.1827   49.2072 H   0  0  0  0  0  0  0  0  0  0  0  0
   18.4658    2.5939   50.4743 H   0  0  0  0  0  0  0  0  0  0  0  0
   17.5584    3.6784   49.3276 H   0  0  0  0  0  0  0  0  0  0  0  0
   16.9472    2.1169   47.8248 H   0  0  0  0  0  0  0  0  0  0  0  0
   17.9425    3.2650   46.8475 H   0  0  0  0  0  0  0  0  0  0  0  0
   19.1810    0.6496   46.7921 H   0  0  0  0  0  0  0  0  0  0  0  0
   17.4288    0.5077   46.3446 H   0  0  0  0  0  0  0  0  0  0  0  0
   19.0523   -0.2875   44.6872 H   0  0  0  0  0  0  0  0  0  0  0  0
   17.9372    0.5077   43.5249 H   0  0  0  0  0  0  0  0  0  0  0  0
   19.6837    0.9278   43.5249 H   0  0  0  0  0  0  0  0  0  0  0  0
  1  2  1  0
  2  3  1  0
  3  4  1  0
  4  5  1  0
  5  6  1  0
  6  7  1  0
  7  8  1  0
  8  9  1  0
  9 10  1  0
 10 11  1  0
 11 12  1  0
 12 13  1  0
 13 14  1  0
 14 15  1  0
 15 16  1  0
 16 17  1  0
 17 18  1  0
 18 19  1  0
 19 20  1  0
 20 21  1  0
 21 22  1  0
 22 23  1  0
 23 24  1  0
  1 25  1  0
  1 26  1  0
  1 27  1  0
  3 28  1  0
  3 29  1  0
  4 30  1  0
  4 31  1  0
  6 32  1  0
  6 33  1  0
  7 34  1  0
  7 35  1  0
  9 36  1  0
  9 37  1  0
 10 38  1  0
 10 39  1  0
 12 40  1  0
 12 41  1  0
 13 42  1  0
 13 43  1  0
 15 44  1  0
 15 45  1  0
 16 46  1  0
 16 47  1  0
 18 48  1  0
 18 49  1  0
 19 50  1  0
 19 51  1  0
 21 52  1  0
 21 53  1  0
 22 54  1  0
 22 55  1  0
 24 56  1  0
 24 57  1  0
 24 58  1  0
A    1
C50
A    2
O1
A    3
C1
A    4
C2
A    5
O2
A    6
C3
A    7
C4
A    8
O3
A    9
C5
A   10
C6
A   11
O4
A   12
C7
A   13
C8
A   14
O5
A   15
C9
A   16
C10
A   17
O6
A   18
C11
A   19
C12
A   20
O7
A   21
C13
A   22
C14
A   23
O8
A   24
C15
M  END
