2R1N_EPL_A_701
     RDKit          3D

 34 34  0  0  0  0  0  0  0  0999 V2000
   27.3900   19.5130   -1.5440 O   0  0  0  0  0  0  0  0  0  0  0  0
   28.1440   19.8790   -0.1460 P   0  0  0  0  0  0  0  0  0  0  0  0
   29.6080   19.2460   -0.2140 O   0  0  0  0  0  0  0  0  0  0  0  0
   30.6560   19.7860    0.5880 C   0  0  0  0  0  0  0  0  0  0  0  0
   30.7510   19.0080    1.8680 C   0  0  0  0  0  0  0  0  0  0  0  0
   28.2670   21.4390    0.1640 O   0  0  0  0  0  0  0  0  0  0  0  0
   28.5110   22.4080   -0.8530 C   0  0  0  0  0  0  0  0  0  0  0  0
   29.0040   23.6640   -0.1750 C   0  0  0  0  0  0  0  0  0  0  0  0
   27.6110   19.2930    1.2690 O   0  0  0  0  0  0  0  0  0  0  0  0
   26.3210   19.2760    1.7400 C   0  0  0  0  0  0  0  0  0  0  0  0
   25.6370   18.0670    1.7540 C   0  0  0  0  0  0  0  0  0  0  0  0
   24.3530   17.9930    2.2840 C   0  0  0  0  0  0  0  0  0  0  0  0
   23.7450   19.1490    2.7780 C   0  0  0  0  0  0  0  0  0  0  0  0
   22.4560   19.1190    3.2840 O   0  0  0  0  0  0  0  0  0  0  0  0
   21.6310   17.9510    3.3330 C   0  0  0  0  0  0  0  0  0  0  0  0
   24.4430   20.3580    2.7690 C   0  0  0  0  0  0  0  0  0  0  0  0
   25.7320   20.4230    2.2500 C   0  0  0  0  0  0  0  0  0  0  0  0
   31.6092   19.7156    0.0434 H   0  0  0  0  0  0  0  0  0  0  0  0
   30.4421   20.8413    0.8128 H   0  0  0  0  0  0  0  0  0  0  0  0
   30.6670   19.6959    2.7223 H   0  0  0  0  0  0  0  0  0  0  0  0
   29.9363   18.2701    1.9099 H   0  0  0  0  0  0  0  0  0  0  0  0
   31.7193   18.4878    1.9099 H   0  0  0  0  0  0  0  0  0  0  0  0
   29.2737   22.0346   -1.5522 H   0  0  0  0  0  0  0  0  0  0  0  0
   27.5924   22.6108   -1.4231 H   0  0  0  0  0  0  0  0  0  0  0  0
   28.9536   23.5355    0.9163 H   0  0  0  0  0  0  0  0  0  0  0  0
   30.0448   23.8575   -0.4737 H   0  0  0  0  0  0  0  0  0  0  0  0
   28.3727   24.5139   -0.4737 H   0  0  0  0  0  0  0  0  0  0  0  0
   26.1129   17.1640    1.3441 H   0  0  0  0  0  0  0  0  0  0  0  0
   23.8205   17.0309    2.3138 H   0  0  0  0  0  0  0  0  0  0  0  0
   21.4401   17.6807    4.3820 H   0  0  0  0  0  0  0  0  0  0  0  0
   20.6757   18.1553    2.8273 H   0  0  0  0  0  0  0  0  0  0  0  0
   22.1429   17.1190    2.8273 H   0  0  0  0  0  0  0  0  0  0  0  0
   23.9708   21.2648    3.1748 H   0  0  0  0  0  0  0  0  0  0  0  0
   26.2798   21.3769    2.2442 H   0  0  0  0  0  0  0  0  0  0  0  0
  1  2  2  0
  2  3  1  0
  2  6  1  0
  2  9  1  0
  3  4  1  0
  4  5  1  0
  6  7  1  0
  7  8  1  0
  9 10  1  0
 10 17  2  0
 10 11  1  0
 11 12  2  0
 12 13  1  0
 13 16  2  0
 13 14  1  0
 14 15  1  0
 16 17  1  0
  4 18  1  0
  4 19  1  0
  5 20  1  0
  5 21  1  0
  5 22  1  0
  7 23  1  0
  7 24  1  0
  8 25  1  0
  8 26  1  0
  8 27  1  0
 11 28  1  0
 12 29  1  0
 15 30  1  0
 15 31  1  0
 15 32  1  0
 16 33  1  0
 17 34  1  0
A    1
O1
A    2
P
A    3
O2
A    4
C8
A    5
C9
A    6
O4
A    7
C10
A    8
C11
A    9
O3
A   10
C4
A   11
C2
A   12
C3
A   13
C1
A   14
O5
A   15
C7
A   16
C5
A   17
C6
M  END
