2R2L_PB9_B_425
     RDKit          3D

 73 77  0  0  0  0  0  0  0  0999 V2000
  186.6640  131.8000   36.2340 C   0  0  0  0  0  0  0  0  0  0  0  0
  187.7640  131.0960   35.6810 C   0  0  0  0  0  0  0  0  0  0  0  0
  187.5940  130.0470   34.7140 C   0  0  0  0  0  0  0  0  0  0  0  0
  186.2700  129.6830   34.3650 C   0  0  0  0  0  0  0  0  0  0  0  0
  185.1680  130.4420   34.8790 C   0  0  0  0  0  0  0  0  0  0  0  0
  185.3690  131.4820   35.8230 C   0  0  0  0  0  0  0  0  0  0  0  0
  188.6980  129.3870   34.1280 N   0  0  0  0  0  0  0  0  0  0  0  0
  188.5300  128.2550   33.1950 C   0  0  0  0  0  0  0  0  0  0  0  0
  187.1690  128.1630   32.5140 C   0  0  0  0  0  0  0  0  0  0  0  0
  185.9990  128.4760   33.4770 C   0  0  0  0  0  0  0  0  0  0  0  0
  184.2420  132.1770   36.3980 C   0  0  0  0  0  0  0  0  0  0  0  0
  183.3530  132.7170   36.9020 N   0  0  0  0  0  0  0  0  0  0  0  0
  187.0000  126.8920   31.6960 N   0  0  0  0  0  0  0  0  0  0  0  0
  187.2470  125.1880   32.2830 S   0  0  0  0  0  0  0  0  0  0  0  0
  188.9270  125.0580   32.8180 C   0  0  0  0  0  0  0  0  0  0  0  0
  187.1010  124.3280   31.1440 O   0  0  0  0  0  0  0  0  0  0  0  0
  186.3640  125.0400   33.4030 O   0  0  0  0  0  0  0  0  0  0  0  0
  189.1920  124.7230   34.1060 N   0  0  0  0  0  0  0  0  0  0  0  0
  190.4790  124.7730   34.5510 C   0  0  0  0  0  0  0  0  0  0  0  0
  191.5540  125.1900   33.7220 C   0  0  0  0  0  0  0  0  0  0  0  0
  191.2690  125.4490   32.3590 C   0  0  0  0  0  0  0  0  0  0  0  0
  189.9400  125.3670   31.8940 C   0  0  0  0  0  0  0  0  0  0  0  0
  186.6910  127.1240   30.2910 C   0  0  0  0  0  0  0  0  0  0  0  0
  185.3940  126.5740   29.7420 C   0  0  0  0  0  0  0  0  0  0  0  0
  184.1100  127.1950   30.3450 C   0  0  0  0  0  0  0  0  0  0  0  0
  182.8410  126.7600   29.5750 C   0  0  0  0  0  0  0  0  0  0  0  0
  183.0330  126.8530   28.1100 N   0  0  0  0  0  0  0  0  0  0  0  0
  184.2450  126.2290   27.5610 C   0  0  0  0  0  0  0  0  0  0  0  0
  185.4700  126.8030   28.2350 C   0  0  0  0  0  0  0  0  0  0  0  0
  182.1530  127.5020   27.2830 C   0  0  0  0  0  0  0  0  0  0  0  0
  182.4790  127.5380   25.9860 O   0  0  0  0  0  0  0  0  0  0  0  0
  181.1580  128.0180   27.7060 O   0  0  0  0  0  0  0  0  0  0  0  0
  181.4400  127.7420   25.0300 C   0  0  0  0  0  0  0  0  0  0  0  0
  190.1030  129.7490   34.4270 C   0  0  0  0  0  0  0  0  0  0  0  0
  190.7180  128.8380   35.5140 C   0  0  0  0  0  0  0  0  0  0  0  0
  190.0940  127.9250   36.3130 C   0  0  0  0  0  0  0  0  0  0  0  0
  191.0670  127.3020   37.2180 N   0  0  0  0  0  0  0  0  0  0  0  0
  192.2470  127.8740   36.9130 C   0  0  0  0  0  0  0  0  0  0  0  0
  192.1390  128.7980   35.9150 N   0  0  0  0  0  0  0  0  0  0  0  0
  193.1990  129.6470   35.3360 C   0  0  0  0  0  0  0  0  0  0  0  0
  186.8304  132.5903   36.9808 H   0  0  0  0  0  0  0  0  0  0  0  0
  188.7815  131.3620   36.0033 H   0  0  0  0  0  0  0  0  0  0  0  0
  184.1482  130.2141   34.5354 H   0  0  0  0  0  0  0  0  0  0  0  0
  188.6906  127.3242   33.7588 H   0  0  0  0  0  0  0  0  0  0  0  0
  189.2610  128.4165   32.3890 H   0  0  0  0  0  0  0  0  0  0  0  0
  187.1333  128.9693   31.7666 H   0  0  0  0  0  0  0  0  0  0  0  0
  185.0966  128.6747   32.8802 H   0  0  0  0  0  0  0  0  0  0  0  0
  185.8704  127.6040   34.1350 H   0  0  0  0  0  0  0  0  0  0  0  0
  190.6929  124.4799   35.5894 H   0  0  0  0  0  0  0  0  0  0  0  0
  192.5712  125.3076   34.1239 H   0  0  0  0  0  0  0  0  0  0  0  0
  192.0811  125.7131   31.6657 H   0  0  0  0  0  0  0  0  0  0  0  0
  189.7021  125.5406   30.8342 H   0  0  0  0  0  0  0  0  0  0  0  0
  187.5076  126.6827   29.7008 H   0  0  0  0  0  0  0  0  0  0  0  0
  186.5769  128.2154   30.2148 H   0  0  0  0  0  0  0  0  0  0  0  0
  185.3030  125.5122   30.0147 H   0  0  0  0  0  0  0  0  0  0  0  0
  184.1923  128.2912   30.3041 H   0  0  0  0  0  0  0  0  0  0  0  0
  184.0162  126.8423   31.3827 H   0  0  0  0  0  0  0  0  0  0  0  0
  182.0050  127.4123   29.8675 H   0  0  0  0  0  0  0  0  0  0  0  0
  182.6282  125.7108   29.8279 H   0  0  0  0  0  0  0  0  0  0  0  0
  184.2075  125.1436   27.7357 H   0  0  0  0  0  0  0  0  0  0  0  0
  184.2983  126.4303   26.4809 H   0  0  0  0  0  0  0  0  0  0  0  0
  186.3692  126.3101   27.8368 H   0  0  0  0  0  0  0  0  0  0  0  0
  185.5174  127.8839   28.0366 H   0  0  0  0  0  0  0  0  0  0  0  0
  180.4910  127.9283   25.5540 H   0  0  0  0  0  0  0  0  0  0  0  0
  181.6870  128.6088   24.3994 H   0  0  0  0  0  0  0  0  0  0  0  0
  181.3409  126.8462   24.3994 H   0  0  0  0  0  0  0  0  0  0  0  0
  190.6976  129.6543   33.5064 H   0  0  0  0  0  0  0  0  0  0  0  0
  190.1143  130.7823   34.8040 H   0  0  0  0  0  0  0  0  0  0  0  0
  189.0197  127.6904   36.2833 H   0  0  0  0  0  0  0  0  0  0  0  0
  193.1941  127.6239   37.4134 H   0  0  0  0  0  0  0  0  0  0  0  0
  193.7797  130.1121   36.1462 H   0  0  0  0  0  0  0  0  0  0  0  0
  193.8650  129.0297   34.7152 H   0  0  0  0  0  0  0  0  0  0  0  0
  192.7421  130.4317   34.7152 H   0  0  0  0  0  0  0  0  0  0  0  0
 33 31  1  0
 31 30  1  0
 30 32  2  0
 30 27  1  0
 28 27  1  0
 28 29  1  0
 27 26  1  0
 29 24  1  0
 26 25  1  0
 24 23  1  0
 24 25  1  0
 23 13  1  0
 16 14  2  0
 13 14  1  0
 13  9  1  0
 22 21  2  0
 22 15  1  0
 14 15  1  0
 14 17  2  0
 21 20  1  0
  9  8  1  0
  9 10  1  0
 15 18  2  0
  8  7  1  0
 10  4  1  0
 20 19  2  0
 18 19  1  0
  7 34  1  0
  7  3  1  0
  4  3  2  0
  4  5  1  0
 34 35  1  0
  3  2  1  0
  5  6  2  0
 40 39  1  0
 35 39  1  0
 35 36  2  0
  2  1  2  0
  6  1  1  0
  6 11  1  0
 39 38  1  0
 36 37  1  0
 11 12  3  0
 38 37  2  0
  1 41  1  0
  2 42  1  0
  5 43  1  0
  8 44  1  0
  8 45  1  0
  9 46  1  0
 10 47  1  0
 10 48  1  0
 19 49  1  0
 20 50  1  0
 21 51  1  0
 22 52  1  0
 23 53  1  0
 23 54  1  0
 24 55  1  0
 25 56  1  0
 25 57  1  0
 26 58  1  0
 26 59  1  0
 28 60  1  0
 28 61  1  0
 29 62  1  0
 29 63  1  0
 33 64  1  0
 33 65  1  0
 33 66  1  0
 34 67  1  0
 34 68  1  0
 36 69  1  0
 38 70  1  0
 40 71  1  0
 40 72  1  0
 40 73  1  0
A    1
C1
A    2
C2
A    3
C3
A    4
C4
A    5
C5
A    6
C6
A    7
N10
A    8
C11
A    9
C12
A   10
C13
A   11
C18
A   12
N19
A   13
N20
A   14
S22
A   15
C23
A   16
O24
A   17
O25
A   18
N26
A   19
C27
A   20
C28
A   21
C29
A   22
C30
A   23
C35
A   24
C36
A   25
C39
A   26
C40
A   27
N41
A   28
C42
A   29
C43
A   30
C53
A   31
O54
A   32
O55
A   33
C56
A   34
C60
A   35
C61
A   36
C64
A   37
N65
A   38
C66
A   39
N67
A   40
C68
M  END
