2R2W_4PG_U_300
     RDKit          3D

 34 35  0  0  0  0  0  0  0  0999 V2000
   33.8740    4.6450   27.8850 C   0  0  0  0  0  0  0  0  0  0  0  0
   31.9330    5.9770   28.4410 C   0  0  0  0  0  0  0  0  0  0  0  0
   31.3210    5.1850   29.4660 C   0  0  0  0  0  0  0  0  0  0  0  0
   31.1760    6.9990   27.8130 C   0  0  0  0  0  0  0  0  0  0  0  0
   27.7360    6.6410   29.7020 C   0  0  0  0  0  0  0  0  0  0  0  0
   27.0800    7.9250   29.2180 C   0  0  0  0  0  0  0  0  0  0  0  0
   27.1470    9.2390   30.0010 C   0  0  0  0  0  0  0  0  0  0  0  0
   26.5040   10.4070   29.4820 C   0  0  0  0  0  0  0  0  0  0  0  0
   26.5540   11.6400   30.1920 C   0  0  0  0  0  0  0  0  0  0  0  0
   27.2480   11.7220   31.4370 C   0  0  0  0  0  0  0  0  0  0  0  0
   27.8900   10.5710   31.9660 C   0  0  0  0  0  0  0  0  0  0  0  0
   27.8410    9.3350   31.2560 C   0  0  0  0  0  0  0  0  0  0  0  0
   33.2440    5.7690   28.0740 N   0  0  0  0  0  0  0  0  0  0  0  0
   35.1060    4.7490   27.5640 N   0  0  0  0  0  0  0  0  0  0  0  0
   33.3760    3.4690   28.0040 N   0  0  0  0  0  0  0  0  0  0  0  0
   29.9760    5.4160   29.8510 C   0  0  0  0  0  0  0  0  0  0  0  0
   29.2020    6.4390   29.2310 C   0  0  0  0  0  0  0  0  0  0  0  0
   29.8190    7.2340   28.1990 C   0  0  0  0  0  0  0  0  0  0  0  0
   26.4770    7.8860   28.1520 O   0  0  0  0  0  0  0  0  0  0  0  0
   31.9000    4.3902   29.9590 H   0  0  0  0  0  0  0  0  0  0  0  0
   31.6350    7.6141   27.0250 H   0  0  0  0  0  0  0  0  0  0  0  0
   27.7280    6.6466   30.8020 H   0  0  0  0  0  0  0  0  0  0  0  0
   27.1551    5.8143   29.2670 H   0  0  0  0  0  0  0  0  0  0  0  0
   25.9654   10.3518   28.5245 H   0  0  0  0  0  0  0  0  0  0  0  0
   26.0571   12.5310   29.7807 H   0  0  0  0  0  0  0  0  0  0  0  0
   27.2854   12.6748   31.9854 H   0  0  0  0  0  0  0  0  0  0  0  0
   28.4258   10.6328   32.9247 H   0  0  0  0  0  0  0  0  0  0  0  0
   28.3389    8.4471   31.6727 H   0  0  0  0  0  0  0  0  0  0  0  0
   33.8042    6.6210   27.9288 H   0  0  0  0  0  0  0  0  0  0  0  0
   35.8261    4.8098   28.2980 H   0  0  0  0  0  0  0  0  0  0  0  0
   35.3793    4.7721   26.5712 H   0  0  0  0  0  0  0  0  0  0  0  0
   32.3856    3.3528   28.2618 H   0  0  0  0  0  0  0  0  0  0  0  0
   29.5237    4.7966   30.6395 H   0  0  0  0  0  0  0  0  0  0  0  0
   29.2411    8.0284   27.7040 H   0  0  0  0  0  0  0  0  0  0  0  0
 14  1  1  0
  4 18  1  0
  4  2  2  0
  1 15  2  3
  1 13  1  0
 13  2  1  0
 19  6  2  0
 18 17  2  0
  2  3  1  0
  6  5  1  0
  6  7  1  0
 17  5  1  0
 17 16  1  0
  3 16  2  0
  8  7  2  0
  8  9  1  0
  7 12  1  0
  9 10  2  0
 12 11  2  0
 10 11  1  0
  3 20  1  0
  4 21  1  0
  5 22  1  0
  5 23  1  0
  8 24  1  0
  9 25  1  0
 10 26  1  0
 11 27  1  0
 12 28  1  0
 13 29  1  0
 14 30  1  0
 14 31  1  0
 15 32  1  0
 16 33  1  0
 18 34  1  0
A    1
C1
A    2
C2
A    3
C3
A    4
C7
A    5
C8
A    6
C9
A    7
C10
A    8
C11
A    9
C12
A   10
C13
A   11
C14
A   12
C15
A   13
N1
A   14
N2
A   15
N3
A   16
C4
A   17
C5
A   18
C6
A   19
O1
M  END
