2R3N_SCZ_A_501
     RDKit          3D

 45 49  0  0  0  0  0  0  0  0999 V2000
   -0.1700   30.5250    8.2710 C   0  0  0  0  0  0  0  0  0  0  0  0
    0.5290   29.3480    8.5070 C   0  0  0  0  0  0  0  0  0  0  0  0
    1.7200   29.4750    7.7820 N   0  0  0  0  0  0  0  0  0  0  0  0
    1.7760   30.6710    7.0870 N   0  0  0  0  0  0  0  0  0  0  0  0
    0.6430   31.2910    7.4170 C   0  0  0  0  0  0  0  0  0  0  0  0
    0.2670   28.2140    9.2250 N   0  0  0  0  0  0  0  0  0  0  0  0
    1.2050   27.2610    9.2090 C   0  0  0  0  0  0  0  0  0  0  0  0
    2.4650   27.3180    8.4680 C   0  0  0  0  0  0  0  0  0  0  0  0
    2.7000   28.4550    7.7780 C   0  0  0  0  0  0  0  0  0  0  0  0
    3.8180   28.6980    7.0510 N   0  0  0  0  0  0  0  0  0  0  0  0
    0.9730   26.0060    9.9700 C   0  0  0  0  0  0  0  0  0  0  0  0
    5.0880   27.9970    7.0580 C   0  0  0  0  0  0  0  0  0  0  0  0
    5.1230   26.8410    6.0960 C   0  0  0  0  0  0  0  0  0  0  0  0
    5.1070   27.0660    4.7330 C   0  0  0  0  0  0  0  0  0  0  0  0
    5.1780   26.0770    3.7970 N   0  0  0  0  0  0  0  0  0  0  0  0
    5.2540   24.8120    4.2580 C   0  0  0  0  0  0  0  0  0  0  0  0
    5.2490   24.4800    5.6030 C   0  0  0  0  0  0  0  0  0  0  0  0
    5.1790   25.5120    6.5360 C   0  0  0  0  0  0  0  0  0  0  0  0
   -0.3180   25.7130   10.3910 C   0  0  0  0  0  0  0  0  0  0  0  0
   -0.5890   24.5440   11.1080 C   0  0  0  0  0  0  0  0  0  0  0  0
    0.4480   23.6800   11.4450 C   0  0  0  0  0  0  0  0  0  0  0  0
    1.7570   23.9690   11.0290 C   0  0  0  0  0  0  0  0  0  0  0  0
    2.0210   25.1330   10.2880 C   0  0  0  0  0  0  0  0  0  0  0  0
   -1.5310   30.9660    8.7550 C   0  0  0  0  0  0  0  0  0  0  0  0
   -2.5240   29.9570    9.2420 C   0  0  0  0  0  0  0  0  0  0  0  0
   -1.8880   30.9270   10.2160 C   0  0  0  0  0  0  0  0  0  0  0  0
    0.3727   32.2954    7.0591 H   0  0  0  0  0  0  0  0  0  0  0  0
    3.1804   26.4824    8.4725 H   0  0  0  0  0  0  0  0  0  0  0  0
    3.7570   29.4943    6.4006 H   0  0  0  0  0  0  0  0  0  0  0  0
    5.2726   27.6150    8.0729 H   0  0  0  0  0  0  0  0  0  0  0  0
    5.8620   28.7124    6.7432 H   0  0  0  0  0  0  0  0  0  0  0  0
    5.0325   28.1057    4.3817 H   0  0  0  0  0  0  0  0  0  0  0  0
    5.3240   23.9963    3.5234 H   0  0  0  0  0  0  0  0  0  0  0  0
    5.2990   23.4295    5.9256 H   0  0  0  0  0  0  0  0  0  0  0  0
    5.1678   25.2848    7.6122 H   0  0  0  0  0  0  0  0  0  0  0  0
   -1.1369   26.4093   10.1573 H   0  0  0  0  0  0  0  0  0  0  0  0
   -1.6213   24.3075   11.4055 H   0  0  0  0  0  0  0  0  0  0  0  0
    0.2430   22.7744   12.0348 H   0  0  0  0  0  0  0  0  0  0  0  0
    2.5780   23.2826   11.2837 H   0  0  0  0  0  0  0  0  0  0  0  0
    3.0463   25.3578    9.9590 H   0  0  0  0  0  0  0  0  0  0  0  0
   -1.5314   31.7501    7.9835 H   0  0  0  0  0  0  0  0  0  0  0  0
   -3.5870   30.0596    8.9784 H   0  0  0  0  0  0  0  0  0  0  0  0
   -2.6148   28.8624    9.1813 H   0  0  0  0  0  0  0  0  0  0  0  0
   -1.1553   30.5673   10.9534 H   0  0  0  0  0  0  0  0  0  0  0  0
   -2.2631   31.6573   10.9481 H   0  0  0  0  0  0  0  0  0  0  0  0
 15 16  1  0
 15 14  2  0
 16 17  2  0
 14 13  1  0
 17 18  1  0
 13 18  2  0
 13 12  1  0
 10 12  1  0
 10  9  1  0
  4  5  2  0
  4  3  1  0
  5  1  1  0
  9  3  1  0
  9  8  2  0
  3  2  1  0
  1  2  2  0
  1 24  1  0
  8  7  1  0
  2  6  1  0
 24 25  1  0
 24 26  1  0
  7  6  2  0
  7 11  1  0
 25 26  1  0
 11 23  1  0
 11 19  2  0
 23 22  2  0
 19 20  1  0
 22 21  1  0
 20 21  2  0
  5 27  1  0
  8 28  1  0
 10 29  1  0
 12 30  1  0
 12 31  1  0
 14 32  1  0
 16 33  1  0
 17 34  1  0
 18 35  1  0
 19 36  1  0
 20 37  1  0
 21 38  1  0
 22 39  1  0
 23 40  1  0
 24 41  1  0
 25 42  1  0
 25 43  1  0
 26 44  1  0
 26 45  1  0
A    1
C01
A    2
C02
A    3
N03
A    4
N04
A    5
C05
A    6
N06
A    7
C07
A    8
C08
A    9
C09
A   10
N10
A   11
C11
A   12
C12
A   13
C13
A   14
C14
A   15
N15
A   16
C16
A   17
C17
A   18
C18
A   19
C19
A   20
C20
A   21
C21
A   22
C22
A   23
C23
A   24
C24
A   25
C25
A   26
C26
M  END
