2R3Q_5SC_A_501
     RDKit          3D

 42 45  0  0  0  0  0  0  0  0999 V2000
   -0.2370   31.0000    8.0770 C   0  0  0  0  0  0  0  0  0  0  0  0
    0.2020   29.6990    8.1840 C   0  0  0  0  0  0  0  0  0  0  0  0
    1.3180   29.6200    7.4580 N   0  0  0  0  0  0  0  0  0  0  0  0
    1.6310   30.8070    6.8420 N   0  0  0  0  0  0  0  0  0  0  0  0
    0.6920   31.6560    7.2300 C   0  0  0  0  0  0  0  0  0  0  0  0
   -0.3120   28.6450    8.9120 N   0  0  0  0  0  0  0  0  0  0  0  0
    0.4000   27.5460    8.8760 C   0  0  0  0  0  0  0  0  0  0  0  0
    1.6410   27.4720    8.2200 C   0  0  0  0  0  0  0  0  0  0  0  0
    2.1110   28.5350    7.4970 C   0  0  0  0  0  0  0  0  0  0  0  0
    3.3190   28.6340    6.8490 N   0  0  0  0  0  0  0  0  0  0  0  0
   -0.0800   26.3840    9.6180 C   0  0  0  0  0  0  0  0  0  0  0  0
    4.4270   27.6780    7.1880 C   0  0  0  0  0  0  0  0  0  0  0  0
    4.5980   26.6550    6.0640 C   0  0  0  0  0  0  0  0  0  0  0  0
    4.6330   27.0320    4.7470 C   0  0  0  0  0  0  0  0  0  0  0  0
    4.7700   26.0870    3.6380 N   0  0  0  0  0  0  0  0  0  0  0  0
    4.8810   24.6830    4.0160 C   0  0  0  0  0  0  0  0  0  0  0  0
    4.8550   24.2860    5.3310 C   0  0  0  0  0  0  0  0  0  0  0  0
    4.7210   25.2540    6.3680 C   0  0  0  0  0  0  0  0  0  0  0  0
   -0.3750   26.4590   11.0010 C   0  0  0  0  0  0  0  0  0  0  0  0
   -0.8250   25.2960   11.6590 C   0  0  0  0  0  0  0  0  0  0  0  0
   -0.9450   24.1100   10.9720 C   0  0  0  0  0  0  0  0  0  0  0  0
   -0.6870   24.0340    9.6050 C   0  0  0  0  0  0  0  0  0  0  0  0
   -0.2320   25.1720    8.9290 C   0  0  0  0  0  0  0  0  0  0  0  0
   -1.7060   31.7800    8.9430 Br  0  0  0  0  0  0  0  0  0  0  0  0
   -0.2430   27.7460   11.7900 C   0  0  0  0  0  0  0  0  0  0  0  0
    4.7330   26.4830    2.3760 O   0  0  0  0  0  0  0  0  0  0  0  0
    0.6401   32.7153    6.9380 H   0  0  0  0  0  0  0  0  0  0  0  0
    2.2397   26.5517    8.2883 H   0  0  0  0  0  0  0  0  0  0  0  0
    3.4640   29.3608    6.1337 H   0  0  0  0  0  0  0  0  0  0  0  0
    4.1822   27.1537    8.1235 H   0  0  0  0  0  0  0  0  0  0  0  0
    5.3644   28.2405    7.3097 H   0  0  0  0  0  0  0  0  0  0  0  0
    4.5538   28.1034    4.5105 H   0  0  0  0  0  0  0  0  0  0  0  0
    4.9883   23.9226    3.2284 H   0  0  0  0  0  0  0  0  0  0  0  0
    4.9378   23.2187    5.5838 H   0  0  0  0  0  0  0  0  0  0  0  0
    4.7114   24.9250    7.4176 H   0  0  0  0  0  0  0  0  0  0  0  0
   -1.0816   25.3371   12.7279 H   0  0  0  0  0  0  0  0  0  0  0  0
   -1.2511   23.2027   11.5134 H   0  0  0  0  0  0  0  0  0  0  0  0
   -0.8393   23.0893    9.0625 H   0  0  0  0  0  0  0  0  0  0  0  0
    0.0065   25.1157    7.8566 H   0  0  0  0  0  0  0  0  0  0  0  0
   -0.2662   27.5202   12.8663 H   0  0  0  0  0  0  0  0  0  0  0  0
    0.7099   28.2344   11.5382 H   0  0  0  0  0  0  0  0  0  0  0  0
   -1.0770   28.4176   11.5382 H   0  0  0  0  0  0  0  0  0  0  0  0
 26 15  1  0
 15 16  1  0
 15 14  2  0
 16 17  2  0
 14 13  1  0
 17 18  1  0
 13 18  2  0
 13 12  1  0
  4  5  2  0
  4  3  1  0
 10 12  1  0
 10  9  1  0
  5  1  1  0
  3  9  1  0
  3  2  1  0
  9  8  2  0
  1  2  2  0
  1 24  1  0
  2  6  1  0
  8  7  1  0
  7  6  2  0
  7 11  1  0
 23 22  2  0
 23 11  1  0
 22 21  1  0
 11 19  2  0
 21 20  2  0
 19 20  1  0
 19 25  1  0
  5 27  1  0
  8 28  1  0
 10 29  1  0
 12 30  1  0
 12 31  1  0
 14 32  1  0
 16 33  1  0
 17 34  1  0
 18 35  1  0
 20 36  1  0
 21 37  1  0
 22 38  1  0
 23 39  1  0
 25 40  1  0
 25 41  1  0
 25 42  1  0
M  CHG  2  15   1  26  -1
A    1
C01
A    2
C02
A    3
N03
A    4
N04
A    5
C05
A    6
N06
A    7
C07
A    8
C08
A    9
C09
A   10
N10
A   11
C11
A   12
C12
A   13
C13
A   14
C14
A   15
N15
A   16
C16
A   17
C17
A   18
C18
A   19
C19
A   20
C20
A   21
C21
A   22
C22
A   23
C23
A   24
BR24
A   25
C25
A   26
O26
M  END
