2R40_20E_D_9001
     RDKit          3D

 78 81  0  0  0  0  0  0  0  0999 V2000
   26.0060  -10.9400   -2.7090 C   0  0  0  0  0  0  0  0  0  0  0  0
   27.3590  -10.2280   -2.6850 C   0  0  0  0  0  0  0  0  0  0  0  0
   28.4200  -11.2510   -3.1630 C   0  0  0  0  0  0  0  0  0  0  0  0
   29.8350  -10.6710   -3.0590 C   0  0  0  0  0  0  0  0  0  0  0  0
   30.7950  -11.6560   -3.4760 O   0  0  0  0  0  0  0  0  0  0  0  0
   30.1650  -10.1840   -1.6370 C   0  0  0  0  0  0  0  0  0  0  0  0
   30.2940  -11.2930   -0.7730 O   0  0  0  0  0  0  0  0  0  0  0  0
   29.0940   -9.2270   -1.0660 C   0  0  0  0  0  0  0  0  0  0  0  0
   27.6470   -9.7500   -1.2370 C   0  0  0  0  0  0  0  0  0  0  0  0
   26.7740   -8.5630   -0.8080 C   0  0  0  0  0  0  0  0  0  0  0  0
   26.5570   -8.3930    0.3970 O   0  0  0  0  0  0  0  0  0  0  0  0
   26.2970   -7.6380   -1.7540 C   0  0  0  0  0  0  0  0  0  0  0  0
   26.5310   -7.7880   -3.1260 C   0  0  0  0  0  0  0  0  0  0  0  0
   27.3860   -8.9750   -3.6580 C   0  0  0  0  0  0  0  0  0  0  0  0
   27.0730   -9.3350   -5.1630 C   0  0  0  0  0  0  0  0  0  0  0  0
   26.6110   -8.1550   -6.0710 C   0  0  0  0  0  0  0  0  0  0  0  0
   25.4550   -7.3540   -5.4470 C   0  0  0  0  0  0  0  0  0  0  0  0
   24.2220   -8.2660   -5.2070 C   0  0  0  0  0  0  0  0  0  0  0  0
   26.0160   -6.7390   -4.1540 C   0  0  0  0  0  0  0  0  0  0  0  0
   27.1790   -5.9510   -4.4520 O   0  0  0  0  0  0  0  0  0  0  0  0
   24.9300   -5.7740   -3.7270 C   0  0  0  0  0  0  0  0  0  0  0  0
   24.4830   -5.1460   -5.0730 C   0  0  0  0  0  0  0  0  0  0  0  0
   25.0800   -6.0190   -6.2080 C   0  0  0  0  0  0  0  0  0  0  0  0
   24.1640   -6.0520   -7.5180 C   0  0  0  0  0  0  0  0  0  0  0  0
   23.0050   -6.8380   -7.3290 O   0  0  0  0  0  0  0  0  0  0  0  0
   24.8670   -6.6820   -8.7200 C   0  0  0  0  0  0  0  0  0  0  0  0
   23.6550   -4.5920   -7.8860 C   0  0  0  0  0  0  0  0  0  0  0  0
   22.6330   -4.6150   -8.9430 O   0  0  0  0  0  0  0  0  0  0  0  0
   24.7720   -3.5690   -8.2680 C   0  0  0  0  0  0  0  0  0  0  0  0
   24.1230   -2.2730   -8.8350 C   0  0  0  0  0  0  0  0  0  0  0  0
   25.0870   -1.0740   -8.9570 C   0  0  0  0  0  0  0  0  0  0  0  0
   25.3740   -0.4480   -7.5780 C   0  0  0  0  0  0  0  0  0  0  0  0
   24.4650   -0.0360   -9.8970 C   0  0  0  0  0  0  0  0  0  0  0  0
   26.3290   -1.5260   -9.5210 O   0  0  0  0  0  0  0  0  0  0  0  0
   25.6672  -11.1183   -1.6778 H   0  0  0  0  0  0  0  0  0  0  0  0
   25.2705  -10.3121   -3.2332 H   0  0  0  0  0  0  0  0  0  0  0  0
   26.1070  -11.9018   -3.2332 H   0  0  0  0  0  0  0  0  0  0  0  0
   28.2167  -11.5156   -4.2112 H   0  0  0  0  0  0  0  0  0  0  0  0
   28.3602  -12.1414   -2.5198 H   0  0  0  0  0  0  0  0  0  0  0  0
   29.8828   -9.7950   -3.7226 H   0  0  0  0  0  0  0  0  0  0  0  0
   31.2044  -12.0761   -2.6785 H   0  0  0  0  0  0  0  0  0  0  0  0
   31.1099   -9.6248   -1.7035 H   0  0  0  0  0  0  0  0  0  0  0  0
   30.2582  -10.9848    0.1671 H   0  0  0  0  0  0  0  0  0  0  0  0
   29.2891   -9.0862    0.0074 H   0  0  0  0  0  0  0  0  0  0  0  0
   29.1672   -8.2851   -1.6294 H   0  0  0  0  0  0  0  0  0  0  0  0
   27.4460  -10.6459   -0.6313 H   0  0  0  0  0  0  0  0  0  0  0  0
   25.7213   -6.7683   -1.4044 H   0  0  0  0  0  0  0  0  0  0  0  0
   28.4294   -8.6267   -3.6604 H   0  0  0  0  0  0  0  0  0  0  0  0
   26.2768  -10.0940   -5.1680 H   0  0  0  0  0  0  0  0  0  0  0  0
   28.0278   -9.6776   -5.5885 H   0  0  0  0  0  0  0  0  0  0  0  0
   26.2780   -8.5619   -7.0372 H   0  0  0  0  0  0  0  0  0  0  0  0
   27.4645   -7.4722   -6.1945 H   0  0  0  0  0  0  0  0  0  0  0  0
   24.0597   -8.3861   -4.1257 H   0  0  0  0  0  0  0  0  0  0  0  0
   23.3322   -7.8070   -5.6626 H   0  0  0  0  0  0  0  0  0  0  0  0
   24.4004   -9.2512   -5.6626 H   0  0  0  0  0  0  0  0  0  0  0  0
   27.6066   -5.6613   -3.6074 H   0  0  0  0  0  0  0  0  0  0  0  0
   25.3261   -5.0080   -3.0441 H   0  0  0  0  0  0  0  0  0  0  0  0
   24.1090   -6.2567   -3.1767 H   0  0  0  0  0  0  0  0  0  0  0  0
   24.8605   -4.1158   -5.1519 H   0  0  0  0  0  0  0  0  0  0  0  0
   23.3857   -5.1125   -5.1426 H   0  0  0  0  0  0  0  0  0  0  0  0
   25.9862   -5.6394   -6.7026 H   0  0  0  0  0  0  0  0  0  0  0  0
   22.8377   -6.9515   -6.3599 H   0  0  0  0  0  0  0  0  0  0  0  0
   25.6431   -7.3775   -8.3678 H   0  0  0  0  0  0  0  0  0  0  0  0
   24.1325   -7.2298   -9.3286 H   0  0  0  0  0  0  0  0  0  0  0  0
   25.3314   -5.8921   -9.3286 H   0  0  0  0  0  0  0  0  0  0  0  0
   23.2167   -4.2322   -6.9434 H   0  0  0  0  0  0  0  0  0  0  0  0
   21.7329   -4.6353   -8.5313 H   0  0  0  0  0  0  0  0  0  0  0  0
   25.4293   -4.0127   -9.0303 H   0  0  0  0  0  0  0  0  0  0  0  0
   25.3608   -3.3205   -7.3727 H   0  0  0  0  0  0  0  0  0  0  0  0
   23.2968   -1.9830   -8.1691 H   0  0  0  0  0  0  0  0  0  0  0  0
   23.7899   -2.5112   -9.8559 H   0  0  0  0  0  0  0  0  0  0  0  0
   25.0556   -1.1425   -6.7866 H   0  0  0  0  0  0  0  0  0  0  0  0
   26.4520   -0.2517   -7.4816 H   0  0  0  0  0  0  0  0  0  0  0  0
   24.8192    0.4969   -7.4816 H   0  0  0  0  0  0  0  0  0  0  0  0
   23.9891    0.7581   -9.3029 H   0  0  0  0  0  0  0  0  0  0  0  0
   25.2501    0.4012  -10.5314 H   0  0  0  0  0  0  0  0  0  0  0  0
   23.7093   -0.5221  -10.5314 H   0  0  0  0  0  0  0  0  0  0  0  0
   26.9585   -1.7551   -8.7920 H   0  0  0  0  0  0  0  0  0  0  0  0
 33 31  1  0
 34 31  1  0
 31 30  1  0
 31 32  1  0
 28 27  1  0
 30 29  1  0
 26 24  1  0
 29 27  1  0
 27 24  1  0
 24 25  1  0
 24 23  1  0
 23 17  1  0
 23 22  1  0
 16 17  1  0
 16 15  1  0
 17 18  1  0
 17 19  1  0
 15 14  1  0
 22 21  1  0
 20 19  1  0
 19 21  1  0
 19 13  1  0
 14 13  1  0
 14  2  1  0
  5  4  1  0
  3  4  1  0
  3  2  1  0
 13 12  2  0
  4  6  1  0
  1  2  1  0
  2  9  1  0
 12 10  1  0
  6  8  1  0
  6  7  1  0
  9  8  1  0
  9 10  1  0
 10 11  2  0
  1 35  1  0
  1 36  1  0
  1 37  1  0
  3 38  1  0
  3 39  1  0
  4 40  1  0
  5 41  1  0
  6 42  1  0
  7 43  1  0
  8 44  1  0
  8 45  1  0
  9 46  1  0
 12 47  1  0
 14 48  1  0
 15 49  1  0
 15 50  1  0
 16 51  1  0
 16 52  1  0
 18 53  1  0
 18 54  1  0
 18 55  1  0
 20 56  1  0
 21 57  1  0
 21 58  1  0
 22 59  1  0
 22 60  1  0
 23 61  1  0
 25 62  1  0
 26 63  1  0
 26 64  1  0
 26 65  1  0
 27 66  1  0
 28 67  1  0
 29 68  1  0
 29 69  1  0
 30 70  1  0
 30 71  1  0
 32 72  1  0
 32 73  1  0
 32 74  1  0
 33 75  1  0
 33 76  1  0
 33 77  1  0
 34 78  1  0
A    1
C19
A    2
C10
A    3
C1
A    4
C2
A    5
O2
A    6
C3
A    7
O3
A    8
C4
A    9
C5
A   10
C6
A   11
O6
A   12
C7
A   13
C8
A   14
C9
A   15
C11
A   16
C12
A   17
C13
A   18
C18
A   19
C14
A   20
O14
A   21
C15
A   22
C16
A   23
C17
A   24
C20
A   25
O20
A   26
C21
A   27
C22
A   28
O22
A   29
C23
A   30
C24
A   31
C25
A   32
C26
A   33
C27
A   34
O25
M  END
