2R59_PH0_A_706
     RDKit          3D

 66 68  0  0  0  0  0  0  0  0999 V2000
   34.1440    4.2310    3.4590 O   0  0  0  0  0  0  0  0  0  0  0  0
   32.6740    2.7490    1.1120 C   0  0  0  0  0  0  0  0  0  0  0  0
   31.9250    1.9930    0.0510 C   0  0  0  0  0  0  0  0  0  0  0  0
   32.3780    1.8490   -1.2850 C   0  0  0  0  0  0  0  0  0  0  0  0
   31.5450    1.1220   -2.1550 C   0  0  0  0  0  0  0  0  0  0  0  0
   30.3210    0.5870   -1.7880 C   0  0  0  0  0  0  0  0  0  0  0  0
   29.9130    0.7030   -0.4840 C   0  0  0  0  0  0  0  0  0  0  0  0
   30.7050    1.4180    0.4100 C   0  0  0  0  0  0  0  0  0  0  0  0
   34.1590    2.4400    1.2800 C   0  0  0  0  0  0  0  0  0  0  0  0
   34.7870    5.2380    0.9710 C   0  0  0  0  0  0  0  0  0  0  0  0
   34.7330    6.6000    1.6800 C   0  0  0  0  0  0  0  0  0  0  0  0
   34.4690    7.6510    0.6400 C   0  0  0  0  0  0  0  0  0  0  0  0
   33.2120    9.5880   -0.1850 C   0  0  0  0  0  0  0  0  0  0  0  0
   32.3020   10.6700    0.3840 C   0  0  0  0  0  0  0  0  0  0  0  0
   31.2240   10.0200    1.2170 C   0  0  0  0  0  0  0  0  0  0  0  0
   31.4400    9.7600    2.5910 C   0  0  0  0  0  0  0  0  0  0  0  0
   30.4200    9.1780    3.3160 C   0  0  0  0  0  0  0  0  0  0  0  0
   29.2220    8.8370    2.7010 C   0  0  0  0  0  0  0  0  0  0  0  0
   29.0160    9.1080    1.3620 C   0  0  0  0  0  0  0  0  0  0  0  0
   30.0230    9.7010    0.6330 C   0  0  0  0  0  0  0  0  0  0  0  0
   34.4680   10.2700   -0.6650 C   0  0  0  0  0  0  0  0  0  0  0  0
   34.9270    3.8450    2.1750 P   0  0  0  0  0  0  0  0  0  0  0  0
   36.5450    3.4940    2.5240 O   0  0  0  0  0  0  0  0  0  0  0  0
   34.3010    1.2490    2.1560 N   0  0  0  0  0  0  0  0  0  0  0  0
   36.1120    6.8800    2.2820 C   0  0  0  0  0  0  0  0  0  0  0  0
   36.0560    8.0130    3.3080 C   0  0  0  0  0  0  0  0  0  0  0  0
   37.1910    8.7810    3.5430 C   0  0  0  0  0  0  0  0  0  0  0  0
   37.2030    9.8470    4.4590 C   0  0  0  0  0  0  0  0  0  0  0  0
   36.0480   10.1100    5.1790 C   0  0  0  0  0  0  0  0  0  0  0  0
   34.9070    9.3190    5.0060 C   0  0  0  0  0  0  0  0  0  0  0  0
   34.9040    8.2690    4.0700 C   0  0  0  0  0  0  0  0  0  0  0  0
   35.1500    7.6490   -0.3360 O   0  0  0  0  0  0  0  0  0  0  0  0
   33.4920    8.5280    0.7690 N   0  0  0  0  0  0  0  0  0  0  0  0
   35.4190   10.5980    0.1270 O   0  0  0  0  0  0  0  0  0  0  0  0
   34.5220   10.4430   -1.8970 O   0  0  0  0  0  0  0  0  0  0  0  0
   34.6699    3.9717    4.2567 H   0  0  0  0  0  0  0  0  0  0  0  0
   32.5844    3.8203    0.8789 H   0  0  0  0  0  0  0  0  0  0  0  0
   32.2127    2.4342    2.0597 H   0  0  0  0  0  0  0  0  0  0  0  0
   33.3305    2.2829   -1.6233 H   0  0  0  0  0  0  0  0  0  0  0  0
   31.8863    0.9691   -3.1895 H   0  0  0  0  0  0  0  0  0  0  0  0
   29.6876    0.0781   -2.5295 H   0  0  0  0  0  0  0  0  0  0  0  0
   28.9739    0.2380   -0.1494 H   0  0  0  0  0  0  0  0  0  0  0  0
   30.3536    1.5351    1.4458 H   0  0  0  0  0  0  0  0  0  0  0  0
   34.6247    2.2710    0.2979 H   0  0  0  0  0  0  0  0  0  0  0  0
   33.8684    5.1073    0.3801 H   0  0  0  0  0  0  0  0  0  0  0  0
   35.6773    5.2232    0.3251 H   0  0  0  0  0  0  0  0  0  0  0  0
   33.9553    6.6039    2.4579 H   0  0  0  0  0  0  0  0  0  0  0  0
   32.7086    9.0795   -1.0205 H   0  0  0  0  0  0  0  0  0  0  0  0
   32.8912   11.3540    1.0125 H   0  0  0  0  0  0  0  0  0  0  0  0
   31.8431   11.2388   -0.4381 H   0  0  0  0  0  0  0  0  0  0  0  0
   32.3970   10.0154    3.0694 H   0  0  0  0  0  0  0  0  0  0  0  0
   30.5568    8.9825    4.3898 H   0  0  0  0  0  0  0  0  0  0  0  0
   28.4298    8.3465    3.2857 H   0  0  0  0  0  0  0  0  0  0  0  0
   28.0588    8.8531    0.8836 H   0  0  0  0  0  0  0  0  0  0  0  0
   29.8627    9.9222   -0.4325 H   0  0  0  0  0  0  0  0  0  0  0  0
   34.2660    1.5424    3.1427 H   0  0  0  0  0  0  0  0  0  0  0  0
   33.5327    0.5898    1.9664 H   0  0  0  0  0  0  0  0  0  0  0  0
   36.4782    5.9680    2.7762 H   0  0  0  0  0  0  0  0  0  0  0  0
   36.7883    7.1834    1.4693 H   0  0  0  0  0  0  0  0  0  0  0  0
   38.1134    8.5457    2.9918 H   0  0  0  0  0  0  0  0  0  0  0  0
   38.1068   10.4577    4.6011 H   0  0  0  0  0  0  0  0  0  0  0  0
   36.0284   10.9473    5.8921 H   0  0  0  0  0  0  0  0  0  0  0  0
   34.0068    9.5194    5.6056 H   0  0  0  0  0  0  0  0  0  0  0  0
   34.0038    7.6513    3.9354 H   0  0  0  0  0  0  0  0  0  0  0  0
   32.8881    8.4568    1.6003 H   0  0  0  0  0  0  0  0  0  0  0  0
   35.2853   10.5519    1.1068 H   0  0  0  0  0  0  0  0  0  0  0  0
  5  6  1  0
  5  4  2  0
 35 21  2  0
  6  7  2  0
  4  3  1  0
 21 13  1  0
 21 34  1  0
  7  8  1  0
 32 12  2  0
 13 14  1  0
 13 33  1  0
  3  8  2  0
  3  2  1  0
 14 15  1  0
 20 15  1  0
 20 19  2  0
 12 33  1  0
 12 11  1  0
 10 11  1  0
 10 22  1  0
  2  9  1  0
 15 16  2  0
  9 24  1  0
  9 22  1  0
 19 18  1  0
 11 25  1  0
 22 23  2  0
 22  1  1  0
 25 26  1  0
 16 17  1  0
 18 17  2  0
 26 27  2  0
 26 31  1  0
 27 28  1  0
 31 30  2  0
 28 29  2  0
 30 29  1  0
  1 36  1  0
  2 37  1  0
  2 38  1  0
  4 39  1  0
  5 40  1  0
  6 41  1  0
  7 42  1  0
  8 43  1  0
  9 44  1  0
 10 45  1  0
 10 46  1  0
 11 47  1  0
 13 48  1  0
 14 49  1  0
 14 50  1  0
 16 51  1  0
 17 52  1  0
 18 53  1  0
 19 54  1  0
 20 55  1  0
 24 56  1  0
 24 57  1  0
 25 58  1  0
 25 59  1  0
 27 60  1  0
 28 61  1  0
 29 62  1  0
 30 63  1  0
 31 64  1  0
 33 65  1  0
 34 66  1  0
A    1
O1
A    2
C1
A    3
C2
A    4
C3
A    5
C4
A    6
C5
A    7
C6
A    8
C7
A    9
C8
A   10
C9
A   11
C10
A   12
C11
A   13
C12
A   14
C13
A   15
C14
A   16
C15
A   17
C16
A   18
C17
A   19
C18
A   20
C19
A   21
C20
A   22
P
A   23
O5
A   24
N2
A   25
C21
A   26
C22
A   27
C23
A   28
C24
A   29
C25
A   30
C26
A   31
C27
A   32
O2
A   33
N1
A   34
O3
A   35
O4
M  END
