1JCY_R5P_A_1269
     RDKit          3D

 25 24  0  0  0  0  0  0  0  0999 V2000
   35.4170   51.3900   17.9680 C   0  0  0  0  0  0  0  0  0  0  0  0
   35.1990   50.4360   18.6710 O   0  0  0  0  0  0  0  0  0  0  0  0
   34.7940   52.7420   18.3260 C   0  0  0  0  0  0  0  0  0  0  0  0
   33.3700   52.7460   18.2260 O   0  0  0  0  0  0  0  0  0  0  0  0
   35.2130   53.7410   17.2700 C   0  0  0  0  0  0  0  0  0  0  0  0
   34.4130   53.7140   16.0670 O   0  0  0  0  0  0  0  0  0  0  0  0
   36.7250   53.7200   17.5320 C   0  0  0  0  0  0  0  0  0  0  0  0
   37.4650   53.8340   18.7600 O   0  0  0  0  0  0  0  0  0  0  0  0
   37.1140   54.7230   16.4860 C   0  0  0  0  0  0  0  0  0  0  0  0
   38.5280   54.6760   16.3800 O   0  0  0  0  0  0  0  0  0  0  0  0
   39.4280   55.6240   15.5050 P   0  0  0  0  0  0  0  0  0  0  0  0
   40.7800   55.5020   16.1130 O   0  0  0  0  0  0  0  0  0  0  0  0
   39.3360   55.0300   14.1480 O   0  0  0  0  0  0  0  0  0  0  0  0
   38.8650   57.0050   15.5900 O   0  0  0  0  0  0  0  0  0  0  0  0
   36.0567   51.2907   17.0787 H   0  0  0  0  0  0  0  0  0  0  0  0
   35.1157   52.9675   19.3535 H   0  0  0  0  0  0  0  0  0  0  0  0
   32.9754   52.7471   19.1340 H   0  0  0  0  0  0  0  0  0  0  0  0
   34.9737   54.8132   17.2140 H   0  0  0  0  0  0  0  0  0  0  0  0
   33.4537   53.6816   16.3093 H   0  0  0  0  0  0  0  0  0  0  0  0
   37.0193   52.6603   17.5515 H   0  0  0  0  0  0  0  0  0  0  0  0
   36.8471   53.7388   19.5277 H   0  0  0  0  0  0  0  0  0  0  0  0
   36.6530   54.4630   15.5217 H   0  0  0  0  0  0  0  0  0  0  0  0
   36.7716   55.7320   16.7594 H   0  0  0  0  0  0  0  0  0  0  0  0
   39.1849   54.0546   14.2243 H   0  0  0  0  0  0  0  0  0  0  0  0
   38.7607   57.2609   16.5406 H   0  0  0  0  0  0  0  0  0  0  0  0
  1  2  2  0
  1  3  1  0
  3  4  1  0
  3  5  1  0
  5  6  1  0
  5  7  1  0
  7  8  1  0
  7  9  1  0
  9 10  1  0
 10 11  1  0
 11 12  2  0
 11 13  1  0
 11 14  1  0
  1 15  1  0
  3 16  1  0
  4 17  1  0
  5 18  1  0
  6 19  1  0
  7 20  1  0
  8 21  1  0
  9 22  1  0
  9 23  1  0
 13 24  1  0
 14 25  1  0
A    1
C1
A    2
O1
A    3
C2
A    4
O2
A    5
C3
A    6
O3
A    7
C4
A    8
O4
A    9
C5
A   10
O5
A   11
P
A   12
O1P
A   13
O2P
A   14
O3P
M  END
