2R6W_LLB_A_1
     RDKit          3D

 64 68  0  0  0  0  0  0  0  0999 V2000
   10.7080   53.3480   59.6360 C   0  0  0  0  0  0  0  0  0  0  0  0
   10.2010   54.6090   60.1340 C   0  0  0  0  0  0  0  0  0  0  0  0
    8.7920   54.8130   60.2910 C   0  0  0  0  0  0  0  0  0  0  0  0
   11.7390   56.6550   71.3940 C   0  0  0  0  0  0  0  0  0  0  0  0
   13.2350   53.9520   59.7510 C   0  0  0  0  0  0  0  0  0  0  0  0
   14.1970   55.0950   63.7940 C   0  0  0  0  0  0  0  0  0  0  0  0
   14.8140   55.7760   62.7110 C   0  0  0  0  0  0  0  0  0  0  0  0
   14.4950   55.3920   61.3700 C   0  0  0  0  0  0  0  0  0  0  0  0
   15.2480   56.4120   65.4630 C   0  0  0  0  0  0  0  0  0  0  0  0
   13.8880   54.4290   58.8390 O   0  0  0  0  0  0  0  0  0  0  0  0
   12.1240   53.0060   59.4430 C   0  0  0  0  0  0  0  0  0  0  0  0
   12.2990   51.6840   58.9650 C   0  0  0  0  0  0  0  0  0  0  0  0
   13.6050   51.0450   58.6540 C   0  0  0  0  0  0  0  0  0  0  0  0
   14.6140   50.9770   59.6100 C   0  0  0  0  0  0  0  0  0  0  0  0
   15.8550   50.3780   59.2780 C   0  0  0  0  0  0  0  0  0  0  0  0
   16.0650   49.8660   57.9880 C   0  0  0  0  0  0  0  0  0  0  0  0
   17.2630   49.2760   57.6190 O   0  0  0  0  0  0  0  0  0  0  0  0
   15.0450   49.9230   57.0100 C   0  0  0  0  0  0  0  0  0  0  0  0
   13.8060   50.5260   57.3600 C   0  0  0  0  0  0  0  0  0  0  0  0
   10.7740   50.9350   58.7570 S   0  0  0  0  0  0  0  0  0  0  0  0
    9.8470   52.3010   59.2910 C   0  0  0  0  0  0  0  0  0  0  0  0
    8.4540   52.4840   59.4420 C   0  0  0  0  0  0  0  0  0  0  0  0
    7.9420   53.7470   59.9390 C   0  0  0  0  0  0  0  0  0  0  0  0
    6.5930   53.8990   60.0350 O   0  0  0  0  0  0  0  0  0  0  0  0
   13.5620   54.3280   61.1600 C   0  0  0  0  0  0  0  0  0  0  0  0
   13.2770   54.0730   63.5960 C   0  0  0  0  0  0  0  0  0  0  0  0
   12.9500   53.6820   62.2850 C   0  0  0  0  0  0  0  0  0  0  0  0
   14.4150   55.3460   65.1190 O   0  0  0  0  0  0  0  0  0  0  0  0
   15.4330   56.3180   66.9750 C   0  0  0  0  0  0  0  0  0  0  0  0
   14.3510   56.6080   67.9170 N   0  0  0  0  0  0  0  0  0  0  0  0
   13.5420   55.3660   68.1680 C   0  0  0  0  0  0  0  0  0  0  0  0
   12.4690   55.4960   69.2680 C   0  0  0  0  0  0  0  0  0  0  0  0
   12.9630   56.2400   70.5520 C   0  0  0  0  0  0  0  0  0  0  0  0
   13.7750   57.4960   70.2600 C   0  0  0  0  0  0  0  0  0  0  0  0
   14.8430   57.2060   69.1970 C   0  0  0  0  0  0  0  0  0  0  0  0
   10.9023   55.4158   60.3935 H   0  0  0  0  0  0  0  0  0  0  0  0
    8.3902   55.7638   60.6711 H   0  0  0  0  0  0  0  0  0  0  0  0
   11.9842   56.5719   72.4631 H   0  0  0  0  0  0  0  0  0  0  0  0
   11.4684   57.6951   71.1597 H   0  0  0  0  0  0  0  0  0  0  0  0
   10.8916   55.9940   71.1597 H   0  0  0  0  0  0  0  0  0  0  0  0
   15.5293   56.5898   62.9011 H   0  0  0  0  0  0  0  0  0  0  0  0
   14.9591   55.9060   60.5154 H   0  0  0  0  0  0  0  0  0  0  0  0
   16.2176   56.3221   64.9513 H   0  0  0  0  0  0  0  0  0  0  0  0
   14.8154   57.3786   65.1655 H   0  0  0  0  0  0  0  0  0  0  0  0
   14.4494   51.3859   60.6178 H   0  0  0  0  0  0  0  0  0  0  0  0
   16.6538   50.3143   60.0315 H   0  0  0  0  0  0  0  0  0  0  0  0
   17.8959   48.9643   58.3136 H   0  0  0  0  0  0  0  0  0  0  0  0
   15.2064   49.5108   56.0030 H   0  0  0  0  0  0  0  0  0  0  0  0
   12.9988   50.5877   56.6152 H   0  0  0  0  0  0  0  0  0  0  0  0
    7.7597   51.6709   59.1834 H   0  0  0  0  0  0  0  0  0  0  0  0
    6.1624   53.9475   60.9251 H   0  0  0  0  0  0  0  0  0  0  0  0
   12.8084   53.5739   64.4570 H   0  0  0  0  0  0  0  0  0  0  0  0
   12.2201   52.8755   62.1214 H   0  0  0  0  0  0  0  0  0  0  0  0
   15.7492   55.2847   67.1809 H   0  0  0  0  0  0  0  0  0  0  0  0
   16.1309   57.1457   67.1698 H   0  0  0  0  0  0  0  0  0  0  0  0
   13.0370   55.0928   67.2298 H   0  0  0  0  0  0  0  0  0  0  0  0
   14.2521   54.6037   68.5210 H   0  0  0  0  0  0  0  0  0  0  0  0
   11.6142   56.0507   68.8538 H   0  0  0  0  0  0  0  0  0  0  0  0
   12.2015   54.4741   69.5747 H   0  0  0  0  0  0  0  0  0  0  0  0
   13.6200   55.5362   71.0839 H   0  0  0  0  0  0  0  0  0  0  0  0
   14.2659   57.8336   71.1847 H   0  0  0  0  0  0  0  0  0  0  0  0
   13.0997   58.2786   69.8838 H   0  0  0  0  0  0  0  0  0  0  0  0
   15.5729   56.5092   69.6350 H   0  0  0  0  0  0  0  0  0  0  0  0
   15.2623   58.1856   68.9240 H   0  0  0  0  0  0  0  0  0  0  0  0
 18 19  2  0
 18 16  1  0
 19 13  1  0
 17 16  1  0
 16 15  2  0
 13 12  1  0
 13 14  2  0
 20 12  1  0
 20 21  1  0
 10  5  2  0
 12 11  2  0
 15 14  1  0
 21 22  2  0
 21  1  1  0
 22 23  1  0
 11  1  1  0
 11  5  1  0
  1  2  2  0
  5 25  1  0
 23 24  1  0
 23  3  2  0
  2  3  1  0
 25  8  1  0
 25 27  2  0
  8  7  2  0
 27 26  1  0
  7  6  1  0
 26  6  2  0
  6 28  1  0
 28  9  1  0
  9 29  1  0
 29 30  1  0
 30 31  1  0
 30 35  1  0
 31 32  1  0
 35 34  1  0
 32 33  1  0
 34 33  1  0
 33  4  1  0
  2 36  1  0
  3 37  1  0
  4 38  1  0
  4 39  1  0
  4 40  1  0
  7 41  1  0
  8 42  1  0
  9 43  1  0
  9 44  1  0
 14 45  1  0
 15 46  1  0
 17 47  1  0
 18 48  1  0
 19 49  1  0
 22 50  1  0
 24 51  1  0
 26 52  1  0
 27 53  1  0
 29 54  1  0
 29 55  1  0
 31 56  1  0
 31 57  1  0
 32 58  1  0
 32 59  1  0
 33 60  1  0
 34 61  1  0
 34 62  1  0
 35 63  1  0
 35 64  1  0
A    1
C4
A    2
C5
A    3
C6
A    4
C7
A    5
C15
A    6
C20
A    7
C21
A    8
C22
A    9
C28
A   10
O17
A   11
C12
A   12
C11
A   13
C14
A   14
C54
A   15
C53
A   16
C52
A   17
O59
A   18
C51
A   19
C50
A   20
S10
A   21
C3
A   22
C2
A   23
C1
A   24
O13
A   25
C16
A   26
C19
A   27
C18
A   28
O27
A   29
C29
A   30
N61
A   31
C66
A   32
C65
A   33
C64
A   34
C63
A   35
C62
M  END
