1H78_DCP_A_1588
     RDKit          3D

 44 45  0  0  0  0  0  0  0  0999 V2000
   33.7110   79.8960   72.2680 N   0  0  0  0  0  0  0  0  0  0  0  0
   34.1170   81.1250   71.7280 C   0  0  0  0  0  0  0  0  0  0  0  0
   34.2680   82.2460   72.4760 N   0  0  0  0  0  0  0  0  0  0  0  0
   34.0310   82.2340   73.8150 C   0  0  0  0  0  0  0  0  0  0  0  0
   33.6190   81.0550   74.4720 C   0  0  0  0  0  0  0  0  0  0  0  0
   33.4720   79.9050   73.6470 C   0  0  0  0  0  0  0  0  0  0  0  0
   34.3700   81.2760   70.5030 O   0  0  0  0  0  0  0  0  0  0  0  0
   34.2120   83.3800   74.4380 N   0  0  0  0  0  0  0  0  0  0  0  0
   33.5580   78.6750   71.3620 C   0  0  0  0  0  0  0  0  0  0  0  0
   34.8530   77.8960   71.2260 C   0  0  0  0  0  0  0  0  0  0  0  0
   34.5200   76.4310   71.4540 C   0  0  0  0  0  0  0  0  0  0  0  0
   33.0720   76.3830   71.8800 C   0  0  0  0  0  0  0  0  0  0  0  0
   32.5910   77.7590   71.8480 O   0  0  0  0  0  0  0  0  0  0  0  0
   34.5650   75.5910   70.2770 O   0  0  0  0  0  0  0  0  0  0  0  0
   33.1930   75.8260   73.2630 C   0  0  0  0  0  0  0  0  0  0  0  0
   32.8550   76.8600   74.1070 O   0  0  0  0  0  0  0  0  0  0  0  0
   32.8140   76.9420   75.7090 P   0  0  0  0  0  0  0  0  0  0  0  0
   32.9140   75.4880   76.2900 O   0  0  0  0  0  0  0  0  0  0  0  0
   31.4550   77.5890   75.8160 O   0  0  0  0  0  0  0  0  0  0  0  0
   34.1050   77.9730   76.2030 O   0  0  0  0  0  0  0  0  0  0  0  0
   35.6970   77.4650   76.3940 P   0  0  0  0  0  0  0  0  0  0  0  0
   36.6150   78.7040   76.7480 O   0  0  0  0  0  0  0  0  0  0  0  0
   36.1930   76.7530   75.0350 O   0  0  0  0  0  0  0  0  0  0  0  0
   35.9150   76.6270   77.8040 O   0  0  0  0  0  0  0  0  0  0  0  0
   36.8230   75.2230   78.0140 P   0  0  0  0  0  0  0  0  0  0  0  0
   36.0180   74.1020   77.1720 O   0  0  0  0  0  0  0  0  0  0  0  0
   36.7340   75.0000   79.5820 O   0  0  0  0  0  0  0  0  0  0  0  0
   38.3420   75.3870   77.4140 O   0  0  0  0  0  0  0  0  0  0  0  0
   33.4237   81.0268   75.5542 H   0  0  0  0  0  0  0  0  0  0  0  0
   33.1511   78.9661   74.1219 H   0  0  0  0  0  0  0  0  0  0  0  0
   34.2170   83.4113   75.4675 H   0  0  0  0  0  0  0  0  0  0  0  0
   34.3486   84.2450   73.8958 H   0  0  0  0  0  0  0  0  0  0  0  0
   33.2465   79.0885   70.3914 H   0  0  0  0  0  0  0  0  0  0  0  0
   35.2729   78.0351   70.2188 H   0  0  0  0  0  0  0  0  0  0  0  0
   35.5985   78.2459   71.9553 H   0  0  0  0  0  0  0  0  0  0  0  0
   35.2665   76.0605   72.1720 H   0  0  0  0  0  0  0  0  0  0  0  0
   32.3744   75.7902   71.2702 H   0  0  0  0  0  0  0  0  0  0  0  0
   34.6159   74.6411   70.5513 H   0  0  0  0  0  0  0  0  0  0  0  0
   32.5043   74.9789   73.3979 H   0  0  0  0  0  0  0  0  0  0  0  0
   34.2069   75.4499   73.4642 H   0  0  0  0  0  0  0  0  0  0  0  0
   31.2176   77.7020   76.7704 H   0  0  0  0  0  0  0  0  0  0  0  0
   36.7442   75.9618   75.2592 H   0  0  0  0  0  0  0  0  0  0  0  0
   37.0575   75.8105   80.0495 H   0  0  0  0  0  0  0  0  0  0  0  0
   38.9866   75.4566   78.1622 H   0  0  0  0  0  0  0  0  0  0  0  0
  1  2  1  0
  1  6  1  0
  1  9  1  0
  2  3  1  0
  2  7  2  0
  3  4  2  0
  4  5  1  0
  4  8  1  0
  5  6  2  0
  9 10  1  0
  9 13  1  0
 10 11  1  0
 11 12  1  0
 11 14  1  0
 12 13  1  0
 12 15  1  0
 15 16  1  0
 16 17  1  0
 17 18  2  0
 17 19  1  0
 17 20  1  0
 20 21  1  0
 21 22  2  0
 21 23  1  0
 21 24  1  0
 24 25  1  0
 25 26  2  0
 25 27  1  0
 25 28  1  0
  5 29  1  0
  6 30  1  0
  8 31  1  0
  8 32  1  0
  9 33  1  0
 10 34  1  0
 10 35  1  0
 11 36  1  0
 12 37  1  0
 14 38  1  0
 15 39  1  0
 15 40  1  0
 19 41  1  0
 23 42  1  0
 27 43  1  0
 28 44  1  0
A    1
N1
A    2
C2
A    3
N3
A    4
C4
A    5
C5
A    6
C6
A    7
O2
A    8
N4
A    9
C1'
A   10
C2'
A   11
C3'
A   12
C4'
A   13
O4'
A   14
O3'
A   15
C5'
A   16
O5'
A   17
PA
A   18
O1A
A   19
O2A
A   20
O3A
A   21
PB
A   22
O1B
A   23
O2B
A   24
O3B
A   25
PG
A   26
O1G
A   27
O2G
A   28
O3G
M  END
