2R8O_T5X_A_671
     RDKit          3D

 70 71  0  0  0  0  0  0  0  0999 V2000
   16.9250  -16.6580    4.8670 O   0  0  0  0  0  0  0  0  0  0  0  0
   15.8690  -17.5970    4.3370 P   0  0  0  0  0  0  0  0  0  0  0  0
   15.8870  -17.9390    2.8820 O   0  0  0  0  0  0  0  0  0  0  0  0
   15.8980  -18.9120    5.2640 O   0  0  0  0  0  0  0  0  0  0  0  0
   15.4730  -20.4490    4.9880 P   0  0  0  0  0  0  0  0  0  0  0  0
   16.2620  -21.1430    6.0530 O   0  0  0  0  0  0  0  0  0  0  0  0
   15.8450  -20.8820    3.6000 O   0  0  0  0  0  0  0  0  0  0  0  0
   13.9620  -20.4270    5.1320 O   0  0  0  0  0  0  0  0  0  0  0  0
   14.4350  -16.9730    4.6340 O   0  0  0  0  0  0  0  0  0  0  0  0
   14.3370  -16.3410    5.9040 C   0  0  0  0  0  0  0  0  0  0  0  0
   12.9180  -15.8690    6.0820 C   0  0  0  0  0  0  0  0  0  0  0  0
   12.8300  -15.2720    7.4580 C   0  0  0  0  0  0  0  0  0  0  0  0
   13.2360  -16.2270    8.9220 S   0  0  0  0  0  0  0  0  0  0  0  0
   12.4300  -15.0250    9.9870 C   0  0  0  0  0  0  0  0  0  0  0  0
   11.9830  -15.4660   11.3640 C   0  0  0  0  0  0  0  0  0  0  0  0
   10.6100  -16.1630   11.2290 C   0  0  0  0  0  0  0  0  0  0  0  0
    9.7740  -16.2280   12.5160 C   0  0  0  0  0  0  0  0  0  0  0  0
    8.3340  -16.6280   12.2170 C   0  0  0  0  0  0  0  0  0  0  0  0
    7.5190  -16.3710   13.3670 O   0  0  0  0  0  0  0  0  0  0  0  0
    6.0800  -17.0720   13.5430 P   0  0  0  0  0  0  0  0  0  0  0  0
    5.3300  -16.8270   12.2570 O   0  0  0  0  0  0  0  0  0  0  0  0
    5.4930  -16.3750   14.7470 O   0  0  0  0  0  0  0  0  0  0  0  0
    6.3830  -18.5430   13.7680 O   0  0  0  0  0  0  0  0  0  0  0  0
   10.3050  -17.1860   13.4380 O   0  0  0  0  0  0  0  0  0  0  0  0
   10.7470  -17.4890   10.6840 O   0  0  0  0  0  0  0  0  0  0  0  0
   13.0480  -16.3510   12.0220 C   0  0  0  0  0  0  0  0  0  0  0  0
   14.2270  -15.6060   12.3850 O   0  0  0  0  0  0  0  0  0  0  0  0
   11.8380  -14.2960   12.1740 O   0  0  0  0  0  0  0  0  0  0  0  0
   12.0880  -14.0160    9.1520 N   0  0  0  0  0  0  0  0  0  0  0  0
   12.1710  -14.1130    7.8140 C   0  0  0  0  0  0  0  0  0  0  0  0
   11.5280  -13.2500    6.7550 C   0  0  0  0  0  0  0  0  0  0  0  0
   11.7040  -12.7130    9.6900 C   0  0  0  0  0  0  0  0  0  0  0  0
   12.7850  -11.6450    9.6450 C   0  0  0  0  0  0  0  0  0  0  0  0
   13.9900  -11.7000   10.3680 C   0  0  0  0  0  0  0  0  0  0  0  0
   14.3190  -12.7340   11.1790 N   0  0  0  0  0  0  0  0  0  0  0  0
   14.8910  -10.6890   10.2750 N   0  0  0  0  0  0  0  0  0  0  0  0
   14.6210   -9.6240    9.5030 C   0  0  0  0  0  0  0  0  0  0  0  0
   15.6080   -8.4960    9.4240 C   0  0  0  0  0  0  0  0  0  0  0  0
   13.4660   -9.5480    8.8070 N   0  0  0  0  0  0  0  0  0  0  0  0
   12.5470  -10.5260    8.8540 C   0  0  0  0  0  0  0  0  0  0  0  0
   16.9110  -16.6705    5.8568 H   0  0  0  0  0  0  0  0  0  0  0  0
   15.9371  -20.8573    6.9435 H   0  0  0  0  0  0  0  0  0  0  0  0
   13.7221  -20.4235    6.0925 H   0  0  0  0  0  0  0  0  0  0  0  0
   14.5943  -17.0574    6.6981 H   0  0  0  0  0  0  0  0  0  0  0  0
   15.0322  -15.4905    5.9617 H   0  0  0  0  0  0  0  0  0  0  0  0
   12.6729  -15.1109    5.3236 H   0  0  0  0  0  0  0  0  0  0  0  0
   12.2073  -16.7005    5.9657 H   0  0  0  0  0  0  0  0  0  0  0  0
   10.0537  -15.5143   10.5364 H   0  0  0  0  0  0  0  0  0  0  0  0
    9.8076  -15.2211   12.9576 H   0  0  0  0  0  0  0  0  0  0  0  0
    7.9602  -16.0423   11.3642 H   0  0  0  0  0  0  0  0  0  0  0  0
    8.2943  -17.6994   11.9711 H   0  0  0  0  0  0  0  0  0  0  0  0
    5.8441  -16.7919   15.5734 H   0  0  0  0  0  0  0  0  0  0  0  0
    6.4209  -18.7272   14.7400 H   0  0  0  0  0  0  0  0  0  0  0  0
   10.1360  -16.8811   14.3646 H   0  0  0  0  0  0  0  0  0  0  0  0
   10.8147  -18.1442   11.4231 H   0  0  0  0  0  0  0  0  0  0  0  0
   12.6214  -16.8032   12.9295 H   0  0  0  0  0  0  0  0  0  0  0  0
   13.3454  -17.1195   11.2934 H   0  0  0  0  0  0  0  0  0  0  0  0
   14.2982  -15.5610   13.3714 H   0  0  0  0  0  0  0  0  0  0  0  0
   11.8696  -14.5506   13.1302 H   0  0  0  0  0  0  0  0  0  0  0  0
   10.9373  -12.4571    7.2370 H   0  0  0  0  0  0  0  0  0  0  0  0
   12.3094  -12.7955    6.1282 H   0  0  0  0  0  0  0  0  0  0  0  0
   10.8689  -13.8687    6.1282 H   0  0  0  0  0  0  0  0  0  0  0  0
   10.8420  -12.3480    9.1124 H   0  0  0  0  0  0  0  0  0  0  0  0
   11.4845  -12.8775   10.7552 H   0  0  0  0  0  0  0  0  0  0  0  0
   14.2822  -12.6182   12.2018 H   0  0  0  0  0  0  0  0  0  0  0  0
   14.6060  -13.6360   10.7728 H   0  0  0  0  0  0  0  0  0  0  0  0
   15.8851   -8.1794   10.4404 H   0  0  0  0  0  0  0  0  0  0  0  0
   16.5071   -8.8324    8.8869 H   0  0  0  0  0  0  0  0  0  0  0  0
   15.1552   -7.6495    8.8869 H   0  0  0  0  0  0  0  0  0  0  0  0
   11.6164  -10.4431    8.2734 H   0  0  0  0  0  0  0  0  0  0  0  0
  3  2  2  0
  7  5  2  0
  2  9  1  0
  2  1  1  0
  2  4  1  0
  9 10  1  0
  5  8  1  0
  5  4  1  0
  5  6  1  0
 10 11  1  0
 11 12  1  0
 31 30  1  0
 12 30  2  0
 12 13  1  0
 30 29  1  0
 39 40  2  0
 39 37  1  0
 40 33  1  0
 13 14  1  0
 29 32  1  0
 29 14  2  0
 38 37  1  0
 37 36  2  0
 33 32  1  0
 33 34  2  0
 14 15  1  0
 36 34  1  0
 34 35  1  0
 25 16  1  0
 16 15  1  0
 16 17  1  0
 15 26  1  0
 15 28  1  0
 26 27  1  0
 18 17  1  0
 18 19  1  0
 21 20  2  0
 17 24  1  0
 19 20  1  0
 20 23  1  0
 20 22  1  0
  1 41  1  0
  6 42  1  0
  8 43  1  0
 10 44  1  0
 10 45  1  0
 11 46  1  0
 11 47  1  0
 16 48  1  0
 17 49  1  0
 18 50  1  0
 18 51  1  0
 22 52  1  0
 23 53  1  0
 24 54  1  0
 25 55  1  0
 26 56  1  0
 26 57  1  0
 27 58  1  0
 28 59  1  0
 31 60  1  0
 31 61  1  0
 31 62  1  0
 32 63  1  0
 32 64  1  0
 35 65  1  0
 35 66  1  0
 38 67  1  0
 38 68  1  0
 38 69  1  0
 40 70  1  0
M  CHG  1  29   1
A    1
O2A
A    2
PA
A    3
O1A
A    4
O3A
A    5
PB
A    6
O3B
A    7
O2B
A    8
O1B
A    9
O7
A   10
C7
A   11
C6
A   12
C5
A   13
S1
A   14
C2
A   15
CX2
A   16
CX3
A   17
CX4
A   18
CX5
A   19
OX5
A   20
PX
A   21
OX7
A   22
OX6
A   23
OX8
A   24
OX4
A   25
OX3
A   26
CX1
A   27
OX1
A   28
OX2
A   29
N3
A   30
C4
A   31
CM4
A   32
C7,
A   33
C5,
A   34
C4,
A   35
N4,
A   36
N3,
A   37
C2,
A   38
CM2
A   39
N1,
A   40
C6,
M  END
