2R8P_T6F_A_671
     RDKit          3D

 74 75  0  0  0  0  0  0  0  0999 V2000
   16.9520  -16.9400    5.1400 O   0  0  0  0  0  0  0  0  0  0  0  0
   15.8500  -17.6750    4.4380 P   0  0  0  0  0  0  0  0  0  0  0  0
   15.9150  -17.9760    2.9810 O   0  0  0  0  0  0  0  0  0  0  0  0
   15.4310  -18.9520    5.3240 O   0  0  0  0  0  0  0  0  0  0  0  0
   15.7160  -20.5310    5.1720 P   0  0  0  0  0  0  0  0  0  0  0  0
   16.9950  -20.6820    5.9690 O   0  0  0  0  0  0  0  0  0  0  0  0
   15.8300  -20.9170    3.7180 O   0  0  0  0  0  0  0  0  0  0  0  0
   14.5870  -21.2290    5.8730 O   0  0  0  0  0  0  0  0  0  0  0  0
   14.4830  -16.8340    4.4870 O   0  0  0  0  0  0  0  0  0  0  0  0
   13.5620  -16.8490    5.5630 C   0  0  0  0  0  0  0  0  0  0  0  0
   13.3140  -15.3920    5.8650 C   0  0  0  0  0  0  0  0  0  0  0  0
   12.8820  -15.2290    7.2980 C   0  0  0  0  0  0  0  0  0  0  0  0
   13.5030  -16.0800    8.7580 S   0  0  0  0  0  0  0  0  0  0  0  0
   12.5700  -15.0490    9.9470 C   0  0  0  0  0  0  0  0  0  0  0  0
   12.0390  -15.4770   11.3100 C   0  0  0  0  0  0  0  0  0  0  0  0
   11.8120  -14.3270   12.1320 O   0  0  0  0  0  0  0  0  0  0  0  0
   13.1270  -16.2930   12.0220 C   0  0  0  0  0  0  0  0  0  0  0  0
   14.2270  -15.4830   12.5060 O   0  0  0  0  0  0  0  0  0  0  0  0
   10.6970  -16.2300   11.1320 C   0  0  0  0  0  0  0  0  0  0  0  0
   10.8990  -17.5690   10.6440 O   0  0  0  0  0  0  0  0  0  0  0  0
    9.7650  -16.3110   12.3610 C   0  0  0  0  0  0  0  0  0  0  0  0
   10.3250  -17.1750   13.3640 O   0  0  0  0  0  0  0  0  0  0  0  0
    8.3760  -16.8610   12.0000 C   0  0  0  0  0  0  0  0  0  0  0  0
    7.7560  -16.1190   10.9360 O   0  0  0  0  0  0  0  0  0  0  0  0
    7.4130  -16.8800   13.1880 C   0  0  0  0  0  0  0  0  0  0  0  0
    6.1590  -17.4050   12.7430 O   0  0  0  0  0  0  0  0  0  0  0  0
    4.8090  -17.2640   13.6210 P   0  0  0  0  0  0  0  0  0  0  0  0
    3.7480  -16.8320   12.6270 O   0  0  0  0  0  0  0  0  0  0  0  0
    5.1650  -16.2470   14.6860 O   0  0  0  0  0  0  0  0  0  0  0  0
    4.5740  -18.6650   14.1590 O   0  0  0  0  0  0  0  0  0  0  0  0
   12.2510  -14.0340    9.1110 N   0  0  0  0  0  0  0  0  0  0  0  0
   12.2400  -14.0950    7.7640 C   0  0  0  0  0  0  0  0  0  0  0  0
   11.4730  -13.2470    6.7670 C   0  0  0  0  0  0  0  0  0  0  0  0
   11.8080  -12.7730    9.6860 C   0  0  0  0  0  0  0  0  0  0  0  0
   12.8750  -11.6870    9.6550 C   0  0  0  0  0  0  0  0  0  0  0  0
   14.0860  -11.7370   10.3690 C   0  0  0  0  0  0  0  0  0  0  0  0
   14.4460  -12.7820   11.1720 N   0  0  0  0  0  0  0  0  0  0  0  0
   14.9590  -10.7000   10.2570 N   0  0  0  0  0  0  0  0  0  0  0  0
   14.6570   -9.6250    9.4970 C   0  0  0  0  0  0  0  0  0  0  0  0
   15.6130   -8.4710    9.4060 C   0  0  0  0  0  0  0  0  0  0  0  0
   13.4860   -9.5610    8.8190 N   0  0  0  0  0  0  0  0  0  0  0  0
   12.6020  -10.5690    8.8710 C   0  0  0  0  0  0  0  0  0  0  0  0
   16.8310  -17.0207    6.1193 H   0  0  0  0  0  0  0  0  0  0  0  0
   16.7859  -20.6573    6.9363 H   0  0  0  0  0  0  0  0  0  0  0  0
   14.7096  -21.1532    6.8525 H   0  0  0  0  0  0  0  0  0  0  0  0
   12.6279  -17.3500    5.2689 H   0  0  0  0  0  0  0  0  0  0  0  0
   13.9453  -17.3986    6.4353 H   0  0  0  0  0  0  0  0  0  0  0  0
   14.2399  -14.8225    5.6967 H   0  0  0  0  0  0  0  0  0  0  0  0
   12.5193  -15.0165    5.2036 H   0  0  0  0  0  0  0  0  0  0  0  0
   11.8635  -14.5877   13.0857 H   0  0  0  0  0  0  0  0  0  0  0  0
   12.6708  -16.8102   12.8790 H   0  0  0  0  0  0  0  0  0  0  0  0
   13.5407  -16.9971   11.2851 H   0  0  0  0  0  0  0  0  0  0  0  0
   14.2265  -15.4834   13.4960 H   0  0  0  0  0  0  0  0  0  0  0  0
   10.1799  -15.5932   10.3991 H   0  0  0  0  0  0  0  0  0  0  0  0
   10.9925  -18.1889   11.4102 H   0  0  0  0  0  0  0  0  0  0  0  0
    9.6638  -15.2828   12.7385 H   0  0  0  0  0  0  0  0  0  0  0  0
   10.0993  -16.8268   14.2629 H   0  0  0  0  0  0  0  0  0  0  0  0
    8.5645  -17.8946   11.6742 H   0  0  0  0  0  0  0  0  0  0  0  0
    7.1708  -15.4186   11.3195 H   0  0  0  0  0  0  0  0  0  0  0  0
    7.8204  -17.5174   13.9866 H   0  0  0  0  0  0  0  0  0  0  0  0
    7.2785  -15.8620   13.5824 H   0  0  0  0  0  0  0  0  0  0  0  0
    5.0258  -16.6448   15.5818 H   0  0  0  0  0  0  0  0  0  0  0  0
    4.5776  -18.6433   15.1488 H   0  0  0  0  0  0  0  0  0  0  0  0
   10.8304  -12.5366    7.3077 H   0  0  0  0  0  0  0  0  0  0  0  0
   12.1823  -12.6923    6.1352 H   0  0  0  0  0  0  0  0  0  0  0  0
   10.8501  -13.8973    6.1352 H   0  0  0  0  0  0  0  0  0  0  0  0
   10.9338  -12.4194    9.1196 H   0  0  0  0  0  0  0  0  0  0  0  0
   11.5690  -12.9638   10.7426 H   0  0  0  0  0  0  0  0  0  0  0  0
   14.4109  -12.6802   12.1964 H   0  0  0  0  0  0  0  0  0  0  0  0
   14.7525  -13.6716   10.7530 H   0  0  0  0  0  0  0  0  0  0  0  0
   15.8866   -8.1408   10.4190 H   0  0  0  0  0  0  0  0  0  0  0  0
   16.5181   -8.7863    8.8662 H   0  0  0  0  0  0  0  0  0  0  0  0
   15.1348   -7.6404    8.8662 H   0  0  0  0  0  0  0  0  0  0  0  0
   11.6655  -10.5125    8.2967 H   0  0  0  0  0  0  0  0  0  0  0  0
  3  2  2  0
  7  5  2  0
  2  9  1  0
  2  1  1  0
  2  4  1  0
  9 10  1  0
  5  4  1  0
  5  8  1  0
  5  6  1  0
 10 11  1  0
 11 12  1  0
 33 32  1  0
 12 32  2  0
 12 13  1  0
 32 31  1  0
 13 14  1  0
 41 42  2  0
 41 39  1  0
 42 35  1  0
 31 34  1  0
 31 14  2  0
 40 39  1  0
 39 38  2  0
 35 34  1  0
 35 36  2  0
 14 15  1  0
 38 36  1  0
 36 37  1  0
 20 19  1  0
 24 23  1  0
 19 15  1  0
 19 21  1  0
 15 17  1  0
 15 16  1  0
 23 21  1  0
 23 25  1  0
 17 18  1  0
 21 22  1  0
 28 27  2  0
 26 25  1  0
 26 27  1  0
 27 30  1  0
 27 29  1  0
  1 43  1  0
  6 44  1  0
  8 45  1  0
 10 46  1  0
 10 47  1  0
 11 48  1  0
 11 49  1  0
 16 50  1  0
 17 51  1  0
 17 52  1  0
 18 53  1  0
 19 54  1  0
 20 55  1  0
 21 56  1  0
 22 57  1  0
 23 58  1  0
 24 59  1  0
 25 60  1  0
 25 61  1  0
 29 62  1  0
 30 63  1  0
 33 64  1  0
 33 65  1  0
 33 66  1  0
 34 67  1  0
 34 68  1  0
 37 69  1  0
 37 70  1  0
 40 71  1  0
 40 72  1  0
 40 73  1  0
 42 74  1  0
M  CHG  1  31   1
A    1
O2A
A    2
PA
A    3
O1A
A    4
O3A
A    5
PB
A    6
O3B
A    7
O2B
A    8
O1B
A    9
O7
A   10
C7
A   11
C6
A   12
C5
A   13
S1
A   14
C2
A   15
CF2
A   16
OF2
A   17
CF1
A   18
OF1
A   19
CF3
A   20
OF3
A   21
CF4
A   22
OF4
A   23
CF5
A   24
OF5
A   25
CF6
A   26
OF6
A   27
PF
A   28
OF8
A   29
OF7
A   30
OF9
A   31
N3
A   32
C4
A   33
CM4
A   34
C7,
A   35
C5,
A   36
C4,
A   37
N4,
A   38
N3,
A   39
C2,
A   40
CM2
A   41
N1,
A   42
C6,
M  END
