2R9C_GRD_A_1
     RDKit          3D

 78 80  0  0  0  0  0  0  0  0999 V2000
   -2.8980    4.0540   23.2430 C   0  0  0  0  0  0  0  0  0  0  0  0
   -2.1650    3.1780   22.4660 C   0  0  0  0  0  0  0  0  0  0  0  0
   -1.4810    2.1530   23.1020 C   0  0  0  0  0  0  0  0  0  0  0  0
   -3.1130    4.6140   21.1540 C   0  0  0  0  0  0  0  0  0  0  0  0
   -1.5240    2.0540   24.4640 N   0  0  0  0  0  0  0  0  0  0  0  0
   -2.9220    3.9350   24.6100 N   0  0  0  0  0  0  0  0  0  0  0  0
  -18.8200   11.1120   19.0550 C   0  0  0  0  0  0  0  0  0  0  0  0
  -18.3550   12.4170   18.8310 C   0  0  0  0  0  0  0  0  0  0  0  0
   -6.5420    5.4240   21.9980 C   0  0  0  0  0  0  0  0  0  0  0  0
  -17.2370   10.8790   20.8780 C   0  0  0  0  0  0  0  0  0  0  0  0
  -18.2600   10.3440   20.0840 C   0  0  0  0  0  0  0  0  0  0  0  0
  -11.4670    8.5010   23.0620 C   0  0  0  0  0  0  0  0  0  0  0  0
  -13.6420    6.9190   20.7290 O   0  0  0  0  0  0  0  0  0  0  0  0
  -15.2990    8.1460   23.3870 O   0  0  0  0  0  0  0  0  0  0  0  0
  -10.6740    7.2160   23.0900 C   0  0  0  0  0  0  0  0  0  0  0  0
   -5.7210    5.7510   23.2230 C   0  0  0  0  0  0  0  0  0  0  0  0
   -2.3150    3.5430   21.1560 N   0  0  0  0  0  0  0  0  0  0  0  0
   -3.4720    4.9350   22.4060 N   0  0  0  0  0  0  0  0  0  0  0  0
   -2.2270    2.9360   25.2110 C   0  0  0  0  0  0  0  0  0  0  0  0
   -0.7760    1.2540   22.3740 N   0  0  0  0  0  0  0  0  0  0  0  0
   -8.8080    5.7350   20.3540 O   0  0  0  0  0  0  0  0  0  0  0  0
   -8.9420    5.3170   21.4930 C   0  0  0  0  0  0  0  0  0  0  0  0
   -7.9410    5.1380   22.3450 N   0  0  0  0  0  0  0  0  0  0  0  0
   -4.3000    6.0810   22.7820 C   0  0  0  0  0  0  0  0  0  0  0  0
  -10.3350    4.9900   21.9510 C   0  0  0  0  0  0  0  0  0  0  0  0
  -10.2880    4.2090   23.1660 O   0  0  0  0  0  0  0  0  0  0  0  0
  -11.1770    6.2520   21.9910 C   0  0  0  0  0  0  0  0  0  0  0  0
  -12.5350    5.7980   22.3560 N   0  0  0  0  0  0  0  0  0  0  0  0
  -13.6390    6.1740   21.7110 C   0  0  0  0  0  0  0  0  0  0  0  0
  -14.9450    5.6430   22.2610 C   0  0  0  0  0  0  0  0  0  0  0  0
  -15.2350    4.3090   21.5680 C   0  0  0  0  0  0  0  0  0  0  0  0
  -16.5410    3.6450   22.0050 C   0  0  0  0  0  0  0  0  0  0  0  0
  -16.7160    2.3280   21.2500 C   0  0  0  0  0  0  0  0  0  0  0  0
  -16.5640    3.4140   23.5150 C   0  0  0  0  0  0  0  0  0  0  0  0
  -16.0120    6.5770   21.9350 N   0  0  0  0  0  0  0  0  0  0  0  0
  -16.0820    7.7860   22.5240 C   0  0  0  0  0  0  0  0  0  0  0  0
  -17.1350    8.7020   22.1590 O   0  0  0  0  0  0  0  0  0  0  0  0
  -16.6450   10.0580   21.9620 C   0  0  0  0  0  0  0  0  0  0  0  0
  -16.7710   12.1790   20.6490 C   0  0  0  0  0  0  0  0  0  0  0  0
  -17.3300   12.9520   19.6210 C   0  0  0  0  0  0  0  0  0  0  0  0
   -3.4313    5.1569   20.2518 H   0  0  0  0  0  0  0  0  0  0  0  0
  -19.6199   10.6944   18.4259 H   0  0  0  0  0  0  0  0  0  0  0  0
  -18.7991   13.0244   18.0286 H   0  0  0  0  0  0  0  0  0  0  0  0
   -6.5131    6.2814   21.3096 H   0  0  0  0  0  0  0  0  0  0  0  0
   -6.1142    4.5270   21.5265 H   0  0  0  0  0  0  0  0  0  0  0  0
  -18.6230    9.3221   20.2685 H   0  0  0  0  0  0  0  0  0  0  0  0
  -11.6696    8.8293   24.0921 H   0  0  0  0  0  0  0  0  0  0  0  0
  -10.8902    9.2765   22.5367 H   0  0  0  0  0  0  0  0  0  0  0  0
  -12.4188    8.3331   22.5367 H   0  0  0  0  0  0  0  0  0  0  0  0
   -9.6114    7.4413   22.9167 H   0  0  0  0  0  0  0  0  0  0  0  0
  -10.8020    6.7375   24.0722 H   0  0  0  0  0  0  0  0  0  0  0  0
   -6.1584    6.6166   23.7420 H   0  0  0  0  0  0  0  0  0  0  0  0
   -5.7114    4.8915   23.9094 H   0  0  0  0  0  0  0  0  0  0  0  0
   -2.2354    2.8434   26.3071 H   0  0  0  0  0  0  0  0  0  0  0  0
   -0.2122    0.5350   22.8495 H   0  0  0  0  0  0  0  0  0  0  0  0
   -0.8038    1.2894   21.3450 H   0  0  0  0  0  0  0  0  0  0  0  0
   -8.1532    4.7839   23.2887 H   0  0  0  0  0  0  0  0  0  0  0  0
   -4.3628    6.7526   21.9131 H   0  0  0  0  0  0  0  0  0  0  0  0
   -3.8102    6.5312   23.6580 H   0  0  0  0  0  0  0  0  0  0  0  0
  -10.8531    4.3390   21.2315 H   0  0  0  0  0  0  0  0  0  0  0  0
  -10.3244    4.8140   23.9488 H   0  0  0  0  0  0  0  0  0  0  0  0
  -11.1369    6.7841   21.0291 H   0  0  0  0  0  0  0  0  0  0  0  0
  -12.6340    5.1545   23.1541 H   0  0  0  0  0  0  0  0  0  0  0  0
  -14.8824    5.5156   23.3518 H   0  0  0  0  0  0  0  0  0  0  0  0
  -15.2851    4.4876   20.4837 H   0  0  0  0  0  0  0  0  0  0  0  0
  -14.4225    3.6235   21.8508 H   0  0  0  0  0  0  0  0  0  0  0  0
  -17.3796    4.3148   21.7637 H   0  0  0  0  0  0  0  0  0  0  0  0
  -16.8255    1.5041   21.9705 H   0  0  0  0  0  0  0  0  0  0  0  0
  -17.6146    2.3843   20.6180 H   0  0  0  0  0  0  0  0  0  0  0  0
  -15.8339    2.1477   20.6180 H   0  0  0  0  0  0  0  0  0  0  0  0
  -16.4680    4.3786   24.0350 H   0  0  0  0  0  0  0  0  0  0  0  0
  -17.5140    2.9375   23.7986 H   0  0  0  0  0  0  0  0  0  0  0  0
  -15.7266    2.7596   23.7986 H   0  0  0  0  0  0  0  0  0  0  0  0
  -16.7256    6.3090   21.2423 H   0  0  0  0  0  0  0  0  0  0  0  0
  -15.5659    9.9863   21.7612 H   0  0  0  0  0  0  0  0  0  0  0  0
  -16.9354   10.5834   22.8838 H   0  0  0  0  0  0  0  0  0  0  0  0
  -15.9671   12.5939   21.2748 H   0  0  0  0  0  0  0  0  0  0  0  0
  -16.9652   13.9732   19.4362 H   0  0  0  0  0  0  0  0  0  0  0  0
  1  2  1  0
  1  6  2  0
  1 18  1  0
  2  3  2  0
  2 17  1  0
  3  5  1  0
  3 20  1  0
  4 17  2  0
  4 18  1  0
  5 19  2  0
  6 19  1  0
  7  8  2  0
  7 11  1  0
  8 40  1  0
  9 16  1  0
  9 23  1  0
 10 11  2  0
 10 38  1  0
 10 39  1  0
 12 15  1  0
 13 29  2  0
 14 36  2  0
 15 27  1  0
 16 24  1  0
 18 24  1  0
 21 22  2  0
 22 23  1  0
 22 25  1  0
 25 26  1  0
 25 27  1  0
 27 28  1  0
 28 29  1  0
 29 30  1  0
 30 31  1  0
 30 35  1  0
 31 32  1  0
 32 33  1  0
 32 34  1  0
 35 36  1  0
 36 37  1  0
 37 38  1  0
 39 40  2  0
  4 41  1  0
  7 42  1  0
  8 43  1  0
  9 44  1  0
  9 45  1  0
 11 46  1  0
 12 47  1  0
 12 48  1  0
 12 49  1  0
 15 50  1  0
 15 51  1  0
 16 52  1  0
 16 53  1  0
 19 54  1  0
 20 55  1  0
 20 56  1  0
 23 57  1  0
 24 58  1  0
 24 59  1  0
 25 60  1  0
 26 61  1  0
 27 62  1  0
 28 63  1  0
 30 64  1  0
 31 65  1  0
 31 66  1  0
 32 67  1  0
 33 68  1  0
 33 69  1  0
 33 70  1  0
 34 71  1  0
 34 72  1  0
 34 73  1  0
 35 74  1  0
 38 75  1  0
 38 76  1  0
 39 77  1  0
 40 78  1  0
A    1
C4
A    2
C5
A    3
C6
A    4
C8
A    5
N1
A    6
N3
A    7
CAN
A    8
CAL
A    9
CAU
A   10
CBM
A   11
CAQ
A   12
CAA
A   13
OAH
A   14
OAG
A   15
CAS
A   16
CAT
A   17
N7
A   18
N9
A   19
C2
A   20
N6
A   21
OAI
A   22
CBK
A   23
N1C
A   24
CAV
A   25
CBU
A   26
OAJ
A   27
CBS
A   28
N1E
A   29
CBJ
A   30
CBR
A   31
CAY
A   32
CBP
A   33
CAB
A   34
CAC
A   35
N1D
A   36
CBI
A   37
OBF
A   38
CAW
A   39
CAP
A   40
CAM
M  END
