2R9W_23C_A_365
     RDKit          3D

 44 47  0  0  0  0  0  0  0  0999 V2000
   22.9090    9.3210   15.6750 C   0  0  0  0  0  0  0  0  0  0  0  0
   22.4060    9.2820   16.9720 C   0  0  0  0  0  0  0  0  0  0  0  0
   21.3400   10.0720   17.3400 C   0  0  0  0  0  0  0  0  0  0  0  0
   20.7510   10.9320   16.4290 C   0  0  0  0  0  0  0  0  0  0  0  0
   21.2410   10.9980   15.1300 C   0  0  0  0  0  0  0  0  0  0  0  0
   22.3160   10.1940   14.7590 C   0  0  0  0  0  0  0  0  0  0  0  0
   22.7950   10.2750   13.4610 C   0  0  0  0  0  0  0  0  0  0  0  0
   23.8630    9.4750   13.0910 C   0  0  0  0  0  0  0  0  0  0  0  0
   24.4450    8.6080   13.9970 C   0  0  0  0  0  0  0  0  0  0  0  0
   23.9950    8.5220   15.3010 C   0  0  0  0  0  0  0  0  0  0  0  0
   24.7120    7.5120   16.2130 C   0  0  0  0  0  0  0  0  0  0  0  0
   23.7960    6.2670   16.3550 C   0  0  0  0  0  0  0  0  0  0  0  0
   24.3490    5.1940   17.3360 C   0  0  0  0  0  0  0  0  0  0  0  0
   24.0970    5.3900   18.5510 O   0  0  0  0  0  0  0  0  0  0  0  0
   24.9630    4.2210   16.8750 O   0  0  0  0  0  0  0  0  0  0  0  0
   23.3960    5.7440   15.0260 N   0  0  0  0  0  0  0  0  0  0  0  0
   22.1140    5.6400   14.6600 C   0  0  0  0  0  0  0  0  0  0  0  0
   21.1580    5.9120   15.3850 O   0  0  0  0  0  0  0  0  0  0  0  0
   22.0290    5.1580   13.3540 C   0  0  0  0  0  0  0  0  0  0  0  0
   20.9590    4.8580   12.5070 C   0  0  0  0  0  0  0  0  0  0  0  0
   21.2080    4.3710   11.2250 C   0  0  0  0  0  0  0  0  0  0  0  0
   20.0820    4.0090   10.2690 C   0  0  0  0  0  0  0  0  0  0  0  0
   19.0120    3.5780   10.7470 O   0  0  0  0  0  0  0  0  0  0  0  0
   20.3180    4.1100    9.0460 O   0  0  0  0  0  0  0  0  0  0  0  0
   22.5210    4.1870   10.8070 C   0  0  0  0  0  0  0  0  0  0  0  0
   23.5720    4.4900   11.6530 C   0  0  0  0  0  0  0  0  0  0  0  0
   23.3420    4.9770   12.9340 C   0  0  0  0  0  0  0  0  0  0  0  0
   24.1670    5.3610   13.9950 C   0  0  0  0  0  0  0  0  0  0  0  0
   25.4050    5.3390   13.9930 O   0  0  0  0  0  0  0  0  0  0  0  0
   22.8660    8.6114   17.7127 H   0  0  0  0  0  0  0  0  0  0  0  0
   20.9525   10.0192   18.3681 H   0  0  0  0  0  0  0  0  0  0  0  0
   19.8998   11.5597   16.7315 H   0  0  0  0  0  0  0  0  0  0  0  0
   20.7826   11.6809   14.3996 H   0  0  0  0  0  0  0  0  0  0  0  0
   22.3345   10.9632   12.7369 H   0  0  0  0  0  0  0  0  0  0  0  0
   24.2530    9.5300   12.0639 H   0  0  0  0  0  0  0  0  0  0  0  0
   25.2834    7.9736   13.6734 H   0  0  0  0  0  0  0  0  0  0  0  0
   25.6733    7.2201   15.7650 H   0  0  0  0  0  0  0  0  0  0  0  0
   24.9099    7.9578   17.1990 H   0  0  0  0  0  0  0  0  0  0  0  0
   22.8680    6.5969   16.8449 H   0  0  0  0  0  0  0  0  0  0  0  0
   24.6522    4.9581   19.2476 H   0  0  0  0  0  0  0  0  0  0  0  0
   19.9245    5.0055   12.8505 H   0  0  0  0  0  0  0  0  0  0  0  0
   21.1829    4.4801    8.7377 H   0  0  0  0  0  0  0  0  0  0  0  0
   22.7249    3.7985    9.7983 H   0  0  0  0  0  0  0  0  0  0  0  0
   24.6057    4.3433   11.3067 H   0  0  0  0  0  0  0  0  0  0  0  0
  1  2  2  0
  1  6  1  0
  1 10  1  0
  2  3  1  0
  3  4  2  0
  4  5  1  0
  5  6  2  0
  6  7  1  0
  7  8  2  0
  8  9  1  0
  9 10  2  0
 10 11  1  0
 11 12  1  0
 12 13  1  0
 12 16  1  0
 13 14  1  0
 13 15  2  0
 16 17  1  0
 16 28  1  0
 17 18  2  0
 17 19  1  0
 19 20  1  0
 19 27  2  0
 20 21  2  0
 21 22  1  0
 21 25  1  0
 22 23  2  0
 22 24  1  0
 25 26  2  0
 26 27  1  0
 27 28  1  0
 28 29  2  0
  2 30  1  0
  3 31  1  0
  4 32  1  0
  5 33  1  0
  7 34  1  0
  8 35  1  0
  9 36  1  0
 11 37  1  0
 11 38  1  0
 12 39  1  0
 14 40  1  0
 20 41  1  0
 24 42  1  0
 25 43  1  0
 26 44  1  0
A    1
CD2
A    2
CAN
A    3
CAH
A    4
CAG
A    5
CAL
A    6
CAX
A    7
CAM
A    8
CAI
A    9
CD1
A   10
CG
A   11
CB
A   12
CA
A   13
C
A   14
OXT
A   15
O
A   16
N
A   17
CAW
A   18
OAD
A   19
CBA
A   20
CAP
A   21
CAT
A   22
CAR
A   23
OAE
A   24
OAA
A   25
CAK
A   26
CAO
A   27
CAZ
A   28
CAV
A   29
OAC
M  END
