2RBE_ZMG_A_601
     RDKit          3D

 30 31  0  0  0  0  0  0  0  0999 V2000
   37.1150    0.6990  159.1750 C   0  0  0  0  0  0  0  0  0  0  0  0
   37.3990    2.0800  159.3170 C   0  0  0  0  0  0  0  0  0  0  0  0
   37.6450    2.8820  158.1840 C   0  0  0  0  0  0  0  0  0  0  0  0
   37.5930    2.2770  156.9080 C   0  0  0  0  0  0  0  0  0  0  0  0
   37.3330    0.9050  156.7420 C   0  0  0  0  0  0  0  0  0  0  0  0
   37.0830    0.1050  157.8870 C   0  0  0  0  0  0  0  0  0  0  0  0
   37.3290    0.3460  155.5030 N   0  0  0  0  0  0  0  0  0  0  0  0
   38.4270   -0.1450  154.9090 C   0  0  0  0  0  0  0  0  0  0  0  0
   40.0380   -0.0160  155.6010 S   0  0  0  0  0  0  0  0  0  0  0  0
   40.7770   -0.8070  154.1600 C   0  0  0  0  0  0  0  0  0  0  0  0
   39.6230   -1.1590  153.2310 C   0  0  0  0  0  0  0  0  0  0  0  0
   38.4220   -0.7590  153.7210 N   0  0  0  0  0  0  0  0  0  0  0  0
   37.7860    3.0250  155.8180 F   0  0  0  0  0  0  0  0  0  0  0  0
   39.8000   -1.7450  152.1620 O   0  0  0  0  0  0  0  0  0  0  0  0
   41.8480    0.0050  153.4000 C   0  0  0  0  0  0  0  0  0  0  0  0
   41.3870    1.3560  152.8720 C   0  0  0  0  0  0  0  0  0  0  0  0
   43.0930    0.1990  154.2560 C   0  0  0  0  0  0  0  0  0  0  0  0
   36.9187    0.0854  160.0666 H   0  0  0  0  0  0  0  0  0  0  0  0
   37.4278    2.5303  160.3202 H   0  0  0  0  0  0  0  0  0  0  0  0
   37.8720    3.9530  158.2907 H   0  0  0  0  0  0  0  0  0  0  0  0
   36.8660   -0.9677  157.7768 H   0  0  0  0  0  0  0  0  0  0  0  0
   36.4354    0.2968  154.9931 H   0  0  0  0  0  0  0  0  0  0  0  0
   41.3412   -1.6798  154.5202 H   0  0  0  0  0  0  0  0  0  0  0  0
   42.0724   -0.6075  152.5143 H   0  0  0  0  0  0  0  0  0  0  0  0
   41.1598    2.0220  153.7175 H   0  0  0  0  0  0  0  0  0  0  0  0
   42.1841    1.8013  152.2585 H   0  0  0  0  0  0  0  0  0  0  0  0
   40.4840    1.2212  152.2585 H   0  0  0  0  0  0  0  0  0  0  0  0
   42.8168    0.1560  155.3199 H   0  0  0  0  0  0  0  0  0  0  0  0
   43.8189   -0.5969  154.0331 H   0  0  0  0  0  0  0  0  0  0  0  0
   43.5423    1.1780  154.0331 H   0  0  0  0  0  0  0  0  0  0  0  0
 14 11  2  0
 16 15  1  0
 11 12  1  0
 11 10  1  0
 15 10  1  0
 15 17  1  0
 12  8  2  0
 10  9  1  0
  8  7  1  0
  8  9  1  0
  7  5  1  0
 13  4  1  0
  5  4  2  0
  5  6  1  0
  4  3  1  0
  6  1  2  0
  3  2  2  0
  1  2  1  0
  1 18  1  0
  2 19  1  0
  3 20  1  0
  6 21  1  0
  7 22  1  0
 10 23  1  0
 15 24  1  0
 16 25  1  0
 16 26  1  0
 16 27  1  0
 17 28  1  0
 17 29  1  0
 17 30  1  0
A    1
C1
A    2
C2
A    3
C3
A    4
C4
A    5
C5
A    6
C6
A    7
N7
A    8
C8
A    9
S9
A   10
C10
A   11
C11
A   12
N12
A   13
F13
A   14
O14
A   15
C15
A   16
C16
A   17
C17
M  END
