2RCW_AAI_A_400
     RDKit          3D

 43 45  0  0  0  0  0  0  0  0999 V2000
  -24.8700   64.2680   26.2490 C   0  0  0  0  0  0  0  0  0  0  0  0
  -24.8790   65.1870   25.2770 N   0  0  0  0  0  0  0  0  0  0  0  0
  -26.1880   65.2880   24.8200 C   0  0  0  0  0  0  0  0  0  0  0  0
  -26.9610   64.3500   25.6060 C   0  0  0  0  0  0  0  0  0  0  0  0
  -26.0850   63.7380   26.4860 N   0  0  0  0  0  0  0  0  0  0  0  0
  -26.8180   66.0740   23.8240 C   0  0  0  0  0  0  0  0  0  0  0  0
  -28.2260   65.9160   23.6140 C   0  0  0  0  0  0  0  0  0  0  0  0
  -28.9780   64.9920   24.3890 C   0  0  0  0  0  0  0  0  0  0  0  0
  -28.3310   64.2120   25.3860 C   0  0  0  0  0  0  0  0  0  0  0  0
  -26.0900   67.0640   22.9750 C   0  0  0  0  0  0  0  0  0  0  0  0
  -24.7680   67.1630   23.1620 N   0  0  0  0  0  0  0  0  0  0  0  0
  -26.6380   67.7780   22.1380 O   0  0  0  0  0  0  0  0  0  0  0  0
  -23.6070   63.8700   27.0030 C   0  0  0  0  0  0  0  0  0  0  0  0
  -23.1630   65.0110   27.9420 C   0  0  0  0  0  0  0  0  0  0  0  0
  -21.9360   64.5860   28.7820 C   0  0  0  0  0  0  0  0  0  0  0  0
  -22.1970   63.3540   29.5870 N   0  0  0  0  0  0  0  0  0  0  0  0
  -22.6400   62.2200   28.7170 C   0  0  0  0  0  0  0  0  0  0  0  0
  -23.8530   62.5720   27.8200 C   0  0  0  0  0  0  0  0  0  0  0  0
  -21.0040   62.9840   30.4080 C   0  0  0  0  0  0  0  0  0  0  0  0
  -19.7140   62.6330   29.6230 C   0  0  0  0  0  0  0  0  0  0  0  0
  -18.5410   62.2900   30.5470 C   0  0  0  0  0  0  0  0  0  0  0  0
  -24.0680   65.7199   24.9318 H   0  0  0  0  0  0  0  0  0  0  0  0
  -28.7313   66.5170   22.8437 H   0  0  0  0  0  0  0  0  0  0  0  0
  -30.0588   64.8806   24.2177 H   0  0  0  0  0  0  0  0  0  0  0  0
  -28.9132   63.4971   25.9860 H   0  0  0  0  0  0  0  0  0  0  0  0
  -24.3837   67.1918   24.1172 H   0  0  0  0  0  0  0  0  0  0  0  0
  -24.1352   67.2104   22.3507 H   0  0  0  0  0  0  0  0  0  0  0  0
  -22.8073   63.6813   26.2716 H   0  0  0  0  0  0  0  0  0  0  0  0
  -22.8992   65.8922   27.3388 H   0  0  0  0  0  0  0  0  0  0  0  0
  -23.9922   65.2481   28.6247 H   0  0  0  0  0  0  0  0  0  0  0  0
  -21.0926   64.3924   28.1029 H   0  0  0  0  0  0  0  0  0  0  0  0
  -21.7092   65.4032   29.4826 H   0  0  0  0  0  0  0  0  0  0  0  0
  -22.9170   61.3730   29.3619 H   0  0  0  0  0  0  0  0  0  0  0  0
  -21.8012   61.9758   28.0486 H   0  0  0  0  0  0  0  0  0  0  0  0
  -24.7381   62.7145   28.4574 H   0  0  0  0  0  0  0  0  0  0  0  0
  -24.0063   61.7449   27.1111 H   0  0  0  0  0  0  0  0  0  0  0  0
  -20.7744   63.8336   31.0679 H   0  0  0  0  0  0  0  0  0  0  0  0
  -21.2860   62.0620   30.9375 H   0  0  0  0  0  0  0  0  0  0  0  0
  -19.9189   61.7670   28.9765 H   0  0  0  0  0  0  0  0  0  0  0  0
  -19.4290   63.5178   29.0348 H   0  0  0  0  0  0  0  0  0  0  0  0
  -18.8606   62.3835   31.5954 H   0  0  0  0  0  0  0  0  0  0  0  0
  -18.2122   61.2581   30.3545 H   0  0  0  0  0  0  0  0  0  0  0  0
  -17.7080   62.9822   30.3545 H   0  0  0  0  0  0  0  0  0  0  0  0
 12 10  2  0
 10 11  1  0
 10  6  1  0
  7  6  1  0
  7  8  2  0
  6  3  2  0
  8  9  1  0
  3  2  1  0
  3  4  1  0
  2  1  1  0
  9  4  2  0
  4  5  1  0
  1  5  2  0
  1 13  1  0
 13 18  1  0
 13 14  1  0
 18 17  1  0
 14 15  1  0
 17 16  1  0
 15 16  1  0
 16 19  1  0
 20 19  1  0
 20 21  1  0
  2 22  1  0
  7 23  1  0
  8 24  1  0
  9 25  1  0
 11 26  1  0
 11 27  1  0
 13 28  1  0
 14 29  1  0
 14 30  1  0
 15 31  1  0
 15 32  1  0
 17 33  1  0
 17 34  1  0
 18 35  1  0
 18 36  1  0
 19 37  1  0
 19 38  1  0
 20 39  1  0
 20 40  1  0
 21 41  1  0
 21 42  1  0
 21 43  1  0
A    1
C1
A    2
N2
A    3
C3
A    4
C4
A    5
N5
A    6
C6
A    7
C7
A    8
C8
A    9
C9
A   10
C10
A   11
N11
A   12
O12
A   13
C13
A   14
C14
A   15
C15
A   16
N16
A   17
C17
A   18
C18
A   19
C19
A   20
C20
A   21
C21
M  END
