2RDT_2RD_A_365
     RDKit          3D

 48 48  0  0  0  0  0  0  0  0999 V2000
   41.0870   11.6610    6.3650 C   0  0  0  0  0  0  0  0  0  0  0  0
   41.7460   10.3720    6.8780 C   0  0  0  0  0  0  0  0  0  0  0  0
   40.7200    9.4210    7.5170 C   0  0  0  0  0  0  0  0  0  0  0  0
   40.7150    9.5230    9.0560 C   0  0  0  0  0  0  0  0  0  0  0  0
   40.3590    8.1880    9.7380 C   0  0  0  0  0  0  0  0  0  0  0  0
   38.8700    7.8250    9.6160 C   0  0  0  0  0  0  0  0  0  0  0  0
   38.6830    6.3090    9.7750 C   0  0  0  0  0  0  0  0  0  0  0  0
   37.2600    5.9330   10.2380 C   0  0  0  0  0  0  0  0  0  0  0  0
   36.9610    4.4460    9.9660 C   0  0  0  0  0  0  0  0  0  0  0  0
   36.3640    3.7520   11.1960 C   0  0  0  0  0  0  0  0  0  0  0  0
   34.8320    3.7940   11.1750 C   0  0  0  0  0  0  0  0  0  0  0  0
   34.2730    4.6600   12.3060 C   0  0  0  0  0  0  0  0  0  0  0  0
   32.4460    4.6350   12.3260 S   0  0  0  0  0  0  0  0  0  0  0  0
   32.0860    5.1140   14.0110 C   0  0  0  0  0  0  0  0  0  0  0  0
   32.9550    5.2910   15.0180 N   0  0  0  0  0  0  0  0  0  0  0  0
   32.2810    5.6270   16.0110 N   0  0  0  0  0  0  0  0  0  0  0  0
   31.0470    5.6850   15.8120 N   0  0  0  0  0  0  0  0  0  0  0  0
   30.8420    5.3740   14.5450 C   0  0  0  0  0  0  0  0  0  0  0  0
   29.5070    5.2850   13.8830 C   0  0  0  0  0  0  0  0  0  0  0  0
   29.4430    4.9710   12.6670 O   0  0  0  0  0  0  0  0  0  0  0  0
   28.5230    5.4700   14.6280 O   0  0  0  0  0  0  0  0  0  0  0  0
   40.7720   12.2771    7.2201 H   0  0  0  0  0  0  0  0  0  0  0  0
   41.8082   12.2234    5.7538 H   0  0  0  0  0  0  0  0  0  0  0  0
   40.2088   11.4057    5.7538 H   0  0  0  0  0  0  0  0  0  0  0  0
   42.2294    9.8589    6.0336 H   0  0  0  0  0  0  0  0  0  0  0  0
   42.4824   10.6474    7.6474 H   0  0  0  0  0  0  0  0  0  0  0  0
   39.7180    9.6758    7.1413 H   0  0  0  0  0  0  0  0  0  0  0  0
   40.9976    8.3916    7.2464 H   0  0  0  0  0  0  0  0  0  0  0  0
   41.7153    9.8341    9.3915 H   0  0  0  0  0  0  0  0  0  0  0  0
   39.9455   10.2566    9.3384 H   0  0  0  0  0  0  0  0  0  0  0  0
   40.9534    7.3880    9.2725 H   0  0  0  0  0  0  0  0  0  0  0  0
   40.5824    8.2979   10.8094 H   0  0  0  0  0  0  0  0  0  0  0  0
   38.3027    8.3461   10.4012 H   0  0  0  0  0  0  0  0  0  0  0  0
   38.5042    8.1315    8.6249 H   0  0  0  0  0  0  0  0  0  0  0  0
   38.8774    5.8263    8.8059 H   0  0  0  0  0  0  0  0  0  0  0  0
   39.3868    5.9653   10.5473 H   0  0  0  0  0  0  0  0  0  0  0  0
   37.1712    6.1254   11.3174 H   0  0  0  0  0  0  0  0  0  0  0  0
   36.5378    6.5425    9.6751 H   0  0  0  0  0  0  0  0  0  0  0  0
   36.2457    4.3729    9.1335 H   0  0  0  0  0  0  0  0  0  0  0  0
   37.9088    3.9462    9.7173 H   0  0  0  0  0  0  0  0  0  0  0  0
   36.6928    2.7024   11.2092 H   0  0  0  0  0  0  0  0  0  0  0  0
   36.7120    4.2821   12.0948 H   0  0  0  0  0  0  0  0  0  0  0  0
   34.5001    4.2084   10.2116 H   0  0  0  0  0  0  0  0  0  0  0  0
   34.4594    2.7683   11.3129 H   0  0  0  0  0  0  0  0  0  0  0  0
   34.6465    4.2776   13.2674 H   0  0  0  0  0  0  0  0  0  0  0  0
   34.6028    5.6967   12.1430 H   0  0  0  0  0  0  0  0  0  0  0  0
   33.9774    5.1725   14.9782 H   0  0  0  0  0  0  0  0  0  0  0  0
   28.6357    5.4488   15.6113 H   0  0  0  0  0  0  0  0  0  0  0  0
  1  2  1  0
  2  3  1  0
  3  4  1  0
  4  5  1  0
  6  5  1  0
  6  7  1  0
  7  8  1  0
  9  8  1  0
  9 10  1  0
 11 10  1  0
 11 12  1  0
 12 13  1  0
 13 14  1  0
 20 19  2  0
 19 18  1  0
 19 21  1  0
 14 18  2  0
 14 15  1  0
 18 17  1  0
 15 16  1  0
 17 16  2  0
  1 22  1  0
  1 23  1  0
  1 24  1  0
  2 25  1  0
  2 26  1  0
  3 27  1  0
  3 28  1  0
  4 29  1  0
  4 30  1  0
  5 31  1  0
  5 32  1  0
  6 33  1  0
  6 34  1  0
  7 35  1  0
  7 36  1  0
  8 37  1  0
  8 38  1  0
  9 39  1  0
  9 40  1  0
 10 41  1  0
 10 42  1  0
 11 43  1  0
 11 44  1  0
 12 45  1  0
 12 46  1  0
 15 47  1  0
 21 48  1  0
A    1
CAA
A    2
CAD
A    3
CAE
A    4
CAF
A    5
CAG
A    6
CAH
A    7
CAI
A    8
CAJ
A    9
CAK
A   10
CAL
A   11
CAM
A   12
CAN
A   13
SAR
A   14
CAU
A   15
NAQ
A   16
NAO
A   17
NAP
A   18
CAT
A   19
CAS
A   20
OAC
A   21
OAB
M  END
