2REW_REW_A_469
     RDKit          3D

 66 70  0  0  0  0  0  0  0  0999 V2000
  -24.0580   18.1130    4.2860 C   0  0  0  0  0  0  0  0  0  0  0  0
  -29.2610   19.8070    3.0600 C   0  0  0  0  0  0  0  0  0  0  0  0
  -27.9220   19.4970    3.2860 C   0  0  0  0  0  0  0  0  0  0  0  0
  -27.5800   18.1630    3.5380 C   0  0  0  0  0  0  0  0  0  0  0  0
  -30.2330   18.7980    3.0880 C   0  0  0  0  0  0  0  0  0  0  0  0
  -29.8840   17.4710    3.3410 C   0  0  0  0  0  0  0  0  0  0  0  0
  -28.5490   17.1650    3.5610 C   0  0  0  0  0  0  0  0  0  0  0  0
  -30.9230   16.3730    3.4160 C   0  0  0  0  0  0  0  0  0  0  0  0
  -30.9260   15.8830    4.8740 C   0  0  0  0  0  0  0  0  0  0  0  0
  -32.1840   16.0010    5.7580 C   0  0  0  0  0  0  0  0  0  0  0  0
  -21.5000   15.9410   10.8140 C   0  0  0  0  0  0  0  0  0  0  0  0
  -22.0520   15.8550    9.5370 C   0  0  0  0  0  0  0  0  0  0  0  0
  -32.4170   12.2660    6.6960 C   0  0  0  0  0  0  0  0  0  0  0  0
  -34.0840   15.6190    4.4130 O   0  0  0  0  0  0  0  0  0  0  0  0
  -33.4260   16.4460    5.0850 C   0  0  0  0  0  0  0  0  0  0  0  0
  -33.7390   17.6320    5.2730 O   0  0  0  0  0  0  0  0  0  0  0  0
  -32.0750   14.5440    5.9250 N   0  0  0  0  0  0  0  0  0  0  0  0
  -32.7610   13.6270    6.7010 C   0  0  0  0  0  0  0  0  0  0  0  0
  -33.1000   11.3150    7.4750 C   0  0  0  0  0  0  0  0  0  0  0  0
  -34.1620   11.7200    8.2910 C   0  0  0  0  0  0  0  0  0  0  0  0
  -34.8310   10.7740    9.0550 O   0  0  0  0  0  0  0  0  0  0  0  0
  -35.9110   11.1230    9.9230 C   0  0  0  0  0  0  0  0  0  0  0  0
  -34.5270   13.0790    8.3030 C   0  0  0  0  0  0  0  0  0  0  0  0
  -33.8290   14.0070    7.5190 C   0  0  0  0  0  0  0  0  0  0  0  0
  -31.0570   14.4100    5.0980 C   0  0  0  0  0  0  0  0  0  0  0  0
  -30.4420   13.4610    4.6560 O   0  0  0  0  0  0  0  0  0  0  0  0
  -26.2820   17.8000    3.7520 O   0  0  0  0  0  0  0  0  0  0  0  0
  -25.4220   18.7420    4.3620 C   0  0  0  0  0  0  0  0  0  0  0  0
  -23.7210   17.3420    5.5400 C   0  0  0  0  0  0  0  0  0  0  0  0
  -23.3330   17.8880    6.7060 N   0  0  0  0  0  0  0  0  0  0  0  0
  -23.1270   16.8700    7.5650 C   0  0  0  0  0  0  0  0  0  0  0  0
  -23.3430   15.6930    6.9020 O   0  0  0  0  0  0  0  0  0  0  0  0
  -23.6960   15.9690    5.7450 C   0  0  0  0  0  0  0  0  0  0  0  0
  -24.0010   14.7520    4.9190 C   0  0  0  0  0  0  0  0  0  0  0  0
  -22.6130   16.9920    8.9410 C   0  0  0  0  0  0  0  0  0  0  0  0
  -21.4760   17.1750   11.4640 C   0  0  0  0  0  0  0  0  0  0  0  0
  -21.9900   18.3240   10.8480 C   0  0  0  0  0  0  0  0  0  0  0  0
  -22.5540   18.2320    9.5730 C   0  0  0  0  0  0  0  0  0  0  0  0
  -24.0312   17.4252    3.4280 H   0  0  0  0  0  0  0  0  0  0  0  0
  -23.3177   18.9187    4.1727 H   0  0  0  0  0  0  0  0  0  0  0  0
  -29.5564   20.8473    2.8589 H   0  0  0  0  0  0  0  0  0  0  0  0
  -27.1515   20.2818    3.2669 H   0  0  0  0  0  0  0  0  0  0  0  0
  -31.2870   19.0560    2.9078 H   0  0  0  0  0  0  0  0  0  0  0  0
  -28.2537   16.1234    3.7555 H   0  0  0  0  0  0  0  0  0  0  0  0
  -31.9136   16.7663    3.1440 H   0  0  0  0  0  0  0  0  0  0  0  0
  -30.6916   15.5543    2.7187 H   0  0  0  0  0  0  0  0  0  0  0  0
  -30.0249   16.4725    5.0988 H   0  0  0  0  0  0  0  0  0  0  0  0
  -32.2313   16.7073    6.6000 H   0  0  0  0  0  0  0  0  0  0  0  0
  -21.0881   15.0462   11.3035 H   0  0  0  0  0  0  0  0  0  0  0  0
  -22.0472   14.8961    8.9981 H   0  0  0  0  0  0  0  0  0  0  0  0
  -31.5838   11.9316    6.0604 H   0  0  0  0  0  0  0  0  0  0  0  0
  -33.8307   17.9795    6.1955 H   0  0  0  0  0  0  0  0  0  0  0  0
  -32.8005   10.2570    7.4429 H   0  0  0  0  0  0  0  0  0  0  0  0
  -35.5887   11.0188   10.9695 H   0  0  0  0  0  0  0  0  0  0  0  0
  -36.2117   12.1641    9.7338 H   0  0  0  0  0  0  0  0  0  0  0  0
  -36.7641   10.4548    9.7338 H   0  0  0  0  0  0  0  0  0  0  0  0
  -35.3651   13.4146    8.9315 H   0  0  0  0  0  0  0  0  0  0  0  0
  -34.1299   15.0646    7.5480 H   0  0  0  0  0  0  0  0  0  0  0  0
  -25.4408   19.6964    3.8154 H   0  0  0  0  0  0  0  0  0  0  0  0
  -25.7194   18.9710    5.3960 H   0  0  0  0  0  0  0  0  0  0  0  0
  -24.2141   13.9018    5.5836 H   0  0  0  0  0  0  0  0  0  0  0  0
  -24.8773   14.9499    4.2843 H   0  0  0  0  0  0  0  0  0  0  0  0
  -23.1349   14.5132    4.2843 H   0  0  0  0  0  0  0  0  0  0  0  0
  -21.0475   17.2472   12.4745 H   0  0  0  0  0  0  0  0  0  0  0  0
  -21.9496   19.2937   11.3658 H   0  0  0  0  0  0  0  0  0  0  0  0
  -22.9474   19.1296    9.0734 H   0  0  0  0  0  0  0  0  0  0  0  0
  2  5  2  0
  2  3  1  0
  5  6  1  0
  3  4  2  0
  6  8  1  0
  6  7  2  0
  8  9  1  0
  4  7  1  0
  4 27  1  0
 27 28  1  0
  1 28  1  0
  1 29  1  0
 14 15  2  0
 26 25  2  0
  9 25  1  0
  9 10  1  0
 34 33  1  0
 15 16  1  0
 15 10  1  0
 25 17  1  0
 29 33  2  0
 29 30  1  0
 33 32  1  0
 10 17  1  0
 17 18  1  0
 13 18  2  0
 13 19  1  0
 18 24  1  0
 30 31  2  0
 32 31  1  0
 19 20  2  0
 24 23  2  0
 31 35  1  0
 20 23  1  0
 20 21  1  0
 35 12  1  0
 35 38  2  0
 21 22  1  0
 12 11  2  0
 38 37  1  0
 11 36  1  0
 37 36  2  0
  1 39  1  0
  1 40  1  0
  2 41  1  0
  3 42  1  0
  5 43  1  0
  7 44  1  0
  8 45  1  0
  8 46  1  0
  9 47  1  0
 10 48  1  0
 11 49  1  0
 12 50  1  0
 13 51  1  0
 16 52  1  0
 19 53  1  0
 22 54  1  0
 22 55  1  0
 22 56  1  0
 23 57  1  0
 24 58  1  0
 28 59  1  0
 28 60  1  0
 34 61  1  0
 34 62  1  0
 34 63  1  0
 36 64  1  0
 37 65  1  0
 38 66  1  0
A    1
C13
A    2
C18
A    3
C17
A    4
C16
A    5
C19
A    6
C20
A    7
C21
A    8
C22
A    9
C23
A   10
C24
A   11
C11
A   12
C12
A   13
C33
A   14
O38
A   15
C36
A   16
O37
A   17
N25
A   18
C28
A   19
C32
A   20
C31
A   21
O34
A   22
C35
A   23
C30
A   24
C29
A   25
C26
A   26
O27
A   27
O15
A   28
C14
A   29
C3
A   30
N4
A   31
C5
A   32
O6
A   33
C2
A   34
C1
A   35
C7
A   36
C10
A   37
C9
A   38
C8
M  END
