2RF2_MRX_A_561
     RDKit          3D

 35 37  0  0  0  0  0  0  0  0999 V2000
    6.6800   10.2160   18.0890 Br  0  0  0  0  0  0  0  0  0  0  0  0
    7.4420   11.5910   16.9300 C   0  0  0  0  0  0  0  0  0  0  0  0
    8.7500   12.1020   17.0540 C   0  0  0  0  0  0  0  0  0  0  0  0
    6.6520   12.0880   15.8560 C   0  0  0  0  0  0  0  0  0  0  0  0
    7.1630   13.0090   14.9290 C   0  0  0  0  0  0  0  0  0  0  0  0
    8.4540   13.5170   15.1070 C   0  0  0  0  0  0  0  0  0  0  0  0
    9.1950   14.4610   14.3710 N   0  0  0  0  0  0  0  0  0  0  0  0
   10.4590   14.6970   14.8560 C   0  0  0  0  0  0  0  0  0  0  0  0
   11.2090   15.6740   14.1570 C   0  0  0  0  0  0  0  0  0  0  0  0
   12.5280   16.1410   14.4480 N   0  0  0  0  0  0  0  0  0  0  0  0
   10.6330   16.2420   13.1600 O   0  0  0  0  0  0  0  0  0  0  0  0
   10.5760   13.8330   15.9840 C   0  0  0  0  0  0  0  0  0  0  0  0
    9.2890   13.0740   16.1480 C   0  0  0  0  0  0  0  0  0  0  0  0
   11.9600   13.6750   17.0640 S   0  0  0  0  0  0  0  0  0  0  0  0
   13.0900   14.4320   16.4800 O   0  0  0  0  0  0  0  0  0  0  0  0
   11.8340   12.3280   17.5590 O   0  0  0  0  0  0  0  0  0  0  0  0
   11.6390   14.5860   18.5490 N   0  0  0  0  0  0  0  0  0  0  0  0
   11.5470   16.0860   18.5370 C   0  0  0  0  0  0  0  0  0  0  0  0
   10.9450   16.5560   19.8330 C   0  0  0  0  0  0  0  0  0  0  0  0
   10.6930   15.2130   20.5450 C   0  0  0  0  0  0  0  0  0  0  0  0
   10.4640   14.2360   19.3940 C   0  0  0  0  0  0  0  0  0  0  0  0
    9.3822   11.7407   17.8785 H   0  0  0  0  0  0  0  0  0  0  0  0
    5.6136   11.7411   15.7497 H   0  0  0  0  0  0  0  0  0  0  0  0
    6.5541   13.3285   14.0704 H   0  0  0  0  0  0  0  0  0  0  0  0
    8.8205   14.9359   13.5373 H   0  0  0  0  0  0  0  0  0  0  0  0
   12.8321   16.2487   15.4262 H   0  0  0  0  0  0  0  0  0  0  0  0
   13.1745   16.3699   13.6795 H   0  0  0  0  0  0  0  0  0  0  0  0
   12.5532   16.5152   18.4219 H   0  0  0  0  0  0  0  0  0  0  0  0
   10.9149   16.4104   17.6973 H   0  0  0  0  0  0  0  0  0  0  0  0
   11.6461   17.1875   20.3984 H   0  0  0  0  0  0  0  0  0  0  0  0
   10.0481   17.1819   19.7154 H   0  0  0  0  0  0  0  0  0  0  0  0
    9.8060   15.2720   21.1929 H   0  0  0  0  0  0  0  0  0  0  0  0
   11.5234   14.9141   21.2016 H   0  0  0  0  0  0  0  0  0  0  0  0
    9.5126   14.4261   18.8755 H   0  0  0  0  0  0  0  0  0  0  0  0
   10.3890   13.1771   19.6821 H   0  0  0  0  0  0  0  0  0  0  0  0
 11  9  2  0
  9 10  1  0
  9  8  1  0
  7  8  1  0
  7  6  1  0
  5  6  2  0
  5  4  1  0
  8 12  2  0
  6 13  1  0
  4  2  2  0
 12 13  1  0
 12 14  1  0
 13  3  2  0
 15 14  2  0
  2  3  1  0
  2  1  1  0
 14 16  2  0
 14 17  1  0
 17 18  1  0
 17 21  1  0
 18 19  1  0
 21 20  1  0
 19 20  1  0
  3 22  1  0
  4 23  1  0
  5 24  1  0
  7 25  1  0
 10 26  1  0
 10 27  1  0
 18 28  1  0
 18 29  1  0
 19 30  1  0
 19 31  1  0
 20 32  1  0
 20 33  1  0
 21 34  1  0
 21 35  1  0
A    1
BR
A    2
C6
A    3
C1
A    4
C5
A    5
C4
A    6
C3
A    7
N9
A    8
C8
A    9
C18
A   10
N20
A   11
O19
A   12
C7
A   13
C2
A   14
S10
A   15
O16
A   16
O17
A   17
N11
A   18
C15
A   19
C14
A   20
C13
A   21
C12
M  END
