2RFN_AM7_A_1
     RDKit          3D

 80 85  0  0  0  0  0  0  0  0999 V2000
   58.2790    9.6300  127.1800 N   0  0  0  0  0  0  0  0  0  0  0  0
   63.4650   17.0740  111.4590 N   0  0  0  0  0  0  0  0  0  0  0  0
   58.1170   10.3360  128.4840 C   0  0  0  0  0  0  0  0  0  0  0  0
   64.5900   16.7850  108.2710 C   0  0  0  0  0  0  0  0  0  0  0  0
   65.7610   16.4710  108.9570 C   0  0  0  0  0  0  0  0  0  0  0  0
   66.8520   15.9530  108.2540 C   0  0  0  0  0  0  0  0  0  0  0  0
   66.7710   15.7430  106.8770 C   0  0  0  0  0  0  0  0  0  0  0  0
   64.5070   16.5800  106.8940 C   0  0  0  0  0  0  0  0  0  0  0  0
   63.0110   16.6030  110.2800 C   0  0  0  0  0  0  0  0  0  0  0  0
   61.5140   13.6160  116.4240 C   0  0  0  0  0  0  0  0  0  0  0  0
   62.1090   13.3590  114.0730 C   0  0  0  0  0  0  0  0  0  0  0  0
   61.4940   15.0060  116.2800 C   0  0  0  0  0  0  0  0  0  0  0  0
   61.5920   12.4350  119.9120 C   0  0  0  0  0  0  0  0  0  0  0  0
   60.2570   12.0540  120.0540 C   0  0  0  0  0  0  0  0  0  0  0  0
   60.6680   11.4880  122.3660 C   0  0  0  0  0  0  0  0  0  0  0  0
   62.4510   12.3510  121.0100 C   0  0  0  0  0  0  0  0  0  0  0  0
   63.4000   13.2980  118.6280 C   0  0  0  0  0  0  0  0  0  0  0  0
   57.0650    9.0140  126.5510 C   0  0  0  0  0  0  0  0  0  0  0  0
   55.8300    8.8870  127.4800 C   0  0  0  0  0  0  0  0  0  0  0  0
   55.7990    9.8720  128.5420 O   0  0  0  0  0  0  0  0  0  0  0  0
   56.9890    9.7360  129.3300 C   0  0  0  0  0  0  0  0  0  0  0  0
   58.8590   10.5960  126.2170 C   0  0  0  0  0  0  0  0  0  0  0  0
   60.2400   10.1090  125.7810 C   0  0  0  0  0  0  0  0  0  0  0  0
   60.9210   11.0250  124.7470 C   0  0  0  0  0  0  0  0  0  0  0  0
   60.1620   10.9950  123.5270 O   0  0  0  0  0  0  0  0  0  0  0  0
   61.9950   11.8690  122.2290 C   0  0  0  0  0  0  0  0  0  0  0  0
   59.7910   11.5700  121.2800 C   0  0  0  0  0  0  0  0  0  0  0  0
   58.4770   11.1870  121.4690 O   0  0  0  0  0  0  0  0  0  0  0  0
   57.8200   10.4470  120.4250 C   0  0  0  0  0  0  0  0  0  0  0  0
   63.7260   12.7300  120.9110 N   0  0  0  0  0  0  0  0  0  0  0  0
   64.2120   13.1850  119.7650 C   0  0  0  0  0  0  0  0  0  0  0  0
   62.0620   12.9230  118.6880 C   0  0  0  0  0  0  0  0  0  0  0  0
   61.2080   13.0110  117.6100 O   0  0  0  0  0  0  0  0  0  0  0  0
   61.8050   12.8160  115.3160 C   0  0  0  0  0  0  0  0  0  0  0  0
   61.8190   11.4840  115.4580 F   0  0  0  0  0  0  0  0  0  0  0  0
   61.7980   15.5540  115.0240 C   0  0  0  0  0  0  0  0  0  0  0  0
   62.1110   14.7460  113.9190 C   0  0  0  0  0  0  0  0  0  0  0  0
   62.3950   15.3320  112.6720 C   0  0  0  0  0  0  0  0  0  0  0  0
   61.8880   14.7980  111.4680 C   0  0  0  0  0  0  0  0  0  0  0  0
   61.1870   13.7770  111.4530 O   0  0  0  0  0  0  0  0  0  0  0  0
   62.1940   15.4410  110.2450 N   0  0  0  0  0  0  0  0  0  0  0  0
   61.6680   14.8790  108.9570 C   0  0  0  0  0  0  0  0  0  0  0  0
   63.1810   16.4820  112.6130 C   0  0  0  0  0  0  0  0  0  0  0  0
   63.3790   17.3660  109.0060 C   0  0  0  0  0  0  0  0  0  0  0  0
   65.5900   16.0540  106.2030 C   0  0  0  0  0  0  0  0  0  0  0  0
   59.0595   10.2622  129.0464 H   0  0  0  0  0  0  0  0  0  0  0  0
   57.8592   11.3840  128.2712 H   0  0  0  0  0  0  0  0  0  0  0  0
   65.8264   16.6295  110.0435 H   0  0  0  0  0  0  0  0  0  0  0  0
   67.7811   15.7091  108.7900 H   0  0  0  0  0  0  0  0  0  0  0  0
   67.6320   15.3353  106.3270 H   0  0  0  0  0  0  0  0  0  0  0  0
   63.5827   16.8353  106.3551 H   0  0  0  0  0  0  0  0  0  0  0  0
   62.3450   12.7037  113.2216 H   0  0  0  0  0  0  0  0  0  0  0  0
   61.2456   15.6560  117.1319 H   0  0  0  0  0  0  0  0  0  0  0  0
   59.5696   12.1347  119.1990 H   0  0  0  0  0  0  0  0  0  0  0  0
   63.8212   13.6835  117.6878 H   0  0  0  0  0  0  0  0  0  0  0  0
   56.7787    9.6325  125.6876 H   0  0  0  0  0  0  0  0  0  0  0  0
   57.3501    7.9863  126.2816 H   0  0  0  0  0  0  0  0  0  0  0  0
   54.9224    9.0049  126.8698 H   0  0  0  0  0  0  0  0  0  0  0  0
   55.8870    7.8983  127.9588 H   0  0  0  0  0  0  0  0  0  0  0  0
   57.1903    8.6753  129.5409 H   0  0  0  0  0  0  0  0  0  0  0  0
   56.8940   10.2455  130.3003 H   0  0  0  0  0  0  0  0  0  0  0  0
   58.9517   11.5817  126.6964 H   0  0  0  0  0  0  0  0  0  0  0  0
   58.2032   10.6777  125.3377 H   0  0  0  0  0  0  0  0  0  0  0  0
   60.1317    9.1073  125.3397 H   0  0  0  0  0  0  0  0  0  0  0  0
   60.8777   10.1058  126.6773 H   0  0  0  0  0  0  0  0  0  0  0  0
   61.9436   10.6683  124.5545 H   0  0  0  0  0  0  0  0  0  0  0  0
   60.9655   12.0541  125.1330 H   0  0  0  0  0  0  0  0  0  0  0  0
   62.6832   11.7893  123.0834 H   0  0  0  0  0  0  0  0  0  0  0  0
   57.1528    9.6955  120.8723 H   0  0  0  0  0  0  0  0  0  0  0  0
   57.2308   11.1361  119.8022 H   0  0  0  0  0  0  0  0  0  0  0  0
   58.5740    9.9435  119.8022 H   0  0  0  0  0  0  0  0  0  0  0  0
   65.2703   13.4789  119.7051 H   0  0  0  0  0  0  0  0  0  0  0  0
   61.7908   16.6472  114.9019 H   0  0  0  0  0  0  0  0  0  0  0  0
   60.9311   14.0917  109.1743 H   0  0  0  0  0  0  0  0  0  0  0  0
   61.1879   15.6804  108.3762 H   0  0  0  0  0  0  0  0  0  0  0  0
   62.4994   14.4529  108.3762 H   0  0  0  0  0  0  0  0  0  0  0  0
   63.5759   16.9098  113.5463 H   0  0  0  0  0  0  0  0  0  0  0  0
   63.6042   18.4079  109.2776 H   0  0  0  0  0  0  0  0  0  0  0  0
   62.5197   17.2875  108.3237 H   0  0  0  0  0  0  0  0  0  0  0  0
   65.5165   15.8817  105.1191 H   0  0  0  0  0  0  0  0  0  0  0  0
 45  7  2  0
 45  8  1  0
  7  6  1  0
  8  4  2  0
  6  5  2  0
  4  5  1  0
  4 44  1  0
 42 41  1  0
 44  9  1  0
 41  9  1  0
 41 39  1  0
  9  2  2  0
 40 39  2  0
  2 43  1  0
 39 38  1  0
 43 38  2  0
 38 37  1  0
 37 11  2  0
 37 36  1  0
 11 34  1  0
 36 12  2  0
 34 35  1  0
 34 10  2  0
 12 10  1  0
 10 33  1  0
 33 32  1  0
 17 32  2  0
 17 31  1  0
 32 13  1  0
 31 30  2  0
 13 14  2  0
 13 16  1  0
 14 27  1  0
 29 28  1  0
 30 16  1  0
 16 26  2  0
 27 28  1  0
 27 15  2  0
 26 15  1  0
 15 25  1  0
 25 24  1  0
 24 23  1  0
 23 22  1  0
 22  1  1  0
 18  1  1  0
 18 19  1  0
  1  3  1  0
 19 20  1  0
  3 21  1  0
 20 21  1  0
  3 46  1  0
  3 47  1  0
  5 48  1  0
  6 49  1  0
  7 50  1  0
  8 51  1  0
 11 52  1  0
 12 53  1  0
 14 54  1  0
 17 55  1  0
 18 56  1  0
 18 57  1  0
 19 58  1  0
 19 59  1  0
 21 60  1  0
 21 61  1  0
 22 62  1  0
 22 63  1  0
 23 64  1  0
 23 65  1  0
 24 66  1  0
 24 67  1  0
 26 68  1  0
 29 69  1  0
 29 70  1  0
 29 71  1  0
 31 72  1  0
 36 73  1  0
 42 74  1  0
 42 75  1  0
 42 76  1  0
 43 77  1  0
 44 78  1  0
 44 79  1  0
 45 80  1  0
A    1
N1
A    2
N3
A    3
C4
A    4
C5
A    5
C6
A    6
C7
A    7
C8
A    8
C10
A    9
C13
A   10
C15
A   11
C17
A   12
C20
A   13
C21
A   14
C22
A   15
C24
A   16
C26
A   17
C28
A   18
C1
A   19
C2
A   20
O1
A   21
C3
A   22
C33
A   23
C32
A   24
C31
A   25
O3
A   26
C25
A   27
C23
A   28
O2
A   29
C35
A   30
N4
A   31
C27
A   32
C29
A   33
O4
A   34
C16
A   35
F1
A   36
C19
A   37
C18
A   38
C11
A   39
C12
A   40
O5
A   41
N2
A   42
C34
A   43
C14
A   44
C30
A   45
C9
M  END
