2RG6_287_A_501
     RDKit          3D

 60 63  0  0  0  0  0  0  0  0999 V2000
   -4.1490   -4.9920   28.0210 C   0  0  0  0  0  0  0  0  0  0  0  0
   -3.6380   -6.1710   27.4910 C   0  0  0  0  0  0  0  0  0  0  0  0
   -3.6950   -3.7650   27.5510 C   0  0  0  0  0  0  0  0  0  0  0  0
   -3.5900    1.0930   14.4390 C   0  0  0  0  0  0  0  0  0  0  0  0
   -2.6720   -6.1310   26.4850 C   0  0  0  0  0  0  0  0  0  0  0  0
   -2.7260   -3.7200   26.5460 C   0  0  0  0  0  0  0  0  0  0  0  0
   -4.6910    0.6260   15.1780 C   0  0  0  0  0  0  0  0  0  0  0  0
   -2.0950    0.0630   16.0180 C   0  0  0  0  0  0  0  0  0  0  0  0
   -1.9470   -1.4280   22.4870 C   0  0  0  0  0  0  0  0  0  0  0  0
   -2.2910    0.8050   14.8620 C   0  0  0  0  0  0  0  0  0  0  0  0
   -1.9730   -2.7090   21.9890 C   0  0  0  0  0  0  0  0  0  0  0  0
   -2.1980   -4.9020   26.0020 C   0  0  0  0  0  0  0  0  0  0  0  0
   -4.4940   -0.1120   16.3520 C   0  0  0  0  0  0  0  0  0  0  0  0
   -2.2510   -2.6200   20.5870 C   0  0  0  0  0  0  0  0  0  0  0  0
   -3.1750   -0.4030   16.7560 C   0  0  0  0  0  0  0  0  0  0  0  0
   -2.3760   -1.2650   20.3060 C   0  0  0  0  0  0  0  0  0  0  0  0
   -2.4830    1.3880   20.4350 C   0  0  0  0  0  0  0  0  0  0  0  0
   -2.6650   -0.5100   19.1040 C   0  0  0  0  0  0  0  0  0  0  0  0
   -1.0740    1.2360   14.1270 C   0  0  0  0  0  0  0  0  0  0  0  0
   -1.7760   -3.9320   22.7500 C   0  0  0  0  0  0  0  0  0  0  0  0
   -5.6870   -0.5940   17.1420 C   0  0  0  0  0  0  0  0  0  0  0  0
   -2.3710   -3.7830   19.6720 C   0  0  0  0  0  0  0  0  0  0  0  0
    0.2820   -4.9080   25.4190 C   0  0  0  0  0  0  0  0  0  0  0  0
    0.2640    2.3180   11.4950 C   0  0  0  0  0  0  0  0  0  0  0  0
   -1.1530   -4.8910   24.9120 C   0  0  0  0  0  0  0  0  0  0  0  0
   -2.2350    0.7860   21.5600 N   0  0  0  0  0  0  0  0  0  0  0  0
   -2.6850    0.7920   19.2080 N   0  0  0  0  0  0  0  0  0  0  0  0
   -2.1950   -0.5660   21.4620 N   0  0  0  0  0  0  0  0  0  0  0  0
   -2.9010   -1.1470   17.9130 N   0  0  0  0  0  0  0  0  0  0  0  0
   -1.3410   -3.7480   24.0350 N   0  0  0  0  0  0  0  0  0  0  0  0
   -1.2510    2.2630   13.2350 N   0  0  0  0  0  0  0  0  0  0  0  0
   -0.0240    0.6130   14.2640 O   0  0  0  0  0  0  0  0  0  0  0  0
   -1.9690   -5.0280   22.2500 O   0  0  0  0  0  0  0  0  0  0  0  0
   -0.0020    2.7890   12.8200 O   0  0  0  0  0  0  0  0  0  0  0  0
   -4.9124   -5.0299   28.8121 H   0  0  0  0  0  0  0  0  0  0  0  0
   -3.9970   -7.1405   27.8666 H   0  0  0  0  0  0  0  0  0  0  0  0
   -4.0982   -2.8312   27.9698 H   0  0  0  0  0  0  0  0  0  0  0  0
   -3.7521    1.6858   13.5267 H   0  0  0  0  0  0  0  0  0  0  0  0
   -2.2792   -7.0699   26.0676 H   0  0  0  0  0  0  0  0  0  0  0  0
   -2.3721   -2.7464   26.1760 H   0  0  0  0  0  0  0  0  0  0  0  0
   -5.7128    0.8414   14.8323 H   0  0  0  0  0  0  0  0  0  0  0  0
   -1.0713   -0.1588   16.3540 H   0  0  0  0  0  0  0  0  0  0  0  0
   -1.7583   -1.1473   23.5337 H   0  0  0  0  0  0  0  0  0  0  0  0
   -2.5374    2.4863   20.4648 H   0  0  0  0  0  0  0  0  0  0  0  0
   -5.4736   -0.5078   18.2176 H   0  0  0  0  0  0  0  0  0  0  0  0
   -6.5647    0.0201   16.8920 H   0  0  0  0  0  0  0  0  0  0  0  0
   -5.8918   -1.6454   16.8920 H   0  0  0  0  0  0  0  0  0  0  0  0
   -2.4662   -4.7060   20.2627 H   0  0  0  0  0  0  0  0  0  0  0  0
   -3.2612   -3.6602   19.0377 H   0  0  0  0  0  0  0  0  0  0  0  0
   -1.4744   -3.8445   19.0377 H   0  0  0  0  0  0  0  0  0  0  0  0
    0.2823   -4.9080   26.5190 H   0  0  0  0  0  0  0  0  0  0  0  0
    0.7898   -5.8122   25.0522 H   0  0  0  0  0  0  0  0  0  0  0  0
    0.8111   -4.0161   25.0522 H   0  0  0  0  0  0  0  0  0  0  0  0
    0.8043    1.3613   11.5475 H   0  0  0  0  0  0  0  0  0  0  0  0
   -0.6860    2.1737   10.9595 H   0  0  0  0  0  0  0  0  0  0  0  0
    0.8781    3.0570   10.9595 H   0  0  0  0  0  0  0  0  0  0  0  0
   -1.3015   -5.8308   24.3599 H   0  0  0  0  0  0  0  0  0  0  0  0
   -2.8770   -2.1757   17.8678 H   0  0  0  0  0  0  0  0  0  0  0  0
   -1.1466   -2.7974   24.3807 H   0  0  0  0  0  0  0  0  0  0  0  0
   -2.1668    2.6053   12.9109 H   0  0  0  0  0  0  0  0  0  0  0  0
 24 34  1  0
 34 31  1  0
 31 19  1  0
 19 32  2  0
 19 10  1  0
  4 10  2  0
  4  7  1  0
 10  8  1  0
  7 13  2  0
  8 15  2  0
 13 15  1  0
 13 21  1  0
 15 29  1  0
 29 18  1  0
 18 27  2  0
 18 16  1  0
 27 17  1  0
 22 14  1  0
 16 14  2  0
 16 28  1  0
 17 26  2  0
 14 11  1  0
 28 26  1  0
 28  9  1  0
 11  9  2  0
 11 20  1  0
 33 20  2  0
 20 30  1  0
 30 25  1  0
 25 23  1  0
 25 12  1  0
 12  5  2  0
 12  6  1  0
  5  2  1  0
  6  3  2  0
  2  1  2  0
  3  1  1  0
  1 35  1  0
  2 36  1  0
  3 37  1  0
  4 38  1  0
  5 39  1  0
  6 40  1  0
  7 41  1  0
  8 42  1  0
  9 43  1  0
 17 44  1  0
 21 45  1  0
 21 46  1  0
 21 47  1  0
 22 48  1  0
 22 49  1  0
 22 50  1  0
 23 51  1  0
 23 52  1  0
 23 53  1  0
 24 54  1  0
 24 55  1  0
 24 56  1  0
 25 57  1  0
 29 58  1  0
 30 59  1  0
 31 60  1  0
A    1
C1
A    2
C2
A    3
C3
A    4
C4
A    5
C5
A    6
C6
A    7
C7
A    8
C8
A    9
C9
A   10
C10
A   11
C11
A   12
C12
A   13
C13
A   14
C14
A   15
C15
A   16
C16
A   17
C17
A   18
C18
A   19
C19
A   20
C20
A   21
C21
A   22
C22
A   23
C23
A   24
C24
A   25
C25
A   26
N26
A   27
N27
A   28
N28
A   29
N29
A   30
N30
A   31
N31
A   32
O32
A   33
O33
A   34
O34
M  END
