2RGU_356_A_901
     RDKit          3D

 63 67  0  0  0  0  0  0  0  0999 V2000
   49.4690   47.4300   35.4360 C   0  0  0  0  0  0  0  0  0  0  0  0
   48.1320   47.7200   35.8280 N   0  0  0  0  0  0  0  0  0  0  0  0
   49.5620   47.8030   34.0770 C   0  0  0  0  0  0  0  0  0  0  0  0
   50.6500   46.8890   36.0520 C   0  0  0  0  0  0  0  0  0  0  0  0
   47.5710   48.3050   34.6930 C   0  0  0  0  0  0  0  0  0  0  0  0
   47.4490   47.4650   37.1480 C   0  0  0  0  0  0  0  0  0  0  0  0
   48.4260   48.3150   33.7200 N   0  0  0  0  0  0  0  0  0  0  0  0
   50.7390   47.6040   33.3630 N   0  0  0  0  0  0  0  0  0  0  0  0
   51.8100   46.7430   35.2970 N   0  0  0  0  0  0  0  0  0  0  0  0
   50.6290   46.5710   37.2360 O   0  0  0  0  0  0  0  0  0  0  0  0
   46.3270   48.8430   34.5060 N   0  0  0  0  0  0  0  0  0  0  0  0
   47.7600   48.3300   38.2790 C   0  0  0  0  0  0  0  0  0  0  0  0
   51.8330   47.0890   33.9690 C   0  0  0  0  0  0  0  0  0  0  0  0
   50.7730   47.9600   31.9220 C   0  0  0  0  0  0  0  0  0  0  0  0
   53.0530   46.2020   35.9300 C   0  0  0  0  0  0  0  0  0  0  0  0
   45.7830   49.7390   35.5090 C   0  0  0  0  0  0  0  0  0  0  0  0
   45.4010   48.3450   33.5390 C   0  0  0  0  0  0  0  0  0  0  0  0
   47.9460   48.9710   39.2330 C   0  0  0  0  0  0  0  0  0  0  0  0
   52.8580   46.9300   33.3080 O   0  0  0  0  0  0  0  0  0  0  0  0
   54.1340   47.2770   35.8150 C   0  0  0  0  0  0  0  0  0  0  0  0
   45.7360   51.0680   34.7710 C   0  0  0  0  0  0  0  0  0  0  0  0
   45.0410   49.6040   32.6770 C   0  0  0  0  0  0  0  0  0  0  0  0
   48.1510   49.7500   40.4490 C   0  0  0  0  0  0  0  0  0  0  0  0
   53.7480   48.5430   35.9010 N   0  0  0  0  0  0  0  0  0  0  0  0
   55.4120   46.9270   35.6130 N   0  0  0  0  0  0  0  0  0  0  0  0
   44.7760   50.9180   33.5430 C   0  0  0  0  0  0  0  0  0  0  0  0
   45.2640   52.1000   35.6950 N   0  0  0  0  0  0  0  0  0  0  0  0
   54.6250   49.5510   35.7880 C   0  0  0  0  0  0  0  0  0  0  0  0
   56.3930   47.8390   35.4830 C   0  0  0  0  0  0  0  0  0  0  0  0
   56.0370   49.2360   35.5610 C   0  0  0  0  0  0  0  0  0  0  0  0
   54.2130   50.9030   35.8790 C   0  0  0  0  0  0  0  0  0  0  0  0
   57.8260   47.3980   35.2610 C   0  0  0  0  0  0  0  0  0  0  0  0
   56.9820   50.3030   35.4330 C   0  0  0  0  0  0  0  0  0  0  0  0
   55.1580   51.9180   35.7520 C   0  0  0  0  0  0  0  0  0  0  0  0
   56.5370   51.6180   35.5280 C   0  0  0  0  0  0  0  0  0  0  0  0
   46.3659   47.5409   36.9714 H   0  0  0  0  0  0  0  0  0  0  0  0
   47.8264   46.4788   37.4562 H   0  0  0  0  0  0  0  0  0  0  0  0
   50.8771   49.0499   31.8159 H   0  0  0  0  0  0  0  0  0  0  0  0
   51.6276   47.4615   31.4412 H   0  0  0  0  0  0  0  0  0  0  0  0
   49.8395   47.6323   31.4412 H   0  0  0  0  0  0  0  0  0  0  0  0
   52.8649   45.9706   36.9888 H   0  0  0  0  0  0  0  0  0  0  0  0
   53.3721   45.2770   35.4274 H   0  0  0  0  0  0  0  0  0  0  0  0
   44.7772   49.4220   35.8218 H   0  0  0  0  0  0  0  0  0  0  0  0
   46.3752   49.7721   36.4354 H   0  0  0  0  0  0  0  0  0  0  0  0
   44.5047   47.9373   34.0293 H   0  0  0  0  0  0  0  0  0  0  0  0
   45.8175   47.5240   32.9369 H   0  0  0  0  0  0  0  0  0  0  0  0
   46.7317   51.3590   34.4051 H   0  0  0  0  0  0  0  0  0  0  0  0
   45.8752   49.8039   31.9885 H   0  0  0  0  0  0  0  0  0  0  0  0
   44.1055   49.3741   32.1460 H   0  0  0  0  0  0  0  0  0  0  0  0
   47.9825   49.1097   41.3274 H   0  0  0  0  0  0  0  0  0  0  0  0
   49.1811   50.1353   40.4683 H   0  0  0  0  0  0  0  0  0  0  0  0
   47.4440   50.5925   40.4683 H   0  0  0  0  0  0  0  0  0  0  0  0
   44.9059   51.7949   32.8918 H   0  0  0  0  0  0  0  0  0  0  0  0
   43.7541   50.8387   33.9422 H   0  0  0  0  0  0  0  0  0  0  0  0
   45.4083   51.7845   36.6648 H   0  0  0  0  0  0  0  0  0  0  0  0
   45.7905   52.9707   35.5353 H   0  0  0  0  0  0  0  0  0  0  0  0
   53.1545   51.1495   36.0487 H   0  0  0  0  0  0  0  0  0  0  0  0
   58.3178   47.2466   36.2332 H   0  0  0  0  0  0  0  0  0  0  0  0
   57.8359   46.4552   34.6943 H   0  0  0  0  0  0  0  0  0  0  0  0
   58.3643   48.1721   34.6943 H   0  0  0  0  0  0  0  0  0  0  0  0
   58.0468   50.0864   35.2617 H   0  0  0  0  0  0  0  0  0  0  0  0
   54.8377   52.9678   35.8253 H   0  0  0  0  0  0  0  0  0  0  0  0
   57.2597   52.4413   35.4289 H   0  0  0  0  0  0  0  0  0  0  0  0
 14  8  1  0
 22 17  1  0
 22 26  1  0
 19 13  2  0
  8 13  1  0
  8  3  1  0
 17 11  1  0
 26 21  1  0
  7  3  1  0
  7  5  2  0
 13  9  1  0
  3  1  2  0
 11  5  1  0
 11 16  1  0
  5  2  1  0
 21 16  1  0
 21 27  1  0
 32 29  1  0
  9 15  1  0
  9  4  1  0
 33 35  2  0
 33 30  1  0
  1  2  1  0
  1  4  1  0
 29 30  2  0
 29 25  1  0
 35 34  1  0
 30 28  1  0
 25 20  2  0
 34 31  2  0
 28 31  1  0
 28 24  2  0
 20 24  1  0
 20 15  1  0
  2  6  1  0
  4 10  2  0
  6 12  1  0
 12 18  3  0
 18 23  1  0
  6 36  1  0
  6 37  1  0
 14 38  1  0
 14 39  1  0
 14 40  1  0
 15 41  1  0
 15 42  1  0
 16 43  1  0
 16 44  1  0
 17 45  1  0
 17 46  1  0
 21 47  1  0
 22 48  1  0
 22 49  1  0
 23 50  1  0
 23 51  1  0
 23 52  1  0
 26 53  1  0
 26 54  1  0
 27 55  1  0
 27 56  1  0
 31 57  1  0
 32 58  1  0
 32 59  1  0
 32 60  1  0
 33 61  1  0
 34 62  1  0
 35 63  1  0
A    1
C1
A    2
N2
A    3
C3
A    4
C4
A    5
C5
A    6
C6
A    7
N7
A    8
N8
A    9
N9
A   10
O10
A   11
N11
A   12
C12
A   13
C13
A   14
C14
A   15
C15
A   16
C16
A   17
C17
A   18
C18
A   19
O19
A   20
C20
A   21
C21
A   22
C22
A   23
C23
A   24
N24
A   25
N25
A   26
C26
A   27
N27
A   28
C28
A   29
C29
A   30
C30
A   31
C31
A   32
C32
A   33
C33
A   34
C34
A   35
C35
M  END
