2RIE_293_A_356
     RDKit          3D

 27 27  0  0  0  0  0  0  0  0999 V2000
   27.7220  -17.4990   10.4840 C   0  0  0  0  0  0  0  0  0  0  0  0
   26.3410  -17.7620    9.7490 C   0  0  0  0  0  0  0  0  0  0  0  0
   26.0230  -16.5500    8.7660 C   0  0  0  0  0  0  0  0  0  0  0  0
   25.9150  -15.2270    9.6280 C   0  0  0  0  0  0  0  0  0  0  0  0
   27.3590  -14.9760   10.3120 C   0  0  0  0  0  0  0  0  0  0  0  0
   27.3440  -13.7240   11.1840 C   0  0  0  0  0  0  0  0  0  0  0  0
   28.7330  -13.4660   11.8130 C   0  0  0  0  0  0  0  0  0  0  0  0
   28.9610  -17.5360    9.8770 O   0  0  0  0  0  0  0  0  0  0  0  0
   24.7360  -16.8270    8.1120 O   0  0  0  0  0  0  0  0  0  0  0  0
   25.6330  -14.1100    8.7930 O   0  0  0  0  0  0  0  0  0  0  0  0
   27.6720  -16.1630   11.1860 O   0  0  0  0  0  0  0  0  0  0  0  0
   26.3970  -13.9960   12.2050 O   0  0  0  0  0  0  0  0  0  0  0  0
   28.6810  -12.2970   12.6220 O   0  0  0  0  0  0  0  0  0  0  0  0
   27.7300  -18.4284   11.0724 H   0  0  0  0  0  0  0  0  0  0  0  0
   26.4054  -18.6957    9.1709 H   0  0  0  0  0  0  0  0  0  0  0  0
   25.5386  -17.8479   10.4965 H   0  0  0  0  0  0  0  0  0  0  0  0
   26.8104  -16.4298    8.0073 H   0  0  0  0  0  0  0  0  0  0  0  0
   25.1131  -15.3367   10.3729 H   0  0  0  0  0  0  0  0  0  0  0  0
   28.1127  -14.8433    9.5218 H   0  0  0  0  0  0  0  0  0  0  0  0
   27.0894  -12.8293   10.5969 H   0  0  0  0  0  0  0  0  0  0  0  0
   29.0198  -14.3280   12.4333 H   0  0  0  0  0  0  0  0  0  0  0  0
   29.4753  -13.3243   11.0137 H   0  0  0  0  0  0  0  0  0  0  0  0
   29.6675  -17.5571   10.5701 H   0  0  0  0  0  0  0  0  0  0  0  0
   24.0411  -16.9766    8.8011 H   0  0  0  0  0  0  0  0  0  0  0  0
   25.4335  -13.3198    9.3551 H   0  0  0  0  0  0  0  0  0  0  0  0
   26.8223  -13.8738   13.0906 H   0  0  0  0  0  0  0  0  0  0  0  0
   28.6925  -12.5561   13.5774 H   0  0  0  0  0  0  0  0  0  0  0  0
  2  1  1  0
  8  1  1  0
  1 11  1  0
  3  2  1  0
  9  3  1  0
  3  4  1  0
 10  4  1  0
  4  5  1  0
  5  6  1  0
  5 11  1  0
  6  7  1  0
  6 12  1  0
  7 13  1  0
  1 14  1  0
  2 15  1  0
  2 16  1  0
  3 17  1  0
  4 18  1  0
  5 19  1  0
  6 20  1  0
  7 21  1  0
  7 22  1  0
  8 23  1  0
  9 24  1  0
 10 25  1  0
 12 26  1  0
 13 27  1  0
A    1
C1
A    2
C2
A    3
C3
A    4
C4
A    5
C5
A    6
C6
A    7
C7
A    8
O1
A    9
O3
A   10
O4
A   11
O5
A   12
O6
A   13
O7
M  END
