2RJ4_AD7_A_356
     RDKit          3D

 62 63  0  0  0  0  0  0  0  0999 V2000
   13.1100   -6.6020   -9.2950 C   0  0  0  0  0  0  0  0  0  0  0  0
   12.2540   -7.8660   -9.2110 C   0  0  0  0  0  0  0  0  0  0  0  0
   10.8740   -7.5610   -8.6210 C   0  0  0  0  0  0  0  0  0  0  0  0
   10.6260   -8.3730   -7.3440 C   0  0  0  0  0  0  0  0  0  0  0  0
    9.4530   -7.8020   -6.5340 C   0  0  0  0  0  0  0  0  0  0  0  0
    8.5240   -8.8870   -5.9690 C   0  0  0  0  0  0  0  0  0  0  0  0
    9.1900  -10.1100   -5.5530 O   0  0  0  0  0  0  0  0  0  0  0  0
    8.6560  -11.2160   -6.2950 C   0  0  0  0  0  0  0  0  0  0  0  0
    7.2630  -11.3330   -5.9580 O   0  0  0  0  0  0  0  0  0  0  0  0
    6.6120  -12.4340   -6.6240 C   0  0  0  0  0  0  0  0  0  0  0  0
    5.1430  -12.4320   -6.2180 C   0  0  0  0  0  0  0  0  0  0  0  0
    4.5330  -11.2170   -6.6600 O   0  0  0  0  0  0  0  0  0  0  0  0
    7.2900  -13.7540   -6.2400 C   0  0  0  0  0  0  0  0  0  0  0  0
    7.2730  -13.9260   -4.8180 O   0  0  0  0  0  0  0  0  0  0  0  0
    8.7540  -13.7040   -6.6300 C   0  0  0  0  0  0  0  0  0  0  0  0
    9.3850  -14.9500   -6.1680 N   0  0  0  0  0  0  0  0  0  0  0  0
    9.4360  -12.4920   -5.9650 C   0  0  0  0  0  0  0  0  0  0  0  0
   10.7830  -12.3200   -6.4440 O   0  0  0  0  0  0  0  0  0  0  0  0
   11.7590  -12.6290   -5.4150 C   0  0  0  0  0  0  0  0  0  0  0  0
   13.1540  -12.4090   -6.0520 C   0  0  0  0  0  0  0  0  0  0  0  0
   11.5610  -11.8810   -4.1540 O   0  0  0  0  0  0  0  0  0  0  0  0
   11.8610  -10.4490   -4.2010 C   0  0  0  0  0  0  0  0  0  0  0  0
   11.6430   -9.8250   -2.8190 C   0  0  0  0  0  0  0  0  0  0  0  0
   13.2820  -10.2400   -4.7440 C   0  0  0  0  0  0  0  0  0  0  0  0
   14.2520  -10.7900   -3.8370 O   0  0  0  0  0  0  0  0  0  0  0  0
   13.4240  -10.8980   -6.1290 C   0  0  0  0  0  0  0  0  0  0  0  0
   14.7310  -10.6560   -6.6550 O   0  0  0  0  0  0  0  0  0  0  0  0
   13.3472   -6.2517   -8.2796 H   0  0  0  0  0  0  0  0  0  0  0  0
   14.0430   -6.8261   -9.8329 H   0  0  0  0  0  0  0  0  0  0  0  0
   12.5557   -5.8188   -9.8329 H   0  0  0  0  0  0  0  0  0  0  0  0
   12.1284   -8.2823  -10.2214 H   0  0  0  0  0  0  0  0  0  0  0  0
   12.7619   -8.5882   -8.5549 H   0  0  0  0  0  0  0  0  0  0  0  0
   10.8148   -6.4889   -8.3819 H   0  0  0  0  0  0  0  0  0  0  0  0
   10.1093   -7.8353   -9.3626 H   0  0  0  0  0  0  0  0  0  0  0  0
   10.3972   -9.4129   -7.6202 H   0  0  0  0  0  0  0  0  0  0  0  0
   11.5319   -8.3238   -6.7219 H   0  0  0  0  0  0  0  0  0  0  0  0
    9.8589   -7.2175   -5.6952 H   0  0  0  0  0  0  0  0  0  0  0  0
    8.8543   -7.1820   -7.2175 H   0  0  0  0  0  0  0  0  0  0  0  0
    8.0022   -8.4686   -5.0957 H   0  0  0  0  0  0  0  0  0  0  0  0
    7.8467   -9.1692   -6.7886 H   0  0  0  0  0  0  0  0  0  0  0  0
    8.7538  -11.0549   -7.3787 H   0  0  0  0  0  0  0  0  0  0  0  0
    6.6902  -12.3265   -7.7159 H   0  0  0  0  0  0  0  0  0  0  0  0
    4.6325  -13.2893   -6.6811 H   0  0  0  0  0  0  0  0  0  0  0  0
    5.0628  -12.5081   -5.1236 H   0  0  0  0  0  0  0  0  0  0  0  0
    4.2627  -10.6786   -5.8744 H   0  0  0  0  0  0  0  0  0  0  0  0
    6.7525  -14.5673   -6.7495 H   0  0  0  0  0  0  0  0  0  0  0  0
    7.3602  -13.0436   -4.3778 H   0  0  0  0  0  0  0  0  0  0  0  0
    8.8567  -13.6021   -7.7204 H   0  0  0  0  0  0  0  0  0  0  0  0
    9.3945  -14.9687   -5.1382 H   0  0  0  0  0  0  0  0  0  0  0  0
    8.8509  -15.7568   -6.5212 H   0  0  0  0  0  0  0  0  0  0  0  0
    9.4540  -12.6762   -4.8807 H   0  0  0  0  0  0  0  0  0  0  0  0
   11.6446  -13.6736   -5.0899 H   0  0  0  0  0  0  0  0  0  0  0  0
   13.9245  -12.8922   -5.4333 H   0  0  0  0  0  0  0  0  0  0  0  0
   13.1805  -12.8478   -7.0604 H   0  0  0  0  0  0  0  0  0  0  0  0
   11.1754   -9.9334   -4.8895 H   0  0  0  0  0  0  0  0  0  0  0  0
   11.8994  -10.5589   -2.0407 H   0  0  0  0  0  0  0  0  0  0  0  0
   12.2844   -8.9378   -2.7120 H   0  0  0  0  0  0  0  0  0  0  0  0
   10.5886   -9.5302   -2.7120 H   0  0  0  0  0  0  0  0  0  0  0  0
   13.4629   -9.1594   -4.8414 H   0  0  0  0  0  0  0  0  0  0  0  0
   13.9623  -10.6258   -2.9047 H   0  0  0  0  0  0  0  0  0  0  0  0
   12.6768  -10.4511   -6.8013 H   0  0  0  0  0  0  0  0  0  0  0  0
   15.3704  -10.5376   -5.9085 H   0  0  0  0  0  0  0  0  0  0  0  0
  1  2  1  0
  2  3  1  0
  3  4  1  0
  4  5  1  0
  5  6  1  0
  6  7  1  0
  7  8  1  0
  8  9  1  0
  8 17  1  0
  9 10  1  0
 10 11  1  0
 10 13  1  0
 11 12  1  0
 13 14  1  0
 13 15  1  0
 15 16  1  0
 15 17  1  0
 17 18  1  0
 18 19  1  0
 19 20  1  0
 19 21  1  0
 20 26  1  0
 21 22  1  0
 22 23  1  0
 22 24  1  0
 24 25  1  0
 24 26  1  0
 26 27  1  0
  1 28  1  0
  1 29  1  0
  1 30  1  0
  2 31  1  0
  2 32  1  0
  3 33  1  0
  3 34  1  0
  4 35  1  0
  4 36  1  0
  5 37  1  0
  5 38  1  0
  6 39  1  0
  6 40  1  0
  8 41  1  0
 10 42  1  0
 11 43  1  0
 11 44  1  0
 12 45  1  0
 13 46  1  0
 14 47  1  0
 15 48  1  0
 16 49  1  0
 16 50  1  0
 17 51  1  0
 19 52  1  0
 20 53  1  0
 20 54  1  0
 22 55  1  0
 23 56  1  0
 23 57  1  0
 23 58  1  0
 24 59  1  0
 25 60  1  0
 26 61  1  0
 27 62  1  0
A    1
CBA
A    2
CAZ
A    3
CAY
A    4
CAX
A    5
CAW
A    6
CAV
A    7
OAK
A    8
CAJ
A    9
OAS
A   10
CAR
A   11
CAT
A   12
OAU
A   13
CAP
A   14
OAQ
A   15
CAN
A   16
NAO
A   17
CAL
A   18
OAM
A   19
CAA
A   20
CAB
A   21
OAI
A   22
CAE
A   23
CAF
A   24
CAD
A   25
OAH
A   26
CAC
A   27
OAG
M  END
