2RJP_886_A_510
     RDKit          3D

 67 69  0  0  0  0  0  0  0  0999 V2000
   66.4200  -11.2980   14.6310 C   0  0  0  0  0  0  0  0  0  0  0  0
   66.1680  -10.3930   13.4140 C   0  0  0  0  0  0  0  0  0  0  0  0
   65.1200  -11.0660   12.5200 C   0  0  0  0  0  0  0  0  0  0  0  0
   65.7550   -8.9780   13.8790 C   0  0  0  0  0  0  0  0  0  0  0  0
   65.5120   -7.9580   12.7100 C   0  0  0  0  0  0  0  0  0  0  0  0
   66.5440   -7.7160   12.0220 O   0  0  0  0  0  0  0  0  0  0  0  0
   64.3590   -7.4870   12.5810 O   0  0  0  0  0  0  0  0  0  0  0  0
   66.9480   -8.4060   14.6220 N   0  0  0  0  0  0  0  0  0  0  0  0
   66.7020   -7.7840   16.1600 S   0  0  0  0  0  0  0  0  0  0  0  0
   67.9460   -7.9800   16.8880 O   0  0  0  0  0  0  0  0  0  0  0  0
   65.4600   -8.3000   16.6980 O   0  0  0  0  0  0  0  0  0  0  0  0
   66.4610   -6.0420   15.9050 C   0  0  0  0  0  0  0  0  0  0  0  0
   67.5710   -5.2310   15.6630 C   0  0  0  0  0  0  0  0  0  0  0  0
   67.3800   -3.8590   15.4610 C   0  0  0  0  0  0  0  0  0  0  0  0
   66.0930   -3.2720   15.4950 C   0  0  0  0  0  0  0  0  0  0  0  0
   64.9930   -4.1200   15.7450 C   0  0  0  0  0  0  0  0  0  0  0  0
   65.1700   -5.4940   15.9480 C   0  0  0  0  0  0  0  0  0  0  0  0
   65.9170   -1.8140   15.3010 C   0  0  0  0  0  0  0  0  0  0  0  0
   64.8100   -1.1300   15.8510 C   0  0  0  0  0  0  0  0  0  0  0  0
   64.6430    0.2560   15.6840 C   0  0  0  0  0  0  0  0  0  0  0  0
   65.5930    1.0090   14.9690 C   0  0  0  0  0  0  0  0  0  0  0  0
   66.7080    0.3410   14.4300 C   0  0  0  0  0  0  0  0  0  0  0  0
   66.8680   -1.0440   14.5970 C   0  0  0  0  0  0  0  0  0  0  0  0
   65.4430    2.5000   14.7540 C   0  0  0  0  0  0  0  0  0  0  0  0
   64.5020    3.0750   15.6590 O   0  0  0  0  0  0  0  0  0  0  0  0
   63.6020    4.0610   15.3180 C   0  0  0  0  0  0  0  0  0  0  0  0
   62.5340    4.0030   14.4100 C   0  0  0  0  0  0  0  0  0  0  0  0
   61.6890    5.1220   14.2230 C   0  0  0  0  0  0  0  0  0  0  0  0
   61.8820    6.3240   14.9330 C   0  0  0  0  0  0  0  0  0  0  0  0
   62.9420    6.3630   15.8540 C   0  0  0  0  0  0  0  0  0  0  0  0
   63.7790    5.2500   16.0380 C   0  0  0  0  0  0  0  0  0  0  0  0
   60.9820    7.5290   14.7710 C   0  0  0  0  0  0  0  0  0  0  0  0
   59.7900    7.3310   15.0140 O   0  0  0  0  0  0  0  0  0  0  0  0
   61.4580    8.9910   14.7180 C   0  0  0  0  0  0  0  0  0  0  0  0
   62.6290    9.2100   13.7680 C   0  0  0  0  0  0  0  0  0  0  0  0
   61.7090    9.5830   16.1090 C   0  0  0  0  0  0  0  0  0  0  0  0
   66.2599  -10.7230   15.5550 H   0  0  0  0  0  0  0  0  0  0  0  0
   65.7250  -12.1502   14.6044 H   0  0  0  0  0  0  0  0  0  0  0  0
   67.4554  -11.6683   14.6044 H   0  0  0  0  0  0  0  0  0  0  0  0
   67.0849  -10.2623   12.8205 H   0  0  0  0  0  0  0  0  0  0  0  0
   64.3605  -11.5537   13.1487 H   0  0  0  0  0  0  0  0  0  0  0  0
   64.6385  -10.3078   11.8849 H   0  0  0  0  0  0  0  0  0  0  0  0
   65.6091  -11.8193   11.8849 H   0  0  0  0  0  0  0  0  0  0  0  0
   64.8245   -9.0930   14.4543 H   0  0  0  0  0  0  0  0  0  0  0  0
   63.8214   -7.2674   13.3828 H   0  0  0  0  0  0  0  0  0  0  0  0
   67.6453   -9.1595   14.7055 H   0  0  0  0  0  0  0  0  0  0  0  0
   68.5817   -5.6639   15.6315 H   0  0  0  0  0  0  0  0  0  0  0  0
   68.2546   -3.2196   15.2706 H   0  0  0  0  0  0  0  0  0  0  0  0
   63.9794   -3.6943   15.7810 H   0  0  0  0  0  0  0  0  0  0  0  0
   64.3012   -6.1407   16.1403 H   0  0  0  0  0  0  0  0  0  0  0  0
   64.0604   -1.6956   16.4239 H   0  0  0  0  0  0  0  0  0  0  0  0
   63.7631    0.7556   16.1155 H   0  0  0  0  0  0  0  0  0  0  0  0
   67.4642    0.9112   13.8705 H   0  0  0  0  0  0  0  0  0  0  0  0
   67.7527   -1.5393   14.1704 H   0  0  0  0  0  0  0  0  0  0  0  0
   66.4207    2.9813   14.9040 H   0  0  0  0  0  0  0  0  0  0  0  0
   65.0748    2.6619   13.7302 H   0  0  0  0  0  0  0  0  0  0  0  0
   62.3523    3.0804   13.8392 H   0  0  0  0  0  0  0  0  0  0  0  0
   60.8592    5.0521   13.5043 H   0  0  0  0  0  0  0  0  0  0  0  0
   63.1190    7.2775   16.4391 H   0  0  0  0  0  0  0  0  0  0  0  0
   64.5981    5.3137   16.7694 H   0  0  0  0  0  0  0  0  0  0  0  0
   60.6185    9.5574   14.2885 H   0  0  0  0  0  0  0  0  0  0  0  0
   63.5464    9.3816   14.3502 H   0  0  0  0  0  0  0  0  0  0  0  0
   62.7581    8.3204   13.1340 H   0  0  0  0  0  0  0  0  0  0  0  0
   62.4279   10.0861   13.1340 H   0  0  0  0  0  0  0  0  0  0  0  0
   61.4016    8.8580   16.8770 H   0  0  0  0  0  0  0  0  0  0  0  0
   62.7797    9.8074   16.2242 H   0  0  0  0  0  0  0  0  0  0  0  0
   61.1259   10.5086   16.2242 H   0  0  0  0  0  0  0  0  0  0  0  0
  6  5  2  0
  3  2  1  0
  7  5  1  0
  5  4  1  0
  2  4  1  0
  2  1  1  0
 35 34  1  0
  4  8  1  0
 28 27  2  0
 28 29  1  0
 27 26  1  0
 22 23  2  0
 22 21  1  0
 23 18  1  0
  8  9  1  0
 34 32  1  0
 34 36  1  0
 24 21  1  0
 24 25  1  0
 32 29  1  0
 32 33  2  0
 29 30  2  0
 21 20  2  0
 18 15  1  0
 18 19  2  0
 26 25  1  0
 26 31  2  0
 14 15  2  0
 14 13  1  0
 15 16  1  0
 13 12  2  0
 20 19  1  0
 16 17  2  0
 30 31  1  0
 12 17  1  0
 12  9  1  0
  9 11  2  0
  9 10  2  0
  1 37  1  0
  1 38  1  0
  1 39  1  0
  2 40  1  0
  3 41  1  0
  3 42  1  0
  3 43  1  0
  4 44  1  0
  7 45  1  0
  8 46  1  0
 13 47  1  0
 14 48  1  0
 16 49  1  0
 17 50  1  0
 19 51  1  0
 20 52  1  0
 22 53  1  0
 23 54  1  0
 24 55  1  0
 24 56  1  0
 27 57  1  0
 28 58  1  0
 30 59  1  0
 31 60  1  0
 34 61  1  0
 35 62  1  0
 35 63  1  0
 35 64  1  0
 36 65  1  0
 36 66  1  0
 36 67  1  0
A    1
C1
A    2
C2
A    3
C3
A    4
C4
A    5
C5
A    6
O1
A    7
O2
A    8
N1
A    9
S1
A   10
O3
A   11
O4
A   12
C6
A   13
C7
A   14
C8
A   15
C9
A   16
C10
A   17
C11
A   18
C12
A   19
C13
A   20
C14
A   21
C15
A   22
C16
A   23
C17
A   24
C18
A   25
O5
A   26
C19
A   27
C20
A   28
C21
A   29
C22
A   30
C23
A   31
C24
A   32
C25
A   33
O6
A   34
C26
A   35
C27
A   36
C28
M  END
