2RKI_TT1_A_568
     RDKit          3D

 42 45  0  0  0  0  0  0  0  0999 V2000
    6.0080    9.1620   16.8060 C   0  0  0  0  0  0  0  0  0  0  0  0
    6.1690    7.6750   16.4200 C   0  0  0  0  0  0  0  0  0  0  0  0
    6.5060    7.3350   15.0910 C   0  0  0  0  0  0  0  0  0  0  0  0
    6.6910    8.3590   14.1220 C   0  0  0  0  0  0  0  0  0  0  0  0
    6.5450    9.7460   14.4600 C   0  0  0  0  0  0  0  0  0  0  0  0
    6.7930   10.9080   13.1850 Cl  0  0  0  0  0  0  0  0  0  0  0  0
    6.2020   10.1700   15.8160 C   0  0  0  0  0  0  0  0  0  0  0  0
    6.0430   11.6970   16.1900 C   0  0  0  0  0  0  0  0  0  0  0  0
    7.2760   12.2580   17.4120 S   0  0  0  0  0  0  0  0  0  0  0  0
    8.4960   12.9260   16.2740 C   0  0  0  0  0  0  0  0  0  0  0  0
    8.2510   13.2920   15.0770 N   0  0  0  0  0  0  0  0  0  0  0  0
    9.4250   13.7290   14.5640 N   0  0  0  0  0  0  0  0  0  0  0  0
   10.2680   13.5830   15.5050 C   0  0  0  0  0  0  0  0  0  0  0  0
   11.6830   13.9620   15.3080 C   0  0  0  0  0  0  0  0  0  0  0  0
   12.0860   15.1730   14.9220 C   0  0  0  0  0  0  0  0  0  0  0  0
   13.5490   15.2750   14.8180 C   0  0  0  0  0  0  0  0  0  0  0  0
   14.1670   14.1330   15.1310 C   0  0  0  0  0  0  0  0  0  0  0  0
   13.0350   12.8280   15.5810 S   0  0  0  0  0  0  0  0  0  0  0  0
    9.7470   13.0840   16.6020 N   0  0  0  0  0  0  0  0  0  0  0  0
   10.3890   12.7680   17.8950 C   0  0  0  0  0  0  0  0  0  0  0  0
   10.3440   13.9170   18.9050 C   0  0  0  0  0  0  0  0  0  0  0  0
   10.6330   15.2780   18.5230 C   0  0  0  0  0  0  0  0  0  0  0  0
   10.5890   16.3380   19.5030 C   0  0  0  0  0  0  0  0  0  0  0  0
   10.2520   16.0210   20.8820 C   0  0  0  0  0  0  0  0  0  0  0  0
    9.9620   14.6600   21.2710 C   0  0  0  0  0  0  0  0  0  0  0  0
   10.0060   13.6110   20.2900 C   0  0  0  0  0  0  0  0  0  0  0  0
    5.7456    9.4414   17.8371 H   0  0  0  0  0  0  0  0  0  0  0  0
    6.0224    6.8874   17.1738 H   0  0  0  0  0  0  0  0  0  0  0  0
    6.6252    6.2793   14.8061 H   0  0  0  0  0  0  0  0  0  0  0  0
    6.9519    8.0818   13.0900 H   0  0  0  0  0  0  0  0  0  0  0  0
    6.1572   12.2966   15.2749 H   0  0  0  0  0  0  0  0  0  0  0  0
    5.0479   11.8256   16.6408 H   0  0  0  0  0  0  0  0  0  0  0  0
   11.3992   16.0045   14.7052 H   0  0  0  0  0  0  0  0  0  0  0  0
   14.0768   16.1915   14.5155 H   0  0  0  0  0  0  0  0  0  0  0  0
   15.2599   14.0095   15.1133 H   0  0  0  0  0  0  0  0  0  0  0  0
    9.8753   11.9001   18.3342 H   0  0  0  0  0  0  0  0  0  0  0  0
   11.4501   12.5679   17.6850 H   0  0  0  0  0  0  0  0  0  0  0  0
   10.8885   15.5098   17.4785 H   0  0  0  0  0  0  0  0  0  0  0  0
   10.8083   17.3752   19.2093 H   0  0  0  0  0  0  0  0  0  0  0  0
   10.2177   16.8230   21.6340 H   0  0  0  0  0  0  0  0  0  0  0  0
    9.7081   14.4275   22.3157 H   0  0  0  0  0  0  0  0  0  0  0  0
    9.7842   12.5746   20.5846 H   0  0  0  0  0  0  0  0  0  0  0  0
  1  2  2  0
  1  7  1  0
  2  3  1  0
  3  4  2  0
  4  5  1  0
  5  6  1  0
  5  7  2  0
  7  8  1  0
  8  9  1  0
  9 10  1  0
 10 11  2  0
 10 19  1  0
 11 12  1  0
 12 13  2  0
 13 14  1  0
 13 19  1  0
 14 15  2  0
 14 18  1  0
 15 16  1  0
 16 17  2  0
 17 18  1  0
 19 20  1  0
 20 21  1  0
 21 22  2  0
 21 26  1  0
 22 23  1  0
 23 24  2  0
 24 25  1  0
 25 26  2  0
  1 27  1  0
  2 28  1  0
  3 29  1  0
  4 30  1  0
  8 31  1  0
  8 32  1  0
 15 33  1  0
 16 34  1  0
 17 35  1  0
 20 36  1  0
 20 37  1  0
 22 38  1  0
 23 39  1  0
 24 40  1  0
 25 41  1  0
 26 42  1  0
A    1
C26
A    2
C25
A    3
C24
A    4
C23
A    5
C21
A    6
CL22
A    7
C20
A    8
C8
A    9
S9
A   10
C10
A   11
N19
A   12
N18
A   13
C12
A   14
C13
A   15
C17
A   16
C16
A   17
C15
A   18
S14
A   19
N11
A   20
C1
A   21
C2
A   22
C7
A   23
C6
A   24
C5
A   25
C4
A   26
C3
M  END
