2RL5_2RL_A_501
     RDKit          3D

 57 61  0  0  0  0  0  0  0  0999 V2000
   57.7490   52.3500   12.5160 C   0  0  0  0  0  0  0  0  0  0  0  0
   59.1670   52.5810   12.4520 C   0  0  0  0  0  0  0  0  0  0  0  0
   60.0300   52.1640   13.4980 C   0  0  0  0  0  0  0  0  0  0  0  0
   59.4740   51.4910   14.6530 C   0  0  0  0  0  0  0  0  0  0  0  0
   58.0630   51.2560   14.7260 C   0  0  0  0  0  0  0  0  0  0  0  0
   57.1940   51.6760   13.6700 C   0  0  0  0  0  0  0  0  0  0  0  0
   61.4000   52.3800   13.4540 N   0  0  0  0  0  0  0  0  0  0  0  0
   62.2280   51.9810   14.4600 C   0  0  0  0  0  0  0  0  0  0  0  0
   61.7420   51.3240   15.6100 C   0  0  0  0  0  0  0  0  0  0  0  0
   60.3300   51.0670   15.7210 C   0  0  0  0  0  0  0  0  0  0  0  0
   59.7340   50.4220   16.8350 O   0  0  0  0  0  0  0  0  0  0  0  0
   60.4870   49.5010   17.5690 C   0  0  0  0  0  0  0  0  0  0  0  0
   61.1170   49.8870   18.7800 C   0  0  0  0  0  0  0  0  0  0  0  0
   61.8700   48.9670   19.5270 C   0  0  0  0  0  0  0  0  0  0  0  0
   62.0170   47.6010   19.0700 C   0  0  0  0  0  0  0  0  0  0  0  0
   61.3630   47.2380   17.8420 C   0  0  0  0  0  0  0  0  0  0  0  0
   60.6120   48.1720   17.1060 C   0  0  0  0  0  0  0  0  0  0  0  0
   62.4570   49.4490   20.7280 O   0  0  0  0  0  0  0  0  0  0  0  0
   63.5190   48.6280   21.2510 C   0  0  0  0  0  0  0  0  0  0  0  0
   63.1140   47.1510   21.2480 C   0  0  0  0  0  0  0  0  0  0  0  0
   62.7920   46.7140   19.8650 N   0  0  0  0  0  0  0  0  0  0  0  0
   55.8180   51.3850   13.8690 O   0  0  0  0  0  0  0  0  0  0  0  0
   56.8940   52.7640   11.4740 O   0  0  0  0  0  0  0  0  0  0  0  0
   63.5620   45.6700   19.3080 C   0  0  0  0  0  0  0  0  0  0  0  0
   63.5880   45.4420   18.0970 O   0  0  0  0  0  0  0  0  0  0  0  0
   64.3040   44.9100   20.1860 N   0  0  0  0  0  0  0  0  0  0  0  0
   65.0930   43.8050   19.8780 C   0  0  0  0  0  0  0  0  0  0  0  0
   65.9500   43.8160   18.7300 C   0  0  0  0  0  0  0  0  0  0  0  0
   66.7540   42.6890   18.4160 C   0  0  0  0  0  0  0  0  0  0  0  0
   66.7020   41.5500   19.2530 C   0  0  0  0  0  0  0  0  0  0  0  0
   65.8690   41.5120   20.3940 C   0  0  0  0  0  0  0  0  0  0  0  0
   65.0630   42.6440   20.7050 C   0  0  0  0  0  0  0  0  0  0  0  0
   67.6740   40.1750   18.8710 Cl  0  0  0  0  0  0  0  0  0  0  0  0
   55.3930   50.0490   14.1360 C   0  0  0  0  0  0  0  0  0  0  0  0
   57.1690   54.0300   10.8750 C   0  0  0  0  0  0  0  0  0  0  0  0
   59.5910   53.0912   11.5745 H   0  0  0  0  0  0  0  0  0  0  0  0
   57.6422   50.7461   15.6052 H   0  0  0  0  0  0  0  0  0  0  0  0
   63.3069   52.1769   14.3729 H   0  0  0  0  0  0  0  0  0  0  0  0
   62.4311   51.0131   16.4091 H   0  0  0  0  0  0  0  0  0  0  0  0
   61.0141   50.9217   19.1389 H   0  0  0  0  0  0  0  0  0  0  0  0
   61.4520   46.2067   17.4699 H   0  0  0  0  0  0  0  0  0  0  0  0
   60.1217   47.8677   16.1695 H   0  0  0  0  0  0  0  0  0  0  0  0
   64.4159   48.7576   20.6275 H   0  0  0  0  0  0  0  0  0  0  0  0
   63.7260   48.9355   22.2867 H   0  0  0  0  0  0  0  0  0  0  0  0
   63.9453   46.5448   21.6371 H   0  0  0  0  0  0  0  0  0  0  0  0
   62.2260   47.0193   21.8837 H   0  0  0  0  0  0  0  0  0  0  0  0
   64.2714   45.1895   21.1768 H   0  0  0  0  0  0  0  0  0  0  0  0
   65.9854   44.7067   18.0854 H   0  0  0  0  0  0  0  0  0  0  0  0
   67.4094   42.7013   17.5326 H   0  0  0  0  0  0  0  0  0  0  0  0
   65.8435   40.6181   21.0346 H   0  0  0  0  0  0  0  0  0  0  0  0
   64.4115   42.6225   21.5911 H   0  0  0  0  0  0  0  0  0  0  0  0
   55.3426   49.8907   15.2234 H   0  0  0  0  0  0  0  0  0  0  0  0
   54.3985   49.8856   13.6952 H   0  0  0  0  0  0  0  0  0  0  0  0
   56.1103   49.3410   13.6952 H   0  0  0  0  0  0  0  0  0  0  0  0
   57.3320   54.7805   11.6625 H   0  0  0  0  0  0  0  0  0  0  0  0
   58.0711   53.9519   10.2504 H   0  0  0  0  0  0  0  0  0  0  0  0
   56.3158   54.3332   10.2504 H   0  0  0  0  0  0  0  0  0  0  0  0
 23  1  1  0
  2  1  2  0
  1  6  1  0
  2  3  1  0
  7  3  2  0
  3  4  1  0
  4  5  1  0
  4 10  2  0
  6  5  2  0
  6 22  1  0
  7  8  1  0
  8  9  2  0
  9 10  1  0
 10 11  1  0
 11 12  1  0
 17 12  1  0
 12 13  2  0
 13 14  1  0
 15 14  2  0
 14 18  1  0
 16 15  1  0
 15 21  1  0
 17 16  2  0
 18 19  1  0
 20 19  1  0
 21 20  1  0
 24 21  1  0
 22 34  1  0
 35 23  1  0
 25 24  2  0
 24 26  1  0
 27 26  1  0
 28 27  2  0
 27 32  1  0
 29 28  1  0
 29 30  2  0
 33 30  1  0
 30 31  1  0
 31 32  2  0
  2 36  1  0
  5 37  1  0
  8 38  1  0
  9 39  1  0
 13 40  1  0
 16 41  1  0
 17 42  1  0
 19 43  1  0
 19 44  1  0
 20 45  1  0
 20 46  1  0
 26 47  1  0
 28 48  1  0
 29 49  1  0
 31 50  1  0
 32 51  1  0
 34 52  1  0
 34 53  1  0
 34 54  1  0
 35 55  1  0
 35 56  1  0
 35 57  1  0
A    1
C1
A    2
C2
A    3
C3
A    4
C4
A    5
C5
A    6
C6
A    7
N7
A    8
C8
A    9
C9
A   10
C10
A   11
O11
A   12
C12
A   13
C13
A   14
C14
A   15
C15
A   16
C16
A   17
C17
A   18
O25
A   19
C26
A   20
C27
A   21
N28
A   22
O33
A   23
O34
A   24
C35
A   25
O36
A   26
N37
A   27
C38
A   28
C39
A   29
C40
A   30
C41
A   31
C42
A   32
C43
A   33
CL48
A   34
C49
A   35
C53
M  END
