2ROY_P28_A_128
     RDKit          3D

 44 45  0  0  0  0  0  0  0  0999 V2000
   19.4260   42.0730    3.7890 C   0  0  0  0  0  0  0  0  0  0  0  0
   20.0760   41.0140    4.4000 C   0  0  0  0  0  0  0  0  0  0  0  0
   21.1180   41.3350    5.2490 C   0  0  0  0  0  0  0  0  0  0  0  0
   21.5510   42.6190    5.4710 C   0  0  0  0  0  0  0  0  0  0  0  0
   20.9150   43.6630    4.8170 C   0  0  0  0  0  0  0  0  0  0  0  0
   19.8740   43.3540    3.9480 C   0  0  0  0  0  0  0  0  0  0  0  0
   18.3090   42.0000    2.7340 C   0  0  0  0  0  0  0  0  0  0  0  0
   18.5400   41.6410    1.2780 C   0  0  0  0  0  0  0  0  0  0  0  0
   17.2430   41.8980    0.4070 C   0  0  0  0  0  0  0  0  0  0  0  0
   16.9440   43.0700    0.1340 O   0  0  0  0  0  0  0  0  0  0  0  0
   16.6460   40.8670    0.0480 O   0  0  0  0  0  0  0  0  0  0  0  0
   19.6160   42.3490    0.5240 N   0  0  0  0  0  0  0  0  0  0  0  0
   20.6960   41.5890    0.5850 C   0  0  0  0  0  0  0  0  0  0  0  0
   22.0490   42.1570    0.2250 C   0  0  0  0  0  0  0  0  0  0  0  0
   20.6100   40.2960    0.9130 O   0  0  0  0  0  0  0  0  0  0  0  0
   22.5980   42.9000    6.3080 O   0  0  0  0  0  0  0  0  0  0  0  0
   22.3350   43.0450    7.6560 C   0  0  0  0  0  0  0  0  0  0  0  0
   21.9020   42.0110    8.3750 C   0  0  0  0  0  0  0  0  0  0  0  0
   21.6410   42.2070    9.7390 C   0  0  0  0  0  0  0  0  0  0  0  0
   21.1960   41.2080   10.4350 N   0  0  0  0  0  0  0  0  0  0  0  0
   20.9490   41.3200   11.6050 O   0  0  0  0  0  0  0  0  0  0  0  0
   21.0520   40.1530    9.8990 O   0  0  0  0  0  0  0  0  0  0  0  0
   21.8360   43.4480   10.4070 C   0  0  0  0  0  0  0  0  0  0  0  0
   21.5910   43.5840   11.7050 O   0  0  0  0  0  0  0  0  0  0  0  0
   22.3000   44.4750    9.5810 C   0  0  0  0  0  0  0  0  0  0  0  0
   22.5150   45.6440   10.0690 N   0  0  0  0  0  0  0  0  0  0  0  0
   22.3480   45.9010   11.2160 O   0  0  0  0  0  0  0  0  0  0  0  0
   22.9120   46.5030    9.2920 O   0  0  0  0  0  0  0  0  0  0  0  0
   22.5740   44.3170    8.2070 C   0  0  0  0  0  0  0  0  0  0  0  0
   19.7782   39.9707    4.2189 H   0  0  0  0  0  0  0  0  0  0  0  0
   21.6291   40.5161    5.7765 H   0  0  0  0  0  0  0  0  0  0  0  0
   21.2248   44.7057    4.9807 H   0  0  0  0  0  0  0  0  0  0  0  0
   19.3986   44.1625    3.3733 H   0  0  0  0  0  0  0  0  0  0  0  0
   17.5887   41.2601    3.1130 H   0  0  0  0  0  0  0  0  0  0  0  0
   18.0337   43.0614    2.6468 H   0  0  0  0  0  0  0  0  0  0  0  0
   18.8416   40.5894    1.3932 H   0  0  0  0  0  0  0  0  0  0  0  0
   16.2845   40.2428    0.7261 H   0  0  0  0  0  0  0  0  0  0  0  0
   19.5329   43.2578    0.0465 H   0  0  0  0  0  0  0  0  0  0  0  0
   22.6052   42.3905    1.1449 H   0  0  0  0  0  0  0  0  0  0  0  0
   22.6111   41.4189   -0.3660 H   0  0  0  0  0  0  0  0  0  0  0  0
   21.9158   43.0751   -0.3660 H   0  0  0  0  0  0  0  0  0  0  0  0
   21.7525   41.0256    7.9096 H   0  0  0  0  0  0  0  0  0  0  0  0
   22.2324   43.2280   12.3698 H   0  0  0  0  0  0  0  0  0  0  0  0
   22.9560   45.1479    7.5957 H   0  0  0  0  0  0  0  0  0  0  0  0
  1  2  2  0
  1  6  1  0
  1  7  1  0
  2  3  1  0
  3  4  2  0
  4  5  1  0
  4 16  1  0
  5  6  2  0
  7  8  1  0
  8  9  1  0
  8 12  1  0
  9 10  2  0
  9 11  1  0
 12 13  1  0
 13 14  1  0
 13 15  2  0
 16 17  1  0
 17 18  2  0
 17 29  1  0
 18 19  1  0
 19 20  1  0
 19 23  2  0
 20 21  2  0
 20 22  1  0
 23 24  1  0
 23 25  1  0
 25 26  1  0
 25 29  2  0
 26 27  2  0
 26 28  1  0
  2 30  1  0
  3 31  1  0
  5 32  1  0
  6 33  1  0
  7 34  1  0
  7 35  1  0
  8 36  1  0
 11 37  1  0
 12 38  1  0
 14 39  1  0
 14 40  1  0
 14 41  1  0
 18 42  1  0
 24 43  1  0
 29 44  1  0
M  CHG  4  20   1  22  -1  26   1  28  -1
A    1
C1
A    2
C2
A    3
C3
A    4
C4
A    5
C5
A    6
C6
A    7
C7
A    8
C8
A    9
C9
A   10
O9
A   11
O10
A   12
N8
A   13
C81
A   14
C82
A   15
O81
A   16
O41
A   17
C1'
A   18
C2'
A   19
C3'
A   20
N3
A   21
O31
A   22
O32
A   23
C4'
A   24
O4'
A   25
C5'
A   26
N5
A   27
O51
A   28
O52
A   29
C6'
M  END
