2JKB_SKD_A_1698
     RDKit          3D

 37 38  0  0  0  0  0  0  0  0999 V2000
   -3.0960   -5.8910  -33.0570 C   0  0  0  0  0  0  0  0  0  0  0  0
   -3.6140   -6.2680  -34.4220 C   0  0  0  0  0  0  0  0  0  0  0  0
   -3.0300   -7.5670  -35.0130 C   0  0  0  0  0  0  0  0  0  0  0  0
   -4.0250   -8.2720  -35.9210 C   0  0  0  0  0  0  0  0  0  0  0  0
   -4.7350   -7.2220  -36.7680 C   0  0  0  0  0  0  0  0  0  0  0  0
   -5.3310   -6.1260  -35.8530 C   0  0  0  0  0  0  0  0  0  0  0  0
   -4.5050   -4.8480  -35.9760 C   0  0  0  0  0  0  0  0  0  0  0  0
   -5.1650   -3.5810  -35.3890 C   0  0  0  0  0  0  0  0  0  0  0  0
   -6.3560   -3.1410  -36.2350 C   0  0  0  0  0  0  0  0  0  0  0  0
   -5.8300   -7.3480  -38.9210 C   0  0  0  0  0  0  0  0  0  0  0  0
   -6.8080   -8.0730  -39.7790 C   0  0  0  0  0  0  0  0  0  0  0  0
   -5.6640   -7.8410  -37.7000 N   0  0  0  0  0  0  0  0  0  0  0  0
   -3.8330   -5.1470  -32.3510 O   0  0  0  0  0  0  0  0  0  0  0  0
   -1.9720   -6.2650  -32.7080 O   0  0  0  0  0  0  0  0  0  0  0  0
   -3.3450   -9.2210  -36.7460 O   0  0  0  0  0  0  0  0  0  0  0  0
   -5.0400   -6.3760  -34.4800 O   0  0  0  0  0  0  0  0  0  0  0  0
   -3.2760   -5.1850  -35.2860 O   0  0  0  0  0  0  0  0  0  0  0  0
   -5.6100   -3.7070  -34.0270 O   0  0  0  0  0  0  0  0  0  0  0  0
   -7.5080   -3.9460  -35.9870 O   0  0  0  0  0  0  0  0  0  0  0  0
   -5.2170   -6.3740  -39.3230 O   0  0  0  0  0  0  0  0  0  0  0  0
   -2.1299   -7.3201  -35.5951 H   0  0  0  0  0  0  0  0  0  0  0  0
   -2.7890   -8.2434  -34.1797 H   0  0  0  0  0  0  0  0  0  0  0  0
   -4.7682   -8.8186  -35.3220 H   0  0  0  0  0  0  0  0  0  0  0  0
   -4.0175   -6.7003  -37.4184 H   0  0  0  0  0  0  0  0  0  0  0  0
   -6.3954   -6.0821  -36.1271 H   0  0  0  0  0  0  0  0  0  0  0  0
   -4.3695   -4.5672  -37.0309 H   0  0  0  0  0  0  0  0  0  0  0  0
   -4.3615   -2.8298  -35.4040 H   0  0  0  0  0  0  0  0  0  0  0  0
   -6.5950   -2.0941  -35.9963 H   0  0  0  0  0  0  0  0  0  0  0  0
   -6.0826   -3.2522  -37.2947 H   0  0  0  0  0  0  0  0  0  0  0  0
   -7.5287   -8.6073  -39.1425 H   0  0  0  0  0  0  0  0  0  0  0  0
   -7.3437   -7.3521  -40.4141 H   0  0  0  0  0  0  0  0  0  0  0  0
   -6.2739   -8.7951  -40.4141 H   0  0  0  0  0  0  0  0  0  0  0  0
   -6.1993   -8.6715  -37.4092 H   0  0  0  0  0  0  0  0  0  0  0  0
   -1.7514   -6.3384  -31.7457 H   0  0  0  0  0  0  0  0  0  0  0  0
   -2.8743   -9.8779  -36.1742 H   0  0  0  0  0  0  0  0  0  0  0  0
   -4.8617   -3.4951  -33.4144 H   0  0  0  0  0  0  0  0  0  0  0  0
   -7.6414   -4.0392  -35.0105 H   0  0  0  0  0  0  0  0  0  0  0  0
  1  2  1  0
  1 13  2  0
  1 14  1  0
  2  3  1  0
  2 16  1  0
  2 17  1  0
  3  4  1  0
  4  5  1  0
  4 15  1  0
  5  6  1  0
  5 12  1  0
  6  7  1  0
  6 16  1  0
  7  8  1  0
  7 17  1  0
  8  9  1  0
  8 18  1  0
  9 19  1  0
 10 11  1  0
 10 12  1  0
 10 20  2  0
  3 21  1  0
  3 22  1  0
  4 23  1  0
  5 24  1  0
  6 25  1  0
  7 26  1  0
  8 27  1  0
  9 28  1  0
  9 29  1  0
 11 30  1  0
 11 31  1  0
 11 32  1  0
 12 33  1  0
 14 34  1  0
 15 35  1  0
 18 36  1  0
 19 37  1  0
A    1
C1
A    2
C2
A    3
C3
A    4
C4
A    5
C5
A    6
C6
A    7
C7
A    8
C8
A    9
C9
A   10
C10
A   11
C11
A   12
N5
A   13
O1A
A   14
O1B
A   15
O4
A   16
O6
A   17
O7
A   18
O8
A   19
O9
A   20
O10
M  END
