1KGQ_NPI_A_301
     RDKit          3D

 25 24  0  0  0  0  0  0  0  0999 V2000
   61.2550   87.6300    1.2800 C   0  0  0  0  0  0  0  0  0  0  0  0
   61.3200   88.7690    0.2620 C   0  0  0  0  0  0  0  0  0  0  0  0
   61.7620   88.3180   -1.1210 C   0  0  0  0  0  0  0  0  0  0  0  0
   62.0330   89.4570   -2.1190 C   0  0  0  0  0  0  0  0  0  0  0  0
   62.3110   88.9600   -3.5280 C   0  0  0  0  0  0  0  0  0  0  0  0
   62.5660   86.8210    1.3220 C   0  0  0  0  0  0  0  0  0  0  0  0
   63.5550   87.2330    2.0590 O   0  0  0  0  0  0  0  0  0  0  0  0
   62.7270   85.7930    0.6810 O   0  0  0  0  0  0  0  0  0  0  0  0
   60.9520   88.0980    2.6390 N   0  0  0  0  0  0  0  0  0  0  0  0
   62.4070   90.0200   -4.6050 C   0  0  0  0  0  0  0  0  0  0  0  0
   62.3310   89.7340   -5.7980 O   0  0  0  0  0  0  0  0  0  0  0  0
   62.5870   91.2800   -4.3340 O   0  0  0  0  0  0  0  0  0  0  0  0
   60.4326   86.9852    0.9368 H   0  0  0  0  0  0  0  0  0  0  0  0
   60.3201   89.2198    0.1788 H   0  0  0  0  0  0  0  0  0  0  0  0
   62.0706   89.4866    0.6249 H   0  0  0  0  0  0  0  0  0  0  0  0
   62.6874   87.7337   -1.0101 H   0  0  0  0  0  0  0  0  0  0  0  0
   60.9262   87.7362   -1.5370 H   0  0  0  0  0  0  0  0  0  0  0  0
   61.1520   90.1151   -2.1471 H   0  0  0  0  0  0  0  0  0  0  0  0
   62.9325   89.9884   -1.7747 H   0  0  0  0  0  0  0  0  0  0  0  0
   63.2657   88.4139   -3.5088 H   0  0  0  0  0  0  0  0  0  0  0  0
   61.4414   88.3434   -3.7991 H   0  0  0  0  0  0  0  0  0  0  0  0
   62.8618   84.9324    1.1513 H   0  0  0  0  0  0  0  0  0  0  0  0
   61.3695   87.4532    3.3252 H   0  0  0  0  0  0  0  0  0  0  0  0
   61.3430   89.0415    2.7724 H   0  0  0  0  0  0  0  0  0  0  0  0
   62.6302   91.5825   -3.3923 H   0  0  0  0  0  0  0  0  0  0  0  0
  1  2  1  0
  1  6  1  0
  1  9  1  0
  2  3  1  0
  3  4  1  0
  4  5  1  0
  5 10  1  0
  6  7  2  0
  6  8  1  0
 10 11  2  0
 10 12  1  0
  1 13  1  0
  2 14  1  0
  2 15  1  0
  3 16  1  0
  3 17  1  0
  4 18  1  0
  4 19  1  0
  5 20  1  0
  5 21  1  0
  8 22  1  0
  9 23  1  0
  9 24  1  0
 12 25  1  0
A    1
CA
A    2
CB
A    3
C4
A    4
C5
A    5
C6
A    6
C
A    7
O
A    8
OXT
A    9
N
A   10
C7
A   11
O71
A   12
O72
M  END
