1HNW_TAC_A_1632
     RDKit          3D

 56 59  0  0  0  0  0  0  0  0999 V2000
  205.3690  111.2970    2.7310 C   0  0  0  0  0  0  0  0  0  0  0  0
  204.2610  111.8310    2.9450 O   0  0  0  0  0  0  0  0  0  0  0  0
  206.1470  111.3440    1.4730 C   0  0  0  0  0  0  0  0  0  0  0  0
  205.7100  112.1070    0.2480 C   0  0  0  0  0  0  0  0  0  0  0  0
  204.5800  112.7440    0.1670 O   0  0  0  0  0  0  0  0  0  0  0  0
  206.6450  112.2330   -0.7960 N   0  0  0  0  0  0  0  0  0  0  0  0
  207.4000  110.6390    1.4340 C   0  0  0  0  0  0  0  0  0  0  0  0
  208.4540  111.0520    0.8490 O   0  0  0  0  0  0  0  0  0  0  0  0
  207.4000  109.2110    2.1600 C   0  0  0  0  0  0  0  0  0  0  0  0
  208.8380  108.7820    2.4810 N   0  0  0  0  0  0  0  0  0  0  0  0
  209.5910  109.6430    3.4960 C   0  0  0  0  0  0  0  0  0  0  0  0
  208.8930  107.3180    2.9520 C   0  0  0  0  0  0  0  0  0  0  0  0
  206.5290  109.0740    3.4870 C   0  0  0  0  0  0  0  0  0  0  0  0
  205.2700  108.2480    3.2380 C   0  0  0  0  0  0  0  0  0  0  0  0
  204.5600  107.9820    4.6230 C   0  0  0  0  0  0  0  0  0  0  0  0
  203.1870  107.2080    4.5160 C   0  0  0  0  0  0  0  0  0  0  0  0
  203.3510  105.9130    3.6740 C   0  0  0  0  0  0  0  0  0  0  0  0
  202.2390  108.1560    3.8660 O   0  0  0  0  0  0  0  0  0  0  0  0
  202.6330  106.9590    5.9370 C   0  0  0  0  0  0  0  0  0  0  0  0
  201.9890  105.7410    6.2840 C   0  0  0  0  0  0  0  0  0  0  0  0
  201.4910  105.5200    7.6160 C   0  0  0  0  0  0  0  0  0  0  0  0
  201.6520  106.5140    8.6010 C   0  0  0  0  0  0  0  0  0  0  0  0
  202.2890  107.7390    8.2780 C   0  0  0  0  0  0  0  0  0  0  0  0
  202.4220  108.6530    9.2660 O   0  0  0  0  0  0  0  0  0  0  0  0
  202.7930  107.9760    6.9440 C   0  0  0  0  0  0  0  0  0  0  0  0
  203.4740  109.2780    6.6160 C   0  0  0  0  0  0  0  0  0  0  0  0
  203.2680  110.3340    7.3560 O   0  0  0  0  0  0  0  0  0  0  0  0
  204.3890  109.2880    5.4570 C   0  0  0  0  0  0  0  0  0  0  0  0
  205.0690  110.4310    5.1360 C   0  0  0  0  0  0  0  0  0  0  0  0
  204.9490  111.6070    5.8330 O   0  0  0  0  0  0  0  0  0  0  0  0
  206.0710  110.4970    3.9390 C   0  0  0  0  0  0  0  0  0  0  0  0
  207.2440  111.3310    4.2780 O   0  0  0  0  0  0  0  0  0  0  0  0
  207.6431  112.3675   -0.5800 H   0  0  0  0  0  0  0  0  0  0  0  0
  206.3313  112.1907   -1.7762 H   0  0  0  0  0  0  0  0  0  0  0  0
  209.2299  111.3560    1.3834 H   0  0  0  0  0  0  0  0  0  0  0  0
  206.9124  108.5542    1.4245 H   0  0  0  0  0  0  0  0  0  0  0  0
  209.3184  109.3313    4.5151 H   0  0  0  0  0  0  0  0  0  0  0  0
  210.6742  109.5173    3.3515 H   0  0  0  0  0  0  0  0  0  0  0  0
  209.3221  110.6998    3.3515 H   0  0  0  0  0  0  0  0  0  0  0  0
  208.8942  107.2864    4.0515 H   0  0  0  0  0  0  0  0  0  0  0  0
  208.0146  106.7769    2.5706 H   0  0  0  0  0  0  0  0  0  0  0  0
  209.8096  106.8443    2.5706 H   0  0  0  0  0  0  0  0  0  0  0  0
  207.1473  108.5807    4.2515 H   0  0  0  0  0  0  0  0  0  0  0  0
  204.5899  108.8004    2.5730 H   0  0  0  0  0  0  0  0  0  0  0  0
  205.5355  107.2925    2.7621 H   0  0  0  0  0  0  0  0  0  0  0  0
  205.2486  107.3102    5.1564 H   0  0  0  0  0  0  0  0  0  0  0  0
  203.4603  105.0496    4.3468 H   0  0  0  0  0  0  0  0  0  0  0  0
  202.4634  105.7733    3.0395 H   0  0  0  0  0  0  0  0  0  0  0  0
  204.2454  105.9990    3.0395 H   0  0  0  0  0  0  0  0  0  0  0  0
  201.7411  108.6539    4.5619 H   0  0  0  0  0  0  0  0  0  0  0  0
  201.8693  104.9554    5.5234 H   0  0  0  0  0  0  0  0  0  0  0  0
  200.9850  104.5755    7.8648 H   0  0  0  0  0  0  0  0  0  0  0  0
  201.2830  106.3397    9.6225 H   0  0  0  0  0  0  0  0  0  0  0  0
  202.3805  108.3677   10.2131 H   0  0  0  0  0  0  0  0  0  0  0  0
  204.9499  111.5980    6.8230 H   0  0  0  0  0  0  0  0  0  0  0  0
  207.3314  111.3931    5.2622 H   0  0  0  0  0  0  0  0  0  0  0  0
  1  2  2  0
  1  3  1  0
  1 31  1  0
  3  4  1  0
  3  7  2  0
  4  5  2  0
  4  6  1  0
  7  8  1  0
  7  9  1  0
  9 10  1  0
  9 13  1  0
 10 11  1  0
 10 12  1  0
 13 14  1  0
 13 31  1  0
 14 15  1  0
 15 16  1  0
 15 28  1  0
 16 17  1  0
 16 18  1  0
 16 19  1  0
 19 20  2  0
 19 25  1  0
 20 21  1  0
 21 22  2  0
 22 23  1  0
 23 24  1  0
 23 25  2  0
 25 26  1  0
 26 27  2  0
 26 28  1  0
 28 29  2  0
 29 30  1  0
 29 31  1  0
 31 32  1  0
  6 33  1  0
  6 34  1  0
  8 35  1  0
  9 36  1  0
 11 37  1  0
 11 38  1  0
 11 39  1  0
 12 40  1  0
 12 41  1  0
 12 42  1  0
 13 43  1  0
 14 44  1  0
 14 45  1  0
 15 46  1  0
 17 47  1  0
 17 48  1  0
 17 49  1  0
 18 50  1  0
 20 51  1  0
 21 52  1  0
 22 53  1  0
 24 54  1  0
 30 55  1  0
 32 56  1  0
A    1
C1
A    2
O1
A    3
C2
A    4
C21
A    5
O21
A    6
N21
A    7
C3
A    8
O3
A    9
C4
A   10
N4
A   11
C42
A   12
C43
A   13
C41
A   14
C5
A   15
C51
A   16
C6
A   17
C62
A   18
O6
A   19
C61
A   20
C7
A   21
C8
A   22
C9
A   23
C10
A   24
O10
A   25
C1A
A   26
C11
A   27
O11
A   28
C1B
A   29
C12
A   30
O12
A   31
C1C
A   32
O1C
M  END
