1EXA_LMU_A_451
     RDKit          3D

 81 82  0  0  0  0  0  0  0  0999 V2000
   39.2890   28.8120   96.7110 C   0  0  0  0  0  0  0  0  0  0  0  0
   38.3280   27.9270   97.5270 C   0  0  0  0  0  0  0  0  0  0  0  0
   37.9730   26.6880   96.6820 C   0  0  0  0  0  0  0  0  0  0  0  0
   37.2950   27.1730   95.3880 C   0  0  0  0  0  0  0  0  0  0  0  0
   38.2650   28.1150   94.6020 C   0  0  0  0  0  0  0  0  0  0  0  0
   37.6830   28.8480   93.3980 C   0  0  0  0  0  0  0  0  0  0  0  0
   40.5530   28.2350   96.4980 O   0  0  0  0  0  0  0  0  0  0  0  0
   38.8330   27.5800   98.8000 O   0  0  0  0  0  0  0  0  0  0  0  0
   37.0960   25.8550   97.4270 O   0  0  0  0  0  0  0  0  0  0  0  0
   36.9500   25.9870   94.7240 O   0  0  0  0  0  0  0  0  0  0  0  0
   38.7310   29.1480   95.4460 O   0  0  0  0  0  0  0  0  0  0  0  0
   38.6350   28.6890   92.3720 O   0  0  0  0  0  0  0  0  0  0  0  0
   44.3950   28.9260   97.7470 C   0  0  0  0  0  0  0  0  0  0  0  0
   43.3550   29.2270   98.8230 C   0  0  0  0  0  0  0  0  0  0  0  0
   42.0110   28.7110   98.3410 C   0  0  0  0  0  0  0  0  0  0  0  0
   41.6150   29.0800   96.8880 C   0  0  0  0  0  0  0  0  0  0  0  0
   42.8200   28.9020   95.9170 C   0  0  0  0  0  0  0  0  0  0  0  0
   42.5720   29.4210   94.5040 C   0  0  0  0  0  0  0  0  0  0  0  0
   44.6210   27.5240   97.7200 O   0  0  0  0  0  0  0  0  0  0  0  0
   43.6650   28.5240  100.0090 O   0  0  0  0  0  0  0  0  0  0  0  0
   41.0230   29.0040   99.3040 O   0  0  0  0  0  0  0  0  0  0  0  0
   44.0020   29.4600   96.4850 O   0  0  0  0  0  0  0  0  0  0  0  0
   42.8280   30.8240   94.4660 O   0  0  0  0  0  0  0  0  0  0  0  0
   45.5760   27.1810   96.7260 C   0  0  0  0  0  0  0  0  0  0  0  0
   45.4830   25.7070   96.3720 C   0  0  0  0  0  0  0  0  0  0  0  0
   46.5710   24.8000   96.9470 C   0  0  0  0  0  0  0  0  0  0  0  0
   46.8510   23.8270   95.8320 C   0  0  0  0  0  0  0  0  0  0  0  0
   48.2170   23.2230   95.9230 C   0  0  0  0  0  0  0  0  0  0  0  0
   48.3610   22.3460   94.6790 C   0  0  0  0  0  0  0  0  0  0  0  0
   49.6520   21.5930   94.6080 C   0  0  0  0  0  0  0  0  0  0  0  0
   49.5750   20.2180   95.2500 C   0  0  0  0  0  0  0  0  0  0  0  0
   49.7080   19.1470   94.1830 C   0  0  0  0  0  0  0  0  0  0  0  0
   48.3690   19.0060   93.4860 C   0  0  0  0  0  0  0  0  0  0  0  0
   48.5180   18.1590   92.2550 C   0  0  0  0  0  0  0  0  0  0  0  0
   48.3280   16.7290   92.6220 C   0  0  0  0  0  0  0  0  0  0  0  0
   39.4297   29.7133   97.3258 H   0  0  0  0  0  0  0  0  0  0  0  0
   37.4163   28.5037   97.7419 H   0  0  0  0  0  0  0  0  0  0  0  0
   38.8733   26.1085   96.4295 H   0  0  0  0  0  0  0  0  0  0  0  0
   36.3961   27.7892   95.5374 H   0  0  0  0  0  0  0  0  0  0  0  0
   39.0360   27.4159   94.2459 H   0  0  0  0  0  0  0  0  0  0  0  0
   36.7210   28.4030   93.1037 H   0  0  0  0  0  0  0  0  0  0  0  0
   37.4886   29.9083   93.6172 H   0  0  0  0  0  0  0  0  0  0  0  0
   38.2578   27.9752   99.5022 H   0  0  0  0  0  0  0  0  0  0  0  0
   37.2472   25.9986   98.3948 H   0  0  0  0  0  0  0  0  0  0  0  0
   36.7454   25.2835   95.3899 H   0  0  0  0  0  0  0  0  0  0  0  0
   39.5286   28.5398   92.7712 H   0  0  0  0  0  0  0  0  0  0  0  0
   45.3476   29.4218   97.9850 H   0  0  0  0  0  0  0  0  0  0  0  0
   43.3388   30.3100   99.0147 H   0  0  0  0  0  0  0  0  0  0  0  0
   42.1092   27.6189   98.2532 H   0  0  0  0  0  0  0  0  0  0  0  0
   41.3076   30.1354   96.8463 H   0  0  0  0  0  0  0  0  0  0  0  0
   42.9568   27.8175   95.7943 H   0  0  0  0  0  0  0  0  0  0  0  0
   43.2424   28.9059   93.8003 H   0  0  0  0  0  0  0  0  0  0  0  0
   41.5272   29.2289   94.2187 H   0  0  0  0  0  0  0  0  0  0  0  0
   43.4213   29.0766  100.7934 H   0  0  0  0  0  0  0  0  0  0  0  0
   41.4028   28.8914  100.2113 H   0  0  0  0  0  0  0  0  0  0  0  0
   42.8917   31.1730   95.3903 H   0  0  0  0  0  0  0  0  0  0  0  0
   45.3879   27.7809   95.8234 H   0  0  0  0  0  0  0  0  0  0  0  0
   46.5826   27.3854   97.1198 H   0  0  0  0  0  0  0  0  0  0  0  0
   44.5126   25.3365   96.7339 H   0  0  0  0  0  0  0  0  0  0  0  0
   45.6101   25.6600   95.2804 H   0  0  0  0  0  0  0  0  0  0  0  0
   47.4721   25.3789   97.1979 H   0  0  0  0  0  0  0  0  0  0  0  0
   46.2632   24.3032   97.8789 H   0  0  0  0  0  0  0  0  0  0  0  0
   46.1054   23.0193   95.8741 H   0  0  0  0  0  0  0  0  0  0  0  0
   46.7955   24.3824   94.8842 H   0  0  0  0  0  0  0  0  0  0  0  0
   48.9855   24.0100   95.9293 H   0  0  0  0  0  0  0  0  0  0  0  0
   48.3449   22.6420   96.8483 H   0  0  0  0  0  0  0  0  0  0  0  0
   47.5360   21.6185   94.6720 H   0  0  0  0  0  0  0  0  0  0  0  0
   48.3397   23.0212   93.8109 H   0  0  0  0  0  0  0  0  0  0  0  0
   49.9285   21.4708   93.5504 H   0  0  0  0  0  0  0  0  0  0  0  0
   50.4021   22.1739   95.1648 H   0  0  0  0  0  0  0  0  0  0  0  0
   50.3901   20.1094   95.9806 H   0  0  0  0  0  0  0  0  0  0  0  0
   48.6059   20.1072   95.7585 H   0  0  0  0  0  0  0  0  0  0  0  0
   50.4782   19.4404   93.4545 H   0  0  0  0  0  0  0  0  0  0  0  0
   50.0024   18.1902   94.6388 H   0  0  0  0  0  0  0  0  0  0  0  0
   47.6503   18.5312   94.1702 H   0  0  0  0  0  0  0  0  0  0  0  0
   48.0055   20.0031   93.1967 H   0  0  0  0  0  0  0  0  0  0  0  0
   47.7615   18.4523   91.5122 H   0  0  0  0  0  0  0  0  0  0  0  0
   49.5209   18.3015   91.8262 H   0  0  0  0  0  0  0  0  0  0  0  0
   48.3149   16.6302   93.7175 H   0  0  0  0  0  0  0  0  0  0  0  0
   47.3740   16.3683   92.2099 H   0  0  0  0  0  0  0  0  0  0  0  0
   49.1547   16.1317   92.2099 H   0  0  0  0  0  0  0  0  0  0  0  0
  1  2  1  0
  1  7  1  0
  1 11  1  0
  2  3  1  0
  2  8  1  0
  3  4  1  0
  3  9  1  0
  4  5  1  0
  4 10  1  0
  5  6  1  0
  5 11  1  0
  6 12  1  0
  7 16  1  0
 13 14  1  0
 13 19  1  0
 13 22  1  0
 14 15  1  0
 14 20  1  0
 15 16  1  0
 15 21  1  0
 16 17  1  0
 17 18  1  0
 17 22  1  0
 18 23  1  0
 19 24  1  0
 24 25  1  0
 25 26  1  0
 26 27  1  0
 27 28  1  0
 28 29  1  0
 29 30  1  0
 30 31  1  0
 31 32  1  0
 32 33  1  0
 33 34  1  0
 34 35  1  0
  1 36  1  0
  2 37  1  0
  3 38  1  0
  4 39  1  0
  5 40  1  0
  6 41  1  0
  6 42  1  0
  8 43  1  0
  9 44  1  0
 10 45  1  0
 12 46  1  0
 13 47  1  0
 14 48  1  0
 15 49  1  0
 16 50  1  0
 17 51  1  0
 18 52  1  0
 18 53  1  0
 20 54  1  0
 21 55  1  0
 23 56  1  0
 24 57  1  0
 24 58  1  0
 25 59  1  0
 25 60  1  0
 26 61  1  0
 26 62  1  0
 27 63  1  0
 27 64  1  0
 28 65  1  0
 28 66  1  0
 29 67  1  0
 29 68  1  0
 30 69  1  0
 30 70  1  0
 31 71  1  0
 31 72  1  0
 32 73  1  0
 32 74  1  0
 33 75  1  0
 33 76  1  0
 34 77  1  0
 34 78  1  0
 35 79  1  0
 35 80  1  0
 35 81  1  0
A    1
C1B
A    2
C2B
A    3
C3B
A    4
C4B
A    5
C5B
A    6
C6B
A    7
O1B
A    8
O2B
A    9
O3B
A   10
O4'
A   11
O5B
A   12
O6B
A   13
C1'
A   14
C2'
A   15
C3'
A   16
C4'
A   17
C5'
A   18
C6'
A   19
O1'
A   20
O2'
A   21
O3'
A   22
O5'
A   23
O6'
A   24
C1
A   25
C2
A   26
C3
A   27
C4
A   28
C5
A   29
C6
A   30
C7
A   31
C8
A   32
C9
A   33
C10
A   34
C11
A   35
C12
M  END
