1AFC_SCR_A_141
     RDKit          3D

 77 78  0  0  0  0  0  0  0  0999 V2000
   26.8410   18.5340    7.4730 C   0  0  0  0  0  0  0  0  0  0  0  0
   26.5350   19.7570    8.3030 C   0  0  0  0  0  0  0  0  0  0  0  0
   25.0830   19.5590    8.6670 C   0  0  0  0  0  0  0  0  0  0  0  0
   24.2440   19.5260    7.3740 C   0  0  0  0  0  0  0  0  0  0  0  0
   24.8360   18.5820    6.3000 C   0  0  0  0  0  0  0  0  0  0  0  0
   24.3480   18.6040    4.8520 C   0  0  0  0  0  0  0  0  0  0  0  0
   27.6730   15.5120    8.9140 C   0  0  0  0  0  0  0  0  0  0  0  0
   26.7050   16.0200    7.8110 C   0  0  0  0  0  0  0  0  0  0  0  0
   25.5600   15.0450    7.6860 C   0  0  0  0  0  0  0  0  0  0  0  0
   25.4250   14.6950    6.2380 C   0  0  0  0  0  0  0  0  0  0  0  0
   26.5160   15.3940    5.4870 C   0  0  0  0  0  0  0  0  0  0  0  0
   25.9100   16.5420    4.6510 C   0  0  0  0  0  0  0  0  0  0  0  0
   26.2600   17.3660    8.0960 O   0  0  0  0  0  0  0  0  0  0  0  0
   27.4440   19.8190    9.4570 O   0  0  0  0  0  0  0  0  0  0  0  0
   28.1750   20.7950   11.5050 O   0  0  0  0  0  0  0  0  0  0  0  0
   26.8070   22.0990   10.0240 O   0  0  0  0  0  0  0  0  0  0  0  0
   29.0410   21.6520    9.4680 O   0  0  0  0  0  0  0  0  0  0  0  0
   24.6250   20.6000    9.5690 O   0  0  0  0  0  0  0  0  0  0  0  0
   25.3690   19.4680   11.6250 O   0  0  0  0  0  0  0  0  0  0  0  0
   24.5550   21.7080   11.6760 O   0  0  0  0  0  0  0  0  0  0  0  0
   23.1040   19.8490   11.2850 O   0  0  0  0  0  0  0  0  0  0  0  0
   23.0310   18.9210    7.8450 O   0  0  0  0  0  0  0  0  0  0  0  0
   20.8230   19.5010    7.5510 O   0  0  0  0  0  0  0  0  0  0  0  0
   22.4020   21.1060    8.0510 O   0  0  0  0  0  0  0  0  0  0  0  0
   21.6600   19.5710    9.7170 O   0  0  0  0  0  0  0  0  0  0  0  0
   26.2310   18.7630    6.2150 O   0  0  0  0  0  0  0  0  0  0  0  0
   23.1480   19.3510    4.6380 O   0  0  0  0  0  0  0  0  0  0  0  0
   21.6160   17.4980    4.6550 O   0  0  0  0  0  0  0  0  0  0  0  0
   22.1390   18.5010    2.6240 O   0  0  0  0  0  0  0  0  0  0  0  0
   20.8810   19.7000    4.1680 O   0  0  0  0  0  0  0  0  0  0  0  0
   27.3660   15.9590    6.5170 O   0  0  0  0  0  0  0  0  0  0  0  0
   24.9460   16.1140    3.6390 O   0  0  0  0  0  0  0  0  0  0  0  0
   23.2050   15.9970    5.2980 O   0  0  0  0  0  0  0  0  0  0  0  0
   23.5000   14.2530    3.6840 O   0  0  0  0  0  0  0  0  0  0  0  0
   22.6470   16.3090    3.0670 O   0  0  0  0  0  0  0  0  0  0  0  0
   25.3440   13.2830    6.0850 O   0  0  0  0  0  0  0  0  0  0  0  0
   23.9010   11.4030    6.1630 O   0  0  0  0  0  0  0  0  0  0  0  0
   23.0090   13.6050    5.9310 O   0  0  0  0  0  0  0  0  0  0  0  0
   23.9160   12.9680    7.9740 O   0  0  0  0  0  0  0  0  0  0  0  0
   27.0210   15.3570   10.2210 O   0  0  0  0  0  0  0  0  0  0  0  0
   28.4750   16.5380   11.6560 O   0  0  0  0  0  0  0  0  0  0  0  0
   26.1710   16.2560   12.3040 O   0  0  0  0  0  0  0  0  0  0  0  0
   26.7360   17.6750   10.5460 O   0  0  0  0  0  0  0  0  0  0  0  0
   24.3510   15.7310    7.8370 O   0  0  0  0  0  0  0  0  0  0  0  0
   22.6350   16.5810    9.1320 O   0  0  0  0  0  0  0  0  0  0  0  0
   24.8280   16.6720    9.8940 O   0  0  0  0  0  0  0  0  0  0  0  0
   23.6990   14.5540    9.6900 O   0  0  0  0  0  0  0  0  0  0  0  0
   27.8660   21.0890   10.1050 S   0  0  0  0  0  0  0  0  0  0  0  0
   24.4230   20.4010   11.0270 S   0  0  0  0  0  0  0  0  0  0  0  0
   21.9880   19.7790    8.3220 S   0  0  0  0  0  0  0  0  0  0  0  0
   21.9570   18.7470    4.0230 S   0  0  0  0  0  0  0  0  0  0  0  0
   27.1040   16.4430   11.1990 S   0  0  0  0  0  0  0  0  0  0  0  0
   23.8900   15.8750    9.1400 S   0  0  0  0  0  0  0  0  0  0  0  0
   24.0530   12.8040    6.5330 S   0  0  0  0  0  0  0  0  0  0  0  0
   23.5850   15.6770    3.9460 S   0  0  0  0  0  0  0  0  0  0  0  0
   27.9232   18.3626    7.3759 H   0  0  0  0  0  0  0  0  0  0  0  0
   26.6856   20.7200    7.7932 H   0  0  0  0  0  0  0  0  0  0  0  0
   24.9651   18.6025    9.1972 H   0  0  0  0  0  0  0  0  0  0  0  0
   24.1639   20.5196    6.9088 H   0  0  0  0  0  0  0  0  0  0  0  0
   24.4697   17.6247    6.6992 H   0  0  0  0  0  0  0  0  0  0  0  0
   25.1412   19.0439    4.2296 H   0  0  0  0  0  0  0  0  0  0  0  0
   24.1173   17.5619    4.5857 H   0  0  0  0  0  0  0  0  0  0  0  0
   28.0758   14.5361    8.6050 H   0  0  0  0  0  0  0  0  0  0  0  0
   28.4664   16.2652    9.0287 H   0  0  0  0  0  0  0  0  0  0  0  0
   25.7387   14.2225    8.3942 H   0  0  0  0  0  0  0  0  0  0  0  0
   24.4848   15.0552    5.7949 H   0  0  0  0  0  0  0  0  0  0  0  0
   27.0577   14.7190    4.8080 H   0  0  0  0  0  0  0  0  0  0  0  0
   25.4019   17.2353    5.3375 H   0  0  0  0  0  0  0  0  0  0  0  0
   26.7459   17.0077    4.1084 H   0  0  0  0  0  0  0  0  0  0  0  0
   29.6781   21.9573   10.1616 H   0  0  0  0  0  0  0  0  0  0  0  0
   22.9573   19.7876   12.2621 H   0  0  0  0  0  0  0  0  0  0  0  0
   22.3446   20.0051   10.2853 H   0  0  0  0  0  0  0  0  0  0  0  0
   20.7053   19.8556    5.1298 H   0  0  0  0  0  0  0  0  0  0  0  0
   21.9559   16.7746    3.6015 H   0  0  0  0  0  0  0  0  0  0  0  0
   24.4769   12.2966    8.4373 H   0  0  0  0  0  0  0  0  0  0  0  0
   26.5308   18.3619   11.2288 H   0  0  0  0  0  0  0  0  0  0  0  0
   23.7062   14.6040   10.6787 H   0  0  0  0  0  0  0  0  0  0  0  0
  1  2  1  0
  1 13  1  0
  1 26  1  0
  2  3  1  0
  2 14  1  0
  3  4  1  0
  3 18  1  0
  4  5  1  0
  4 22  1  0
  5  6  1  0
  5 26  1  0
  6 27  1  0
  7  8  1  0
  7 40  1  0
  8  9  1  0
  8 13  1  0
  8 31  1  0
  9 10  1  0
  9 44  1  0
 10 11  1  0
 10 36  1  0
 11 12  1  0
 11 31  1  0
 12 32  1  0
 14 48  1  0
 15 48  2  0
 16 48  2  0
 17 48  1  0
 18 49  1  0
 19 49  2  0
 20 49  2  0
 21 49  1  0
 22 50  1  0
 23 50  2  0
 24 50  2  0
 25 50  1  0
 27 51  1  0
 28 51  2  0
 29 51  2  0
 30 51  1  0
 32 55  1  0
 33 55  2  0
 34 55  2  0
 35 55  1  0
 36 54  1  0
 37 54  2  0
 38 54  2  0
 39 54  1  0
 40 52  1  0
 41 52  2  0
 42 52  2  0
 43 52  1  0
 44 53  1  0
 45 53  2  0
 46 53  2  0
 47 53  1  0
  1 56  1  0
  2 57  1  0
  3 58  1  0
  4 59  1  0
  5 60  1  0
  6 61  1  0
  6 62  1  0
  7 63  1  0
  7 64  1  0
  9 65  1  0
 10 66  1  0
 11 67  1  0
 12 68  1  0
 12 69  1  0
 17 70  1  0
 21 71  1  0
 25 72  1  0
 30 73  1  0
 35 74  1  0
 39 75  1  0
 43 76  1  0
 47 77  1  0
A    1
C1
A    2
C2
A    3
C3
A    4
C4
A    5
C5
A    6
C6
A    7
C11
A    8
C12
A    9
C13
A   10
C14
A   11
C15
A   12
C16
A   13
O1
A   14
O2
A   15
O22
A   16
O23
A   17
O24
A   18
O3
A   19
O32
A   20
O33
A   21
O34
A   22
O4
A   23
O42
A   24
O43
A   25
O44
A   26
O5
A   27
O6
A   28
O62
A   29
O63
A   30
O64
A   31
O10
A   32
O51
A   33
O52
A   34
O53
A   35
O54
A   36
O71
A   37
O72
A   38
O73
A   39
O74
A   40
O81
A   41
O82
A   42
O83
A   43
O84
A   44
O91
A   45
O92
A   46
O93
A   47
O94
A   48
S2
A   49
S3
A   50
S4
A   51
S6
A   52
S11
A   53
S12
A   54
S13
A   55
S14
M  END
