2UW0_GVK_A_1351
     RDKit          3D

 48 52  0  0  0  0  0  0  0  0999 V2000
   13.5680   13.7150   -0.4550 Cl  0  0  0  0  0  0  0  0  0  0  0  0
   12.9930   12.4950    0.6220 C   0  0  0  0  0  0  0  0  0  0  0  0
   12.5300   12.8440    1.8770 C   0  0  0  0  0  0  0  0  0  0  0  0
   12.0640   11.8740    2.7340 C   0  0  0  0  0  0  0  0  0  0  0  0
   12.0410   10.5420    2.3410 C   0  0  0  0  0  0  0  0  0  0  0  0
   12.5180   10.2000    1.0790 C   0  0  0  0  0  0  0  0  0  0  0  0
   12.9900   11.1710    0.2270 C   0  0  0  0  0  0  0  0  0  0  0  0
   11.5430    9.4670    3.3110 C   0  0  0  0  0  0  0  0  0  0  0  0
   11.9940    8.0940    2.7760 C   0  0  0  0  0  0  0  0  0  0  0  0
   11.8190    6.9810    3.7840 C   0  0  0  0  0  0  0  0  0  0  0  0
   12.6260    7.2940    4.9950 N   0  0  0  0  0  0  0  0  0  0  0  0
   12.1440    8.5600    5.6160 C   0  0  0  0  0  0  0  0  0  0  0  0
   12.2900    9.7050    4.6340 C   0  0  0  0  0  0  0  0  0  0  0  0
   10.0020    9.5250    3.4300 C   0  0  0  0  0  0  0  0  0  0  0  0
    9.3610   10.0190    4.5650 C   0  0  0  0  0  0  0  0  0  0  0  0
    7.9810   10.0460    4.6440 C   0  0  0  0  0  0  0  0  0  0  0  0
    7.2000    9.5910    3.5850 C   0  0  0  0  0  0  0  0  0  0  0  0
    7.8400    9.0810    2.4620 C   0  0  0  0  0  0  0  0  0  0  0  0
    9.2180    9.0590    2.3810 C   0  0  0  0  0  0  0  0  0  0  0  0
    5.7120    9.5840    3.6790 C   0  0  0  0  0  0  0  0  0  0  0  0
    5.1860    9.5540    4.9170 N   0  0  0  0  0  0  0  0  0  0  0  0
    3.8540    9.5290    5.0330 C   0  0  0  0  0  0  0  0  0  0  0  0
    2.9320    9.4850    4.0690 N   0  0  0  0  0  0  0  0  0  0  0  0
    3.4880    9.4840    2.8510 C   0  0  0  0  0  0  0  0  0  0  0  0
    2.8640    9.4480    1.6410 N   0  0  0  0  0  0  0  0  0  0  0  0
    3.8150    9.4770    0.6790 C   0  0  0  0  0  0  0  0  0  0  0  0
    5.0510    9.5250    1.1890 N   0  0  0  0  0  0  0  0  0  0  0  0
    4.8460    9.5270    2.5790 C   0  0  0  0  0  0  0  0  0  0  0  0
   12.5342   13.8983    2.1906 H   0  0  0  0  0  0  0  0  0  0  0  0
   11.7076   12.1548    3.7361 H   0  0  0  0  0  0  0  0  0  0  0  0
   12.5175    9.1469    0.7612 H   0  0  0  0  0  0  0  0  0  0  0  0
   13.3652   10.8935   -0.7691 H   0  0  0  0  0  0  0  0  0  0  0  0
   11.4000    7.8538    1.8819 H   0  0  0  0  0  0  0  0  0  0  0  0
   13.0678    8.1660    2.5483 H   0  0  0  0  0  0  0  0  0  0  0  0
   10.7575    6.8964    4.0597 H   0  0  0  0  0  0  0  0  0  0  0  0
   12.1554    6.0285    3.3487 H   0  0  0  0  0  0  0  0  0  0  0  0
   12.5346    6.5248    5.6739 H   0  0  0  0  0  0  0  0  0  0  0  0
   11.0852    8.4501    5.8932 H   0  0  0  0  0  0  0  0  0  0  0  0
   12.7432    8.7741    6.5133 H   0  0  0  0  0  0  0  0  0  0  0  0
   13.3588    9.8415    4.4124 H   0  0  0  0  0  0  0  0  0  0  0  0
   11.8483   10.5965    5.1031 H   0  0  0  0  0  0  0  0  0  0  0  0
    9.9607   10.3920    5.4084 H   0  0  0  0  0  0  0  0  0  0  0  0
    7.4951   10.4309    5.5527 H   0  0  0  0  0  0  0  0  0  0  0  0
    7.2408    8.6897    1.6266 H   0  0  0  0  0  0  0  0  0  0  0  0
    9.7021    8.6674    1.4742 H   0  0  0  0  0  0  0  0  0  0  0  0
    3.4657    9.5472    6.0620 H   0  0  0  0  0  0  0  0  0  0  0  0
    1.8467    9.4061    1.4855 H   0  0  0  0  0  0  0  0  0  0  0  0
    3.5969    9.4627   -0.3991 H   0  0  0  0  0  0  0  0  0  0  0  0
  1  2  1  0
  2  3  2  0
  3  4  1  0
  4  5  2  0
  5  6  1  0
  2  7  1  0
  6  7  2  0
  5  8  1  0
  8  9  1  0
  9 10  1  0
 10 11  1  0
 11 12  1  0
  8 13  1  0
 12 13  1  0
  8 14  1  0
 14 15  2  0
 15 16  1  0
 16 17  2  0
 17 18  1  0
 14 19  1  0
 18 19  2  0
 17 20  1  0
 20 21  2  0
 21 22  1  0
 22 23  2  0
 23 24  1  0
 24 25  1  0
 25 26  1  0
 26 27  2  0
 20 28  1  0
 24 28  2  0
 27 28  1  0
  3 29  1  0
  4 30  1  0
  6 31  1  0
  7 32  1  0
  9 33  1  0
  9 34  1  0
 10 35  1  0
 10 36  1  0
 11 37  1  0
 12 38  1  0
 12 39  1  0
 13 40  1  0
 13 41  1  0
 15 42  1  0
 16 43  1  0
 18 44  1  0
 19 45  1  0
 22 46  1  0
 25 47  1  0
 26 48  1  0
A    1
CL1
A    2
C2
A    3
C3
A    4
C4
A    5
C5
A    6
C6
A    7
C7
A    8
C8
A    9
C9
A   10
C10
A   11
N11
A   12
C14
A   13
C15
A   14
C16
A   15
C17
A   16
C18
A   17
C19
A   18
C20
A   19
C21
A   20
C22
A   21
N23
A   22
C24
A   23
N25
A   24
C26
A   25
N27
A   26
C29
A   27
N30
A   28
C31
M  END
