2UW8_GVQ_A_1351
     RDKit          3D

 30 31  0  0  0  0  0  0  0  0999 V2000
   10.9790   10.4960    1.8390 C   0  0  0  0  0  0  0  0  0  0  0  0
   11.8140   11.4510    1.2840 C   0  0  0  0  0  0  0  0  0  0  0  0
   12.7810   12.0510    2.0750 C   0  0  0  0  0  0  0  0  0  0  0  0
   12.9300   11.7090    3.4050 C   0  0  0  0  0  0  0  0  0  0  0  0
    6.6960   10.4470    3.2780 C   0  0  0  0  0  0  0  0  0  0  0  0
    6.4160   10.9900    4.5290 C   0  0  0  0  0  0  0  0  0  0  0  0
    7.3680   10.9210    5.5320 C   0  0  0  0  0  0  0  0  0  0  0  0
    8.5970   10.3160    5.2930 C   0  0  0  0  0  0  0  0  0  0  0  0
   10.2300    9.1220    3.8160 C   0  0  0  0  0  0  0  0  0  0  0  0
    7.9240    9.8390    3.0370 C   0  0  0  0  0  0  0  0  0  0  0  0
    8.8780    9.7700    4.0470 C   0  0  0  0  0  0  0  0  0  0  0  0
   11.1270   10.1490    3.1740 C   0  0  0  0  0  0  0  0  0  0  0  0
   12.0960   10.7570    3.9550 C   0  0  0  0  0  0  0  0  0  0  0  0
   10.1490    7.8480    2.9600 C   0  0  0  0  0  0  0  0  0  0  0  0
   11.5040    7.2980    2.7980 N   0  0  0  0  0  0  0  0  0  0  0  0
   13.8270   13.2460    1.3960 Cl  0  0  0  0  0  0  0  0  0  0  0  0
   10.2030   10.0154    1.2251 H   0  0  0  0  0  0  0  0  0  0  0  0
   11.7108   11.7308    0.2252 H   0  0  0  0  0  0  0  0  0  0  0  0
   13.7052   12.1904    4.0192 H   0  0  0  0  0  0  0  0  0  0  0  0
    5.9436   10.4989    2.4772 H   0  0  0  0  0  0  0  0  0  0  0  0
    5.4450   11.4706    4.7193 H   0  0  0  0  0  0  0  0  0  0  0  0
    7.1511   11.3469    6.5227 H   0  0  0  0  0  0  0  0  0  0  0  0
    9.3497   10.2696    6.0938 H   0  0  0  0  0  0  0  0  0  0  0  0
   10.6367    8.7958    4.7846 H   0  0  0  0  0  0  0  0  0  0  0  0
    8.1408    9.4123    2.0466 H   0  0  0  0  0  0  0  0  0  0  0  0
   12.2008   10.4808    5.0146 H   0  0  0  0  0  0  0  0  0  0  0  0
    9.5068    7.1075    3.4592 H   0  0  0  0  0  0  0  0  0  0  0  0
    9.7225    8.0866    1.9745 H   0  0  0  0  0  0  0  0  0  0  0  0
   11.9193    7.1294    3.7254 H   0  0  0  0  0  0  0  0  0  0  0  0
   11.4544    6.4105    2.2776 H   0  0  0  0  0  0  0  0  0  0  0  0
  1  2  2  0
  2  3  1  0
  3  4  2  0
  5  6  2  0
  6  7  1  0
  7  8  2  0
  5 10  1  0
  8 11  1  0
  9 11  1  0
 10 11  2  0
  1 12  1  0
  9 12  1  0
  4 13  1  0
 12 13  2  0
  9 14  1  0
 14 15  1  0
  3 16  1  0
  1 17  1  0
  2 18  1  0
  4 19  1  0
  5 20  1  0
  6 21  1  0
  7 22  1  0
  8 23  1  0
  9 24  1  0
 10 25  1  0
 13 26  1  0
 14 27  1  0
 14 28  1  0
 15 29  1  0
 15 30  1  0
A    1
C1
A    2
C2
A    3
C3
A    4
C4
A    5
C5
A    6
C6
A    7
C7
A    8
C8
A    9
C9
A   10
C11
A   11
C12
A   12
C13
A   13
C14
A   14
C15
A   15
N1
A   16
CL1
M  END
