1FNC_FDA_A_315
     RDKit          3D

 88 93  0  0  0  0  0  0  0  0999 V2000
   24.4450   -0.8110   -0.5260 P   0  0  0  0  0  0  0  0  0  0  0  0
   24.8150    0.6090   -0.5100 O   0  0  0  0  0  0  0  0  0  0  0  0
   25.1660   -1.9180   -1.2770 O   0  0  0  0  0  0  0  0  0  0  0  0
   22.8670   -1.0440   -0.8700 O   0  0  0  0  0  0  0  0  0  0  0  0
   22.0320    0.0190   -0.3670 C   0  0  0  0  0  0  0  0  0  0  0  0
   20.8550    0.0620   -1.2790 C   0  0  0  0  0  0  0  0  0  0  0  0
   20.0920   -1.1070   -0.9140 O   0  0  0  0  0  0  0  0  0  0  0  0
   19.8270    1.1730   -1.0970 C   0  0  0  0  0  0  0  0  0  0  0  0
   20.2370    2.4380   -1.5360 O   0  0  0  0  0  0  0  0  0  0  0  0
   18.6170    0.5610   -1.8420 C   0  0  0  0  0  0  0  0  0  0  0  0
   18.7800    0.7120   -3.2620 O   0  0  0  0  0  0  0  0  0  0  0  0
   18.7960   -0.9030   -1.5860 C   0  0  0  0  0  0  0  0  0  0  0  0
   17.7410   -1.4870   -0.7450 N   0  0  0  0  0  0  0  0  0  0  0  0
   17.6710   -1.6120    0.6630 C   0  0  0  0  0  0  0  0  0  0  0  0
   16.6010   -2.3220    1.0280 N   0  0  0  0  0  0  0  0  0  0  0  0
   15.9860   -2.6390   -0.1640 C   0  0  0  0  0  0  0  0  0  0  0  0
   14.7740   -3.3570   -0.4630 C   0  0  0  0  0  0  0  0  0  0  0  0
   14.0190   -3.8770    0.4730 N   0  0  0  0  0  0  0  0  0  0  0  0
   14.4640   -3.4590   -1.7960 N   0  0  0  0  0  0  0  0  0  0  0  0
   15.2400   -2.9210   -2.7880 C   0  0  0  0  0  0  0  0  0  0  0  0
   16.3470   -2.2420   -2.5930 N   0  0  0  0  0  0  0  0  0  0  0  0
   16.6650   -2.1430   -1.2860 C   0  0  0  0  0  0  0  0  0  0  0  0
   23.9630    1.2810    9.3060 N   0  0  0  0  0  0  0  0  0  0  0  0
   24.2350    0.3450   10.2270 C   0  0  0  0  0  0  0  0  0  0  0  0
   24.0410   -0.8430    9.9940 O   0  0  0  0  0  0  0  0  0  0  0  0
   24.6560    0.7590   11.5080 N   0  0  0  0  0  0  0  0  0  0  0  0
   24.8790    2.0370   11.8500 C   0  0  0  0  0  0  0  0  0  0  0  0
   25.3610    2.3190   12.8820 O   0  0  0  0  0  0  0  0  0  0  0  0
   24.6710    3.0280   10.8100 C   0  0  0  0  0  0  0  0  0  0  0  0
   24.8150    4.2960   11.0980 N   0  0  0  0  0  0  0  0  0  0  0  0
   24.4930    5.1650   10.0920 C   0  0  0  0  0  0  0  0  0  0  0  0
   24.7160    6.5070   10.3020 C   0  0  0  0  0  0  0  0  0  0  0  0
   24.3280    7.4050    9.3330 C   0  0  0  0  0  0  0  0  0  0  0  0
   24.4950    8.8610    9.5290 C   0  0  0  0  0  0  0  0  0  0  0  0
   23.9490    6.9640    8.0470 C   0  0  0  0  0  0  0  0  0  0  0  0
   23.6410    7.9700    6.9860 C   0  0  0  0  0  0  0  0  0  0  0  0
   23.8280    5.6320    7.7680 C   0  0  0  0  0  0  0  0  0  0  0  0
   24.1180    4.7320    8.7850 C   0  0  0  0  0  0  0  0  0  0  0  0
   23.9080    3.4060    8.5970 N   0  0  0  0  0  0  0  0  0  0  0  0
   24.1870    2.5180    9.5790 C   0  0  0  0  0  0  0  0  0  0  0  0
   23.5370    2.8660    7.2750 C   0  0  0  0  0  0  0  0  0  0  0  0
   24.8510    2.5060    6.4460 C   0  0  0  0  0  0  0  0  0  0  0  0
   25.5480    3.7260    6.1540 O   0  0  0  0  0  0  0  0  0  0  0  0
   24.5870    1.7960    5.1010 C   0  0  0  0  0  0  0  0  0  0  0  0
   23.6790    2.5590    4.2700 O   0  0  0  0  0  0  0  0  0  0  0  0
   24.1000    0.3580    5.2670 C   0  0  0  0  0  0  0  0  0  0  0  0
   25.0400   -0.3960    6.0730 O   0  0  0  0  0  0  0  0  0  0  0  0
   23.8830   -0.3380    3.8930 C   0  0  0  0  0  0  0  0  0  0  0  0
   25.0890   -0.1480    3.0660 O   0  0  0  0  0  0  0  0  0  0  0  0
   25.6430   -1.3630    2.1390 P   0  0  0  0  0  0  0  0  0  0  0  0
   26.8500   -0.7390    1.4500 O   0  0  0  0  0  0  0  0  0  0  0  0
   25.6870   -2.7140    2.8510 O   0  0  0  0  0  0  0  0  0  0  0  0
   24.3950   -1.3020    1.0550 O   0  0  0  0  0  0  0  0  0  0  0  0
   25.5743   -2.5449   -0.6286 H   0  0  0  0  0  0  0  0  0  0  0  0
   21.7129   -0.1969    0.6633 H   0  0  0  0  0  0  0  0  0  0  0  0
   22.5651    0.9808   -0.3411 H   0  0  0  0  0  0  0  0  0  0  0  0
   21.2782    0.1750   -2.2880 H   0  0  0  0  0  0  0  0  0  0  0  0
   19.6147    1.4265   -0.0479 H   0  0  0  0  0  0  0  0  0  0  0  0
   20.4238    3.0144   -0.7531 H   0  0  0  0  0  0  0  0  0  0  0  0
   17.6633    1.0095   -1.5268 H   0  0  0  0  0  0  0  0  0  0  0  0
   19.4939    1.3734   -3.4437 H   0  0  0  0  0  0  0  0  0  0  0  0
   18.7481   -1.4071   -2.5625 H   0  0  0  0  0  0  0  0  0  0  0  0
   18.4014   -1.1812    1.3637 H   0  0  0  0  0  0  0  0  0  0  0  0
   14.2471   -3.7199    1.4651 H   0  0  0  0  0  0  0  0  0  0  0  0
   13.1974   -4.4429    0.2168 H   0  0  0  0  0  0  0  0  0  0  0  0
   14.9110   -3.0689   -3.8272 H   0  0  0  0  0  0  0  0  0  0  0  0
   23.5785    1.0121    8.3891 H   0  0  0  0  0  0  0  0  0  0  0  0
   24.8013    0.0348   12.2258 H   0  0  0  0  0  0  0  0  0  0  0  0
   25.1477    4.6175   12.0182 H   0  0  0  0  0  0  0  0  0  0  0  0
   25.1960    6.8561   11.2282 H   0  0  0  0  0  0  0  0  0  0  0  0
   24.5207    9.0855   10.6055 H   0  0  0  0  0  0  0  0  0  0  0  0
   25.4365    9.1880    9.0636 H   0  0  0  0  0  0  0  0  0  0  0  0
   23.6520    9.3927    9.0636 H   0  0  0  0  0  0  0  0  0  0  0  0
   23.3498    8.9210    7.4559 H   0  0  0  0  0  0  0  0  0  0  0  0
   24.5320    8.1277    6.3605 H   0  0  0  0  0  0  0  0  0  0  0  0
   22.8144    7.6019    6.3605 H   0  0  0  0  0  0  0  0  0  0  0  0
   23.5121    5.2849    6.7732 H   0  0  0  0  0  0  0  0  0  0  0  0
   22.9306    1.9581    7.4092 H   0  0  0  0  0  0  0  0  0  0  0  0
   22.9583    3.6225    6.7248 H   0  0  0  0  0  0  0  0  0  0  0  0
   25.4267    1.8097    7.0734 H   0  0  0  0  0  0  0  0  0  0  0  0
   25.8025    4.1714    7.0007 H   0  0  0  0  0  0  0  0  0  0  0  0
   25.5600    1.7391    4.5910 H   0  0  0  0  0  0  0  0  0  0  0  0
   23.0620    3.0774    4.8451 H   0  0  0  0  0  0  0  0  0  0  0  0
   23.1272    0.3886    5.7795 H   0  0  0  0  0  0  0  0  0  0  0  0
   24.8492   -0.2429    7.0323 H   0  0  0  0  0  0  0  0  0  0  0  0
   23.7065   -1.4127    4.0472 H   0  0  0  0  0  0  0  0  0  0  0  0
   23.0106    0.1007    3.3865 H   0  0  0  0  0  0  0  0  0  0  0  0
   25.6823   -2.5711    3.8306 H   0  0  0  0  0  0  0  0  0  0  0  0
  1  2  2  0
  1  3  1  0
  1  4  1  0
  1 53  1  0
  4  5  1  0
  5  6  1  0
  6  7  1  0
  6  8  1  0
  7 12  1  0
  8  9  1  0
  8 10  1  0
 10 11  1  0
 10 12  1  0
 12 13  1  0
 13 14  1  0
 13 22  1  0
 14 15  2  0
 15 16  1  0
 16 17  1  0
 16 22  2  0
 17 18  1  0
 17 19  2  0
 19 20  1  0
 20 21  2  0
 21 22  1  0
 23 24  1  0
 23 40  1  0
 24 25  2  0
 24 26  1  0
 26 27  1  0
 27 28  2  0
 27 29  1  0
 29 30  1  0
 29 40  2  0
 30 31  1  0
 31 32  2  0
 31 38  1  0
 32 33  1  0
 33 34  1  0
 33 35  2  0
 35 36  1  0
 35 37  1  0
 37 38  2  0
 38 39  1  0
 39 40  1  0
 39 41  1  0
 41 42  1  0
 42 43  1  0
 42 44  1  0
 44 45  1  0
 44 46  1  0
 46 47  1  0
 46 48  1  0
 48 49  1  0
 49 50  1  0
 50 51  2  0
 50 52  1  0
 50 53  1  0
  3 54  1  0
  5 55  1  0
  5 56  1  0
  6 57  1  0
  8 58  1  0
  9 59  1  0
 10 60  1  0
 11 61  1  0
 12 62  1  0
 14 63  1  0
 18 64  1  0
 18 65  1  0
 20 66  1  0
 23 67  1  0
 26 68  1  0
 30 69  1  0
 32 70  1  0
 34 71  1  0
 34 72  1  0
 34 73  1  0
 36 74  1  0
 36 75  1  0
 36 76  1  0
 37 77  1  0
 41 78  1  0
 41 79  1  0
 42 80  1  0
 43 81  1  0
 44 82  1  0
 45 83  1  0
 46 84  1  0
 47 85  1  0
 48 86  1  0
 48 87  1  0
 52 88  1  0
A    1
PA
A    2
O1A
A    3
O2A
A    4
O5B
A    5
C5B
A    6
C4B
A    7
O4B
A    8
C3B
A    9
O3B
A   10
C2B
A   11
O2B
A   12
C1B
A   13
N9A
A   14
C8A
A   15
N7A
A   16
C5A
A   17
C6A
A   18
N6A
A   19
N1A
A   20
C2A
A   21
N3A
A   22
C4A
A   23
N1
A   24
C2
A   25
O2
A   26
N3
A   27
C4
A   28
O4
A   29
C4X
A   30
N5
A   31
C5X
A   32
C6
A   33
C7
A   34
C7M
A   35
C8
A   36
C8M
A   37
C9
A   38
C9A
A   39
N10
A   40
C10
A   41
C1'
A   42
C2'
A   43
O2'
A   44
C3'
A   45
O3'
A   46
C4'
A   47
O4'
A   48
C5'
A   49
O5'
A   50
P
A   51
O1P
A   52
O2P
A   53
O3P
M  END
