2UZL_C94_A_1297
     RDKit          3D

 37 39  0  0  0  0  0  0  0  0999 V2000
   67.9450   64.3970   20.1450 O   0  0  0  0  0  0  0  0  0  0  0  0
   68.0780   63.8400   18.8480 S   0  0  0  0  0  0  0  0  0  0  0  0
   68.4840   64.8060   17.8890 O   0  0  0  0  0  0  0  0  0  0  0  0
   66.7510   63.0740   18.3970 N   0  0  0  0  0  0  0  0  0  0  0  0
   69.3310   62.6050   18.9210 C   0  0  0  0  0  0  0  0  0  0  0  0
   70.3740   62.6550   19.8540 C   0  0  0  0  0  0  0  0  0  0  0  0
   70.4910   63.8100   20.8450 C   0  0  0  0  0  0  0  0  0  0  0  0
   70.1170   64.9480   20.2710 F   0  0  0  0  0  0  0  0  0  0  0  0
   71.7530   63.9160   21.2410 F   0  0  0  0  0  0  0  0  0  0  0  0
   69.7190   63.5750   21.9010 F   0  0  0  0  0  0  0  0  0  0  0  0
   71.3340   61.6400   19.8720 C   0  0  0  0  0  0  0  0  0  0  0  0
   71.2370   60.5810   18.9770 C   0  0  0  0  0  0  0  0  0  0  0  0
   70.1840   60.5270   18.0760 C   0  0  0  0  0  0  0  0  0  0  0  0
   69.2370   61.5320   18.0470 C   0  0  0  0  0  0  0  0  0  0  0  0
   72.2240   59.4560   18.9720 C   0  0  0  0  0  0  0  0  0  0  0  0
   71.9790   58.2360   18.4190 O   0  0  0  0  0  0  0  0  0  0  0  0
   73.5250   59.4560   19.4600 C   0  0  0  0  0  0  0  0  0  0  0  0
   74.0640   58.1980   19.1950 C   0  0  0  0  0  0  0  0  0  0  0  0
   73.0820   57.4500   18.5520 C   0  0  0  0  0  0  0  0  0  0  0  0
   73.1860   56.0590   18.0580 C   0  0  0  0  0  0  0  0  0  0  0  0
   72.1800   55.5530   17.3180 C   0  0  0  0  0  0  0  0  0  0  0  0
   70.7640   56.3550   16.9770 S   0  0  0  0  0  0  0  0  0  0  0  0
   70.1780   55.0670   16.1060 C   0  0  0  0  0  0  0  0  0  0  0  0
   69.0400   55.0560   15.5410 N   0  0  0  0  0  0  0  0  0  0  0  0
   71.0460   54.0500   16.0570 N   0  0  0  0  0  0  0  0  0  0  0  0
   72.1830   54.2920   16.7280 C   0  0  0  0  0  0  0  0  0  0  0  0
   73.1120   53.4930   16.8100 O   0  0  0  0  0  0  0  0  0  0  0  0
   66.2283   62.7723   19.2316 H   0  0  0  0  0  0  0  0  0  0  0  0
   66.1641   63.7062   17.8343 H   0  0  0  0  0  0  0  0  0  0  0  0
   72.1643   61.6789   20.5925 H   0  0  0  0  0  0  0  0  0  0  0  0
   70.1026   59.6788   17.3804 H   0  0  0  0  0  0  0  0  0  0  0  0
   68.4056   61.4813   17.3285 H   0  0  0  0  0  0  0  0  0  0  0  0
   74.0343   60.2921   19.9615 H   0  0  0  0  0  0  0  0  0  0  0  0
   75.0794   57.8587   19.4478 H   0  0  0  0  0  0  0  0  0  0  0  0
   74.0704   55.4479   18.2911 H   0  0  0  0  0  0  0  0  0  0  0  0
   68.7343   54.2251   15.0147 H   0  0  0  0  0  0  0  0  0  0  0  0
   70.8604   53.1700   15.5549 H   0  0  0  0  0  0  0  0  0  0  0  0
  1  2  2  0
  2  3  2  0
  2  4  1  0
  2  5  1  0
  5  6  2  0
  6  7  1  0
  7  8  1  0
  7  9  1  0
  7 10  1  0
  6 11  1  0
 11 12  2  0
 12 13  1  0
  5 14  1  0
 13 14  2  0
 12 15  1  0
 15 16  1  0
 15 17  2  0
 17 18  1  0
 16 19  1  0
 18 19  2  0
 19 20  1  0
 20 21  2  0
 21 22  1  0
 22 23  1  0
 23 24  2  3
 23 25  1  0
 21 26  1  0
 25 26  1  0
 26 27  2  0
  4 28  1  0
  4 29  1  0
 11 30  1  0
 13 31  1  0
 14 32  1  0
 17 33  1  0
 18 34  1  0
 20 35  1  0
 24 36  1  0
 25 37  1  0
A    1
O4
A    2
S2
A    3
O3
A    4
N6
A    5
C16
A    6
C15
A    7
C24
A    8
F26
A    9
F27
A   10
F25
A   11
C14
A   12
C13
A   13
C18
A   14
C17
A   15
C4
A   16
O2
A   17
C3
A   18
C2
A   19
C1
A   20
C6
A   21
C7
A   22
S1
A   23
C9
A   24
N3
A   25
N2
A   26
C8
A   27
O1
M  END
