2UZV_SS5_A_1351
     RDKit          3D

 69 73  0  0  0  0  0  0  0  0999 V2000
   15.8390    7.8210    2.6620 C   0  0  0  0  0  0  0  0  0  0  0  0
   16.0990    6.5570    3.2560 C   0  0  0  0  0  0  0  0  0  0  0  0
   17.1640    6.4120    4.1710 C   0  0  0  0  0  0  0  0  0  0  0  0
   17.9860    7.5360    4.5020 C   0  0  0  0  0  0  0  0  0  0  0  0
   17.7320    8.8240    3.9050 C   0  0  0  0  0  0  0  0  0  0  0  0
   16.6610    8.9280    3.0000 C   0  0  0  0  0  0  0  0  0  0  0  0
   14.7300    8.0470    1.6700 C   0  0  0  0  0  0  0  0  0  0  0  0
   18.4530   10.0330    4.1220 O   0  0  0  0  0  0  0  0  0  0  0  0
   13.3670    8.3610    2.2770 C   0  0  0  0  0  0  0  0  0  0  0  0
   12.3820    8.6650    1.1510 C   0  0  0  0  0  0  0  0  0  0  0  0
   11.1130    9.0080    1.6850 O   0  0  0  0  0  0  0  0  0  0  0  0
   12.8660    7.2070    3.0130 N   0  0  0  0  0  0  0  0  0  0  0  0
   10.1090    9.3610    0.7670 C   0  0  0  0  0  0  0  0  0  0  0  0
   10.3140    9.6830   -0.6150 C   0  0  0  0  0  0  0  0  0  0  0  0
    9.2920   10.0160   -1.4290 N   0  0  0  0  0  0  0  0  0  0  0  0
    8.0170   10.0520   -0.9430 C   0  0  0  0  0  0  0  0  0  0  0  0
    7.7000    9.7550    0.4060 C   0  0  0  0  0  0  0  0  0  0  0  0
    8.7860    9.4100    1.2430 C   0  0  0  0  0  0  0  0  0  0  0  0
    5.1790    9.5660    0.0360 C   0  0  0  0  0  0  0  0  0  0  0  0
    3.8350    9.5690    0.4860 C   0  0  0  0  0  0  0  0  0  0  0  0
    3.5590    9.7880    1.8270 C   0  0  0  0  0  0  0  0  0  0  0  0
    4.6400   10.0180    2.7730 C   0  0  0  0  0  0  0  0  0  0  0  0
    5.9640   10.0140    2.3130 C   0  0  0  0  0  0  0  0  0  0  0  0
    6.2750    9.7850    0.9210 C   0  0  0  0  0  0  0  0  0  0  0  0
    2.4360    9.8550    2.5940 N   0  0  0  0  0  0  0  0  0  0  0  0
    2.7140   10.0970    3.8830 N   0  0  0  0  0  0  0  0  0  0  0  0
    4.0270   10.2120    4.0830 C   0  0  0  0  0  0  0  0  0  0  0  0
    4.6560   10.4840    5.4310 C   0  0  0  0  0  0  0  0  0  0  0  0
   19.5570   10.0170    5.0160 C   0  0  0  0  0  0  0  0  0  0  0  0
   20.2370   11.4000    5.1820 C   0  0  0  0  0  0  0  0  0  0  0  0
   21.5490   11.5040    4.3630 C   0  0  0  0  0  0  0  0  0  0  0  0
   22.2310   12.8840    4.5410 C   0  0  0  0  0  0  0  0  0  0  0  0
   21.2700   14.0560    4.2160 C   0  0  0  0  0  0  0  0  0  0  0  0
   19.9310   13.9550    4.9800 C   0  0  0  0  0  0  0  0  0  0  0  0
   19.2740   12.5690    4.8040 C   0  0  0  0  0  0  0  0  0  0  0  0
   15.4701    5.6908    3.0028 H   0  0  0  0  0  0  0  0  0  0  0  0
   17.3627    5.4327    4.6308 H   0  0  0  0  0  0  0  0  0  0  0  0
   18.8152    7.4169    5.2149 H   0  0  0  0  0  0  0  0  0  0  0  0
   16.4522    9.9035    2.5366 H   0  0  0  0  0  0  0  0  0  0  0  0
   15.0174    8.8906    1.0253 H   0  0  0  0  0  0  0  0  0  0  0  0
   14.6098    7.0981    1.1266 H   0  0  0  0  0  0  0  0  0  0  0  0
   13.4693    9.2205    2.9558 H   0  0  0  0  0  0  0  0  0  0  0  0
   12.7631    9.5058    0.5529 H   0  0  0  0  0  0  0  0  0  0  0  0
   12.2742    7.7709    0.5193 H   0  0  0  0  0  0  0  0  0  0  0  0
   12.9433    7.3850    4.0246 H   0  0  0  0  0  0  0  0  0  0  0  0
   11.8789    7.0452    2.7673 H   0  0  0  0  0  0  0  0  0  0  0  0
   11.3351    9.6576   -1.0232 H   0  0  0  0  0  0  0  0  0  0  0  0
    7.2002   10.3233   -1.6280 H   0  0  0  0  0  0  0  0  0  0  0  0
    8.5904    9.1725    2.2991 H   0  0  0  0  0  0  0  0  0  0  0  0
    5.3830    9.3890   -1.0303 H   0  0  0  0  0  0  0  0  0  0  0  0
    3.0140    9.3982   -0.2259 H   0  0  0  0  0  0  0  0  0  0  0  0
    6.7828   10.1888    3.0264 H   0  0  0  0  0  0  0  0  0  0  0  0
    1.4817    9.7336    2.2259 H   0  0  0  0  0  0  0  0  0  0  0  0
    3.9600   10.1830    6.2278 H   0  0  0  0  0  0  0  0  0  0  0  0
    5.5893    9.9091    5.5229 H   0  0  0  0  0  0  0  0  0  0  0  0
    4.8763   11.5578    5.5229 H   0  0  0  0  0  0  0  0  0  0  0  0
   19.2020    9.6828    6.0020 H   0  0  0  0  0  0  0  0  0  0  0  0
   20.3084    9.3355    4.5907 H   0  0  0  0  0  0  0  0  0  0  0  0
   20.4912   11.4927    6.2482 H   0  0  0  0  0  0  0  0  0  0  0  0
   22.2418   10.7185    4.6992 H   0  0  0  0  0  0  0  0  0  0  0  0
   21.2983   11.3813    3.2990 H   0  0  0  0  0  0  0  0  0  0  0  0
   22.5686   12.9809    5.5834 H   0  0  0  0  0  0  0  0  0  0  0  0
   23.0776   12.9361    3.8406 H   0  0  0  0  0  0  0  0  0  0  0  0
   21.7616   15.0011    4.4899 H   0  0  0  0  0  0  0  0  0  0  0  0
   21.0441   14.0134    3.1403 H   0  0  0  0  0  0  0  0  0  0  0  0
   20.1178   14.1272    6.0503 H   0  0  0  0  0  0  0  0  0  0  0  0
   19.2461   14.7126    4.5714 H   0  0  0  0  0  0  0  0  0  0  0  0
   18.9727   12.4522    3.7525 H   0  0  0  0  0  0  0  0  0  0  0  0
   18.4076   12.5209    5.4801 H   0  0  0  0  0  0  0  0  0  0  0  0
  1  2  2  0
  2  3  1  0
  3  4  2  0
  4  5  1  0
  1  6  1  0
  5  6  2  0
  1  7  1  0
  5  8  1  0
  7  9  1  0
  9 10  1  0
 10 11  1  0
  9 12  1  0
 11 13  1  0
 13 14  2  0
 14 15  1  0
 15 16  2  0
 16 17  1  0
 13 18  1  0
 17 18  2  0
 19 20  2  0
 20 21  1  0
 21 22  2  0
 22 23  1  0
 17 24  1  0
 19 24  1  0
 23 24  2  0
 21 25  1  0
 25 26  1  0
 22 27  1  0
 26 27  2  0
 27 28  1  0
  8 29  1  0
 29 30  1  0
 30 31  1  0
 31 32  1  0
 32 33  1  0
 33 34  1  0
 30 35  1  0
 34 35  1  0
  2 36  1  0
  3 37  1  0
  4 38  1  0
  6 39  1  0
  7 40  1  0
  7 41  1  0
  9 42  1  0
 10 43  1  0
 10 44  1  0
 12 45  1  0
 12 46  1  0
 14 47  1  0
 16 48  1  0
 18 49  1  0
 19 50  1  0
 20 51  1  0
 23 52  1  0
 25 53  1  0
 28 54  1  0
 28 55  1  0
 28 56  1  0
 29 57  1  0
 29 58  1  0
 30 59  1  0
 31 60  1  0
 31 61  1  0
 32 62  1  0
 32 63  1  0
 33 64  1  0
 33 65  1  0
 34 66  1  0
 34 67  1  0
 35 68  1  0
 35 69  1  0
A    1
C1
A    2
C2
A    3
C3
A    4
C4
A    5
C5
A    6
C6
A    7
C7
A    8
O8
A    9
C9
A   10
C10
A   11
O11
A   12
N12
A   13
C13
A   14
C14
A   15
N15
A   16
C16
A   17
C17
A   18
C18
A   19
C19
A   20
C20
A   21
C21
A   22
C22
A   23
C23
A   24
C24
A   25
N25
A   26
N26
A   27
C27
A   28
C28
A   29
C29
A   30
C30
A   31
C31
A   32
C32
A   33
C33
A   34
C34
A   35
C35
M  END
