2UZW_SS4_E_1351
     RDKit          3D

 49 52  0  0  0  0  0  0  0  0999 V2000
    3.5640   10.1390    4.6220 N   0  0  0  0  0  0  0  0  0  0  0  0
    9.5540   10.0530   -1.1370 N   0  0  0  0  0  0  0  0  0  0  0  0
    4.1780    9.9350    2.4610 C   0  0  0  0  0  0  0  0  0  0  0  0
    4.3110    9.8230    1.1090 C   0  0  0  0  0  0  0  0  0  0  0  0
    5.5870    9.7070    0.5480 C   0  0  0  0  0  0  0  0  0  0  0  0
    4.8940   10.0690    4.6800 C   0  0  0  0  0  0  0  0  0  0  0  0
   13.3550   11.3610    3.1070 C   0  0  0  0  0  0  0  0  0  0  0  0
   13.5920   12.3090    0.9130 C   0  0  0  0  0  0  0  0  0  0  0  0
    5.6990   10.1280    5.9570 C   0  0  0  0  0  0  0  0  0  0  0  0
   13.8080   10.1290    2.6390 C   0  0  0  0  0  0  0  0  0  0  0  0
    8.0990    9.5910    0.7130 C   0  0  0  0  0  0  0  0  0  0  0  0
    9.1510    8.9540    1.3560 C   0  0  0  0  0  0  0  0  0  0  0  0
   10.4050    8.8710    0.7470 C   0  0  0  0  0  0  0  0  0  0  0  0
   11.5640    8.1640    2.7130 C   0  0  0  0  0  0  0  0  0  0  0  0
    6.7390    9.7030    1.3360 C   0  0  0  0  0  0  0  0  0  0  0  0
    6.5820    9.8180    2.7170 C   0  0  0  0  0  0  0  0  0  0  0  0
    5.3420    9.9340    3.2950 C   0  0  0  0  0  0  0  0  0  0  0  0
    3.1350   10.0640    3.3510 N   0  0  0  0  0  0  0  0  0  0  0  0
   13.2450   12.4490    2.2510 C   0  0  0  0  0  0  0  0  0  0  0  0
   14.1760   10.0120    1.3020 C   0  0  0  0  0  0  0  0  0  0  0  0
   10.5560    9.4380   -0.5080 C   0  0  0  0  0  0  0  0  0  0  0  0
    8.3560   10.1300   -0.5400 C   0  0  0  0  0  0  0  0  0  0  0  0
   14.0640   11.0930    0.4390 C   0  0  0  0  0  0  0  0  0  0  0  0
   11.5360    8.2700    1.3020 O   0  0  0  0  0  0  0  0  0  0  0  0
   12.9860    7.7560    3.1530 C   0  0  0  0  0  0  0  0  0  0  0  0
   13.8800    8.9450    3.5740 C   0  0  0  0  0  0  0  0  0  0  0  0
   13.6300    6.9160    2.1450 N   0  0  0  0  0  0  0  0  0  0  0  0
   13.4210   13.7660   -0.2580 Br  0  0  0  0  0  0  0  0  0  0  0  0
    3.4205    9.8238    0.4633 H   0  0  0  0  0  0  0  0  0  0  0  0
    5.6853    9.6165   -0.5439 H   0  0  0  0  0  0  0  0  0  0  0  0
   13.0814   11.4729    4.1665 H   0  0  0  0  0  0  0  0  0  0  0  0
    5.0201   10.0782    6.8210 H   0  0  0  0  0  0  0  0  0  0  0  0
    6.3972    9.2786    5.9899 H   0  0  0  0  0  0  0  0  0  0  0  0
    6.2659   11.0701    5.9899 H   0  0  0  0  0  0  0  0  0  0  0  0
    8.9962    8.5118    2.3513 H   0  0  0  0  0  0  0  0  0  0  0  0
   11.3020    9.1335    3.1618 H   0  0  0  0  0  0  0  0  0  0  0  0
   10.8383    7.4071    3.0454 H   0  0  0  0  0  0  0  0  0  0  0  0
    7.4747    9.8157    3.3598 H   0  0  0  0  0  0  0  0  0  0  0  0
    2.1433   10.0989    3.0749 H   0  0  0  0  0  0  0  0  0  0  0  0
   12.8850   13.4167    2.6304 H   0  0  0  0  0  0  0  0  0  0  0  0
   14.5598    9.0524    0.9252 H   0  0  0  0  0  0  0  0  0  0  0  0
   11.5367    9.3788   -1.0028 H   0  0  0  0  0  0  0  0  0  0  0  0
    7.5390   10.6441   -1.0676 H   0  0  0  0  0  0  0  0  0  0  0  0
   14.3486   10.9863   -0.6182 H   0  0  0  0  0  0  0  0  0  0  0  0
   12.8590    7.1585    4.0678 H   0  0  0  0  0  0  0  0  0  0  0  0
   14.9229    8.5972    3.6120 H   0  0  0  0  0  0  0  0  0  0  0  0
   13.5123    9.2890    4.5520 H   0  0  0  0  0  0  0  0  0  0  0  0
   14.1887    6.1872    2.6115 H   0  0  0  0  0  0  0  0  0  0  0  0
   12.9101    6.4727    1.5566 H   0  0  0  0  0  0  0  0  0  0  0  0
  1  6  2  0
  1 18  1  0
  2 21  2  0
  2 22  1  0
  3  4  1  0
  3 17  2  0
  3 18  1  0
  4  5  2  0
  5 15  1  0
  6  9  1  0
  6 17  1  0
  7 10  2  0
  7 19  1  0
  8 19  2  0
  8 23  1  0
  8 28  1  0
 10 20  1  0
 10 26  1  0
 11 12  1  0
 11 15  1  0
 11 22  2  0
 12 13  2  0
 13 21  1  0
 13 24  1  0
 14 24  1  0
 14 25  1  0
 15 16  2  0
 16 17  1  0
 20 23  2  0
 25 26  1  0
 25 27  1  0
  4 29  1  0
  5 30  1  0
  7 31  1  0
  9 32  1  0
  9 33  1  0
  9 34  1  0
 12 35  1  0
 14 36  1  0
 14 37  1  0
 16 38  1  0
 18 39  1  0
 19 40  1  0
 20 41  1  0
 21 42  1  0
 22 43  1  0
 23 44  1  0
 25 45  1  0
 26 46  1  0
 26 47  1  0
 27 48  1  0
 27 49  1  0
A    1
N1
A    2
N3
A    3
C4
A    4
C5
A    5
C6
A    6
C8
A    7
C13
A    8
C15
A    9
C9
A   10
C17
A   11
C20
A   12
C21
A   13
C22
A   14
C24
A   15
C1
A   16
C2
A   17
C3
A   18
N5
A   19
C14
A   20
C16
A   21
C18
A   22
C19
A   23
C26
A   24
O1
A   25
C10
A   26
C25
A   27
N4
A   28
BR1
M  END
