2V00_V15_A_1336
     RDKit          3D

 29 30  0  0  0  0  0  0  0  0999 V2000
   -0.1850    5.8160    9.0300 N   0  0  0  0  0  0  0  0  0  0  0  0
    0.7630    4.9060    9.4190 C   0  0  0  0  0  0  0  0  0  0  0  0
   -1.4590    5.6870    9.4980 C   0  0  0  0  0  0  0  0  0  0  0  0
   -1.7870    4.5980   10.3450 C   0  0  0  0  0  0  0  0  0  0  0  0
   -0.7950    3.7090   10.6850 C   0  0  0  0  0  0  0  0  0  0  0  0
    0.4490    3.9140   10.2220 N   0  0  0  0  0  0  0  0  0  0  0  0
   -2.9240    0.3220   10.5550 C   0  0  0  0  0  0  0  0  0  0  0  0
   -3.7390   -0.2850    9.6130 C   0  0  0  0  0  0  0  0  0  0  0  0
   -4.9320    0.3280    9.2390 C   0  0  0  0  0  0  0  0  0  0  0  0
   -5.3010    1.5450    9.7980 C   0  0  0  0  0  0  0  0  0  0  0  0
   -4.4790    2.1540   10.7390 C   0  0  0  0  0  0  0  0  0  0  0  0
    2.0730    5.0420    9.0150 N   0  0  0  0  0  0  0  0  0  0  0  0
   -1.0030    2.5100   11.5770 C   0  0  0  0  0  0  0  0  0  0  0  0
   -3.2810    1.5500   11.1110 C   0  0  0  0  0  0  0  0  0  0  0  0
   -2.4140    2.2460   12.1290 C   0  0  0  0  0  0  0  0  0  0  0  0
   -2.3150    6.5040    9.1830 O   0  0  0  0  0  0  0  0  0  0  0  0
    0.0616    6.5868    8.3928 H   0  0  0  0  0  0  0  0  0  0  0  0
   -2.8123    4.4675   10.7216 H   0  0  0  0  0  0  0  0  0  0  0  0
   -1.9896   -0.1679   10.8662 H   0  0  0  0  0  0  0  0  0  0  0  0
   -3.4454   -1.2451    9.1635 H   0  0  0  0  0  0  0  0  0  0  0  0
   -5.5856   -0.1539    8.4970 H   0  0  0  0  0  0  0  0  0  0  0  0
   -6.2429    2.0263    9.4962 H   0  0  0  0  0  0  0  0  0  0  0  0
   -4.7749    3.1128   11.1896 H   0  0  0  0  0  0  0  0  0  0  0  0
    2.8229    5.1199    9.7168 H   0  0  0  0  0  0  0  0  0  0  0  0
    2.3025    5.0658    8.0112 H   0  0  0  0  0  0  0  0  0  0  0  0
   -0.7073    1.6207   11.0010 H   0  0  0  0  0  0  0  0  0  0  0  0
   -0.3995    2.7291   12.4702 H   0  0  0  0  0  0  0  0  0  0  0  0
   -2.3352    1.6127   13.0250 H   0  0  0  0  0  0  0  0  0  0  0  0
   -2.8765    3.2134   12.3745 H   0  0  0  0  0  0  0  0  0  0  0  0
  1  2  1  0
  1  3  1  0
  2  6  2  0
  2 12  1  0
  3  4  1  0
  3 16  2  0
  4  5  2  0
  5  6  1  0
  5 13  1  0
  7  8  2  0
  7 14  1  0
  8  9  1  0
  9 10  2  0
 10 11  1  0
 11 14  2  0
 13 15  1  0
 14 15  1  0
  1 17  1  0
  4 18  1  0
  7 19  1  0
  8 20  1  0
  9 21  1  0
 10 22  1  0
 11 23  1  0
 12 24  1  0
 12 25  1  0
 13 26  1  0
 13 27  1  0
 15 28  1  0
 15 29  1  0
A    1
N1
A    2
C2
A    3
C3
A    4
C4
A    5
C5
A    6
N6
A    7
C8
A    8
C9
A    9
C10
A   10
C11
A   11
C12
A   12
N14
A   13
C15
A   14
C7
A   15
C16
A   16
O15
M  END
