2V11_C80_C_1341
     RDKit          3D

 78 80  0  0  0  0  0  0  0  0999 V2000
   15.0980   46.6280   70.8630 C   0  0  0  0  0  0  0  0  0  0  0  0
   15.6330   45.8010   69.8770 C   0  0  0  0  0  0  0  0  0  0  0  0
   15.3530   44.4480   69.8410 C   0  0  0  0  0  0  0  0  0  0  0  0
   14.5260   43.9220   70.8090 C   0  0  0  0  0  0  0  0  0  0  0  0
   13.9920   44.7510   71.7950 C   0  0  0  0  0  0  0  0  0  0  0  0
   14.2740   46.1030   71.8330 C   0  0  0  0  0  0  0  0  0  0  0  0
   13.7260   46.9640   72.9610 C   0  0  0  0  0  0  0  0  0  0  0  0
   12.8210   48.0430   72.5900 N   0  0  0  0  0  0  0  0  0  0  0  0
   11.8290   47.9420   71.7430 C   0  0  0  0  0  0  0  0  0  0  0  0
   12.8690   49.2940   73.1280 C   0  0  0  0  0  0  0  0  0  0  0  0
   11.6110   51.3680   73.0890 C   0  0  0  0  0  0  0  0  0  0  0  0
   11.7980   50.0680   72.6660 C   0  0  0  0  0  0  0  0  0  0  0  0
   11.2070   49.1690   71.8180 C   0  0  0  0  0  0  0  0  0  0  0  0
   13.7740   49.8320   74.0370 C   0  0  0  0  0  0  0  0  0  0  0  0
   13.5850   51.1360   74.4660 C   0  0  0  0  0  0  0  0  0  0  0  0
   12.5180   51.8890   73.9970 C   0  0  0  0  0  0  0  0  0  0  0  0
   10.0360   49.6460   71.1980 C   0  0  0  0  0  0  0  0  0  0  0  0
    9.1630   50.1370   71.9240 O   0  0  0  0  0  0  0  0  0  0  0  0
    9.8390   49.6510   69.9610 O   0  0  0  0  0  0  0  0  0  0  0  0
    9.7260   48.3690   69.3950 C   0  0  0  0  0  0  0  0  0  0  0  0
    8.3020   48.0460   69.3880 C   0  0  0  0  0  0  0  0  0  0  0  0
    8.0580   48.1910   67.9210 C   0  0  0  0  0  0  0  0  0  0  0  0
    8.2130   46.6440   69.9150 C   0  0  0  0  0  0  0  0  0  0  0  0
    6.8700   45.9430   70.0740 C   0  0  0  0  0  0  0  0  0  0  0  0
    7.0100   44.5790   70.5290 N   0  0  0  0  0  0  0  0  0  0  0  0
    6.1410   45.8060   68.8060 C   0  0  0  0  0  0  0  0  0  0  0  0
    6.9710   45.0670   67.9300 O   0  0  0  0  0  0  0  0  0  0  0  0
    4.7760   46.3900   68.5280 C   0  0  0  0  0  0  0  0  0  0  0  0
    3.6910   45.5860   67.8910 C   0  0  0  0  0  0  0  0  0  0  0  0
    3.3020   44.4370   68.7760 C   0  0  0  0  0  0  0  0  0  0  0  0
    2.5390   46.5610   67.8030 C   0  0  0  0  0  0  0  0  0  0  0  0
    1.8130   46.7350   68.7790 O   0  0  0  0  0  0  0  0  0  0  0  0
    2.3520   47.3480   66.7560 N   0  0  0  0  0  0  0  0  0  0  0  0
    1.7190   46.8670   65.5630 C   0  0  0  0  0  0  0  0  0  0  0  0
    1.0820   48.0260   64.8790 C   0  0  0  0  0  0  0  0  0  0  0  0
    2.1650   48.9200   64.3010 C   0  0  0  0  0  0  0  0  0  0  0  0
    2.8290   48.3390   63.0020 C   0  0  0  0  0  0  0  0  0  0  0  0
   15.3345   47.7023   70.8662 H   0  0  0  0  0  0  0  0  0  0  0  0
   16.2925   46.2345   69.1107 H   0  0  0  0  0  0  0  0  0  0  0  0
   15.7808   43.8058   69.0571 H   0  0  0  0  0  0  0  0  0  0  0  0
   14.2869   42.8483   70.8042 H   0  0  0  0  0  0  0  0  0  0  0  0
   13.3308   44.3184   72.5604 H   0  0  0  0  0  0  0  0  0  0  0  0
   13.1855   46.3006   73.6522 H   0  0  0  0  0  0  0  0  0  0  0  0
   14.6059   47.4647   73.3912 H   0  0  0  0  0  0  0  0  0  0  0  0
   11.5556   47.0794   71.1175 H   0  0  0  0  0  0  0  0  0  0  0  0
   10.7693   51.9708   72.7173 H   0  0  0  0  0  0  0  0  0  0  0  0
   14.6209   49.2356   74.4071 H   0  0  0  0  0  0  0  0  0  0  0  0
   14.2885   51.5791   75.1862 H   0  0  0  0  0  0  0  0  0  0  0  0
   12.3897   52.9216   74.3539 H   0  0  0  0  0  0  0  0  0  0  0  0
   10.1210   48.3701   68.3684 H   0  0  0  0  0  0  0  0  0  0  0  0
   10.3005   47.6273   69.9693 H   0  0  0  0  0  0  0  0  0  0  0  0
    7.5862   48.6320   69.9832 H   0  0  0  0  0  0  0  0  0  0  0  0
    7.1228   48.7467   67.7580 H   0  0  0  0  0  0  0  0  0  0  0  0
    8.8946   48.7386   67.4625 H   0  0  0  0  0  0  0  0  0  0  0  0
    7.9770   47.1944   67.4625 H   0  0  0  0  0  0  0  0  0  0  0  0
    8.8128   46.0181   69.2379 H   0  0  0  0  0  0  0  0  0  0  0  0
    8.5476   46.7585   70.9566 H   0  0  0  0  0  0  0  0  0  0  0  0
    6.3372   46.5806   70.7949 H   0  0  0  0  0  0  0  0  0  0  0  0
    7.0120   44.5591   71.5588 H   0  0  0  0  0  0  0  0  0  0  0  0
    6.2223   44.0169   70.1763 H   0  0  0  0  0  0  0  0  0  0  0  0
    6.5930   46.7416   68.4450 H   0  0  0  0  0  0  0  0  0  0  0  0
    7.5961   44.5104   68.4587 H   0  0  0  0  0  0  0  0  0  0  0  0
    4.3814   46.7280   69.4976 H   0  0  0  0  0  0  0  0  0  0  0  0
    4.9964   47.1392   67.7533 H   0  0  0  0  0  0  0  0  0  0  0  0
    3.9893   45.1623   66.9207 H   0  0  0  0  0  0  0  0  0  0  0  0
    3.4030   44.7354   69.8299 H   0  0  0  0  0  0  0  0  0  0  0  0
    2.2583   44.1550   68.5732 H   0  0  0  0  0  0  0  0  0  0  0  0
    3.9597   43.5789   68.5732 H   0  0  0  0  0  0  0  0  0  0  0  0
    2.6680   48.3274   66.7990 H   0  0  0  0  0  0  0  0  0  0  0  0
    2.4691   46.4095   64.9012 H   0  0  0  0  0  0  0  0  0  0  0  0
    0.9626   46.1081   65.8119 H   0  0  0  0  0  0  0  0  0  0  0  0
    0.4324   47.6636   64.0686 H   0  0  0  0  0  0  0  0  0  0  0  0
    0.4781   48.5955   65.6008 H   0  0  0  0  0  0  0  0  0  0  0  0
    1.7183   49.8953   64.0575 H   0  0  0  0  0  0  0  0  0  0  0  0
    2.9566   49.0019   65.0604 H   0  0  0  0  0  0  0  0  0  0  0  0
    3.6297   47.6384   63.2814 H   0  0  0  0  0  0  0  0  0  0  0  0
    2.0698   47.8099   62.4073 H   0  0  0  0  0  0  0  0  0  0  0  0
    3.2527   49.1617   62.4073 H   0  0  0  0  0  0  0  0  0  0  0  0
  1  2  2  0
  1  6  1  0
  2  3  1  0
  3  4  2  0
  4  5  1  0
  5  6  2  0
  6  7  1  0
  7  8  1  0
  8  9  1  0
  8 10  1  0
  9 13  2  0
 10 12  2  0
 10 14  1  0
 11 12  1  0
 11 16  2  0
 12 13  1  0
 13 17  1  0
 14 15  2  0
 15 16  1  0
 17 18  2  0
 17 19  1  0
 19 20  1  0
 20 21  1  0
 21 22  1  0
 21 23  1  0
 23 24  1  0
 24 25  1  0
 24 26  1  0
 26 27  1  0
 26 28  1  0
 28 29  1  0
 29 30  1  0
 29 31  1  0
 31 32  2  0
 31 33  1  0
 33 34  1  0
 34 35  1  0
 35 36  1  0
 36 37  1  0
  1 38  1  0
  2 39  1  0
  3 40  1  0
  4 41  1  0
  5 42  1  0
  7 43  1  0
  7 44  1  0
  9 45  1  0
 11 46  1  0
 14 47  1  0
 15 48  1  0
 16 49  1  0
 20 50  1  0
 20 51  1  0
 21 52  1  0
 22 53  1  0
 22 54  1  0
 22 55  1  0
 23 56  1  0
 23 57  1  0
 24 58  1  0
 25 59  1  0
 25 60  1  0
 26 61  1  0
 27 62  1  0
 28 63  1  0
 28 64  1  0
 29 65  1  0
 30 66  1  0
 30 67  1  0
 30 68  1  0
 33 69  1  0
 34 70  1  0
 34 71  1  0
 35 72  1  0
 35 73  1  0
 36 74  1  0
 36 75  1  0
 37 76  1  0
 37 77  1  0
 37 78  1  0
A    1
C1
A    2
C2
A    3
C3
A    4
C4
A    5
C5
A    6
C6
A    7
C7
A    8
N8
A    9
C16
A   10
C9
A   11
C13
A   12
C14
A   13
C15
A   14
C10
A   15
C11
A   16
C12
A   17
C17
A   18
O18
A   19
O19
A   20
C20
A   21
C21
A   22
C22
A   23
C23
A   24
C24
A   25
N25
A   26
C26
A   27
O27
A   28
C28
A   29
C29
A   30
C30
A   31
C31
A   32
O32
A   33
N33
A   34
C34
A   35
C35
A   36
C36
A   37
C37
M  END
