2V13_C40_A_1341
     RDKit          3D

 76 76  0  0  0  0  0  0  0  0999 V2000
   86.2930   25.6350  -37.1600 C   0  0  0  0  0  0  0  0  0  0  0  0
   85.7010   25.6730  -35.8710 O   0  0  0  0  0  0  0  0  0  0  0  0
   84.7080   24.6970  -36.0060 C   0  0  0  0  0  0  0  0  0  0  0  0
   85.0570   23.5580  -35.0820 C   0  0  0  0  0  0  0  0  0  0  0  0
   83.6860   22.9810  -34.8030 C   0  0  0  0  0  0  0  0  0  0  0  0
   83.7070   21.7090  -34.1790 O   0  0  0  0  0  0  0  0  0  0  0  0
   82.7110   21.3470  -33.2880 C   0  0  0  0  0  0  0  0  0  0  0  0
   82.6060   22.1810  -32.1870 C   0  0  0  0  0  0  0  0  0  0  0  0
   81.5840   22.0740  -31.2900 C   0  0  0  0  0  0  0  0  0  0  0  0
   80.6400   21.1290  -31.4950 C   0  0  0  0  0  0  0  0  0  0  0  0
   80.7150   20.2900  -32.5850 C   0  0  0  0  0  0  0  0  0  0  0  0
   81.7410   20.3720  -33.4870 C   0  0  0  0  0  0  0  0  0  0  0  0
   81.8070   19.4940  -34.5830 C   0  0  0  0  0  0  0  0  0  0  0  0
   81.8310   18.2950  -34.3790 O   0  0  0  0  0  0  0  0  0  0  0  0
   82.9160   18.9620  -36.6150 C   0  0  0  0  0  0  0  0  0  0  0  0
   82.2470   19.8980  -35.7450 N   0  0  0  0  0  0  0  0  0  0  0  0
   80.9610   19.8110  -38.0050 C   0  0  0  0  0  0  0  0  0  0  0  0
   82.4140   19.2530  -37.9850 C   0  0  0  0  0  0  0  0  0  0  0  0
   82.4300   17.9810  -38.7790 C   0  0  0  0  0  0  0  0  0  0  0  0
   84.7680   18.2490  -39.2870 N   0  0  0  0  0  0  0  0  0  0  0  0
   83.7330   17.3190  -38.9240 C   0  0  0  0  0  0  0  0  0  0  0  0
   83.5650   16.3020  -40.0360 C   0  0  0  0  0  0  0  0  0  0  0  0
   83.9430   17.1050  -41.1570 O   0  0  0  0  0  0  0  0  0  0  0  0
   84.4860   15.0650  -39.9620 C   0  0  0  0  0  0  0  0  0  0  0  0
   84.5070   14.2200  -41.2130 C   0  0  0  0  0  0  0  0  0  0  0  0
   85.6480   13.2880  -41.2340 C   0  0  0  0  0  0  0  0  0  0  0  0
   83.3200   13.3510  -41.4160 C   0  0  0  0  0  0  0  0  0  0  0  0
   82.6970   12.9220  -40.4510 O   0  0  0  0  0  0  0  0  0  0  0  0
   81.7740   12.3730  -42.9820 C   0  0  0  0  0  0  0  0  0  0  0  0
   83.0160   13.0480  -42.6590 N   0  0  0  0  0  0  0  0  0  0  0  0
   80.5630   13.2390  -42.6730 C   0  0  0  0  0  0  0  0  0  0  0  0
   79.2890   12.7330  -43.3300 C   0  0  0  0  0  0  0  0  0  0  0  0
   78.8740   11.3490  -42.7430 C   0  0  0  0  0  0  0  0  0  0  0  0
   87.3862   25.5648  -37.0595 H   0  0  0  0  0  0  0  0  0  0  0  0
   85.9184   24.7591  -37.7099 H   0  0  0  0  0  0  0  0  0  0  0  0
   86.0334   26.5517  -37.7099 H   0  0  0  0  0  0  0  0  0  0  0  0
   83.7296   25.1172  -35.7300 H   0  0  0  0  0  0  0  0  0  0  0  0
   84.6518   24.3457  -37.0469 H   0  0  0  0  0  0  0  0  0  0  0  0
   85.7114   22.8240  -35.5750 H   0  0  0  0  0  0  0  0  0  0  0  0
   85.6138   23.8587  -34.1822 H   0  0  0  0  0  0  0  0  0  0  0  0
   83.1453   23.6785  -34.1463 H   0  0  0  0  0  0  0  0  0  0  0  0
   83.1953   22.8465  -35.7782 H   0  0  0  0  0  0  0  0  0  0  0  0
   83.3719   22.9550  -32.0309 H   0  0  0  0  0  0  0  0  0  0  0  0
   81.5294   22.7427  -30.4183 H   0  0  0  0  0  0  0  0  0  0  0  0
   79.8051   21.0289  -30.7859 H   0  0  0  0  0  0  0  0  0  0  0  0
   79.9297   19.5344  -32.7343 H   0  0  0  0  0  0  0  0  0  0  0  0
   84.0055   19.1061  -36.5675 H   0  0  0  0  0  0  0  0  0  0  0  0
   82.7141   17.9211  -36.3221 H   0  0  0  0  0  0  0  0  0  0  0  0
   82.1172   20.8770  -36.0375 H   0  0  0  0  0  0  0  0  0  0  0  0
   80.6063   19.9472  -36.9727 H   0  0  0  0  0  0  0  0  0  0  0  0
   80.9469   20.7785  -38.5282 H   0  0  0  0  0  0  0  0  0  0  0  0
   80.3030   19.1016  -38.5282 H   0  0  0  0  0  0  0  0  0  0  0  0
   83.0727   20.0242  -38.4109 H   0  0  0  0  0  0  0  0  0  0  0  0
   81.7468   17.2718  -38.2889 H   0  0  0  0  0  0  0  0  0  0  0  0
   82.1329   18.2686  -39.7983 H   0  0  0  0  0  0  0  0  0  0  0  0
   85.1974   18.6349  -38.4340 H   0  0  0  0  0  0  0  0  0  0  0  0
   85.4860   17.7636  -39.8435 H   0  0  0  0  0  0  0  0  0  0  0  0
   84.0322   16.8601  -37.9701 H   0  0  0  0  0  0  0  0  0  0  0  0
   82.5595   15.8558  -40.0332 H   0  0  0  0  0  0  0  0  0  0  0  0
   84.3419   17.9524  -40.8363 H   0  0  0  0  0  0  0  0  0  0  0  0
   85.5111   15.4120  -39.7654 H   0  0  0  0  0  0  0  0  0  0  0  0
   84.0852   14.4259  -39.1614 H   0  0  0  0  0  0  0  0  0  0  0  0
   84.5522   14.9857  -42.0015 H   0  0  0  0  0  0  0  0  0  0  0  0
   85.9434   13.0467  -40.2022 H   0  0  0  0  0  0  0  0  0  0  0  0
   85.3580   12.3652  -41.7577 H   0  0  0  0  0  0  0  0  0  0  0  0
   86.4944   13.7563  -41.7577 H   0  0  0  0  0  0  0  0  0  0  0  0
   81.7712   12.1266  -44.0540 H   0  0  0  0  0  0  0  0  0  0  0  0
   81.7095   11.4634  -42.3668 H   0  0  0  0  0  0  0  0  0  0  0  0
   83.6706   13.2941  -43.4152 H   0  0  0  0  0  0  0  0  0  0  0  0
   80.4128   13.2560  -41.5834 H   0  0  0  0  0  0  0  0  0  0  0  0
   80.7647   14.2429  -43.0749 H   0  0  0  0  0  0  0  0  0  0  0  0
   78.4800   13.4569  -43.1528 H   0  0  0  0  0  0  0  0  0  0  0  0
   79.4709   12.6178  -44.4087 H   0  0  0  0  0  0  0  0  0  0  0  0
   78.8885   11.3975  -41.6442 H   0  0  0  0  0  0  0  0  0  0  0  0
   77.8601   11.0946  -43.0854 H   0  0  0  0  0  0  0  0  0  0  0  0
   79.5807   10.5787  -43.0854 H   0  0  0  0  0  0  0  0  0  0  0  0
  1  2  1  0
  2  3  1  0
  3  4  1  0
  4  5  1  0
  5  6  1  0
  6  7  1  0
  7  8  2  0
  8  9  1  0
  9 10  2  0
 10 11  1  0
  7 12  1  0
 11 12  2  0
 12 13  1  0
 13 14  2  0
 13 16  1  0
 15 16  1  0
 15 18  1  0
 17 18  1  0
 18 19  1  0
 19 21  1  0
 20 21  1  0
 21 22  1  0
 22 23  1  0
 22 24  1  0
 24 25  1  0
 25 26  1  0
 25 27  1  0
 27 28  2  0
 27 30  1  0
 29 30  1  0
 29 31  1  0
 31 32  1  0
 32 33  1  0
  1 34  1  0
  1 35  1  0
  1 36  1  0
  3 37  1  0
  3 38  1  0
  4 39  1  0
  4 40  1  0
  5 41  1  0
  5 42  1  0
  8 43  1  0
  9 44  1  0
 10 45  1  0
 11 46  1  0
 15 47  1  0
 15 48  1  0
 16 49  1  0
 17 50  1  0
 17 51  1  0
 17 52  1  0
 18 53  1  0
 19 54  1  0
 19 55  1  0
 20 56  1  0
 20 57  1  0
 21 58  1  0
 22 59  1  0
 23 60  1  0
 24 61  1  0
 24 62  1  0
 25 63  1  0
 26 64  1  0
 26 65  1  0
 26 66  1  0
 29 67  1  0
 29 68  1  0
 30 69  1  0
 31 70  1  0
 31 71  1  0
 32 72  1  0
 32 73  1  0
 33 74  1  0
 33 75  1  0
 33 76  1  0
A    1
C1
A    2
O2
A    3
C3
A    4
C4
A    5
C5
A    6
O6
A    7
C7
A    8
C8
A    9
C9
A   10
C10
A   11
C11
A   12
C12
A   13
C13
A   14
O14
A   15
C16
A   16
N15
A   17
C18
A   18
C17
A   19
C19
A   20
N21
A   21
C20
A   22
C22
A   23
O23
A   24
C24
A   25
C25
A   26
C26
A   27
C27
A   28
O28
A   29
C30
A   30
N29
A   31
C31
A   32
C32
A   33
C33
M  END
