1INI_CDM_A_1001
     RDKit          3D

 58 59  0  0  0  0  0  0  0  0999 V2000
   48.9720  -15.3200   32.1290 N   0  0  0  0  0  0  0  0  0  0  0  0
   47.7110  -15.4550   32.8000 C   0  0  0  0  0  0  0  0  0  0  0  0
   47.6040  -16.2110   33.9290 N   0  0  0  0  0  0  0  0  0  0  0  0
   48.7590  -16.8830   34.4690 C   0  0  0  0  0  0  0  0  0  0  0  0
   50.0370  -16.7940   33.8540 C   0  0  0  0  0  0  0  0  0  0  0  0
   50.0860  -16.0080   32.7030 C   0  0  0  0  0  0  0  0  0  0  0  0
   46.6490  -14.9160   32.4220 O   0  0  0  0  0  0  0  0  0  0  0  0
   48.5910  -17.6090   35.5890 N   0  0  0  0  0  0  0  0  0  0  0  0
   49.1340  -14.4950   30.8910 C   0  0  0  0  0  0  0  0  0  0  0  0
   50.0550  -13.3190   31.1320 C   0  0  0  0  0  0  0  0  0  0  0  0
   49.3510  -12.3500   31.8550 O   0  0  0  0  0  0  0  0  0  0  0  0
   50.5290  -12.9410   29.7430 C   0  0  0  0  0  0  0  0  0  0  0  0
   50.3360  -14.2520   28.9430 C   0  0  0  0  0  0  0  0  0  0  0  0
   49.7350  -15.2100   29.8450 O   0  0  0  0  0  0  0  0  0  0  0  0
   49.6770  -11.9800   29.0800 O   0  0  0  0  0  0  0  0  0  0  0  0
   51.7390  -14.6790   28.5270 C   0  0  0  0  0  0  0  0  0  0  0  0
   52.4330  -15.0820   29.6740 O   0  0  0  0  0  0  0  0  0  0  0  0
   54.0560  -15.0770   29.8280 P   0  0  0  0  0  0  0  0  0  0  0  0
   54.4880  -13.6160   29.3980 O   0  0  0  0  0  0  0  0  0  0  0  0
   54.3460  -15.4580   31.4700 O   0  0  0  0  0  0  0  0  0  0  0  0
   54.4970  -16.1340   28.8790 O   0  0  0  0  0  0  0  0  0  0  0  0
   54.5850  -17.6120   28.6720 P   0  0  0  0  0  0  0  0  0  0  0  0
   53.3370  -18.2650   29.1790 O   0  0  0  0  0  0  0  0  0  0  0  0
   55.8390  -18.0870   29.4340 O   0  0  0  0  0  0  0  0  0  0  0  0
   54.6870  -18.2000   27.3000 O   0  0  0  0  0  0  0  0  0  0  0  0
   53.6360  -17.8270   26.4270 C   0  0  0  0  0  0  0  0  0  0  0  0
   54.0080  -18.4400   25.0910 C   0  0  0  0  0  0  0  0  0  0  0  0
   53.9690  -19.9410   25.3020 O   0  0  0  0  0  0  0  0  0  0  0  0
   53.0450  -18.0560   23.9110 C   0  0  0  0  0  0  0  0  0  0  0  0
   53.5140  -18.8420   22.7090 C   0  0  0  0  0  0  0  0  0  0  0  0
   51.5610  -18.3470   24.2710 C   0  0  0  0  0  0  0  0  0  0  0  0
   53.1820  -16.5970   23.5320 O   0  0  0  0  0  0  0  0  0  0  0  0
   54.9670  -18.4420   22.3350 O   0  0  0  0  0  0  0  0  0  0  0  0
   50.9227  -17.3074   34.2563 H   0  0  0  0  0  0  0  0  0  0  0  0
   51.0579  -15.9097   32.1972 H   0  0  0  0  0  0  0  0  0  0  0  0
   48.6941  -17.1634   36.5119 H   0  0  0  0  0  0  0  0  0  0  0  0
   48.3593  -18.6105   35.5237 H   0  0  0  0  0  0  0  0  0  0  0  0
   48.1129  -14.1830   30.6265 H   0  0  0  0  0  0  0  0  0  0  0  0
   50.9438  -13.5023   31.7537 H   0  0  0  0  0  0  0  0  0  0  0  0
   49.4685  -12.5117   32.8246 H   0  0  0  0  0  0  0  0  0  0  0  0
   51.5417  -12.5155   29.8012 H   0  0  0  0  0  0  0  0  0  0  0  0
   49.6924  -14.1545   28.0563 H   0  0  0  0  0  0  0  0  0  0  0  0
   49.1984  -11.4402   29.7580 H   0  0  0  0  0  0  0  0  0  0  0  0
   51.6777  -15.5159   27.8158 H   0  0  0  0  0  0  0  0  0  0  0  0
   52.2621  -13.8419   28.0416 H   0  0  0  0  0  0  0  0  0  0  0  0
   53.8592  -14.8185   32.0481 H   0  0  0  0  0  0  0  0  0  0  0  0
   53.3420  -18.2624   30.1690 H   0  0  0  0  0  0  0  0  0  0  0  0
   52.6754  -18.2275   26.7833 H   0  0  0  0  0  0  0  0  0  0  0  0
   53.5152  -16.7355   26.3644 H   0  0  0  0  0  0  0  0  0  0  0  0
   54.9952  -18.0590   24.7906 H   0  0  0  0  0  0  0  0  0  0  0  0
   53.9639  -20.1378   26.2722 H   0  0  0  0  0  0  0  0  0  0  0  0
   53.4826  -19.9163   22.9435 H   0  0  0  0  0  0  0  0  0  0  0  0
   52.8527  -18.6218   21.8580 H   0  0  0  0  0  0  0  0  0  0  0  0
   51.4467  -18.3694   25.3648 H   0  0  0  0  0  0  0  0  0  0  0  0
   50.9203  -17.5574   23.8515 H   0  0  0  0  0  0  0  0  0  0  0  0
   51.2660  -19.3201   23.8515 H   0  0  0  0  0  0  0  0  0  0  0  0
   53.2337  -16.0462   24.3530 H   0  0  0  0  0  0  0  0  0  0  0  0
   55.4925  -18.2973   23.1614 H   0  0  0  0  0  0  0  0  0  0  0  0
  1  2  1  0
  1  6  1  0
  1  9  1  0
  2  3  1  0
  2  7  2  0
  3  4  2  0
  4  5  1  0
  4  8  1  0
  5  6  2  0
  9 10  1  0
  9 14  1  0
 10 11  1  0
 10 12  1  0
 12 13  1  0
 12 15  1  0
 13 14  1  0
 13 16  1  0
 16 17  1  0
 17 18  1  0
 18 19  2  0
 18 20  1  0
 18 21  1  0
 21 22  1  0
 22 23  1  0
 22 24  2  0
 22 25  1  0
 25 26  1  0
 26 27  1  0
 27 28  1  0
 27 29  1  0
 29 30  1  0
 29 31  1  0
 29 32  1  0
 30 33  1  0
  5 34  1  0
  6 35  1  0
  8 36  1  0
  8 37  1  0
  9 38  1  0
 10 39  1  0
 11 40  1  0
 12 41  1  0
 13 42  1  0
 15 43  1  0
 16 44  1  0
 16 45  1  0
 20 46  1  0
 23 47  1  0
 26 48  1  0
 26 49  1  0
 27 50  1  0
 28 51  1  0
 30 52  1  0
 30 53  1  0
 31 54  1  0
 31 55  1  0
 31 56  1  0
 32 57  1  0
 33 58  1  0
A    1
N1
A    2
C2
A    3
N3
A    4
C4
A    5
C5
A    6
C6
A    7
O2
A    8
N4
A    9
C1'
A   10
C2'
A   11
O2'
A   12
C3'
A   13
C4'
A   14
O4'
A   15
O3'
A   16
C5'
A   17
O5'
A   18
PA
A   19
O1A
A   20
O2A
A   21
O3A
A   22
PB
A   23
O1B
A   24
O2B
A   25
O3B
A   26
C1M
A   27
C2M
A   28
O2M
A   29
C3M
A   30
C4M
A   31
C5M
A   32
O3M
A   33
O4M
M  END
