2V3H_I25_H_1246
     RDKit          3D

 65 66  0  0  0  0  0  0  0  0999 V2000
   16.5450  -11.0290   17.3850 O   0  0  0  0  0  0  0  0  0  0  0  0
   16.0290  -12.1890   17.5590 C   0  0  0  0  0  0  0  0  0  0  0  0
   16.0240  -13.1210   16.6850 O   0  0  0  0  0  0  0  0  0  0  0  0
   15.4300  -12.4950   18.8920 C   0  0  0  0  0  0  0  0  0  0  0  0
   15.0360  -11.2260   19.5370 N   0  0  0  0  0  0  0  0  0  0  0  0
   14.1040  -11.2530   20.5690 C   0  0  0  0  0  0  0  0  0  0  0  0
   13.7390  -10.0180   21.1330 C   0  0  0  0  0  0  0  0  0  0  0  0
   12.8250  -10.0040   22.1670 C   0  0  0  0  0  0  0  0  0  0  0  0
   12.2880  -11.2050   22.6230 C   0  0  0  0  0  0  0  0  0  0  0  0
   11.3310  -11.1520   23.6960 C   0  0  0  0  0  0  0  0  0  0  0  0
   10.5560  -12.2100   24.0080 N   0  0  0  0  0  0  0  0  0  0  0  0
   11.1600  -10.0300   24.4260 N   0  0  0  0  0  0  0  0  0  0  0  0
   12.6460  -12.4480   22.0520 C   0  0  0  0  0  0  0  0  0  0  0  0
   13.5620  -12.4700   21.0100 C   0  0  0  0  0  0  0  0  0  0  0  0
   16.4540  -13.2680   19.6640 C   0  0  0  0  0  0  0  0  0  0  0  0
   16.1850  -14.5990   19.9740 C   0  0  0  0  0  0  0  0  0  0  0  0
   17.6750  -12.6920   20.0230 C   0  0  0  0  0  0  0  0  0  0  0  0
   18.6200  -13.4480   20.7290 C   0  0  0  0  0  0  0  0  0  0  0  0
   19.9390  -12.8550   21.1220 C   0  0  0  0  0  0  0  0  0  0  0  0
   20.8470  -12.7800   19.8860 C   0  0  0  0  0  0  0  0  0  0  0  0
   18.3630  -14.7810   21.0540 C   0  0  0  0  0  0  0  0  0  0  0  0
   17.1430  -15.3350   20.6780 C   0  0  0  0  0  0  0  0  0  0  0  0
   16.8690  -16.6440   20.9900 O   0  0  0  0  0  0  0  0  0  0  0  0
   16.8590  -17.5080   19.8450 C   0  0  0  0  0  0  0  0  0  0  0  0
   16.3140  -18.9300   20.0980 C   0  0  0  0  0  0  0  0  0  0  0  0
   15.7160  -19.0870   21.5040 C   0  0  0  0  0  0  0  0  0  0  0  0
   15.1940  -19.1950   19.0880 C   0  0  0  0  0  0  0  0  0  0  0  0
   17.4000  -19.9950   19.8570 C   0  0  0  0  0  0  0  0  0  0  0  0
   18.6870  -19.7320   20.5420 N   0  0  0  0  0  0  0  0  0  0  0  0
   19.8060  -19.7180   19.5710 C   0  0  0  0  0  0  0  0  0  0  0  0
   18.9460  -20.7440   21.5840 C   0  0  0  0  0  0  0  0  0  0  0  0
   16.7916  -10.4745   18.1672 H   0  0  0  0  0  0  0  0  0  0  0  0
   14.5176  -13.1059   18.8257 H   0  0  0  0  0  0  0  0  0  0  0  0
   15.4458  -10.3334   19.2268 H   0  0  0  0  0  0  0  0  0  0  0  0
   14.1739   -9.0802   20.7571 H   0  0  0  0  0  0  0  0  0  0  0  0
   12.5232   -9.0516   22.6272 H   0  0  0  0  0  0  0  0  0  0  0  0
    9.8795  -12.1425   24.7817 H   0  0  0  0  0  0  0  0  0  0  0  0
   11.1674  -10.0788   25.4548 H   0  0  0  0  0  0  0  0  0  0  0  0
   11.0220   -9.1248   23.9544 H   0  0  0  0  0  0  0  0  0  0  0  0
   12.2052  -13.3830   22.4280 H   0  0  0  0  0  0  0  0  0  0  0  0
   13.8567  -13.4200   20.5402 H   0  0  0  0  0  0  0  0  0  0  0  0
   15.2352  -15.0632   19.6702 H   0  0  0  0  0  0  0  0  0  0  0  0
   17.8938  -11.6485   19.7523 H   0  0  0  0  0  0  0  0  0  0  0  0
   19.7822  -11.8437   21.5253 H   0  0  0  0  0  0  0  0  0  0  0  0
   20.4124  -13.4833   21.8908 H   0  0  0  0  0  0  0  0  0  0  0  0
   21.8958  -12.6934   20.2062 H   0  0  0  0  0  0  0  0  0  0  0  0
   20.7218  -13.6915   19.2832 H   0  0  0  0  0  0  0  0  0  0  0  0
   20.5739  -11.9014   19.2832 H   0  0  0  0  0  0  0  0  0  0  0  0
   19.1090  -15.3809   21.5959 H   0  0  0  0  0  0  0  0  0  0  0  0
   16.2361  -17.0380   19.0697 H   0  0  0  0  0  0  0  0  0  0  0  0
   17.9108  -17.6330   19.5484 H   0  0  0  0  0  0  0  0  0  0  0  0
   16.4915  -18.8834   22.2571 H   0  0  0  0  0  0  0  0  0  0  0  0
   14.8861  -18.3763   21.6309 H   0  0  0  0  0  0  0  0  0  0  0  0
   15.3422  -20.1137   21.6309 H   0  0  0  0  0  0  0  0  0  0  0  0
   14.2601  -19.4160   19.6257 H   0  0  0  0  0  0  0  0  0  0  0  0
   15.0518  -18.3057   18.4564 H   0  0  0  0  0  0  0  0  0  0  0  0
   15.4654  -20.0537   18.4564 H   0  0  0  0  0  0  0  0  0  0  0  0
   17.0152  -20.9630   20.2104 H   0  0  0  0  0  0  0  0  0  0  0  0
   17.6138  -19.9825   18.7780 H   0  0  0  0  0  0  0  0  0  0  0  0
   20.7625  -19.7060   20.1140 H   0  0  0  0  0  0  0  0  0  0  0  0
   19.7544  -20.6169   18.9390 H   0  0  0  0  0  0  0  0  0  0  0  0
   19.7319  -18.8207   18.9390 H   0  0  0  0  0  0  0  0  0  0  0  0
   18.8288  -20.2859   22.5772 H   0  0  0  0  0  0  0  0  0  0  0  0
   18.2311  -21.5729   21.4758 H   0  0  0  0  0  0  0  0  0  0  0  0
   19.9713  -21.1276   21.4758 H   0  0  0  0  0  0  0  0  0  0  0  0
  1  2  1  0
  2  3  2  0
  2  4  1  0
  4  5  1  0
  4 15  1  0
  5  6  1  0
  6  7  2  0
  6 14  1  0
  7  8  1  0
  8  9  2  0
  9 10  1  0
  9 13  1  0
 10 11  2  3
 10 12  1  0
 13 14  2  0
 15 16  2  0
 15 17  1  0
 16 22  1  0
 17 18  2  0
 18 19  1  0
 18 21  1  0
 19 20  1  0
 21 22  2  0
 22 23  1  0
 23 24  1  0
 24 25  1  0
 25 26  1  0
 25 27  1  0
 25 28  1  0
 28 29  1  0
 29 30  1  0
 29 31  1  0
  1 32  1  0
  4 33  1  0
  5 34  1  0
  7 35  1  0
  8 36  1  0
 11 37  1  0
 12 38  1  0
 12 39  1  0
 13 40  1  0
 14 41  1  0
 16 42  1  0
 17 43  1  0
 19 44  1  0
 19 45  1  0
 20 46  1  0
 20 47  1  0
 20 48  1  0
 21 49  1  0
 24 50  1  0
 24 51  1  0
 26 52  1  0
 26 53  1  0
 26 54  1  0
 27 55  1  0
 27 56  1  0
 27 57  1  0
 28 58  1  0
 28 59  1  0
 30 60  1  0
 30 61  1  0
 30 62  1  0
 31 63  1  0
 31 64  1  0
 31 65  1  0
A    1
O17
A    2
C15
A    3
O16
A    4
C13
A    5
N14
A    6
C1
A    7
C6
A    8
C4
A    9
C3
A   10
C18
A   11
N20
A   12
N19
A   13
C5
A   14
C2
A   15
C11
A   16
C8
A   17
C9
A   18
C10
A   19
C21
A   20
C22
A   21
C12
A   22
C7
A   23
O23
A   24
C24
A   25
C25
A   26
C26
A   27
C27
A   28
C28
A   29
N29
A   30
C31
A   31
C30
M  END
