2V3I_XX6_A_501
     RDKit          3D

 48 50  0  0  0  0  0  0  0  0999 V2000
   28.3860   57.8220   86.4110 O   0  0  0  0  0  0  0  0  0  0  0  0
   29.1010   58.5040   87.3740 C   0  0  0  0  0  0  0  0  0  0  0  0
   28.1640   58.8720   88.4990 C   0  0  0  0  0  0  0  0  0  0  0  0
   28.6240   60.2930   88.7630 C   0  0  0  0  0  0  0  0  0  0  0  0
   27.6500   61.1070   89.3860 O   0  0  0  0  0  0  0  0  0  0  0  0
   28.3400   58.1270   89.7900 N   0  0  0  0  0  0  0  0  0  0  0  0
   27.6290   56.8310   90.1450 C   0  0  0  0  0  0  0  0  0  0  0  0
   26.1630   56.7710   89.8100 C   0  0  0  0  0  0  0  0  0  0  0  0
   26.0970   56.2970   88.4680 O   0  0  0  0  0  0  0  0  0  0  0  0
   25.4750   55.7780   90.7160 C   0  0  0  0  0  0  0  0  0  0  0  0
   24.1640   55.5140   90.2580 O   0  0  0  0  0  0  0  0  0  0  0  0
   23.4070   54.6530   90.9700 C   0  0  0  0  0  0  0  0  0  0  0  0
   22.1960   54.2700   90.3810 C   0  0  0  0  0  0  0  0  0  0  0  0
   21.8830   54.7380   89.0890 C   0  0  0  0  0  0  0  0  0  0  0  0
   20.7370   54.3430   88.4450 C   0  0  0  0  0  0  0  0  0  0  0  0
   19.8990   53.4510   89.0880 C   0  0  0  0  0  0  0  0  0  0  0  0
   20.1740   52.9650   90.3670 C   0  0  0  0  0  0  0  0  0  0  0  0
   21.3610   53.3550   91.0130 C   0  0  0  0  0  0  0  0  0  0  0  0
   21.6750   52.9100   92.3010 C   0  0  0  0  0  0  0  0  0  0  0  0
   20.8210   51.9980   92.9720 C   0  0  0  0  0  0  0  0  0  0  0  0
   21.1930   51.5670   94.2460 C   0  0  0  0  0  0  0  0  0  0  0  0
   22.3600   51.9870   94.8680 C   0  0  0  0  0  0  0  0  0  0  0  0
   23.1930   52.8720   94.1980 C   0  0  0  0  0  0  0  0  0  0  0  0
   22.8680   53.3230   92.9090 C   0  0  0  0  0  0  0  0  0  0  0  0
   23.7300   54.2150   92.2490 C   0  0  0  0  0  0  0  0  0  0  0  0
   27.7436   57.2092   86.8491 H   0  0  0  0  0  0  0  0  0  0  0  0
   29.9086   57.8638   87.7587 H   0  0  0  0  0  0  0  0  0  0  0  0
   29.5430   59.4132   86.9404 H   0  0  0  0  0  0  0  0  0  0  0  0
   27.1212   58.6750   88.2096 H   0  0  0  0  0  0  0  0  0  0  0  0
   29.5100   60.2544   89.4138 H   0  0  0  0  0  0  0  0  0  0  0  0
   28.8371   60.7455   87.7833 H   0  0  0  0  0  0  0  0  0  0  0  0
   27.7382   61.0333   90.3693 H   0  0  0  0  0  0  0  0  0  0  0  0
   29.3462   57.9157   89.8518 H   0  0  0  0  0  0  0  0  0  0  0  0
   28.1311   56.0132   89.6073 H   0  0  0  0  0  0  0  0  0  0  0  0
   27.6869   56.7508   91.2405 H   0  0  0  0  0  0  0  0  0  0  0  0
   25.6767   57.7500   89.9329 H   0  0  0  0  0  0  0  0  0  0  0  0
   25.9605   55.3165   88.4707 H   0  0  0  0  0  0  0  0  0  0  0  0
   26.0498   54.8402   90.7277 H   0  0  0  0  0  0  0  0  0  0  0  0
   25.4187   56.2016   91.7296 H   0  0  0  0  0  0  0  0  0  0  0  0
   22.5710   55.4339   88.5865 H   0  0  0  0  0  0  0  0  0  0  0  0
   20.4918   54.7262   87.4435 H   0  0  0  0  0  0  0  0  0  0  0  0
   18.9863   53.1135   88.5751 H   0  0  0  0  0  0  0  0  0  0  0  0
   19.4690   52.2833   90.8653 H   0  0  0  0  0  0  0  0  0  0  0  0
   19.8928   51.6409   92.5020 H   0  0  0  0  0  0  0  0  0  0  0  0
   20.5342   50.8656   94.7789 H   0  0  0  0  0  0  0  0  0  0  0  0
   22.6202   51.6252   95.8737 H   0  0  0  0  0  0  0  0  0  0  0  0
   24.1165   53.2233   94.6815 H   0  0  0  0  0  0  0  0  0  0  0  0
   24.6510   54.5631   92.7395 H   0  0  0  0  0  0  0  0  0  0  0  0
  1  2  1  0
  2  3  1  0
  3  4  1  0
  3  6  1  0
  4  5  1  0
  6  7  1  0
  7  8  1  0
  8  9  1  0
  8 10  1  0
 10 11  1  0
 11 12  1  0
 12 13  2  0
 12 25  1  0
 13 14  1  0
 13 18  1  0
 14 15  2  0
 15 16  1  0
 16 17  2  0
 17 18  1  0
 18 19  2  0
 19 20  1  0
 19 24  1  0
 20 21  2  0
 21 22  1  0
 22 23  2  0
 23 24  1  0
 24 25  2  0
  1 26  1  0
  2 27  1  0
  2 28  1  0
  3 29  1  0
  4 30  1  0
  4 31  1  0
  5 32  1  0
  6 33  1  0
  7 34  1  0
  7 35  1  0
  8 36  1  0
  9 37  1  0
 10 38  1  0
 10 39  1  0
 14 40  1  0
 15 41  1  0
 16 42  1  0
 17 43  1  0
 20 44  1  0
 21 45  1  0
 22 46  1  0
 23 47  1  0
 25 48  1  0
A    1
O4
A    2
C19
A    3
C18
A    4
C20
A    5
O3
A    6
N
A    7
C17
A    8
C16
A    9
O2
A   10
C15
A   11
O1
A   12
C10
A   13
C5
A   14
C6
A   15
C1
A   16
C2
A   17
C3
A   18
C4
A   19
C7
A   20
C11
A   21
C12
A   22
C13
A   23
C14
A   24
C8
A   25
C9
M  END
