2V4C_KDN_A_1310
     RDKit          3D

 34 34  0  0  0  0  0  0  0  0999 V2000
    9.1070   -8.9370  -11.8990 C   0  0  0  0  0  0  0  0  0  0  0  0
    7.8190   -9.2120  -11.0820 C   0  0  0  0  0  0  0  0  0  0  0  0
   10.2250   -8.4060  -10.9780 C   0  0  0  0  0  0  0  0  0  0  0  0
   11.4100   -7.9680  -11.8580 C   0  0  0  0  0  0  0  0  0  0  0  0
   10.9030   -6.9280  -12.8670 C   0  0  0  0  0  0  0  0  0  0  0  0
    9.7410   -7.5290  -13.6940 C   0  0  0  0  0  0  0  0  0  0  0  0
    9.0850   -6.5600  -14.6700 C   0  0  0  0  0  0  0  0  0  0  0  0
    7.9350   -7.2870  -15.4000 C   0  0  0  0  0  0  0  0  0  0  0  0
    7.2510   -6.3430  -16.4200 C   0  0  0  0  0  0  0  0  0  0  0  0
   11.9810   -6.5060  -13.7560 O   0  0  0  0  0  0  0  0  0  0  0  0
    7.2320   -8.2000  -10.5610 O   0  0  0  0  0  0  0  0  0  0  0  0
    7.4230  -10.4110  -11.0580 O   0  0  0  0  0  0  0  0  0  0  0  0
   12.4480   -7.3900  -11.0510 O   0  0  0  0  0  0  0  0  0  0  0  0
    8.7080   -7.9960  -12.8110 O   0  0  0  0  0  0  0  0  0  0  0  0
    8.5440   -5.3930  -14.0030 O   0  0  0  0  0  0  0  0  0  0  0  0
    8.4160   -8.4930  -16.0420 O   0  0  0  0  0  0  0  0  0  0  0  0
    8.2090   -5.8410  -17.3860 O   0  0  0  0  0  0  0  0  0  0  0  0
    9.5490  -10.1240  -12.5470 O   0  0  0  0  0  0  0  0  0  0  0  0
    9.8538   -7.5470  -10.3998 H   0  0  0  0  0  0  0  0  0  0  0  0
   10.5437   -9.1919  -10.2774 H   0  0  0  0  0  0  0  0  0  0  0  0
   11.8246   -8.8422  -12.3814 H   0  0  0  0  0  0  0  0  0  0  0  0
   10.5423   -6.0471  -12.3156 H   0  0  0  0  0  0  0  0  0  0  0  0
   10.2016   -8.3370  -14.2814 H   0  0  0  0  0  0  0  0  0  0  0  0
    9.8578   -6.2213  -15.3758 H   0  0  0  0  0  0  0  0  0  0  0  0
    7.1816   -7.5807  -14.6542 H   0  0  0  0  0  0  0  0  0  0  0  0
    6.4621   -6.8968  -16.9500 H   0  0  0  0  0  0  0  0  0  0  0  0
    6.8223   -5.4891  -15.8749 H   0  0  0  0  0  0  0  0  0  0  0  0
   12.7541   -6.2034  -13.2167 H   0  0  0  0  0  0  0  0  0  0  0  0
    7.2729  -10.8655  -10.1914 H   0  0  0  0  0  0  0  0  0  0  0  0
   12.2283   -7.5123  -10.0935 H   0  0  0  0  0  0  0  0  0  0  0  0
    8.6015   -5.5170  -13.0225 H   0  0  0  0  0  0  0  0  0  0  0  0
    8.6788   -9.1520  -15.3516 H   0  0  0  0  0  0  0  0  0  0  0  0
    8.9777   -5.4382  -16.9097 H   0  0  0  0  0  0  0  0  0  0  0  0
    9.7999  -10.7977  -11.8663 H   0  0  0  0  0  0  0  0  0  0  0  0
  1  3  1  0
  1 18  1  0
  1 14  1  0
  1  2  1  0
  3  4  1  0
  4  5  1  0
  4 13  1  0
  5  6  1  0
  5 10  1  0
  6  7  1  0
  6 14  1  0
  7  8  1  0
  7 15  1  0
  8 16  1  0
  8  9  1  0
 12  2  1  0
 11  2  2  0
 17  9  1  0
  3 19  1  0
  3 20  1  0
  4 21  1  0
  5 22  1  0
  6 23  1  0
  7 24  1  0
  8 25  1  0
  9 26  1  0
  9 27  1  0
 10 28  1  0
 12 29  1  0
 13 30  1  0
 15 31  1  0
 16 32  1  0
 17 33  1  0
 18 34  1  0
A    1
C1
A    2
C10
A    3
C2
A    4
C3
A    5
C4
A    6
C5
A    7
C6
A    8
C7
A    9
C9
A   10
O4
A   11
O9
A   12
O8
A   13
O3
A   14
O5
A   15
O6
A   16
O7
A   17
O10
A   18
O1
M  END
