2V5Z_SAG_A_1503
     RDKit          3D

 39 40  0  0  0  0  0  0  0  0999 V2000
   47.1730  160.0360   32.0130 F   0  0  0  0  0  0  0  0  0  0  0  0
   48.4510  160.3040   31.8110 C   0  0  0  0  0  0  0  0  0  0  0  0
   49.1780  159.5640   30.9480 C   0  0  0  0  0  0  0  0  0  0  0  0
   49.0320  161.3200   32.4750 C   0  0  0  0  0  0  0  0  0  0  0  0
   50.3260  161.5980   32.2790 C   0  0  0  0  0  0  0  0  0  0  0  0
   51.0510  160.8720   31.4200 C   0  0  0  0  0  0  0  0  0  0  0  0
   50.4820  159.8480   30.7510 C   0  0  0  0  0  0  0  0  0  0  0  0
   51.3260  159.0300   29.7870 C   0  0  0  0  0  0  0  0  0  0  0  0
   51.0800  157.6280   29.9730 O   0  0  0  0  0  0  0  0  0  0  0  0
   51.5670  156.6400   29.1290 C   0  0  0  0  0  0  0  0  0  0  0  0
   52.5190  156.8860   28.1280 C   0  0  0  0  0  0  0  0  0  0  0  0
   52.9680  155.8440   27.2980 C   0  0  0  0  0  0  0  0  0  0  0  0
   51.0820  155.3440   29.2870 C   0  0  0  0  0  0  0  0  0  0  0  0
   51.5350  154.3090   28.4660 C   0  0  0  0  0  0  0  0  0  0  0  0
   52.4800  154.5360   27.4630 C   0  0  0  0  0  0  0  0  0  0  0  0
   52.8510  153.5100   26.7390 C   0  0  0  0  0  0  0  0  0  0  0  0
   53.7270  153.6890   25.9780 N   0  0  0  0  0  0  0  0  0  0  0  0
   53.9980  152.7180   24.9280 C   0  0  0  0  0  0  0  0  0  0  0  0
   54.1690  153.4200   23.5830 C   0  0  0  0  0  0  0  0  0  0  0  0
   55.2460  151.9280   25.2050 C   0  0  0  0  0  0  0  0  0  0  0  0
   55.3210  150.7680   24.8150 O   0  0  0  0  0  0  0  0  0  0  0  0
   56.2530  152.5120   25.8610 N   0  0  0  0  0  0  0  0  0  0  0  0
   48.7080  158.7303   30.4058 H   0  0  0  0  0  0  0  0  0  0  0  0
   48.4418  161.9233   33.1805 H   0  0  0  0  0  0  0  0  0  0  0  0
   50.7964  162.4278   32.8269 H   0  0  0  0  0  0  0  0  0  0  0  0
   52.1127  161.1106   31.2591 H   0  0  0  0  0  0  0  0  0  0  0  0
   51.0700  159.3091   28.7543 H   0  0  0  0  0  0  0  0  0  0  0  0
   52.3892  159.2348   29.9811 H   0  0  0  0  0  0  0  0  0  0  0  0
   52.9172  157.9023   27.9916 H   0  0  0  0  0  0  0  0  0  0  0  0
   53.7082  156.0541   26.5119 H   0  0  0  0  0  0  0  0  0  0  0  0
   50.3347  155.1335   30.0662 H   0  0  0  0  0  0  0  0  0  0  0  0
   51.1390  153.2933   28.6125 H   0  0  0  0  0  0  0  0  0  0  0  0
   52.3655  152.5280   26.8389 H   0  0  0  0  0  0  0  0  0  0  0  0
   53.1372  152.0337   24.8998 H   0  0  0  0  0  0  0  0  0  0  0  0
   54.4263  154.4762   23.7508 H   0  0  0  0  0  0  0  0  0  0  0  0
   54.9746  152.9322   23.0146 H   0  0  0  0  0  0  0  0  0  0  0  0
   53.2293  153.3573   23.0146 H   0  0  0  0  0  0  0  0  0  0  0  0
   56.2623  152.5174   26.8909 H   0  0  0  0  0  0  0  0  0  0  0  0
   57.0199  152.9568   25.3367 H   0  0  0  0  0  0  0  0  0  0  0  0
  1  2  1  0
  2  3  2  0
  2  4  1  0
  3  7  1  0
  4  5  2  0
  5  6  1  0
  6  7  2  0
  7  8  1  0
  8  9  1  0
  9 10  1  0
 10 11  2  0
 10 13  1  0
 11 12  1  0
 12 15  2  0
 13 14  2  0
 14 15  1  0
 15 16  1  0
 16 17  2  0
 17 18  1  0
 18 19  1  0
 18 20  1  0
 20 21  2  0
 20 22  1  0
  3 23  1  0
  4 24  1  0
  5 25  1  0
  6 26  1  0
  8 27  1  0
  8 28  1  0
 11 29  1  0
 12 30  1  0
 13 31  1  0
 14 32  1  0
 16 33  1  0
 18 34  1  0
 19 35  1  0
 19 36  1  0
 19 37  1  0
 22 38  1  0
 22 39  1  0
A    1
F3
A    2
C3
A    3
C2
A    4
C4
A    5
C5
A    6
C6
A    7
C1
A    8
C7
A    9
O8
A   10
C9
A   11
C10
A   12
C11
A   13
C14
A   14
C13
A   15
C12
A   16
C15
A   17
N16
A   18
C17
A   19
C18
A   20
C19
A   21
O20
A   22
N21
M  END
