2V7O_DRN_A_1303
     RDKit          3D

 56 60  0  0  0  0  0  0  0  0999 V2000
  -22.1340  -29.9670  -13.2250 C   0  0  0  0  0  0  0  0  0  0  0  0
  -22.7730  -30.5400  -14.2510 N   0  0  0  0  0  0  0  0  0  0  0  0
  -19.4580  -28.6430  -10.9970 C   0  0  0  0  0  0  0  0  0  0  0  0
  -19.7060  -29.7950  -11.9550 C   0  0  0  0  0  0  0  0  0  0  0  0
  -14.3110  -26.5070  -15.4060 C   0  0  0  0  0  0  0  0  0  0  0  0
  -14.7290  -26.2960  -13.9760 N   0  0  0  0  0  0  0  0  0  0  0  0
  -13.9070  -26.3420  -12.9260 C   0  0  0  0  0  0  0  0  0  0  0  0
  -15.9740  -26.0220  -13.5880 C   0  0  0  0  0  0  0  0  0  0  0  0
  -17.1680  -25.8590  -14.2970 C   0  0  0  0  0  0  0  0  0  0  0  0
  -18.3400  -25.5670  -13.6060 C   0  0  0  0  0  0  0  0  0  0  0  0
  -18.3270  -25.4310  -12.2130 C   0  0  0  0  0  0  0  0  0  0  0  0
  -17.1300  -25.5860  -11.5160 C   0  0  0  0  0  0  0  0  0  0  0  0
  -15.9460  -25.8900  -12.2000 C   0  0  0  0  0  0  0  0  0  0  0  0
  -14.6140  -26.1080  -11.8080 C   0  0  0  0  0  0  0  0  0  0  0  0
  -14.1050  -26.0740  -10.4870 C   0  0  0  0  0  0  0  0  0  0  0  0
  -12.8280  -25.6260  -10.1440 C   0  0  0  0  0  0  0  0  0  0  0  0
  -11.9940  -25.1790  -10.9300 O   0  0  0  0  0  0  0  0  0  0  0  0
  -12.6400  -25.7090   -8.8240 N   0  0  0  0  0  0  0  0  0  0  0  0
  -13.7430  -26.2220   -8.2740 C   0  0  0  0  0  0  0  0  0  0  0  0
  -13.8790  -26.4350   -7.0610 O   0  0  0  0  0  0  0  0  0  0  0  0
  -14.6880  -26.4650   -9.2740 C   0  0  0  0  0  0  0  0  0  0  0  0
  -15.9720  -26.9880   -9.0840 C   0  0  0  0  0  0  0  0  0  0  0  0
  -16.8690  -26.5240   -8.1150 C   0  0  0  0  0  0  0  0  0  0  0  0
  -16.8110  -25.5390   -7.1240 C   0  0  0  0  0  0  0  0  0  0  0  0
  -17.9020  -25.3140   -6.2890 C   0  0  0  0  0  0  0  0  0  0  0  0
  -19.0540  -26.0710   -6.4470 C   0  0  0  0  0  0  0  0  0  0  0  0
  -19.1070  -27.0510   -7.4350 C   0  0  0  0  0  0  0  0  0  0  0  0
  -18.0200  -27.2870   -8.2670 C   0  0  0  0  0  0  0  0  0  0  0  0
  -17.7810  -28.1230   -9.2790 N   0  0  0  0  0  0  0  0  0  0  0  0
  -16.5590  -27.9630   -9.7680 C   0  0  0  0  0  0  0  0  0  0  0  0
  -18.6980  -29.1460   -9.7940 C   0  0  0  0  0  0  0  0  0  0  0  0
  -20.5360  -29.2450  -13.4920 S   0  0  0  0  0  0  0  0  0  0  0  0
  -22.7040  -29.9430  -12.0110 N   0  0  0  0  0  0  0  0  0  0  0  0
  -23.7014  -30.9626  -14.1082 H   0  0  0  0  0  0  0  0  0  0  0  0
  -18.8690  -27.8644  -11.5039 H   0  0  0  0  0  0  0  0  0  0  0  0
  -20.4207  -28.2208  -10.6731 H   0  0  0  0  0  0  0  0  0  0  0  0
  -18.7407  -30.2525  -12.2172 H   0  0  0  0  0  0  0  0  0  0  0  0
  -20.3663  -30.5174  -11.4529 H   0  0  0  0  0  0  0  0  0  0  0  0
  -13.3293  -27.0026  -15.4317 H   0  0  0  0  0  0  0  0  0  0  0  0
  -15.0538  -27.1381  -15.9158 H   0  0  0  0  0  0  0  0  0  0  0  0
  -14.2443  -25.5346  -15.9158 H   0  0  0  0  0  0  0  0  0  0  0  0
  -12.8257  -26.5395  -12.9689 H   0  0  0  0  0  0  0  0  0  0  0  0
  -17.1808  -25.9608  -15.3922 H   0  0  0  0  0  0  0  0  0  0  0  0
  -19.2831  -25.4422  -14.1583 H   0  0  0  0  0  0  0  0  0  0  0  0
  -19.2567  -25.2030  -11.6711 H   0  0  0  0  0  0  0  0  0  0  0  0
  -17.1150  -25.4689  -10.4224 H   0  0  0  0  0  0  0  0  0  0  0  0
  -11.7893  -25.4256   -8.3171 H   0  0  0  0  0  0  0  0  0  0  0  0
  -15.8975  -24.9382   -7.0035 H   0  0  0  0  0  0  0  0  0  0  0  0
  -17.8510  -24.5406   -5.5085 H   0  0  0  0  0  0  0  0  0  0  0  0
  -19.9223  -25.8977   -5.7942 H   0  0  0  0  0  0  0  0  0  0  0  0
  -20.0233  -27.6470   -7.5584 H   0  0  0  0  0  0  0  0  0  0  0  0
  -16.1112  -28.5360  -10.5934 H   0  0  0  0  0  0  0  0  0  0  0  0
  -19.4145  -29.4157   -9.0042 H   0  0  0  0  0  0  0  0  0  0  0  0
  -18.1066  -30.0224  -10.0975 H   0  0  0  0  0  0  0  0  0  0  0  0
  -22.1163  -29.9677  -11.1655 H   0  0  0  0  0  0  0  0  0  0  0  0
  -23.7294  -29.8998  -11.9243 H   0  0  0  0  0  0  0  0  0  0  0  0
  1  2  2  3
  1 32  1  0
  1 33  1  0
  3  4  1  0
  3 31  1  0
  4 32  1  0
  5  6  1  0
  6  7  1  0
  6  8  1  0
  7 14  2  0
  8  9  2  0
  8 13  1  0
  9 10  1  0
 10 11  2  0
 11 12  1  0
 12 13  2  0
 13 14  1  0
 14 15  1  0
 15 16  1  0
 15 21  2  0
 16 17  2  0
 16 18  1  0
 18 19  1  0
 19 20  2  0
 19 21  1  0
 21 22  1  0
 22 23  1  0
 22 30  2  0
 23 24  2  0
 23 28  1  0
 24 25  1  0
 25 26  2  0
 26 27  1  0
 27 28  2  0
 28 29  1  0
 29 30  1  0
 29 31  1  0
  2 34  1  0
  3 35  1  0
  3 36  1  0
  4 37  1  0
  4 38  1  0
  5 39  1  0
  5 40  1  0
  5 41  1  0
  7 42  1  0
  9 43  1  0
 10 44  1  0
 11 45  1  0
 12 46  1  0
 18 47  1  0
 24 48  1  0
 25 49  1  0
 26 50  1  0
 27 51  1  0
 30 52  1  0
 31 53  1  0
 31 54  1  0
 33 55  1  0
 33 56  1  0
A    1
CBD
A    2
NBC
A    3
CBF
A    4
CBE
A    5
CAY
A    6
NAH
A    7
CAW
A    8
CAE
A    9
CAF
A   10
CAA
A   11
CAB
A   12
CAC
A   13
CAD
A   14
CAG
A   15
CAI
A   16
CAT
A   17
OAZ
A   18
NAU
A   19
CAV
A   20
OAX
A   21
CAJ
A   22
CAK
A   23
CAM
A   24
CAP
A   25
CAQ
A   26
CAR
A   27
CAS
A   28
CAN
A   29
NAO
A   30
CAL
A   31
CA0
A   32
SAT
A   33
NAB
M  END
