2VBA_P4T_A_1405
     RDKit          3D

 28 29  0  0  0  0  0  0  0  0999 V2000
   41.8960   69.6860   64.7120 N   0  0  0  0  0  0  0  0  0  0  0  0
   40.5730   69.9040   64.5970 C   0  0  0  0  0  0  0  0  0  0  0  0
   39.5920   69.0510   65.0340 N   0  0  0  0  0  0  0  0  0  0  0  0
   42.6290   70.7010   64.1770 C   0  0  0  0  0  0  0  0  0  0  0  0
   41.7210   71.7270   63.5900 C   0  0  0  0  0  0  0  0  0  0  0  0
   42.0220   73.0310   62.8980 C   0  0  0  0  0  0  0  0  0  0  0  0
   44.1270   70.7420   64.1830 C   0  0  0  0  0  0  0  0  0  0  0  0
   39.6590   67.8230   65.7050 C   0  0  0  0  0  0  0  0  0  0  0  0
   38.5050   67.3760   66.3720 C   0  0  0  0  0  0  0  0  0  0  0  0
   38.5070   66.1550   67.0750 C   0  0  0  0  0  0  0  0  0  0  0  0
   39.6590   65.3730   67.0820 C   0  0  0  0  0  0  0  0  0  0  0  0
   40.7940   65.8160   66.4030 C   0  0  0  0  0  0  0  0  0  0  0  0
   40.8070   67.0340   65.7090 C   0  0  0  0  0  0  0  0  0  0  0  0
   40.0450   71.3360   63.7750 S   0  0  0  0  0  0  0  0  0  0  0  0
   43.4480   73.4440   62.7320 C   0  0  0  0  0  0  0  0  0  0  0  0
   41.1070   73.7350   62.4680 O   0  0  0  0  0  0  0  0  0  0  0  0
   38.6338   69.3707   64.8327 H   0  0  0  0  0  0  0  0  0  0  0  0
   44.4894   70.7519   65.2216 H   0  0  0  0  0  0  0  0  0  0  0  0
   44.5202   69.8543   63.6659 H   0  0  0  0  0  0  0  0  0  0  0  0
   44.4710   71.6499   63.6659 H   0  0  0  0  0  0  0  0  0  0  0  0
   37.5903   67.9864   66.3447 H   0  0  0  0  0  0  0  0  0  0  0  0
   37.6070   65.8227   67.6132 H   0  0  0  0  0  0  0  0  0  0  0  0
   39.6739   64.4131   67.6190 H   0  0  0  0  0  0  0  0  0  0  0  0
   41.7014   65.1943   66.4123 H   0  0  0  0  0  0  0  0  0  0  0  0
   41.7111   67.3621   65.1751 H   0  0  0  0  0  0  0  0  0  0  0  0
   43.9087   73.5774   63.7219 H   0  0  0  0  0  0  0  0  0  0  0  0
   43.9925   72.6666   62.1759 H   0  0  0  0  0  0  0  0  0  0  0  0
   43.4928   74.3920   62.1759 H   0  0  0  0  0  0  0  0  0  0  0  0
  1  2  2  0
  1  4  1  0
  2  3  1  0
  2 14  1  0
  3  8  1  0
  4  5  2  0
  4  7  1  0
  5  6  1  0
  5 14  1  0
  6 15  1  0
  6 16  2  0
  8  9  2  0
  8 13  1  0
  9 10  1  0
 10 11  2  0
 11 12  1  0
 12 13  2  0
  3 17  1  0
  7 18  1  0
  7 19  1  0
  7 20  1  0
  9 21  1  0
 10 22  1  0
 11 23  1  0
 12 24  1  0
 13 25  1  0
 15 26  1  0
 15 27  1  0
 15 28  1  0
A    1
N7
A    2
C8
A    3
N9
A    4
C5
A    5
C4
A    6
C3
A    7
C6
A    8
C10
A    9
C16
A   10
C15
A   11
C14
A   12
C13
A   13
C12
A   14
S4
A   15
C2
A   16
O8
M  END
