2VBD_V10_A_1333
     RDKit          3D

 46 45  0  0  0  0  0  0  0  0999 V2000
   18.2700   36.3540    6.3650 O   0  0  0  0  0  0  0  0  0  0  0  0
   17.2820   36.2440    5.5770 C   0  0  0  0  0  0  0  0  0  0  0  0
   17.3780   35.9620    4.3610 O   0  0  0  0  0  0  0  0  0  0  0  0
   15.8720   36.4190    6.0700 C   0  0  0  0  0  0  0  0  0  0  0  0
   15.7330   36.4790    7.5280 N   0  0  0  0  0  0  0  0  0  0  0  0
   15.3040   37.6740    5.4010 C   0  0  0  0  0  0  0  0  0  0  0  0
   13.8720   37.9380    5.9590 C   0  0  0  0  0  0  0  0  0  0  0  0
   13.3720   39.2310    5.3310 C   0  0  0  0  0  0  0  0  0  0  0  0
   12.0080   39.6730    5.7290 C   0  0  0  0  0  0  0  0  0  0  0  0
   11.7470   40.0200    6.8800 O   0  0  0  0  0  0  0  0  0  0  0  0
   11.0950   39.6690    4.7520 N   0  0  0  0  0  0  0  0  0  0  0  0
    9.7440   40.1290    5.1430 C   0  0  0  0  0  0  0  0  0  0  0  0
    9.1330   40.7910    3.9150 C   0  0  0  0  0  0  0  0  0  0  0  0
    9.3020   39.7380    2.4410 S   0  0  0  0  0  0  0  0  0  0  0  0
    8.9190   38.9770    5.6160 C   0  0  0  0  0  0  0  0  0  0  0  0
    9.3660   37.8580    5.8310 O   0  0  0  0  0  0  0  0  0  0  0  0
    7.5520   39.3000    5.8070 O   0  0  0  0  0  0  0  0  0  0  0  0
    6.6860   38.3860    6.4180 C   0  0  0  0  0  0  0  0  0  0  0  0
    5.5880   38.0840    5.4510 C   0  0  0  0  0  0  0  0  0  0  0  0
    4.6010   37.4040    5.8570 O   0  0  0  0  0  0  0  0  0  0  0  0
    5.7220   38.5350    4.2910 O   0  0  0  0  0  0  0  0  0  0  0  0
    6.0980   39.1220    7.6020 C   0  0  0  0  0  0  0  0  0  0  0  0
    7.2020   39.2320    8.9380 S   0  0  0  0  0  0  0  0  0  0  0  0
    7.9640   37.6230    9.2140 C   0  0  0  0  0  0  0  0  0  0  0  0
   18.1262   36.3380    7.3444 H   0  0  0  0  0  0  0  0  0  0  0  0
   15.3020   35.5201    5.7922 H   0  0  0  0  0  0  0  0  0  0  0  0
   16.5873   36.1103    7.9698 H   0  0  0  0  0  0  0  0  0  0  0  0
   15.5903   37.4566    7.8194 H   0  0  0  0  0  0  0  0  0  0  0  0
   15.9513   38.5356    5.6219 H   0  0  0  0  0  0  0  0  0  0  0  0
   15.2591   37.5284    4.3116 H   0  0  0  0  0  0  0  0  0  0  0  0
   13.2042   37.1063    5.6902 H   0  0  0  0  0  0  0  0  0  0  0  0
   13.8907   38.0199    7.0558 H   0  0  0  0  0  0  0  0  0  0  0  0
   14.0764   40.0305    5.6042 H   0  0  0  0  0  0  0  0  0  0  0  0
   13.3113   39.0284    4.2515 H   0  0  0  0  0  0  0  0  0  0  0  0
   11.3170   39.3664    3.7928 H   0  0  0  0  0  0  0  0  0  0  0  0
    9.7888   40.8450    5.9768 H   0  0  0  0  0  0  0  0  0  0  0  0
    8.0650   40.9761    4.1022 H   0  0  0  0  0  0  0  0  0  0  0  0
    9.6658   41.7353    3.7292 H   0  0  0  0  0  0  0  0  0  0  0  0
    9.5102   38.4405    2.8282 H   0  0  0  0  0  0  0  0  0  0  0  0
    7.1879   37.4541    6.7176 H   0  0  0  0  0  0  0  0  0  0  0  0
    4.4414   37.2941    6.8279 H   0  0  0  0  0  0  0  0  0  0  0  0
    5.8271   40.1398    7.2846 H   0  0  0  0  0  0  0  0  0  0  0  0
    5.2192   38.5549    7.9428 H   0  0  0  0  0  0  0  0  0  0  0  0
    8.0511   37.4391   10.2950 H   0  0  0  0  0  0  0  0  0  0  0  0
    7.3414   36.8393    8.7577 H   0  0  0  0  0  0  0  0  0  0  0  0
    8.9648   37.6081    8.7577 H   0  0  0  0  0  0  0  0  0  0  0  0
  1  2  1  0
  2  3  2  0
  2  4  1  0
  4  5  1  0
  4  6  1  0
  6  7  1  0
  7  8  1  0
  8  9  1  0
  9 10  2  0
  9 11  1  0
 11 12  1  0
 12 13  1  0
 12 15  1  0
 13 14  1  0
 15 16  2  0
 15 17  1  0
 17 18  1  0
 18 19  1  0
 18 22  1  0
 19 20  1  0
 19 21  2  0
 22 23  1  0
 23 24  1  0
  1 25  1  0
  4 26  1  0
  5 27  1  0
  5 28  1  0
  6 29  1  0
  6 30  1  0
  7 31  1  0
  7 32  1  0
  8 33  1  0
  8 34  1  0
 11 35  1  0
 12 36  1  0
 13 37  1  0
 13 38  1  0
 14 39  1  0
 18 40  1  0
 20 41  1  0
 22 42  1  0
 22 43  1  0
 24 44  1  0
 24 45  1  0
 24 46  1  0
A    1
O
A    2
C
A    3
OXT
A    4
CA
A    5
N
A    6
CB
A    7
CAJ
A    8
CAL
A    9
CAT
A   10
OAE
A   11
NAO
A   12
CAW
A   13
CAK
A   14
SAI
A   15
CAU
A   16
OAF
A   17
OAP
A   18
CAX
A   19
CAS
A   20
OAD
A   21
OAH
A   22
CAN
A   23
SAQ
A   24
CAA
M  END
