1W6F_ISZ_A_1276
     RDKit          3D

 15 15  0  0  0  0  0  0  0  0999 V2000
   21.5650   10.5860   22.0020 C   0  0  0  0  0  0  0  0  0  0  0  0
   22.3800   10.7180   23.1330 C   0  0  0  0  0  0  0  0  0  0  0  0
   23.7170   10.6830   23.0230 N   0  0  0  0  0  0  0  0  0  0  0  0
   24.3390   10.4900   21.8680 C   0  0  0  0  0  0  0  0  0  0  0  0
   23.5790   10.3460   20.7000 C   0  0  0  0  0  0  0  0  0  0  0  0
   22.1740   10.4120   20.7560 C   0  0  0  0  0  0  0  0  0  0  0  0
   21.3230   10.1800   19.4730 C   0  0  0  0  0  0  0  0  0  0  0  0
   20.1380    9.8810   19.5240 O   0  0  0  0  0  0  0  0  0  0  0  0
   21.9620   10.2010   18.3070 N   0  0  0  0  0  0  0  0  0  0  0  0
   21.2970    9.9750   17.2830 N   0  0  0  0  0  0  0  0  0  0  0  0
   20.4692   10.6185   22.0922 H   0  0  0  0  0  0  0  0  0  0  0  0
   21.9191   10.8519   24.1228 H   0  0  0  0  0  0  0  0  0  0  0  0
   25.4373   10.4436   21.8275 H   0  0  0  0  0  0  0  0  0  0  0  0
   24.0819   10.1808   19.7358 H   0  0  0  0  0  0  0  0  0  0  0  0
   21.7542    9.9819   16.3601 H   0  0  0  0  0  0  0  0  0  0  0  0
  1  2  2  0
  1  6  1  0
  2  3  1  0
  3  4  2  0
  4  5  1  0
  5  6  2  0
  6  7  1  0
  7  8  2  0
  7  9  1  0
  9 10  2  3
  1 11  1  0
  2 12  1  0
  4 13  1  0
  5 14  1  0
 10 15  1  0
A    1
C2
A    2
C4
A    3
N1
A    4
C5
A    5
C3
A    6
C1
A    7
C6
A    8
O1
A    9
N2
A   10
N3
M  END
