2VCI_2GJ_A_1225
     RDKit          3D

 65 68  0  0  0  0  0  0  0  0999 V2000
   35.4870    4.9960   21.3240 C   0  0  0  0  0  0  0  0  0  0  0  0
   35.9860    3.5600   21.0790 C   0  0  0  0  0  0  0  0  0  0  0  0
   36.8710    3.2020   22.1750 O   0  0  0  0  0  0  0  0  0  0  0  0
   36.1890    3.1500   23.4720 C   0  0  0  0  0  0  0  0  0  0  0  0
   35.6590    4.5420   23.8420 C   0  0  0  0  0  0  0  0  0  0  0  0
   34.9570    5.2020   22.7050 N   0  0  0  0  0  0  0  0  0  0  0  0
   35.1460    6.6380   22.9490 C   0  0  0  0  0  0  0  0  0  0  0  0
   34.0970    7.1990   23.8990 C   0  0  0  0  0  0  0  0  0  0  0  0
   32.7330    7.0520   23.5820 C   0  0  0  0  0  0  0  0  0  0  0  0
   31.7720    7.5550   24.4550 C   0  0  0  0  0  0  0  0  0  0  0  0
   34.5160    7.8380   25.0770 C   0  0  0  0  0  0  0  0  0  0  0  0
   33.5580    8.3410   25.9530 C   0  0  0  0  0  0  0  0  0  0  0  0
   32.1880    8.2030   25.6380 C   0  0  0  0  0  0  0  0  0  0  0  0
   31.1920    8.7610   26.4740 C   0  0  0  0  0  0  0  0  0  0  0  0
   30.8160    8.3590   27.7390 C   0  0  0  0  0  0  0  0  0  0  0  0
   31.4670    7.2140   28.5180 C   0  0  0  0  0  0  0  0  0  0  0  0
   32.0850    6.3470   27.8920 O   0  0  0  0  0  0  0  0  0  0  0  0
   31.3180    7.3320   29.8730 N   0  0  0  0  0  0  0  0  0  0  0  0
   31.8070    6.4480   30.9560 C   0  0  0  0  0  0  0  0  0  0  0  0
   33.0170    5.6360   30.4970 C   0  0  0  0  0  0  0  0  0  0  0  0
   29.8220    9.1600   28.1590 N   0  0  0  0  0  0  0  0  0  0  0  0
   29.5230   10.1560   27.1500 O   0  0  0  0  0  0  0  0  0  0  0  0
   30.3810    9.8760   26.1290 C   0  0  0  0  0  0  0  0  0  0  0  0
   30.4470   10.5530   24.9090 C   0  0  0  0  0  0  0  0  0  0  0  0
   31.7250   10.8640   24.5100 C   0  0  0  0  0  0  0  0  0  0  0  0
   31.9690   11.5150   23.3220 C   0  0  0  0  0  0  0  0  0  0  0  0
   33.3810   11.9070   22.9720 C   0  0  0  0  0  0  0  0  0  0  0  0
   33.4370   13.2730   23.6870 C   0  0  0  0  0  0  0  0  0  0  0  0
   34.4610   10.9450   23.4980 C   0  0  0  0  0  0  0  0  0  0  0  0
   30.8980   11.8950   22.5190 C   0  0  0  0  0  0  0  0  0  0  0  0
   31.1360   12.5340   21.3480 O   0  0  0  0  0  0  0  0  0  0  0  0
   29.5950   11.5770   22.9210 C   0  0  0  0  0  0  0  0  0  0  0  0
   29.3470   10.9020   24.1020 C   0  0  0  0  0  0  0  0  0  0  0  0
   28.0580   10.6360   24.4290 O   0  0  0  0  0  0  0  0  0  0  0  0
   36.3247    5.6905   21.1628 H   0  0  0  0  0  0  0  0  0  0  0  0
   34.6596    5.1809   20.6231 H   0  0  0  0  0  0  0  0  0  0  0  0
   35.1317    2.8678   21.0469 H   0  0  0  0  0  0  0  0  0  0  0  0
   36.5199    3.4982   20.1193 H   0  0  0  0  0  0  0  0  0  0  0  0
   35.3478    2.4436   23.4133 H   0  0  0  0  0  0  0  0  0  0  0  0
   36.9014    2.8183   24.2417 H   0  0  0  0  0  0  0  0  0  0  0  0
   34.9550    4.4407   24.6812 H   0  0  0  0  0  0  0  0  0  0  0  0
   36.5214    5.1685   24.1136 H   0  0  0  0  0  0  0  0  0  0  0  0
   36.1424    6.7954   23.3875 H   0  0  0  0  0  0  0  0  0  0  0  0
   35.0470    7.1616   21.9867 H   0  0  0  0  0  0  0  0  0  0  0  0
   32.4297    6.5450   22.6541 H   0  0  0  0  0  0  0  0  0  0  0  0
   30.7015    7.4487   24.2256 H   0  0  0  0  0  0  0  0  0  0  0  0
   35.5873    7.9398   25.3048 H   0  0  0  0  0  0  0  0  0  0  0  0
   33.8654    8.8418   26.8829 H   0  0  0  0  0  0  0  0  0  0  0  0
   30.7874    8.1575   30.1860 H   0  0  0  0  0  0  0  0  0  0  0  0
   32.0945    7.0641   31.8207 H   0  0  0  0  0  0  0  0  0  0  0  0
   31.0012    5.7510   31.2296 H   0  0  0  0  0  0  0  0  0  0  0  0
   33.5661    5.2675   31.3760 H   0  0  0  0  0  0  0  0  0  0  0  0
   32.6776    4.7821   29.8922 H   0  0  0  0  0  0  0  0  0  0  0  0
   33.6785    6.2737   29.8922 H   0  0  0  0  0  0  0  0  0  0  0  0
   32.5720   10.5864   25.1547 H   0  0  0  0  0  0  0  0  0  0  0  0
   33.5884   11.9069   21.8917 H   0  0  0  0  0  0  0  0  0  0  0  0
   33.4306   13.1174   24.7759 H   0  0  0  0  0  0  0  0  0  0  0  0
   34.3575   13.8010   23.3974 H   0  0  0  0  0  0  0  0  0  0  0  0
   32.5628   13.8745   23.3974 H   0  0  0  0  0  0  0  0  0  0  0  0
   34.4536   10.9516   24.5980 H   0  0  0  0  0  0  0  0  0  0  0  0
   34.2533    9.9273   23.1360 H   0  0  0  0  0  0  0  0  0  0  0  0
   35.4480   11.2686   23.1360 H   0  0  0  0  0  0  0  0  0  0  0  0
   31.4815   13.4617   21.3517 H   0  0  0  0  0  0  0  0  0  0  0  0
   28.7490   11.8710   22.2824 H   0  0  0  0  0  0  0  0  0  0  0  0
   27.7900   10.5807   25.3804 H   0  0  0  0  0  0  0  0  0  0  0  0
  1  2  1  0
  1  6  1  0
  2  3  1  0
  3  4  1  0
  4  5  1  0
  5  6  1  0
  6  7  1  0
  7  8  1  0
  8  9  2  0
  8 11  1  0
  9 10  1  0
 10 13  2  0
 11 12  2  0
 12 13  1  0
 13 14  1  0
 14 15  1  0
 14 23  2  0
 15 16  1  0
 15 21  2  0
 16 17  2  0
 16 18  1  0
 18 19  1  0
 19 20  1  0
 21 22  1  0
 22 23  1  0
 23 24  1  0
 24 25  2  0
 24 33  1  0
 25 26  1  0
 26 27  1  0
 26 30  2  0
 27 28  1  0
 27 29  1  0
 30 31  1  0
 30 32  1  0
 32 33  2  0
 33 34  1  0
  1 35  1  0
  1 36  1  0
  2 37  1  0
  2 38  1  0
  4 39  1  0
  4 40  1  0
  5 41  1  0
  5 42  1  0
  7 43  1  0
  7 44  1  0
  9 45  1  0
 10 46  1  0
 11 47  1  0
 12 48  1  0
 18 49  1  0
 19 50  1  0
 19 51  1  0
 20 52  1  0
 20 53  1  0
 20 54  1  0
 25 55  1  0
 27 56  1  0
 28 57  1  0
 28 58  1  0
 28 59  1  0
 29 60  1  0
 29 61  1  0
 29 62  1  0
 31 63  1  0
 32 64  1  0
 34 65  1  0
A    1
C25
A    2
C26
A    3
O27
A    4
C28
A    5
C29
A    6
N24
A    7
C23
A    8
C20
A    9
C21
A   10
C22
A   11
C19
A   12
C18
A   13
C7
A   14
C3
A   15
C2
A   16
C8
A   17
O9
A   18
N10
A   19
C11
A   20
C12
A   21
N1
A   22
O5
A   23
C4
A   24
C6
A   25
C13
A   26
C14
A   27
C30
A   28
C32
A   29
C31
A   30
C15
A   31
O34
A   32
C16
A   33
C17
A   34
O33
M  END
