2VCJ_2EQ_A_1224
     RDKit          3D

 56 59  0  0  0  0  0  0  0  0999 V2000
   36.0920    4.7760   23.9480 C   0  0  0  0  0  0  0  0  0  0  0  0
   37.0300    3.6260   23.6890 C   0  0  0  0  0  0  0  0  0  0  0  0
   37.4070    3.7880   22.3460 O   0  0  0  0  0  0  0  0  0  0  0  0
   36.4110    3.3290   21.5060 C   0  0  0  0  0  0  0  0  0  0  0  0
   35.4780    4.5100   21.4960 C   0  0  0  0  0  0  0  0  0  0  0  0
   35.7050    5.3550   22.6660 N   0  0  0  0  0  0  0  0  0  0  0  0
   35.5330    6.7900   22.5390 C   0  0  0  0  0  0  0  0  0  0  0  0
   34.5530    7.2940   23.5700 C   0  0  0  0  0  0  0  0  0  0  0  0
   35.0100    7.9950   24.6650 C   0  0  0  0  0  0  0  0  0  0  0  0
   34.1330    8.4620   25.6150 C   0  0  0  0  0  0  0  0  0  0  0  0
   33.2110    7.0600   23.4110 C   0  0  0  0  0  0  0  0  0  0  0  0
   32.3300    7.5250   24.3630 C   0  0  0  0  0  0  0  0  0  0  0  0
   32.7890    8.2220   25.4630 C   0  0  0  0  0  0  0  0  0  0  0  0
   31.8790    8.7000   26.3770 C   0  0  0  0  0  0  0  0  0  0  0  0
   31.5530    8.2050   27.6140 C   0  0  0  0  0  0  0  0  0  0  0  0
   32.1590    7.0110   28.3040 C   0  0  0  0  0  0  0  0  0  0  0  0
   32.8350    6.1970   27.7070 O   0  0  0  0  0  0  0  0  0  0  0  0
   32.0040    7.0180   29.6070 N   0  0  0  0  0  0  0  0  0  0  0  0
   32.5270    5.9630   30.4700 C   0  0  0  0  0  0  0  0  0  0  0  0
   34.0280    6.1100   30.6460 C   0  0  0  0  0  0  0  0  0  0  0  0
   30.6360    8.9740   28.1520 N   0  0  0  0  0  0  0  0  0  0  0  0
   30.3430    9.9890   27.2470 O   0  0  0  0  0  0  0  0  0  0  0  0
   31.1120    9.8140   26.1610 C   0  0  0  0  0  0  0  0  0  0  0  0
   31.1350   10.6160   25.0320 C   0  0  0  0  0  0  0  0  0  0  0  0
   32.3420   11.0120   24.4870 C   0  0  0  0  0  0  0  0  0  0  0  0
   32.3680   11.8170   23.3560 C   0  0  0  0  0  0  0  0  0  0  0  0
   33.8320   12.3300   22.6330 Cl  0  0  0  0  0  0  0  0  0  0  0  0
   31.1910   12.2230   22.7830 C   0  0  0  0  0  0  0  0  0  0  0  0
   31.2280   12.9990   21.6910 O   0  0  0  0  0  0  0  0  0  0  0  0
   29.9880   11.8280   23.3320 C   0  0  0  0  0  0  0  0  0  0  0  0
   29.9670   11.0340   24.4550 C   0  0  0  0  0  0  0  0  0  0  0  0
   28.8030   10.6630   24.9840 O   0  0  0  0  0  0  0  0  0  0  0  0
   35.1979    4.4138   24.4767 H   0  0  0  0  0  0  0  0  0  0  0  0
   36.5889    5.5351   24.5700 H   0  0  0  0  0  0  0  0  0  0  0  0
   37.9073    3.6810   24.3503 H   0  0  0  0  0  0  0  0  0  0  0  0
   36.5634    2.6487   23.8818 H   0  0  0  0  0  0  0  0  0  0  0  0
   36.7991    3.1121   20.4998 H   0  0  0  0  0  0  0  0  0  0  0  0
   35.9454    2.3856   21.8273 H   0  0  0  0  0  0  0  0  0  0  0  0
   35.6521    5.1005   20.5844 H   0  0  0  0  0  0  0  0  0  0  0  0
   34.4413    4.1430   21.5196 H   0  0  0  0  0  0  0  0  0  0  0  0
   36.5034    7.2862   22.6878 H   0  0  0  0  0  0  0  0  0  0  0  0
   35.1438    7.0160   21.5353 H   0  0  0  0  0  0  0  0  0  0  0  0
   36.0877    8.1828   24.7800 H   0  0  0  0  0  0  0  0  0  0  0  0
   34.5032    9.0214   26.4868 H   0  0  0  0  0  0  0  0  0  0  0  0
   32.8424    6.5077   22.5340 H   0  0  0  0  0  0  0  0  0  0  0  0
   31.2521    7.3394   24.2457 H   0  0  0  0  0  0  0  0  0  0  0  0
   31.4920    7.8004   30.0389 H   0  0  0  0  0  0  0  0  0  0  0  0
   32.0399    6.0266   31.4542 H   0  0  0  0  0  0  0  0  0  0  0  0
   32.3188    4.9886   30.0040 H   0  0  0  0  0  0  0  0  0  0  0  0
   34.2708    6.1338   31.7186 H   0  0  0  0  0  0  0  0  0  0  0  0
   34.5378    5.2575   30.1735 H   0  0  0  0  0  0  0  0  0  0  0  0
   34.3627    7.0452   30.1735 H   0  0  0  0  0  0  0  0  0  0  0  0
   33.2853   10.6882   24.9510 H   0  0  0  0  0  0  0  0  0  0  0  0
   31.2749   13.9834   21.7847 H   0  0  0  0  0  0  0  0  0  0  0  0
   29.0428   12.1492   22.8700 H   0  0  0  0  0  0  0  0  0  0  0  0
   28.6948   10.6285   25.9675 H   0  0  0  0  0  0  0  0  0  0  0  0
  1  2  1  0
  1  6  1  0
  2  3  1  0
  3  4  1  0
  4  5  1  0
  5  6  1  0
  6  7  1  0
  7  8  1  0
  8  9  2  0
  8 11  1  0
  9 10  1  0
 10 13  2  0
 11 12  2  0
 12 13  1  0
 13 14  1  0
 14 15  1  0
 14 23  2  0
 15 16  1  0
 15 21  2  0
 16 17  2  0
 16 18  1  0
 18 19  1  0
 19 20  1  0
 21 22  1  0
 22 23  1  0
 23 24  1  0
 24 25  2  0
 24 31  1  0
 25 26  1  0
 26 27  1  0
 26 28  2  0
 28 29  1  0
 28 30  1  0
 30 31  2  0
 31 32  1  0
  1 33  1  0
  1 34  1  0
  2 35  1  0
  2 36  1  0
  4 37  1  0
  4 38  1  0
  5 39  1  0
  5 40  1  0
  7 41  1  0
  7 42  1  0
  9 43  1  0
 10 44  1  0
 11 45  1  0
 12 46  1  0
 18 47  1  0
 19 48  1  0
 19 49  1  0
 20 50  1  0
 20 51  1  0
 20 52  1  0
 25 53  1  0
 29 54  1  0
 30 55  1  0
 32 56  1  0
A    1
C20
A    2
C21
A    3
O4
A    4
C22
A    5
C23
A    6
N4
A    7
C19
A    8
C16
A    9
C17
A   10
C18
A   11
C15
A   12
C14
A   13
C13
A   14
C9
A   15
C8
A   16
C10
A   17
O3
A   18
N3
A   19
C11
A   20
C12
A   21
N2
A   22
O5
A   23
C7
A   24
C5
A   25
C6
A   26
C4
A   27
CL1
A   28
C3
A   29
O2
A   30
C2
A   31
C1
A   32
O1
M  END
