2VCQ_D25_A_1201
     RDKit          3D

 25 27  0  0  0  0  0  0  0  0999 V2000
  -32.9180   17.9360   24.5560 C   0  0  0  0  0  0  0  0  0  0  0  0
  -32.8340   16.5610   24.2410 C   0  0  0  0  0  0  0  0  0  0  0  0
  -32.0590   15.5510   24.9970 C   0  0  0  0  0  0  0  0  0  0  0  0
  -32.0240   14.1950   24.8070 C   0  0  0  0  0  0  0  0  0  0  0  0
  -33.7160   18.5300   23.6410 C   0  0  0  0  0  0  0  0  0  0  0  0
  -31.2380   15.8120   26.0330 O   0  0  0  0  0  0  0  0  0  0  0  0
  -30.7400   14.8050   26.4690 N   0  0  0  0  0  0  0  0  0  0  0  0
  -31.1300   13.7400   25.8160 C   0  0  0  0  0  0  0  0  0  0  0  0
  -30.6900   12.3490   26.1040 C   0  0  0  0  0  0  0  0  0  0  0  0
  -29.4100   12.1290   26.6320 C   0  0  0  0  0  0  0  0  0  0  0  0
  -28.9700   10.8480   26.9130 C   0  0  0  0  0  0  0  0  0  0  0  0
  -29.8080    9.7770   26.6730 C   0  0  0  0  0  0  0  0  0  0  0  0
  -31.0750    9.9880   26.1530 C   0  0  0  0  0  0  0  0  0  0  0  0
  -31.5320   11.2630   25.8640 C   0  0  0  0  0  0  0  0  0  0  0  0
  -33.5690   16.3500   23.1680 N   0  0  0  0  0  0  0  0  0  0  0  0
  -34.1330   17.5750   22.7770 N   0  0  0  0  0  0  0  0  0  0  0  0
  -32.4202   18.4363   25.3997 H   0  0  0  0  0  0  0  0  0  0  0  0
  -32.5598   13.5993   24.0533 H   0  0  0  0  0  0  0  0  0  0  0  0
  -33.9792   19.5974   23.6049 H   0  0  0  0  0  0  0  0  0  0  0  0
  -28.7475   12.9856   26.8252 H   0  0  0  0  0  0  0  0  0  0  0  0
  -27.9627   10.6841   27.3235 H   0  0  0  0  0  0  0  0  0  0  0  0
  -29.4691    8.7543   26.8950 H   0  0  0  0  0  0  0  0  0  0  0  0
  -31.7312    9.1252   25.9659 H   0  0  0  0  0  0  0  0  0  0  0  0
  -32.5406   11.4165   25.4527 H   0  0  0  0  0  0  0  0  0  0  0  0
  -34.7571   17.7218   21.9709 H   0  0  0  0  0  0  0  0  0  0  0  0
  1  2  1  0
  1  5  2  0
  2  3  1  0
  2 15  2  0
  3  4  2  0
  3  6  1  0
  4  8  1  0
  5 16  1  0
  6  7  1  0
  7  8  2  0
  8  9  1  0
  9 10  2  0
  9 14  1  0
 10 11  1  0
 11 12  2  0
 12 13  1  0
 13 14  2  0
 15 16  1  0
  1 17  1  0
  4 18  1  0
  5 19  1  0
 10 20  1  0
 11 21  1  0
 12 22  1  0
 13 23  1  0
 14 24  1  0
 16 25  1  0
A    1
C1
A    2
C2
A    3
C3
A    4
C4
A    5
C6
A    6
O10
A    7
N11
A    8
C12
A    9
C13
A   10
C14
A   11
C15
A   12
C16
A   13
C17
A   14
C18
A   15
N6
A   16
N10
M  END
