2VD4_P21_A_1454
     RDKit          3D

 60 62  0  0  0  0  0  0  0  0999 V2000
   69.2520   32.7850   34.1010 Cl  0  0  0  0  0  0  0  0  0  0  0  0
   69.4180   31.4710   35.2740 C   0  0  0  0  0  0  0  0  0  0  0  0
   68.2850   30.7890   35.6920 C   0  0  0  0  0  0  0  0  0  0  0  0
   68.4340   29.7540   36.6000 C   0  0  0  0  0  0  0  0  0  0  0  0
   70.6850   31.1710   35.7430 C   0  0  0  0  0  0  0  0  0  0  0  0
   70.8320   30.1440   36.6560 C   0  0  0  0  0  0  0  0  0  0  0  0
   69.7070   29.4580   37.0720 C   0  0  0  0  0  0  0  0  0  0  0  0
   69.8870   28.3470   38.0310 C   0  0  0  0  0  0  0  0  0  0  0  0
   69.9920   27.2560   37.4990 O   0  0  0  0  0  0  0  0  0  0  0  0
   69.9350   28.5470   39.3450 N   0  0  0  0  0  0  0  0  0  0  0  0
   70.2470   27.4900   40.3290 C   0  0  0  0  0  0  0  0  0  0  0  0
   71.3560   26.5690   39.8100 C   0  0  0  0  0  0  0  0  0  0  0  0
   69.6060   29.8780   39.9030 C   0  0  0  0  0  0  0  0  0  0  0  0
   70.8970   30.5180   40.4410 C   0  0  0  0  0  0  0  0  0  0  0  0
   70.6230   31.7670   41.1680 N   0  0  0  0  0  0  0  0  0  0  0  0
   69.5240   31.7710   42.1480 C   0  0  0  0  0  0  0  0  0  0  0  0
   68.2570   31.1390   41.5450 C   0  0  0  0  0  0  0  0  0  0  0  0
   68.5520   29.7460   41.0070 C   0  0  0  0  0  0  0  0  0  0  0  0
   71.8710   32.4550   41.5610 C   0  0  0  0  0  0  0  0  0  0  0  0
   71.6860   33.9440   41.8400 C   0  0  0  0  0  0  0  0  0  0  0  0
   73.0640   34.5690   41.9290 C   0  0  0  0  0  0  0  0  0  0  0  0
   73.7990   34.5160   43.1180 C   0  0  0  0  0  0  0  0  0  0  0  0
   75.0750   35.0870   43.1780 C   0  0  0  0  0  0  0  0  0  0  0  0
   75.6150   35.7070   42.0520 C   0  0  0  0  0  0  0  0  0  0  0  0
   74.8820   35.7510   40.8720 C   0  0  0  0  0  0  0  0  0  0  0  0
   73.6160   35.1840   40.8090 C   0  0  0  0  0  0  0  0  0  0  0  0
   72.1750   25.9490   40.9420 C   0  0  0  0  0  0  0  0  0  0  0  0
   71.3300   25.2210   41.8340 O   0  0  0  0  0  0  0  0  0  0  0  0
   72.0610   24.4040   42.7530 C   0  0  0  0  0  0  0  0  0  0  0  0
   67.2904   31.0640   35.3109 H   0  0  0  0  0  0  0  0  0  0  0  0
   67.5615   29.1774   36.9410 H   0  0  0  0  0  0  0  0  0  0  0  0
   71.5598   31.7400   35.3952 H   0  0  0  0  0  0  0  0  0  0  0  0
   71.8261   29.8776   37.0443 H   0  0  0  0  0  0  0  0  0  0  0  0
   70.5779   27.9583   41.2677 H   0  0  0  0  0  0  0  0  0  0  0  0
   69.3414   26.8887   40.4975 H   0  0  0  0  0  0  0  0  0  0  0  0
   70.8975   25.7605   39.2217 H   0  0  0  0  0  0  0  0  0  0  0  0
   72.0374   27.1768   39.1966 H   0  0  0  0  0  0  0  0  0  0  0  0
   69.1831   30.5223   39.1181 H   0  0  0  0  0  0  0  0  0  0  0  0
   71.3889   29.8090   41.1232 H   0  0  0  0  0  0  0  0  0  0  0  0
   71.5451   30.7550   39.5843 H   0  0  0  0  0  0  0  0  0  0  0  0
   69.8282   31.1951   43.0345 H   0  0  0  0  0  0  0  0  0  0  0  0
   69.3023   32.8116   42.4273 H   0  0  0  0  0  0  0  0  0  0  0  0
   67.4833   31.0686   42.3238 H   0  0  0  0  0  0  0  0  0  0  0  0
   67.9081   31.7711   40.7151 H   0  0  0  0  0  0  0  0  0  0  0  0
   67.6334   29.3027   40.5950 H   0  0  0  0  0  0  0  0  0  0  0  0
   68.9225   29.0957   41.8131 H   0  0  0  0  0  0  0  0  0  0  0  0
   72.2600   31.9763   42.4717 H   0  0  0  0  0  0  0  0  0  0  0  0
   72.5670   32.3697   40.7135 H   0  0  0  0  0  0  0  0  0  0  0  0
   71.1148   34.4103   41.0237 H   0  0  0  0  0  0  0  0  0  0  0  0
   71.1323   34.0950   42.7784 H   0  0  0  0  0  0  0  0  0  0  0  0
   73.3738   34.0254   44.0060 H   0  0  0  0  0  0  0  0  0  0  0  0
   75.6521   35.0467   44.1136 H   0  0  0  0  0  0  0  0  0  0  0  0
   76.6167   36.1593   42.0973 H   0  0  0  0  0  0  0  0  0  0  0  0
   75.3075   36.2381   39.9822 H   0  0  0  0  0  0  0  0  0  0  0  0
   73.0462   35.2211   39.8688 H   0  0  0  0  0  0  0  0  0  0  0  0
   72.9233   25.2655   40.5143 H   0  0  0  0  0  0  0  0  0  0  0  0
   72.6716   26.7547   41.5026 H   0  0  0  0  0  0  0  0  0  0  0  0
   71.8041   24.6911   43.7833 H   0  0  0  0  0  0  0  0  0  0  0  0
   71.8012   23.3475   42.5912 H   0  0  0  0  0  0  0  0  0  0  0  0
   73.1398   24.5452   42.5912 H   0  0  0  0  0  0  0  0  0  0  0  0
  1  2  1  0
  2  3  2  0
  2  5  1  0
  3  4  1  0
  4  7  2  0
  5  6  2  0
  6  7  1  0
  7  8  1  0
  8  9  2  0
  8 10  1  0
 10 11  1  0
 10 13  1  0
 11 12  1  0
 12 27  1  0
 13 14  1  0
 13 18  1  0
 14 15  1  0
 15 16  1  0
 15 19  1  0
 16 17  1  0
 17 18  1  0
 19 20  1  0
 20 21  1  0
 21 22  2  0
 21 26  1  0
 22 23  1  0
 23 24  2  0
 24 25  1  0
 25 26  2  0
 27 28  1  0
 28 29  1  0
  3 30  1  0
  4 31  1  0
  5 32  1  0
  6 33  1  0
 11 34  1  0
 11 35  1  0
 12 36  1  0
 12 37  1  0
 13 38  1  0
 14 39  1  0
 14 40  1  0
 16 41  1  0
 16 42  1  0
 17 43  1  0
 17 44  1  0
 18 45  1  0
 18 46  1  0
 19 47  1  0
 19 48  1  0
 20 49  1  0
 20 50  1  0
 22 51  1  0
 23 52  1  0
 24 53  1  0
 25 54  1  0
 26 55  1  0
 27 56  1  0
 27 57  1  0
 29 58  1  0
 29 59  1  0
 29 60  1  0
A    1
CL15
A    2
C11
A    3
C14
A    4
C9
A    5
C13
A    6
C8
A    7
C5
A    8
C1
A    9
O7
A   10
N2
A   11
C12
A   12
C19
A   13
C3
A   14
C6
A   15
N4
A   16
C18
A   17
C21
A   18
C20
A   19
C10
A   20
C16
A   21
C17
A   22
C24
A   23
C28
A   24
C29
A   25
C27
A   26
C25
A   27
C23
A   28
O22
A   29
C26
M  END
