1EYE_PMM_A_301
     RDKit          3D

 26 27  0  0  0  0  0  0  0  0999 V2000
   33.5710    5.5920   39.1240 N   0  0  0  0  0  0  0  0  0  0  0  0
   32.3820    5.7110   39.6410 C   0  0  0  0  0  0  0  0  0  0  0  0
   31.9320    4.8990   40.8220 C   0  0  0  0  0  0  0  0  0  0  0  0
   32.9330    3.9960   41.3560 N   0  0  0  0  0  0  0  0  0  0  0  0
   35.0680    3.0500   41.2480 N   0  0  0  0  0  0  0  0  0  0  0  0
   36.3120    2.9450   40.6480 C   0  0  0  0  0  0  0  0  0  0  0  0
   37.1290    2.0390   41.2580 N   0  0  0  0  0  0  0  0  0  0  0  0
   36.6650    3.6720   39.5850 N   0  0  0  0  0  0  0  0  0  0  0  0
   35.7820    4.5360   39.0930 C   0  0  0  0  0  0  0  0  0  0  0  0
   36.1180    5.2780   38.0140 O   0  0  0  0  0  0  0  0  0  0  0  0
   34.5270    4.6930   39.6470 C   0  0  0  0  0  0  0  0  0  0  0  0
   34.1470    3.9370   40.7380 C   0  0  0  0  0  0  0  0  0  0  0  0
   31.4130    6.5770   38.9390 C   0  0  0  0  0  0  0  0  0  0  0  0
   30.6560    5.5530   38.2800 O   0  0  0  0  0  0  0  0  0  0  0  0
   29.3260    5.7430   37.4940 P   0  0  0  0  0  0  0  0  0  0  0  0
   28.5070    4.5030   37.4800 O   0  0  0  0  0  0  0  0  0  0  0  0
   29.6940    6.2510   36.1490 O   0  0  0  0  0  0  0  0  0  0  0  0
   28.5180    6.8760   38.3030 O   0  0  0  0  0  0  0  0  0  0  0  0
   30.9216    4.9829   41.2486 H   0  0  0  0  0  0  0  0  0  0  0  0
   37.1703    1.9932   42.2862 H   0  0  0  0  0  0  0  0  0  0  0  0
   37.7046    1.4007   40.6905 H   0  0  0  0  0  0  0  0  0  0  0  0
   37.5962    3.5664   39.1576 H   0  0  0  0  0  0  0  0  0  0  0  0
   30.7980    7.1630   39.6378 H   0  0  0  0  0  0  0  0  0  0  0  0
   31.8460    7.3483   38.2851 H   0  0  0  0  0  0  0  0  0  0  0  0
   30.2721    7.0490   36.2444 H   0  0  0  0  0  0  0  0  0  0  0  0
   28.6247    6.7263   39.2758 H   0  0  0  0  0  0  0  0  0  0  0  0
  1  2  2  0
  1 11  1  0
  2  3  1  0
  2 13  1  0
  3  4  2  0
  4 12  1  0
  5  6  2  0
  5 12  1  0
  6  7  1  0
  6  8  1  0
  8  9  1  0
  9 10  2  0
  9 11  1  0
 11 12  2  0
 13 14  1  0
 14 15  1  0
 15 16  2  0
 15 17  1  0
 15 18  1  0
  3 19  1  0
  7 20  1  0
  7 21  1  0
  8 22  1  0
 13 23  1  0
 13 24  1  0
 17 25  1  0
 18 26  1  0
A    1
N5
A    2
C6
A    3
C7
A    4
N8
A    5
N1
A    6
C2
A    7
N2
A    8
N3
A    9
C4
A   10
O4
A   11
C4A
A   12
C8A
A   13
C9
A   14
O10
A   15
PA
A   16
O1P
A   17
O2P
A   18
O3P
M  END
