2VEU_IZ1_A_1299
     RDKit          3D

 64 68  0  0  0  0  0  0  0  0999 V2000
   19.6070   16.5600   82.4170 C   0  0  0  0  0  0  0  0  0  0  0  0
   20.8990   17.1630   81.9250 C   0  0  0  0  0  0  0  0  0  0  0  0
   22.0520   16.3560   82.4130 C   0  0  0  0  0  0  0  0  0  0  0  0
   21.7440   15.1130   82.8060 N   0  0  0  0  0  0  0  0  0  0  0  0
   19.9470   14.8030   82.6190 S   0  0  0  0  0  0  0  0  0  0  0  0
   19.2480   14.2870   84.0430 O   0  0  0  0  0  0  0  0  0  0  0  0
   19.5220   13.8490   81.2690 O   0  0  0  0  0  0  0  0  0  0  0  0
   23.2080   16.7650   82.4430 O   0  0  0  0  0  0  0  0  0  0  0  0
   18.4300   16.8130   81.4950 C   0  0  0  0  0  0  0  0  0  0  0  0
   18.6250   16.8220   80.0360 C   0  0  0  0  0  0  0  0  0  0  0  0
   17.4920   17.0970   79.1490 C   0  0  0  0  0  0  0  0  0  0  0  0
   16.1650   17.3590   79.7200 C   0  0  0  0  0  0  0  0  0  0  0  0
   15.9690   17.3470   81.1800 C   0  0  0  0  0  0  0  0  0  0  0  0
   17.0990   17.0740   82.0610 C   0  0  0  0  0  0  0  0  0  0  0  0
   15.0020   17.6260   78.8160 C   0  0  0  0  0  0  0  0  0  0  0  0
   16.5960   21.9220   78.5440 C   0  0  0  0  0  0  0  0  0  0  0  0
   16.2420   21.5520   77.1850 C   0  0  0  0  0  0  0  0  0  0  0  0
   15.9360   21.0130   79.4010 N   0  0  0  0  0  0  0  0  0  0  0  0
   15.2060   20.1200   78.5920 C   0  0  0  0  0  0  0  0  0  0  0  0
   15.3840   20.4310   77.2240 N   0  0  0  0  0  0  0  0  0  0  0  0
   19.2000   25.1960   79.9770 C   0  0  0  0  0  0  0  0  0  0  0  0
   18.4970   24.3200   80.9390 C   0  0  0  0  0  0  0  0  0  0  0  0
   17.6320   23.2300   80.4480 C   0  0  0  0  0  0  0  0  0  0  0  0
   17.4660   23.0140   78.9940 C   0  0  0  0  0  0  0  0  0  0  0  0
   18.1680   23.8930   78.0340 C   0  0  0  0  0  0  0  0  0  0  0  0
   19.0340   24.9810   78.5270 C   0  0  0  0  0  0  0  0  0  0  0  0
   14.3290   18.9650   79.0930 C   0  0  0  0  0  0  0  0  0  0  0  0
   13.0520   18.9480   78.3830 N   0  0  0  0  0  0  0  0  0  0  0  0
   11.8560   20.1030   78.7390 S   0  0  0  0  0  0  0  0  0  0  0  0
   10.4860   19.1320   78.2710 O   0  0  0  0  0  0  0  0  0  0  0  0
   11.8180   20.4810   80.4180 O   0  0  0  0  0  0  0  0  0  0  0  0
   11.5220   21.6980   73.7480 C   0  0  0  0  0  0  0  0  0  0  0  0
   11.9550   22.0180   75.1140 C   0  0  0  0  0  0  0  0  0  0  0  0
   12.7120   23.2520   75.3750 C   0  0  0  0  0  0  0  0  0  0  0  0
   11.6290   21.1120   76.2150 C   0  0  0  0  0  0  0  0  0  0  0  0
   12.0580   21.4370   77.5760 C   0  0  0  0  0  0  0  0  0  0  0  0
   12.8100   22.6660   77.8410 C   0  0  0  0  0  0  0  0  0  0  0  0
   13.1380   23.5730   76.7390 C   0  0  0  0  0  0  0  0  0  0  0  0
   10.7380   20.4390   73.5620 F   0  0  0  0  0  0  0  0  0  0  0  0
   12.7000   21.5640   72.8280 F   0  0  0  0  0  0  0  0  0  0  0  0
   10.5630   22.7330   73.2100 F   0  0  0  0  0  0  0  0  0  0  0  0
   19.2975   17.0302   83.3621 H   0  0  0  0  0  0  0  0  0  0  0  0
   20.9009   17.1742   80.8251 H   0  0  0  0  0  0  0  0  0  0  0  0
   20.9881   18.1907   82.3069 H   0  0  0  0  0  0  0  0  0  0  0  0
   22.4231   14.4262   83.1639 H   0  0  0  0  0  0  0  0  0  0  0  0
   19.6203   16.6225   79.6122 H   0  0  0  0  0  0  0  0  0  0  0  0
   17.6350   17.1072   78.0584 H   0  0  0  0  0  0  0  0  0  0  0  0
   14.9734   17.5433   81.6045 H   0  0  0  0  0  0  0  0  0  0  0  0
   16.9547   17.0634   83.1514 H   0  0  0  0  0  0  0  0  0  0  0  0
   15.3583   17.6212   77.7753 H   0  0  0  0  0  0  0  0  0  0  0  0
   14.2559   16.8384   78.9976 H   0  0  0  0  0  0  0  0  0  0  0  0
   16.5863   22.0621   76.2733 H   0  0  0  0  0  0  0  0  0  0  0  0
   14.9712   19.9392   76.4186 H   0  0  0  0  0  0  0  0  0  0  0  0
   19.8464   26.0075   80.3425 H   0  0  0  0  0  0  0  0  0  0  0  0
   18.6189   24.4809   82.0203 H   0  0  0  0  0  0  0  0  0  0  0  0
   17.1103   22.5776   81.1637 H   0  0  0  0  0  0  0  0  0  0  0  0
   18.0445   23.7356   76.9523 H   0  0  0  0  0  0  0  0  0  0  0  0
   19.5569   25.6331   77.8120 H   0  0  0  0  0  0  0  0  0  0  0  0
   14.1778   19.1142   80.1723 H   0  0  0  0  0  0  0  0  0  0  0  0
   13.2693   19.0464   77.3810 H   0  0  0  0  0  0  0  0  0  0  0  0
   12.9578   23.9328   74.5467 H   0  0  0  0  0  0  0  0  0  0  0  0
   11.0630   20.1890   76.0207 H   0  0  0  0  0  0  0  0  0  0  0  0
   13.1278   22.9072   78.8661 H   0  0  0  0  0  0  0  0  0  0  0  0
   13.7043   24.4953   76.9357 H   0  0  0  0  0  0  0  0  0  0  0  0
  1  2  1  0
  1  5  1  0
  1  9  1  0
  2  3  1  0
  3  4  1  0
  3  8  2  0
  4  5  1  0
  5  6  2  0
  5  7  2  0
  9 10  2  0
  9 14  1  0
 10 11  1  0
 11 12  2  0
 12 13  1  0
 12 15  1  0
 13 14  2  0
 15 27  1  0
 16 17  2  0
 16 18  1  0
 16 24  1  0
 17 20  1  0
 18 19  2  0
 19 20  1  0
 19 27  1  0
 21 22  2  0
 21 26  1  0
 22 23  1  0
 23 24  2  0
 24 25  1  0
 25 26  2  0
 27 28  1  0
 28 29  1  0
 29 30  2  0
 29 31  2  0
 29 36  1  0
 32 33  1  0
 32 39  1  0
 32 40  1  0
 32 41  1  0
 33 34  2  0
 33 35  1  0
 34 38  1  0
 35 36  2  0
 36 37  1  0
 37 38  2  0
  1 42  1  0
  2 43  1  0
  2 44  1  0
  4 45  1  0
 10 46  1  0
 11 47  1  0
 13 48  1  0
 14 49  1  0
 15 50  1  0
 15 51  1  0
 17 52  1  0
 20 53  1  0
 21 54  1  0
 22 55  1  0
 23 56  1  0
 25 57  1  0
 26 58  1  0
 27 59  1  0
 28 60  1  0
 34 61  1  0
 35 62  1  0
 37 63  1  0
 38 64  1  0
A    1
C1
A    2
C2
A    3
C3
A    4
N4
A    5
S5
A    6
O6
A    7
O7
A    8
O9
A    9
C11
A   10
C12
A   11
C13
A   12
C14
A   13
C15
A   14
C16
A   15
C21
A   16
C23
A   17
C4
A   18
N11
A   19
C25
A   20
N13
A   21
C17
A   22
C19
A   23
C20
A   24
C27
A   25
C5
A   26
C6
A   27
C22
A   28
N45
A   29
S1
A   30
O1
A   31
O2
A   32
C18
A   33
C24
A   34
C26
A   35
C7
A   36
C8
A   37
C9
A   38
C10
A   39
F3
A   40
F1
A   41
F2
M  END
