2VEV_IZ2_A_1300
     RDKit          3D

 67 71  0  0  0  0  0  0  0  0999 V2000
   19.1860   16.6550   82.3440 C   0  0  0  0  0  0  0  0  0  0  0  0
   20.4970   17.1570   81.8380 C   0  0  0  0  0  0  0  0  0  0  0  0
   21.5820   16.4440   82.5620 C   0  0  0  0  0  0  0  0  0  0  0  0
   21.2250   15.2550   83.0640 N   0  0  0  0  0  0  0  0  0  0  0  0
   19.5380   14.9240   82.6290 S   0  0  0  0  0  0  0  0  0  0  0  0
   18.5630   14.4070   83.8400 O   0  0  0  0  0  0  0  0  0  0  0  0
   19.3150   14.0850   81.2560 O   0  0  0  0  0  0  0  0  0  0  0  0
   22.7030   16.8680   82.7330 O   0  0  0  0  0  0  0  0  0  0  0  0
   17.9620   16.8440   81.4630 C   0  0  0  0  0  0  0  0  0  0  0  0
   18.0850   16.7760   80.0040 C   0  0  0  0  0  0  0  0  0  0  0  0
   16.9100   16.9760   79.1690 C   0  0  0  0  0  0  0  0  0  0  0  0
   15.6040   17.2440   79.7920 C   0  0  0  0  0  0  0  0  0  0  0  0
   15.4830   17.3080   81.2460 C   0  0  0  0  0  0  0  0  0  0  0  0
   16.6540   17.1090   82.0820 C   0  0  0  0  0  0  0  0  0  0  0  0
   14.3850   17.4480   78.9280 C   0  0  0  0  0  0  0  0  0  0  0  0
   13.7020   18.7980   79.1630 C   0  0  0  0  0  0  0  0  0  0  0  0
   12.4340   18.7900   78.4100 N   0  0  0  0  0  0  0  0  0  0  0  0
   11.3170   20.0770   78.7670 S   0  0  0  0  0  0  0  0  0  0  0  0
   16.0510   21.5480   78.3030 C   0  0  0  0  0  0  0  0  0  0  0  0
   15.7810   20.9780   76.9950 C   0  0  0  0  0  0  0  0  0  0  0  0
   15.3390   20.9110   79.3430 N   0  0  0  0  0  0  0  0  0  0  0  0
   14.6190   19.9150   78.6530 C   0  0  0  0  0  0  0  0  0  0  0  0
   14.8620   19.9440   77.2660 N   0  0  0  0  0  0  0  0  0  0  0  0
   17.0020   22.6980   78.5820 C   0  0  0  0  0  0  0  0  0  0  0  0
   20.3260   23.0930   75.6360 C   0  0  0  0  0  0  0  0  0  0  0  0
   19.3290   24.1660   75.7680 C   0  0  0  0  0  0  0  0  0  0  0  0
   18.2300   24.0320   76.7310 C   0  0  0  0  0  0  0  0  0  0  0  0
   18.1270   22.8250   77.5640 C   0  0  0  0  0  0  0  0  0  0  0  0
   19.1270   21.7480   77.4290 C   0  0  0  0  0  0  0  0  0  0  0  0
   20.2230   21.8840   76.4670 C   0  0  0  0  0  0  0  0  0  0  0  0
    9.7060   19.5330   78.7750 O   0  0  0  0  0  0  0  0  0  0  0  0
   11.8510   20.9480   80.1380 O   0  0  0  0  0  0  0  0  0  0  0  0
   12.7020   23.4210   76.6430 C   0  0  0  0  0  0  0  0  0  0  0  0
   12.2610   23.1120   75.2800 C   0  0  0  0  0  0  0  0  0  0  0  0
   12.4030   22.4920   77.7350 C   0  0  0  0  0  0  0  0  0  0  0  0
   11.6640   21.2510   77.4630 C   0  0  0  0  0  0  0  0  0  0  0  0
   11.2210   20.9420   76.1030 C   0  0  0  0  0  0  0  0  0  0  0  0
   11.5170   21.8690   75.0110 C   0  0  0  0  0  0  0  0  0  0  0  0
   11.0560   21.5430   73.6670 C   0  0  0  0  0  0  0  0  0  0  0  0
   12.2570   21.3860   72.8340 F   0  0  0  0  0  0  0  0  0  0  0  0
   10.1870   22.6160   73.1440 F   0  0  0  0  0  0  0  0  0  0  0  0
   10.1810   20.3400   73.4740 F   0  0  0  0  0  0  0  0  0  0  0  0
   18.8741   17.2404   83.2215 H   0  0  0  0  0  0  0  0  0  0  0  0
   20.5788   16.9606   80.7588 H   0  0  0  0  0  0  0  0  0  0  0  0
   20.5780   18.2409   82.0069 H   0  0  0  0  0  0  0  0  0  0  0  0
   21.8331   14.6322   83.6148 H   0  0  0  0  0  0  0  0  0  0  0  0
   19.0625   16.5744   79.5416 H   0  0  0  0  0  0  0  0  0  0  0  0
   16.9980   16.9269   78.0736 H   0  0  0  0  0  0  0  0  0  0  0  0
   14.5048   17.5070   81.7081 H   0  0  0  0  0  0  0  0  0  0  0  0
   16.5629   17.1564   83.1772 H   0  0  0  0  0  0  0  0  0  0  0  0
   14.6898   17.3888   77.8727 H   0  0  0  0  0  0  0  0  0  0  0  0
   13.6606   16.6633   79.1919 H   0  0  0  0  0  0  0  0  0  0  0  0
   13.5041   18.9677   80.2317 H   0  0  0  0  0  0  0  0  0  0  0  0
   12.6640   18.8431   77.4074 H   0  0  0  0  0  0  0  0  0  0  0  0
   16.1957   21.2814   76.0224 H   0  0  0  0  0  0  0  0  0  0  0  0
   14.4396   19.3158   76.5676 H   0  0  0  0  0  0  0  0  0  0  0  0
   16.4245   23.6342   78.5794 H   0  0  0  0  0  0  0  0  0  0  0  0
   17.4720   22.4963   79.5559 H   0  0  0  0  0  0  0  0  0  0  0  0
   21.1501   23.1949   74.9146 H   0  0  0  0  0  0  0  0  0  0  0  0
   19.4071   25.0691   75.1448 H   0  0  0  0  0  0  0  0  0  0  0  0
   17.4837   24.8341   76.8296 H   0  0  0  0  0  0  0  0  0  0  0  0
   19.0492   20.8437   78.0505 H   0  0  0  0  0  0  0  0  0  0  0  0
   20.9690   21.0820   76.3661 H   0  0  0  0  0  0  0  0  0  0  0  0
   13.2566   24.3491   76.8455 H   0  0  0  0  0  0  0  0  0  0  0  0
   12.4854   23.8078   74.4581 H   0  0  0  0  0  0  0  0  0  0  0  0
   12.7316   22.7231   78.7590 H   0  0  0  0  0  0  0  0  0  0  0  0
   10.6661   20.0137   75.9022 H   0  0  0  0  0  0  0  0  0  0  0  0
  1  2  1  0
  1  5  1  0
  1  9  1  0
  2  3  1  0
  3  4  1  0
  3  8  2  0
  4  5  1  0
  5  6  2  0
  5  7  2  0
  9 10  2  0
  9 14  1  0
 10 11  1  0
 11 12  2  0
 12 13  1  0
 12 15  1  0
 13 14  2  0
 15 16  1  0
 16 17  1  0
 16 22  1  0
 17 18  1  0
 18 31  2  0
 18 32  2  0
 18 36  1  0
 19 20  2  0
 19 21  1  0
 19 24  1  0
 20 23  1  0
 21 22  2  0
 22 23  1  0
 24 28  1  0
 25 26  2  0
 25 30  1  0
 26 27  1  0
 27 28  2  0
 28 29  1  0
 29 30  2  0
 33 34  2  0
 33 35  1  0
 34 38  1  0
 35 36  2  0
 36 37  1  0
 37 38  2  0
 38 39  1  0
 39 40  1  0
 39 41  1  0
 39 42  1  0
  1 43  1  0
  2 44  1  0
  2 45  1  0
  4 46  1  0
 10 47  1  0
 11 48  1  0
 13 49  1  0
 14 50  1  0
 15 51  1  0
 15 52  1  0
 16 53  1  0
 17 54  1  0
 20 55  1  0
 23 56  1  0
 24 57  1  0
 24 58  1  0
 25 59  1  0
 26 60  1  0
 27 61  1  0
 29 62  1  0
 30 63  1  0
 33 64  1  0
 34 65  1  0
 35 66  1  0
 37 67  1  0
A    1
C1
A    2
C2
A    3
C3
A    4
N4
A    5
S5
A    6
O6
A    7
O7
A    8
O9
A    9
C11
A   10
C12
A   11
C13
A   12
C14
A   13
C15
A   14
C16
A   15
C21
A   16
C22
A   17
N45
A   18
S1
A   19
C23
A   20
C4
A   21
N11
A   22
C25
A   23
N13
A   24
C5
A   25
C17
A   26
C18
A   27
C19
A   28
C20
A   29
C27
A   30
C6
A   31
O1
A   32
O2
A   33
C24
A   34
C26
A   35
C7
A   36
C8
A   37
C9
A   38
C10
A   39
C29
A   40
F4
A   41
F6
A   42
F5
M  END
