2VF3_GVS_A_1269
     RDKit          3D

 50 52  0  0  0  0  0  0  0  0999 V2000
   44.2420  -11.7900  -26.4220 C   0  0  0  0  0  0  0  0  0  0  0  0
   44.9090  -13.1400  -26.7110 C   0  0  0  0  0  0  0  0  0  0  0  0
   43.9060  -12.5570  -27.7080 C   0  0  0  0  0  0  0  0  0  0  0  0
   44.5580  -11.8000  -29.2460 S   0  0  0  0  0  0  0  0  0  0  0  0
   43.5650  -10.8210  -29.7650 O   0  0  0  0  0  0  0  0  0  0  0  0
   45.8090  -11.0210  -28.9730 O   0  0  0  0  0  0  0  0  0  0  0  0
   44.9390  -12.9920  -30.3920 N   0  0  0  0  0  0  0  0  0  0  0  0
   46.3200  -13.5600  -30.3720 C   0  0  0  0  0  0  0  0  0  0  0  0
   46.5210  -14.6430  -29.3660 C   0  0  0  0  0  0  0  0  0  0  0  0
   46.7370  -15.5310  -28.4840 C   0  0  0  0  0  0  0  0  0  0  0  0
   46.9810  -16.5470  -27.4730 C   0  0  0  0  0  0  0  0  0  0  0  0
   47.8100  -16.2930  -26.3810 C   0  0  0  0  0  0  0  0  0  0  0  0
   46.3810  -17.7990  -27.5610 C   0  0  0  0  0  0  0  0  0  0  0  0
   45.5870  -18.0690  -28.5960 N   0  0  0  0  0  0  0  0  0  0  0  0
   46.6040  -18.7390  -26.6200 N   0  0  0  0  0  0  0  0  0  0  0  0
   47.3930  -18.5300  -25.5440 C   0  0  0  0  0  0  0  0  0  0  0  0
   47.5150  -19.4540  -24.7290 O   0  0  0  0  0  0  0  0  0  0  0  0
   48.0510  -17.2710  -25.3760 N   0  0  0  0  0  0  0  0  0  0  0  0
   48.9890  -16.9330  -24.2050 C   0  0  0  0  0  0  0  0  0  0  0  0
   50.4380  -16.6970  -24.6510 C   0  0  0  0  0  0  0  0  0  0  0  0
   50.1380  -15.2770  -24.7560 O   0  0  0  0  0  0  0  0  0  0  0  0
   49.0080  -15.4530  -23.8670 C   0  0  0  0  0  0  0  0  0  0  0  0
   48.8760  -17.7600  -22.8870 C   0  0  0  0  0  0  0  0  0  0  0  0
   49.9510  -18.8670  -22.6910 C   0  0  0  0  0  0  0  0  0  0  0  0
   50.1940  -19.6850  -23.5860 O   0  0  0  0  0  0  0  0  0  0  0  0
   50.6440  -18.9280  -21.5060 O   0  0  0  0  0  0  0  0  0  0  0  0
   51.1540  -20.2700  -21.1910 C   0  0  0  0  0  0  0  0  0  0  0  0
   52.6120  -20.5130  -21.6230 C   0  0  0  0  0  0  0  0  0  0  0  0
   43.4941  -11.7060  -25.6198 H   0  0  0  0  0  0  0  0  0  0  0  0
   44.6024  -10.7767  -26.1911 H   0  0  0  0  0  0  0  0  0  0  0  0
   45.9779  -13.1813  -26.9672 H   0  0  0  0  0  0  0  0  0  0  0  0
   45.0016  -14.0928  -26.1691 H   0  0  0  0  0  0  0  0  0  0  0  0
   42.9978  -12.9494  -28.1888 H   0  0  0  0  0  0  0  0  0  0  0  0
   44.2831  -13.7737  -30.2520 H   0  0  0  0  0  0  0  0  0  0  0  0
   46.5388  -13.9702  -31.3689 H   0  0  0  0  0  0  0  0  0  0  0  0
   46.9957  -12.7386  -30.0916 H   0  0  0  0  0  0  0  0  0  0  0  0
   48.2917  -15.3079  -26.2939 H   0  0  0  0  0  0  0  0  0  0  0  0
   44.6239  -18.3965  -28.4346 H   0  0  0  0  0  0  0  0  0  0  0  0
   45.9362  -17.9503  -29.5577 H   0  0  0  0  0  0  0  0  0  0  0  0
   51.1935  -16.9468  -23.8916 H   0  0  0  0  0  0  0  0  0  0  0  0
   50.8698  -17.2511  -25.4975 H   0  0  0  0  0  0  0  0  0  0  0  0
   48.1031  -14.9085  -24.1747 H   0  0  0  0  0  0  0  0  0  0  0  0
   49.0596  -15.1171  -22.8208 H   0  0  0  0  0  0  0  0  0  0  0  0
   48.9531  -17.0606  -22.0415 H   0  0  0  0  0  0  0  0  0  0  0  0
   47.9114  -18.2856  -22.9446 H   0  0  0  0  0  0  0  0  0  0  0  0
   51.0885  -20.4165  -20.1028 H   0  0  0  0  0  0  0  0  0  0  0  0
   50.5356  -20.9822  -21.7570 H   0  0  0  0  0  0  0  0  0  0  0  0
   53.2461  -20.6187  -20.7304 H   0  0  0  0  0  0  0  0  0  0  0  0
   52.6680  -21.4329  -22.2236 H   0  0  0  0  0  0  0  0  0  0  0  0
   52.9633  -19.6610  -22.2236 H   0  0  0  0  0  0  0  0  0  0  0  0
  1  2  1  0
  1  3  1  0
  2  3  1  0
  3  4  1  0
  4  5  2  0
  4  6  2  0
  4  7  1  0
  7  8  1  0
  8  9  1  0
  9 10  3  0
 10 11  1  0
 11 12  2  0
 11 13  1  0
 12 18  1  0
 13 14  1  0
 13 15  2  0
 15 16  1  0
 16 17  2  0
 16 18  1  0
 18 19  1  0
 19 20  1  0
 19 22  1  0
 19 23  1  0
 20 21  1  0
 21 22  1  0
 23 24  1  0
 24 25  2  0
 24 26  1  0
 26 27  1  0
 27 28  1  0
  1 29  1  0
  1 30  1  0
  2 31  1  0
  2 32  1  0
  3 33  1  0
  7 34  1  0
  8 35  1  0
  8 36  1  0
 12 37  1  0
 14 38  1  0
 14 39  1  0
 20 40  1  0
 20 41  1  0
 22 42  1  0
 22 43  1  0
 23 44  1  0
 23 45  1  0
 27 46  1  0
 27 47  1  0
 28 48  1  0
 28 49  1  0
 28 50  1  0
A    1
CAE
A    2
CAO
A    3
CAF
A    4
SAG
A    5
OAP
A    6
OAB
A    7
NAH
A    8
CAI
A    9
CAJ
A   10
CAK
A   11
CAL
A   12
CAQ
A   13
CAC
A   14
NAA
A   15
NAD
A   16
CAM
A   17
OAN
A   18
NAR
A   19
CAT
A   20
CAS
A   21
OAZ
A   22
CBA
A   23
CAU
A   24
CAV
A   25
OBB
A   26
OAW
A   27
CAX
A   28
CAY
M  END
