2VGP_AD6_A_1357
     RDKit          3D

 27 28  0  0  0  0  0  0  0  0999 V2000
   12.3400    2.8260    6.2340 N   0  0  0  0  0  0  0  0  0  0  0  0
   11.3700    3.7560    6.3430 C   0  0  0  0  0  0  0  0  0  0  0  0
   10.2810    3.4710    5.6180 C   0  0  0  0  0  0  0  0  0  0  0  0
   10.4890    2.0760    4.8150 S   0  0  0  0  0  0  0  0  0  0  0  0
   12.0480    1.8060    5.4180 C   0  0  0  0  0  0  0  0  0  0  0  0
   12.9140    0.7800    5.2240 N   0  0  0  0  0  0  0  0  0  0  0  0
   12.8580   -0.1470    4.2400 C   0  0  0  0  0  0  0  0  0  0  0  0
   11.6990   -0.5010    3.5400 C   0  0  0  0  0  0  0  0  0  0  0  0
   11.7400   -1.4780    2.5370 C   0  0  0  0  0  0  0  0  0  0  0  0
   14.0540   -0.7990    3.9310 C   0  0  0  0  0  0  0  0  0  0  0  0
   14.0960   -1.7810    2.9350 C   0  0  0  0  0  0  0  0  0  0  0  0
   12.9410   -2.1260    2.2250 C   0  0  0  0  0  0  0  0  0  0  0  0
   12.9890   -3.1020    1.2160 C   0  0  0  0  0  0  0  0  0  0  0  0
   13.7630   -4.0620    1.2910 O   0  0  0  0  0  0  0  0  0  0  0  0
   12.1480   -2.8920    0.1780 N   0  0  0  0  0  0  0  0  0  0  0  0
   12.1300   -3.8630   -0.9340 C   0  0  0  0  0  0  0  0  0  0  0  0
    8.7360    4.5630    5.5650 Br  0  0  0  0  0  0  0  0  0  0  0  0
   11.4638    4.6583    6.9651 H   0  0  0  0  0  0  0  0  0  0  0  0
   13.6927    0.6984    5.8933 H   0  0  0  0  0  0  0  0  0  0  0  0
   10.7459   -0.0069    3.7799 H   0  0  0  0  0  0  0  0  0  0  0  0
   10.8215   -1.7380    1.9904 H   0  0  0  0  0  0  0  0  0  0  0  0
   14.9728   -0.5377    4.4765 H   0  0  0  0  0  0  0  0  0  0  0  0
   15.0463   -2.2865    2.7081 H   0  0  0  0  0  0  0  0  0  0  0  0
   11.5301   -2.0681    0.1634 H   0  0  0  0  0  0  0  0  0  0  0  0
   12.1111   -4.8851   -0.5280 H   0  0  0  0  0  0  0  0  0  0  0  0
   11.2348   -3.6970   -1.5513 H   0  0  0  0  0  0  0  0  0  0  0  0
   13.0308   -3.7303   -1.5513 H   0  0  0  0  0  0  0  0  0  0  0  0
  1  2  1  0
  1  5  2  0
  2  3  2  0
  3  4  1  0
  3 17  1  0
  4  5  1  0
  5  6  1  0
  6  7  1  0
  7  8  2  0
  7 10  1  0
  8  9  1  0
  9 12  2  0
 10 11  2  0
 11 12  1  0
 12 13  1  0
 13 14  2  0
 13 15  1  0
 15 16  1  0
  2 18  1  0
  6 19  1  0
  8 20  1  0
  9 21  1  0
 10 22  1  0
 11 23  1  0
 15 24  1  0
 16 25  1  0
 16 26  1  0
 16 27  1  0
A    1
NAI
A    2
CAH
A    3
CAN
A    4
SAL
A    5
CAQ
A    6
NAK
A    7
CAO
A    8
CAE
A    9
CAG
A   10
CAD
A   11
CAF
A   12
CAP
A   13
CAM
A   14
OAB
A   15
NAJ
A   16
CAA
A   17
BR
M  END
