2VH6_GSV_A_1245
     RDKit          3D

 57 60  0  0  0  0  0  0  0  0999 V2000
    5.3980    1.7590   16.8250 C   0  0  0  0  0  0  0  0  0  0  0  0
    6.5130    1.6950   15.4480 S   0  0  0  0  0  0  0  0  0  0  0  0
    6.5460    3.0100   14.9000 O   0  0  0  0  0  0  0  0  0  0  0  0
    6.1050    0.6180   14.6100 O   0  0  0  0  0  0  0  0  0  0  0  0
    8.1430    1.1590   15.9910 C   0  0  0  0  0  0  0  0  0  0  0  0
    8.8370    0.2110   15.2000 C   0  0  0  0  0  0  0  0  0  0  0  0
   10.1150   -0.2600   15.5850 C   0  0  0  0  0  0  0  0  0  0  0  0
   10.7180    0.2140   16.7690 C   0  0  0  0  0  0  0  0  0  0  0  0
   10.0240    1.1540   17.5570 C   0  0  0  0  0  0  0  0  0  0  0  0
    8.7400    1.6320   17.1750 C   0  0  0  0  0  0  0  0  0  0  0  0
    8.0860    2.6280   18.0810 C   0  0  0  0  0  0  0  0  0  0  0  0
    8.1710    4.0080   17.8100 C   0  0  0  0  0  0  0  0  0  0  0  0
    7.5330    4.8890   18.6990 C   0  0  0  0  0  0  0  0  0  0  0  0
    7.6030    6.2140   18.4860 F   0  0  0  0  0  0  0  0  0  0  0  0
    7.3590    2.1550   19.2120 C   0  0  0  0  0  0  0  0  0  0  0  0
    6.7180    3.0380   20.0990 C   0  0  0  0  0  0  0  0  0  0  0  0
    6.8110    4.4280   19.8350 C   0  0  0  0  0  0  0  0  0  0  0  0
    6.1610    5.3220   20.7220 N   0  0  0  0  0  0  0  0  0  0  0  0
    6.7540    6.4400   21.2260 C   0  0  0  0  0  0  0  0  0  0  0  0
    7.9050    6.8070   21.0640 O   0  0  0  0  0  0  0  0  0  0  0  0
    4.7860    5.1480   21.1700 C   0  0  0  0  0  0  0  0  0  0  0  0
    4.3920    6.5800   21.5330 C   0  0  0  0  0  0  0  0  0  0  0  0
    5.7190    7.1900   22.0220 C   0  0  0  0  0  0  0  0  0  0  0  0
    5.8070    8.6150   21.7500 N   0  0  0  0  0  0  0  0  0  0  0  0
    6.3570    9.6930   22.8230 S   0  0  0  0  0  0  0  0  0  0  0  0
    6.4290   10.8720   22.0080 O   0  0  0  0  0  0  0  0  0  0  0  0
    5.5530    9.6540   23.9990 O   0  0  0  0  0  0  0  0  0  0  0  0
    7.9360    9.1700   23.3460 C   0  0  0  0  0  0  0  0  0  0  0  0
    8.0730    8.7070   24.7320 C   0  0  0  0  0  0  0  0  0  0  0  0
    9.3330    8.2030   25.3280 C   0  0  0  0  0  0  0  0  0  0  0  0
   10.8280    8.4590   24.5420 S   0  0  0  0  0  0  0  0  0  0  0  0
    9.4020    7.5390   26.5640 C   0  0  0  0  0  0  0  0  0  0  0  0
   10.7570    7.2180   26.8570 C   0  0  0  0  0  0  0  0  0  0  0  0
   11.6060    7.6650   25.8140 C   0  0  0  0  0  0  0  0  0  0  0  0
   13.3210    7.4580   25.7710 Cl  0  0  0  0  0  0  0  0  0  0  0  0
    5.9716    1.7261   17.7631 H   0  0  0  0  0  0  0  0  0  0  0  0
    4.8168    2.6920   16.7831 H   0  0  0  0  0  0  0  0  0  0  0  0
    4.7139    0.8986   16.7831 H   0  0  0  0  0  0  0  0  0  0  0  0
    8.3766   -0.1642   14.2741 H   0  0  0  0  0  0  0  0  0  0  0  0
   10.6393   -0.9974   14.9595 H   0  0  0  0  0  0  0  0  0  0  0  0
   11.7130   -0.1440   17.0720 H   0  0  0  0  0  0  0  0  0  0  0  0
   10.4839    1.5250   18.4848 H   0  0  0  0  0  0  0  0  0  0  0  0
    8.7182    4.3827   16.9324 H   0  0  0  0  0  0  0  0  0  0  0  0
    7.2978    1.0722   19.3956 H   0  0  0  0  0  0  0  0  0  0  0  0
    6.1618    2.6621   20.9704 H   0  0  0  0  0  0  0  0  0  0  0  0
    4.1501    4.7492   20.3659 H   0  0  0  0  0  0  0  0  0  0  0  0
    4.6742    4.4318   21.9974 H   0  0  0  0  0  0  0  0  0  0  0  0
    4.0087    7.1195   20.6544 H   0  0  0  0  0  0  0  0  0  0  0  0
    3.5883    6.6322   22.2823 H   0  0  0  0  0  0  0  0  0  0  0  0
    5.8389    7.0990   23.1117 H   0  0  0  0  0  0  0  0  0  0  0  0
    6.4124    8.7073   20.9218 H   0  0  0  0  0  0  0  0  0  0  0  0
    8.2424    8.3416   22.6903 H   0  0  0  0  0  0  0  0  0  0  0  0
    8.5626   10.0723   23.2893 H   0  0  0  0  0  0  0  0  0  0  0  0
    7.7686    9.5577   25.3594 H   0  0  0  0  0  0  0  0  0  0  0  0
    7.4796    7.7814   24.6972 H   0  0  0  0  0  0  0  0  0  0  0  0
    8.5409    7.3034   27.2066 H   0  0  0  0  0  0  0  0  0  0  0  0
   11.0971    6.6970   27.7641 H   0  0  0  0  0  0  0  0  0  0  0  0
  1  2  1  0
  2  3  2  0
  2  4  2  0
  2  5  1  0
  5  6  2  0
  5 10  1  0
  6  7  1  0
  7  8  2  0
  8  9  1  0
  9 10  2  0
 10 11  1  0
 11 12  2  0
 11 15  1  0
 12 13  1  0
 13 14  1  0
 13 17  2  0
 15 16  2  0
 16 17  1  0
 17 18  1  0
 18 19  1  0
 18 21  1  0
 19 20  2  0
 19 23  1  0
 21 22  1  0
 22 23  1  0
 23 24  1  0
 24 25  1  0
 25 26  2  0
 25 27  2  0
 25 28  1  0
 28 29  1  0
 29 30  1  0
 30 31  1  0
 30 32  2  0
 31 34  1  0
 32 33  1  0
 33 34  2  0
 34 35  1  0
  1 36  1  0
  1 37  1  0
  1 38  1  0
  6 39  1  0
  7 40  1  0
  8 41  1  0
  9 42  1  0
 12 43  1  0
 15 44  1  0
 16 45  1  0
 21 46  1  0
 21 47  1  0
 22 48  1  0
 22 49  1  0
 23 50  1  0
 24 51  1  0
 28 52  1  0
 28 53  1  0
 29 54  1  0
 29 55  1  0
 32 56  1  0
 33 57  1  0
A    1
C35
A    2
S32
A    3
O37
A    4
O36
A    5
C29
A    6
C31
A    7
C34
A    8
C33
A    9
C30
A   10
C28
A   11
C27
A   12
C26
A   13
C22
A   14
F
A   15
C24
A   16
C21
A   17
C15
A   18
N2
A   19
C50
A   20
O3
A   21
C14
A   22
C13
A   23
C12
A   24
N1
A   25
S1
A   26
O2
A   27
O1
A   28
C6
A   29
C5
A   30
C4
A   31
S2
A   32
C3
A   33
C2
A   34
C1
A   35
CL
M  END
