2VI0_VAM_A_1283
     RDKit          3D

 48 49  0  0  0  0  0  0  0  0999 V2000
   23.1590   30.4310   19.5240 O   0  0  0  0  0  0  0  0  0  0  0  0
   23.5760   30.1510   18.1790 C   0  0  0  0  0  0  0  0  0  0  0  0
   23.6010   31.4630   17.3910 C   0  0  0  0  0  0  0  0  0  0  0  0
   22.2990   32.0940   17.4190 O   0  0  0  0  0  0  0  0  0  0  0  0
   22.2520   33.2980   16.6420 C   0  0  0  0  0  0  0  0  0  0  0  0
   21.0450   33.6930   15.9870 O   0  0  0  0  0  0  0  0  0  0  0  0
   20.1660   32.6060   15.6540 C   0  0  0  0  0  0  0  0  0  0  0  0
   24.6620   32.4340   17.9330 C   0  0  0  0  0  0  0  0  0  0  0  0
   25.8930   31.6900   17.9110 O   0  0  0  0  0  0  0  0  0  0  0  0
   24.7140   33.7230   17.0990 C   0  0  0  0  0  0  0  0  0  0  0  0
   23.3180   34.3530   16.9990 C   0  0  0  0  0  0  0  0  0  0  0  0
   23.3240   35.4550   16.0760 O   0  0  0  0  0  0  0  0  0  0  0  0
   25.6110   34.6780   17.6990 O   0  0  0  0  0  0  0  0  0  0  0  0
   29.7010   30.0930   20.2760 O   0  0  0  0  0  0  0  0  0  0  0  0
   29.8620   34.0560   17.2650 C   0  0  0  0  0  0  0  0  0  0  0  0
   29.2130   35.2820   16.9600 O   0  0  0  0  0  0  0  0  0  0  0  0
   29.0710   33.2420   18.2830 C   0  0  0  0  0  0  0  0  0  0  0  0
   27.8760   32.7630   17.6900 O   0  0  0  0  0  0  0  0  0  0  0  0
   29.8350   32.0240   18.7810 C   0  0  0  0  0  0  0  0  0  0  0  0
   29.0000   31.2560   19.8090 C   0  0  0  0  0  0  0  0  0  0  0  0
   27.6700   30.8770   19.1780 C   0  0  0  0  0  0  0  0  0  0  0  0
   27.0090   32.1220   18.6300 C   0  0  0  0  0  0  0  0  0  0  0  0
   26.8000   30.2700   20.1360 O   0  0  0  0  0  0  0  0  0  0  0  0
   31.3460   32.5750   19.5320 S   0  0  0  0  0  0  0  0  0  0  0  0
   23.7891   30.0079   20.1597 H   0  0  0  0  0  0  0  0  0  0  0  0
   24.5816   29.7053   18.1882 H   0  0  0  0  0  0  0  0  0  0  0  0
   22.8766   29.4441   17.7088 H   0  0  0  0  0  0  0  0  0  0  0  0
   23.8654   31.2162   16.3522 H   0  0  0  0  0  0  0  0  0  0  0  0
   22.6217   32.9267   15.6748 H   0  0  0  0  0  0  0  0  0  0  0  0
   19.7906   32.1418   16.5779 H   0  0  0  0  0  0  0  0  0  0  0  0
   19.3189   32.9868   15.0646 H   0  0  0  0  0  0  0  0  0  0  0  0
   20.7157   31.8573   15.0646 H   0  0  0  0  0  0  0  0  0  0  0  0
   24.4389   32.7809   18.9528 H   0  0  0  0  0  0  0  0  0  0  0  0
   25.0748   33.4598   16.0937 H   0  0  0  0  0  0  0  0  0  0  0  0
   23.0465   34.7539   17.9867 H   0  0  0  0  0  0  0  0  0  0  0  0
   23.3286   36.3073   16.5797 H   0  0  0  0  0  0  0  0  0  0  0  0
   25.5503   34.6134   18.6850 H   0  0  0  0  0  0  0  0  0  0  0  0
   29.7054   30.0857   21.2660 H   0  0  0  0  0  0  0  0  0  0  0  0
   29.9670   33.4679   16.3413 H   0  0  0  0  0  0  0  0  0  0  0  0
   30.8469   34.2857   17.6977 H   0  0  0  0  0  0  0  0  0  0  0  0
   28.9684   35.7440   17.8007 H   0  0  0  0  0  0  0  0  0  0  0  0
   28.8727   33.9162   19.1292 H   0  0  0  0  0  0  0  0  0  0  0  0
   30.0511   31.3533   17.9363 H   0  0  0  0  0  0  0  0  0  0  0  0
   28.8177   31.8969   20.6842 H   0  0  0  0  0  0  0  0  0  0  0  0
   27.8606   30.1540   18.3712 H   0  0  0  0  0  0  0  0  0  0  0  0
   26.7625   32.8141   19.4487 H   0  0  0  0  0  0  0  0  0  0  0  0
   27.1122   30.4878   21.0499 H   0  0  0  0  0  0  0  0  0  0  0  0
   31.2213   32.5295   20.8956 H   0  0  0  0  0  0  0  0  0  0  0  0
  1  2  1  0
  2  3  1  0
  3  4  1  0
  3  8  1  0
  4  5  1  0
  5  6  1  0
  5 11  1  0
  6  7  1  0
  8  9  1  0
  8 10  1  0
  9 22  1  0
 10 11  1  0
 10 13  1  0
 11 12  1  0
 14 20  1  0
 15 16  1  0
 15 17  1  0
 17 18  1  0
 17 19  1  0
 18 22  1  0
 19 20  1  0
 19 24  1  0
 20 21  1  0
 21 22  1  0
 21 23  1  0
  1 25  1  0
  2 26  1  0
  2 27  1  0
  3 28  1  0
  5 29  1  0
  7 30  1  0
  7 31  1  0
  7 32  1  0
  8 33  1  0
 10 34  1  0
 11 35  1  0
 12 36  1  0
 13 37  1  0
 14 38  1  0
 15 39  1  0
 15 40  1  0
 16 41  1  0
 17 42  1  0
 19 43  1  0
 20 44  1  0
 21 45  1  0
 22 46  1  0
 23 47  1  0
 24 48  1  0
A    1
O10
A    2
C12
A    3
C11
A    4
O11
A    5
C7
A    6
O7
A    7
CM
A    8
C10
A    9
O9
A   10
C9
A   11
C8
A   12
O8
A   13
O1
A   14
O6
A   15
C2
A   16
O2
A   17
C3
A   18
O3
A   19
C4
A   20
C5
A   21
C6
A   22
C70
A   23
O5
A   24
S10
M  END
