2VI5_Y19_A_201
     RDKit          3D

 43 43  0  0  0  0  0  0  0  0999 V2000
   10.1130   10.0660  -15.1780 O   0  0  0  0  0  0  0  0  0  0  0  0
   10.0010    8.9590  -15.7480 C   0  0  0  0  0  0  0  0  0  0  0  0
    8.9900    8.7480  -16.6240 N   0  0  0  0  0  0  0  0  0  0  0  0
    8.8320    7.5730  -17.2710 C   0  0  0  0  0  0  0  0  0  0  0  0
    7.8770    7.4210  -18.0650 O   0  0  0  0  0  0  0  0  0  0  0  0
   10.9030    7.9910  -15.4820 N   0  0  0  0  0  0  0  0  0  0  0  0
   10.8500    6.7680  -16.0670 C   0  0  0  0  0  0  0  0  0  0  0  0
    9.7490    6.4350  -17.0130 C   0  0  0  0  0  0  0  0  0  0  0  0
   10.1990    5.7750  -18.2340 N   0  0  0  0  0  0  0  0  0  0  0  0
    9.7830    4.5470  -18.5710 C   0  0  0  0  0  0  0  0  0  0  0  0
    8.8240    3.8310  -17.6400 C   0  0  0  0  0  0  0  0  0  0  0  0
    7.4430    3.6950  -18.2480 C   0  0  0  0  0  0  0  0  0  0  0  0
   10.1620    3.9920  -19.5880 O   0  0  0  0  0  0  0  0  0  0  0  0
   11.7790    5.8320  -15.7370 N   0  0  0  0  0  0  0  0  0  0  0  0
   12.8640    6.1340  -14.8120 C   0  0  0  0  0  0  0  0  0  0  0  0
   12.4450    5.9120  -13.3620 C   0  0  0  0  0  0  0  0  0  0  0  0
   11.6230    6.9950  -12.9160 O   0  0  0  0  0  0  0  0  0  0  0  0
   13.6870    5.8490  -12.4760 C   0  0  0  0  0  0  0  0  0  0  0  0
   14.5910    6.9060  -12.8280 O   0  0  0  0  0  0  0  0  0  0  0  0
   14.3880    4.4930  -12.5900 C   0  0  0  0  0  0  0  0  0  0  0  0
   13.5200    3.4550  -12.1140 O   0  0  0  0  0  0  0  0  0  0  0  0
   15.7070    4.4590  -11.8220 C   0  0  0  0  0  0  0  0  0  0  0  0
   15.4770    4.6080  -10.4170 O   0  0  0  0  0  0  0  0  0  0  0  0
    8.3192    9.5089  -16.8028 H   0  0  0  0  0  0  0  0  0  0  0  0
    9.1462    5.6804  -16.4864 H   0  0  0  0  0  0  0  0  0  0  0  0
   10.8561    6.2680  -18.8554 H   0  0  0  0  0  0  0  0  0  0  0  0
    9.2189    2.8269  -17.4260 H   0  0  0  0  0  0  0  0  0  0  0  0
    8.7343    4.4260  -16.7192 H   0  0  0  0  0  0  0  0  0  0  0  0
    6.6946    3.6213  -17.4452 H   0  0  0  0  0  0  0  0  0  0  0  0
    7.2278    4.5763  -18.8701 H   0  0  0  0  0  0  0  0  0  0  0  0
    7.4039    2.7887  -18.8701 H   0  0  0  0  0  0  0  0  0  0  0  0
   11.7148    4.8902  -16.1491 H   0  0  0  0  0  0  0  0  0  0  0  0
   13.7195    5.4813  -15.0402 H   0  0  0  0  0  0  0  0  0  0  0  0
   13.1343    7.1934  -14.9333 H   0  0  0  0  0  0  0  0  0  0  0  0
   11.8825    4.9689  -13.2979 H   0  0  0  0  0  0  0  0  0  0  0  0
   11.6093    7.0130  -11.9263 H   0  0  0  0  0  0  0  0  0  0  0  0
   13.3680    5.9743  -11.4307 H   0  0  0  0  0  0  0  0  0  0  0  0
   14.9478    7.3232  -12.0041 H   0  0  0  0  0  0  0  0  0  0  0  0
   14.6207    4.3295  -13.6526 H   0  0  0  0  0  0  0  0  0  0  0  0
   13.5190    3.4538  -11.1240 H   0  0  0  0  0  0  0  0  0  0  0  0
   16.2076    3.4970  -12.0062 H   0  0  0  0  0  0  0  0  0  0  0  0
   16.3395    5.2900  -12.1675 H   0  0  0  0  0  0  0  0  0  0  0  0
   16.1929    4.1443   -9.9144 H   0  0  0  0  0  0  0  0  0  0  0  0
  1  2  2  0
  2  3  1  0
  2  6  1  0
  3  4  1  0
  4  5  2  0
  4  8  1  0
  6  7  2  0
  7  8  1  0
  7 14  1  0
  8  9  1  0
  9 10  1  0
 10 11  1  0
 10 13  2  0
 11 12  1  0
 14 15  1  0
 15 16  1  0
 16 17  1  0
 16 18  1  0
 18 19  1  0
 18 20  1  0
 20 21  1  0
 20 22  1  0
 22 23  1  0
  3 24  1  0
  8 25  1  0
  9 26  1  0
 11 27  1  0
 11 28  1  0
 12 29  1  0
 12 30  1  0
 12 31  1  0
 14 32  1  0
 15 33  1  0
 15 34  1  0
 16 35  1  0
 17 36  1  0
 18 37  1  0
 19 38  1  0
 20 39  1  0
 21 40  1  0
 22 41  1  0
 22 42  1  0
 23 43  1  0
A    1
O2
A    2
C2
A    3
N3
A    4
C4
A    5
O4
A    6
N1
A    7
C6
A    8
C5
A    9
N13
A   10
C14
A   11
C15
A   12
C16
A   13
O23
A   14
N7
A   15
C8
A   16
C9
A   17
O9
A   18
C10
A   19
O10
A   20
C11
A   21
O11
A   22
C12
A   23
O12
M  END
