2VIN_505_A_1247
     RDKit          3D

 30 30  0  0  0  0  0  0  0  0999 V2000
   31.5240    3.8010   28.2230 C   0  0  0  0  0  0  0  0  0  0  0  0
   32.6170    4.7730   27.8010 C   0  0  0  0  0  0  0  0  0  0  0  0
   33.0070    4.3980   26.4000 N   0  0  0  0  0  0  0  0  0  0  0  0
   32.1320    6.2200   27.8620 C   0  0  0  0  0  0  0  0  0  0  0  0
   30.9340    6.3530   27.0450 O   0  0  0  0  0  0  0  0  0  0  0  0
   30.0970    7.4110   27.3030 C   0  0  0  0  0  0  0  0  0  0  0  0
   28.9130    7.1980   28.0380 C   0  0  0  0  0  0  0  0  0  0  0  0
   28.5620    5.8270   28.5530 C   0  0  0  0  0  0  0  0  0  0  0  0
   28.0790    8.2770   28.2890 C   0  0  0  0  0  0  0  0  0  0  0  0
   28.3930    9.5360   27.8170 C   0  0  0  0  0  0  0  0  0  0  0  0
   29.5500    9.7460   27.0920 C   0  0  0  0  0  0  0  0  0  0  0  0
   30.4180    8.6960   26.8250 C   0  0  0  0  0  0  0  0  0  0  0  0
   31.6810    8.9340   26.0370 C   0  0  0  0  0  0  0  0  0  0  0  0
   31.4756    3.7579   29.3211 H   0  0  0  0  0  0  0  0  0  0  0  0
   30.5565    4.1425   27.8264 H   0  0  0  0  0  0  0  0  0  0  0  0
   31.7502    2.8002   27.8264 H   0  0  0  0  0  0  0  0  0  0  0  0
   33.4771    4.7074   28.4836 H   0  0  0  0  0  0  0  0  0  0  0  0
   33.7492    3.6844   26.4296 H   0  0  0  0  0  0  0  0  0  0  0  0
   32.1868    4.0200   25.9048 H   0  0  0  0  0  0  0  0  0  0  0  0
   31.8998    6.4876   28.9034 H   0  0  0  0  0  0  0  0  0  0  0  0
   32.9167    6.8914   27.4832 H   0  0  0  0  0  0  0  0  0  0  0  0
   28.5645    5.8368   29.6530 H   0  0  0  0  0  0  0  0  0  0  0  0
   27.5625    5.5442   28.1911 H   0  0  0  0  0  0  0  0  0  0  0  0
   29.3026    5.0987   28.1911 H   0  0  0  0  0  0  0  0  0  0  0  0
   27.1572    8.1283   28.8705 H   0  0  0  0  0  0  0  0  0  0  0  0
   27.7161   10.3790   28.0200 H   0  0  0  0  0  0  0  0  0  0  0  0
   29.7858   10.7550   26.7227 H   0  0  0  0  0  0  0  0  0  0  0  0
   32.5209    9.0923   26.7295 H   0  0  0  0  0  0  0  0  0  0  0  0
   31.8882    8.0591   25.4033 H   0  0  0  0  0  0  0  0  0  0  0  0
   31.5555    9.8243   25.4033 H   0  0  0  0  0  0  0  0  0  0  0  0
  1  2  1  0
  2  3  1  0
  2  4  1  0
  4  5  1  0
  5  6  1  0
  6  7  2  0
  6 12  1  0
  7  8  1  0
  7  9  1  0
  9 10  2  0
 10 11  1  0
 11 12  2  0
 12 13  1  0
  1 14  1  0
  1 15  1  0
  1 16  1  0
  2 17  1  0
  3 18  1  0
  3 19  1  0
  4 20  1  0
  4 21  1  0
  8 22  1  0
  8 23  1  0
  8 24  1  0
  9 25  1  0
 10 26  1  0
 11 27  1  0
 13 28  1  0
 13 29  1  0
 13 30  1  0
A    1
C1
A    2
C2
A    3
N3
A    4
C4
A    5
O5
A    6
C6
A    7
C7
A    8
C8
A    9
C9
A   10
C10
A   11
C11
A   12
C12
A   13
C13
M  END
