2VIP_L1R_A_1247
     RDKit          3D

 45 46  0  0  0  0  0  0  0  0999 V2000
   21.7770   10.7610   29.7930 C   0  0  0  0  0  0  0  0  0  0  0  0
   21.6240   12.1830   29.2780 C   0  0  0  0  0  0  0  0  0  0  0  0
   20.2380   12.6980   29.6220 C   0  0  0  0  0  0  0  0  0  0  0  0
   22.5180   13.0810   29.9860 O   0  0  0  0  0  0  0  0  0  0  0  0
   23.7870   12.6660   30.3040 C   0  0  0  0  0  0  0  0  0  0  0  0
   24.2050   13.3960   31.4110 C   0  0  0  0  0  0  0  0  0  0  0  0
   25.4480   13.1740   31.9670 C   0  0  0  0  0  0  0  0  0  0  0  0
   26.3030   12.2460   31.4060 C   0  0  0  0  0  0  0  0  0  0  0  0
   25.9140   11.5150   30.2910 C   0  0  0  0  0  0  0  0  0  0  0  0
   26.8030   10.5670   29.7310 N   0  0  0  0  0  0  0  0  0  0  0  0
   27.0210   10.3670   28.4210 C   0  0  0  0  0  0  0  0  0  0  0  0
   26.5120   11.0390   27.5520 O   0  0  0  0  0  0  0  0  0  0  0  0
   27.9750    9.2760   28.0520 C   0  0  0  0  0  0  0  0  0  0  0  0
   28.7900    9.5230   26.9540 C   0  0  0  0  0  0  0  0  0  0  0  0
   29.7070    8.5740   26.5430 C   0  0  0  0  0  0  0  0  0  0  0  0
   30.7190    8.8960   25.1680 Cl  0  0  0  0  0  0  0  0  0  0  0  0
   29.8050    7.3560   27.2410 C   0  0  0  0  0  0  0  0  0  0  0  0
   30.6980    6.3760   26.9120 O   0  0  0  0  0  0  0  0  0  0  0  0
   31.8140    6.1920   27.8050 C   0  0  0  0  0  0  0  0  0  0  0  0
   32.3920    4.8070   27.5900 C   0  0  0  0  0  0  0  0  0  0  0  0
   33.1240    4.6980   26.2990 N   0  0  0  0  0  0  0  0  0  0  0  0
   28.9960    7.1170   28.3470 C   0  0  0  0  0  0  0  0  0  0  0  0
   29.1410    5.6270   29.2200 Cl  0  0  0  0  0  0  0  0  0  0  0  0
   28.0810    8.0790   28.7570 C   0  0  0  0  0  0  0  0  0  0  0  0
   24.6570   11.7380   29.7380 C   0  0  0  0  0  0  0  0  0  0  0  0
   21.7763   10.7673   30.8930 H   0  0  0  0  0  0  0  0  0  0  0  0
   20.9397   10.1472   29.4293 H   0  0  0  0  0  0  0  0  0  0  0  0
   22.7257   10.3394   29.4293 H   0  0  0  0  0  0  0  0  0  0  0  0
   21.8257   12.1600   28.1969 H   0  0  0  0  0  0  0  0  0  0  0  0
   20.1235   12.7405   30.7152 H   0  0  0  0  0  0  0  0  0  0  0  0
   20.1059   13.7052   29.2000 H   0  0  0  0  0  0  0  0  0  0  0  0
   19.4803   12.0214   29.2000 H   0  0  0  0  0  0  0  0  0  0  0  0
   23.5398   14.1561   31.8467 H   0  0  0  0  0  0  0  0  0  0  0  0
   25.7587   13.7375   32.8592 H   0  0  0  0  0  0  0  0  0  0  0  0
   27.2986   12.0847   31.8451 H   0  0  0  0  0  0  0  0  0  0  0  0
   27.3315    9.9760   30.3886 H   0  0  0  0  0  0  0  0  0  0  0  0
   28.7052   10.4757   26.4108 H   0  0  0  0  0  0  0  0  0  0  0  0
   32.5834    6.9498   27.5955 H   0  0  0  0  0  0  0  0  0  0  0  0
   31.4787    6.2982   28.8473 H   0  0  0  0  0  0  0  0  0  0  0  0
   33.0876    4.5819   28.4118 H   0  0  0  0  0  0  0  0  0  0  0  0
   31.5563    4.0921   27.5660 H   0  0  0  0  0  0  0  0  0  0  0  0
   34.1262    4.5488   26.4841 H   0  0  0  0  0  0  0  0  0  0  0  0
   32.7524    3.9031   25.7597 H   0  0  0  0  0  0  0  0  0  0  0  0
   27.4431    7.8963   29.6344 H   0  0  0  0  0  0  0  0  0  0  0  0
   24.3475   11.1756   28.8448 H   0  0  0  0  0  0  0  0  0  0  0  0
  1  2  1  0
  2  3  1  0
  2  4  1  0
  4  5  1  0
  5  6  2  0
  5 25  1  0
  6  7  1  0
  7  8  2  0
  8  9  1  0
  9 10  1  0
  9 25  2  0
 10 11  1  0
 11 12  2  0
 11 13  1  0
 13 14  2  0
 13 24  1  0
 14 15  1  0
 15 16  1  0
 15 17  2  0
 17 18  1  0
 17 22  1  0
 18 19  1  0
 19 20  1  0
 20 21  1  0
 22 23  1  0
 22 24  2  0
  1 26  1  0
  1 27  1  0
  1 28  1  0
  2 29  1  0
  3 30  1  0
  3 31  1  0
  3 32  1  0
  6 33  1  0
  7 34  1  0
  8 35  1  0
 10 36  1  0
 14 37  1  0
 19 38  1  0
 19 39  1  0
 20 40  1  0
 20 41  1  0
 21 42  1  0
 21 43  1  0
 24 44  1  0
 25 45  1  0
A    1
C1
A    2
C2
A    3
C3
A    4
O4
A    5
C5
A    6
C6
A    7
C7
A    8
C8
A    9
C9
A   10
N10
A   11
C11
A   12
O12
A   13
C13
A   14
C14
A   15
C15
A   16
CL1
A   17
C17
A   18
O18
A   19
C19
A   20
C20
A   21
N21
A   22
C22
A   23
CL2
A   24
C24
A   25
C25
M  END
