2VJ8_HA2_A_1616
     RDKit          3D

 57 58  0  0  0  0  0  0  0  0999 V2000
    8.1010   39.2790   67.5910 C   0  0  0  0  0  0  0  0  0  0  0  0
    8.0020   37.9160   67.9260 C   0  0  0  0  0  0  0  0  0  0  0  0
    7.7700   37.5000   69.2450 C   0  0  0  0  0  0  0  0  0  0  0  0
    7.6320   38.4700   70.2610 C   0  0  0  0  0  0  0  0  0  0  0  0
    7.7190   39.8380   69.9300 C   0  0  0  0  0  0  0  0  0  0  0  0
    7.9510   40.2510   68.6080 C   0  0  0  0  0  0  0  0  0  0  0  0
    8.0420   41.7380   68.2960 C   0  0  0  0  0  0  0  0  0  0  0  0
    8.3770   41.9640   66.9270 O   0  0  0  0  0  0  0  0  0  0  0  0
    9.7120   42.1700   66.4550 C   0  0  0  0  0  0  0  0  0  0  0  0
    9.9750   43.1500   65.4750 C   0  0  0  0  0  0  0  0  0  0  0  0
   11.2920   43.3460   65.0070 C   0  0  0  0  0  0  0  0  0  0  0  0
   10.7740   41.3750   66.9610 C   0  0  0  0  0  0  0  0  0  0  0  0
   12.0850   41.5780   66.4950 C   0  0  0  0  0  0  0  0  0  0  0  0
   12.3420   42.5640   65.5250 C   0  0  0  0  0  0  0  0  0  0  0  0
   13.7930   42.7920   65.0760 C   0  0  0  0  0  0  0  0  0  0  0  0
   14.0900   42.0900   63.7170 C   0  0  0  0  0  0  0  0  0  0  0  0
   13.5620   40.7250   63.7290 N   0  0  0  0  0  0  0  0  0  0  0  0
   15.6120   42.0380   63.4580 C   0  0  0  0  0  0  0  0  0  0  0  0
   16.3700   41.7450   64.7040 N   0  0  0  0  0  0  0  0  0  0  0  0
   16.1120   40.6190   65.3950 O   0  0  0  0  0  0  0  0  0  0  0  0
   17.2980   42.6210   65.1480 C   0  0  0  0  0  0  0  0  0  0  0  0
   17.5160   43.6810   64.5390 O   0  0  0  0  0  0  0  0  0  0  0  0
   18.0540   42.3010   66.4240 C   0  0  0  0  0  0  0  0  0  0  0  0
   18.9630   43.4560   66.8290 C   0  0  0  0  0  0  0  0  0  0  0  0
   18.4750   44.0680   68.1380 C   0  0  0  0  0  0  0  0  0  0  0  0
   18.8490   45.5480   68.2010 C   0  0  0  0  0  0  0  0  0  0  0  0
   17.6250   46.4020   68.4790 C   0  0  0  0  0  0  0  0  0  0  0  0
   17.7790   47.3410   69.2660 O   0  0  0  0  0  0  0  0  0  0  0  0
   16.5540   46.0980   67.8910 O   0  0  0  0  0  0  0  0  0  0  0  0
    8.2925   39.5848   66.5519 H   0  0  0  0  0  0  0  0  0  0  0  0
    8.1091   37.1592   67.1349 H   0  0  0  0  0  0  0  0  0  0  0  0
    7.6964   36.4291   69.4853 H   0  0  0  0  0  0  0  0  0  0  0  0
    7.4580   38.1614   71.3024 H   0  0  0  0  0  0  0  0  0  0  0  0
    7.6032   40.5942   70.7205 H   0  0  0  0  0  0  0  0  0  0  0  0
    7.0707   42.2083   68.5090 H   0  0  0  0  0  0  0  0  0  0  0  0
    8.8335   42.1751   68.9225 H   0  0  0  0  0  0  0  0  0  0  0  0
    9.1530   43.7619   65.0753 H   0  0  0  0  0  0  0  0  0  0  0  0
   11.4975   44.1073   64.2400 H   0  0  0  0  0  0  0  0  0  0  0  0
   10.5715   40.6015   67.7164 H   0  0  0  0  0  0  0  0  0  0  0  0
   12.9097   40.9658   66.8889 H   0  0  0  0  0  0  0  0  0  0  0  0
   13.9667   43.8725   64.9651 H   0  0  0  0  0  0  0  0  0  0  0  0
   14.4603   42.3629   65.8379 H   0  0  0  0  0  0  0  0  0  0  0  0
   13.6034   42.6684   62.9178 H   0  0  0  0  0  0  0  0  0  0  0  0
   13.4410   40.4122   64.7029 H   0  0  0  0  0  0  0  0  0  0  0  0
   12.6523   40.7045   63.2463 H   0  0  0  0  0  0  0  0  0  0  0  0
   15.8216   41.2505   62.7191 H   0  0  0  0  0  0  0  0  0  0  0  0
   15.9312   43.0222   63.0846 H   0  0  0  0  0  0  0  0  0  0  0  0
   16.1558   40.8100   66.3654 H   0  0  0  0  0  0  0  0  0  0  0  0
   17.3315   42.1124   67.2317 H   0  0  0  0  0  0  0  0  0  0  0  0
   18.6772   41.4121   66.2467 H   0  0  0  0  0  0  0  0  0  0  0  0
   19.9893   43.0830   66.9613 H   0  0  0  0  0  0  0  0  0  0  0  0
   18.9444   44.2240   66.0417 H   0  0  0  0  0  0  0  0  0  0  0  0
   17.3815   43.9667   68.2009 H   0  0  0  0  0  0  0  0  0  0  0  0
   18.9502   43.5419   68.9790 H   0  0  0  0  0  0  0  0  0  0  0  0
   19.5849   45.7001   69.0043 H   0  0  0  0  0  0  0  0  0  0  0  0
   19.2739   45.8459   67.2311 H   0  0  0  0  0  0  0  0  0  0  0  0
   15.7477   45.8691   68.4179 H   0  0  0  0  0  0  0  0  0  0  0  0
  1  2  2  0
  1  6  1  0
  2  3  1  0
  3  4  2  0
  4  5  1  0
  5  6  2  0
  6  7  1  0
  7  8  1  0
  8  9  1  0
  9 10  2  0
  9 12  1  0
 10 11  1  0
 11 14  2  0
 12 13  2  0
 13 14  1  0
 14 15  1  0
 15 16  1  0
 16 17  1  0
 16 18  1  0
 18 19  1  0
 19 20  1  0
 19 21  1  0
 21 22  2  0
 21 23  1  0
 23 24  1  0
 24 25  1  0
 25 26  1  0
 26 27  1  0
 27 28  2  0
 27 29  1  0
  1 30  1  0
  2 31  1  0
  3 32  1  0
  4 33  1  0
  5 34  1  0
  7 35  1  0
  7 36  1  0
 10 37  1  0
 11 38  1  0
 12 39  1  0
 13 40  1  0
 15 41  1  0
 15 42  1  0
 16 43  1  0
 17 44  1  0
 17 45  1  0
 18 46  1  0
 18 47  1  0
 20 48  1  0
 23 49  1  0
 23 50  1  0
 24 51  1  0
 24 52  1  0
 25 53  1  0
 25 54  1  0
 26 55  1  0
 26 56  1  0
 29 57  1  0
A    1
C3
A    2
C2
A    3
C1
A    4
C6
A    5
C5
A    6
C4
A    7
C7
A    8
O1
A    9
C8
A   10
C13
A   11
C12
A   12
C9
A   13
C10
A   14
C11
A   15
C14
A   16
C15
A   17
N2
A   18
C16
A   19
N3
A   20
O2
A   21
C17
A   22
O3
A   23
C18
A   24
C19
A   25
C20
A   26
C21
A   27
C22
A   28
O5
A   29
O4
M  END
