2VKU_DBE_A_1446
     RDKit          3D

 26 27  0  0  0  0  0  0  0  0999 V2000
    6.5450   46.7740   56.8650 C   0  0  0  0  0  0  0  0  0  0  0  0
    7.7050   46.0790   57.3250 C   0  0  0  0  0  0  0  0  0  0  0  0
    6.4410   43.9560   57.3760 C   0  0  0  0  0  0  0  0  0  0  0  0
    5.2920   44.6400   56.9200 C   0  0  0  0  0  0  0  0  0  0  0  0
    5.3530   46.0400   56.6710 C   0  0  0  0  0  0  0  0  0  0  0  0
    7.6490   44.6650   57.5830 C   0  0  0  0  0  0  0  0  0  0  0  0
    8.9320   42.6690   57.7370 O   0  0  0  0  0  0  0  0  0  0  0  0
    8.8610   43.8580   58.0840 C   0  0  0  0  0  0  0  0  0  0  0  0
    9.9870   44.3900   58.9860 C   0  0  0  0  0  0  0  0  0  0  0  0
   11.2560   43.7210   59.0110 C   0  0  0  0  0  0  0  0  0  0  0  0
   12.2890   44.2060   59.8370 C   0  0  0  0  0  0  0  0  0  0  0  0
   12.0810   45.3540   60.6440 C   0  0  0  0  0  0  0  0  0  0  0  0
   10.8450   46.0280   60.6400 C   0  0  0  0  0  0  0  0  0  0  0  0
    9.7920   45.5510   59.8150 C   0  0  0  0  0  0  0  0  0  0  0  0
    4.2430   46.6700   56.2410 O   0  0  0  0  0  0  0  0  0  0  0  0
   13.0890   45.8080   61.4300 O   0  0  0  0  0  0  0  0  0  0  0  0
    6.5787   47.8554   56.6664 H   0  0  0  0  0  0  0  0  0  0  0  0
    8.6453   46.6275   57.4827 H   0  0  0  0  0  0  0  0  0  0  0  0
    6.3972   42.8741   57.5700 H   0  0  0  0  0  0  0  0  0  0  0  0
    4.3523   44.0917   56.7578 H   0  0  0  0  0  0  0  0  0  0  0  0
   11.4220   42.8310   58.3863 H   0  0  0  0  0  0  0  0  0  0  0  0
   13.2614   43.6921   59.8563 H   0  0  0  0  0  0  0  0  0  0  0  0
   10.6961   46.9168   61.2707 H   0  0  0  0  0  0  0  0  0  0  0  0
    8.8227   46.0710   59.8093 H   0  0  0  0  0  0  0  0  0  0  0  0
    3.5970   47.0367   56.8955 H   0  0  0  0  0  0  0  0  0  0  0  0
   13.0039   45.7697   62.4156 H   0  0  0  0  0  0  0  0  0  0  0  0
  4  5  2  0
  4  3  1  0
  2  1  2  0
  2  6  1  0
  1  5  1  0
  5 15  1  0
  7  8  2  0
  8  6  1  0
  8  9  1  0
  6  3  2  0
  9 14  1  0
  9 10  2  0
 14 13  2  0
 13 12  1  0
 12 11  2  0
 12 16  1  0
 11 10  1  0
  1 17  1  0
  2 18  1  0
  3 19  1  0
  4 20  1  0
 10 21  1  0
 11 22  1  0
 13 23  1  0
 14 24  1  0
 15 25  1  0
 16 26  1  0
A    1
C5
A    2
C4
A    3
C10
A    4
C1
A    5
C6
A    6
C12
A    7
O10
A    8
C11
A    9
C13
A   10
C18
A   11
C17
A   12
C16
A   13
C15
A   14
C14
A   15
O23
A   16
O24
M  END
