1OF7_DZN_A_1501
     RDKit          3D

 50 53  0  0  0  0  0  0  0  0999 V2000
   93.5050   20.3920   65.2050 O   0  0  0  0  0  0  0  0  0  0  0  0
   94.1890   21.2560   66.0560 C   0  0  0  0  0  0  0  0  0  0  0  0
   95.5630   20.5520   66.3270 C   0  0  0  0  0  0  0  0  0  0  0  0
   95.3790   19.1510   66.5590 O   0  0  0  0  0  0  0  0  0  0  0  0
   96.7650   20.9590   65.4050 C   0  0  0  0  0  0  0  0  0  0  0  0
   97.0340   22.4190   65.3550 O   0  0  0  0  0  0  0  0  0  0  0  0
   97.9900   20.0820   65.8040 C   0  0  0  0  0  0  0  0  0  0  0  0
   98.9280   20.1490   64.7490 O   0  0  0  0  0  0  0  0  0  0  0  0
   97.6420   18.5670   65.9950 C   0  0  0  0  0  0  0  0  0  0  0  0
   98.7370   17.9110   66.6190 O   0  0  0  0  0  0  0  0  0  0  0  0
   96.4900   18.4210   67.0230 C   0  0  0  0  0  0  0  0  0  0  0  0
   96.2980   17.0310   67.3710 O   0  0  0  0  0  0  0  0  0  0  0  0
   95.2040   16.5140   68.0890 C   0  0  0  0  0  0  0  0  0  0  0  0
   95.0020   15.1350   68.0070 C   0  0  0  0  0  0  0  0  0  0  0  0
   93.9420   14.5320   68.6570 C   0  0  0  0  0  0  0  0  0  0  0  0
   93.0680   15.2860   69.4350 C   0  0  0  0  0  0  0  0  0  0  0  0
   93.2330   16.7410   69.5160 C   0  0  0  0  0  0  0  0  0  0  0  0
   94.3180   17.3090   68.8220 C   0  0  0  0  0  0  0  0  0  0  0  0
   92.3210   17.4740   70.2920 O   0  0  0  0  0  0  0  0  0  0  0  0
   91.1610   16.8630   70.9790 C   0  0  0  0  0  0  0  0  0  0  0  0
   90.9400   15.4640   70.9080 C   0  0  0  0  0  0  0  0  0  0  0  0
   91.9180   14.6380   70.1430 C   0  0  0  0  0  0  0  0  0  0  0  0
   91.7780   13.4000   70.0490 O   0  0  0  0  0  0  0  0  0  0  0  0
   89.8270   14.7470   71.5750 C   0  0  0  0  0  0  0  0  0  0  0  0
   89.6680   13.3500   71.5070 C   0  0  0  0  0  0  0  0  0  0  0  0
   88.6050   12.7350   72.1630 C   0  0  0  0  0  0  0  0  0  0  0  0
   87.7170   13.5410   72.9040 C   0  0  0  0  0  0  0  0  0  0  0  0
   86.6420   13.0540   73.5860 O   0  0  0  0  0  0  0  0  0  0  0  0
   87.9080   14.9000   72.9960 C   0  0  0  0  0  0  0  0  0  0  0  0
   88.9740   15.4920   72.3500 C   0  0  0  0  0  0  0  0  0  0  0  0
   92.9888   19.7399   65.7420 H   0  0  0  0  0  0  0  0  0  0  0  0
   94.3431   22.2326   65.5737 H   0  0  0  0  0  0  0  0  0  0  0  0
   93.6323   21.4487   66.9850 H   0  0  0  0  0  0  0  0  0  0  0  0
   95.9389   20.9767   67.2695 H   0  0  0  0  0  0  0  0  0  0  0  0
   96.5051   20.7510   64.3566 H   0  0  0  0  0  0  0  0  0  0  0  0
   97.0995   22.7742   66.2767 H   0  0  0  0  0  0  0  0  0  0  0  0
   98.3649   20.4708   66.7623 H   0  0  0  0  0  0  0  0  0  0  0  0
   99.8420   20.2143   65.1237 H   0  0  0  0  0  0  0  0  0  0  0  0
   97.3901   18.1525   65.0077 H   0  0  0  0  0  0  0  0  0  0  0  0
   98.6397   17.9693   67.6025 H   0  0  0  0  0  0  0  0  0  0  0  0
   96.7223   18.8736   67.9983 H   0  0  0  0  0  0  0  0  0  0  0  0
   95.6966   14.5196   67.4165 H   0  0  0  0  0  0  0  0  0  0  0  0
   93.7876   13.4473   68.5588 H   0  0  0  0  0  0  0  0  0  0  0  0
   94.4714   18.3977   68.8571 H   0  0  0  0  0  0  0  0  0  0  0  0
   90.4661   17.4980   71.5481 H   0  0  0  0  0  0  0  0  0  0  0  0
   90.3849   12.7431   70.9345 H   0  0  0  0  0  0  0  0  0  0  0  0
   88.4615   11.6460   72.1045 H   0  0  0  0  0  0  0  0  0  0  0  0
   86.6424   13.0542   74.5760 H   0  0  0  0  0  0  0  0  0  0  0  0
   87.2111   15.5148   73.5845 H   0  0  0  0  0  0  0  0  0  0  0  0
   89.1420   16.5738   72.4575 H   0  0  0  0  0  0  0  0  0  0  0  0
  1  2  1  0
  2  3  1  0
  3  4  1  0
  3  5  1  0
  4 11  1  0
  5  6  1  0
  5  7  1  0
  7  8  1  0
  7  9  1  0
  9 10  1  0
  9 11  1  0
 11 12  1  0
 12 13  1  0
 13 14  2  0
 13 18  1  0
 14 15  1  0
 15 16  2  0
 16 17  1  0
 16 22  1  0
 17 18  2  0
 17 19  1  0
 19 20  1  0
 20 21  2  0
 21 22  1  0
 21 24  1  0
 22 23  2  0
 24 25  2  0
 24 30  1  0
 25 26  1  0
 26 27  2  0
 27 28  1  0
 27 29  1  0
 29 30  2  0
  1 31  1  0
  2 32  1  0
  2 33  1  0
  3 34  1  0
  5 35  1  0
  6 36  1  0
  7 37  1  0
  8 38  1  0
  9 39  1  0
 10 40  1  0
 11 41  1  0
 14 42  1  0
 15 43  1  0
 18 44  1  0
 20 45  1  0
 25 46  1  0
 26 47  1  0
 28 48  1  0
 29 49  1  0
 30 50  1  0
A    1
O6
A    2
C6
A    3
C5
A    4
O5
A    5
C4
A    6
O4
A    7
C3
A    8
O3
A    9
C2
A   10
O2
A   11
C1
A   12
O1
A   13
C18
A   14
C19
A   15
C20
A   16
C21
A   17
C22
A   18
C23
A   19
O24
A   20
C25
A   21
C26
A   22
C27
A   23
O35
A   24
C28
A   25
C29
A   26
C30
A   27
C31
A   28
O34
A   29
C32
A   30
C33
M  END
