2VNT_QGG_A_1258
     RDKit          3D

 42 44  0  0  0  0  0  0  0  0999 V2000
  -40.9210  177.4850   70.2010 N   0  0  0  0  0  0  0  0  0  0  0  0
  -40.7980  176.3480   69.4720 C   0  0  0  0  0  0  0  0  0  0  0  0
  -40.2510  175.2830   69.9750 N   0  0  0  0  0  0  0  0  0  0  0  0
  -39.8180  175.1510   71.2640 C   0  0  0  0  0  0  0  0  0  0  0  0
  -40.2230  175.9580   72.2200 N   0  0  0  0  0  0  0  0  0  0  0  0
  -39.8550  175.8330   73.4880 C   0  0  0  0  0  0  0  0  0  0  0  0
  -39.0350  174.8050   73.8810 C   0  0  0  0  0  0  0  0  0  0  0  0
  -38.5660  174.6890   75.5150 Cl  0  0  0  0  0  0  0  0  0  0  0  0
  -38.5440  173.8570   72.9590 C   0  0  0  0  0  0  0  0  0  0  0  0
  -37.6860  172.7860   73.3360 C   0  0  0  0  0  0  0  0  0  0  0  0
  -37.2630  171.9350   72.3950 C   0  0  0  0  0  0  0  0  0  0  0  0
  -37.6400  172.1200   71.0650 C   0  0  0  0  0  0  0  0  0  0  0  0
  -38.4680  173.1250   70.6660 C   0  0  0  0  0  0  0  0  0  0  0  0
  -38.9290  174.0240   71.6130 C   0  0  0  0  0  0  0  0  0  0  0  0
  -36.9920  171.0050   69.8890 S   0  0  0  0  0  0  0  0  0  0  0  0
  -37.2850  171.4480   68.5580 O   0  0  0  0  0  0  0  0  0  0  0  0
  -35.7080  170.9240   70.3800 O   0  0  0  0  0  0  0  0  0  0  0  0
  -37.8400  169.5680   70.1460 N   0  0  0  0  0  0  0  0  0  0  0  0
  -37.4950  168.4640   71.0630 C   0  0  0  0  0  0  0  0  0  0  0  0
  -38.8610  167.8720   71.4960 C   0  0  0  0  0  0  0  0  0  0  0  0
  -39.7580  168.0070   70.2380 C   0  0  0  0  0  0  0  0  0  0  0  0
  -39.1120  169.2010   69.5140 C   0  0  0  0  0  0  0  0  0  0  0  0
  -38.8990  168.8190   68.0830 C   0  0  0  0  0  0  0  0  0  0  0  0
  -37.9160  168.2270   67.6480 O   0  0  0  0  0  0  0  0  0  0  0  0
  -39.8930  169.1860   67.2920 O   0  0  0  0  0  0  0  0  0  0  0  0
  -41.1920  176.2670   68.1890 N   0  0  0  0  0  0  0  0  0  0  0  0
  -40.9161  177.4401   71.2300 H   0  0  0  0  0  0  0  0  0  0  0  0
  -41.0193  178.3934   69.7256 H   0  0  0  0  0  0  0  0  0  0  0  0
  -40.2106  176.5607   74.2323 H   0  0  0  0  0  0  0  0  0  0  0  0
  -37.3759  172.6602   74.3839 H   0  0  0  0  0  0  0  0  0  0  0  0
  -36.6171  171.0882   72.6703 H   0  0  0  0  0  0  0  0  0  0  0  0
  -38.7650  173.2208   69.6112 H   0  0  0  0  0  0  0  0  0  0  0  0
  -36.8894  167.7050   70.5461 H   0  0  0  0  0  0  0  0  0  0  0  0
  -36.8984  168.8064   71.9214 H   0  0  0  0  0  0  0  0  0  0  0  0
  -38.7532  166.8162   71.7854 H   0  0  0  0  0  0  0  0  0  0  0  0
  -39.2839  168.3902   72.3693 H   0  0  0  0  0  0  0  0  0  0  0  0
  -39.7210  167.0972   69.6208 H   0  0  0  0  0  0  0  0  0  0  0  0
  -40.8246  168.1497   70.4660 H   0  0  0  0  0  0  0  0  0  0  0  0
  -39.7736  170.0776   69.5757 H   0  0  0  0  0  0  0  0  0  0  0  0
  -40.7462  169.5010   67.6829 H   0  0  0  0  0  0  0  0  0  0  0  0
  -42.1766  176.0646   67.9644 H   0  0  0  0  0  0  0  0  0  0  0  0
  -40.5092  176.4074   67.4307 H   0  0  0  0  0  0  0  0  0  0  0  0
  1  2  1  0
  2  3  2  0
  2 26  1  0
  3  4  1  0
  4  5  2  0
  4 14  1  0
  5  6  1  0
  6  7  2  0
  7  8  1  0
  7  9  1  0
  9 10  1  0
  9 14  2  0
 10 11  2  0
 11 12  1  0
 12 13  2  0
 12 15  1  0
 13 14  1  0
 15 16  2  0
 15 17  2  0
 15 18  1  0
 18 19  1  0
 18 22  1  0
 19 20  1  0
 20 21  1  0
 21 22  1  0
 22 23  1  0
 23 24  2  0
 23 25  1  0
  1 27  1  0
  1 28  1  0
  6 29  1  0
 10 30  1  0
 11 31  1  0
 13 32  1  0
 19 33  1  0
 19 34  1  0
 20 35  1  0
 20 36  1  0
 21 37  1  0
 21 38  1  0
 22 39  1  0
 25 40  1  0
 26 41  1  0
 26 42  1  0
A    1
N1
A    2
C2
A    3
N3
A    4
C4
A    5
N5
A    6
C6
A    7
C7
A    8
CL8
A    9
C9
A   10
C10
A   11
C11
A   12
C12
A   13
C13
A   14
C14
A   15
S15
A   16
O16
A   17
O17
A   18
N18
A   19
C19
A   20
C20
A   21
C21
A   22
C22
A   23
C24
A   24
O25
A   25
O26
A   26
N27
M  END
