2VNW_M01_A_1351
     RDKit          3D

 33 35  0  0  0  0  0  0  0  0999 V2000
    5.1520    9.8890    4.8650 N   0  0  0  0  0  0  0  0  0  0  0  0
    3.8220    9.7650    4.9450 C   0  0  0  0  0  0  0  0  0  0  0  0
    2.9400    9.6130    3.9550 N   0  0  0  0  0  0  0  0  0  0  0  0
    3.5260    9.6500    2.7530 C   0  0  0  0  0  0  0  0  0  0  0  0
    4.8780    9.7890    2.5250 C   0  0  0  0  0  0  0  0  0  0  0  0
    5.7050    9.9110    3.6390 C   0  0  0  0  0  0  0  0  0  0  0  0
   10.4050    7.4110    3.9950 C   0  0  0  0  0  0  0  0  0  0  0  0
    5.1330    9.7820    1.1450 N   0  0  0  0  0  0  0  0  0  0  0  0
    3.9340    9.6300    0.5960 C   0  0  0  0  0  0  0  0  0  0  0  0
    2.9550    9.5480    1.5210 N   0  0  0  0  0  0  0  0  0  0  0  0
    9.6980    8.7260    3.7700 C   0  0  0  0  0  0  0  0  0  0  0  0
    8.8070    8.6100    2.5290 C   0  0  0  0  0  0  0  0  0  0  0  0
    7.9000    9.8070    2.3550 C   0  0  0  0  0  0  0  0  0  0  0  0
    7.9770   10.3000    4.7150 C   0  0  0  0  0  0  0  0  0  0  0  0
   11.1660    6.9680    2.7950 N   0  0  0  0  0  0  0  0  0  0  0  0
    8.8500    9.0950    4.9900 C   0  0  0  0  0  0  0  0  0  0  0  0
    7.1050   10.0550    3.5650 N   0  0  0  0  0  0  0  0  0  0  0  0
    3.4001    9.7919    5.9605 H   0  0  0  0  0  0  0  0  0  0  0  0
   11.1049    7.5247    4.8360 H   0  0  0  0  0  0  0  0  0  0  0  0
    9.6407    6.6496    4.2096 H   0  0  0  0  0  0  0  0  0  0  0  0
    3.7586    9.5770   -0.4886 H   0  0  0  0  0  0  0  0  0  0  0  0
    1.9502    9.4289    1.3286 H   0  0  0  0  0  0  0  0  0  0  0  0
   10.4465    9.5175    3.6175 H   0  0  0  0  0  0  0  0  0  0  0  0
    9.4493    8.5216    1.6403 H   0  0  0  0  0  0  0  0  0  0  0  0
    8.1695    7.7227    2.6564 H   0  0  0  0  0  0  0  0  0  0  0  0
    8.5145   10.6941    2.1420 H   0  0  0  0  0  0  0  0  0  0  0  0
    7.2106    9.6020    1.5227 H   0  0  0  0  0  0  0  0  0  0  0  0
    7.3577   10.5069    5.6002 H   0  0  0  0  0  0  0  0  0  0  0  0
    8.6233   11.1617    4.4918 H   0  0  0  0  0  0  0  0  0  0  0  0
   12.0182    6.4719    3.0927 H   0  0  0  0  0  0  0  0  0  0  0  0
   10.5801    6.3359    2.2309 H   0  0  0  0  0  0  0  0  0  0  0  0
    8.2081    8.2406    5.2507 H   0  0  0  0  0  0  0  0  0  0  0  0
    9.5285    9.3427    5.8196 H   0  0  0  0  0  0  0  0  0  0  0  0
  1  2  2  0
  1  6  1  0
  2  3  1  0
  3  4  2  0
  4  5  1  0
  4 10  1  0
  5  8  1  0
  5  6  2  0
  7 11  1  0
  7 15  1  0
  8  9  2  0
  9 10  1  0
 11 16  1  0
 11 12  1  0
 16 14  1  0
 14 17  1  0
 13 12  1  0
 13 17  1  0
 17  6  1  0
  2 18  1  0
  7 19  1  0
  7 20  1  0
  9 21  1  0
 10 22  1  0
 11 23  1  0
 12 24  1  0
 12 25  1  0
 13 26  1  0
 13 27  1  0
 14 28  1  0
 14 29  1  0
 15 30  1  0
 15 31  1  0
 16 32  1  0
 16 33  1  0
A    1
N1
A    2
C2
A    3
N3
A    4
C4
A    5
C5
A    6
C7
A    7
C9
A    8
N7
A    9
C8
A   10
N9
A   11
C10
A   12
C15
A   13
C14
A   14
C12
A   15
N10
A   16
C11
A   17
N6
M  END
