2Q89_6CS_A_501
     RDKit          3D

 21 21  0  0  0  0  0  0  0  0999 V2000
   15.6550   24.2200   32.7830 O   0  0  0  0  0  0  0  0  0  0  0  0
   16.3760   23.6530   31.9400 C   0  0  0  0  0  0  0  0  0  0  0  0
   16.5880   24.0770   30.7810 O   0  0  0  0  0  0  0  0  0  0  0  0
   17.0450   22.3110   32.3500 C   0  0  0  0  0  0  0  0  0  0  0  0
   18.1960   22.0150   31.4680 N   0  0  0  0  0  0  0  0  0  0  0  0
   19.2850   21.2470   31.9200 C   0  0  0  0  0  0  0  0  0  0  0  0
   20.4450   20.9610   30.9830 C   0  0  0  0  0  0  0  0  0  0  0  0
   19.3380   20.7470   33.2290 N   0  0  0  0  0  0  0  0  0  0  0  0
   18.2350   20.9940   34.1750 C   0  0  0  0  0  0  0  0  0  0  0  0
   17.4710   22.2800   33.8380 C   0  0  0  0  0  0  0  0  0  0  0  0
   16.3180   22.2720   34.6690 O   0  0  0  0  0  0  0  0  0  0  0  0
   17.0267   24.9544   30.6474 H   0  0  0  0  0  0  0  0  0  0  0  0
   16.2849   21.5256   32.2261 H   0  0  0  0  0  0  0  0  0  0  0  0
   21.3465   20.7387   31.5728 H   0  0  0  0  0  0  0  0  0  0  0  0
   20.1994   20.0965   30.3487 H   0  0  0  0  0  0  0  0  0  0  0  0
   20.6294   21.8406   30.3487 H   0  0  0  0  0  0  0  0  0  0  0  0
   20.1568   20.2010   33.5328 H   0  0  0  0  0  0  0  0  0  0  0  0
   17.5367   20.1449   34.1368 H   0  0  0  0  0  0  0  0  0  0  0  0
   18.6666   21.1070   35.1805 H   0  0  0  0  0  0  0  0  0  0  0  0
   18.1024   23.1649   34.0062 H   0  0  0  0  0  0  0  0  0  0  0  0
   16.5960   22.2739   35.6192 H   0  0  0  0  0  0  0  0  0  0  0  0
  1  2  2  0
  2  3  1  0
  2  4  1  0
  4  5  1  0
  4 10  1  0
  5  6  2  0
  6  7  1  0
  6  8  1  0
  8  9  1  0
  9 10  1  0
 10 11  1  0
  3 12  1  0
  4 13  1  0
  7 14  1  0
  7 15  1  0
  7 16  1  0
  8 17  1  0
  9 18  1  0
  9 19  1  0
 10 20  1  0
 11 21  1  0
A    1
O
A    2
C
A    3
OXT
A    4
CA
A    5
N
A    6
CAI
A    7
CAA
A    8
NAG
A    9
CG2
A   10
CB
A   11
OG1
M  END
