2VRJ_NCW_A_1446
     RDKit          3D

 50 51  0  0  0  0  0  0  0  0999 V2000
    0.2420    7.8640   11.4280 S   0  0  0  0  0  0  0  0  0  0  0  0
   -0.6110    7.9650   10.0870 C   0  0  0  0  0  0  0  0  0  0  0  0
   -1.2620    9.0930    9.7300 N   0  0  0  0  0  0  0  0  0  0  0  0
   -2.0640    9.2390    8.5310 C   0  0  0  0  0  0  0  0  0  0  0  0
   -1.1450   10.0620    7.6440 C   0  0  0  0  0  0  0  0  0  0  0  0
   -1.9100   10.3860    6.4730 O   0  0  0  0  0  0  0  0  0  0  0  0
   -0.5970   11.3480    8.3160 C   0  0  0  0  0  0  0  0  0  0  0  0
    0.5910   11.8390    7.6950 O   0  0  0  0  0  0  0  0  0  0  0  0
   -0.2190   11.1670    9.7920 C   0  0  0  0  0  0  0  0  0  0  0  0
    0.0160   12.4530   10.4040 O   0  0  0  0  0  0  0  0  0  0  0  0
   -3.1740   10.1240    9.0590 C   0  0  0  0  0  0  0  0  0  0  0  0
   -2.6060   10.8130   10.1920 O   0  0  0  0  0  0  0  0  0  0  0  0
   -1.2890   10.3230   10.4910 C   0  0  0  0  0  0  0  0  0  0  0  0
   -0.6770    6.8830    9.3030 N   0  0  0  0  0  0  0  0  0  0  0  0
    0.3010    5.8010    9.3510 C   0  0  0  0  0  0  0  0  0  0  0  0
   -0.2490    4.5530    8.6730 C   0  0  0  0  0  0  0  0  0  0  0  0
   -0.8990    4.8970    7.3310 C   0  0  0  0  0  0  0  0  0  0  0  0
   -0.3780    4.0570    6.1870 C   0  0  0  0  0  0  0  0  0  0  0  0
    1.1570    4.2110    6.1560 C   0  0  0  0  0  0  0  0  0  0  0  0
    1.7700    2.9700    6.5910 C   0  0  0  0  0  0  0  0  0  0  0  0
    0.6890    1.8730    6.4360 C   0  0  0  0  0  0  0  0  0  0  0  0
    1.0310    0.7550    7.3610 C   0  0  0  0  0  0  0  0  0  0  0  0
   -2.4358    8.3424    8.0135 H   0  0  0  0  0  0  0  0  0  0  0  0
   -0.2450    9.4732    7.4129 H   0  0  0  0  0  0  0  0  0  0  0  0
   -2.7868   10.7574    6.7439 H   0  0  0  0  0  0  0  0  0  0  0  0
   -1.4386   12.0479    8.2072 H   0  0  0  0  0  0  0  0  0  0  0  0
    1.2408   12.1076    8.3919 H   0  0  0  0  0  0  0  0  0  0  0  0
    0.7265   10.6136    9.8907 H   0  0  0  0  0  0  0  0  0  0  0  0
   -0.0014   12.3577   11.3892 H   0  0  0  0  0  0  0  0  0  0  0  0
   -3.4915   10.8437    8.2901 H   0  0  0  0  0  0  0  0  0  0  0  0
   -4.0648    9.5419    9.3377 H   0  0  0  0  0  0  0  0  0  0  0  0
   -1.1074   10.2849   11.5752 H   0  0  0  0  0  0  0  0  0  0  0  0
   -1.4559    6.8101    8.6330 H   0  0  0  0  0  0  0  0  0  0  0  0
    1.2183    6.1192    8.8339 H   0  0  0  0  0  0  0  0  0  0  0  0
    0.5201    5.5665   10.4031 H   0  0  0  0  0  0  0  0  0  0  0  0
    0.5747    3.8442    8.5022 H   0  0  0  0  0  0  0  0  0  0  0  0
   -1.0127    4.1073    9.3274 H   0  0  0  0  0  0  0  0  0  0  0  0
   -1.9840    4.7377    7.4165 H   0  0  0  0  0  0  0  0  0  0  0  0
   -0.6531    5.9454    7.1066 H   0  0  0  0  0  0  0  0  0  0  0  0
   -0.6460    3.0018    6.3442 H   0  0  0  0  0  0  0  0  0  0  0  0
   -0.8185    4.3862    5.2343 H   0  0  0  0  0  0  0  0  0  0  0  0
    1.4828    4.4429    5.1313 H   0  0  0  0  0  0  0  0  0  0  0  0
    1.4600    5.0280    6.8273 H   0  0  0  0  0  0  0  0  0  0  0  0
    2.6427    2.7360    5.9636 H   0  0  0  0  0  0  0  0  0  0  0  0
    2.1211    3.0409    7.6311 H   0  0  0  0  0  0  0  0  0  0  0  0
   -0.2985    2.2828    6.6948 H   0  0  0  0  0  0  0  0  0  0  0  0
    0.6563    1.5129    5.3971 H   0  0  0  0  0  0  0  0  0  0  0  0
    0.9269    1.0954    8.4018 H   0  0  0  0  0  0  0  0  0  0  0  0
    0.3504   -0.0904    7.1818 H   0  0  0  0  0  0  0  0  0  0  0  0
    2.0681    0.4351    7.1818 H   0  0  0  0  0  0  0  0  0  0  0  0
  1  2  2  0
  2  3  1  0
  2 14  1  0
  3  4  1  0
  3 13  1  0
  4  5  1  0
  4 11  1  0
  5  6  1  0
  5  7  1  0
  7  8  1  0
  7  9  1  0
  9 10  1  0
  9 13  1  0
 11 12  1  0
 12 13  1  0
 14 15  1  0
 15 16  1  0
 16 17  1  0
 17 18  1  0
 18 19  1  0
 19 20  1  0
 20 21  1  0
 21 22  1  0
  4 23  1  0
  5 24  1  0
  6 25  1  0
  7 26  1  0
  8 27  1  0
  9 28  1  0
 10 29  1  0
 11 30  1  0
 11 31  1  0
 13 32  1  0
 14 33  1  0
 15 34  1  0
 15 35  1  0
 16 36  1  0
 16 37  1  0
 17 38  1  0
 17 39  1  0
 18 40  1  0
 18 41  1  0
 19 42  1  0
 19 43  1  0
 20 44  1  0
 20 45  1  0
 21 46  1  0
 21 47  1  0
 22 48  1  0
 22 49  1  0
 22 50  1  0
A    1
S1
A    2
C7
A    3
N1
A    4
C5
A    5
C4
A    6
O4
A    7
C3
A    8
O3
A    9
C2
A   10
O2
A   11
C6
A   12
O1
A   13
C1
A   14
N2
A   15
C8
A   16
C9
A   17
C10
A   18
C11
A   19
C12
A   20
C13
A   21
C14
A   22
C15
M  END
