2VSS_V55_D_1250
     RDKit          3D

 19 19  0  0  0  0  0  0  0  0999 V2000
   15.7500  -36.2440  -15.8290 C   0  0  0  0  0  0  0  0  0  0  0  0
   14.4930  -35.6480  -15.7410 C   0  0  0  0  0  0  0  0  0  0  0  0
   13.4360  -36.2570  -16.4620 C   0  0  0  0  0  0  0  0  0  0  0  0
   13.6440  -37.3900  -17.2670 C   0  0  0  0  0  0  0  0  0  0  0  0
   14.9040  -37.9830  -17.3730 C   0  0  0  0  0  0  0  0  0  0  0  0
   18.0030  -36.2120  -15.1680 O   0  0  0  0  0  0  0  0  0  0  0  0
   15.9490  -37.4060  -16.6350 C   0  0  0  0  0  0  0  0  0  0  0  0
   16.9260  -35.6490  -15.0730 C   0  0  0  0  0  0  0  0  0  0  0  0
   12.0240  -34.5440  -15.6080 C   0  0  0  0  0  0  0  0  0  0  0  0
   12.1570  -35.7170  -16.4210 O   0  0  0  0  0  0  0  0  0  0  0  0
   12.5830  -37.9070  -17.9380 O   0  0  0  0  0  0  0  0  0  0  0  0
   14.3285  -34.7432  -15.1374 H   0  0  0  0  0  0  0  0  0  0  0  0
   15.0704  -38.8654  -18.0084 H   0  0  0  0  0  0  0  0  0  0  0  0
   16.9493  -37.8615  -16.6786 H   0  0  0  0  0  0  0  0  0  0  0  0
   16.8096  -34.7421  -14.4615 H   0  0  0  0  0  0  0  0  0  0  0  0
   12.0562  -34.8284  -14.5459 H   0  0  0  0  0  0  0  0  0  0  0  0
   12.8493  -33.8505  -15.8271 H   0  0  0  0  0  0  0  0  0  0  0  0
   11.0644  -34.0529  -15.8271 H   0  0  0  0  0  0  0  0  0  0  0  0
   11.8152  -38.2811  -17.4373 H   0  0  0  0  0  0  0  0  0  0  0  0
  3  2  1  0
  3  4  2  0
  3 10  1  0
  2  1  2  0
  1  8  1  0
  1  7  1  0
  8  6  2  0
  5  4  1  0
  5  7  2  0
  4 11  1  0
  9 10  1  0
  2 12  1  0
  5 13  1  0
  7 14  1  0
  8 15  1  0
  9 16  1  0
  9 17  1  0
  9 18  1  0
 11 19  1  0
A    1
CAI
A    2
CAG
A    3
CAK
A    4
CAJ
A    5
CAF
A    6
OAB
A    7
CAE
A    8
CAD
A    9
CAA
A   10
OAH
A   11
OAC
M  END
