2VTE_IK4_A_1440
     RDKit          3D

 53 55  0  0  0  0  0  0  0  0999 V2000
  -11.3970   -1.6930   21.5350 N   0  0  0  0  0  0  0  0  0  0  0  0
  -12.5220   -1.5440   21.5940 C   0  0  0  0  0  0  0  0  0  0  0  0
  -13.7770   -1.4300   21.7460 C   0  0  0  0  0  0  0  0  0  0  0  0
  -14.2780   -1.2990   23.0500 C   0  0  0  0  0  0  0  0  0  0  0  0
  -15.6530   -1.1550   23.2590 C   0  0  0  0  0  0  0  0  0  0  0  0
  -14.6200   -1.4380   20.6420 C   0  0  0  0  0  0  0  0  0  0  0  0
  -15.9990   -1.3070   20.8660 C   0  0  0  0  0  0  0  0  0  0  0  0
  -16.5200   -1.1550   22.1650 C   0  0  0  0  0  0  0  0  0  0  0  0
  -18.0040   -0.9880   22.4060 C   0  0  0  0  0  0  0  0  0  0  0  0
  -18.3290   -0.6290   18.9150 C   0  0  0  0  0  0  0  0  0  0  0  0
  -19.0120   -0.4290   20.1540 C   0  0  0  0  0  0  0  0  0  0  0  0
  -19.9810    0.5860   20.3050 C   0  0  0  0  0  0  0  0  0  0  0  0
  -18.5780    0.2140   17.8180 C   0  0  0  0  0  0  0  0  0  0  0  0
  -19.5460    1.2460   17.9680 C   0  0  0  0  0  0  0  0  0  0  0  0
  -20.2500    1.4360   19.2100 C   0  0  0  0  0  0  0  0  0  0  0  0
  -21.1900    2.4590   19.3640 C   0  0  0  0  0  0  0  0  0  0  0  0
  -19.7970    2.0820   16.8720 C   0  0  0  0  0  0  0  0  0  0  0  0
  -20.7420    3.1010   17.0380 C   0  0  0  0  0  0  0  0  0  0  0  0
  -21.4440    3.2890   18.2670 C   0  0  0  0  0  0  0  0  0  0  0  0
  -22.5340    4.4690   18.3270 S   0  0  0  0  0  0  0  0  0  0  0  0
  -22.3690    5.3400   17.1820 O   0  0  0  0  0  0  0  0  0  0  0  0
  -22.4130    5.3210   19.4760 O   0  0  0  0  0  0  0  0  0  0  0  0
  -24.0440    3.8210   18.3060 N   0  0  0  0  0  0  0  0  0  0  0  0
  -24.7800    3.7800   19.5940 C   0  0  0  0  0  0  0  0  0  0  0  0
  -25.4260    5.1040   20.0100 C   0  0  0  0  0  0  0  0  0  0  0  0
  -25.5800    5.3820   21.2040 O   0  0  0  0  0  0  0  0  0  0  0  0
  -25.8250    5.9550   19.1920 O   0  0  0  0  0  0  0  0  0  0  0  0
  -25.7530    2.5960   19.5580 C   0  0  0  0  0  0  0  0  0  0  0  0
  -26.9310    2.6900   20.5170 C   0  0  0  0  0  0  0  0  0  0  0  0
  -27.6770    1.3730   20.5610 C   0  0  0  0  0  0  0  0  0  0  0  0
  -28.4880    1.2340   21.5150 O   0  0  0  0  0  0  0  0  0  0  0  0
  -27.5310    0.4950   19.6520 O   0  0  0  0  0  0  0  0  0  0  0  0
  -18.7580   -1.2920   21.2150 O   0  0  0  0  0  0  0  0  0  0  0  0
  -13.5893   -1.3096   23.9076 H   0  0  0  0  0  0  0  0  0  0  0  0
  -16.0490   -1.0424   24.2791 H   0  0  0  0  0  0  0  0  0  0  0  0
  -14.2188   -1.5438   19.6233 H   0  0  0  0  0  0  0  0  0  0  0  0
  -16.6876   -1.3234   20.0084 H   0  0  0  0  0  0  0  0  0  0  0  0
  -18.3162   -1.6675   23.2127 H   0  0  0  0  0  0  0  0  0  0  0  0
  -18.1982    0.0578   22.6865 H   0  0  0  0  0  0  0  0  0  0  0  0
  -17.6025   -1.4493   18.8188 H   0  0  0  0  0  0  0  0  0  0  0  0
  -20.5164    0.7125   21.2575 H   0  0  0  0  0  0  0  0  0  0  0  0
  -18.0388    0.0794   16.8687 H   0  0  0  0  0  0  0  0  0  0  0  0
  -21.7145    2.6070   20.3195 H   0  0  0  0  0  0  0  0  0  0  0  0
  -19.2707    1.9426   15.9162 H   0  0  0  0  0  0  0  0  0  0  0  0
  -20.9502    3.7776   16.1960 H   0  0  0  0  0  0  0  0  0  0  0  0
  -24.6087    4.3714   17.6434 H   0  0  0  0  0  0  0  0  0  0  0  0
  -24.0494    3.6235   20.4013 H   0  0  0  0  0  0  0  0  0  0  0  0
  -26.2225    6.8027   19.5138 H   0  0  0  0  0  0  0  0  0  0  0  0
  -26.1527    2.5161   18.5363 H   0  0  0  0  0  0  0  0  0  0  0  0
  -25.1729    1.7171   19.8757 H   0  0  0  0  0  0  0  0  0  0  0  0
  -26.5609    2.9316   21.5243 H   0  0  0  0  0  0  0  0  0  0  0  0
  -27.6149    3.4780   20.1687 H   0  0  0  0  0  0  0  0  0  0  0  0
  -27.3737   -0.4509   19.8981 H   0  0  0  0  0  0  0  0  0  0  0  0
  1  2  3  0
  2  3  1  0
  3  4  2  0
  3  6  1  0
  4  5  1  0
  5  8  2  0
  6  7  2  0
  7  8  1  0
  8  9  1  0
  9 33  1  0
 10 11  2  0
 10 13  1  0
 11 12  1  0
 11 33  1  0
 12 15  2  0
 13 14  2  0
 14 15  1  0
 14 17  1  0
 15 16  1  0
 16 19  2  0
 17 18  2  0
 18 19  1  0
 19 20  1  0
 20 21  2  0
 20 22  2  0
 20 23  1  0
 23 24  1  0
 24 25  1  0
 24 28  1  0
 25 26  2  0
 25 27  1  0
 28 29  1  0
 29 30  1  0
 30 31  2  0
 30 32  1  0
  4 34  1  0
  5 35  1  0
  6 36  1  0
  7 37  1  0
  9 38  1  0
  9 39  1  0
 10 40  1  0
 12 41  1  0
 13 42  1  0
 16 43  1  0
 17 44  1  0
 18 45  1  0
 23 46  1  0
 24 47  1  0
 27 48  1  0
 28 49  1  0
 28 50  1  0
 29 51  1  0
 29 52  1  0
 32 53  1  0
A    1
N31
A    2
C30
A    3
C27
A    4
C28
A    5
C29
A    6
C26
A    7
C25
A    8
C24
A    9
C23
A   10
C19
A   11
C20
A   12
C21
A   13
C18
A   14
C16
A   15
C15
A   16
C14
A   17
C17
A   18
C12
A   19
C13
A   20
S11
A   21
O33
A   22
O32
A   23
N
A   24
CA
A   25
C
A   26
O
A   27
OXT
A   28
CB
A   29
CG
A   30
CD
A   31
OE1
A   32
OE2
A   33
O22
M  END
