2VU1_OPI_A_1393
     RDKit          3D

 54 53  0  0  0  0  0  0  0  0999 V2000
   26.2010  -18.1160   12.8700 O   0  0  0  0  0  0  0  0  0  0  0  0
   26.1350  -18.7450   14.1360 C   0  0  0  0  0  0  0  0  0  0  0  0
   26.0410  -17.7270   15.2570 C   0  0  0  0  0  0  0  0  0  0  0  0
   26.2730  -18.4540   16.4880 N   0  0  0  0  0  0  0  0  0  0  0  0
   25.3590  -18.5330   17.4350 C   0  0  0  0  0  0  0  0  0  0  0  0
   24.2360  -18.0400   17.3470 O   0  0  0  0  0  0  0  0  0  0  0  0
   25.7620  -19.3410   18.6270 C   0  0  0  0  0  0  0  0  0  0  0  0
   26.2260  -18.4890   19.8080 C   0  0  0  0  0  0  0  0  0  0  0  0
   26.3670  -19.4190   20.9170 N   0  0  0  0  0  0  0  0  0  0  0  0
   27.4600  -19.5860   21.6660 C   0  0  0  0  0  0  0  0  0  0  0  0
   28.4890  -18.9390   21.5220 O   0  0  0  0  0  0  0  0  0  0  0  0
   27.3480  -20.6440   22.7390 C   0  0  0  0  0  0  0  0  0  0  0  0
   26.5290  -21.7180   22.2420 O   0  0  0  0  0  0  0  0  0  0  0  0
   26.7750  -20.1410   24.0800 C   0  0  0  0  0  0  0  0  0  0  0  0
   25.9240  -21.2610   24.6670 C   0  0  0  0  0  0  0  0  0  0  0  0
   27.9510  -19.8620   25.0080 C   0  0  0  0  0  0  0  0  0  0  0  0
   25.9750  -18.8370   23.9500 C   0  0  0  0  0  0  0  0  0  0  0  0
   24.6980  -18.8200   24.6190 O   0  0  0  0  0  0  0  0  0  0  0  0
   23.6250  -19.0060   23.6920 C   0  0  0  0  0  0  0  0  0  0  0  0
   23.1090  -20.1160   23.6730 O   0  0  0  0  0  0  0  0  0  0  0  0
   23.1060  -17.9080   22.7400 C   0  0  0  0  0  0  0  0  0  0  0  0
   22.8420  -18.5560   21.3880 C   0  0  0  0  0  0  0  0  0  0  0  0
   21.8050  -17.3430   23.3030 C   0  0  0  0  0  0  0  0  0  0  0  0
   24.0740  -16.7410   22.5670 C   0  0  0  0  0  0  0  0  0  0  0  0
   26.3035  -17.1389   12.9919 H   0  0  0  0  0  0  0  0  0  0  0  0
   25.2475  -19.3942   14.1670 H   0  0  0  0  0  0  0  0  0  0  0  0
   27.0541  -19.3323   14.2785 H   0  0  0  0  0  0  0  0  0  0  0  0
   26.8042  -16.9456   15.1267 H   0  0  0  0  0  0  0  0  0  0  0  0
   25.0591  -17.2311   15.2649 H   0  0  0  0  0  0  0  0  0  0  0  0
   27.1791  -18.9233   16.6278 H   0  0  0  0  0  0  0  0  0  0  0  0
   24.8991  -19.9426   18.9486 H   0  0  0  0  0  0  0  0  0  0  0  0
   26.6141  -19.9666   18.3227 H   0  0  0  0  0  0  0  0  0  0  0  0
   27.1896  -18.0089   19.5823 H   0  0  0  0  0  0  0  0  0  0  0  0
   25.5151  -17.6813   20.0366 H   0  0  0  0  0  0  0  0  0  0  0  0
   25.5493  -20.0021   21.1457 H   0  0  0  0  0  0  0  0  0  0  0  0
   28.3735  -20.9754   22.9593 H   0  0  0  0  0  0  0  0  0  0  0  0
   26.1458  -22.2206   23.0040 H   0  0  0  0  0  0  0  0  0  0  0  0
   25.9609  -21.2124   25.7653 H   0  0  0  0  0  0  0  0  0  0  0  0
   24.8833  -21.1461   24.3297 H   0  0  0  0  0  0  0  0  0  0  0  0
   26.3136  -22.2328   24.3297 H   0  0  0  0  0  0  0  0  0  0  0  0
   27.6194  -19.9407   26.0539 H   0  0  0  0  0  0  0  0  0  0  0  0
   28.7486  -20.5959   24.8200 H   0  0  0  0  0  0  0  0  0  0  0  0
   28.3339  -18.8481   24.8200 H   0  0  0  0  0  0  0  0  0  0  0  0
   26.5859  -18.0223   24.3661 H   0  0  0  0  0  0  0  0  0  0  0  0
   25.7546  -18.7249   22.8782 H   0  0  0  0  0  0  0  0  0  0  0  0
   22.4309  -19.5651   21.5390 H   0  0  0  0  0  0  0  0  0  0  0  0
   22.1204  -17.9467   20.8240 H   0  0  0  0  0  0  0  0  0  0  0  0
   23.7839  -18.6245   20.8240 H   0  0  0  0  0  0  0  0  0  0  0  0
   21.8434  -17.3597   24.4022 H   0  0  0  0  0  0  0  0  0  0  0  0
   21.6747  -16.3072   22.9563 H   0  0  0  0  0  0  0  0  0  0  0  0
   20.9592  -17.9549   22.9563 H   0  0  0  0  0  0  0  0  0  0  0  0
   24.3816  -16.3701   23.5558 H   0  0  0  0  0  0  0  0  0  0  0  0
   24.9603  -17.0793   22.0102 H   0  0  0  0  0  0  0  0  0  0  0  0
   23.5778  -15.9324   22.0102 H   0  0  0  0  0  0  0  0  0  0  0  0
  1  2  1  0
  2  3  1  0
  3  4  1  0
  4  5  1  0
  5  6  2  0
  5  7  1  0
  7  8  1  0
  8  9  1  0
  9 10  1  0
 10 11  2  0
 10 12  1  0
 12 13  1  0
 12 14  1  0
 14 15  1  0
 14 16  1  0
 14 17  1  0
 17 18  1  0
 18 19  1  0
 19 20  2  0
 19 21  1  0
 21 22  1  0
 21 23  1  0
 21 24  1  0
  1 25  1  0
  2 26  1  0
  2 27  1  0
  3 28  1  0
  3 29  1  0
  4 30  1  0
  7 31  1  0
  7 32  1  0
  8 33  1  0
  8 34  1  0
  9 35  1  0
 12 36  1  0
 13 37  1  0
 15 38  1  0
 15 39  1  0
 15 40  1  0
 16 41  1  0
 16 42  1  0
 16 43  1  0
 17 44  1  0
 17 45  1  0
 22 46  1  0
 22 47  1  0
 22 48  1  0
 23 49  1  0
 23 50  1  0
 23 51  1  0
 24 52  1  0
 24 53  1  0
 24 54  1  0
A    1
OP1
A    2
CP2
A    3
CP3
A    4
NP4
A    5
CP5
A    6
OP5
A    7
CP6
A    8
CP7
A    9
NP8
A   10
CP9
A   11
OP9
A   12
CPA
A   13
OPA
A   14
CPB
A   15
CPD
A   16
CPE
A   17
CPC
A   18
OA6
A   19
CT1
A   20
OT1
A   21
CT2
A   22
CT3
A   23
CT4
A   24
CT5
M  END
