2VU2_PN5_A_1393
     RDKit          3D

 54 53  0  0  0  0  0  0  0  0999 V2000
   24.3820  -16.5470   12.8020 C   0  0  0  0  0  0  0  0  0  0  0  0
   24.5130  -15.9690   14.2080 C   0  0  0  0  0  0  0  0  0  0  0  0
   25.4050  -16.8670   14.9390 N   0  0  0  0  0  0  0  0  0  0  0  0
   25.0720  -17.6740   15.9370 C   0  0  0  0  0  0  0  0  0  0  0  0
   23.9290  -17.7550   16.3690 O   0  0  0  0  0  0  0  0  0  0  0  0
   26.1990  -18.5110   16.5070 C   0  0  0  0  0  0  0  0  0  0  0  0
   26.7600  -17.8840   17.7750 C   0  0  0  0  0  0  0  0  0  0  0  0
   26.2780  -18.6620   18.9060 N   0  0  0  0  0  0  0  0  0  0  0  0
   26.9450  -19.0080   20.0070 C   0  0  0  0  0  0  0  0  0  0  0  0
   28.1190  -18.7200   20.2020 O   0  0  0  0  0  0  0  0  0  0  0  0
   26.1430  -19.8150   20.9960 C   0  0  0  0  0  0  0  0  0  0  0  0
   24.8080  -19.2930   21.0210 O   0  0  0  0  0  0  0  0  0  0  0  0
   26.6890  -19.7840   22.4250 C   0  0  0  0  0  0  0  0  0  0  0  0
   25.7040  -20.4690   23.3690 C   0  0  0  0  0  0  0  0  0  0  0  0
   26.8760  -18.3380   22.8590 C   0  0  0  0  0  0  0  0  0  0  0  0
   28.0080  -20.5620   22.4950 C   0  0  0  0  0  0  0  0  0  0  0  0
   29.1010  -19.6920   22.7940 O   0  0  0  0  0  0  0  0  0  0  0  0
   29.4640  -19.3860   24.1710 C   0  0  0  0  0  0  0  0  0  0  0  0
   28.6880  -19.6800   25.0740 O   0  0  0  0  0  0  0  0  0  0  0  0
   30.7720  -18.7020   24.4620 C   0  0  0  0  0  0  0  0  0  0  0  0
   30.5640  -17.7140   25.6060 C   0  0  0  0  0  0  0  0  0  0  0  0
   31.2140  -17.9620   23.2030 C   0  0  0  0  0  0  0  0  0  0  0  0
   31.7890  -19.7670   24.8620 C   0  0  0  0  0  0  0  0  0  0  0  0
   22.8400  -17.4790   12.6370 S   0  0  0  0  0  0  0  0  0  0  0  0
   24.3873  -15.7248   12.0713 H   0  0  0  0  0  0  0  0  0  0  0  0
   25.2278  -17.2257   12.6176 H   0  0  0  0  0  0  0  0  0  0  0  0
   24.9424  -14.9572   14.1654 H   0  0  0  0  0  0  0  0  0  0  0  0
   23.5328  -15.8904   14.7010 H   0  0  0  0  0  0  0  0  0  0  0  0
   26.3934  -16.8736   14.6492 H   0  0  0  0  0  0  0  0  0  0  0  0
   25.8172  -19.5156   16.7415 H   0  0  0  0  0  0  0  0  0  0  0  0
   27.0042  -18.5681   15.7597 H   0  0  0  0  0  0  0  0  0  0  0  0
   27.8595  -17.9046   17.7479 H   0  0  0  0  0  0  0  0  0  0  0  0
   26.4350  -16.8367   17.8623 H   0  0  0  0  0  0  0  0  0  0  0  0
   25.3016  -18.9850   18.8489 H   0  0  0  0  0  0  0  0  0  0  0  0
   26.1912  -20.8613   20.6600 H   0  0  0  0  0  0  0  0  0  0  0  0
   24.5159  -19.1788   21.9600 H   0  0  0  0  0  0  0  0  0  0  0  0
   25.9939  -20.2674   24.4108 H   0  0  0  0  0  0  0  0  0  0  0  0
   24.6914  -20.0792   23.1882 H   0  0  0  0  0  0  0  0  0  0  0  0
   25.7170  -21.5540   23.1882 H   0  0  0  0  0  0  0  0  0  0  0  0
   26.8831  -18.2829   23.9576 H   0  0  0  0  0  0  0  0  0  0  0  0
   27.8308  -17.9579   22.4666 H   0  0  0  0  0  0  0  0  0  0  0  0
   26.0493  -17.7276   22.4666 H   0  0  0  0  0  0  0  0  0  0  0  0
   27.9325  -21.3278   23.2810 H   0  0  0  0  0  0  0  0  0  0  0  0
   28.1907  -21.0303   21.5166 H   0  0  0  0  0  0  0  0  0  0  0  0
   30.6742  -18.2375   26.5672 H   0  0  0  0  0  0  0  0  0  0  0  0
   31.3128  -16.9111   25.5378 H   0  0  0  0  0  0  0  0  0  0  0  0
   29.5550  -17.2812   25.5378 H   0  0  0  0  0  0  0  0  0  0  0  0
   31.7590  -17.0495   23.4863 H   0  0  0  0  0  0  0  0  0  0  0  0
   31.8719  -18.6121   22.6075 H   0  0  0  0  0  0  0  0  0  0  0  0
   30.3297  -17.6909   22.6075 H   0  0  0  0  0  0  0  0  0  0  0  0
   31.8456  -19.8263   25.9589 H   0  0  0  0  0  0  0  0  0  0  0  0
   31.4777  -20.7415   24.4577 H   0  0  0  0  0  0  0  0  0  0  0  0
   32.7768  -19.5009   24.4577 H   0  0  0  0  0  0  0  0  0  0  0  0
   22.3500  -17.7752   13.8816 H   0  0  0  0  0  0  0  0  0  0  0  0
  1  2  1  0
  1 24  1  0
  2  3  1  0
  3  4  1  0
  4  5  2  0
  4  6  1  0
  6  7  1  0
  7  8  1  0
  8  9  1  0
  9 10  2  0
  9 11  1  0
 12 11  1  0
 13 15  1  0
 13 14  1  0
 13 16  1  0
 13 11  1  0
 16 17  1  0
 17 18  1  0
 18 19  2  0
 18 20  1  0
 20 22  1  0
 20 23  1  0
 20 21  1  0
  1 25  1  0
  1 26  1  0
  2 27  1  0
  2 28  1  0
  3 29  1  0
  6 30  1  0
  6 31  1  0
  7 32  1  0
  7 33  1  0
  8 34  1  0
 11 35  1  0
 12 36  1  0
 14 37  1  0
 14 38  1  0
 14 39  1  0
 15 40  1  0
 15 41  1  0
 15 42  1  0
 16 43  1  0
 16 44  1  0
 21 45  1  0
 21 46  1  0
 21 47  1  0
 22 48  1  0
 22 49  1  0
 22 50  1  0
 23 51  1  0
 23 52  1  0
 23 53  1  0
 24 54  1  0
A    1
CP2
A    2
CP3
A    3
NP4
A    4
CP5
A    5
OP5
A    6
CP6
A    7
CP7
A    8
NP8
A    9
CP9
A   10
OP9
A   11
CPA
A   12
OPA
A   13
CPB
A   14
CPE
A   15
CPD
A   16
CPC
A   17
OA6
A   18
CT1
A   19
OT1
A   20
CT2
A   21
CT5
A   22
CT3
A   23
CT4
A   24
SP1
M  END
