2VUR_YX1_A_1626
     RDKit          3D

 35 35  0  0  0  0  0  0  0  0999 V2000
   64.4780   72.2000   14.1780 O   0  0  0  0  0  0  0  0  0  0  0  0
   63.1810   71.7080   14.6110 C   0  0  0  0  0  0  0  0  0  0  0  0
   63.2060   70.1630   14.5620 C   0  0  0  0  0  0  0  0  0  0  0  0
   63.4520   69.7150   13.2110 O   0  0  0  0  0  0  0  0  0  0  0  0
   61.8880   69.5760   15.1260 C   0  0  0  0  0  0  0  0  0  0  0  0
   61.6900   68.0340   15.0720 C   0  0  0  0  0  0  0  0  0  0  0  0
   62.7540   67.4420   15.8330 O   0  0  0  0  0  0  0  0  0  0  0  0
   61.8350   69.9590   16.5350 O   0  0  0  0  0  0  0  0  0  0  0  0
   61.7380   71.4240   16.7480 C   0  0  0  0  0  0  0  0  0  0  0  0
   61.7680   71.6410   18.1640 O   0  0  0  0  0  0  0  0  0  0  0  0
   62.9170   72.1900   16.0550 C   0  0  0  0  0  0  0  0  0  0  0  0
   62.7650   73.6660   16.1210 N   0  0  0  0  0  0  0  0  0  0  0  0
   61.7010   74.3560   15.6960 C   0  0  0  0  0  0  0  0  0  0  0  0
   60.7240   73.7830   15.2060 O   0  0  0  0  0  0  0  0  0  0  0  0
   61.7730   75.7040   15.8670 N   0  0  0  0  0  0  0  0  0  0  0  0
   60.6570   76.5470   15.4510 C   0  0  0  0  0  0  0  0  0  0  0  0
   62.8800   76.2690   16.4360 N   0  0  0  0  0  0  0  0  0  0  0  0
   63.1670   77.4870   15.7840 O   0  0  0  0  0  0  0  0  0  0  0  0
   65.0326   72.4104   14.9707 H   0  0  0  0  0  0  0  0  0  0  0  0
   62.3821   72.0857   13.9560 H   0  0  0  0  0  0  0  0  0  0  0  0
   64.0263   69.7976   15.1973 H   0  0  0  0  0  0  0  0  0  0  0  0
   63.9284   68.8474   13.2326 H   0  0  0  0  0  0  0  0  0  0  0  0
   61.0976   69.9788   14.4756 H   0  0  0  0  0  0  0  0  0  0  0  0
   60.7178   67.7634   15.5098 H   0  0  0  0  0  0  0  0  0  0  0  0
   61.7067   67.6745   14.0325 H   0  0  0  0  0  0  0  0  0  0  0  0
   62.5663   67.5465   16.7994 H   0  0  0  0  0  0  0  0  0  0  0  0
   60.8090   71.8088   16.3020 H   0  0  0  0  0  0  0  0  0  0  0  0
   61.6486   70.7773   18.6328 H   0  0  0  0  0  0  0  0  0  0  0  0
   63.8124   71.9371   16.6418 H   0  0  0  0  0  0  0  0  0  0  0  0
   63.5440   74.2030   16.5280 H   0  0  0  0  0  0  0  0  0  0  0  0
   60.1406   76.9370   16.3405 H   0  0  0  0  0  0  0  0  0  0  0  0
   61.0359   77.3864   14.8494 H   0  0  0  0  0  0  0  0  0  0  0  0
   59.9532   75.9531   14.8494 H   0  0  0  0  0  0  0  0  0  0  0  0
   62.7012   76.4467   17.4347 H   0  0  0  0  0  0  0  0  0  0  0  0
   63.3330   78.1916   16.4593 H   0  0  0  0  0  0  0  0  0  0  0  0
  1  2  1  0
  2  3  1  0
  2 11  1  0
  3  4  1  0
  3  5  1  0
  5  6  1  0
  5  8  1  0
  6  7  1  0
  8  9  1  0
  9 10  1  0
  9 11  1  0
 11 12  1  0
 12 13  1  0
 13 14  2  0
 13 15  1  0
 15 16  1  0
 15 17  1  0
 17 18  1  0
  1 19  1  0
  2 20  1  0
  3 21  1  0
  4 22  1  0
  5 23  1  0
  6 24  1  0
  6 25  1  0
  7 26  1  0
  9 27  1  0
 10 28  1  0
 11 29  1  0
 12 30  1  0
 16 31  1  0
 16 32  1  0
 16 33  1  0
 17 34  1  0
 18 35  1  0
A    1
O3
A    2
C3
A    3
C4
A    4
O4
A    5
C5
A    6
C6
A    7
O6
A    8
O5
A    9
C1
A   10
O1
A   11
C2
A   12
N2
A   13
CAM
A   14
OAG
A   15
NAN
A   16
CAH
A   17
NAO
A   18
OAP
M  END
