2VV9_IM9_A_1300
     RDKit          3D

 61 64  0  0  0  0  0  0  0  0999 V2000
    0.1430   27.8850   11.7300 C   0  0  0  0  0  0  0  0  0  0  0  0
   -0.2850   27.8580   10.2590 C   0  0  0  0  0  0  0  0  0  0  0  0
   -0.5410   26.4200    9.8130 C   0  0  0  0  0  0  0  0  0  0  0  0
   -1.4660   28.7070   10.0580 N   0  0  0  0  0  0  0  0  0  0  0  0
   -2.6860   28.5470   10.6050 C   0  0  0  0  0  0  0  0  0  0  0  0
   -3.0600   27.4100   11.5270 C   0  0  0  0  0  0  0  0  0  0  0  0
   -3.4770   29.5310   10.2210 N   0  0  0  0  0  0  0  0  0  0  0  0
   -2.8090   30.3540    9.4030 C   0  0  0  0  0  0  0  0  0  0  0  0
   -1.5400   29.8640    9.2960 C   0  0  0  0  0  0  0  0  0  0  0  0
   -0.4490   30.4510    8.4960 C   0  0  0  0  0  0  0  0  0  0  0  0
   -0.4440   31.8430    8.2470 C   0  0  0  0  0  0  0  0  0  0  0  0
    0.5960   32.3380    7.4780 C   0  0  0  0  0  0  0  0  0  0  0  0
    1.5450   31.5190    7.0220 N   0  0  0  0  0  0  0  0  0  0  0  0
    1.5440   30.2190    7.3010 C   0  0  0  0  0  0  0  0  0  0  0  0
    2.6180   29.5230    6.7600 N   0  0  0  0  0  0  0  0  0  0  0  0
    3.0890   28.2370    7.0170 C   0  0  0  0  0  0  0  0  0  0  0  0
    2.6380   27.4060    8.0430 C   0  0  0  0  0  0  0  0  0  0  0  0
    3.2010   26.1370    8.1780 C   0  0  0  0  0  0  0  0  0  0  0  0
    4.2020   25.6810    7.3260 C   0  0  0  0  0  0  0  0  0  0  0  0
    4.6660   26.5170    6.3170 C   0  0  0  0  0  0  0  0  0  0  0  0
    4.1070   27.7820    6.1860 C   0  0  0  0  0  0  0  0  0  0  0  0
    4.7890   24.4050    7.4980 N   0  0  0  0  0  0  0  0  0  0  0  0
    4.0950   23.6010    8.5120 C   0  0  0  0  0  0  0  0  0  0  0  0
    4.9130   22.3380    8.7680 C   0  0  0  0  0  0  0  0  0  0  0  0
    5.1630   21.6640    7.4750 N   0  0  0  0  0  0  0  0  0  0  0  0
    5.7820   22.4540    6.3990 C   0  0  0  0  0  0  0  0  0  0  0  0
    4.8900   23.6990    6.2130 C   0  0  0  0  0  0  0  0  0  0  0  0
    4.8460   20.3640    7.2700 C   0  0  0  0  0  0  0  0  0  0  0  0
    5.1040   19.8400    6.1920 O   0  0  0  0  0  0  0  0  0  0  0  0
    4.1920   19.5550    8.3640 C   0  0  0  0  0  0  0  0  0  0  0  0
    4.0100   18.1830    7.9730 O   0  0  0  0  0  0  0  0  0  0  0  0
    0.5460   29.6620    8.0220 N   0  0  0  0  0  0  0  0  0  0  0  0
   -0.7482   27.8288   12.3723 H   0  0  0  0  0  0  0  0  0  0  0  0
    0.7988   27.0264   11.9369 H   0  0  0  0  0  0  0  0  0  0  0  0
    0.6857   28.8192   11.9369 H   0  0  0  0  0  0  0  0  0  0  0  0
    0.5265   28.2631    9.6367 H   0  0  0  0  0  0  0  0  0  0  0  0
   -0.6555   25.7766   10.6978 H   0  0  0  0  0  0  0  0  0  0  0  0
   -1.4602   26.3813    9.2100 H   0  0  0  0  0  0  0  0  0  0  0  0
    0.3083   26.0664    9.2100 H   0  0  0  0  0  0  0  0  0  0  0  0
   -2.9530   27.7353   12.5724 H   0  0  0  0  0  0  0  0  0  0  0  0
   -4.1028   27.1141   11.3400 H   0  0  0  0  0  0  0  0  0  0  0  0
   -2.3965   26.5528   11.3400 H   0  0  0  0  0  0  0  0  0  0  0  0
   -3.2073   31.2536    8.9110 H   0  0  0  0  0  0  0  0  0  0  0  0
   -1.2295   32.5019    8.6455 H   0  0  0  0  0  0  0  0  0  0  0  0
    0.6397   33.4115    7.2421 H   0  0  0  0  0  0  0  0  0  0  0  0
    3.1548   30.0438    6.0518 H   0  0  0  0  0  0  0  0  0  0  0  0
    1.8520   27.7457    8.7335 H   0  0  0  0  0  0  0  0  0  0  0  0
    2.8430   25.4771    8.9820 H   0  0  0  0  0  0  0  0  0  0  0  0
    5.4614   26.1829    5.6346 H   0  0  0  0  0  0  0  0  0  0  0  0
    4.4835   28.4483    5.3959 H   0  0  0  0  0  0  0  0  0  0  0  0
    4.0015   24.1782    9.4437 H   0  0  0  0  0  0  0  0  0  0  0  0
    3.0881   23.3340    8.1586 H   0  0  0  0  0  0  0  0  0  0  0  0
    5.8712   22.6064    9.2368 H   0  0  0  0  0  0  0  0  0  0  0  0
    4.3618   21.6647    9.4410 H   0  0  0  0  0  0  0  0  0  0  0  0
    6.8012   22.7540    6.6839 H   0  0  0  0  0  0  0  0  0  0  0  0
    5.8594   21.8730    5.4681 H   0  0  0  0  0  0  0  0  0  0  0  0
    3.8879   23.3897    5.8813 H   0  0  0  0  0  0  0  0  0  0  0  0
    5.3293   24.3638    5.4546 H   0  0  0  0  0  0  0  0  0  0  0  0
    4.8275   19.5889    9.2612 H   0  0  0  0  0  0  0  0  0  0  0  0
    3.2016   19.9887    8.5666 H   0  0  0  0  0  0  0  0  0  0  0  0
    3.9349   17.6166    8.7815 H   0  0  0  0  0  0  0  0  0  0  0  0
  1  2  1  0
  2  3  1  0
  2  4  1  0
  4  5  1  0
  4  9  1  0
  5  6  1  0
  5  7  2  0
  7  8  1  0
  8  9  2  0
  9 10  1  0
 10 11  2  0
 10 32  1  0
 11 12  1  0
 12 13  2  0
 13 14  1  0
 14 15  1  0
 14 32  2  0
 15 16  1  0
 16 17  2  0
 16 21  1  0
 17 18  1  0
 18 19  2  0
 19 20  1  0
 19 22  1  0
 20 21  2  0
 22 23  1  0
 22 27  1  0
 23 24  1  0
 24 25  1  0
 25 26  1  0
 25 28  1  0
 26 27  1  0
 28 29  2  0
 28 30  1  0
 30 31  1  0
  1 33  1  0
  1 34  1  0
  1 35  1  0
  2 36  1  0
  3 37  1  0
  3 38  1  0
  3 39  1  0
  6 40  1  0
  6 41  1  0
  6 42  1  0
  8 43  1  0
 11 44  1  0
 12 45  1  0
 15 46  1  0
 17 47  1  0
 18 48  1  0
 20 49  1  0
 21 50  1  0
 23 51  1  0
 23 52  1  0
 24 53  1  0
 24 54  1  0
 26 55  1  0
 26 56  1  0
 27 57  1  0
 27 58  1  0
 30 59  1  0
 30 60  1  0
 31 61  1  0
A    1
C1
A    2
C2
A    3
C3
A    4
N4
A    5
C5
A    6
C6
A    7
N7
A    8
C8
A    9
C9
A   10
C10
A   11
C11
A   12
C12
A   13
N13
A   14
C14
A   15
N15
A   16
C16
A   17
C17
A   18
C18
A   19
C19
A   20
C20
A   21
C21
A   22
N22
A   23
C23
A   24
C24
A   25
N25
A   26
C26
A   27
C27
A   28
C28
A   29
O29
A   30
C30
A   31
O31
A   32
N32
M  END
