2VVU_H22_A_1244
     RDKit          3D

 52 55  0  0  0  0  0  0  0  0999 V2000
   -3.6650    9.7270   19.7840 F   0  0  0  0  0  0  0  0  0  0  0  0
   -4.8590    9.1110   19.8080 C   0  0  0  0  0  0  0  0  0  0  0  0
   -5.0640    8.0370   18.9520 C   0  0  0  0  0  0  0  0  0  0  0  0
   -6.2820    7.3840   18.9520 C   0  0  0  0  0  0  0  0  0  0  0  0
   -6.4580    6.2980   18.0600 N   0  0  0  0  0  0  0  0  0  0  0  0
   -6.4190    5.0490   18.5120 C   0  0  0  0  0  0  0  0  0  0  0  0
   -6.5930    3.9610   17.6670 C   0  0  0  0  0  0  0  0  0  0  0  0
   -6.8210    4.0840   16.2350 C   0  0  0  0  0  0  0  0  0  0  0  0
   -6.8430    5.4700   15.7930 C   0  0  0  0  0  0  0  0  0  0  0  0
   -6.6730    6.5220   16.6760 C   0  0  0  0  0  0  0  0  0  0  0  0
   -6.7070    7.7770   16.1690 O   0  0  0  0  0  0  0  0  0  0  0  0
   -7.2940    7.8130   19.8190 C   0  0  0  0  0  0  0  0  0  0  0  0
   -7.0830    8.8980   20.6870 C   0  0  0  0  0  0  0  0  0  0  0  0
   -5.8530    9.5570   20.6690 C   0  0  0  0  0  0  0  0  0  0  0  0
   -5.6040   10.6180   21.4830 N   0  0  0  0  0  0  0  0  0  0  0  0
   -5.1940   11.7920   20.9740 C   0  0  0  0  0  0  0  0  0  0  0  0
   -4.9470   11.9650   19.7910 O   0  0  0  0  0  0  0  0  0  0  0  0
   -5.0350   12.9760   21.9050 C   0  0  0  0  0  0  0  0  0  0  0  0
   -4.8940   12.5370   23.2970 N   0  0  0  0  0  0  0  0  0  0  0  0
   -3.5670   11.9320   23.5430 C   0  0  0  0  0  0  0  0  0  0  0  0
   -3.0640   12.4280   24.8970 C   0  0  0  0  0  0  0  0  0  0  0  0
   -4.1500   13.3730   25.4000 C   0  0  0  0  0  0  0  0  0  0  0  0
   -5.0300   13.6970   24.1920 C   0  0  0  0  0  0  0  0  0  0  0  0
   -3.0110   11.2760   25.8000 N   0  0  0  0  0  0  0  0  0  0  0  0
   -2.0490   10.3650   25.6450 C   0  0  0  0  0  0  0  0  0  0  0  0
   -1.2160   10.4720   24.7550 O   0  0  0  0  0  0  0  0  0  0  0  0
   -1.9620    9.1790   26.5430 C   0  0  0  0  0  0  0  0  0  0  0  0
   -2.7000    8.7280   27.6480 C   0  0  0  0  0  0  0  0  0  0  0  0
   -2.2180    7.5250   28.1530 C   0  0  0  0  0  0  0  0  0  0  0  0
   -0.6540    8.1350   26.0730 S   0  0  0  0  0  0  0  0  0  0  0  0
   -1.1280    7.1240   27.3910 C   0  0  0  0  0  0  0  0  0  0  0  0
   -0.1830    5.5740   27.7080 Cl  0  0  0  0  0  0  0  0  0  0  0  0
   -4.2605    7.7074   18.2769 H   0  0  0  0  0  0  0  0  0  0  0  0
   -6.2443    4.8724   19.5836 H   0  0  0  0  0  0  0  0  0  0  0  0
   -6.5565    2.9519   18.1034 H   0  0  0  0  0  0  0  0  0  0  0  0
   -6.9610    3.2252   15.5621 H   0  0  0  0  0  0  0  0  0  0  0  0
   -6.9993    5.6880   14.7262 H   0  0  0  0  0  0  0  0  0  0  0  0
   -8.2646    7.2954   19.8209 H   0  0  0  0  0  0  0  0  0  0  0  0
   -7.8786    9.2242   21.3730 H   0  0  0  0  0  0  0  0  0  0  0  0
   -5.7311   10.5204   22.5005 H   0  0  0  0  0  0  0  0  0  0  0  0
   -4.1386   13.5437   21.6146 H   0  0  0  0  0  0  0  0  0  0  0  0
   -5.9334   13.6058   21.8263 H   0  0  0  0  0  0  0  0  0  0  0  0
   -3.6536   10.8355   23.5561 H   0  0  0  0  0  0  0  0  0  0  0  0
   -2.8639   12.2180   22.7468 H   0  0  0  0  0  0  0  0  0  0  0  0
   -2.0772   12.9105   24.8383 H   0  0  0  0  0  0  0  0  0  0  0  0
   -4.7458   12.8849   26.1853 H   0  0  0  0  0  0  0  0  0  0  0  0
   -3.7161   14.2855   25.8349 H   0  0  0  0  0  0  0  0  0  0  0  0
   -4.6796   14.6127   23.6934 H   0  0  0  0  0  0  0  0  0  0  0  0
   -6.0766   13.8749   24.4802 H   0  0  0  0  0  0  0  0  0  0  0  0
   -3.7107   11.1702   26.5484 H   0  0  0  0  0  0  0  0  0  0  0  0
   -3.5630    9.2656   28.0678 H   0  0  0  0  0  0  0  0  0  0  0  0
   -2.6320    6.9805   29.0144 H   0  0  0  0  0  0  0  0  0  0  0  0
  1  2  1  0
  2  3  2  0
  2 14  1  0
  3  4  1  0
  4  5  1  0
  4 12  2  0
  5  6  1  0
  5 10  1  0
  6  7  2  0
  7  8  1  0
  8  9  2  0
  9 10  1  0
 10 11  2  0
 12 13  1  0
 13 14  2  0
 14 15  1  0
 15 16  1  0
 16 17  2  0
 16 18  1  0
 18 19  1  0
 19 20  1  0
 19 23  1  0
 20 21  1  0
 22 21  1  0
 22 23  1  0
 21 24  1  0
 24 25  1  0
 25 26  2  0
 25 27  1  0
 27 28  2  0
 27 30  1  0
 28 29  1  0
 29 31  2  0
 30 31  1  0
 31 32  1  0
  3 33  1  0
  6 34  1  0
  7 35  1  0
  8 36  1  0
  9 37  1  0
 12 38  1  0
 13 39  1  0
 15 40  1  0
 18 41  1  0
 18 42  1  0
 20 43  1  0
 20 44  1  0
 21 45  1  0
 22 46  1  0
 22 47  1  0
 23 48  1  0
 23 49  1  0
 24 50  1  0
 28 51  1  0
 29 52  1  0
A    1
F3
A    2
C17
A    3
C11
A    4
C9
A    5
N1
A    6
C21
A    7
C29
A    8
C30
A    9
C23
A   10
C8
A   11
O25
A   12
C26
A   13
C28
A   14
C16
A   15
N15
A   16
C14
A   17
O27
A   18
C22
A   19
N4
A   20
C20
A   21
C24
A   22
C34
A   23
C31
A   24
N7
A   25
C5
A   26
O24
A   27
C2
A   28
C12
A   29
C19
A   30
S3
A   31
C10
A   32
CL1
M  END
