1E6X_LGC_M_999
     RDKit          3D

 22 22  0  0  0  0  0  0  0  0999 V2000
   46.8450  119.6320   53.2420 C   0  0  0  0  0  0  0  0  0  0  0  0
   47.7220  119.0440   54.1680 C   0  0  0  0  0  0  0  0  0  0  0  0
   46.6620  120.9760   52.8900 O   0  0  0  0  0  0  0  0  0  0  0  0
   45.9180  118.9640   52.6890 O   0  0  0  0  0  0  0  0  0  0  0  0
   47.2030  117.9340   54.8570 O   0  0  0  0  0  0  0  0  0  0  0  0
   48.2300  120.1420   55.1270 C   0  0  0  0  0  0  0  0  0  0  0  0
   49.4110  119.6120   55.7460 O   0  0  0  0  0  0  0  0  0  0  0  0
   48.5780  121.3400   54.2130 C   0  0  0  0  0  0  0  0  0  0  0  0
   49.2110  122.3980   54.9600 O   0  0  0  0  0  0  0  0  0  0  0  0
   47.2150  121.9670   53.7810 C   0  0  0  0  0  0  0  0  0  0  0  0
   47.1790  123.2290   52.8810 C   0  0  0  0  0  0  0  0  0  0  0  0
   48.0140  123.0290   51.6750 O   0  0  0  0  0  0  0  0  0  0  0  0
   48.5596  118.6151   53.5984 H   0  0  0  0  0  0  0  0  0  0  0  0
   47.2749  118.0878   55.8323 H   0  0  0  0  0  0  0  0  0  0  0  0
   47.5140  120.4467   55.9045 H   0  0  0  0  0  0  0  0  0  0  0  0
   49.3152  119.6550   56.7304 H   0  0  0  0  0  0  0  0  0  0  0  0
   49.2244  120.9860   53.3964 H   0  0  0  0  0  0  0  0  0  0  0  0
   49.1076  122.2251   55.9293 H   0  0  0  0  0  0  0  0  0  0  0  0
   46.7347  122.2496   54.7294 H   0  0  0  0  0  0  0  0  0  0  0  0
   46.1411  123.4255   52.5743 H   0  0  0  0  0  0  0  0  0  0  0  0
   47.5742  124.0834   53.4500 H   0  0  0  0  0  0  0  0  0  0  0  0
   48.9396  122.8073   51.9475 H   0  0  0  0  0  0  0  0  0  0  0  0
  1  2  1  0
  1  3  1  0
  1  4  2  0
  2  5  1  0
  2  6  1  0
  3 10  1  0
  6  7  1  0
  6  8  1  0
  8  9  1  0
  8 10  1  0
 10 11  1  0
 11 12  1  0
  2 13  1  0
  5 14  1  0
  6 15  1  0
  7 16  1  0
  8 17  1  0
  9 18  1  0
 10 19  1  0
 11 20  1  0
 11 21  1  0
 12 22  1  0
A    1
C1
A    2
C2
A    3
O5
A    4
O1
A    5
O2
A    6
C3
A    7
O3
A    8
C4
A    9
O4
A   10
C5
A   11
C6
A   12
O6
M  END
