2VWU_7X1_A_1888
     RDKit          3D

 60 64  0  0  0  0  0  0  0  0999 V2000
    9.5400   10.4300   10.6250 C   0  0  0  0  0  0  0  0  0  0  0  0
   10.9620   10.6640   10.7240 O   0  0  0  0  0  0  0  0  0  0  0  0
   11.6500    9.5650   11.1600 C   0  0  0  0  0  0  0  0  0  0  0  0
   11.0830    8.3240   11.3970 C   0  0  0  0  0  0  0  0  0  0  0  0
   11.8870    7.2590   11.8640 C   0  0  0  0  0  0  0  0  0  0  0  0
   11.3790    5.9640   12.1570 C   0  0  0  0  0  0  0  0  0  0  0  0
   10.0200    5.7030   11.9640 N   0  0  0  0  0  0  0  0  0  0  0  0
    9.3860    4.5130   12.3770 C   0  0  0  0  0  0  0  0  0  0  0  0
    9.2710    4.2400   13.7200 C   0  0  0  0  0  0  0  0  0  0  0  0
    9.7110    4.9620   14.7840 O   0  0  0  0  0  0  0  0  0  0  0  0
    9.5060    4.1000   15.9150 C   0  0  0  0  0  0  0  0  0  0  0  0
    8.6340    3.0500   15.4800 O   0  0  0  0  0  0  0  0  0  0  0  0
    8.6130    3.0780   14.1410 C   0  0  0  0  0  0  0  0  0  0  0  0
    8.0790    2.1660   13.2390 C   0  0  0  0  0  0  0  0  0  0  0  0
    8.2140    2.4310   11.8830 C   0  0  0  0  0  0  0  0  0  0  0  0
    8.8460    3.6080   11.4700 C   0  0  0  0  0  0  0  0  0  0  0  0
    9.0240    3.9330    9.7830 Cl  0  0  0  0  0  0  0  0  0  0  0  0
   12.2320    5.0140   12.6010 N   0  0  0  0  0  0  0  0  0  0  0  0
   13.5310    5.2460   12.7510 C   0  0  0  0  0  0  0  0  0  0  0  0
   14.0540    6.4310   12.4770 N   0  0  0  0  0  0  0  0  0  0  0  0
   13.2870    7.4600   12.0330 C   0  0  0  0  0  0  0  0  0  0  0  0
   13.8380    8.7270   11.7580 C   0  0  0  0  0  0  0  0  0  0  0  0
   13.0350    9.7530   11.3230 C   0  0  0  0  0  0  0  0  0  0  0  0
   13.4960   10.9990   11.0300 O   0  0  0  0  0  0  0  0  0  0  0  0
   14.8550   11.2490   11.3560 C   0  0  0  0  0  0  0  0  0  0  0  0
   15.0160   12.7790   11.2970 C   0  0  0  0  0  0  0  0  0  0  0  0
   15.2680   13.2080    9.8540 C   0  0  0  0  0  0  0  0  0  0  0  0
   15.3730   14.6760    9.6880 N   0  0  0  0  0  0  0  0  0  0  0  0
   16.7360   15.1620    9.9910 C   0  0  0  0  0  0  0  0  0  0  0  0
   16.7670   16.7010    9.9310 C   0  0  0  0  0  0  0  0  0  0  0  0
   16.2980   17.1820    8.5440 C   0  0  0  0  0  0  0  0  0  0  0  0
   14.9810   16.5020    8.1150 C   0  0  0  0  0  0  0  0  0  0  0  0
   15.0940   14.9700    8.2790 C   0  0  0  0  0  0  0  0  0  0  0  0
    9.1089   10.3591   11.6345 H   0  0  0  0  0  0  0  0  0  0  0  0
    9.0683   11.2626   10.0825 H   0  0  0  0  0  0  0  0  0  0  0  0
    9.3599    9.4901   10.0825 H   0  0  0  0  0  0  0  0  0  0  0  0
   10.0084    8.1671   11.2221 H   0  0  0  0  0  0  0  0  0  0  0  0
    9.4493    6.4199   11.4937 H   0  0  0  0  0  0  0  0  0  0  0  0
   10.4659    3.6808   16.2510 H   0  0  0  0  0  0  0  0  0  0  0  0
    9.0688    4.6528   16.7595 H   0  0  0  0  0  0  0  0  0  0  0  0
    7.5638    1.2595   13.5895 H   0  0  0  0  0  0  0  0  0  0  0  0
    7.8265    1.7200   11.1385 H   0  0  0  0  0  0  0  0  0  0  0  0
   14.1852    4.4378   13.1099 H   0  0  0  0  0  0  0  0  0  0  0  0
   14.9167    8.8955   11.8923 H   0  0  0  0  0  0  0  0  0  0  0  0
   15.0831   10.8769   12.3657 H   0  0  0  0  0  0  0  0  0  0  0  0
   15.5416   10.7389   10.6644 H   0  0  0  0  0  0  0  0  0  0  0  0
   14.0982   13.2590   11.6674 H   0  0  0  0  0  0  0  0  0  0  0  0
   15.8670   13.0829   11.9242 H   0  0  0  0  0  0  0  0  0  0  0  0
   16.2082   12.7501    9.5130 H   0  0  0  0  0  0  0  0  0  0  0  0
   14.4045   12.8743    9.2599 H   0  0  0  0  0  0  0  0  0  0  0  0
   17.0264   14.8300   10.9987 H   0  0  0  0  0  0  0  0  0  0  0  0
   17.4395   14.7555    9.2495 H   0  0  0  0  0  0  0  0  0  0  0  0
   16.0991   17.1096   10.7037 H   0  0  0  0  0  0  0  0  0  0  0  0
   17.7956   17.0494   10.1061 H   0  0  0  0  0  0  0  0  0  0  0  0
   16.1415   18.2702    8.5790 H   0  0  0  0  0  0  0  0  0  0  0  0
   17.0737   16.9167    7.8106 H   0  0  0  0  0  0  0  0  0  0  0  0
   14.1582   16.8750    8.7426 H   0  0  0  0  0  0  0  0  0  0  0  0
   14.7833   16.7365    7.0586 H   0  0  0  0  0  0  0  0  0  0  0  0
   15.9121   14.5882    7.6505 H   0  0  0  0  0  0  0  0  0  0  0  0
   14.1558   14.4860    7.9700 H   0  0  0  0  0  0  0  0  0  0  0  0
  1  2  1  0
  2  3  1  0
  3  4  2  0
  3 23  1  0
  4  5  1  0
  5  6  2  0
  5 21  1  0
  6  7  1  0
  6 18  1  0
  7  8  1  0
  8  9  2  0
  8 16  1  0
  9 10  1  0
  9 13  1  0
 10 11  1  0
 11 12  1  0
 12 13  1  0
 13 14  2  0
 14 15  1  0
 15 16  2  0
 16 17  1  0
 18 19  2  0
 19 20  1  0
 20 21  2  0
 21 22  1  0
 22 23  2  0
 23 24  1  0
 24 25  1  0
 25 26  1  0
 26 27  1  0
 27 28  1  0
 28 29  1  0
 28 33  1  0
 29 30  1  0
 30 31  1  0
 31 32  1  0
 32 33  1  0
  1 34  1  0
  1 35  1  0
  1 36  1  0
  4 37  1  0
  7 38  1  0
 11 39  1  0
 11 40  1  0
 14 41  1  0
 15 42  1  0
 19 43  1  0
 22 44  1  0
 25 45  1  0
 25 46  1  0
 26 47  1  0
 26 48  1  0
 27 49  1  0
 27 50  1  0
 29 51  1  0
 29 52  1  0
 30 53  1  0
 30 54  1  0
 31 55  1  0
 31 56  1  0
 32 57  1  0
 32 58  1  0
 33 59  1  0
 33 60  1  0
A    1
C1
A    2
O2
A    3
C3
A    4
C4
A    5
C5
A    6
C6
A    7
N7
A    8
C8
A    9
C9
A   10
O10
A   11
C11
A   12
O12
A   13
C13
A   14
C14
A   15
C15
A   16
C16
A   17
CL1
A   18
N18
A   19
C19
A   20
N20
A   21
C21
A   22
C22
A   23
C23
A   24
O24
A   25
C25
A   26
C26
A   27
C27
A   28
N28
A   29
C29
A   30
C30
A   31
C31
A   32
C32
A   33
C33
M  END
