2VWV_7X3_A_1888
     RDKit          3D

 49 51  0  0  0  0  0  0  0  0999 V2000
    4.6200    7.5380   10.2290 C   0  0  0  0  0  0  0  0  0  0  0  0
    5.8290    8.1920   10.6290 O   0  0  0  0  0  0  0  0  0  0  0  0
    6.7650    7.2030   10.9290 C   0  0  0  0  0  0  0  0  0  0  0  0
    6.5140    5.8460   10.7380 C   0  0  0  0  0  0  0  0  0  0  0  0
    7.4760    4.9000   11.0700 C   0  0  0  0  0  0  0  0  0  0  0  0
    8.6950    5.2970   11.5850 C   0  0  0  0  0  0  0  0  0  0  0  0
    9.5950    4.2720   11.9100 N   0  0  0  0  0  0  0  0  0  0  0  0
   10.9570    4.4250   12.0500 C   0  0  0  0  0  0  0  0  0  0  0  0
   11.6580    3.3300   12.4550 N   0  0  0  0  0  0  0  0  0  0  0  0
   12.9590    3.3990   12.6130 C   0  0  0  0  0  0  0  0  0  0  0  0
   13.5870    4.5480   12.3580 N   0  0  0  0  0  0  0  0  0  0  0  0
   12.9070    5.6320   11.9420 C   0  0  0  0  0  0  0  0  0  0  0  0
   13.6330    6.7920   11.6920 N   0  0  0  0  0  0  0  0  0  0  0  0
   13.0710    7.9500   11.1280 C   0  0  0  0  0  0  0  0  0  0  0  0
   11.9330    7.9350   10.2940 C   0  0  0  0  0  0  0  0  0  0  0  0
   11.4880    9.1630    9.7780 C   0  0  0  0  0  0  0  0  0  0  0  0
   10.3910    9.3030    8.9750 O   0  0  0  0  0  0  0  0  0  0  0  0
    9.9090    8.1080    8.3260 C   0  0  0  0  0  0  0  0  0  0  0  0
   12.1810   10.3510   10.0890 C   0  0  0  0  0  0  0  0  0  0  0  0
   11.8010   11.5740    9.5990 O   0  0  0  0  0  0  0  0  0  0  0  0
   10.7570   12.0560   10.4620 C   0  0  0  0  0  0  0  0  0  0  0  0
   13.3130   10.3510   10.8950 C   0  0  0  0  0  0  0  0  0  0  0  0
   13.9200   11.5750   11.1290 O   0  0  0  0  0  0  0  0  0  0  0  0
   15.0100   11.5310   12.0760 C   0  0  0  0  0  0  0  0  0  0  0  0
   13.7450    9.1440   11.3970 C   0  0  0  0  0  0  0  0  0  0  0  0
   11.5710    5.5910   11.7770 N   0  0  0  0  0  0  0  0  0  0  0  0
    8.9680    6.6560   11.7840 C   0  0  0  0  0  0  0  0  0  0  0  0
    7.9880    7.5750   11.4510 C   0  0  0  0  0  0  0  0  0  0  0  0
    8.2690    9.2510   11.6370 Cl  0  0  0  0  0  0  0  0  0  0  0  0
    4.0555    7.2326   11.1223 H   0  0  0  0  0  0  0  0  0  0  0  0
    4.0104    8.2294    9.6287 H   0  0  0  0  0  0  0  0  0  0  0  0
    4.8651    6.6495    9.6287 H   0  0  0  0  0  0  0  0  0  0  0  0
    5.5487    5.5216   10.3220 H   0  0  0  0  0  0  0  0  0  0  0  0
    7.2661    3.8304   10.9222 H   0  0  0  0  0  0  0  0  0  0  0  0
    9.2067    3.3292   12.0557 H   0  0  0  0  0  0  0  0  0  0  0  0
   13.5254    2.5191   12.9520 H   0  0  0  0  0  0  0  0  0  0  0  0
   14.6344    6.8027   11.9328 H   0  0  0  0  0  0  0  0  0  0  0  0
   11.4130    6.9952   10.0565 H   0  0  0  0  0  0  0  0  0  0  0  0
    9.6120    7.3717    9.0873 H   0  0  0  0  0  0  0  0  0  0  0  0
    9.0408    8.3566    7.6979 H   0  0  0  0  0  0  0  0  0  0  0  0
   10.7067    7.6847    7.6979 H   0  0  0  0  0  0  0  0  0  0  0  0
   11.0559   11.9180   11.5116 H   0  0  0  0  0  0  0  0  0  0  0  0
   10.5846   13.1248   10.2674 H   0  0  0  0  0  0  0  0  0  0  0  0
    9.8317   11.4940   10.2674 H   0  0  0  0  0  0  0  0  0  0  0  0
   14.6074   11.5473   13.0995 H   0  0  0  0  0  0  0  0  0  0  0  0
   15.5901   10.6087   11.9248 H   0  0  0  0  0  0  0  0  0  0  0  0
   15.6625   12.4035   11.9248 H   0  0  0  0  0  0  0  0  0  0  0  0
   14.6460    9.1189   12.0275 H   0  0  0  0  0  0  0  0  0  0  0  0
    9.9347    6.9841   12.1937 H   0  0  0  0  0  0  0  0  0  0  0  0
  1  2  1  0
  2  3  1  0
  3  4  2  0
  3 28  1  0
  4  5  1  0
  5  6  2  0
  6  7  1  0
  6 27  1  0
  7  8  1  0
  8  9  2  0
  8 26  1  0
  9 10  1  0
 10 11  2  0
 11 12  1  0
 12 13  1  0
 12 26  2  0
 13 14  1  0
 14 15  2  0
 14 25  1  0
 15 16  1  0
 16 17  1  0
 16 19  2  0
 17 18  1  0
 19 20  1  0
 19 22  1  0
 20 21  1  0
 22 23  1  0
 22 25  2  0
 23 24  1  0
 27 28  2  0
 28 29  1  0
  1 30  1  0
  1 31  1  0
  1 32  1  0
  4 33  1  0
  5 34  1  0
  7 35  1  0
 10 36  1  0
 13 37  1  0
 15 38  1  0
 18 39  1  0
 18 40  1  0
 18 41  1  0
 21 42  1  0
 21 43  1  0
 21 44  1  0
 24 45  1  0
 24 46  1  0
 24 47  1  0
 25 48  1  0
 27 49  1  0
A    1
C1
A    2
O2
A    3
C3
A    4
C4
A    5
C5
A    6
C6
A    7
N7
A    8
C8
A    9
N9
A   10
C10
A   11
N11
A   12
C12
A   13
N13
A   14
C14
A   15
C15
A   16
C16
A   17
O17
A   18
C18
A   19
C19
A   20
O20
A   21
C21
A   22
C22
A   23
O23
A   24
C24
A   25
C25
A   26
N26
A   27
C27
A   28
C28
A   29
CL1
M  END
