2VWZ_7X6_A_1889
     RDKit          3D

 45 48  0  0  0  0  0  0  0  0999 V2000
   13.6440    7.4540   11.6170 N   0  0  0  0  0  0  0  0  0  0  0  0
   13.0090    6.2490   11.8950 C   0  0  0  0  0  0  0  0  0  0  0  0
   13.8960    5.2800   12.1850 N   0  0  0  0  0  0  0  0  0  0  0  0
   13.3820    4.0620   12.4540 C   0  0  0  0  0  0  0  0  0  0  0  0
   12.0160    3.8610   12.4040 C   0  0  0  0  0  0  0  0  0  0  0  0
   11.1920    4.9240   12.0710 C   0  0  0  0  0  0  0  0  0  0  0  0
    9.7940    4.7930   12.0020 N   0  0  0  0  0  0  0  0  0  0  0  0
    9.1300    3.5770   12.3000 C   0  0  0  0  0  0  0  0  0  0  0  0
    9.0560    3.1010   13.5970 C   0  0  0  0  0  0  0  0  0  0  0  0
    9.6260    3.7260   14.6940 O   0  0  0  0  0  0  0  0  0  0  0  0
    9.4080    2.7060   15.7110 C   0  0  0  0  0  0  0  0  0  0  0  0
    8.4610    1.7000   15.2850 O   0  0  0  0  0  0  0  0  0  0  0  0
    8.3970    1.9480   13.9370 C   0  0  0  0  0  0  0  0  0  0  0  0
    7.7790    1.1560   13.0030 C   0  0  0  0  0  0  0  0  0  0  0  0
    7.8520    1.6090   11.6820 C   0  0  0  0  0  0  0  0  0  0  0  0
    8.5030    2.8030   11.3300 C   0  0  0  0  0  0  0  0  0  0  0  0
    8.5590    3.3520    9.6570 Cl  0  0  0  0  0  0  0  0  0  0  0  0
   11.6830    6.1270   11.8280 N   0  0  0  0  0  0  0  0  0  0  0  0
    9.4280    8.4370    8.1980 C   0  0  0  0  0  0  0  0  0  0  0  0
    8.7140    9.0380    9.7100 S   0  0  0  0  0  0  0  0  0  0  0  0
    8.6090    7.8620   10.5640 O   0  0  0  0  0  0  0  0  0  0  0  0
    7.5060    9.7720    9.3450 O   0  0  0  0  0  0  0  0  0  0  0  0
    9.8050   10.2680   10.2030 N   0  0  0  0  0  0  0  0  0  0  0  0
   11.1830    9.9940   10.5020 C   0  0  0  0  0  0  0  0  0  0  0  0
   12.0320   11.0760   10.3620 C   0  0  0  0  0  0  0  0  0  0  0  0
   13.3790   10.9380   10.6190 C   0  0  0  0  0  0  0  0  0  0  0  0
   13.8790    9.7270   11.0370 C   0  0  0  0  0  0  0  0  0  0  0  0
   13.0190    8.6390   11.1860 C   0  0  0  0  0  0  0  0  0  0  0  0
   11.6650    8.7590   10.9310 C   0  0  0  0  0  0  0  0  0  0  0  0
   14.6665    7.4821   11.7376 H   0  0  0  0  0  0  0  0  0  0  0  0
   14.0510    3.2282   12.7134 H   0  0  0  0  0  0  0  0  0  0  0  0
   11.5889    2.8717   12.6253 H   0  0  0  0  0  0  0  0  0  0  0  0
    9.2320    5.6104   11.7248 H   0  0  0  0  0  0  0  0  0  0  0  0
   10.3679    2.2168   15.9328 H   0  0  0  0  0  0  0  0  0  0  0  0
    8.9945    3.2018   16.6016 H   0  0  0  0  0  0  0  0  0  0  0  0
    7.2598    0.2252   13.2753 H   0  0  0  0  0  0  0  0  0  0  0  0
    7.3823    1.0082   10.8893 H   0  0  0  0  0  0  0  0  0  0  0  0
   10.2505    7.7447    8.4307 H   0  0  0  0  0  0  0  0  0  0  0  0
    8.6594    7.9100    7.6136 H   0  0  0  0  0  0  0  0  0  0  0  0
    9.8161    9.2843    7.6136 H   0  0  0  0  0  0  0  0  0  0  0  0
    9.4601   11.2349   10.2873 H   0  0  0  0  0  0  0  0  0  0  0  0
   11.6313   12.0500   10.0445 H   0  0  0  0  0  0  0  0  0  0  0  0
   14.0543   11.7967   10.4897 H   0  0  0  0  0  0  0  0  0  0  0  0
   14.9520    9.6169   11.2528 H   0  0  0  0  0  0  0  0  0  0  0  0
   10.9871    7.9029   11.0632 H   0  0  0  0  0  0  0  0  0  0  0  0
  1  2  1  0
  1 28  1  0
  2  3  2  0
  2 18  1  0
  3  4  1  0
  4  5  2  0
  5  6  1  0
  6  7  1  0
  6 18  2  0
  7  8  1  0
  8  9  2  0
  8 16  1  0
  9 10  1  0
  9 13  1  0
 10 11  1  0
 11 12  1  0
 12 13  1  0
 13 14  2  0
 14 15  1  0
 15 16  2  0
 16 17  1  0
 19 20  1  0
 20 21  2  0
 20 22  2  0
 20 23  1  0
 23 24  1  0
 24 25  2  0
 24 29  1  0
 25 26  1  0
 26 27  2  0
 27 28  1  0
 28 29  2  0
  1 30  1  0
  4 31  1  0
  5 32  1  0
  7 33  1  0
 11 34  1  0
 11 35  1  0
 14 36  1  0
 15 37  1  0
 19 38  1  0
 19 39  1  0
 19 40  1  0
 23 41  1  0
 25 42  1  0
 26 43  1  0
 27 44  1  0
 29 45  1  0
A    1
N2
A    2
C7
A    3
N3
A    4
C8
A    5
C9
A    6
C10
A    7
N4
A    8
C11
A    9
C12
A   10
O3
A   11
C13
A   12
O4
A   13
C14
A   14
C15
A   15
C16
A   16
C17
A   17
CL1
A   18
N5
A   19
C1
A   20
S1
A   21
O1
A   22
O2
A   23
N1
A   24
C2
A   25
C3
A   26
C4
A   27
C5
A   28
C6
A   29
C18
M  END
