2VX1_7X8_A_1889
     RDKit          3D

 41 44  0  0  0  0  0  0  0  0999 V2000
   13.7070    7.4440   11.5360 N   0  0  0  0  0  0  0  0  0  0  0  0
   13.0600    6.2240   11.8450 C   0  0  0  0  0  0  0  0  0  0  0  0
   13.9380    5.2740   12.1930 N   0  0  0  0  0  0  0  0  0  0  0  0
   13.4410    4.0610   12.4820 C   0  0  0  0  0  0  0  0  0  0  0  0
   12.0940    3.7870   12.4290 C   0  0  0  0  0  0  0  0  0  0  0  0
   11.2630    4.8390   12.0520 C   0  0  0  0  0  0  0  0  0  0  0  0
    9.8770    4.6630   11.9630 N   0  0  0  0  0  0  0  0  0  0  0  0
    9.2290    3.4730   12.3140 C   0  0  0  0  0  0  0  0  0  0  0  0
    9.1620    3.0610   13.6330 C   0  0  0  0  0  0  0  0  0  0  0  0
    9.7330    3.7180   14.7070 O   0  0  0  0  0  0  0  0  0  0  0  0
    9.6080    2.6800   15.6890 C   0  0  0  0  0  0  0  0  0  0  0  0
    8.5880    1.7080   15.3520 O   0  0  0  0  0  0  0  0  0  0  0  0
    8.5080    1.9160   13.9970 C   0  0  0  0  0  0  0  0  0  0  0  0
    7.8920    1.1020   13.0770 C   0  0  0  0  0  0  0  0  0  0  0  0
    7.9740    1.5000   11.7490 C   0  0  0  0  0  0  0  0  0  0  0  0
    8.6170    2.6650   11.3670 C   0  0  0  0  0  0  0  0  0  0  0  0
    8.6910    3.1790    9.7030 Cl  0  0  0  0  0  0  0  0  0  0  0  0
   11.7380    6.0490   11.7640 N   0  0  0  0  0  0  0  0  0  0  0  0
    9.4380   10.6280    8.9260 N   0  0  0  0  0  0  0  0  0  0  0  0
    9.7620    9.9730   10.0940 C   0  0  0  0  0  0  0  0  0  0  0  0
    8.9560    9.4620   10.8630 O   0  0  0  0  0  0  0  0  0  0  0  0
   11.1970    9.9050   10.4050 C   0  0  0  0  0  0  0  0  0  0  0  0
   11.9680   11.0430   10.3020 C   0  0  0  0  0  0  0  0  0  0  0  0
   13.3100   10.9820   10.6080 C   0  0  0  0  0  0  0  0  0  0  0  0
   13.8530    9.7840   11.0130 C   0  0  0  0  0  0  0  0  0  0  0  0
   13.0770    8.6370   11.1110 C   0  0  0  0  0  0  0  0  0  0  0  0
   11.7350    8.6920   10.8160 C   0  0  0  0  0  0  0  0  0  0  0  0
   14.7325    7.4653   11.6293 H   0  0  0  0  0  0  0  0  0  0  0  0
   14.1350    3.2581   12.7713 H   0  0  0  0  0  0  0  0  0  0  0  0
   11.6949    2.7910   12.6713 H   0  0  0  0  0  0  0  0  0  0  0  0
    9.3052    5.4489   11.6220 H   0  0  0  0  0  0  0  0  0  0  0  0
   10.5736    2.1603   15.7759 H   0  0  0  0  0  0  0  0  0  0  0  0
    9.3131    3.1544   16.6366 H   0  0  0  0  0  0  0  0  0  0  0  0
    7.3628    0.1852   13.3761 H   0  0  0  0  0  0  0  0  0  0  0  0
    7.5128    0.8688   10.9751 H   0  0  0  0  0  0  0  0  0  0  0  0
    8.9816   11.5506    8.9625 H   0  0  0  0  0  0  0  0  0  0  0  0
    9.6522   10.1950    8.0163 H   0  0  0  0  0  0  0  0  0  0  0  0
   11.5156   11.9919    9.9782 H   0  0  0  0  0  0  0  0  0  0  0  0
   13.9400   11.8803   10.5295 H   0  0  0  0  0  0  0  0  0  0  0  0
   14.9228    9.7343   11.2640 H   0  0  0  0  0  0  0  0  0  0  0  0
   11.1023    7.7964   10.9034 H   0  0  0  0  0  0  0  0  0  0  0  0
  1  2  1  0
  1 26  1  0
  2  3  2  0
  2 18  1  0
  3  4  1  0
  4  5  2  0
  5  6  1  0
  6  7  1  0
  6 18  2  0
  7  8  1  0
  8  9  2  0
  8 16  1  0
  9 10  1  0
  9 13  1  0
 10 11  1  0
 11 12  1  0
 12 13  1  0
 13 14  2  0
 14 15  1  0
 15 16  2  0
 16 17  1  0
 19 20  1  0
 20 21  2  0
 20 22  1  0
 22 23  2  0
 22 27  1  0
 23 24  1  0
 24 25  2  0
 25 26  1  0
 26 27  2  0
  1 28  1  0
  4 29  1  0
  5 30  1  0
  7 31  1  0
 11 32  1  0
 11 33  1  0
 14 34  1  0
 15 35  1  0
 19 36  1  0
 19 37  1  0
 23 38  1  0
 24 39  1  0
 25 40  1  0
 27 41  1  0
A    1
N2
A    2
C7
A    3
N3
A    4
C8
A    5
C9
A    6
C10
A    7
N4
A    8
C11
A    9
C12
A   10
O2
A   11
C13
A   12
O3
A   13
C14
A   14
C15
A   15
C16
A   16
C17
A   17
CL1
A   18
N5
A   19
N1
A   20
C1
A   21
O1
A   22
C2
A   23
C3
A   24
C4
A   25
C5
A   26
C6
A   27
C18
M  END
