2VX3_D15_A_600
     RDKit          3D

 54 57  0  0  0  0  0  0  0  0999 V2000
   39.2070   26.2760  -39.0710 C   0  0  0  0  0  0  0  0  0  0  0  0
   40.1920   27.2700  -39.1900 C   0  0  0  0  0  0  0  0  0  0  0  0
   40.0550   28.8550  -38.5250 Cl  0  0  0  0  0  0  0  0  0  0  0  0
   41.3690   27.0690  -39.8640 C   0  0  0  0  0  0  0  0  0  0  0  0
   41.6370   25.8750  -40.4650 C   0  0  0  0  0  0  0  0  0  0  0  0
   40.6900   24.8890  -40.3600 C   0  0  0  0  0  0  0  0  0  0  0  0
   39.5080   25.0730  -39.6690 C   0  0  0  0  0  0  0  0  0  0  0  0
   38.6200   23.8440  -39.6710 C   0  0  0  0  0  0  0  0  0  0  0  0
   37.1810   24.2220  -39.9040 C   0  0  0  0  0  0  0  0  0  0  0  0
   37.2250   24.4650  -41.4030 C   0  0  0  0  0  0  0  0  0  0  0  0
   35.9750   24.9760  -41.9250 N   0  0  0  0  0  0  0  0  0  0  0  0
   39.0250   22.8670  -38.5450 C   0  0  0  0  0  0  0  0  0  0  0  0
   39.6790   21.8700  -38.8890 O   0  0  0  0  0  0  0  0  0  0  0  0
   38.7770   23.1550  -37.2610 N   0  0  0  0  0  0  0  0  0  0  0  0
   39.2550   22.3040  -36.3070 C   0  0  0  0  0  0  0  0  0  0  0  0
   40.3240   21.3460  -36.4650 C   0  0  0  0  0  0  0  0  0  0  0  0
   40.7670   20.4990  -35.4050 C   0  0  0  0  0  0  0  0  0  0  0  0
   38.6760   22.4030  -35.0690 C   0  0  0  0  0  0  0  0  0  0  0  0
   39.1230   21.5800  -34.0360 C   0  0  0  0  0  0  0  0  0  0  0  0
   40.1350   20.6380  -34.1770 C   0  0  0  0  0  0  0  0  0  0  0  0
   40.6690   19.7660  -33.3040 N   0  0  0  0  0  0  0  0  0  0  0  0
   41.5700   19.1190  -33.8580 N   0  0  0  0  0  0  0  0  0  0  0  0
   41.7290   19.4950  -35.1150 C   0  0  0  0  0  0  0  0  0  0  0  0
   42.6110   18.8540  -35.8780 N   0  0  0  0  0  0  0  0  0  0  0  0
   43.1610   19.3750  -36.9720 C   0  0  0  0  0  0  0  0  0  0  0  0
   43.0100   20.5410  -37.2890 O   0  0  0  0  0  0  0  0  0  0  0  0
   44.0490   18.4620  -37.8690 C   0  0  0  0  0  0  0  0  0  0  0  0
   44.7460   19.0010  -38.9550 C   0  0  0  0  0  0  0  0  0  0  0  0
   45.5430   18.2020  -39.7780 C   0  0  0  0  0  0  0  0  0  0  0  0
   45.6660   16.8310  -39.5470 C   0  0  0  0  0  0  0  0  0  0  0  0
   44.9790   16.3190  -38.4630 C   0  0  0  0  0  0  0  0  0  0  0  0
   44.1730   17.1090  -37.6450 C   0  0  0  0  0  0  0  0  0  0  0  0
   38.2606   26.4468  -38.5370 H   0  0  0  0  0  0  0  0  0  0  0  0
   42.1073   27.8825  -39.9206 H   0  0  0  0  0  0  0  0  0  0  0  0
   42.5764   25.7091  -41.0128 H   0  0  0  0  0  0  0  0  0  0  0  0
   40.8778   23.9184  -40.8424 H   0  0  0  0  0  0  0  0  0  0  0  0
   38.7832   23.1937  -40.5431 H   0  0  0  0  0  0  0  0  0  0  0  0
   36.4941   23.4041  -39.6409 H   0  0  0  0  0  0  0  0  0  0  0  0
   36.8160   25.0680  -39.3031 H   0  0  0  0  0  0  0  0  0  0  0  0
   38.0200   25.1943  -41.6177 H   0  0  0  0  0  0  0  0  0  0  0  0
   37.4167   23.4975  -41.8901 H   0  0  0  0  0  0  0  0  0  0  0  0
   35.3545   25.2297  -41.1430 H   0  0  0  0  0  0  0  0  0  0  0  0
   36.1588   25.8094  -42.5017 H   0  0  0  0  0  0  0  0  0  0  0  0
   38.2407   23.9950  -37.0007 H   0  0  0  0  0  0  0  0  0  0  0  0
   40.8181   21.2656  -37.4445 H   0  0  0  0  0  0  0  0  0  0  0  0
   37.8657   23.1254  -34.8917 H   0  0  0  0  0  0  0  0  0  0  0  0
   38.6459   21.6825  -33.0502 H   0  0  0  0  0  0  0  0  0  0  0  0
   40.3743   19.6526  -32.3236 H   0  0  0  0  0  0  0  0  0  0  0  0
   42.8839   17.8988  -35.6059 H   0  0  0  0  0  0  0  0  0  0  0  0
   44.6648   20.0776  -39.1656 H   0  0  0  0  0  0  0  0  0  0  0  0
   46.0817   18.6600  -40.6206 H   0  0  0  0  0  0  0  0  0  0  0  0
   46.2799   16.1894  -40.1962 H   0  0  0  0  0  0  0  0  0  0  0  0
   45.0717   15.2465  -38.2368 H   0  0  0  0  0  0  0  0  0  0  0  0
   43.6286   16.6453  -36.8092 H   0  0  0  0  0  0  0  0  0  0  0  0
  1  2  2  0
  1  7  1  0
  2  3  1  0
  2  4  1  0
  4  5  2  0
  5  6  1  0
  6  7  2  0
  7  8  1  0
  8  9  1  0
  8 12  1  0
  9 10  1  0
 10 11  1  0
 12 13  2  0
 12 14  1  0
 14 15  1  0
 15 16  2  0
 15 18  1  0
 16 17  1  0
 17 20  2  0
 17 23  1  0
 18 19  2  0
 19 20  1  0
 20 21  1  0
 21 22  1  0
 22 23  2  0
 23 24  1  0
 24 25  1  0
 25 26  2  0
 25 27  1  0
 27 28  2  0
 27 32  1  0
 28 29  1  0
 29 30  2  0
 30 31  1  0
 31 32  2  0
  1 33  1  0
  4 34  1  0
  5 35  1  0
  6 36  1  0
  8 37  1  0
  9 38  1  0
  9 39  1  0
 10 40  1  0
 10 41  1  0
 11 42  1  0
 11 43  1  0
 14 44  1  0
 16 45  1  0
 18 46  1  0
 19 47  1  0
 21 48  1  0
 24 49  1  0
 28 50  1  0
 29 51  1  0
 30 52  1  0
 31 53  1  0
 32 54  1  0
A    1
CAO
A    2
CAY
A    3
CL1
A    4
CAI
A    5
CAH
A    6
CAL
A    7
CBB
A    8
CBF
A    9
CAR
A   10
CAQ
A   11
NAA
A   12
CAX
A   13
OAC
A   14
NAT
A   15
CAZ
A   16
CAP
A   17
CBE
A   18
CAM
A   19
CAN
A   20
CBD
A   21
NAV
A   22
NAS
A   23
CBC
A   24
NAU
A   25
CAW
A   26
OAB
A   27
CBA
A   28
CAJ
A   29
CAF
A   30
CAE
A   31
CAG
A   32
CAK
M  END
