2VYP_RH9_A_1377
     RDKit          3D

228230  0  0  0  0  0  0  0  0999 V2000
   21.1510   18.2410    5.8460 O   0  0  0  0  0  0  0  0  0  0  0  0
   21.1390   17.0040    5.9390 C   0  0  0  0  0  0  0  0  0  0  0  0
   21.3910   16.2480    4.9400 N   0  0  0  0  0  0  0  0  0  0  0  0
   21.6670   16.8530    3.6390 C   0  0  0  0  0  0  0  0  0  0  0  0
   21.4110   14.9720    5.0880 C   0  0  0  0  0  0  0  0  0  0  0  0
   21.6960   14.1300    4.0870 C   0  0  0  0  0  0  0  0  0  0  0  0
   21.7100   12.6430    4.3170 C   0  0  0  0  0  0  0  0  0  0  0  0
   23.0900   12.0000    4.0710 C   0  0  0  0  0  0  0  0  0  0  0  0
   23.4390   12.1940    2.6880 O   0  0  0  0  0  0  0  0  0  0  0  0
   22.6970   11.3420    1.8130 C   0  0  0  0  0  0  0  0  0  0  0  0
   24.1740   12.5390    4.9960 C   0  0  0  0  0  0  0  0  0  0  0  0
   23.8900   12.3090    6.4870 C   0  0  0  0  0  0  0  0  0  0  0  0
   25.4910   11.9000    4.6190 C   0  0  0  0  0  0  0  0  0  0  0  0
   25.6430   10.6630    4.5690 O   0  0  0  0  0  0  0  0  0  0  0  0
   26.6430   12.8420    4.2940 C   0  0  0  0  0  0  0  0  0  0  0  0
   27.9960   12.1280    4.3050 C   0  0  0  0  0  0  0  0  0  0  0  0
   29.1400   13.1120    4.0950 C   0  0  0  0  0  0  0  0  0  0  0  0
   28.9840   13.7880    2.7210 C   0  0  0  0  0  0  0  0  0  0  0  0
   30.5200   12.4600    4.2390 C   0  0  0  0  0  0  0  0  0  0  0  0
   30.7380   12.0120    5.5800 O   0  0  0  0  0  0  0  0  0  0  0  0
   30.9330   13.0490    6.5520 C   0  0  0  0  0  0  0  0  0  0  0  0
   30.6810   11.3140    3.2000 C   0  0  0  0  0  0  0  0  0  0  0  0
   32.1790   10.9950    2.9740 C   0  0  0  0  0  0  0  0  0  0  0  0
   32.9700   12.1190    2.5680 O   0  0  0  0  0  0  0  0  0  0  0  0
   33.8120   12.7380    3.5790 C   0  0  0  0  0  0  0  0  0  0  0  0
   33.9110   12.2680    4.7170 O   0  0  0  0  0  0  0  0  0  0  0  0
   34.5360   13.9750    3.1660 C   0  0  0  0  0  0  0  0  0  0  0  0
   36.0000   13.8280    3.5360 C   0  0  0  0  0  0  0  0  0  0  0  0
   36.4780   12.7780    2.7530 O   0  0  0  0  0  0  0  0  0  0  0  0
   36.7100   15.1080    3.2070 C   0  0  0  0  0  0  0  0  0  0  0  0
   38.2140   15.0700    3.4900 C   0  0  0  0  0  0  0  0  0  0  0  0
   38.8050   16.1810    2.8180 O   0  0  0  0  0  0  0  0  0  0  0  0
   40.2410   16.2320    2.9520 C   0  0  0  0  0  0  0  0  0  0  0  0
   38.4240   15.1410    4.9710 C   0  0  0  0  0  0  0  0  0  0  0  0
   38.4910   14.0270    5.6750 C   0  0  0  0  0  0  0  0  0  0  0  0
   38.6800   14.1130    7.1120 C   0  0  0  0  0  0  0  0  0  0  0  0
   38.7830   12.9970    7.8520 C   0  0  0  0  0  0  0  0  0  0  0  0
   38.9890   13.0930    9.3500 C   0  0  0  0  0  0  0  0  0  0  0  0
   37.9410   12.2300   10.0100 C   0  0  0  0  0  0  0  0  0  0  0  0
   37.9220   12.6180   11.3810 O   0  0  0  0  0  0  0  0  0  0  0  0
   36.7900   12.0540   12.0740 C   0  0  0  0  0  0  0  0  0  0  0  0
   38.2090   10.7530    9.8450 C   0  0  0  0  0  0  0  0  0  0  0  0
   39.2100    9.9070   10.2090 N   0  0  0  0  0  0  0  0  0  0  0  0
   37.2450   10.0440    9.1770 C   0  0  0  0  0  0  0  0  0  0  0  0
   37.7120    8.6560    9.1330 O   0  0  0  0  0  0  0  0  0  0  0  0
   38.9060    8.6530    9.7840 C   0  0  0  0  0  0  0  0  0  0  0  0
   39.7580    7.4250    9.9900 C   0  0  0  0  0  0  0  0  0  0  0  0
   40.7010    7.3450    8.8210 C   0  0  0  0  0  0  0  0  0  0  0  0
   39.9270    7.0720    7.6690 O   0  0  0  0  0  0  0  0  0  0  0  0
   41.7820    6.2610    8.9310 C   0  0  0  0  0  0  0  0  0  0  0  0
   41.0760    4.9180    8.9830 C   0  0  0  0  0  0  0  0  0  0  0  0
   42.7140    6.5310   10.1210 C   0  0  0  0  0  0  0  0  0  0  0  0
   32.6370    9.7950    2.1450 C   0  0  0  0  0  0  0  0  0  0  0  0
   31.9320    8.5510    2.6630 C   0  0  0  0  0  0  0  0  0  0  0  0
   32.1370   10.0240    0.7200 C   0  0  0  0  0  0  0  0  0  0  0  0
   34.1770    9.6670    2.1710 C   0  0  0  0  0  0  0  0  0  0  0  0
   34.5150    9.2800    3.4880 O   0  0  0  0  0  0  0  0  0  0  0  0
   34.7770    8.6170    1.2350 C   0  0  0  0  0  0  0  0  0  0  0  0
   36.2960    8.7170    1.0920 C   0  0  0  0  0  0  0  0  0  0  0  0
   37.1840    7.9030    1.7250 O   0  0  0  0  0  0  0  0  0  0  0  0
   38.5230    8.3700    1.2840 C   0  0  0  0  0  0  0  0  0  0  0  0
   36.9930    9.6270    0.3410 N   0  0  0  0  0  0  0  0  0  0  0  0
   38.3010    9.4200    0.4470 C   0  0  0  0  0  0  0  0  0  0  0  0
   39.4970   10.1000   -0.1440 C   0  0  0  0  0  0  0  0  0  0  0  0
   39.4930   10.1360   -1.5930 O   0  0  0  0  0  0  0  0  0  0  0  0
   39.5980    8.8200   -2.1370 C   0  0  0  0  0  0  0  0  0  0  0  0
   39.5080   11.5490    0.2760 C   0  0  0  0  0  0  0  0  0  0  0  0
   39.7410   11.7500    1.7560 C   0  0  0  0  0  0  0  0  0  0  0  0
   40.8410   12.3890    2.1720 C   0  0  0  0  0  0  0  0  0  0  0  0
   41.0520   12.5840    3.5980 C   0  0  0  0  0  0  0  0  0  0  0  0
   42.1530   13.1840    4.0060 C   0  0  0  0  0  0  0  0  0  0  0  0
   42.3930   13.4050    5.4710 C   0  0  0  0  0  0  0  0  0  0  0  0
   42.9280   14.7410    5.5230 O   0  0  0  0  0  0  0  0  0  0  0  0
   42.3810   15.5080    6.6040 C   0  0  0  0  0  0  0  0  0  0  0  0
   43.2830   12.3270    6.1120 C   0  0  0  0  0  0  0  0  0  0  0  0
   42.6360   10.9270    6.1310 C   0  0  0  0  0  0  0  0  0  0  0  0
   41.5160   10.8680    7.0470 O   0  0  0  0  0  0  0  0  0  0  0  0
   43.6740    9.8790    6.5480 C   0  0  0  0  0  0  0  0  0  0  0  0
   43.1080    8.4800    6.5410 C   0  0  0  0  0  0  0  0  0  0  0  0
   42.5690    8.0570    5.5550 O   0  0  0  0  0  0  0  0  0  0  0  0
   43.2290    7.6360    7.7320 O   0  0  0  0  0  0  0  0  0  0  0  0
   42.6340    6.3470    7.6620 C   0  0  0  0  0  0  0  0  0  0  0  0
   43.7470    5.2880    7.5230 C   0  0  0  0  0  0  0  0  0  0  0  0
   44.6240    5.5550    6.2820 C   0  0  0  0  0  0  0  0  0  0  0  0
   43.7920    5.3010    5.1590 O   0  0  0  0  0  0  0  0  0  0  0  0
   44.2720    5.6610    3.8680 C   0  0  0  0  0  0  0  0  0  0  0  0
   45.9210    4.7120    6.2910 C   0  0  0  0  0  0  0  0  0  0  0  0
   46.7740    5.1540    7.4660 C   0  0  0  0  0  0  0  0  0  0  0  0
   45.6580    3.2160    6.3690 C   0  0  0  0  0  0  0  0  0  0  0  0
   46.8910    2.4110    6.0300 C   0  0  0  0  0  0  0  0  0  0  0  0
   46.6910    0.9300    6.1200 C   0  0  0  0  0  0  0  0  0  0  0  0
   45.6120    0.4590    6.4220 O   0  0  0  0  0  0  0  0  0  0  0  0
   47.8700    0.0250    5.8260 C   0  0  0  0  0  0  0  0  0  0  0  0
   47.5960   -0.7330    4.5390 C   0  0  0  0  0  0  0  0  0  0  0  0
   48.1310   -0.9380    6.9930 C   0  0  0  0  0  0  0  0  0  0  0  0
   48.0770   -0.2420    8.2640 O   0  0  0  0  0  0  0  0  0  0  0  0
   48.0780   -1.0540    9.4310 C   0  0  0  0  0  0  0  0  0  0  0  0
   49.4260   -1.7310    6.7760 C   0  0  0  0  0  0  0  0  0  0  0  0
   50.6420   -0.8740    6.4600 C   0  0  0  0  0  0  0  0  0  0  0  0
   51.3160   -1.0070    5.2770 C   0  0  0  0  0  0  0  0  0  0  0  0
   52.3490   -0.3020    4.9800 N   0  0  0  0  0  0  0  0  0  0  0  0
   52.8420    0.6660    5.9520 C   0  0  0  0  0  0  0  0  0  0  0  0
   52.9330   -0.4550    3.8440 C   0  0  0  0  0  0  0  0  0  0  0  0
   53.9470    0.1630    3.4920 O   0  0  0  0  0  0  0  0  0  0  0  0
   20.9044   16.5442    6.9104 H   0  0  0  0  0  0  0  0  0  0  0  0
   22.1195   17.8450    3.7845 H   0  0  0  0  0  0  0  0  0  0  0  0
   22.3618   16.2120    3.0765 H   0  0  0  0  0  0  0  0  0  0  0  0
   20.7275   16.9575    3.0765 H   0  0  0  0  0  0  0  0  0  0  0  0
   21.1842   14.5534    6.0796 H   0  0  0  0  0  0  0  0  0  0  0  0
   21.9220   14.5289    3.0871 H   0  0  0  0  0  0  0  0  0  0  0  0
   21.4148   12.4481    5.3586 H   0  0  0  0  0  0  0  0  0  0  0  0
   21.0093   12.1956    3.5967 H   0  0  0  0  0  0  0  0  0  0  0  0
   23.0199   10.9266    4.3011 H   0  0  0  0  0  0  0  0  0  0  0  0
   22.0896   10.6445    2.4084 H   0  0  0  0  0  0  0  0  0  0  0  0
   22.0378   11.9527    1.1785 H   0  0  0  0  0  0  0  0  0  0  0  0
   23.3924   10.7730    1.1785 H   0  0  0  0  0  0  0  0  0  0  0  0
   24.2037   13.6303    4.8609 H   0  0  0  0  0  0  0  0  0  0  0  0
   24.6049   12.8880    7.0900 H   0  0  0  0  0  0  0  0  0  0  0  0
   22.8655   12.6351    6.7197 H   0  0  0  0  0  0  0  0  0  0  0  0
   23.9960   11.2391    6.7197 H   0  0  0  0  0  0  0  0  0  0  0  0
   26.4777   13.2718    3.2950 H   0  0  0  0  0  0  0  0  0  0  0  0
   26.6680   13.6234    5.0678 H   0  0  0  0  0  0  0  0  0  0  0  0
   28.1285   11.6253    5.2744 H   0  0  0  0  0  0  0  0  0  0  0  0
   28.0105   11.3966    3.4836 H   0  0  0  0  0  0  0  0  0  0  0  0
   29.0824   13.8712    4.8889 H   0  0  0  0  0  0  0  0  0  0  0  0
   28.7387   14.8511    2.8611 H   0  0  0  0  0  0  0  0  0  0  0  0
   29.9261   13.7000    2.1600 H   0  0  0  0  0  0  0  0  0  0  0  0
   28.1758   13.2960    2.1600 H   0  0  0  0  0  0  0  0  0  0  0  0
   31.2950   13.2115    4.0280 H   0  0  0  0  0  0  0  0  0  0  0  0
   30.8530   12.6235    7.5632 H   0  0  0  0  0  0  0  0  0  0  0  0
   31.9304   13.4933    6.4190 H   0  0  0  0  0  0  0  0  0  0  0  0
   30.1651   13.8253    6.4190 H   0  0  0  0  0  0  0  0  0  0  0  0
   30.1710   10.4133    3.5723 H   0  0  0  0  0  0  0  0  0  0  0  0
   30.2369   11.6334    2.2457 H   0  0  0  0  0  0  0  0  0  0  0  0
   32.3565   10.6810    4.0132 H   0  0  0  0  0  0  0  0  0  0  0  0
   34.4411   14.1140    2.0790 H   0  0  0  0  0  0  0  0  0  0  0  0
   34.1062   14.8492    3.6769 H   0  0  0  0  0  0  0  0  0  0  0  0
   36.1554   13.6224    4.6054 H   0  0  0  0  0  0  0  0  0  0  0  0
   36.8083   12.0524    3.3400 H   0  0  0  0  0  0  0  0  0  0  0  0
   36.5635   15.3211    2.1378 H   0  0  0  0  0  0  0  0  0  0  0  0
   36.2816   15.8877    3.8540 H   0  0  0  0  0  0  0  0  0  0  0  0
   38.6805   14.1423    3.1269 H   0  0  0  0  0  0  0  0  0  0  0  0
   40.5096   16.2415    4.0187 H   0  0  0  0  0  0  0  0  0  0  0  0
   40.6859   15.3491    2.4697 H   0  0  0  0  0  0  0  0  0  0  0  0
   40.6221   17.1442    2.4697 H   0  0  0  0  0  0  0  0  0  0  0  0
   38.5219   16.1167    5.4694 H   0  0  0  0  0  0  0  0  0  0  0  0
   38.4050   13.0481    5.1807 H   0  0  0  0  0  0  0  0  0  0  0  0
   38.7392   15.0983    7.5976 H   0  0  0  0  0  0  0  0  0  0  0  0
   38.7176   12.0107    7.3693 H   0  0  0  0  0  0  0  0  0  0  0  0
   39.9937   12.7317    9.6146 H   0  0  0  0  0  0  0  0  0  0  0  0
   38.8990   14.1363    9.6867 H   0  0  0  0  0  0  0  0  0  0  0  0
   36.9606   12.3831    9.5353 H   0  0  0  0  0  0  0  0  0  0  0  0
   36.9483   12.1328   13.1597 H   0  0  0  0  0  0  0  0  0  0  0  0
   35.8786   12.6034   11.7954 H   0  0  0  0  0  0  0  0  0  0  0  0
   36.6797   10.9956   11.7954 H   0  0  0  0  0  0  0  0  0  0  0  0
   36.3077   10.4383    8.7576 H   0  0  0  0  0  0  0  0  0  0  0  0
   40.3255    7.5116   10.9283 H   0  0  0  0  0  0  0  0  0  0  0  0
   39.1352    6.5207   10.0555 H   0  0  0  0  0  0  0  0  0  0  0  0
   41.2347    8.3061    8.7819 H   0  0  0  0  0  0  0  0  0  0  0  0
   39.0295    6.7554    7.9418 H   0  0  0  0  0  0  0  0  0  0  0  0
   40.9220    4.6251   10.0320 H   0  0  0  0  0  0  0  0  0  0  0  0
   40.1022    4.9958    8.4773 H   0  0  0  0  0  0  0  0  0  0  0  0
   41.6922    4.1600    8.4773 H   0  0  0  0  0  0  0  0  0  0  0  0
   42.1645    6.3718   11.0606 H   0  0  0  0  0  0  0  0  0  0  0  0
   43.5725    5.8446   10.0775 H   0  0  0  0  0  0  0  0  0  0  0  0
   43.0727    7.5700   10.0775 H   0  0  0  0  0  0  0  0  0  0  0  0
   31.9362    8.5584    3.7630 H   0  0  0  0  0  0  0  0  0  0  0  0
   30.8936    8.5402    2.3003 H   0  0  0  0  0  0  0  0  0  0  0  0
   32.4563    7.6546    2.3003 H   0  0  0  0  0  0  0  0  0  0  0  0
   31.1373   10.4819    0.7513 H   0  0  0  0  0  0  0  0  0  0  0  0
   32.8308   10.6941    0.1912 H   0  0  0  0  0  0  0  0  0  0  0  0
   32.0828    9.0610    0.1912 H   0  0  0  0  0  0  0  0  0  0  0  0
   34.5795   10.6348    1.8372 H   0  0  0  0  0  0  0  0  0  0  0  0
   34.0219    9.8446    4.1347 H   0  0  0  0  0  0  0  0  0  0  0  0
   34.5301    7.6198    1.6281 H   0  0  0  0  0  0  0  0  0  0  0  0
   34.3480    8.7930    0.2375 H   0  0  0  0  0  0  0  0  0  0  0  0
   39.4978    7.9516    1.5752 H   0  0  0  0  0  0  0  0  0  0  0  0
   40.3622    9.5214    0.2118 H   0  0  0  0  0  0  0  0  0  0  0  0
   39.6564    8.0882   -1.3178 H   0  0  0  0  0  0  0  0  0  0  0  0
   38.7140    8.6076   -2.7561 H   0  0  0  0  0  0  0  0  0  0  0  0
   40.5046    8.7504   -2.7561 H   0  0  0  0  0  0  0  0  0  0  0  0
   40.3086   12.0644   -0.2749 H   0  0  0  0  0  0  0  0  0  0  0  0
   38.5124   11.9576    0.0485 H   0  0  0  0  0  0  0  0  0  0  0  0
   39.0105   11.3732    2.4870 H   0  0  0  0  0  0  0  0  0  0  0  0
   41.5766   12.7622    1.4443 H   0  0  0  0  0  0  0  0  0  0  0  0
   40.3039   12.2360    4.3255 H   0  0  0  0  0  0  0  0  0  0  0  0
   42.8975   13.5234    3.2708 H   0  0  0  0  0  0  0  0  0  0  0  0
   41.4790   13.3130    6.0761 H   0  0  0  0  0  0  0  0  0  0  0  0
   42.6951   15.0676    7.5618 H   0  0  0  0  0  0  0  0  0  0  0  0
   42.7454   16.5439    6.5397 H   0  0  0  0  0  0  0  0  0  0  0  0
   41.2829   15.5009    6.5397 H   0  0  0  0  0  0  0  0  0  0  0  0
   44.2231   12.2685    5.5438 H   0  0  0  0  0  0  0  0  0  0  0  0
   43.4462   12.6224    7.1589 H   0  0  0  0  0  0  0  0  0  0  0  0
   42.2682   10.7185    5.1155 H   0  0  0  0  0  0  0  0  0  0  0  0
   41.8504   10.8856    7.9787 H   0  0  0  0  0  0  0  0  0  0  0  0
   44.5212    9.9216    5.8477 H   0  0  0  0  0  0  0  0  0  0  0  0
   43.9914   10.1092    7.5758 H   0  0  0  0  0  0  0  0  0  0  0  0
   41.9884    6.1654    6.7901 H   0  0  0  0  0  0  0  0  0  0  0  0
   44.3807    5.3142    8.4218 H   0  0  0  0  0  0  0  0  0  0  0  0
   43.2746    4.3013    7.4081 H   0  0  0  0  0  0  0  0  0  0  0  0
   44.9891    6.5924    6.2593 H   0  0  0  0  0  0  0  0  0  0  0  0
   45.1480    6.3180    3.9726 H   0  0  0  0  0  0  0  0  0  0  0  0
   44.5583    4.7531    3.3169 H   0  0  0  0  0  0  0  0  0  0  0  0
   43.4805    6.1901    3.3169 H   0  0  0  0  0  0  0  0  0  0  0  0
   46.4433    4.8834    5.3382 H   0  0  0  0  0  0  0  0  0  0  0  0
   46.2672    4.8914    8.4063 H   0  0  0  0  0  0  0  0  0  0  0  0
   47.7497    4.6480    7.4216 H   0  0  0  0  0  0  0  0  0  0  0  0
   46.9233    6.2429    7.4216 H   0  0  0  0  0  0  0  0  0  0  0  0
   45.3378    2.9636    7.3906 H   0  0  0  0  0  0  0  0  0  0  0  0
   44.8756    2.9678    5.6367 H   0  0  0  0  0  0  0  0  0  0  0  0
   47.1942    2.6579    5.0018 H   0  0  0  0  0  0  0  0  0  0  0  0
   47.6594    2.6755    6.7713 H   0  0  0  0  0  0  0  0  0  0  0  0
   48.7778    0.6340    5.7033 H   0  0  0  0  0  0  0  0  0  0  0  0
   47.2310   -1.7426    4.7787 H   0  0  0  0  0  0  0  0  0  0  0  0
   46.8346   -0.1974    3.9530 H   0  0  0  0  0  0  0  0  0  0  0  0
   48.5239   -0.8080    3.9530 H   0  0  0  0  0  0  0  0  0  0  0  0
   47.3244   -1.6853    7.0247 H   0  0  0  0  0  0  0  0  0  0  0  0
   48.0772   -0.4121   10.3243 H   0  0  0  0  0  0  0  0  0  0  0  0
   47.1806   -1.6902    9.4358 H   0  0  0  0  0  0  0  0  0  0  0  0
   48.9769   -1.6880    9.4358 H   0  0  0  0  0  0  0  0  0  0  0  0
   49.6367   -2.3029    7.6917 H   0  0  0  0  0  0  0  0  0  0  0  0
   49.2578   -2.3729    5.8987 H   0  0  0  0  0  0  0  0  0  0  0  0
   50.9861   -0.1331    7.1967 H   0  0  0  0  0  0  0  0  0  0  0  0
   50.9585   -1.7494    4.5483 H   0  0  0  0  0  0  0  0  0  0  0  0
   52.6522    0.2933    6.9694 H   0  0  0  0  0  0  0  0  0  0  0  0
   53.9233    0.8100    5.8101 H   0  0  0  0  0  0  0  0  0  0  0  0
   52.3226    1.6252    5.8101 H   0  0  0  0  0  0  0  0  0  0  0  0
   52.5037   -1.1823    3.1392 H   0  0  0  0  0  0  0  0  0  0  0  0
  1  2  2  0
  2  3  1  0
  3  4  1  0
  3  5  1  0
  5  6  2  0
  6  7  1  0
  7  8  1  0
  8  9  1  0
  8 11  1  0
  9 10  1  0
 11 12  1  0
 11 13  1  0
 13 14  2  0
 13 15  1  0
 15 16  1  0
 16 17  1  0
 17 18  1  0
 17 19  1  0
 19 20  1  0
 19 22  1  0
 20 21  1  0
 22 23  1  0
 23 24  1  0
 23 53  1  0
 24 25  1  0
 25 26  2  0
 25 27  1  0
 27 28  1  0
 28 29  1  0
 28 30  1  0
 30 31  1  0
 31 32  1  0
 31 34  1  0
 32 33  1  0
 34 35  2  0
 35 36  1  0
 36 37  2  0
 37 38  1  0
 38 39  1  0
 39 40  1  0
 39 42  1  0
 40 41  1  0
 42 43  1  0
 42 44  2  0
 43 46  2  0
 44 45  1  0
 45 46  1  0
 46 47  1  0
 47 48  1  0
 48 49  1  0
 48 50  1  0
 50 51  1  0
 50 52  1  0
 50 82  1  0
 53 54  1  0
 53 55  1  0
 53 56  1  0
 56 57  1  0
 56 58  1  0
 58 59  1  0
 59 60  1  0
 59 62  2  0
 60 61  1  0
 61 63  2  0
 62 63  1  0
 63 64  1  0
 64 65  1  0
 64 67  1  0
 65 66  1  0
 67 68  1  0
 68 69  2  0
 69 70  1  0
 70 71  2  0
 71 72  1  0
 72 73  1  0
 72 75  1  0
 73 74  1  0
 75 76  1  0
 76 77  1  0
 76 78  1  0
 78 79  1  0
 79 80  2  0
 79 81  1  0
 81 82  1  0
 82 83  1  0
 83 84  1  0
 84 85  1  0
 84 87  1  0
 85 86  1  0
 87 88  1  0
 87 89  1  0
 89 90  1  0
 90 91  1  0
 91 92  2  0
 91 93  1  0
 93 94  1  0
 93 95  1  0
 95 96  1  0
 95 98  1  0
 96 97  1  0
 98 99  1  0
 99100  2  0
100101  1  0
101102  1  0
101103  1  0
103104  2  0
  2105  1  0
  4106  1  0
  4107  1  0
  4108  1  0
  5109  1  0
  6110  1  0
  7111  1  0
  7112  1  0
  8113  1  0
 10114  1  0
 10115  1  0
 10116  1  0
 11117  1  0
 12118  1  0
 12119  1  0
 12120  1  0
 15121  1  0
 15122  1  0
 16123  1  0
 16124  1  0
 17125  1  0
 18126  1  0
 18127  1  0
 18128  1  0
 19129  1  0
 21130  1  0
 21131  1  0
 21132  1  0
 22133  1  0
 22134  1  0
 23135  1  0
 27136  1  0
 27137  1  0
 28138  1  0
 29139  1  0
 30140  1  0
 30141  1  0
 31142  1  0
 33143  1  0
 33144  1  0
 33145  1  0
 34146  1  0
 35147  1  0
 36148  1  0
 37149  1  0
 38150  1  0
 38151  1  0
 39152  1  0
 41153  1  0
 41154  1  0
 41155  1  0
 44156  1  0
 47157  1  0
 47158  1  0
 48159  1  0
 49160  1  0
 51161  1  0
 51162  1  0
 51163  1  0
 52164  1  0
 52165  1  0
 52166  1  0
 54167  1  0
 54168  1  0
 54169  1  0
 55170  1  0
 55171  1  0
 55172  1  0
 56173  1  0
 57174  1  0
 58175  1  0
 58176  1  0
 61177  1  0
 64178  1  0
 66179  1  0
 66180  1  0
 66181  1  0
 67182  1  0
 67183  1  0
 68184  1  0
 69185  1  0
 70186  1  0
 71187  1  0
 72188  1  0
 74189  1  0
 74190  1  0
 74191  1  0
 75192  1  0
 75193  1  0
 76194  1  0
 77195  1  0
 78196  1  0
 78197  1  0
 82198  1  0
 83199  1  0
 83200  1  0
 84201  1  0
 86202  1  0
 86203  1  0
 86204  1  0
 87205  1  0
 88206  1  0
 88207  1  0
 88208  1  0
 89209  1  0
 89210  1  0
 90211  1  0
 90212  1  0
 93213  1  0
 94214  1  0
 94215  1  0
 94216  1  0
 95217  1  0
 97218  1  0
 97219  1  0
 97220  1  0
 98221  1  0
 98222  1  0
 99223  1  0
100224  1  0
102225  1  0
102226  1  0
102227  1  0
103228  1  0
A    1
O69
A    2
C69
A    3
N68
A    4
C78
A    5
C68
A    6
C67
A    7
C66
A    8
C65
A    9
O65
A   10
C77
A   11
C64
A   12
C76
A   13
C63
A   14
O63
A   15
C62
A   16
C61
A   17
C60
A   18
C75
A   19
C59
A   20
O59
A   21
C74
A   22
C58
A   23
C57
A   24
O58
A   25
C1
A   26
O1
A   27
C2
A   28
C3
A   29
O3
A   30
C4
A   31
C5
A   32
O5
A   33
C31
A   34
C6
A   35
C7
A   36
C8
A   37
C9
A   38
C10
A   39
C11
A   40
O11
A   41
C32
A   42
C12
A   43
N12
A   44
C13
A   45
O13
A   46
C14
A   47
C15
A   48
C16
A   49
O16
A   50
C17
A   51
C33
A   52
C34
A   53
C56
A   54
C73
A   55
C72
A   56
C55
A   57
O55
A   58
C54
A   59
C53
A   60
O52
A   61
C52
A   62
N51
A   63
C51
A   64
C50
A   65
O50
A   66
C71
A   67
C49
A   68
C48
A   69
C47
A   70
C46
A   71
C45
A   72
C44
A   73
O44
A   74
C70
A   75
C43
A   76
C42
A   77
O42
A   78
C41
A   79
C40
A   80
O40
A   81
O18
A   82
C18
A   83
C19
A   84
C20
A   85
O20
A   86
C35
A   87
C21
A   88
C36
A   89
C22
A   90
C23
A   91
C24
A   92
O24
A   93
C25
A   94
C37
A   95
C26
A   96
O26
A   97
C38
A   98
C27
A   99
C28
A  100
C29
A  101
N29
A  102
C39
A  103
C30
A  104
O30
M  END
