2VZQ_UNF_A_1128
     RDKit          3D

 40 41  0  0  0  0  0  0  0  0999 V2000
   -2.8500    2.7460   54.3950 C   0  0  0  0  0  0  0  0  0  0  0  0
   -1.6100    3.4720   53.8660 C   0  0  0  0  0  0  0  0  0  0  0  0
   -1.7760    3.8500   52.3720 C   0  0  0  0  0  0  0  0  0  0  0  0
   -2.1650    2.6420   51.5310 C   0  0  0  0  0  0  0  0  0  0  0  0
   -2.6870    1.4800   52.3400 C   0  0  0  0  0  0  0  0  0  0  0  0
   -3.0330    0.1700   51.6610 C   0  0  0  0  0  0  0  0  0  0  0  0
   -3.9800    3.5800   54.0730 O   0  0  0  0  0  0  0  0  0  0  0  0
   -1.4080    4.6620   54.6140 O   0  0  0  0  0  0  0  0  0  0  0  0
   -0.5450    4.3550   51.8530 O   0  0  0  0  0  0  0  0  0  0  0  0
   -2.9030    1.4950   53.6960 O   0  0  0  0  0  0  0  0  0  0  0  0
   -2.9040    0.0280   50.4280 O   0  0  0  0  0  0  0  0  0  0  0  0
   -7.0190    5.5590   53.5500 C   0  0  0  0  0  0  0  0  0  0  0  0
   -6.4270    4.5870   52.5010 C   0  0  0  0  0  0  0  0  0  0  0  0
   -6.2570    3.1450   53.0890 C   0  0  0  0  0  0  0  0  0  0  0  0
   -5.3790    3.1610   54.3540 C   0  0  0  0  0  0  0  0  0  0  0  0
   -5.9460    4.2390   55.3240 C   0  0  0  0  0  0  0  0  0  0  0  0
   -5.0100    4.4440   56.5130 C   0  0  0  0  0  0  0  0  0  0  0  0
   -7.2330    6.8690   52.9600 O   0  0  0  0  0  0  0  0  0  0  0  0
   -7.2370    4.6310   51.3350 O   0  0  0  0  0  0  0  0  0  0  0  0
   -5.7080    2.2310   52.0930 O   0  0  0  0  0  0  0  0  0  0  0  0
   -6.1190    5.5710   54.7100 O   0  0  0  0  0  0  0  0  0  0  0  0
   -4.7190    3.4470   57.2260 O   0  0  0  0  0  0  0  0  0  0  0  0
   -4.5730    5.6100   56.6790 O   0  0  0  0  0  0  0  0  0  0  0  0
   -3.4180   -0.7300   52.4420 O   0  0  0  0  0  0  0  0  0  0  0  0
   -2.8383    2.5607   55.4792 H   0  0  0  0  0  0  0  0  0  0  0  0
   -0.7483    2.7960   53.9679 H   0  0  0  0  0  0  0  0  0  0  0  0
   -2.5693    4.6102   52.3185 H   0  0  0  0  0  0  0  0  0  0  0  0
   -2.0740    2.6184   50.4350 H   0  0  0  0  0  0  0  0  0  0  0  0
   -1.4433    4.4538   55.5812 H   0  0  0  0  0  0  0  0  0  0  0  0
    0.0532    4.6004   52.6027 H   0  0  0  0  0  0  0  0  0  0  0  0
   -8.0106    5.2293   53.8936 H   0  0  0  0  0  0  0  0  0  0  0  0
   -5.4108    4.9018   52.2215 H   0  0  0  0  0  0  0  0  0  0  0  0
   -7.2563    2.7819   53.3711 H   0  0  0  0  0  0  0  0  0  0  0  0
   -5.3858    2.1404   54.7643 H   0  0  0  0  0  0  0  0  0  0  0  0
   -6.9294    3.8458   55.6214 H   0  0  0  0  0  0  0  0  0  0  0  0
   -7.3427    7.5408   53.6789 H   0  0  0  0  0  0  0  0  0  0  0  0
   -8.1903    4.6828   51.5972 H   0  0  0  0  0  0  0  0  0  0  0  0
   -5.2558    1.4781   52.5498 H   0  0  0  0  0  0  0  0  0  0  0  0
   -4.7406    3.5211   58.2130 H   0  0  0  0  0  0  0  0  0  0  0  0
   -3.3599   -0.5941   53.4209 H   0  0  0  0  0  0  0  0  0  0  0  0
  1  2  1  0
  1  7  1  0
  1 10  1  0
  2  3  1  0
  2  8  1  0
  3  4  1  0
  3  9  1  0
  4  5  2  0
  5  6  1  0
  5 10  1  0
  6 11  2  0
  6 24  1  0
  7 15  1  0
 12 13  1  0
 12 18  1  0
 12 21  1  0
 13 14  1  0
 13 19  1  0
 14 15  1  0
 14 20  1  0
 15 16  1  0
 16 17  1  0
 16 21  1  0
 17 22  1  0
 17 23  2  0
  1 25  1  0
  2 26  1  0
  3 27  1  0
  4 28  1  0
  8 29  1  0
  9 30  1  0
 12 31  1  0
 13 32  1  0
 14 33  1  0
 15 34  1  0
 16 35  1  0
 18 36  1  0
 19 37  1  0
 20 38  1  0
 22 39  1  0
 24 40  1  0
A    1
C1
A    2
C2
A    3
C3
A    4
C4
A    5
C5
A    6
C6
A    7
O1
A    8
O2
A    9
O3
A   10
O5
A   11
O6
A   12
C1'
A   13
C2'
A   14
C3'
A   15
C4'
A   16
C5'
A   17
C6'
A   18
O1'
A   19
O2'
A   20
O3'
A   21
O5'
A   22
O6'
A   23
OAC
A   24
OAN
M  END
