2W06_FRV_A_1300
     RDKit          3D

 47 50  0  0  0  0  0  0  0  0999 V2000
    4.8570   29.1990    6.0270 C   0  0  0  0  0  0  0  0  0  0  0  0
   -1.4650   29.7980   10.6100 N   0  0  0  0  0  0  0  0  0  0  0  0
   -2.6740   30.6740   10.7880 C   0  0  0  0  0  0  0  0  0  0  0  0
   -1.3900   28.5640   11.2680 C   0  0  0  0  0  0  0  0  0  0  0  0
   -2.4390   27.9550   12.1840 C   0  0  0  0  0  0  0  0  0  0  0  0
   -3.3230   31.2010    9.5000 C   0  0  0  0  0  0  0  0  0  0  0  0
   -0.0590   32.2630    8.9010 C   0  0  0  0  0  0  0  0  0  0  0  0
    0.3340   30.9190    9.0050 C   0  0  0  0  0  0  0  0  0  0  0  0
   -0.2630   29.9100    9.9010 C   0  0  0  0  0  0  0  0  0  0  0  0
    0.4340   28.7370   10.1680 C   0  0  0  0  0  0  0  0  0  0  0  0
    0.6460   33.1060    8.0000 C   0  0  0  0  0  0  0  0  0  0  0  0
    3.8290   29.5840    6.9050 C   0  0  0  0  0  0  0  0  0  0  0  0
    2.0660   31.3000    7.3620 C   0  0  0  0  0  0  0  0  0  0  0  0
    1.3780   30.5030    8.2340 N   0  0  0  0  0  0  0  0  0  0  0  0
    4.5840   23.8680    7.7490 C   0  0  0  0  0  0  0  0  0  0  0  0
    3.5800   28.7730    8.0690 C   0  0  0  0  0  0  0  0  0  0  0  0
    4.3620   27.6270    8.3170 C   0  0  0  0  0  0  0  0  0  0  0  0
    5.4010   27.2700    7.4120 C   0  0  0  0  0  0  0  0  0  0  0  0
    6.8320   25.3280    6.4470 O   0  0  0  0  0  0  0  0  0  0  0  0
    6.3720   25.8750    7.7030 S   0  0  0  0  0  0  0  0  0  0  0  0
    7.5070   26.2770    8.5100 O   0  0  0  0  0  0  0  0  0  0  0  0
    5.4520   24.6480    8.5960 N   0  0  0  0  0  0  0  0  0  0  0  0
    5.6390   28.0530    6.2750 C   0  0  0  0  0  0  0  0  0  0  0  0
    3.0800   30.7470    6.6460 N   0  0  0  0  0  0  0  0  0  0  0  0
    1.6730   32.5920    7.2770 N   0  0  0  0  0  0  0  0  0  0  0  0
   -0.2780   27.9560   10.9970 N   0  0  0  0  0  0  0  0  0  0  0  0
   -2.9320   32.1450   10.6420 C   0  0  0  0  0  0  0  0  0  0  0  0
    5.0548   29.8035    5.1295 H   0  0  0  0  0  0  0  0  0  0  0  0
   -2.8505   30.0498   11.6764 H   0  0  0  0  0  0  0  0  0  0  0  0
   -2.1515   28.1219   13.2326 H   0  0  0  0  0  0  0  0  0  0  0  0
   -3.4132   28.4279   11.9912 H   0  0  0  0  0  0  0  0  0  0  0  0
   -2.5114   26.8745   11.9912 H   0  0  0  0  0  0  0  0  0  0  0  0
   -2.7566   31.2079    8.5571 H   0  0  0  0  0  0  0  0  0  0  0  0
   -4.2441   30.9854    8.9387 H   0  0  0  0  0  0  0  0  0  0  0  0
   -0.8927   32.6540    9.5026 H   0  0  0  0  0  0  0  0  0  0  0  0
    1.4240   28.4853    9.7599 H   0  0  0  0  0  0  0  0  0  0  0  0
    0.3625   34.1631    7.8899 H   0  0  0  0  0  0  0  0  0  0  0  0
    3.9102   23.2625    8.3729 H   0  0  0  0  0  0  0  0  0  0  0  0
    3.9895   24.5413    7.1140 H   0  0  0  0  0  0  0  0  0  0  0  0
    5.1902   23.2052    7.1140 H   0  0  0  0  0  0  0  0  0  0  0  0
    2.7762   29.0492    8.7673 H   0  0  0  0  0  0  0  0  0  0  0  0
    4.1699   27.0103    9.2074 H   0  0  0  0  0  0  0  0  0  0  0  0
    6.1167   24.0121    9.0594 H   0  0  0  0  0  0  0  0  0  0  0  0
    6.4386   27.7725    5.5736 H   0  0  0  0  0  0  0  0  0  0  0  0
    3.3385   31.2536    5.7873 H   0  0  0  0  0  0  0  0  0  0  0  0
   -3.7145   32.6265   11.2468 H   0  0  0  0  0  0  0  0  0  0  0  0
   -2.3114   33.0499   10.7186 H   0  0  0  0  0  0  0  0  0  0  0  0
  8 14  1  0
  8  7  2  0
  8  9  1  0
 14 13  2  0
 13 25  1  0
 13 24  1  0
 25 11  2  0
 11  7  1  0
 24 12  1  0
 12 16  1  0
 12  1  2  0
 16 17  2  0
 17 18  1  0
 18 23  2  0
 18 20  1  0
 23  1  1  0
 20 22  1  0
 20 21  2  0
 20 19  2  0
 22 15  1  0
  9  2  1  0
  9 10  2  0
  2  4  1  0
  2  3  1  0
  4 26  2  0
  4  5  1  0
 26 10  1  0
  3  6  1  0
  3 27  1  0
  6 27  1  0
  1 28  1  0
  3 29  1  0
  5 30  1  0
  5 31  1  0
  5 32  1  0
  6 33  1  0
  6 34  1  0
  7 35  1  0
 10 36  1  0
 11 37  1  0
 15 38  1  0
 15 39  1  0
 15 40  1  0
 16 41  1  0
 17 42  1  0
 22 43  1  0
 23 44  1  0
 24 45  1  0
 27 46  1  0
 27 47  1  0
A    1
C13
A    2
N21
A    3
C25
A    4
C22
A    5
C28
A    6
C26
A    7
C6
A    8
C1
A    9
C20
A   10
C24
A   11
C5
A   12
C8
A   13
C3
A   14
N2
A   15
C16
A   16
C9
A   17
C10
A   18
C11
A   19
O30
A   20
S14
A   21
O29
A   22
N15
A   23
C12
A   24
N7
A   25
N4
A   26
N23
A   27
C30
M  END
