1LC7_TPO_A_990
     RDKit          3D

 22 21  0  0  0  0  0  0  0  0999 V2000
   26.1790   28.3590   14.7710 N   0  0  0  0  0  0  0  0  0  0  0  0
   26.7250   27.0370   15.0820 C   0  0  0  0  0  0  0  0  0  0  0  0
   27.9520   27.2750   16.0010 C   0  0  0  0  0  0  0  0  0  0  0  0
   29.1520   26.4660   15.5420 C   0  0  0  0  0  0  0  0  0  0  0  0
   28.3420   28.6180   15.9530 O   0  0  0  0  0  0  0  0  0  0  0  0
   28.0330   29.5020   17.2830 P   0  0  0  0  0  0  0  0  0  0  0  0
   28.6980   30.9210   17.0330 O   0  0  0  0  0  0  0  0  0  0  0  0
   28.6670   28.7220   18.5180 O   0  0  0  0  0  0  0  0  0  0  0  0
   26.4710   29.6000   17.3430 O   0  0  0  0  0  0  0  0  0  0  0  0
   25.7420   26.1980   15.8620 C   0  0  0  0  0  0  0  0  0  0  0  0
   26.0240   24.9670   16.0610 O   0  0  0  0  0  0  0  0  0  0  0  0
   24.6620   26.7070   16.3410 O   0  0  0  0  0  0  0  0  0  0  0  0
   25.9722   28.8598   15.6470 H   0  0  0  0  0  0  0  0  0  0  0  0
   26.8676   28.8948   14.2236 H   0  0  0  0  0  0  0  0  0  0  0  0
   26.9687   26.5140   14.1455 H   0  0  0  0  0  0  0  0  0  0  0  0
   27.6483   26.9764   17.0152 H   0  0  0  0  0  0  0  0  0  0  0  0
   29.7018   26.0954   16.4197 H   0  0  0  0  0  0  0  0  0  0  0  0
   28.8098   25.6135   14.9369 H   0  0  0  0  0  0  0  0  0  0  0  0
   29.8139   27.1030   14.9369 H   0  0  0  0  0  0  0  0  0  0  0  0
   28.3418   29.1221   19.3631 H   0  0  0  0  0  0  0  0  0  0  0  0
   26.1776   29.6184   18.2883 H   0  0  0  0  0  0  0  0  0  0  0  0
   24.5352   26.7668   17.3210 H   0  0  0  0  0  0  0  0  0  0  0  0
  1  2  1  0
  2  3  1  0
  2 10  1  0
  3  4  1  0
  3  5  1  0
  5  6  1  0
  6  7  2  0
  6  8  1  0
  6  9  1  0
 10 11  2  0
 10 12  1  0
  1 13  1  0
  1 14  1  0
  2 15  1  0
  3 16  1  0
  4 17  1  0
  4 18  1  0
  4 19  1  0
  8 20  1  0
  9 21  1  0
 12 22  1  0
A    1
N
A    2
CA
A    3
CB
A    4
CG2
A    5
OG1
A    6
P
A    7
O1P
A    8
O2P
A    9
O3P
A   10
C
A   11
O
A   12
OXT
M  END
