2W0J_ZAT_A_1511
     RDKit          3D

 54 55  0  0  0  0  0  0  0  0999 V2000
   41.4160  -28.0480   -0.1660 N   0  0  0  0  0  0  0  0  0  0  0  0
   40.8920  -28.4310    1.0040 C   0  0  0  0  0  0  0  0  0  0  0  0
   40.3830  -27.5060    1.8270 N   0  0  0  0  0  0  0  0  0  0  0  0
   40.9140  -29.7350    1.3350 N   0  0  0  0  0  0  0  0  0  0  0  0
   40.4600  -30.0950    2.4220 N   0  0  0  0  0  0  0  0  0  0  0  0
   40.4070  -31.3320    2.9090 C   0  0  0  0  0  0  0  0  0  0  0  0
   40.8990  -32.5410    2.1060 C   0  0  0  0  0  0  0  0  0  0  0  0
   39.7360  -31.4320    4.1260 C   0  0  0  0  0  0  0  0  0  0  0  0
   39.8940  -30.4400    5.0910 C   0  0  0  0  0  0  0  0  0  0  0  0
   39.1810  -30.5170    6.2820 C   0  0  0  0  0  0  0  0  0  0  0  0
   38.8260  -32.4690    4.3510 C   0  0  0  0  0  0  0  0  0  0  0  0
   38.1120  -32.5600    5.5470 C   0  0  0  0  0  0  0  0  0  0  0  0
   38.2880  -31.5780    6.5210 C   0  0  0  0  0  0  0  0  0  0  0  0
   37.6450  -31.5640    7.7030 N   0  0  0  0  0  0  0  0  0  0  0  0
   37.0690  -32.6010    8.3470 C   0  0  0  0  0  0  0  0  0  0  0  0
   37.0270  -33.7560    7.8750 O   0  0  0  0  0  0  0  0  0  0  0  0
   36.5040  -32.2210    9.5300 N   0  0  0  0  0  0  0  0  0  0  0  0
   35.9090  -33.0090   10.4710 C   0  0  0  0  0  0  0  0  0  0  0  0
   35.5810  -34.3670   10.3280 C   0  0  0  0  0  0  0  0  0  0  0  0
   34.9960  -35.0630   11.3890 C   0  0  0  0  0  0  0  0  0  0  0  0
   35.6410  -32.3940   11.6970 C   0  0  0  0  0  0  0  0  0  0  0  0
   35.0630  -33.0910   12.7560 C   0  0  0  0  0  0  0  0  0  0  0  0
   34.7180  -34.4390   12.6210 C   0  0  0  0  0  0  0  0  0  0  0  0
   34.1270  -35.1110   13.7320 C   0  0  0  0  0  0  0  0  0  0  0  0
   33.3300  -36.4180   13.6250 C   0  0  0  0  0  0  0  0  0  0  0  0
   34.3360  -34.5680   14.9360 N   0  0  0  0  0  0  0  0  0  0  0  0
   33.9460  -35.0110   16.0280 N   0  0  0  0  0  0  0  0  0  0  0  0
   34.2300  -34.3560   17.1740 C   0  0  0  0  0  0  0  0  0  0  0  0
   33.7910  -34.7870   18.3390 N   0  0  0  0  0  0  0  0  0  0  0  0
   34.9560  -33.2450   17.1820 N   0  0  0  0  0  0  0  0  0  0  0  0
   41.8108  -28.7501   -0.8080 H   0  0  0  0  0  0  0  0  0  0  0  0
   40.4516  -27.6306    2.8471 H   0  0  0  0  0  0  0  0  0  0  0  0
   39.9228  -26.6697    1.4401 H   0  0  0  0  0  0  0  0  0  0  0  0
   41.3082  -30.4282    0.6832 H   0  0  0  0  0  0  0  0  0  0  0  0
   41.2215  -33.3336    2.7972 H   0  0  0  0  0  0  0  0  0  0  0  0
   40.0824  -32.9171    1.4722 H   0  0  0  0  0  0  0  0  0  0  0  0
   41.7462  -32.2401    1.4722 H   0  0  0  0  0  0  0  0  0  0  0  0
   40.5801  -29.5991    4.9114 H   0  0  0  0  0  0  0  0  0  0  0  0
   39.3166  -29.7386    7.0473 H   0  0  0  0  0  0  0  0  0  0  0  0
   38.6695  -33.2281    3.5704 H   0  0  0  0  0  0  0  0  0  0  0  0
   37.4187  -33.3965    5.7190 H   0  0  0  0  0  0  0  0  0  0  0  0
   37.5850  -30.6500    8.1740 H   0  0  0  0  0  0  0  0  0  0  0  0
   36.5303  -31.2126    9.7382 H   0  0  0  0  0  0  0  0  0  0  0  0
   35.7851  -34.8839    9.3787 H   0  0  0  0  0  0  0  0  0  0  0  0
   34.7459  -36.1263   11.2588 H   0  0  0  0  0  0  0  0  0  0  0  0
   35.8931  -31.3315   11.8294 H   0  0  0  0  0  0  0  0  0  0  0  0
   34.8760  -32.5747   13.7091 H   0  0  0  0  0  0  0  0  0  0  0  0
   33.1019  -36.7920   14.6340 H   0  0  0  0  0  0  0  0  0  0  0  0
   32.3916  -36.2318   13.0821 H   0  0  0  0  0  0  0  0  0  0  0  0
   33.9252  -37.1670   13.0821 H   0  0  0  0  0  0  0  0  0  0  0  0
   33.4017  -35.8848   16.0601 H   0  0  0  0  0  0  0  0  0  0  0  0
   34.0211  -34.2698   19.1995 H   0  0  0  0  0  0  0  0  0  0  0  0
   35.2348  -32.8184   18.0771 H   0  0  0  0  0  0  0  0  0  0  0  0
   35.2407  -32.8094   16.2931 H   0  0  0  0  0  0  0  0  0  0  0  0
  1  2  2  3
  2  3  1  0
  2  4  1  0
  4  5  1  0
  5  6  2  0
  6  7  1  0
  6  8  1  0
  8  9  2  0
  8 11  1  0
  9 10  1  0
 10 13  2  0
 11 12  2  0
 12 13  1  0
 13 14  1  0
 14 15  1  0
 15 16  2  0
 15 17  1  0
 17 18  1  0
 18 19  2  0
 18 21  1  0
 19 20  1  0
 20 23  2  0
 21 22  2  0
 22 23  1  0
 23 24  1  0
 24 25  1  0
 24 26  2  0
 26 27  1  0
 27 28  1  0
 28 29  2  3
 28 30  1  0
  1 31  1  0
  3 32  1  0
  3 33  1  0
  4 34  1  0
  7 35  1  0
  7 36  1  0
  7 37  1  0
  9 38  1  0
 10 39  1  0
 11 40  1  0
 12 41  1  0
 14 42  1  0
 17 43  1  0
 19 44  1  0
 20 45  1  0
 21 46  1  0
 22 47  1  0
 25 48  1  0
 25 49  1  0
 25 50  1  0
 27 51  1  0
 29 52  1  0
 30 53  1  0
 30 54  1  0
A    1
NAA
A    2
CAK
A    3
NAB
A    4
NAC
A    5
NAD
A    6
CAL
A    7
CAM
A    8
CAN
A    9
CAS
A   10
CAR
A   11
CAO
A   12
CAP
A   13
CAQ
A   14
NAE
A   15
CAT
A   16
OBD
A   17
NAF
A   18
CAU
A   19
CAZ
A   20
CAY
A   21
CAV
A   22
CAW
A   23
CAX
A   24
CBA
A   25
CBB
A   26
NAG
A   27
NAH
A   28
CBC
A   29
NAJ
A   30
NAI
M  END
