2W0V_LZR_A_1454
     RDKit          3D

 59 64  0  0  0  0  0  0  0  0999 V2000
   75.8470   34.4880   38.7410 O   0  0  0  0  0  0  0  0  0  0  0  0
   76.7180   34.9680   39.4930 C   0  0  0  0  0  0  0  0  0  0  0  0
   76.4920   35.0350   40.8910 N   0  0  0  0  0  0  0  0  0  0  0  0
   75.2280   34.5550   41.4720 C   0  0  0  0  0  0  0  0  0  0  0  0
   74.2400   35.7030   41.5300 C   0  0  0  0  0  0  0  0  0  0  0  0
   73.5140   35.6620   42.6630 C   0  0  0  0  0  0  0  0  0  0  0  0
   74.4860   36.4890   42.6790 C   0  0  0  0  0  0  0  0  0  0  0  0
   77.4190   35.5480   41.7180 C   0  0  0  0  0  0  0  0  0  0  0  0
   78.6390   36.0290   41.2520 C   0  0  0  0  0  0  0  0  0  0  0  0
   78.9320   35.9980   39.8950 C   0  0  0  0  0  0  0  0  0  0  0  0
   77.9160   35.4350   38.9640 C   0  0  0  0  0  0  0  0  0  0  0  0
   78.2030   35.3900   37.4780 C   0  0  0  0  0  0  0  0  0  0  0  0
   80.2600   36.5290   39.3950 C   0  0  0  0  0  0  0  0  0  0  0  0
   80.4070   36.3030   37.9590 N   0  0  0  0  0  0  0  0  0  0  0  0
   79.2200   36.4700   37.1200 C   0  0  0  0  0  0  0  0  0  0  0  0
   81.5840   35.8400   37.4470 C   0  0  0  0  0  0  0  0  0  0  0  0
   81.7980   35.8160   36.1090 N   0  0  0  0  0  0  0  0  0  0  0  0
   82.9610   35.3680   35.5850 C   0  0  0  0  0  0  0  0  0  0  0  0
   83.9640   34.9200   36.4320 C   0  0  0  0  0  0  0  0  0  0  0  0
   85.1620   34.4560   35.8870 C   0  0  0  0  0  0  0  0  0  0  0  0
   83.7350   34.9490   37.8030 C   0  0  0  0  0  0  0  0  0  0  0  0
   84.6450   34.5250   38.6690 O   0  0  0  0  0  0  0  0  0  0  0  0
   82.5580   35.4080   38.2810 N   0  0  0  0  0  0  0  0  0  0  0  0
   83.1550   35.3620   34.2050 C   0  0  0  0  0  0  0  0  0  0  0  0
   84.3470   34.8970   33.6570 C   0  0  0  0  0  0  0  0  0  0  0  0
   84.5470   34.8830   32.2970 O   0  0  0  0  0  0  0  0  0  0  0  0
   83.5080   34.5490   31.3760 C   0  0  0  0  0  0  0  0  0  0  0  0
   85.3490   34.4500   34.5020 C   0  0  0  0  0  0  0  0  0  0  0  0
   86.5180   33.9850   33.9640 O   0  0  0  0  0  0  0  0  0  0  0  0
   87.6060   34.8670   33.7000 C   0  0  0  0  0  0  0  0  0  0  0  0
   88.3690   35.1920   34.9760 C   0  0  0  0  0  0  0  0  0  0  0  0
   89.5830   34.5980   35.0160 C   0  0  0  0  0  0  0  0  0  0  0  0
   88.6810   34.0200   35.7030 C   0  0  0  0  0  0  0  0  0  0  0  0
   74.8184   33.7480   40.8467 H   0  0  0  0  0  0  0  0  0  0  0  0
   75.4093   34.1711   42.4868 H   0  0  0  0  0  0  0  0  0  0  0  0
   74.0498   35.8569   40.4575 H   0  0  0  0  0  0  0  0  0  0  0  0
   72.4837   36.0473   42.6526 H   0  0  0  0  0  0  0  0  0  0  0  0
   73.2229   34.8398   43.3332 H   0  0  0  0  0  0  0  0  0  0  0  0
   75.3687   36.2891   43.3042 H   0  0  0  0  0  0  0  0  0  0  0  0
   74.5894   37.5658   42.8787 H   0  0  0  0  0  0  0  0  0  0  0  0
   77.2068   35.5890   42.7966 H   0  0  0  0  0  0  0  0  0  0  0  0
   79.3745   36.4355   41.9618 H   0  0  0  0  0  0  0  0  0  0  0  0
   78.6091   34.4026   37.2133 H   0  0  0  0  0  0  0  0  0  0  0  0
   77.2713   35.5665   36.9205 H   0  0  0  0  0  0  0  0  0  0  0  0
   80.3145   37.6090   39.5966 H   0  0  0  0  0  0  0  0  0  0  0  0
   81.0691   35.9981   39.9180 H   0  0  0  0  0  0  0  0  0  0  0  0
   79.5008   36.3756   36.0606 H   0  0  0  0  0  0  0  0  0  0  0  0
   78.7816   37.4645   37.2899 H   0  0  0  0  0  0  0  0  0  0  0  0
   85.9618   34.0938   36.5497 H   0  0  0  0  0  0  0  0  0  0  0  0
   82.3991   35.4295   39.2984 H   0  0  0  0  0  0  0  0  0  0  0  0
   82.3577   35.7286   33.5418 H   0  0  0  0  0  0  0  0  0  0  0  0
   82.6045   34.2585   31.9321 H   0  0  0  0  0  0  0  0  0  0  0  0
   83.2847   35.4206   30.7432 H   0  0  0  0  0  0  0  0  0  0  0  0
   83.8345   33.7105   30.7432 H   0  0  0  0  0  0  0  0  0  0  0  0
   88.2905   34.3890   32.9838 H   0  0  0  0  0  0  0  0  0  0  0  0
   87.2044   35.8031   33.2847 H   0  0  0  0  0  0  0  0  0  0  0  0
   87.9530   36.1907   35.1747 H   0  0  0  0  0  0  0  0  0  0  0  0
   90.6314   34.6077   34.6831 H   0  0  0  0  0  0  0  0  0  0  0  0
   88.3708   33.2045   36.3729 H   0  0  0  0  0  0  0  0  0  0  0  0
  1  2  2  0
  2  3  1  0
  2 11  1  0
  3  4  1  0
  3  8  1  0
  4  5  1  0
  5  6  1  0
  5  7  1  0
  6  7  1  0
  8  9  2  0
  9 10  1  0
 10 11  2  0
 10 13  1  0
 11 12  1  0
 12 15  1  0
 13 14  1  0
 14 15  1  0
 14 16  1  0
 16 17  2  0
 16 23  1  0
 17 18  1  0
 18 19  2  0
 18 24  1  0
 19 20  1  0
 19 21  1  0
 20 28  2  0
 21 22  2  0
 21 23  1  0
 24 25  2  0
 25 26  1  0
 25 28  1  0
 26 27  1  0
 28 29  1  0
 29 30  1  0
 30 31  1  0
 31 32  1  0
 31 33  1  0
 32 33  2  0
  4 34  1  0
  4 35  1  0
  5 36  1  0
  6 37  1  0
  6 38  1  0
  7 39  1  0
  7 40  1  0
  8 41  1  0
  9 42  1  0
 12 43  1  0
 12 44  1  0
 13 45  1  0
 13 46  1  0
 15 47  1  0
 15 48  1  0
 20 49  1  0
 23 50  1  0
 24 51  1  0
 27 52  1  0
 27 53  1  0
 27 54  1  0
 30 55  1  0
 30 56  1  0
 31 57  1  0
 32 58  1  0
 33 59  1  0
A    1
O29
A    2
C26
A    3
N28
A    4
C30
A    5
C31
A    6
C32
A    7
C33
A    8
C27
A    9
C23
A   10
C19
A   11
C22
A   12
C20
A   13
C15
A   14
N12
A   15
C16
A   16
C7
A   17
N3
A   18
C1
A   19
C2
A   20
C5
A   21
C6
A   22
O11
A   23
N10
A   24
C4
A   25
C8
A   26
O13
A   27
C17
A   28
C9
A   29
O14
A   30
C18
A   31
C21
A   32
C24
A   33
C25
M  END
