2W1C_L0C_A_1391
     RDKit          3D

 53 57  0  0  0  0  0  0  0  0999 V2000
    8.2320   28.0410    0.9670 F   0  0  0  0  0  0  0  0  0  0  0  0
    7.6790   28.2390    2.1790 C   0  0  0  0  0  0  0  0  0  0  0  0
    7.2850   29.5100    2.5350 C   0  0  0  0  0  0  0  0  0  0  0  0
    6.7180   29.7170    3.7750 C   0  0  0  0  0  0  0  0  0  0  0  0
    6.5460   28.6450    4.6610 C   0  0  0  0  0  0  0  0  0  0  0  0
    6.9550   27.3650    4.2790 C   0  0  0  0  0  0  0  0  0  0  0  0
    7.5210   27.1640    3.0360 C   0  0  0  0  0  0  0  0  0  0  0  0
    5.9350   28.8770    6.0060 C   0  0  0  0  0  0  0  0  0  0  0  0
    5.9010   27.9960    6.8440 O   0  0  0  0  0  0  0  0  0  0  0  0
    5.4400   30.1110    6.2180 N   0  0  0  0  0  0  0  0  0  0  0  0
    4.9940   30.6220    7.3960 C   0  0  0  0  0  0  0  0  0  0  0  0
    5.2970   30.2530    8.6510 C   0  0  0  0  0  0  0  0  0  0  0  0
    4.6070   31.0620    9.4760 N   0  0  0  0  0  0  0  0  0  0  0  0
    3.8600   31.9520    8.7920 N   0  0  0  0  0  0  0  0  0  0  0  0
    4.1040   31.6830    7.5180 C   0  0  0  0  0  0  0  0  0  0  0  0
    3.4470   32.4560    6.4890 C   0  0  0  0  0  0  0  0  0  0  0  0
    3.7560   32.4690    5.1890 N   0  0  0  0  0  0  0  0  0  0  0  0
    2.8780   33.3290    4.5670 C   0  0  0  0  0  0  0  0  0  0  0  0
    2.7460   33.7180    3.2450 C   0  0  0  0  0  0  0  0  0  0  0  0
    1.7590   34.6160    2.8800 C   0  0  0  0  0  0  0  0  0  0  0  0
    0.8880   35.1420    3.8380 C   0  0  0  0  0  0  0  0  0  0  0  0
   -0.2070   36.1130    3.4610 C   0  0  0  0  0  0  0  0  0  0  0  0
    0.2640   37.3580    2.7690 N   0  0  0  0  0  0  0  0  0  0  0  0
   -0.8890   38.1610    2.2580 C   0  0  0  0  0  0  0  0  0  0  0  0
   -0.3830   39.4270    1.5880 C   0  0  0  0  0  0  0  0  0  0  0  0
    0.5230   39.1190    0.5140 O   0  0  0  0  0  0  0  0  0  0  0  0
    1.6480   38.3630    1.0030 C   0  0  0  0  0  0  0  0  0  0  0  0
    1.2000   37.0610    1.6460 C   0  0  0  0  0  0  0  0  0  0  0  0
    1.0360   34.7350    5.1580 C   0  0  0  0  0  0  0  0  0  0  0  0
    2.0230   33.8390    5.5220 C   0  0  0  0  0  0  0  0  0  0  0  0
    2.3950   33.2810    6.7000 N   0  0  0  0  0  0  0  0  0  0  0  0
    7.4211   30.3502    1.8382 H   0  0  0  0  0  0  0  0  0  0  0  0
    6.3994   30.7278    4.0698 H   0  0  0  0  0  0  0  0  0  0  0  0
    6.8261   26.5176    4.9684 H   0  0  0  0  0  0  0  0  0  0  0  0
    7.8436   26.1580    2.7294 H   0  0  0  0  0  0  0  0  0  0  0  0
    5.3944   30.7348    5.3997 H   0  0  0  0  0  0  0  0  0  0  0  0
    5.9796   29.4433    8.9483 H   0  0  0  0  0  0  0  0  0  0  0  0
    4.6449   31.0079   10.5039 H   0  0  0  0  0  0  0  0  0  0  0  0
    3.4276   33.3121    2.4829 H   0  0  0  0  0  0  0  0  0  0  0  0
    1.6589   34.9185    1.8272 H   0  0  0  0  0  0  0  0  0  0  0  0
   -0.9082   35.5940    2.7910 H   0  0  0  0  0  0  0  0  0  0  0  0
   -0.6680   36.4400    4.4047 H   0  0  0  0  0  0  0  0  0  0  0  0
    0.7746   37.9067    3.4755 H   0  0  0  0  0  0  0  0  0  0  0  0
   -1.4543   37.5632    1.5278 H   0  0  0  0  0  0  0  0  0  0  0  0
   -1.5411   38.4340    3.1008 H   0  0  0  0  0  0  0  0  0  0  0  0
   -1.2398   39.9873    1.1855 H   0  0  0  0  0  0  0  0  0  0  0  0
    0.1547   40.0271    2.3368 H   0  0  0  0  0  0  0  0  0  0  0  0
    2.3194   38.1350    0.1620 H   0  0  0  0  0  0  0  0  0  0  0  0
    2.1673   38.9652    1.7630 H   0  0  0  0  0  0  0  0  0  0  0  0
    2.0774   36.5219    2.0327 H   0  0  0  0  0  0  0  0  0  0  0  0
    0.6886   36.4387    0.8969 H   0  0  0  0  0  0  0  0  0  0  0  0
    0.3563   35.1325    5.9261 H   0  0  0  0  0  0  0  0  0  0  0  0
    1.9480   33.4569    7.6111 H   0  0  0  0  0  0  0  0  0  0  0  0
  1  2  1  0
  2  3  2  0
  2  7  1  0
  3  4  1  0
  4  5  2  0
  6  5  1  0
  5  8  1  0
  7  6  2  0
  8 10  1  0
  8  9  2  0
 10 11  1  0
 11 15  1  0
 11 12  2  0
 12 13  1  0
 14 13  1  0
 15 14  2  0
 16 15  1  0
 17 16  2  0
 16 31  1  0
 18 17  1  0
 19 18  2  0
 18 30  1  0
 20 19  1  0
 20 21  2  0
 22 21  1  0
 21 29  1  0
 23 22  1  0
 28 23  1  0
 24 23  1  0
 25 24  1  0
 26 25  1  0
 26 27  1  0
 27 28  1  0
 29 30  2  0
 30 31  1  0
  3 32  1  0
  4 33  1  0
  6 34  1  0
  7 35  1  0
 10 36  1  0
 12 37  1  0
 13 38  1  0
 19 39  1  0
 20 40  1  0
 22 41  1  0
 22 42  1  0
 23 43  1  0
 24 44  1  0
 24 45  1  0
 25 46  1  0
 25 47  1  0
 27 48  1  0
 27 49  1  0
 28 50  1  0
 28 51  1  0
 29 52  1  0
 31 53  1  0
M  CHG  1  23   1
A    1
F1
A    2
C2
A    3
C3
A    4
C4
A    5
C5
A    6
C6
A    7
C7
A    8
C8
A    9
O9
A   10
N10
A   11
C11
A   12
C12
A   13
N13
A   14
N15
A   15
C16
A   16
C17
A   17
N18
A   18
C19
A   19
C20
A   20
C21
A   21
C22
A   22
C23
A   23
N24
A   24
C26
A   25
C27
A   26
O28
A   27
C29
A   28
C30
A   29
C31
A   30
C32
A   31
N33
M  END
