2W1G_L0G_A_1390
     RDKit          3D

 53 57  0  0  0  0  0  0  0  0999 V2000
    6.1710   28.2030    7.2540 O   0  0  0  0  0  0  0  0  0  0  0  0
    5.9150   28.8070    6.2220 C   0  0  0  0  0  0  0  0  0  0  0  0
    6.2340   28.3340    5.0000 N   0  0  0  0  0  0  0  0  0  0  0  0
    5.6380   28.8640    3.8120 C   0  0  0  0  0  0  0  0  0  0  0  0
    6.4730   29.7030    2.8950 C   0  0  0  0  0  0  0  0  0  0  0  0
    6.0620   28.3200    2.4850 C   0  0  0  0  0  0  0  0  0  0  0  0
    5.2900   29.9990    6.2240 N   0  0  0  0  0  0  0  0  0  0  0  0
    4.8420   30.5410    7.3690 C   0  0  0  0  0  0  0  0  0  0  0  0
    5.1010   30.1370    8.6050 C   0  0  0  0  0  0  0  0  0  0  0  0
    4.4400   30.9690    9.4420 N   0  0  0  0  0  0  0  0  0  0  0  0
    3.7580   31.9090    8.7630 N   0  0  0  0  0  0  0  0  0  0  0  0
    4.0170   31.6160    7.4790 C   0  0  0  0  0  0  0  0  0  0  0  0
    3.4550   32.4060    6.4220 C   0  0  0  0  0  0  0  0  0  0  0  0
    2.9470   33.6180    6.6010 N   0  0  0  0  0  0  0  0  0  0  0  0
    2.5130   34.0850    5.4340 C   0  0  0  0  0  0  0  0  0  0  0  0
    1.9200   35.2810    5.1510 C   0  0  0  0  0  0  0  0  0  0  0  0
    1.5350   35.5880    3.8730 C   0  0  0  0  0  0  0  0  0  0  0  0
    0.9010   36.9170    3.5910 C   0  0  0  0  0  0  0  0  0  0  0  0
    0.4350   37.0110    2.1890 N   0  0  0  0  0  0  0  0  0  0  0  0
   -0.7750   36.2040    2.0400 C   0  0  0  0  0  0  0  0  0  0  0  0
   -1.3030   36.2860    0.6220 C   0  0  0  0  0  0  0  0  0  0  0  0
   -1.5110   37.6530    0.2250 O   0  0  0  0  0  0  0  0  0  0  0  0
   -0.2940   38.4080    0.3470 C   0  0  0  0  0  0  0  0  0  0  0  0
    0.1910   38.4160    1.7750 C   0  0  0  0  0  0  0  0  0  0  0  0
    1.7620   34.6530    2.8600 C   0  0  0  0  0  0  0  0  0  0  0  0
    2.3690   33.4300    3.1590 C   0  0  0  0  0  0  0  0  0  0  0  0
    2.7500   33.1470    4.4710 C   0  0  0  0  0  0  0  0  0  0  0  0
    3.3590   32.0560    5.1010 N   0  0  0  0  0  0  0  0  0  0  0  0
    6.9233   27.5729    4.9199 H   0  0  0  0  0  0  0  0  0  0  0  0
    4.6741   28.9972    4.3251 H   0  0  0  0  0  0  0  0  0  0  0  0
    6.0322   30.5788    2.3962 H   0  0  0  0  0  0  0  0  0  0  0  0
    7.4309   30.2364    2.9839 H   0  0  0  0  0  0  0  0  0  0  0  0
    6.8110   27.5160    2.4340 H   0  0  0  0  0  0  0  0  0  0  0  0
    5.5398   27.8884    1.6184 H   0  0  0  0  0  0  0  0  0  0  0  0
    5.1533   30.5025    5.3359 H   0  0  0  0  0  0  0  0  0  0  0  0
    5.7342   29.2856    8.8951 H   0  0  0  0  0  0  0  0  0  0  0  0
    4.4567   30.8925   10.4690 H   0  0  0  0  0  0  0  0  0  0  0  0
    2.8967   34.1177    7.5003 H   0  0  0  0  0  0  0  0  0  0  0  0
    1.7491   36.0074    5.9592 H   0  0  0  0  0  0  0  0  0  0  0  0
    0.0408   37.0521    4.2631 H   0  0  0  0  0  0  0  0  0  0  0  0
    1.6552   37.7005    3.7566 H   0  0  0  0  0  0  0  0  0  0  0  0
    1.1749   36.6496    1.5702 H   0  0  0  0  0  0  0  0  0  0  0  0
   -0.5414   35.1558    2.2782 H   0  0  0  0  0  0  0  0  0  0  0  0
   -1.5436   36.5895    2.7261 H   0  0  0  0  0  0  0  0  0  0  0  0
   -0.5758   35.8206   -0.0596 H   0  0  0  0  0  0  0  0  0  0  0  0
   -2.2673   35.7586    0.5772 H   0  0  0  0  0  0  0  0  0  0  0  0
    0.4772   37.9547   -0.2932 H   0  0  0  0  0  0  0  0  0  0  0  0
   -0.4897   39.4447    0.0355 H   0  0  0  0  0  0  0  0  0  0  0  0
   -0.5721   38.8688    2.4251 H   0  0  0  0  0  0  0  0  0  0  0  0
    1.1172   39.0035    1.8589 H   0  0  0  0  0  0  0  0  0  0  0  0
    1.4627   34.8796    1.8260 H   0  0  0  0  0  0  0  0  0  0  0  0
    2.5458   32.6926    2.3621 H   0  0  0  0  0  0  0  0  0  0  0  0
    3.6693   31.1763    4.6642 H   0  0  0  0  0  0  0  0  0  0  0  0
  2  1  2  0
  3  2  1  0
  2  7  1  0
  4  3  1  0
  6  4  1  0
  5  4  1  0
  6  5  1  0
  7  8  1  0
  8 12  1  0
  8  9  2  0
  9 10  1  0
 11 10  1  0
 12 11  2  0
 13 12  1  0
 28 13  2  0
 13 14  1  0
 15 14  1  0
 27 15  2  0
 16 15  1  0
 17 16  2  0
 25 17  1  0
 18 17  1  0
 19 18  1  0
 24 19  1  0
 20 19  1  0
 21 20  1  0
 22 21  1  0
 22 23  1  0
 23 24  1  0
 25 26  2  0
 26 27  1  0
 27 28  1  0
  3 29  1  0
  4 30  1  0
  5 31  1  0
  5 32  1  0
  6 33  1  0
  6 34  1  0
  7 35  1  0
  9 36  1  0
 10 37  1  0
 14 38  1  0
 16 39  1  0
 18 40  1  0
 18 41  1  0
 19 42  1  0
 20 43  1  0
 20 44  1  0
 21 45  1  0
 21 46  1  0
 23 47  1  0
 23 48  1  0
 24 49  1  0
 24 50  1  0
 25 51  1  0
 26 52  1  0
 28 53  1  0
M  CHG  2  19   1  28   1
A    1
O1
A    2
C2
A    3
N3
A    4
C4
A    5
C5
A    6
C6
A    7
N7
A    8
C8
A    9
C9
A   10
N10
A   11
N12
A   12
C13
A   13
C14
A   14
N15
A   15
C17
A   16
C18
A   17
C19
A   18
C20
A   19
N21
A   20
C23
A   21
C24
A   22
O25
A   23
C26
A   24
C27
A   25
C28
A   26
C29
A   27
C30
A   28
N31
M  END
