2W3L_DRO_A_1166
     RDKit          3D

 72 77  0  0  0  0  0  0  0  0999 V2000
   42.8420   26.9780  -10.6500 C   0  0  0  0  0  0  0  0  0  0  0  0
   43.0780   28.2310  -10.0890 C   0  0  0  0  0  0  0  0  0  0  0  0
   42.0500   28.9350   -9.4790 C   0  0  0  0  0  0  0  0  0  0  0  0
   40.7550   28.4320   -9.4170 C   0  0  0  0  0  0  0  0  0  0  0  0
   40.5210   27.1650   -9.9990 C   0  0  0  0  0  0  0  0  0  0  0  0
   41.5430   26.4520  -10.6360 C   0  0  0  0  0  0  0  0  0  0  0  0
   41.3130   25.2090  -11.1710 N   0  0  0  0  0  0  0  0  0  0  0  0
   40.9890   24.1940  -10.2930 C   0  0  0  0  0  0  0  0  0  0  0  0
   39.6850   23.6500  -10.3650 C   0  0  0  0  0  0  0  0  0  0  0  0
   39.2650   22.6330   -9.4860 C   0  0  0  0  0  0  0  0  0  0  0  0
   40.1340   22.1660   -8.4870 C   0  0  0  0  0  0  0  0  0  0  0  0
   41.4090   22.7280   -8.3720 C   0  0  0  0  0  0  0  0  0  0  0  0
   41.8250   23.7360   -9.2690 C   0  0  0  0  0  0  0  0  0  0  0  0
   41.3370   24.9230  -12.4800 C   0  0  0  0  0  0  0  0  0  0  0  0
   41.1000   23.7790  -12.8800 O   0  0  0  0  0  0  0  0  0  0  0  0
   41.5730   26.0330  -13.5520 C   0  0  0  0  0  0  0  0  0  0  0  0
   40.9820   27.2380  -13.5530 N   0  0  0  0  0  0  0  0  0  0  0  0
   42.2620   25.9350  -14.7490 C   0  0  0  0  0  0  0  0  0  0  0  0
   43.1970   24.5660  -15.2720 Cl  0  0  0  0  0  0  0  0  0  0  0  0
   42.0910   27.1720  -15.3660 C   0  0  0  0  0  0  0  0  0  0  0  0
   42.6950   27.6000  -16.7180 C   0  0  0  0  0  0  0  0  0  0  0  0
   41.2840   27.8960  -14.5640 N   0  0  0  0  0  0  0  0  0  0  0  0
   40.8250   29.1540  -14.7700 C   0  0  0  0  0  0  0  0  0  0  0  0
   41.6730   30.2590  -14.7760 C   0  0  0  0  0  0  0  0  0  0  0  0
   41.1590   31.5400  -14.9990 C   0  0  0  0  0  0  0  0  0  0  0  0
   39.7990   31.7310  -15.1880 C   0  0  0  0  0  0  0  0  0  0  0  0
   38.9370   30.6560  -15.1610 C   0  0  0  0  0  0  0  0  0  0  0  0
   39.4440   29.3720  -14.9410 C   0  0  0  0  0  0  0  0  0  0  0  0
   38.4770   28.1720  -14.9150 C   0  0  0  0  0  0  0  0  0  0  0  0
   38.5170   27.3230  -15.8220 O   0  0  0  0  0  0  0  0  0  0  0  0
   37.5940   27.9950  -13.9150 N   0  0  0  0  0  0  0  0  0  0  0  0
   37.4770   28.9140  -12.7100 C   0  0  0  0  0  0  0  0  0  0  0  0
   37.2660   28.0320  -11.4440 C   0  0  0  0  0  0  0  0  0  0  0  0
   37.2270   28.6510  -10.1810 C   0  0  0  0  0  0  0  0  0  0  0  0
   37.0210   27.9080   -9.0080 C   0  0  0  0  0  0  0  0  0  0  0  0
   36.8410   26.5420   -9.0850 C   0  0  0  0  0  0  0  0  0  0  0  0
   36.8830   25.9080  -10.3210 C   0  0  0  0  0  0  0  0  0  0  0  0
   37.0810   26.6460  -11.5010 C   0  0  0  0  0  0  0  0  0  0  0  0
   37.1010   25.8520  -12.8090 C   0  0  0  0  0  0  0  0  0  0  0  0
   36.7270   26.7900  -13.9710 C   0  0  0  0  0  0  0  0  0  0  0  0
   35.2460   27.1830  -13.8690 C   0  0  0  0  0  0  0  0  0  0  0  0
   34.6130   27.0100  -15.1750 N   0  0  0  0  0  0  0  0  0  0  0  0
   43.6674   26.4067  -11.0998 H   0  0  0  0  0  0  0  0  0  0  0  0
   44.0876   28.6657  -10.1300 H   0  0  0  0  0  0  0  0  0  0  0  0
   42.2649   29.9171   -9.0325 H   0  0  0  0  0  0  0  0  0  0  0  0
   39.9446   28.9977   -8.9341 H   0  0  0  0  0  0  0  0  0  0  0  0
   39.5121   26.7294   -9.9500 H   0  0  0  0  0  0  0  0  0  0  0  0
   38.9844   24.0294  -11.1235 H   0  0  0  0  0  0  0  0  0  0  0  0
   38.2564   22.2046   -9.5821 H   0  0  0  0  0  0  0  0  0  0  0  0
   39.8151   21.3665   -7.8021 H   0  0  0  0  0  0  0  0  0  0  0  0
   42.0904   22.3837   -7.5800 H   0  0  0  0  0  0  0  0  0  0  0  0
   42.8294   24.1711   -9.1602 H   0  0  0  0  0  0  0  0  0  0  0  0
   43.5809   28.2277  -16.5415 H   0  0  0  0  0  0  0  0  0  0  0  0
   42.9869   26.7060  -17.2887 H   0  0  0  0  0  0  0  0  0  0  0  0
   41.9483   28.1717  -17.2887 H   0  0  0  0  0  0  0  0  0  0  0  0
   42.7511   30.1233  -14.6047 H   0  0  0  0  0  0  0  0  0  0  0  0
   41.8397   32.4037  -15.0247 H   0  0  0  0  0  0  0  0  0  0  0  0
   39.4065   32.7441  -15.3601 H   0  0  0  0  0  0  0  0  0  0  0  0
   37.8579   30.8073  -15.3115 H   0  0  0  0  0  0  0  0  0  0  0  0
   38.3980   29.5058  -12.6022 H   0  0  0  0  0  0  0  0  0  0  0  0
   36.6293   29.6031  -12.8386 H   0  0  0  0  0  0  0  0  0  0  0  0
   37.3608   29.7406  -10.1113 H   0  0  0  0  0  0  0  0  0  0  0  0
   37.0031   28.4129   -8.0309 H   0  0  0  0  0  0  0  0  0  0  0  0
   36.6648   25.9565   -8.1706 H   0  0  0  0  0  0  0  0  0  0  0  0
   36.7599   24.8163  -10.3766 H   0  0  0  0  0  0  0  0  0  0  0  0
   38.1078   25.4416  -12.9759 H   0  0  0  0  0  0  0  0  0  0  0  0
   36.3785   25.0245  -12.7523 H   0  0  0  0  0  0  0  0  0  0  0  0
   36.8813   26.2778  -14.9321 H   0  0  0  0  0  0  0  0  0  0  0  0
   34.7450   26.5414  -13.1292 H   0  0  0  0  0  0  0  0  0  0  0  0
   35.1628   28.2335  -13.5537 H   0  0  0  0  0  0  0  0  0  0  0  0
   33.6273   26.7406  -15.0458 H   0  0  0  0  0  0  0  0  0  0  0  0
   34.6611   27.8950  -15.6998 H   0  0  0  0  0  0  0  0  0  0  0  0
  1  2  2  0
  1  6  1  0
  2  3  1  0
  3  4  2  0
  4  5  1  0
  5  6  2  0
  6  7  1  0
  7  8  1  0
  7 14  1  0
  8  9  2  0
  8 13  1  0
  9 10  1  0
 10 11  2  0
 11 12  1  0
 12 13  2  0
 14 15  2  0
 14 16  1  0
 16 17  2  0
 16 18  1  0
 17 22  1  0
 18 19  1  0
 18 20  2  0
 20 21  1  0
 20 22  1  0
 22 23  1  0
 23 24  2  0
 23 28  1  0
 24 25  1  0
 25 26  2  0
 26 27  1  0
 27 28  2  0
 28 29  1  0
 29 30  2  0
 29 31  1  0
 31 32  1  0
 31 40  1  0
 32 33  1  0
 33 34  2  0
 33 38  1  0
 34 35  1  0
 35 36  2  0
 36 37  1  0
 37 38  2  0
 38 39  1  0
 39 40  1  0
 40 41  1  0
 41 42  1  0
  1 43  1  0
  2 44  1  0
  3 45  1  0
  4 46  1  0
  5 47  1  0
  9 48  1  0
 10 49  1  0
 11 50  1  0
 12 51  1  0
 13 52  1  0
 21 53  1  0
 21 54  1  0
 21 55  1  0
 24 56  1  0
 25 57  1  0
 26 58  1  0
 27 59  1  0
 32 60  1  0
 32 61  1  0
 34 62  1  0
 35 63  1  0
 36 64  1  0
 37 65  1  0
 39 66  1  0
 39 67  1  0
 40 68  1  0
 41 69  1  0
 41 70  1  0
 42 71  1  0
 42 72  1  0
A    1
CBF
A    2
CBG
A    3
CBH
A    4
CBI
A    5
CBJ
A    6
CBE
A    7
NBB
A    8
CBD
A    9
CBK
A   10
CBL
A   11
CBM
A   12
CBN
A   13
CBO
A   14
CBA
A   15
OBC
A   16
CAH
A   17
NAG
A   18
CAI
A   19
CL1
A   20
CAJ
A   21
CAK
A   22
NAF
A   23
CAE
A   24
CAA
A   25
CAB
A   26
CAC
A   27
CAY
A   28
CAD
A   29
CAL
A   30
OAN
A   31
NAM
A   32
CAQ
A   33
CAR
A   34
CAW
A   35
CAV
A   36
CAU
A   37
CAT
A   38
CAS
A   39
CAP
A   40
CAO
A   41
CAX
A   42
NAZ
M  END
