2W5U_IC3_A_166
     RDKit          3D

 28 29  0  0  0  0  0  0  0  0999 V2000
   23.5760    3.1410   34.5280 N   0  0  0  0  0  0  0  0  0  0  0  0
   23.6400    2.2760   33.7030 C   0  0  0  0  0  0  0  0  0  0  0  0
   23.3710    1.3380   32.7850 C   0  0  0  0  0  0  0  0  0  0  0  0
   22.3680    1.4830   31.7370 C   0  0  0  0  0  0  0  0  0  0  0  0
   21.6190    2.5930   31.6070 N   0  0  0  0  0  0  0  0  0  0  0  0
   23.9660    0.0960   32.6610 C   0  0  0  0  0  0  0  0  0  0  0  0
   23.3530   -0.5000   31.5770 N   0  0  0  0  0  0  0  0  0  0  0  0
   22.3920    0.3570   31.0100 N   0  0  0  0  0  0  0  0  0  0  0  0
   21.5770    0.0320   29.9630 C   0  0  0  0  0  0  0  0  0  0  0  0
   21.4130   -1.2280   29.3370 C   0  0  0  0  0  0  0  0  0  0  0  0
   22.1530   -2.3390   29.7060 N   0  0  0  0  0  0  0  0  0  0  0  0
   23.0240   -2.2530   30.5500 O   0  0  0  0  0  0  0  0  0  0  0  0
   21.9070   -3.4140   29.1770 O   0  0  0  0  0  0  0  0  0  0  0  0
   20.5300   -1.4780   28.2810 C   0  0  0  0  0  0  0  0  0  0  0  0
   19.7290   -0.4630   27.7980 C   0  0  0  0  0  0  0  0  0  0  0  0
   18.7510   -0.6630   26.6970 C   0  0  0  0  0  0  0  0  0  0  0  0
   19.1870   -0.2570   25.5170 F   0  0  0  0  0  0  0  0  0  0  0  0
   18.4620   -1.9410   26.6620 F   0  0  0  0  0  0  0  0  0  0  0  0
   17.6680    0.0170   26.9940 F   0  0  0  0  0  0  0  0  0  0  0  0
   19.8260    0.7690   28.3840 C   0  0  0  0  0  0  0  0  0  0  0  0
   20.7220    0.9820   29.4230 C   0  0  0  0  0  0  0  0  0  0  0  0
   21.2841    3.0894   32.4451 H   0  0  0  0  0  0  0  0  0  0  0  0
   21.3805    2.9465   30.6694 H   0  0  0  0  0  0  0  0  0  0  0  0
   24.7604   -0.3279   33.2929 H   0  0  0  0  0  0  0  0  0  0  0  0
   21.7247   -4.2105   29.7359 H   0  0  0  0  0  0  0  0  0  0  0  0
   20.4742   -2.4825   27.8361 H   0  0  0  0  0  0  0  0  0  0  0  0
   19.1912    1.5949   28.0305 H   0  0  0  0  0  0  0  0  0  0  0  0
   20.7571    1.9926   29.8560 H   0  0  0  0  0  0  0  0  0  0  0  0
  1  2  3  0
  2  3  1  0
  3  4  2  0
  3  6  1  0
  4  5  1  0
  4  8  1  0
  6  7  2  0
  7  8  1  0
  8  9  1  0
  9 10  2  0
  9 21  1  0
 10 11  1  0
 10 14  1  0
 11 12  2  0
 11 13  1  0
 14 15  2  0
 15 16  1  0
 15 20  1  0
 16 17  1  0
 16 18  1  0
 16 19  1  0
 20 21  2  0
  5 22  1  0
  5 23  1  0
  6 24  1  0
 13 25  1  0
 14 26  1  0
 20 27  1  0
 21 28  1  0
M  CHG  1  11   1
A    1
N4
A    2
C11
A    3
C9
A    4
C10
A    5
N5
A    6
C8
A    7
N2
A    8
N1
A    9
C1
A   10
C2
A   11
N3
A   12
O2
A   13
O1
A   14
C3
A   15
C4
A   16
C7
A   17
F3
A   18
F2
A   19
F1
A   20
C5
A   21
C6
M  END
