2W6C_BM4_X_601
     RDKit          3D

 66 67  0  0  0  0  0  0  0  0999 V2000
    5.8970   64.0220   63.0090 O   0  0  0  0  0  0  0  0  0  0  0  0
    4.8440   64.6790   63.5850 C   0  0  0  0  0  0  0  0  0  0  0  0
    4.7150   66.0620   63.4300 C   0  0  0  0  0  0  0  0  0  0  0  0
    3.9020   63.9670   64.3270 C   0  0  0  0  0  0  0  0  0  0  0  0
    2.8340   64.6550   64.8960 C   0  0  0  0  0  0  0  0  0  0  0  0
    2.7210   66.0400   64.7500 C   0  0  0  0  0  0  0  0  0  0  0  0
    3.6720   66.7680   64.0310 C   0  0  0  0  0  0  0  0  0  0  0  0
    3.5540   68.3130   63.8530 C   0  0  0  0  0  0  0  0  0  0  0  0
    2.5890   68.5520   62.6900 C   0  0  0  0  0  0  0  0  0  0  0  0
    3.3220   68.4300   61.3340 C   0  0  0  0  0  0  0  0  0  0  0  0
    2.9960   69.0340   65.1070 C   0  0  0  0  0  0  0  0  0  0  0  0
    4.9130   68.9230   63.4080 C   0  0  0  0  0  0  0  0  0  0  0  0
    5.9280   69.2000   64.5270 C   0  0  0  0  0  0  0  0  0  0  0  0
    5.3930   70.2400   65.5200 C   0  0  0  0  0  0  0  0  0  0  0  0
    4.7830   69.5700   66.7540 C   0  0  0  0  0  0  0  0  0  0  0  0
    3.7200   68.6370   66.3380 N   0  0  0  0  0  0  0  0  0  0  0  0
    2.8680   68.2230   67.4750 C   0  0  0  0  0  0  0  0  0  0  0  0
    3.7430   67.4010   68.4660 C   0  0  0  0  0  0  0  0  0  0  0  0
    3.0570   66.1110   68.9420 C   0  0  0  0  0  0  0  0  0  0  0  0
    4.0510   64.9850   69.2810 C   0  0  0  0  0  0  0  0  0  0  0  0
    3.3270   63.6260   69.4550 C   0  0  0  0  0  0  0  0  0  0  0  0
    2.7070   63.4570   70.8470 C   0  0  0  0  0  0  0  0  0  0  0  0
    1.3820   62.6860   70.8250 C   0  0  0  0  0  0  0  0  0  0  0  0
    1.2000   61.8240   72.0920 C   0  0  0  0  0  0  0  0  0  0  0  0
   -0.2190   61.9460   72.6800 C   0  0  0  0  0  0  0  0  0  0  0  0
   -0.6340   60.6860   73.3320 N   0  0  0  0  0  0  0  0  0  0  0  0
    6.5841   63.5933   63.5783 H   0  0  0  0  0  0  0  0  0  0  0  0
    5.4519   66.6060   62.8208 H   0  0  0  0  0  0  0  0  0  0  0  0
    4.0013   62.8796   64.4604 H   0  0  0  0  0  0  0  0  0  0  0  0
    2.0719   64.1032   65.4659 H   0  0  0  0  0  0  0  0  0  0  0  0
    1.8700   66.5652   65.2083 H   0  0  0  0  0  0  0  0  0  0  0  0
    1.7819   67.8058   62.7320 H   0  0  0  0  0  0  0  0  0  0  0  0
    2.1764   69.5679   62.7775 H   0  0  0  0  0  0  0  0  0  0  0  0
    4.3930   68.2518   61.5108 H   0  0  0  0  0  0  0  0  0  0  0  0
    2.8998   67.5898   60.7633 H   0  0  0  0  0  0  0  0  0  0  0  0
    3.1947   69.3617   60.7633 H   0  0  0  0  0  0  0  0  0  0  0  0
    3.0986   70.1204   64.9683 H   0  0  0  0  0  0  0  0  0  0  0  0
    1.9402   68.7484   65.2241 H   0  0  0  0  0  0  0  0  0  0  0  0
    5.3785   68.2241   62.6974 H   0  0  0  0  0  0  0  0  0  0  0  0
    4.6694   69.9066   62.9799 H   0  0  0  0  0  0  0  0  0  0  0  0
    6.1326   68.2628   65.0652 H   0  0  0  0  0  0  0  0  0  0  0  0
    6.8476   69.5959   64.0714 H   0  0  0  0  0  0  0  0  0  0  0  0
    6.2210   70.8905   65.8382 H   0  0  0  0  0  0  0  0  0  0  0  0
    4.6077   70.8255   65.0195 H   0  0  0  0  0  0  0  0  0  0  0  0
    5.5653   69.0160   67.2936 H   0  0  0  0  0  0  0  0  0  0  0  0
    4.3548   70.3400   67.4126 H   0  0  0  0  0  0  0  0  0  0  0  0
    2.4667   69.1126   67.9826 H   0  0  0  0  0  0  0  0  0  0  0  0
    2.0262   67.6127   67.1159 H   0  0  0  0  0  0  0  0  0  0  0  0
    4.6843   67.1331   67.9638 H   0  0  0  0  0  0  0  0  0  0  0  0
    3.9159   68.0290   69.3524 H   0  0  0  0  0  0  0  0  0  0  0  0
    2.4679   66.3400   69.8423 H   0  0  0  0  0  0  0  0  0  0  0  0
    2.4260   65.7522   68.1155 H   0  0  0  0  0  0  0  0  0  0  0  0
    4.7848   64.8980   68.4662 H   0  0  0  0  0  0  0  0  0  0  0  0
    4.5489   65.2362   70.2291 H   0  0  0  0  0  0  0  0  0  0  0  0
    2.5272   63.5551   68.7031 H   0  0  0  0  0  0  0  0  0  0  0  0
    4.0778   62.8322   69.3283 H   0  0  0  0  0  0  0  0  0  0  0  0
    3.4191   62.9115   71.4836 H   0  0  0  0  0  0  0  0  0  0  0  0
    2.4946   64.4637   71.2362 H   0  0  0  0  0  0  0  0  0  0  0  0
    0.5523   63.4054   70.7615 H   0  0  0  0  0  0  0  0  0  0  0  0
    1.3909   62.0152   69.9532 H   0  0  0  0  0  0  0  0  0  0  0  0
    1.3873   60.7712   71.8341 H   0  0  0  0  0  0  0  0  0  0  0  0
    1.9117   62.1832   72.8500 H   0  0  0  0  0  0  0  0  0  0  0  0
   -0.2315   62.7565   73.4236 H   0  0  0  0  0  0  0  0  0  0  0  0
   -0.9198   62.1630   71.8604 H   0  0  0  0  0  0  0  0  0  0  0  0
   -0.5964   60.8002   74.3550 H   0  0  0  0  0  0  0  0  0  0  0  0
   -1.5962   60.4530   73.0477 H   0  0  0  0  0  0  0  0  0  0  0  0
  1  2  1  0
  2  3  2  0
  2  4  1  0
  3  7  1  0
  4  5  2  0
  5  6  1  0
  6  7  2  0
  7  8  1  0
  8  9  1  0
  8 11  1  0
  8 12  1  0
  9 10  1  0
 11 16  1  0
 12 13  1  0
 13 14  1  0
 14 15  1  0
 15 16  1  0
 16 17  1  0
 17 18  1  0
 18 19  1  0
 19 20  1  0
 20 21  1  0
 21 22  1  0
 22 23  1  0
 23 24  1  0
 24 25  1  0
 25 26  1  0
  1 27  1  0
  3 28  1  0
  4 29  1  0
  5 30  1  0
  6 31  1  0
  9 32  1  0
  9 33  1  0
 10 34  1  0
 10 35  1  0
 10 36  1  0
 11 37  1  0
 11 38  1  0
 12 39  1  0
 12 40  1  0
 13 41  1  0
 13 42  1  0
 14 43  1  0
 14 44  1  0
 15 45  1  0
 15 46  1  0
 17 47  1  0
 17 48  1  0
 18 49  1  0
 18 50  1  0
 19 51  1  0
 19 52  1  0
 20 53  1  0
 20 54  1  0
 21 55  1  0
 21 56  1  0
 22 57  1  0
 22 58  1  0
 23 59  1  0
 23 60  1  0
 24 61  1  0
 24 62  1  0
 25 63  1  0
 25 64  1  0
 26 65  1  0
 26 66  1  0
A    1
OAU
A    2
CAS
A    3
CAQ
A    4
CAT
A    5
CAR
A    6
CAP
A    7
CAO
A    8
CAC
A    9
CAM
A   10
CAN
A   11
CAB
A   12
CAD
A   13
CAE
A   14
CAF
A   15
CAG
A   16
NAA
A   17
CAH
A   18
CAI
A   19
CAJ
A   20
CAK
A   21
CAL
A   22
CAV
A   23
CAW
A   24
CAX
A   25
CAY
A   26
NAZ
M  END
