1SQN_NDR_A_1001
     RDKit          3D

 48 51  0  0  0  0  0  0  0  0999 V2000
   -4.1220   -1.1470   30.7680 O   0  0  0  0  0  0  0  0  0  0  0  0
   -3.7310   -0.3340   29.9590 C   0  0  0  0  0  0  0  0  0  0  0  0
   -4.4900    0.9880   29.7420 C   0  0  0  0  0  0  0  0  0  0  0  0
   -2.5860   -0.6780   29.1600 C   0  0  0  0  0  0  0  0  0  0  0  0
   -2.1910    0.2160   28.1060 C   0  0  0  0  0  0  0  0  0  0  0  0
   -0.8560   -0.1210   27.4590 C   0  0  0  0  0  0  0  0  0  0  0  0
   -2.9580    1.3330   27.6770 C   0  0  0  0  0  0  0  0  0  0  0  0
   -4.3850    1.2920   28.2630 C   0  0  0  0  0  0  0  0  0  0  0  0
   -2.8080    1.6270   26.2540 C   0  0  0  0  0  0  0  0  0  0  0  0
   -1.6160    1.3810   25.5500 C   0  0  0  0  0  0  0  0  0  0  0  0
   -0.9620    0.0700   25.9880 C   0  0  0  0  0  0  0  0  0  0  0  0
   -3.6500    2.8190   25.7550 C   0  0  0  0  0  0  0  0  0  0  0  0
   -3.4930    3.0750   24.1940 C   0  0  0  0  0  0  0  0  0  0  0  0
   -2.1050    2.9940   23.6570 C   0  0  0  0  0  0  0  0  0  0  0  0
   -1.4440    1.7140   24.1630 C   0  0  0  0  0  0  0  0  0  0  0  0
   -1.4140    4.2380   24.2320 C   0  0  0  0  0  0  0  0  0  0  0  0
   -1.8860    2.9150   22.1190 C   0  0  0  0  0  0  0  0  0  0  0  0
   -1.9890    4.1550   21.4200 O   0  0  0  0  0  0  0  0  0  0  0  0
   -0.4500    2.3470   22.0170 C   0  0  0  0  0  0  0  0  0  0  0  0
   -0.2250    1.5110   23.2800 C   0  0  0  0  0  0  0  0  0  0  0  0
   -2.8680    2.0190   21.4830 C   0  0  0  0  0  0  0  0  0  0  0  0
   -3.7620    1.2630   20.9700 C   0  0  0  0  0  0  0  0  0  0  0  0
   -5.5443    0.8759   30.0352 H   0  0  0  0  0  0  0  0  0  0  0  0
   -4.0665    1.8002   30.3511 H   0  0  0  0  0  0  0  0  0  0  0  0
   -2.0249   -1.6046   29.3511 H   0  0  0  0  0  0  0  0  0  0  0  0
   -0.0752    0.5417   27.8605 H   0  0  0  0  0  0  0  0  0  0  0  0
   -0.5936   -1.1667   27.6774 H   0  0  0  0  0  0  0  0  0  0  0  0
   -2.5349    2.2489   28.1154 H   0  0  0  0  0  0  0  0  0  0  0  0
   -4.9489    0.5190   27.7203 H   0  0  0  0  0  0  0  0  0  0  0  0
   -4.7830    2.3103   28.1421 H   0  0  0  0  0  0  0  0  0  0  0  0
   -3.2756    0.6957   25.9020 H   0  0  0  0  0  0  0  0  0  0  0  0
   -1.0365    2.2504   25.8939 H   0  0  0  0  0  0  0  0  0  0  0  0
    0.0534    0.0380   25.5661 H   0  0  0  0  0  0  0  0  0  0  0  0
   -1.6144   -0.7358   25.6205 H   0  0  0  0  0  0  0  0  0  0  0  0
   -4.7090    2.6167   25.9730 H   0  0  0  0  0  0  0  0  0  0  0  0
   -3.2903    3.7188   26.2755 H   0  0  0  0  0  0  0  0  0  0  0  0
   -4.1025    2.3263   23.6668 H   0  0  0  0  0  0  0  0  0  0  0  0
   -3.8157    4.1136   24.0289 H   0  0  0  0  0  0  0  0  0  0  0  0
   -1.9556    0.7462   24.0553 H   0  0  0  0  0  0  0  0  0  0  0  0
   -1.4376    4.1955   25.3309 H   0  0  0  0  0  0  0  0  0  0  0  0
   -0.3694    4.2689   23.8886 H   0  0  0  0  0  0  0  0  0  0  0  0
   -1.9397    5.1411   23.8886 H   0  0  0  0  0  0  0  0  0  0  0  0
   -2.0507    4.8973   22.0721 H   0  0  0  0  0  0  0  0  0  0  0  0
   -0.3531    1.7163   21.1210 H   0  0  0  0  0  0  0  0  0  0  0  0
    0.2931    3.1539   21.9353 H   0  0  0  0  0  0  0  0  0  0  0  0
    0.6817    1.8503   23.8022 H   0  0  0  0  0  0  0  0  0  0  0  0
   -0.0903    0.4480   23.0311 H   0  0  0  0  0  0  0  0  0  0  0  0
   -4.5313    0.6124   20.5285 H   0  0  0  0  0  0  0  0  0  0  0  0
  1  2  2  0
  2  3  1  0
  2  4  1  0
  3  8  1  0
  4  5  2  0
  5  6  1  0
  5  7  1  0
  6 11  1  0
  7  8  1  0
  7  9  1  0
  9 10  1  0
  9 12  1  0
 10 11  1  0
 10 15  1  0
 12 13  1  0
 13 14  1  0
 14 15  1  0
 14 16  1  0
 14 17  1  0
 15 20  1  0
 17 18  1  0
 17 19  1  0
 17 21  1  0
 19 20  1  0
 21 22  3  0
  3 23  1  0
  3 24  1  0
  4 25  1  0
  6 26  1  0
  6 27  1  0
  7 28  1  0
  8 29  1  0
  8 30  1  0
  9 31  1  0
 10 32  1  0
 11 33  1  0
 11 34  1  0
 12 35  1  0
 12 36  1  0
 13 37  1  0
 13 38  1  0
 15 39  1  0
 16 40  1  0
 16 41  1  0
 16 42  1  0
 18 43  1  0
 19 44  1  0
 19 45  1  0
 20 46  1  0
 20 47  1  0
 22 48  1  0
A    1
O22
A    2
C21
A    3
C20
A    4
C19
A    5
C17
A    6
C15
A    7
C14
A    8
C18
A    9
C8
A   10
C3
A   11
C9
A   12
C13
A   13
C6
A   14
C2
A   15
C1
A   16
C7
A   17
C5
A   18
O12
A   19
C10
A   20
C4
A   21
C11
A   22
C16
M  END
