2WA3_A29_A_400
     RDKit          3D

 18 18  0  0  0  0  0  0  0  0999 V2000
   22.6840   26.0610   27.7960 C   0  0  0  0  0  0  0  0  0  0  0  0
   22.6770   25.0670   27.0470 O   0  0  0  0  0  0  0  0  0  0  0  0
   23.7170   26.8100   27.8990 O   0  0  0  0  0  0  0  0  0  0  0  0
   21.3890   26.4540   28.5550 C   0  0  0  0  0  0  0  0  0  0  0  0
   20.0360   25.7500   28.4510 C   0  0  0  0  0  0  0  0  0  0  0  0
   18.9410   26.3420   29.0740 C   0  0  0  0  0  0  0  0  0  0  0  0
   17.6460   25.8150   28.9940 C   0  0  0  0  0  0  0  0  0  0  0  0
   17.3950   24.6550   28.2730 C   0  0  0  0  0  0  0  0  0  0  0  0
   18.4710   24.0420   27.6250 C   0  0  0  0  0  0  0  0  0  0  0  0
   19.7790   24.5890   27.7110 C   0  0  0  0  0  0  0  0  0  0  0  0
   16.6200   26.4460   29.6500 O   0  0  0  0  0  0  0  0  0  0  0  0
   21.4370   27.4510   29.2660 O   0  0  0  0  0  0  0  0  0  0  0  0
   24.0606   27.0591   28.7934 H   0  0  0  0  0  0  0  0  0  0  0  0
   19.0997   27.2631   29.6539 H   0  0  0  0  0  0  0  0  0  0  0  0
   16.3813   24.2319   28.2137 H   0  0  0  0  0  0  0  0  0  0  0  0
   18.3028   23.1249   27.0414 H   0  0  0  0  0  0  0  0  0  0  0  0
   20.6070   24.0906   27.1857 H   0  0  0  0  0  0  0  0  0  0  0  0
   16.5990   26.4589   30.6397 H   0  0  0  0  0  0  0  0  0  0  0  0
  1  2  2  0
  1  3  1  0
  1  4  1  0
  4  5  1  0
  4 12  2  0
  5  6  2  0
  5 10  1  0
  6  7  1  0
  7  8  2  0
  7 11  1  0
  8  9  1  0
  9 10  2  0
  3 13  1  0
  6 14  1  0
  8 15  1  0
  9 16  1  0
 10 17  1  0
 11 18  1  0
A    1
C8
A    2
O1
A    3
O2
A    4
C7
A    5
C1
A    6
C2
A    7
C3
A    8
C4
A    9
C5
A   10
C6
A   11
O3
A   12
O7
M  END
