2WBB_RO3_A_1336
     RDKit          3D

 30 31  0  0  0  0  0  0  0  0999 V2000
    5.1960  -15.5910    7.9160 C   0  0  0  0  0  0  0  0  0  0  0  0
    5.3350  -14.4510    7.1410 C   0  0  0  0  0  0  0  0  0  0  0  0
    4.6950  -16.7500   10.0740 C   0  0  0  0  0  0  0  0  0  0  0  0
    4.8350  -15.4950    9.2570 C   0  0  0  0  0  0  0  0  0  0  0  0
    7.4780  -10.8590    7.5200 C   0  0  0  0  0  0  0  0  0  0  0  0
    6.9980  -10.3970    8.5390 O   0  0  0  0  0  0  0  0  0  0  0  0
    8.7720  -10.6900    7.2190 N   0  0  0  0  0  0  0  0  0  0  0  0
    9.5840   -9.9180    7.9450 C   0  0  0  0  0  0  0  0  0  0  0  0
    4.7650  -12.0650    5.4910 O   0  0  0  0  0  0  0  0  0  0  0  0
   11.2170   -8.4600    8.3020 C   0  0  0  0  0  0  0  0  0  0  0  0
   10.6300   -8.6020    9.5140 C   0  0  0  0  0  0  0  0  0  0  0  0
    4.7120  -13.0970    9.0540 C   0  0  0  0  0  0  0  0  0  0  0  0
    4.5450  -10.7830    7.3600 O   0  0  0  0  0  0  0  0  0  0  0  0
   11.2740   -7.6460   11.0690 Br  0  0  0  0  0  0  0  0  0  0  0  0
    9.3990   -9.5990    9.4930 S   0  0  0  0  0  0  0  0  0  0  0  0
   10.5840   -9.2110    7.4210 N   0  0  0  0  0  0  0  0  0  0  0  0
    6.7500  -11.5770    6.6700 N   0  0  0  0  0  0  0  0  0  0  0  0
    5.2650  -11.8960    6.8220 S   0  0  0  0  0  0  0  0  0  0  0  0
    5.0840  -13.2030    7.7110 C   0  0  0  0  0  0  0  0  0  0  0  0
    4.5880  -14.2450    9.8300 C   0  0  0  0  0  0  0  0  0  0  0  0
    5.3723  -16.5800    7.4680 H   0  0  0  0  0  0  0  0  0  0  0  0
    5.6401  -14.5293    6.0871 H   0  0  0  0  0  0  0  0  0  0  0  0
    4.7233  -16.4961   11.1439 H   0  0  0  0  0  0  0  0  0  0  0  0
    3.7370  -17.2363    9.8378 H   0  0  0  0  0  0  0  0  0  0  0  0
    5.5222  -17.4355    9.8378 H   0  0  0  0  0  0  0  0  0  0  0  0
   12.0848   -7.8195    8.0860 H   0  0  0  0  0  0  0  0  0  0  0  0
    4.5178  -12.1087    9.4962 H   0  0  0  0  0  0  0  0  0  0  0  0
   10.8387   -9.2471    6.4236 H   0  0  0  0  0  0  0  0  0  0  0  0
    7.2290  -11.9498    5.8379 H   0  0  0  0  0  0  0  0  0  0  0  0
    4.2973  -14.1690   10.8882 H   0  0  0  0  0  0  0  0  0  0  0  0
  1  2  2  0
  1  4  1  0
  2 19  1  0
  3  4  1  0
  4 20  2  0
  5  6  2  0
  5  7  1  0
  5 17  1  0
  7  8  2  0
  8 15  1  0
  8 16  1  0
  9 18  2  0
 10 11  2  0
 10 16  1  0
 11 14  1  0
 11 15  1  0
 12 19  2  0
 12 20  1  0
 13 18  2  0
 17 18  1  0
 18 19  1  0
  1 21  1  0
  2 22  1  0
  3 23  1  0
  3 24  1  0
  3 25  1  0
 10 26  1  0
 12 27  1  0
 16 28  1  0
 17 29  1  0
 20 30  1  0
A    1
C5
A    2
C6
A    3
C9
A    4
C10
A    5
C1
A    6
O1
A    7
N1
A    8
C4
A    9
O3
A   10
C15
A   11
C14
A   12
C12
A   13
O2
A   14
BR2
A   15
S16
A   16
N17
A   17
N5
A   18
S2
A   19
C11
A   20
C8
M  END
