2WC3_AM3_A_1446
     RDKit          3D

 50 51  0  0  0  0  0  0  0  0999 V2000
    0.4080   -0.0410   11.7630 O   0  0  0  0  0  0  0  0  0  0  0  0
    1.6890    0.3380   11.2440 C   0  0  0  0  0  0  0  0  0  0  0  0
    1.8200    1.8740   11.1390 C   0  0  0  0  0  0  0  0  0  0  0  0
    0.6760    2.5940   10.3810 C   0  0  0  0  0  0  0  0  0  0  0  0
    0.3070    3.6430   11.3140 O   0  0  0  0  0  0  0  0  0  0  0  0
    2.8740   -0.1490   12.0980 C   0  0  0  0  0  0  0  0  0  0  0  0
    2.9070   -1.5580   12.1860 O   0  0  0  0  0  0  0  0  0  0  0  0
    2.9180    0.4130   13.5280 C   0  0  0  0  0  0  0  0  0  0  0  0
    4.2510    0.1860   14.0480 O   0  0  0  0  0  0  0  0  0  0  0  0
    2.6310    1.9250   13.5880 C   0  0  0  0  0  0  0  0  0  0  0  0
    1.7810    2.1770   14.6900 O   0  0  0  0  0  0  0  0  0  0  0  0
    1.8160    2.4440   12.4920 N   0  0  0  0  0  0  0  0  0  0  0  0
    0.9160    3.5260   12.5140 C   0  0  0  0  0  0  0  0  0  0  0  0
    0.6120    4.3240   13.5520 N   0  0  0  0  0  0  0  0  0  0  0  0
   -0.7070    4.7020   14.1310 C   0  0  0  0  0  0  0  0  0  0  0  0
   -1.0960    6.1100   13.7270 C   0  0  0  0  0  0  0  0  0  0  0  0
   -1.6840    6.9770   14.8290 C   0  0  0  0  0  0  0  0  0  0  0  0
   -3.1450    6.6770   15.1400 C   0  0  0  0  0  0  0  0  0  0  0  0
   -3.8480    7.9790   15.5160 C   0  0  0  0  0  0  0  0  0  0  0  0
   -5.1960    7.6560   16.1520 C   0  0  0  0  0  0  0  0  0  0  0  0
   -5.9040    8.9200   16.6040 C   0  0  0  0  0  0  0  0  0  0  0  0
   -6.7890    9.4530   15.4970 C   0  0  0  0  0  0  0  0  0  0  0  0
    0.4372   -0.0324   12.7525 H   0  0  0  0  0  0  0  0  0  0  0  0
    1.7349   -0.1432   10.2559 H   0  0  0  0  0  0  0  0  0  0  0  0
    2.7508    2.0332   10.5749 H   0  0  0  0  0  0  0  0  0  0  0  0
    1.0305    3.0137    9.4280 H   0  0  0  0  0  0  0  0  0  0  0  0
   -0.1585    1.9321   10.1062 H   0  0  0  0  0  0  0  0  0  0  0  0
    3.7530    0.2379   11.5616 H   0  0  0  0  0  0  0  0  0  0  0  0
    2.9133   -1.8291   13.1381 H   0  0  0  0  0  0  0  0  0  0  0  0
    2.1391   -0.0944   14.1161 H   0  0  0  0  0  0  0  0  0  0  0  0
    4.2244    0.1905   15.0376 H   0  0  0  0  0  0  0  0  0  0  0  0
    3.6299    2.3855   13.5982 H   0  0  0  0  0  0  0  0  0  0  0  0
    2.2799    2.0291   15.5322 H   0  0  0  0  0  0  0  0  0  0  0  0
   -1.4727    3.9999   13.7695 H   0  0  0  0  0  0  0  0  0  0  0  0
   -0.6322    4.6609   15.2277 H   0  0  0  0  0  0  0  0  0  0  0  0
   -0.1947    6.6130   13.3468 H   0  0  0  0  0  0  0  0  0  0  0  0
   -1.8945    5.9959   12.9791 H   0  0  0  0  0  0  0  0  0  0  0  0
   -1.0957    6.8186   15.7449 H   0  0  0  0  0  0  0  0  0  0  0  0
   -1.6413    8.0169   14.4730 H   0  0  0  0  0  0  0  0  0  0  0  0
   -3.6285    6.2387   14.2545 H   0  0  0  0  0  0  0  0  0  0  0  0
   -3.2095    5.9640   15.9752 H   0  0  0  0  0  0  0  0  0  0  0  0
   -3.2280    8.5383   16.2321 H   0  0  0  0  0  0  0  0  0  0  0  0
   -4.0019    8.5895   14.6140 H   0  0  0  0  0  0  0  0  0  0  0  0
   -5.8254    7.1357   15.4151 H   0  0  0  0  0  0  0  0  0  0  0  0
   -5.0234    7.0187   17.0318 H   0  0  0  0  0  0  0  0  0  0  0  0
   -6.5222    8.6939   17.4853 H   0  0  0  0  0  0  0  0  0  0  0  0
   -5.1505    9.6806   16.8563 H   0  0  0  0  0  0  0  0  0  0  0  0
   -7.6528    9.9732   15.9365 H   0  0  0  0  0  0  0  0  0  0  0  0
   -6.2152   10.1559   14.8751 H   0  0  0  0  0  0  0  0  0  0  0  0
   -7.1419    8.6171   14.8751 H   0  0  0  0  0  0  0  0  0  0  0  0
  1  2  1  0
  2  3  1  0
  3  4  1  0
  4  5  1  0
  2  6  1  0
  6  7  1  0
  6  8  1  0
  8  9  1  0
  8 10  1  0
 10 11  1  0
  3 12  1  0
 10 12  1  0
  5 13  1  0
 12 13  1  0
 13 14  2  0
 14 15  1  0
 15 16  1  0
 16 17  1  0
 17 18  1  0
 18 19  1  0
 19 20  1  0
 20 21  1  0
 21 22  1  0
  1 23  1  0
  2 24  1  0
  3 25  1  0
  4 26  1  0
  4 27  1  0
  6 28  1  0
  7 29  1  0
  8 30  1  0
  9 31  1  0
 10 32  1  0
 11 33  1  0
 15 34  1  0
 15 35  1  0
 16 36  1  0
 16 37  1  0
 17 38  1  0
 17 39  1  0
 18 40  1  0
 18 41  1  0
 19 42  1  0
 19 43  1  0
 20 44  1  0
 20 45  1  0
 21 46  1  0
 21 47  1  0
 22 48  1  0
 22 49  1  0
 22 50  1  0
A    1
O4
A    2
C4
A    3
C5
A    4
C6
A    5
O6
A    6
C3
A    7
O3
A    8
C2
A    9
O2
A   10
C1
A   11
O1
A   12
N1
A   13
C7
A   14
N2
A   15
C8
A   16
C9
A   17
C10
A   18
C11
A   19
C12
A   20
C13
A   21
C14
A   22
C15
M  END
