2WD3_MS4_A_1261
     RDKit          3D

 38 40  0  0  0  0  0  0  0  0999 V2000
  -15.3570   11.5170  -17.0620 S   0  0  0  0  0  0  0  0  0  0  0  0
  -14.0280   11.6180  -16.5390 O   0  0  0  0  0  0  0  0  0  0  0  0
  -15.6130   11.0990  -18.4290 O   0  0  0  0  0  0  0  0  0  0  0  0
  -16.3900   12.3520  -16.6420 O   0  0  0  0  0  0  0  0  0  0  0  0
  -15.8020   10.1600  -16.3340 N   0  0  0  0  0  0  0  0  0  0  0  0
  -16.5230   17.3560   -5.5350 N   0  0  0  0  0  0  0  0  0  0  0  0
  -17.3280   15.7710   -6.7710 N   0  0  0  0  0  0  0  0  0  0  0  0
  -16.1870   16.0450   -7.1710 N   0  0  0  0  0  0  0  0  0  0  0  0
  -18.3060   17.5710  -14.2610 N   0  0  0  0  0  0  0  0  0  0  0  0
  -17.5900   16.5750   -5.7360 C   0  0  0  0  0  0  0  0  0  0  0  0
  -15.6310   17.0140   -6.4520 C   0  0  0  0  0  0  0  0  0  0  0  0
  -16.1220   15.8410   -9.6530 C   0  0  0  0  0  0  0  0  0  0  0  0
  -16.7900   17.0660   -9.7480 C   0  0  0  0  0  0  0  0  0  0  0  0
  -17.3330   17.4740  -10.9590 C   0  0  0  0  0  0  0  0  0  0  0  0
  -17.2220   16.6660  -12.0880 C   0  0  0  0  0  0  0  0  0  0  0  0
  -16.5290   15.4360  -12.0080 C   0  0  0  0  0  0  0  0  0  0  0  0
  -15.9880   15.0220  -10.7850 C   0  0  0  0  0  0  0  0  0  0  0  0
  -17.8220   17.1550  -13.3060 C   0  0  0  0  0  0  0  0  0  0  0  0
  -14.9300   15.1510  -16.8460 Cl  0  0  0  0  0  0  0  0  0  0  0  0
  -15.8080   15.1650  -14.3070 C   0  0  0  0  0  0  0  0  0  0  0  0
  -15.7470   14.4300  -15.4860 C   0  0  0  0  0  0  0  0  0  0  0  0
  -16.3300   13.1520  -15.5240 C   0  0  0  0  0  0  0  0  0  0  0  0
  -16.9750   12.6760  -14.3950 C   0  0  0  0  0  0  0  0  0  0  0  0
  -17.0240   13.4030  -13.2110 C   0  0  0  0  0  0  0  0  0  0  0  0
  -15.5060   15.3970   -8.3090 C   0  0  0  0  0  0  0  0  0  0  0  0
  -16.4430   14.6610  -13.1660 C   0  0  0  0  0  0  0  0  0  0  0  0
  -15.7599   10.2884  -15.3129 H   0  0  0  0  0  0  0  0  0  0  0  0
  -16.7651    9.9219  -16.6107 H   0  0  0  0  0  0  0  0  0  0  0  0
  -18.5214   16.5915   -5.1511 H   0  0  0  0  0  0  0  0  0  0  0  0
  -14.6290   17.4462   -6.5908 H   0  0  0  0  0  0  0  0  0  0  0  0
  -16.8856   17.7085   -8.8603 H   0  0  0  0  0  0  0  0  0  0  0  0
  -17.8537   18.4406  -11.0271 H   0  0  0  0  0  0  0  0  0  0  0  0
  -15.4605   14.0596  -10.7115 H   0  0  0  0  0  0  0  0  0  0  0  0
  -15.3476   16.1633  -14.2704 H   0  0  0  0  0  0  0  0  0  0  0  0
  -17.4641   11.6916  -14.4362 H   0  0  0  0  0  0  0  0  0  0  0  0
  -17.5175   12.9854  -12.3211 H   0  0  0  0  0  0  0  0  0  0  0  0
  -14.4410   15.6720   -8.2939 H   0  0  0  0  0  0  0  0  0  0  0  0
  -15.6262   14.3078   -8.2131 H   0  0  0  0  0  0  0  0  0  0  0  0
  1  2  2  0
  1  3  2  0
  1  4  1  0
  1  5  1  0
  4 22  1  0
  6 10  1  0
  6 11  2  0
  7  8  1  0
  7 10  2  0
  8 11  1  0
  8 25  1  0
  9 18  3  0
 12 13  2  0
 12 17  1  0
 12 25  1  0
 13 14  1  0
 14 15  2  0
 15 16  1  0
 15 18  1  0
 16 17  2  0
 16 26  1  0
 19 21  1  0
 20 21  2  0
 20 26  1  0
 21 22  1  0
 22 23  2  0
 23 24  1  0
 24 26  2  0
  5 27  1  0
  5 28  1  0
 10 29  1  0
 11 30  1  0
 13 31  1  0
 14 32  1  0
 17 33  1  0
 20 34  1  0
 23 35  1  0
 24 36  1  0
 25 37  1  0
 25 38  1  0
A    1
S2
A    2
O1
A    3
O2
A    4
O3
A    5
N1
A    6
N3
A    7
N4
A    8
N5
A    9
N6
A   10
C1
A   11
C2
A   12
C3
A   13
C4
A   14
C5
A   15
C6
A   16
C7
A   17
C8
A   18
C9
A   19
CL
A   20
C12
A   21
C13
A   22
C14
A   23
C15
A   24
C16
A   25
CAO
A   26
CAV
M  END
