2WEA_PP6_A_326
     RDKit          3D

 71 74  0  0  0  0  0  0  0  0999 V2000
   18.3240    8.1940   19.2700 O   0  0  0  0  0  0  0  0  0  0  0  0
   20.6460    5.3500   19.3010 C   0  0  0  0  0  0  0  0  0  0  0  0
   20.4000    4.0190   19.5400 C   0  0  0  0  0  0  0  0  0  0  0  0
   21.3790    3.1650   20.0840 C   0  0  0  0  0  0  0  0  0  0  0  0
   22.5950    3.6380   20.5120 C   0  0  0  0  0  0  0  0  0  0  0  0
   22.8690    5.0540   20.3820 C   0  0  0  0  0  0  0  0  0  0  0  0
   21.9270    5.8920   19.7190 C   0  0  0  0  0  0  0  0  0  0  0  0
   22.2400    7.2810   19.5530 C   0  0  0  0  0  0  0  0  0  0  0  0
   23.4200    7.8350   20.0410 C   0  0  0  0  0  0  0  0  0  0  0  0
   24.3610    6.9950   20.6940 C   0  0  0  0  0  0  0  0  0  0  0  0
   24.0980    5.6450   20.8270 C   0  0  0  0  0  0  0  0  0  0  0  0
   19.5030    6.2380   18.8080 C   0  0  0  0  0  0  0  0  0  0  0  0
   19.0670    7.3220   19.7830 C   0  0  0  0  0  0  0  0  0  0  0  0
   23.6400    9.3370   19.9820 C   0  0  0  0  0  0  0  0  0  0  0  0
   22.9820   10.0360   21.2190 C   0  0  0  0  0  0  0  0  0  0  0  0
   19.5730    7.3950   21.0100 N   0  0  0  0  0  0  0  0  0  0  0  0
   19.4800    8.5420   21.9310 C   0  0  0  0  0  0  0  0  0  0  0  0
   21.0040    8.8630   22.0560 C   0  0  0  0  0  0  0  0  0  0  0  0
   21.6090    8.2350   22.9450 O   0  0  0  0  0  0  0  0  0  0  0  0
   18.7350    8.2860   23.2190 C   0  0  0  0  0  0  0  0  0  0  0  0
   18.7460    9.6160   23.9800 C   0  0  0  0  0  0  0  0  0  0  0  0
   17.3240    7.8260   22.7770 C   0  0  0  0  0  0  0  0  0  0  0  0
   21.5280    9.7910   21.2620 N   0  0  0  0  0  0  0  0  0  0  0  0
   23.3010   11.8140   21.1240 P   0  0  0  0  0  0  0  0  0  0  0  0
   24.7480   12.0480   20.9510 O   0  0  0  0  0  0  0  0  0  0  0  0
   22.5020   12.4680   20.0940 O   0  0  0  0  0  0  0  0  0  0  0  0
   23.5590   13.4510   23.1560 C   0  0  0  0  0  0  0  0  0  0  0  0
   22.4750   14.4860   23.5190 C   0  0  0  0  0  0  0  0  0  0  0  0
   21.4740   13.9950   24.5040 C   0  0  0  0  0  0  0  0  0  0  0  0
   20.4650   13.1320   24.1330 C   0  0  0  0  0  0  0  0  0  0  0  0
   21.5310   14.4310   25.8010 C   0  0  0  0  0  0  0  0  0  0  0  0
   19.5650   12.6670   25.0680 C   0  0  0  0  0  0  0  0  0  0  0  0
   20.6380   13.9810   26.7540 C   0  0  0  0  0  0  0  0  0  0  0  0
   19.5870   13.1550   26.3720 C   0  0  0  0  0  0  0  0  0  0  0  0
   24.1510   12.8390   24.4310 C   0  0  0  0  0  0  0  0  0  0  0  0
   25.5120   13.4710   26.2230 C   0  0  0  0  0  0  0  0  0  0  0  0
   22.9760   12.2920   22.5840 O   0  0  0  0  0  0  0  0  0  0  0  0
   24.7450   13.8440   25.0500 O   0  0  0  0  0  0  0  0  0  0  0  0
   24.4250   11.6840   24.6420 O   0  0  0  0  0  0  0  0  0  0  0  0
   19.4084    3.6083   19.2991 H   0  0  0  0  0  0  0  0  0  0  0  0
   21.1636    2.0896   20.1683 H   0  0  0  0  0  0  0  0  0  0  0  0
   23.3435    2.9572   20.9435 H   0  0  0  0  0  0  0  0  0  0  0  0
   21.5258    7.9289   19.0238 H   0  0  0  0  0  0  0  0  0  0  0  0
   25.2953    7.4174   21.0922 H   0  0  0  0  0  0  0  0  0  0  0  0
   24.8587    5.0000   21.2910 H   0  0  0  0  0  0  0  0  0  0  0  0
   19.8268    6.7261   17.8769 H   0  0  0  0  0  0  0  0  0  0  0  0
   18.6344    5.5765   18.6738 H   0  0  0  0  0  0  0  0  0  0  0  0
   24.7202    9.5450   19.9807 H   0  0  0  0  0  0  0  0  0  0  0  0
   23.1776    9.7288   19.0640 H   0  0  0  0  0  0  0  0  0  0  0  0
   23.4211    9.6180   22.1369 H   0  0  0  0  0  0  0  0  0  0  0  0
   20.0812    6.5667   21.3515 H   0  0  0  0  0  0  0  0  0  0  0  0
   18.8626    9.3828   21.5819 H   0  0  0  0  0  0  0  0  0  0  0  0
   19.1601    7.5194   23.8836 H   0  0  0  0  0  0  0  0  0  0  0  0
   18.7444    9.4192   25.0623 H   0  0  0  0  0  0  0  0  0  0  0  0
   19.6489   10.1843   23.7120 H   0  0  0  0  0  0  0  0  0  0  0  0
   17.8526   10.1992   23.7120 H   0  0  0  0  0  0  0  0  0  0  0  0
   16.7085    7.6253   23.6663 H   0  0  0  0  0  0  0  0  0  0  0  0
   16.8522    8.6169   22.1754 H   0  0  0  0  0  0  0  0  0  0  0  0
   17.4090    6.9090   22.1754 H   0  0  0  0  0  0  0  0  0  0  0  0
   20.9050   10.3516   20.6633 H   0  0  0  0  0  0  0  0  0  0  0  0
   24.2702   13.9838   22.5077 H   0  0  0  0  0  0  0  0  0  0  0  0
   22.9708   15.3720   23.9424 H   0  0  0  0  0  0  0  0  0  0  0  0
   21.9260   14.7095   22.5924 H   0  0  0  0  0  0  0  0  0  0  0  0
   20.3775   12.8124   23.0841 H   0  0  0  0  0  0  0  0  0  0  0  0
   22.3057   15.1562   26.0905 H   0  0  0  0  0  0  0  0  0  0  0  0
   18.8246   11.9054   24.7821 H   0  0  0  0  0  0  0  0  0  0  0  0
   20.7576   14.2741   27.8075 H   0  0  0  0  0  0  0  0  0  0  0  0
   18.7906   12.8928   27.0840 H   0  0  0  0  0  0  0  0  0  0  0  0
   24.9516   13.7435   27.1295 H   0  0  0  0  0  0  0  0  0  0  0  0
   25.6903   12.3856   26.2146 H   0  0  0  0  0  0  0  0  0  0  0  0
   26.4759   14.0010   26.2146 H   0  0  0  0  0  0  0  0  0  0  0  0
  1 13  2  0
  2  3  2  0
  2  7  1  0
  2 12  1  0
  3  4  1  0
  4  5  2  0
  5  6  1  0
  6  7  2  0
  6 11  1  0
  7  8  1  0
  8  9  2  0
  9 10  1  0
  9 14  1  0
 10 11  2  0
 12 13  1  0
 13 16  1  0
 14 15  1  0
 15 23  1  0
 15 24  1  0
 16 17  1  0
 17 18  1  0
 17 20  1  0
 18 19  2  0
 18 23  1  0
 20 21  1  0
 20 22  1  0
 24 25  2  0
 24 26  1  0
 24 37  1  0
 27 28  1  0
 27 35  1  0
 27 37  1  0
 28 29  1  0
 29 30  2  0
 29 31  1  0
 30 32  1  0
 31 33  2  0
 32 34  2  0
 33 34  1  0
 35 38  1  0
 35 39  2  0
 36 38  1  0
  3 40  1  0
  4 41  1  0
  5 42  1  0
  8 43  1  0
 10 44  1  0
 11 45  1  0
 12 46  1  0
 12 47  1  0
 14 48  1  0
 14 49  1  0
 15 50  1  0
 16 51  1  0
 17 52  1  0
 20 53  1  0
 21 54  1  0
 21 55  1  0
 21 56  1  0
 22 57  1  0
 22 58  1  0
 22 59  1  0
 23 60  1  0
 27 61  1  0
 28 62  1  0
 28 63  1  0
 30 64  1  0
 31 65  1  0
 32 66  1  0
 33 67  1  0
 34 68  1  0
 36 69  1  0
 36 70  1  0
 36 71  1  0
M  CHG  1  26  -1
A    1
OI
A    2
C1
A    3
C2
A    4
C3
A    5
C4
A    6
C5
A    7
C6
A    8
C7
A    9
C8
A   10
C9
A   11
C10
A   12
C11
A   13
C12
A   14
C13
A   15
C14
A   16
NV
A   17
CAV
A   18
CV
A   19
OV
A   20
CBV
A   21
CV1
A   22
CV2
A   23
NL
A   24
P
A   25
O
A   26
OH
A   27
CA
A   28
CB
A   29
CG
A   30
CD1
A   31
CD2
A   32
CE1
A   33
CE2
A   34
CZ
A   35
C
A   36
CS
A   37
OP
A   38
OS
A   39
OE
M  END
