2WEY_EV1_A_1771
     RDKit          3D

 46 48  0  0  0  0  0  0  0  0999 V2000
  -10.8550  -28.8440   35.4010 C   0  0  0  0  0  0  0  0  0  0  0  0
   -9.4850  -28.4850   35.2120 O   0  0  0  0  0  0  0  0  0  0  0  0
   -8.4470  -29.3780   35.0680 C   0  0  0  0  0  0  0  0  0  0  0  0
   -8.3790  -30.6490   35.8540 C   0  0  0  0  0  0  0  0  0  0  0  0
   -9.3750  -30.9920   36.7430 O   0  0  0  0  0  0  0  0  0  0  0  0
   -9.1380  -31.8070   37.8950 C   0  0  0  0  0  0  0  0  0  0  0  0
   -7.2830  -31.4880   35.6520 C   0  0  0  0  0  0  0  0  0  0  0  0
   -6.2830  -31.1370   34.7440 C   0  0  0  0  0  0  0  0  0  0  0  0
   -7.4120  -29.0700   34.1770 C   0  0  0  0  0  0  0  0  0  0  0  0
   -6.3330  -29.9430   34.0200 C   0  0  0  0  0  0  0  0  0  0  0  0
   -5.2030  -29.6460   33.0510 C   0  0  0  0  0  0  0  0  0  0  0  0
   -4.3500  -28.4280   33.3700 C   0  0  0  0  0  0  0  0  0  0  0  0
   -4.0100  -27.6120   32.3380 N   0  0  0  0  0  0  0  0  0  0  0  0
   -3.2490  -26.5100   32.4930 C   0  0  0  0  0  0  0  0  0  0  0  0
   -2.7390  -26.1070   33.7300 C   0  0  0  0  0  0  0  0  0  0  0  0
   -3.0040  -26.8550   34.8720 C   0  0  0  0  0  0  0  0  0  0  0  0
   -3.8380  -28.0840   34.7390 C   0  0  0  0  0  0  0  0  0  0  0  0
   -4.1120  -28.8400   35.8720 C   0  0  0  0  0  0  0  0  0  0  0  0
   -3.6140  -28.4630   37.1170 C   0  0  0  0  0  0  0  0  0  0  0  0
   -3.9060  -29.2310   38.2190 O   0  0  0  0  0  0  0  0  0  0  0  0
   -3.7490  -30.6510   38.2070 C   0  0  0  0  0  0  0  0  0  0  0  0
   -2.7840  -27.2240   37.2500 C   0  0  0  0  0  0  0  0  0  0  0  0
   -2.5060  -26.4630   36.1120 C   0  0  0  0  0  0  0  0  0  0  0  0
   -2.2870  -26.8590   38.4860 O   0  0  0  0  0  0  0  0  0  0  0  0
   -2.1940  -25.4990   38.9180 C   0  0  0  0  0  0  0  0  0  0  0  0
  -11.0739  -28.9014   36.4775 H   0  0  0  0  0  0  0  0  0  0  0  0
  -11.5006  -28.0847   34.9355 H   0  0  0  0  0  0  0  0  0  0  0  0
  -11.0453  -29.8223   34.9355 H   0  0  0  0  0  0  0  0  0  0  0  0
   -9.3104  -31.2141   38.8054 H   0  0  0  0  0  0  0  0  0  0  0  0
   -9.8231  -32.6675   37.8826 H   0  0  0  0  0  0  0  0  0  0  0  0
   -8.0983  -32.1659   37.8826 H   0  0  0  0  0  0  0  0  0  0  0  0
   -7.2065  -32.4319   36.2117 H   0  0  0  0  0  0  0  0  0  0  0  0
   -5.4327  -31.8186   34.5943 H   0  0  0  0  0  0  0  0  0  0  0  0
   -7.4487  -28.1357   33.5976 H   0  0  0  0  0  0  0  0  0  0  0  0
   -4.5403  -30.5237   33.0285 H   0  0  0  0  0  0  0  0  0  0  0  0
   -5.6893  -29.4223   32.0900 H   0  0  0  0  0  0  0  0  0  0  0  0
   -3.0193  -25.9010   31.6062 H   0  0  0  0  0  0  0  0  0  0  0  0
   -2.1265  -25.1960   33.8006 H   0  0  0  0  0  0  0  0  0  0  0  0
   -4.7291  -29.7464   35.7849 H   0  0  0  0  0  0  0  0  0  0  0  0
   -3.7078  -31.0241   39.2410 H   0  0  0  0  0  0  0  0  0  0  0  0
   -4.6019  -31.1098   37.6854 H   0  0  0  0  0  0  0  0  0  0  0  0
   -2.8165  -30.9124   37.6854 H   0  0  0  0  0  0  0  0  0  0  0  0
   -1.8932  -25.5533   36.1955 H   0  0  0  0  0  0  0  0  0  0  0  0
   -2.1915  -25.4629   40.0174 H   0  0  0  0  0  0  0  0  0  0  0  0
   -1.2634  -25.0553   38.5345 H   0  0  0  0  0  0  0  0  0  0  0  0
   -3.0555  -24.9327   38.5345 H   0  0  0  0  0  0  0  0  0  0  0  0
  1  2  1  0
  2  3  1  0
  3  4  2  0
  3  9  1  0
  4  5  1  0
  4  7  1  0
  5  6  1  0
  7  8  2  0
  8 10  1  0
  9 10  2  0
 10 11  1  0
 11 12  1  0
 12 13  2  0
 12 17  1  0
 13 14  1  0
 14 15  2  0
 15 16  1  0
 16 17  2  0
 16 23  1  0
 17 18  1  0
 18 19  2  0
 19 20  1  0
 19 22  1  0
 20 21  1  0
 22 23  2  0
 22 24  1  0
 24 25  1  0
  1 26  1  0
  1 27  1  0
  1 28  1  0
  6 29  1  0
  6 30  1  0
  6 31  1  0
  7 32  1  0
  8 33  1  0
  9 34  1  0
 11 35  1  0
 11 36  1  0
 14 37  1  0
 15 38  1  0
 18 39  1  0
 21 40  1  0
 21 41  1  0
 21 42  1  0
 23 43  1  0
 25 44  1  0
 25 45  1  0
 25 46  1  0
A    1
C25
A    2
O24
A    3
C16
A    4
C15
A    5
O22
A    6
C23
A    7
C14
A    8
C13
A    9
C17
A   10
C12
A   11
C11
A   12
C10
A   13
N9
A   14
C8
A   15
C7
A   16
C2
A   17
C3
A   18
C4
A   19
C5
A   20
O20
A   21
C21
A   22
C6
A   23
C1
A   24
O18
A   25
C19
M  END
