1E77_BG6_A_801
     RDKit          3D

 29 29  0  0  0  0  0  0  0  0999 V2000
   78.6790   -5.5330   27.5410 C   0  0  0  0  0  0  0  0  0  0  0  0
   77.9870   -5.6930   28.9030 C   0  0  0  0  0  0  0  0  0  0  0  0
   79.1160   -4.2260   27.4010 O   0  0  0  0  0  0  0  0  0  0  0  0
   77.7550   -5.7910   26.4700 O   0  0  0  0  0  0  0  0  0  0  0  0
   77.3490   -7.0780   29.0270 C   0  0  0  0  0  0  0  0  0  0  0  0
   78.9250   -5.4900   29.9490 O   0  0  0  0  0  0  0  0  0  0  0  0
   76.4020   -7.2940   27.8440 C   0  0  0  0  0  0  0  0  0  0  0  0
   76.6330   -7.1750   30.2540 O   0  0  0  0  0  0  0  0  0  0  0  0
   77.1670   -7.1110   26.5300 C   0  0  0  0  0  0  0  0  0  0  0  0
   75.8420   -8.5990   27.8940 O   0  0  0  0  0  0  0  0  0  0  0  0
   76.2810   -7.2660   25.3050 C   0  0  0  0  0  0  0  0  0  0  0  0
   77.0240   -6.9170   24.1210 O   0  0  0  0  0  0  0  0  0  0  0  0
   77.2180   -7.9500   22.8910 P   0  0  0  0  0  0  0  0  0  0  0  0
   77.2390   -9.2920   23.5240 O   0  0  0  0  0  0  0  0  0  0  0  0
   78.4940   -7.4210   22.3500 O   0  0  0  0  0  0  0  0  0  0  0  0
   76.0560   -7.6760   22.0250 O   0  0  0  0  0  0  0  0  0  0  0  0
   79.5170   -6.2442   27.4971 H   0  0  0  0  0  0  0  0  0  0  0  0
   77.1907   -4.9382   28.9819 H   0  0  0  0  0  0  0  0  0  0  0  0
   79.2500   -3.8252   28.2963 H   0  0  0  0  0  0  0  0  0  0  0  0
   78.1315   -7.8511   29.0184 H   0  0  0  0  0  0  0  0  0  0  0  0
   78.4709   -5.5883   30.8232 H   0  0  0  0  0  0  0  0  0  0  0  0
   75.5888   -6.5553   27.9001 H   0  0  0  0  0  0  0  0  0  0  0  0
   77.2641   -7.0895   31.0120 H   0  0  0  0  0  0  0  0  0  0  0  0
   77.9361   -7.8974   26.5181 H   0  0  0  0  0  0  0  0  0  0  0  0
   75.7249   -8.8719   28.8384 H   0  0  0  0  0  0  0  0  0  0  0  0
   75.9412   -8.3095   25.2291 H   0  0  0  0  0  0  0  0  0  0  0  0
   75.4106   -6.5999   25.3984 H   0  0  0  0  0  0  0  0  0  0  0  0
   77.2374   -9.1923   24.5090 H   0  0  0  0  0  0  0  0  0  0  0  0
   79.0923   -7.1730   23.0988 H   0  0  0  0  0  0  0  0  0  0  0  0
  1  2  1  0
  1  3  1  0
  1  4  1  0
  2  5  1  0
  2  6  1  0
  4  9  1  0
  5  7  1  0
  5  8  1  0
  7  9  1  0
  7 10  1  0
  9 11  1  0
 11 12  1  0
 12 13  1  0
 13 14  1  0
 13 15  1  0
 13 16  2  0
  1 17  1  0
  2 18  1  0
  3 19  1  0
  5 20  1  0
  6 21  1  0
  7 22  1  0
  8 23  1  0
  9 24  1  0
 10 25  1  0
 11 26  1  0
 11 27  1  0
 14 28  1  0
 15 29  1  0
A    1
C1
A    2
C2
A    3
O1
A    4
O5
A    5
C3
A    6
O2
A    7
C4
A    8
O3
A    9
C5
A   10
O4
A   11
C6
A   12
O6
A   13
P
A   14
O1P
A   15
O2P
A   16
O3P
M  END
