2WHR_K27_A_1543
     RDKit          3D

 39 40  0  0  0  0  0  0  0  0999 V2000
   31.2660   23.3280    9.7210 C   0  0  0  0  0  0  0  0  0  0  0  0
   27.8450   21.4780   11.3800 C   0  0  0  0  0  0  0  0  0  0  0  0
   24.8080   20.5980   13.2860 O   0  0  0  0  0  0  0  0  0  0  0  0
   25.9390   21.2820   12.8400 N   0  0  0  0  0  0  0  0  0  0  0  0
   26.6320   20.7990   11.9010 C   0  0  0  0  0  0  0  0  0  0  0  0
   28.1680   21.3340   10.0370 C   0  0  0  0  0  0  0  0  0  0  0  0
   29.2980   21.9640    9.5290 C   0  0  0  0  0  0  0  0  0  0  0  0
   30.0960   22.6870   10.3260 N   0  0  0  0  0  0  0  0  0  0  0  0
   29.8110   22.8460   11.6310 C   0  0  0  0  0  0  0  0  0  0  0  0
   28.6830   22.2430   12.1910 C   0  0  0  0  0  0  0  0  0  0  0  0
   32.4910   22.4480    9.8770 C   0  0  0  0  0  0  0  0  0  0  0  0
   33.6850   23.0280    9.1360 C   0  0  0  0  0  0  0  0  0  0  0  0
   34.8140   22.1520    9.4350 N   0  0  0  0  0  0  0  0  0  0  0  0
   35.0670   21.1290    8.6070 C   0  0  0  0  0  0  0  0  0  0  0  0
   36.1310   20.2680    8.8540 C   0  0  0  0  0  0  0  0  0  0  0  0
   36.9270   20.4690    9.9740 C   0  0  0  0  0  0  0  0  0  0  0  0
   36.6530   21.5440   10.8150 C   0  0  0  0  0  0  0  0  0  0  0  0
   35.5750   22.3790   10.5190 C   0  0  0  0  0  0  0  0  0  0  0  0
   38.0710   19.5390   10.2450 C   0  0  0  0  0  0  0  0  0  0  0  0
   39.1960   19.9980   10.7950 N   0  0  0  0  0  0  0  0  0  0  0  0
   37.9180   18.3550   10.0000 O   0  0  0  0  0  0  0  0  0  0  0  0
   31.0744   23.4960    8.6509 H   0  0  0  0  0  0  0  0  0  0  0  0
   31.4490   24.2871   10.2275 H   0  0  0  0  0  0  0  0  0  0  0  0
   24.6412   20.4971   14.2566 H   0  0  0  0  0  0  0  0  0  0  0  0
   26.3261   19.8418   11.4536 H   0  0  0  0  0  0  0  0  0  0  0  0
   27.5324   20.7241    9.3782 H   0  0  0  0  0  0  0  0  0  0  0  0
   29.5399   21.8678    8.4602 H   0  0  0  0  0  0  0  0  0  0  0  0
   30.4727   23.4567   12.2628 H   0  0  0  0  0  0  0  0  0  0  0  0
   28.4577   22.3699   13.2602 H   0  0  0  0  0  0  0  0  0  0  0  0
   32.7384   22.3642   10.9455 H   0  0  0  0  0  0  0  0  0  0  0  0
   32.2649   21.4591    9.4515 H   0  0  0  0  0  0  0  0  0  0  0  0
   33.4910   23.0440    8.0534 H   0  0  0  0  0  0  0  0  0  0  0  0
   33.8868   24.0632    9.4486 H   0  0  0  0  0  0  0  0  0  0  0  0
   34.4285   20.9691    7.7256 H   0  0  0  0  0  0  0  0  0  0  0  0
   36.3403   19.4344    8.1675 H   0  0  0  0  0  0  0  0  0  0  0  0
   37.2777   21.7325   11.7006 H   0  0  0  0  0  0  0  0  0  0  0  0
   35.3464   23.2296   11.1780 H   0  0  0  0  0  0  0  0  0  0  0  0
   39.2898   20.0363   11.8200 H   0  0  0  0  0  0  0  0  0  0  0  0
   39.9710   20.3142   10.1947 H   0  0  0  0  0  0  0  0  0  0  0  0
  1  8  1  0
  1 11  1  0
  2  5  1  0
  2  6  2  0
  2 10  1  0
  3  4  1  0
  4  5  2  0
  6  7  1  0
  7  8  2  0
  8  9  1  0
  9 10  2  0
 11 12  1  0
 12 13  1  0
 13 14  2  0
 13 18  1  0
 14 15  1  0
 15 16  2  0
 16 17  1  0
 16 19  1  0
 17 18  2  0
 19 20  1  0
 19 21  2  0
  1 22  1  0
  1 23  1  0
  3 24  1  0
  5 25  1  0
  6 26  1  0
  7 27  1  0
  9 28  1  0
 10 29  1  0
 11 30  1  0
 11 31  1  0
 12 32  1  0
 12 33  1  0
 14 34  1  0
 15 35  1  0
 17 36  1  0
 18 37  1  0
 20 38  1  0
 20 39  1  0
M  CHG  2   8   1  13   1
A    1
C1
A    2
C5A
A    3
O10
A    4
N9
A    5
C8
A    6
C4
A    7
C3
A    8
N2
A    9
C7
A   10
C6
A   11
C2
A   12
C5
A   13
N8
A   14
C9
A   15
C10
A   16
C11
A   17
C12
A   18
C13
A   19
C14
A   20
N15
A   21
O3
M  END
