2WI5_ZZ5_A_1225
     RDKit          3D

 40 42  0  0  0  0  0  0  0  0999 V2000
   31.9090   11.8660   21.6460 N   0  0  0  0  0  0  0  0  0  0  0  0
   31.6460   11.3750   22.6610 C   0  0  0  0  0  0  0  0  0  0  0  0
   31.3540   10.8300   23.7880 C   0  0  0  0  0  0  0  0  0  0  0  0
   29.9940   10.9960   24.3770 C   0  0  0  0  0  0  0  0  0  0  0  0
   29.0690   11.7290   23.7110 N   0  0  0  0  0  0  0  0  0  0  0  0
   29.6630   10.4300   25.5650 N   0  0  0  0  0  0  0  0  0  0  0  0
   30.5440    9.6850   26.2810 C   0  0  0  0  0  0  0  0  0  0  0  0
   30.1580    8.9680   27.7650 S   0  0  0  0  0  0  0  0  0  0  0  0
   31.7160    8.2410   28.0130 C   0  0  0  0  0  0  0  0  0  0  0  0
   32.0050    7.4280   29.2280 C   0  0  0  0  0  0  0  0  0  0  0  0
   30.9910    7.0510   30.0050 N   0  0  0  0  0  0  0  0  0  0  0  0
   33.1590    7.1260   29.4850 O   0  0  0  0  0  0  0  0  0  0  0  0
   32.5890    8.5860   26.8570 C   0  0  0  0  0  0  0  0  0  0  0  0
   33.8720    8.1630   26.7600 N   0  0  0  0  0  0  0  0  0  0  0  0
   31.9390    9.4370   25.8110 C   0  0  0  0  0  0  0  0  0  0  0  0
   32.3650   10.0280   24.5190 C   0  0  0  0  0  0  0  0  0  0  0  0
   33.7370    9.8250   23.9830 C   0  0  0  0  0  0  0  0  0  0  0  0
   34.6250   10.8930   23.9250 C   0  0  0  0  0  0  0  0  0  0  0  0
   35.9080   10.7040   23.4250 C   0  0  0  0  0  0  0  0  0  0  0  0
   34.1320    8.5680   23.5410 C   0  0  0  0  0  0  0  0  0  0  0  0
   35.4150    8.3790   23.0400 C   0  0  0  0  0  0  0  0  0  0  0  0
   36.3030    9.4470   22.9820 C   0  0  0  0  0  0  0  0  0  0  0  0
   37.5670    9.2610   22.4890 O   0  0  0  0  0  0  0  0  0  0  0  0
   38.2400   10.3310   21.8290 C   0  0  0  0  0  0  0  0  0  0  0  0
   39.6780   10.3870   22.2980 C   0  0  0  0  0  0  0  0  0  0  0  0
   28.3739   12.2798   24.2348 H   0  0  0  0  0  0  0  0  0  0  0  0
   29.0611   11.7353   22.6810 H   0  0  0  0  0  0  0  0  0  0  0  0
   31.0867    7.0866   31.0299 H   0  0  0  0  0  0  0  0  0  0  0  0
   30.1112    6.7239   29.5809 H   0  0  0  0  0  0  0  0  0  0  0  0
   34.4205    7.9822   27.6128 H   0  0  0  0  0  0  0  0  0  0  0  0
   34.2992    8.0222   25.8334 H   0  0  0  0  0  0  0  0  0  0  0  0
   34.3122   11.8879   24.2749 H   0  0  0  0  0  0  0  0  0  0  0  0
   36.6108   11.5490   23.3798 H   0  0  0  0  0  0  0  0  0  0  0  0
   33.4296    7.7227   23.5876 H   0  0  0  0  0  0  0  0  0  0  0  0
   35.7275    7.3843   22.6895 H   0  0  0  0  0  0  0  0  0  0  0  0
   38.2149   10.1651   20.7419 H   0  0  0  0  0  0  0  0  0  0  0  0
   37.7393   11.2813   22.0661 H   0  0  0  0  0  0  0  0  0  0  0  0
   39.7052   10.3881   23.3977 H   0  0  0  0  0  0  0  0  0  0  0  0
   40.2219    9.5094   21.9186 H   0  0  0  0  0  0  0  0  0  0  0  0
   40.1520   11.3043   21.9186 H   0  0  0  0  0  0  0  0  0  0  0  0
  1  2  3  0
  2  3  1  0
  3  4  2  0
  3 16  1  0
  4  5  1  0
  4  6  1  0
  6  7  2  0
  7  8  1  0
  7 15  1  0
  8  9  1  0
  9 10  1  0
  9 13  2  0
 10 11  1  0
 10 12  2  0
 13 14  1  0
 13 15  1  0
 15 16  2  0
 16 17  1  0
 17 18  2  0
 17 20  1  0
 18 19  1  0
 19 22  2  0
 20 21  2  0
 21 22  1  0
 22 23  1  0
 23 24  1  0
 24 25  1  0
  5 26  1  0
  5 27  1  0
 11 28  1  0
 11 29  1  0
 14 30  1  0
 14 31  1  0
 18 32  1  0
 19 33  1  0
 20 34  1  0
 21 35  1  0
 24 36  1  0
 24 37  1  0
 25 38  1  0
 25 39  1  0
 25 40  1  0
A    1
N19
A    2
C14
A    3
C6
A    4
C13
A    5
N18
A    6
N8
A    7
C3
A    8
S7
A    9
C9
A   10
C15
A   11
N20
A   12
O21
A   13
C4
A   14
N10
A   15
C1
A   16
C2
A   17
C5
A   18
C12
A   19
C17
A   20
C11
A   21
C16
A   22
C22
A   23
O23
A   24
C24
A   25
C25
M  END
