2WJ6_ZZ8_A_1284
     RDKit          3D

 22 22  0  0  0  0  0  0  0  0999 V2000
    7.9430   73.6330   23.8490 O   0  0  0  0  0  0  0  0  0  0  0  0
    8.4410   73.5660   22.7370 C   0  0  0  0  0  0  0  0  0  0  0  0
    9.8430   73.0130   22.6120 C   0  0  0  0  0  0  0  0  0  0  0  0
    7.9350   73.9530   21.5560 N   0  0  0  0  0  0  0  0  0  0  0  0
    6.8090   74.6610   21.2790 C   0  0  0  0  0  0  0  0  0  0  0  0
    6.9060   75.5440   20.1830 C   0  0  0  0  0  0  0  0  0  0  0  0
    5.8640   76.3950   19.8200 C   0  0  0  0  0  0  0  0  0  0  0  0
    4.6830   76.4300   20.5740 C   0  0  0  0  0  0  0  0  0  0  0  0
    4.5330   75.5910   21.6770 C   0  0  0  0  0  0  0  0  0  0  0  0
    5.5520   74.7080   22.0650 C   0  0  0  0  0  0  0  0  0  0  0  0
    5.3250   73.7530   23.1860 C   0  0  0  0  0  0  0  0  0  0  0  0
    4.8130   74.0540   24.2670 O   0  0  0  0  0  0  0  0  0  0  0  0
    5.6490   72.5480   22.9200 O   0  0  0  0  0  0  0  0  0  0  0  0
   10.2627   72.8475   23.6152 H   0  0  0  0  0  0  0  0  0  0  0  0
    9.8135   72.0591   22.0649 H   0  0  0  0  0  0  0  0  0  0  0  0
   10.4726   73.7301   22.0649 H   0  0  0  0  0  0  0  0  0  0  0  0
    8.4850   73.6696   20.7325 H   0  0  0  0  0  0  0  0  0  0  0  0
    7.8356   75.5613   19.5951 H   0  0  0  0  0  0  0  0  0  0  0  0
    5.9689   77.0427   18.9371 H   0  0  0  0  0  0  0  0  0  0  0  0
    3.8734   77.1205   20.2950 H   0  0  0  0  0  0  0  0  0  0  0  0
    3.5973   75.6218   22.2546 H   0  0  0  0  0  0  0  0  0  0  0  0
    5.8211   71.9079   23.6553 H   0  0  0  0  0  0  0  0  0  0  0  0
  1  2  2  0
  2  3  1  0
  2  4  1  0
  4  5  1  0
  5  6  2  0
  5 10  1  0
  6  7  1  0
  7  8  2  0
  8  9  1  0
  9 10  2  0
 10 11  1  0
 11 12  2  0
 11 13  1  0
  3 14  1  0
  3 15  1  0
  3 16  1  0
  4 17  1  0
  6 18  1  0
  7 19  1  0
  8 20  1  0
  9 21  1  0
 13 22  1  0
A    1
O21
A    2
C8
A    3
C11
A    4
N7
A    5
C6
A    6
C1
A    7
C2
A    8
C3
A    9
C4
A   10
C5
A   11
C10
A   12
O12
A   13
O13
M  END
