2WJP_D17_A_1441
     RDKit          3D

 55 57  0  0  0  0  0  0  0  0999 V2000
    0.3660   38.2380  116.8750 O   0  0  0  0  0  0  0  0  0  0  0  0
    1.1810   38.3080  115.9500 C   0  0  0  0  0  0  0  0  0  0  0  0
    1.3870   37.4920  114.9960 O   0  0  0  0  0  0  0  0  0  0  0  0
    1.8200   39.7090  115.9090 C   0  0  0  0  0  0  0  0  0  0  0  0
    3.2450   39.7140  115.4540 C   0  0  0  0  0  0  0  0  0  0  0  0
    4.1180   40.4510  116.4640 C   0  0  0  0  0  0  0  0  0  0  0  0
    5.5490   40.2530  116.0860 C   0  0  0  0  0  0  0  0  0  0  0  0
    5.7350   39.7860  114.9350 O   0  0  0  0  0  0  0  0  0  0  0  0
    6.2810   40.1270  117.0820 O   0  0  0  0  0  0  0  0  0  0  0  0
    3.7930   41.8490  116.8240 N   0  0  0  0  0  0  0  0  0  0  0  0
    4.4710   42.9510  116.5140 C   0  0  0  0  0  0  0  0  0  0  0  0
    5.2750   43.0770  115.5950 O   0  0  0  0  0  0  0  0  0  0  0  0
    4.0290   44.1760  117.3050 C   0  0  0  0  0  0  0  0  0  0  0  0
    2.8050   44.1640  117.9710 C   0  0  0  0  0  0  0  0  0  0  0  0
    4.8620   45.2910  117.3230 C   0  0  0  0  0  0  0  0  0  0  0  0
    4.4500   46.3960  118.0550 C   0  0  0  0  0  0  0  0  0  0  0  0
    3.2480   46.3690  118.7510 C   0  0  0  0  0  0  0  0  0  0  0  0
    2.4020   45.2690  118.7100 C   0  0  0  0  0  0  0  0  0  0  0  0
    1.1160   45.2040  119.5430 C   0  0  0  0  0  0  0  0  0  0  0  0
    0.4190   46.5110  119.5530 N   0  0  0  0  0  0  0  0  0  0  0  0
   -0.0290   47.1100  118.4380 C   0  0  0  0  0  0  0  0  0  0  0  0
    0.0060   46.4720  117.1930 C   0  0  0  0  0  0  0  0  0  0  0  0
   -0.4150   47.1430  116.0410 C   0  0  0  0  0  0  0  0  0  0  0  0
   -0.5630   48.4010  118.5280 C   0  0  0  0  0  0  0  0  0  0  0  0
   -1.0410   49.0380  117.3780 C   0  0  0  0  0  0  0  0  0  0  0  0
   -0.9000   48.4530  116.1190 C   0  0  0  0  0  0  0  0  0  0  0  0
   -1.2810   49.1120  114.9400 C   0  0  0  0  0  0  0  0  0  0  0  0
   -1.3770   50.4740  114.7180 C   0  0  0  0  0  0  0  0  0  0  0  0
   -1.2300   51.7530  115.8670 S   0  0  0  0  0  0  0  0  0  0  0  0
   -1.5270   53.0250  114.7180 C   0  0  0  0  0  0  0  0  0  0  0  0
   -1.5870   54.6210  115.0660 S   0  0  0  0  0  0  0  0  0  0  0  0
   -1.7100   52.4990  113.4920 N   0  0  0  0  0  0  0  0  0  0  0  0
   -1.6170   51.0910  113.4580 C   0  0  0  0  0  0  0  0  0  0  0  0
   -1.7410   50.5020  112.3910 O   0  0  0  0  0  0  0  0  0  0  0  0
    1.6245   36.5511  115.1920 H   0  0  0  0  0  0  0  0  0  0  0  0
    1.2347   40.3362  115.2205 H   0  0  0  0  0  0  0  0  0  0  0  0
    1.8135   40.0924  116.9400 H   0  0  0  0  0  0  0  0  0  0  0  0
    3.5988   38.6770  115.3563 H   0  0  0  0  0  0  0  0  0  0  0  0
    3.3097   40.2261  114.4826 H   0  0  0  0  0  0  0  0  0  0  0  0
    3.8795   39.9791  117.4286 H   0  0  0  0  0  0  0  0  0  0  0  0
    6.0990   38.8720  114.8245 H   0  0  0  0  0  0  0  0  0  0  0  0
    2.9383   41.9855  117.3823 H   0  0  0  0  0  0  0  0  0  0  0  0
    2.1565   43.2775  117.9114 H   0  0  0  0  0  0  0  0  0  0  0  0
    5.8157   45.2963  116.7750 H   0  0  0  0  0  0  0  0  0  0  0  0
    5.0788   47.2981  118.0842 H   0  0  0  0  0  0  0  0  0  0  0  0
    2.9584   47.2439  119.3516 H   0  0  0  0  0  0  0  0  0  0  0  0
    0.4475   44.4439  119.1126 H   0  0  0  0  0  0  0  0  0  0  0  0
    1.3834   44.9433  120.5777 H   0  0  0  0  0  0  0  0  0  0  0  0
    0.2712   46.9820  120.4570 H   0  0  0  0  0  0  0  0  0  0  0  0
    0.3672   45.4355  117.1203 H   0  0  0  0  0  0  0  0  0  0  0  0
   -0.3645   46.6370  115.0656 H   0  0  0  0  0  0  0  0  0  0  0  0
   -0.6066   48.9131  119.5005 H   0  0  0  0  0  0  0  0  0  0  0  0
   -1.5362   50.0161  117.4676 H   0  0  0  0  0  0  0  0  0  0  0  0
   -1.5347   48.4655  114.0869 H   0  0  0  0  0  0  0  0  0  0  0  0
   -1.9002   53.0709  112.6567 H   0  0  0  0  0  0  0  0  0  0  0  0
  1  2  2  0
  2  3  1  0
  2  4  1  0
  4  5  1  0
  5  6  1  0
  6  7  1  0
  6 10  1  0
  7  8  1  0
  7  9  2  0
 10 11  1  0
 11 12  2  0
 11 13  1  0
 13 14  2  0
 13 15  1  0
 14 18  1  0
 15 16  2  0
 16 17  1  0
 17 18  2  0
 18 19  1  0
 19 20  1  0
 20 21  1  0
 21 22  2  0
 21 24  1  0
 22 23  1  0
 23 26  2  0
 24 25  2  0
 25 26  1  0
 26 27  1  0
 27 28  2  0
 28 29  1  0
 28 33  1  0
 29 30  1  0
 30 31  2  0
 30 32  1  0
 32 33  1  0
 33 34  2  0
  3 35  1  0
  4 36  1  0
  4 37  1  0
  5 38  1  0
  5 39  1  0
  6 40  1  0
  8 41  1  0
 10 42  1  0
 14 43  1  0
 15 44  1  0
 16 45  1  0
 17 46  1  0
 19 47  1  0
 19 48  1  0
 20 49  1  0
 22 50  1  0
 23 51  1  0
 24 52  1  0
 25 53  1  0
 27 54  1  0
 32 55  1  0
A    1
OE1
A    2
CD
A    3
OE2
A    4
CG
A    5
CB
A    6
CA
A    7
C
A    8
OXT
A    9
O
A   10
N
A   11
CAU
A   12
OBC
A   13
CAT
A   14
CAQ
A   15
CAS
A   16
CAR
A   17
CAP
A   18
CAO
A   19
CAN
A   20
NAY
A   21
CAA
A   22
CAC
A   23
CAE
A   24
CAB
A   25
CAG
A   26
CAF
A   27
CAH
A   28
CAI
A   29
SBG
A   30
CAL
A   31
SBH
A   32
NAX
A   33
CAK
A   34
OBE
M  END
