1GTE_IUR_A_1034
     RDKit          3D

 12 12  0  0  0  0  0  0  0  0999 V2000
   64.9620   40.9540   50.4240 N   0  0  0  0  0  0  0  0  0  0  0  0
   65.4980   42.1190   49.8710 C   0  0  0  0  0  0  0  0  0  0  0  0
   66.3740   42.8430   50.3600 O   0  0  0  0  0  0  0  0  0  0  0  0
   64.9600   42.4630   48.6430 N   0  0  0  0  0  0  0  0  0  0  0  0
   63.9910   41.8350   47.8990 C   0  0  0  0  0  0  0  0  0  0  0  0
   63.6200   42.2870   46.8070 O   0  0  0  0  0  0  0  0  0  0  0  0
   63.4960   40.6660   48.5140 C   0  0  0  0  0  0  0  0  0  0  0  0
   63.9820   40.2580   49.7400 C   0  0  0  0  0  0  0  0  0  0  0  0
   62.0120   39.5910   47.5040 I   0  0  0  0  0  0  0  0  0  0  0  0
   65.2952   40.6145   51.3376 H   0  0  0  0  0  0  0  0  0  0  0  0
   65.3451   43.3210   48.2229 H   0  0  0  0  0  0  0  0  0  0  0  0
   63.5731   39.3419   50.1913 H   0  0  0  0  0  0  0  0  0  0  0  0
  1  2  1  0
  1  8  1  0
  2  3  2  0
  2  4  1  0
  4  5  1  0
  5  6  2  0
  5  7  1  0
  7  8  2  0
  7  9  1  0
  1 10  1  0
  4 11  1  0
  8 12  1  0
A    1
N1
A    2
C2
A    3
O2
A    4
N3
A    5
C4
A    6
O4
A    7
C5
A    8
C6
A    9
I5
M  END
