1WVJ_IBC_A_1001
     RDKit          3D

 31 32  0  0  0  0  0  0  0  0999 V2000
   14.5280    6.1050   25.6950 O   0  0  0  0  0  0  0  0  0  0  0  0
   13.3860    6.5150   25.3340 C   0  0  0  0  0  0  0  0  0  0  0  0
   12.3640    6.6420   26.1070 O   0  0  0  0  0  0  0  0  0  0  0  0
   13.1520    6.8720   23.8240 C   0  0  0  0  0  0  0  0  0  0  0  0
   11.6850    7.1740   23.5420 N   0  0  0  0  0  0  0  0  0  0  0  0
   14.0900    8.0690   23.4630 C   0  0  0  0  0  0  0  0  0  0  0  0
   13.8860    8.6340   22.0520 C   0  0  0  0  0  0  0  0  0  0  0  0
   14.1520    7.7710   20.8880 C   0  0  0  0  0  0  0  0  0  0  0  0
   13.3980    9.9060   21.9650 C   0  0  0  0  0  0  0  0  0  0  0  0
   13.0580   10.7310   20.7270 C   0  0  0  0  0  0  0  0  0  0  0  0
   12.1430   10.0280   19.7130 C   0  0  0  0  0  0  0  0  0  0  0  0
   12.7920    8.8900   18.8830 C   0  0  0  0  0  0  0  0  0  0  0  0
   13.6830    7.9160   19.5900 C   0  0  0  0  0  0  0  0  0  0  0  0
   14.1260    6.9320   18.7880 O   0  0  0  0  0  0  0  0  0  0  0  0
   14.9690    6.0530   19.5750 N   0  0  0  0  0  0  0  0  0  0  0  0
   14.9910    6.5390   20.8350 C   0  0  0  0  0  0  0  0  0  0  0  0
   15.6350    6.0080   21.7880 O   0  0  0  0  0  0  0  0  0  0  0  0
   14.7444    6.0273   26.6579 H   0  0  0  0  0  0  0  0  0  0  0  0
   13.4012    6.0115   23.1857 H   0  0  0  0  0  0  0  0  0  0  0  0
   11.1785    7.2783   24.4328 H   0  0  0  0  0  0  0  0  0  0  0  0
   11.6121    8.0476   23.0013 H   0  0  0  0  0  0  0  0  0  0  0  0
   13.9089    8.8777   24.1864 H   0  0  0  0  0  0  0  0  0  0  0  0
   15.1190    7.6819   23.4991 H   0  0  0  0  0  0  0  0  0  0  0  0
   13.2246   10.4096   22.9274 H   0  0  0  0  0  0  0  0  0  0  0  0
   12.5571   11.6529   21.0576 H   0  0  0  0  0  0  0  0  0  0  0  0
   14.0101   10.9152   20.2078 H   0  0  0  0  0  0  0  0  0  0  0  0
   11.2950    9.5986   20.2667 H   0  0  0  0  0  0  0  0  0  0  0  0
   11.8606   10.8016   18.9837 H   0  0  0  0  0  0  0  0  0  0  0  0
   11.9745    8.3122   18.4272 H   0  0  0  0  0  0  0  0  0  0  0  0
   13.4611    9.4118   18.1829 H   0  0  0  0  0  0  0  0  0  0  0  0
   15.3890    6.2108   22.7253 H   0  0  0  0  0  0  0  0  0  0  0  0
  1  2  1  0
  2  3  2  0
  2  4  1  0
  4  5  1  0
  4  6  1  0
  6  7  1  0
  7  8  1  0
  7  9  2  0
  8 13  2  0
  8 16  1  0
  9 10  1  0
 10 11  1  0
 11 12  1  0
 12 13  1  0
 13 14  1  0
 14 15  1  0
 15 16  2  0
 16 17  1  0
  1 18  1  0
  4 19  1  0
  5 20  1  0
  5 21  1  0
  6 22  1  0
  6 23  1  0
  9 24  1  0
 10 25  1  0
 10 26  1  0
 11 27  1  0
 11 28  1  0
 12 29  1  0
 12 30  1  0
 17 31  1  0
A    1
O4
A    2
C11
A    3
O3
A    4
C10
A    5
N2
A    6
C9
A    7
C4
A    8
C1
A    9
C5
A   10
C6
A   11
C7
A   12
C8
A   13
C3
A   14
O1
A   15
N1
A   16
C2
A   17
O2
M  END
