1C0K_LAC_A_1364
     RDKit          3D

 12 11  0  0  0  0  0  0  0  0999 V2000
   34.6500  125.7350   23.6300 C   0  0  0  0  0  0  0  0  0  0  0  0
   33.8120  124.8410   22.6840 C   0  0  0  0  0  0  0  0  0  0  0  0
   33.4680  125.2810   21.1940 C   0  0  0  0  0  0  0  0  0  0  0  0
   35.7970  125.9580   22.8720 O   0  0  0  0  0  0  0  0  0  0  0  0
   32.5330  124.6900   23.3670 O   0  0  0  0  0  0  0  0  0  0  0  0
   34.4470  125.9500   24.8330 O   0  0  0  0  0  0  0  0  0  0  0  0
   34.4564  123.9653   22.5169 H   0  0  0  0  0  0  0  0  0  0  0  0
   32.7906  126.1474   21.2147 H   0  0  0  0  0  0  0  0  0  0  0  0
   34.3954  125.5531   20.6687 H   0  0  0  0  0  0  0  0  0  0  0  0
   32.9802  124.4467   20.6687 H   0  0  0  0  0  0  0  0  0  0  0  0
   32.6778  124.7071   24.3462 H   0  0  0  0  0  0  0  0  0  0  0  0
   34.9375  125.4305   25.5183 H   0  0  0  0  0  0  0  0  0  0  0  0
  1  2  1  0
  1  4  2  0
  1  6  1  0
  2  3  1  0
  2  5  1  0
  2  7  1  0
  3  8  1  0
  3  9  1  0
  3 10  1  0
  5 11  1  0
  6 12  1  0
A    1
C1
A    2
C2
A    3
C3
A    4
O1
A    5
O2
A    6
OXT
M  END
