2WO9_068_A_1271
     RDKit          3D

 43 44  0  0  0  0  0  0  0  0999 V2000
   21.6250   29.7410   -9.9910 C   0  0  0  0  0  0  0  0  0  0  0  0
   22.5140   29.1990   -8.8700 C   0  0  0  0  0  0  0  0  0  0  0  0
   23.7010   29.0570   -9.0500 O   0  0  0  0  0  0  0  0  0  0  0  0
   21.8580   28.8460   -7.5960 C   0  0  0  0  0  0  0  0  0  0  0  0
   22.5940   28.4840   -6.4710 C   0  0  0  0  0  0  0  0  0  0  0  0
   21.9600   28.1540   -5.2800 C   0  0  0  0  0  0  0  0  0  0  0  0
   20.4740   28.8840   -7.4830 C   0  0  0  0  0  0  0  0  0  0  0  0
   19.8420   28.5550   -6.2700 C   0  0  0  0  0  0  0  0  0  0  0  0
   20.5740   28.1800   -5.1450 C   0  0  0  0  0  0  0  0  0  0  0  0
   19.9140   27.7740   -3.8570 C   0  0  0  0  0  0  0  0  0  0  0  0
   20.4750   26.7400   -3.0950 C   0  0  0  0  0  0  0  0  0  0  0  0
   19.9210   26.2990   -1.9130 C   0  0  0  0  0  0  0  0  0  0  0  0
   18.7140   28.2960   -3.4010 C   0  0  0  0  0  0  0  0  0  0  0  0
   18.1260   27.8650   -2.2260 C   0  0  0  0  0  0  0  0  0  0  0  0
   18.7080   26.8480   -1.4620 C   0  0  0  0  0  0  0  0  0  0  0  0
   18.1030   26.3550   -0.1910 C   0  0  0  0  0  0  0  0  0  0  0  0
   17.1820   27.2900    0.6090 C   0  0  0  0  0  0  0  0  0  0  0  0
   16.9510   26.7710    2.0360 C   0  0  0  0  0  0  0  0  0  0  0  0
   16.2210   25.5390    1.9030 O   0  0  0  0  0  0  0  0  0  0  0  0
   16.2540   27.7590    2.9760 C   0  0  0  0  0  0  0  0  0  0  0  0
   16.8180   29.1870    2.8010 C   0  0  0  0  0  0  0  0  0  0  0  0
   17.9430   29.3770    3.2250 O   0  0  0  0  0  0  0  0  0  0  0  0
   16.1180   30.0340    2.2600 O   0  0  0  0  0  0  0  0  0  0  0  0
   20.7631   30.2665   -9.5539 H   0  0  0  0  0  0  0  0  0  0  0  0
   22.2039   30.4400  -10.6126 H   0  0  0  0  0  0  0  0  0  0  0  0
   21.2688   28.9063  -10.6126 H   0  0  0  0  0  0  0  0  0  0  0  0
   23.6923   28.4590   -6.5261 H   0  0  0  0  0  0  0  0  0  0  0  0
   22.5730   27.8624   -4.4145 H   0  0  0  0  0  0  0  0  0  0  0  0
   19.8653   29.1747   -8.3519 H   0  0  0  0  0  0  0  0  0  0  0  0
   18.7445   28.5947   -6.2081 H   0  0  0  0  0  0  0  0  0  0  0  0
   21.3967   26.2602   -3.4559 H   0  0  0  0  0  0  0  0  0  0  0  0
   20.4265   25.5196   -1.3239 H   0  0  0  0  0  0  0  0  0  0  0  0
   18.2138   29.0773   -3.9920 H   0  0  0  0  0  0  0  0  0  0  0  0
   17.1876   28.3283   -1.8874 H   0  0  0  0  0  0  0  0  0  0  0  0
   17.5149   25.4595   -0.4403 H   0  0  0  0  0  0  0  0  0  0  0  0
   18.9680   26.2068    0.4722 H   0  0  0  0  0  0  0  0  0  0  0  0
   17.6443   28.2867    0.6621 H   0  0  0  0  0  0  0  0  0  0  0  0
   16.2092   27.3349    0.0976 H   0  0  0  0  0  0  0  0  0  0  0  0
   17.9247   26.6195    2.5248 H   0  0  0  0  0  0  0  0  0  0  0  0
   16.0095   25.1821    2.8019 H   0  0  0  0  0  0  0  0  0  0  0  0
   15.1770   27.7684    2.7526 H   0  0  0  0  0  0  0  0  0  0  0  0
   16.4313   27.4384    4.0132 H   0  0  0  0  0  0  0  0  0  0  0  0
   18.1060   29.4045    4.2011 H   0  0  0  0  0  0  0  0  0  0  0  0
  1  2  1  0
  2  3  2  0
  2  4  1  0
  4  5  2  0
  4  7  1  0
  5  6  1  0
  6  9  2  0
  7  8  2  0
  8  9  1  0
  9 10  1  0
 10 11  2  0
 10 13  1  0
 11 12  1  0
 12 15  2  0
 13 14  2  0
 14 15  1  0
 15 16  1  0
 16 17  1  0
 17 18  1  0
 18 19  1  0
 18 20  1  0
 20 21  1  0
 21 22  1  0
 21 23  2  0
  1 24  1  0
  1 25  1  0
  1 26  1  0
  5 27  1  0
  6 28  1  0
  7 29  1  0
  8 30  1  0
 11 31  1  0
 12 32  1  0
 13 33  1  0
 14 34  1  0
 16 35  1  0
 16 36  1  0
 17 37  1  0
 17 38  1  0
 18 39  1  0
 19 40  1  0
 20 41  1  0
 20 42  1  0
 22 43  1  0
A    1
C19
A    2
C1
A    3
O2
A    4
C14
A    5
C15
A    6
C16
A    7
C13
A    8
C12
A    9
C11
A   10
C8
A   11
C9
A   12
C10
A   13
C7
A   14
C6
A   15
C5
A   16
C4
A   17
C3
A   18
C2
A   19
O1
A   20
C17
A   21
C18
A   22
O19
A   23
O20
M  END
