2WOM_ZZE_A_1558
     RDKit          3D

 41 42  0  0  0  0  0  0  0  0999 V2000
    8.7470   12.4340   17.2250 C   0  0  0  0  0  0  0  0  0  0  0  0
    7.4500   12.4860   16.6540 C   0  0  0  0  0  0  0  0  0  0  0  0
    9.7280   12.9490   16.3110 C   0  0  0  0  0  0  0  0  0  0  0  0
    8.9910   11.8820   18.5170 O   0  0  0  0  0  0  0  0  0  0  0  0
    7.6890   13.0340   15.4400 N   0  0  0  0  0  0  0  0  0  0  0  0
    6.1010   12.0270   17.2660 C   0  0  0  0  0  0  0  0  0  0  0  0
    9.0170   13.3000   15.2500 N   0  0  0  0  0  0  0  0  0  0  0  0
   11.2270   13.0770   16.4690 C   0  0  0  0  0  0  0  0  0  0  0  0
    9.2740   12.4250   19.7190 C   0  0  0  0  0  0  0  0  0  0  0  0
    6.7160   13.3130   14.4690 C   0  0  0  0  0  0  0  0  0  0  0  0
    6.1550   10.7250   17.8220 C   0  0  0  0  0  0  0  0  0  0  0  0
   11.8970   13.2610   15.0900 C   0  0  0  0  0  0  0  0  0  0  0  0
    9.2100   11.5990   20.9370 C   0  0  0  0  0  0  0  0  0  0  0  0
    9.6330   13.7730   19.7580 C   0  0  0  0  0  0  0  0  0  0  0  0
    6.2630   11.9100   13.9040 C   0  0  0  0  0  0  0  0  0  0  0  0
    9.5280   12.2340   22.2040 C   0  0  0  0  0  0  0  0  0  0  0  0
    9.9050   14.3670   21.0060 C   0  0  0  0  0  0  0  0  0  0  0  0
    5.6240   11.9750   12.6030 O   0  0  0  0  0  0  0  0  0  0  0  0
    9.8650   13.6310   22.2780 C   0  0  0  0  0  0  0  0  0  0  0  0
    9.4740   11.4910   23.3940 C   0  0  0  0  0  0  0  0  0  0  0  0
   10.2090   15.7140   20.7250 C   0  0  0  0  0  0  0  0  0  0  0  0
    9.4290   10.8610   24.4020 N   0  0  0  0  0  0  0  0  0  0  0  0
   10.4680   16.8600   20.4840 N   0  0  0  0  0  0  0  0  0  0  0  0
    5.8182   12.7345   18.0593 H   0  0  0  0  0  0  0  0  0  0  0  0
    5.3630   12.0041   16.4507 H   0  0  0  0  0  0  0  0  0  0  0  0
   11.4522   13.9486   17.1011 H   0  0  0  0  0  0  0  0  0  0  0  0
   11.6171   12.1613   16.9372 H   0  0  0  0  0  0  0  0  0  0  0  0
    5.8620   13.8383   14.9215 H   0  0  0  0  0  0  0  0  0  0  0  0
    7.1100   13.9632   13.6740 H   0  0  0  0  0  0  0  0  0  0  0  0
    6.1521   10.7947   18.9198 H   0  0  0  0  0  0  0  0  0  0  0  0
    5.2800   10.1475   17.4889 H   0  0  0  0  0  0  0  0  0  0  0  0
    7.0748   10.2219   17.4889 H   0  0  0  0  0  0  0  0  0  0  0  0
   12.9492   13.5500   15.2292 H   0  0  0  0  0  0  0  0  0  0  0  0
   11.8474   12.3160   14.5292 H   0  0  0  0  0  0  0  0  0  0  0  0
   11.3717   14.0481   14.5292 H   0  0  0  0  0  0  0  0  0  0  0  0
    8.9306   10.5362   20.8886 H   0  0  0  0  0  0  0  0  0  0  0  0
    9.7023   14.3611   18.8310 H   0  0  0  0  0  0  0  0  0  0  0  0
    7.1519   11.2675   13.8208 H   0  0  0  0  0  0  0  0  0  0  0  0
    5.5155   11.5112   14.6056 H   0  0  0  0  0  0  0  0  0  0  0  0
    4.6460   12.0745   12.7203 H   0  0  0  0  0  0  0  0  0  0  0  0
   10.0817   14.1232   23.2376 H   0  0  0  0  0  0  0  0  0  0  0  0
  1  2  2  0
  1  3  1  0
  1  4  1  0
  2  5  1  0
  2  6  1  0
  3  7  2  0
  3  8  1  0
  4  9  1  0
  5  7  1  0
  5 10  1  0
  6 11  1  0
  8 12  1  0
  9 13  2  0
  9 14  1  0
 10 15  1  0
 13 16  1  0
 14 17  2  0
 15 18  1  0
 16 19  2  0
 16 20  1  0
 17 19  1  0
 17 21  1  0
 20 22  3  0
 21 23  3  0
  6 24  1  0
  6 25  1  0
  8 26  1  0
  8 27  1  0
 10 28  1  0
 10 29  1  0
 11 30  1  0
 11 31  1  0
 11 32  1  0
 12 33  1  0
 12 34  1  0
 12 35  1  0
 13 36  1  0
 14 37  1  0
 15 38  1  0
 15 39  1  0
 18 40  1  0
 19 41  1  0
A    1
C1
A    2
C2
A    3
C3
A    4
O4
A    5
N5
A    6
C6
A    7
N7
A    8
C8
A    9
C9
A   10
C10
A   11
C11
A   12
C12
A   13
C13
A   14
C14
A   15
C15
A   16
C16
A   17
C17
A   18
O18
A   19
C19
A   20
C20
A   21
C21
A   22
N22
A   23
N23
M  END
