2WOU_ZZF_A_1500
     RDKit          3D

 44 46  0  0  0  0  0  0  0  0999 V2000
    9.2100   11.7400    5.1300 C   0  0  0  0  0  0  0  0  0  0  0  0
    7.8490   11.1780    4.9490 C   0  0  0  0  0  0  0  0  0  0  0  0
    6.9910   11.7310    4.0230 C   0  0  0  0  0  0  0  0  0  0  0  0
    5.7310   11.1900    3.8690 C   0  0  0  0  0  0  0  0  0  0  0  0
    5.3730   10.1170    4.6500 C   0  0  0  0  0  0  0  0  0  0  0  0
    6.2680    9.6090    5.5680 C   0  0  0  0  0  0  0  0  0  0  0  0
    7.4920   10.1350    5.7060 N   0  0  0  0  0  0  0  0  0  0  0  0
    5.8940    8.4420    6.4340 C   0  0  0  0  0  0  0  0  0  0  0  0
    4.1140    9.5600    4.5180 O   0  0  0  0  0  0  0  0  0  0  0  0
    4.0120    8.5190    3.6060 C   0  0  0  0  0  0  0  0  0  0  0  0
    5.0920    8.0310    2.9060 C   0  0  0  0  0  0  0  0  0  0  0  0
    4.8660    6.9980    2.0250 C   0  0  0  0  0  0  0  0  0  0  0  0
    3.6690    6.4400    1.8090 N   0  0  0  0  0  0  0  0  0  0  0  0
    2.6390    6.9260    2.5090 C   0  0  0  0  0  0  0  0  0  0  0  0
    2.7690    7.9640    3.4100 C   0  0  0  0  0  0  0  0  0  0  0  0
    1.4210    6.3170    2.2640 N   0  0  0  0  0  0  0  0  0  0  0  0
    0.2840    6.2280    3.0980 C   0  0  0  0  0  0  0  0  0  0  0  0
   -0.9450    6.0610    2.4980 C   0  0  0  0  0  0  0  0  0  0  0  0
   -2.0860    5.9600    3.2630 C   0  0  0  0  0  0  0  0  0  0  0  0
   -2.0030    6.0270    4.6380 C   0  0  0  0  0  0  0  0  0  0  0  0
   -0.7880    6.1960    5.2550 C   0  0  0  0  0  0  0  0  0  0  0  0
    0.3500    6.2900    4.4810 C   0  0  0  0  0  0  0  0  0  0  0  0
   -3.5140    5.8900    5.5870 S   0  0  0  0  0  0  0  0  0  0  0  0
   -3.8080    7.2010    6.1360 O   0  0  0  0  0  0  0  0  0  0  0  0
   -4.3650    5.1960    4.6410 O   0  0  0  0  0  0  0  0  0  0  0  0
   -3.2930    4.9990    6.7100 N   0  0  0  0  0  0  0  0  0  0  0  0
    9.4294   11.8306    6.2041 H   0  0  0  0  0  0  0  0  0  0  0  0
    9.9477   11.0729    4.6601 H   0  0  0  0  0  0  0  0  0  0  0  0
    9.2621   12.7332    4.6601 H   0  0  0  0  0  0  0  0  0  0  0  0
    7.3063   12.5918    3.4151 H   0  0  0  0  0  0  0  0  0  0  0  0
    5.0267   11.6093    3.1354 H   0  0  0  0  0  0  0  0  0  0  0  0
    5.9853    8.7268    7.4926 H   0  0  0  0  0  0  0  0  0  0  0  0
    4.8560    8.1460    6.2221 H   0  0  0  0  0  0  0  0  0  0  0  0
    6.5666    7.5978    6.2221 H   0  0  0  0  0  0  0  0  0  0  0  0
    6.0989    8.4512    3.0456 H   0  0  0  0  0  0  0  0  0  0  0  0
    5.7254    6.6055    1.4617 H   0  0  0  0  0  0  0  0  0  0  0  0
    1.8944    8.3402    3.9610 H   0  0  0  0  0  0  0  0  0  0  0  0
    1.3303    5.8644    1.3432 H   0  0  0  0  0  0  0  0  0  0  0  0
   -1.0154    6.0080    1.4015 H   0  0  0  0  0  0  0  0  0  0  0  0
   -3.0637    5.8259    2.7771 H   0  0  0  0  0  0  0  0  0  0  0  0
   -0.7230    6.2556    6.3515 H   0  0  0  0  0  0  0  0  0  0  0  0
    1.3271    6.4164    4.9701 H   0  0  0  0  0  0  0  0  0  0  0  0
   -3.4217    5.5178    7.5904 H   0  0  0  0  0  0  0  0  0  0  0  0
   -3.9664    4.2208    6.6685 H   0  0  0  0  0  0  0  0  0  0  0  0
  1  2  1  0
  2  3  2  0
  2  7  1  0
  3  4  1  0
  4  5  2  0
  5  6  1  0
  5  9  1  0
  6  7  2  0
  6  8  1  0
  9 10  1  0
 10 11  2  0
 10 15  1  0
 11 12  1  0
 12 13  2  0
 13 14  1  0
 14 15  2  0
 14 16  1  0
 16 17  1  0
 17 18  2  0
 17 22  1  0
 18 19  1  0
 19 20  2  0
 20 21  1  0
 20 23  1  0
 21 22  2  0
 23 24  2  0
 23 25  2  0
 23 26  1  0
  1 27  1  0
  1 28  1  0
  1 29  1  0
  3 30  1  0
  4 31  1  0
  8 32  1  0
  8 33  1  0
  8 34  1  0
 11 35  1  0
 12 36  1  0
 15 37  1  0
 16 38  1  0
 18 39  1  0
 19 40  1  0
 21 41  1  0
 22 42  1  0
 26 43  1  0
 26 44  1  0
A    1
C1
A    2
C2
A    3
C3
A    4
C4
A    5
C5
A    6
C6
A    7
N7
A    8
C8
A    9
O9
A   10
C10
A   11
C11
A   12
C12
A   13
N13
A   14
C14
A   15
C15
A   16
N16
A   17
C17
A   18
C18
A   19
C19
A   20
C20
A   21
C21
A   22
C22
A   23
S23
A   24
O24
A   25
O25
A   26
N26
M  END
