2WP5_WP5_A_1000
     RDKit          3D

 40 42  0  0  0  0  0  0  0  0999 V2000
  -22.0750  -30.2190   64.5950 C   0  0  0  0  0  0  0  0  0  0  0  0
  -21.6650  -31.6230   64.3640 O   0  0  0  0  0  0  0  0  0  0  0  0
  -22.6430  -32.2850   63.6830 C   0  0  0  0  0  0  0  0  0  0  0  0
  -23.6070  -32.7470   64.3030 O   0  0  0  0  0  0  0  0  0  0  0  0
  -22.5450  -32.4610   62.1640 C   0  0  0  0  0  0  0  0  0  0  0  0
  -23.4700  -31.5310   61.4430 N   0  0  0  0  0  0  0  0  0  0  0  0
  -24.8840  -31.8110   61.3740 C   0  0  0  0  0  0  0  0  0  0  0  0
  -25.5270  -33.0490   62.0210 C   0  0  0  0  0  0  0  0  0  0  0  0
  -25.7250  -30.9700   60.6320 N   0  0  0  0  0  0  0  0  0  0  0  0
  -25.2420  -29.7570   60.0710 C   0  0  0  0  0  0  0  0  0  0  0  0
  -26.1540  -28.8460   59.5360 C   0  0  0  0  0  0  0  0  0  0  0  0
  -25.7030  -27.6560   59.0070 C   0  0  0  0  0  0  0  0  0  0  0  0
  -24.3520  -27.3140   59.0300 C   0  0  0  0  0  0  0  0  0  0  0  0
  -23.8060  -25.6300   58.2890 Br  0  0  0  0  0  0  0  0  0  0  0  0
  -23.4310  -28.1940   59.5930 C   0  0  0  0  0  0  0  0  0  0  0  0
  -23.8800  -29.4120   60.1110 C   0  0  0  0  0  0  0  0  0  0  0  0
  -22.8510  -30.3720   60.7120 C   0  0  0  0  0  0  0  0  0  0  0  0
  -21.9380  -30.9060   59.5700 C   0  0  0  0  0  0  0  0  0  0  0  0
  -22.4180  -31.7260   58.5590 C   0  0  0  0  0  0  0  0  0  0  0  0
  -21.5780  -32.2240   57.5490 C   0  0  0  0  0  0  0  0  0  0  0  0
  -20.2300  -31.9290   57.5230 C   0  0  0  0  0  0  0  0  0  0  0  0
  -19.7370  -31.0980   58.5170 C   0  0  0  0  0  0  0  0  0  0  0  0
  -20.5800  -30.5890   59.5280 C   0  0  0  0  0  0  0  0  0  0  0  0
  -22.1312  -30.0266   65.6766 H   0  0  0  0  0  0  0  0  0  0  0  0
  -21.3371  -29.5419   64.1400 H   0  0  0  0  0  0  0  0  0  0  0  0
  -23.0613  -30.0455   64.1400 H   0  0  0  0  0  0  0  0  0  0  0  0
  -21.5122  -32.2553   61.8463 H   0  0  0  0  0  0  0  0  0  0  0  0
  -22.8324  -33.4937   61.9171 H   0  0  0  0  0  0  0  0  0  0  0  0
  -25.4792  -32.9570   63.1161 H   0  0  0  0  0  0  0  0  0  0  0  0
  -26.5779  -33.1238   61.7049 H   0  0  0  0  0  0  0  0  0  0  0  0
  -24.9838  -33.9518   61.7049 H   0  0  0  0  0  0  0  0  0  0  0  0
  -27.2295  -29.0771   59.5366 H   0  0  0  0  0  0  0  0  0  0  0  0
  -26.4259  -26.9601   58.5563 H   0  0  0  0  0  0  0  0  0  0  0  0
  -22.3629  -27.9336   59.6296 H   0  0  0  0  0  0  0  0  0  0  0  0
  -22.2722  -29.8060   61.4568 H   0  0  0  0  0  0  0  0  0  0  0  0
  -23.4849  -31.9934   58.5480 H   0  0  0  0  0  0  0  0  0  0  0  0
  -22.0040  -32.8631   56.7616 H   0  0  0  0  0  0  0  0  0  0  0  0
  -19.5714  -32.3380   56.7426 H   0  0  0  0  0  0  0  0  0  0  0  0
  -18.6700  -30.8306   58.5178 H   0  0  0  0  0  0  0  0  0  0  0  0
  -20.1573  -29.9283   60.2993 H   0  0  0  0  0  0  0  0  0  0  0  0
  1  2  1  0
  2  3  1  0
  3  4  2  0
  3  5  1  0
  5  6  1  0
  6  7  1  0
  6 17  1  0
  7  8  1  0
  7  9  2  0
  9 10  1  0
 10 11  1  0
 10 16  2  0
 11 12  2  0
 12 13  1  0
 13 14  1  0
 13 15  2  0
 15 16  1  0
 16 17  1  0
 17 18  1  0
 18 19  2  0
 18 23  1  0
 19 20  1  0
 20 21  2  0
 21 22  1  0
 22 23  2  0
  1 24  1  0
  1 25  1  0
  1 26  1  0
  5 27  1  0
  5 28  1  0
  8 29  1  0
  8 30  1  0
  8 31  1  0
 11 32  1  0
 12 33  1  0
 15 34  1  0
 17 35  1  0
 19 36  1  0
 20 37  1  0
 21 38  1  0
 22 39  1  0
 23 40  1  0
A    1
CAP
A    2
OAO
A    3
C
A    4
O
A    5
CA
A    6
N
A    7
CAU
A    8
CAW
A    9
NAT
A   10
CAS
A   11
CAR
A   12
CAQ
A   13
CAH
A   14
BRA
A   15
CAI
A   16
CAJ
A   17
CAK
A   18
CAE
A   19
CAF
A   20
CAC
A   21
CAB
A   22
CAA
A   23
CAD
M  END
