2WP6_WP6_A_1000
     RDKit          3D

 44 47  0  0  0  0  0  0  0  0999 V2000
  -20.0540  -30.4720   60.0150 C   0  0  0  0  0  0  0  0  0  0  0  0
  -19.2810  -31.0460   58.9800 C   0  0  0  0  0  0  0  0  0  0  0  0
  -19.8700  -31.8490   58.0060 C   0  0  0  0  0  0  0  0  0  0  0  0
  -21.2530  -32.0660   58.1000 C   0  0  0  0  0  0  0  0  0  0  0  0
  -22.0150  -31.5170   59.1450 C   0  0  0  0  0  0  0  0  0  0  0  0
  -21.4300  -30.7050   60.1190 C   0  0  0  0  0  0  0  0  0  0  0  0
  -22.2900  -30.0960   61.2730 C   0  0  0  0  0  0  0  0  0  0  0  0
  -23.3470  -29.2190   60.6080 C   0  0  0  0  0  0  0  0  0  0  0  0
  -22.9610  -28.0130   60.0310 C   0  0  0  0  0  0  0  0  0  0  0  0
  -23.9360  -27.2190   59.4080 C   0  0  0  0  0  0  0  0  0  0  0  0
  -23.4840  -25.7120   58.6730 Cl  0  0  0  0  0  0  0  0  0  0  0  0
  -25.2740  -27.6270   59.3460 C   0  0  0  0  0  0  0  0  0  0  0  0
  -25.6670  -28.8450   59.9070 C   0  0  0  0  0  0  0  0  0  0  0  0
  -24.6920  -29.6450   60.5240 C   0  0  0  0  0  0  0  0  0  0  0  0
  -25.1120  -30.8480   61.1600 N   0  0  0  0  0  0  0  0  0  0  0  0
  -24.2500  -31.6050   61.9660 C   0  0  0  0  0  0  0  0  0  0  0  0
  -24.8370  -32.8000   62.7630 C   0  0  0  0  0  0  0  0  0  0  0  0
  -22.8880  -31.2380   62.0530 N   0  0  0  0  0  0  0  0  0  0  0  0
  -22.0310  -32.1030   62.8830 C   0  0  0  0  0  0  0  0  0  0  0  0
  -21.9550  -31.6400   64.3270 C   0  0  0  0  0  0  0  0  0  0  0  0
  -22.1010  -30.2830   64.6650 C   0  0  0  0  0  0  0  0  0  0  0  0
  -22.0300  -29.8600   65.9960 C   0  0  0  0  0  0  0  0  0  0  0  0
  -21.8000  -30.8380   66.9850 C   0  0  0  0  0  0  0  0  0  0  0  0
  -21.6430  -32.2030   66.6560 C   0  0  0  0  0  0  0  0  0  0  0  0
  -21.7200  -32.6070   65.3190 C   0  0  0  0  0  0  0  0  0  0  0  0
  -19.5618  -29.8262   60.7570 H   0  0  0  0  0  0  0  0  0  0  0  0
  -18.1982  -30.8557   58.9432 H   0  0  0  0  0  0  0  0  0  0  0  0
  -19.2747  -32.2951   57.1957 H   0  0  0  0  0  0  0  0  0  0  0  0
  -21.7528  -32.6809   57.3370 H   0  0  0  0  0  0  0  0  0  0  0  0
  -23.0928  -31.7308   59.1969 H   0  0  0  0  0  0  0  0  0  0  0  0
  -21.7111  -29.4810   61.9778 H   0  0  0  0  0  0  0  0  0  0  0  0
  -21.9106  -27.6879   60.0627 H   0  0  0  0  0  0  0  0  0  0  0  0
  -26.0195  -26.9856   58.8532 H   0  0  0  0  0  0  0  0  0  0  0  0
  -26.7171  -29.1699   59.8661 H   0  0  0  0  0  0  0  0  0  0  0  0
  -24.7409  -32.6043   63.8412 H   0  0  0  0  0  0  0  0  0  0  0  0
  -25.8993  -32.9254   62.5064 H   0  0  0  0  0  0  0  0  0  0  0  0
  -24.2870  -33.7174   62.5064 H   0  0  0  0  0  0  0  0  0  0  0  0
  -22.4371  -33.1251   62.8620 H   0  0  0  0  0  0  0  0  0  0  0  0
  -21.0138  -32.0610   62.4665 H   0  0  0  0  0  0  0  0  0  0  0  0
  -22.2738  -29.5426   63.8701 H   0  0  0  0  0  0  0  0  0  0  0  0
  -22.1496  -28.7995   66.2624 H   0  0  0  0  0  0  0  0  0  0  0  0
  -21.7413  -30.5306   68.0395 H   0  0  0  0  0  0  0  0  0  0  0  0
  -21.4610  -32.9447   67.4477 H   0  0  0  0  0  0  0  0  0  0  0  0
  -21.5984  -33.6662   65.0482 H   0  0  0  0  0  0  0  0  0  0  0  0
  1  2  2  0
  1  6  1  0
  2  3  1  0
  3  4  2  0
  4  5  1  0
  5  6  2  0
  6  7  1  0
  7  8  1  0
  7 18  1  0
  8  9  2  0
  8 14  1  0
  9 10  1  0
 10 11  1  0
 10 12  2  0
 12 13  1  0
 13 14  2  0
 14 15  1  0
 15 16  2  0
 16 17  1  0
 16 18  1  0
 18 19  1  0
 19 20  1  0
 20 21  2  0
 20 25  1  0
 21 22  1  0
 22 23  2  0
 23 24  1  0
 24 25  2  0
  1 26  1  0
  2 27  1  0
  3 28  1  0
  4 29  1  0
  5 30  1  0
  7 31  1  0
  9 32  1  0
 12 33  1  0
 13 34  1  0
 17 35  1  0
 17 36  1  0
 17 37  1  0
 19 38  1  0
 19 39  1  0
 21 40  1  0
 22 41  1  0
 23 42  1  0
 24 43  1  0
 25 44  1  0
A    1
CAD
A    2
CAA
A    3
CAB
A    4
CAC
A    5
CAF
A    6
CAE
A    7
CAM
A    8
CAL
A    9
CAK
A   10
CAJ
A   11
CL
A   12
CAR
A   13
CAS
A   14
CAT
A   15
NAU
A   16
CAV
A   17
CAW
A   18
NAN
A   19
CAO
A   20
CAP
A   21
CAX
A   22
CAY
A   23
CAQ
A   24
CAH
A   25
CAG
M  END
