2WPB_ZZI_A_1298
     RDKit          3D

 36 35  0  0  0  0  0  0  0  0999 V2000
    4.5120  -12.6610   27.5690 C   0  0  0  0  0  0  0  0  0  0  0  0
    4.6290  -11.4100   28.4740 C   0  0  0  0  0  0  0  0  0  0  0  0
    4.4550  -11.6820   29.9860 C   0  0  0  0  0  0  0  0  0  0  0  0
    4.1590  -10.4850   30.8390 N   0  0  0  0  0  0  0  0  0  0  0  0
    4.3540   -9.1070   30.2970 C   0  0  0  0  0  0  0  0  0  0  0  0
    5.3390   -8.2580   31.1160 C   0  0  0  0  0  0  0  0  0  0  0  0
    6.7620   -8.8290   31.0350 C   0  0  0  0  0  0  0  0  0  0  0  0
    3.6600  -10.7050   32.0760 C   0  0  0  0  0  0  0  0  0  0  0  0
    3.4760  -11.8310   32.5260 O   0  0  0  0  0  0  0  0  0  0  0  0
    3.3580   -9.5030   32.9890 C   0  0  0  0  0  0  0  0  0  0  0  0
    3.7640   -9.7730   34.3670 O   0  0  0  0  0  0  0  0  0  0  0  0
    1.8770   -9.0980   32.8830 C   0  0  0  0  0  0  0  0  0  0  0  0
    1.7160   -8.5080   31.5990 O   0  0  0  0  0  0  0  0  0  0  0  0
    1.4980   -8.0660   33.9490 C   0  0  0  0  0  0  0  0  0  0  0  0
    2.2510   -6.8610   33.7640 O   0  0  0  0  0  0  0  0  0  0  0  0
    4.4279  -13.5607   28.1962 H   0  0  0  0  0  0  0  0  0  0  0  0
    3.6183  -12.5718   26.9339 H   0  0  0  0  0  0  0  0  0  0  0  0
    5.4068  -12.7391   26.9339 H   0  0  0  0  0  0  0  0  0  0  0  0
    5.6241  -10.9677   28.3186 H   0  0  0  0  0  0  0  0  0  0  0  0
    3.8052  -10.7412   28.1840 H   0  0  0  0  0  0  0  0  0  0  0  0
    3.6258  -12.3946   30.1066 H   0  0  0  0  0  0  0  0  0  0  0  0
    5.4277  -12.0606   30.3332 H   0  0  0  0  0  0  0  0  0  0  0  0
    4.7364   -9.1885   29.2688 H   0  0  0  0  0  0  0  0  0  0  0  0
    3.3780   -8.6016   30.3412 H   0  0  0  0  0  0  0  0  0  0  0  0
    5.3413   -7.2308   30.7224 H   0  0  0  0  0  0  0  0  0  0  0  0
    5.0180   -8.2685   32.1681 H   0  0  0  0  0  0  0  0  0  0  0  0
    7.1526   -8.9857   32.0513 H   0  0  0  0  0  0  0  0  0  0  0  0
    6.7420   -9.7887   30.4978 H   0  0  0  0  0  0  0  0  0  0  0  0
    7.4109   -8.1216   30.4978 H   0  0  0  0  0  0  0  0  0  0  0  0
    3.9546   -8.6449   32.6460 H   0  0  0  0  0  0  0  0  0  0  0  0
    3.1230   -9.3467   34.9894 H   0  0  0  0  0  0  0  0  0  0  0  0
    1.2350   -9.9790   33.0301 H   0  0  0  0  0  0  0  0  0  0  0  0
    1.4568   -7.5581   31.7024 H   0  0  0  0  0  0  0  0  0  0  0  0
    0.4246   -7.8391   33.8691 H   0  0  0  0  0  0  0  0  0  0  0  0
    1.7226   -8.4794   34.9433 H   0  0  0  0  0  0  0  0  0  0  0  0
    2.4883   -6.4813   34.6470 H   0  0  0  0  0  0  0  0  0  0  0  0
  1  2  1  0
  2  3  1  0
  3  4  1  0
  4  5  1  0
  4  8  1  0
  5  6  1  0
  6  7  1  0
  8  9  2  0
  8 10  1  0
 10 11  1  0
 10 12  1  0
 12 13  1  0
 12 14  1  0
 14 15  1  0
  1 16  1  0
  1 17  1  0
  1 18  1  0
  2 19  1  0
  2 20  1  0
  3 21  1  0
  3 22  1  0
  5 23  1  0
  5 24  1  0
  6 25  1  0
  6 26  1  0
  7 27  1  0
  7 28  1  0
  7 29  1  0
 10 30  1  0
 11 31  1  0
 12 32  1  0
 13 33  1  0
 14 34  1  0
 14 35  1  0
 15 36  1  0
A    1
CAA
A    2
CAB
A    3
CAC
A    4
NAH
A    5
CAG
A    6
CAF
A    7
CAE
A    8
CAI
A    9
OAD
A   10
CAJ
A   11
OAN
A   12
CAK
A   13
OAO
A   14
CAL
A   15
OAM
M  END
