2WPC_WP7_A_1000
     RDKit          3D

 60 64  0  0  0  0  0  0  0  0999 V2000
  -23.2330  -31.5430   58.5720 C   0  0  0  0  0  0  0  0  0  0  0  0
  -22.3280  -32.1600   57.6710 C   0  0  0  0  0  0  0  0  0  0  0  0
  -20.9810  -31.8340   57.7520 C   0  0  0  0  0  0  0  0  0  0  0  0
  -20.5810  -30.9040   58.7250 C   0  0  0  0  0  0  0  0  0  0  0  0
  -21.4760  -30.2820   59.6190 C   0  0  0  0  0  0  0  0  0  0  0  0
  -22.8360  -30.6070   59.5300 C   0  0  0  0  0  0  0  0  0  0  0  0
  -23.8600  -29.9920   60.5140 C   0  0  0  0  0  0  0  0  0  0  0  0
  -24.7710  -29.0330   59.8100 C   0  0  0  0  0  0  0  0  0  0  0  0
  -24.2460  -27.8600   59.3670 C   0  0  0  0  0  0  0  0  0  0  0  0
  -25.1040  -26.9780   58.7420 C   0  0  0  0  0  0  0  0  0  0  0  0
  -24.5540  -25.4740   58.1330 Cl  0  0  0  0  0  0  0  0  0  0  0  0
  -26.4090  -27.2570   58.5460 C   0  0  0  0  0  0  0  0  0  0  0  0
  -26.9430  -28.4290   59.0140 C   0  0  0  0  0  0  0  0  0  0  0  0
  -26.1220  -29.3380   59.6330 C   0  0  0  0  0  0  0  0  0  0  0  0
  -26.7050  -30.5460   60.1270 N   0  0  0  0  0  0  0  0  0  0  0  0
  -25.9720  -31.4100   60.8410 C   0  0  0  0  0  0  0  0  0  0  0  0
  -26.6960  -32.6490   61.4390 C   0  0  0  0  0  0  0  0  0  0  0  0
  -24.6120  -31.1320   61.1040 N   0  0  0  0  0  0  0  0  0  0  0  0
  -23.8240  -32.1300   61.8840 C   0  0  0  0  0  0  0  0  0  0  0  0
  -23.6680  -31.5560   63.2790 C   0  0  0  0  0  0  0  0  0  0  0  0
  -23.1440  -32.6420   64.0730 N   0  0  0  0  0  0  0  0  0  0  0  0
  -21.7620  -32.5160   64.5820 C   0  0  0  0  0  0  0  0  0  0  0  0
  -21.2630  -33.8280   65.2850 C   0  0  0  0  0  0  0  0  0  0  0  0
  -24.0940  -32.8890   65.1510 C   0  0  0  0  0  0  0  0  0  0  0  0
  -23.8620  -34.3440   65.6390 C   0  0  0  0  0  0  0  0  0  0  0  0
  -22.3960  -34.7640   65.7120 N   0  0  0  0  0  0  0  0  0  0  0  0
  -22.1160  -36.0330   66.1470 C   0  0  0  0  0  0  0  0  0  0  0  0
  -20.9410  -36.4030   66.2080 O   0  0  0  0  0  0  0  0  0  0  0  0
  -23.2200  -37.0330   66.6160 C   0  0  0  0  0  0  0  0  0  0  0  0
  -23.9510  -37.8390   65.8350 C   0  0  0  0  0  0  0  0  0  0  0  0
  -24.7700  -38.5460   66.6270 C   0  0  0  0  0  0  0  0  0  0  0  0
  -24.5740  -38.2110   67.9100 C   0  0  0  0  0  0  0  0  0  0  0  0
  -23.5800  -37.2420   67.9380 O   0  0  0  0  0  0  0  0  0  0  0  0
  -24.2974  -31.8142   58.5137 H   0  0  0  0  0  0  0  0  0  0  0  0
  -22.6863  -32.8825   56.9229 H   0  0  0  0  0  0  0  0  0  0  0  0
  -20.2471  -32.2918   57.0725 H   0  0  0  0  0  0  0  0  0  0  0  0
  -19.5135  -30.6474   58.7932 H   0  0  0  0  0  0  0  0  0  0  0  0
  -21.1160  -29.5603   60.3670 H   0  0  0  0  0  0  0  0  0  0  0  0
  -23.3583  -29.4104   61.3014 H   0  0  0  0  0  0  0  0  0  0  0  0
  -23.1802  -27.6233   59.5013 H   0  0  0  0  0  0  0  0  0  0  0  0
  -27.0474  -26.5406   58.0081 H   0  0  0  0  0  0  0  0  0  0  0  0
  -28.0163  -28.6386   58.8950 H   0  0  0  0  0  0  0  0  0  0  0  0
  -26.6655  -32.5968   62.5373 H   0  0  0  0  0  0  0  0  0  0  0  0
  -27.7428  -32.6603   61.1014 H   0  0  0  0  0  0  0  0  0  0  0  0
  -26.1919  -33.5666   61.1014 H   0  0  0  0  0  0  0  0  0  0  0  0
  -24.3599  -33.0897   61.9252 H   0  0  0  0  0  0  0  0  0  0  0  0
  -22.8454  -32.3177   61.4181 H   0  0  0  0  0  0  0  0  0  0  0  0
  -22.9668  -30.7085   63.2722 H   0  0  0  0  0  0  0  0  0  0  0  0
  -24.6194  -31.1741   63.6776 H   0  0  0  0  0  0  0  0  0  0  0  0
  -21.0935  -32.2910   63.7379 H   0  0  0  0  0  0  0  0  0  0  0  0
  -21.7514  -31.7092   65.3297 H   0  0  0  0  0  0  0  0  0  0  0  0
  -20.6092  -34.3700   64.5858 H   0  0  0  0  0  0  0  0  0  0  0  0
  -20.7352  -33.5224   66.2004 H   0  0  0  0  0  0  0  0  0  0  0  0
  -23.9209  -32.1822   65.9759 H   0  0  0  0  0  0  0  0  0  0  0  0
  -25.1279  -32.7537   64.8005 H   0  0  0  0  0  0  0  0  0  0  0  0
  -24.2974  -34.4422   66.6444 H   0  0  0  0  0  0  0  0  0  0  0  0
  -24.3379  -35.0014   64.8964 H   0  0  0  0  0  0  0  0  0  0  0  0
  -23.8903  -37.9086   64.7389 H   0  0  0  0  0  0  0  0  0  0  0  0
  -25.4972  -39.2925   66.2750 H   0  0  0  0  0  0  0  0  0  0  0  0
  -25.1030  -38.6270   68.7801 H   0  0  0  0  0  0  0  0  0  0  0  0
  1  2  2  0
  1  6  1  0
  2  3  1  0
  3  4  2  0
  4  5  1  0
  5  6  2  0
  6  7  1  0
  7  8  1  0
  7 18  1  0
  8  9  2  0
  8 14  1  0
  9 10  1  0
 10 11  1  0
 10 12  2  0
 12 13  1  0
 13 14  2  0
 14 15  1  0
 15 16  2  0
 16 17  1  0
 16 18  1  0
 18 19  1  0
 19 20  1  0
 20 21  1  0
 21 22  1  0
 21 24  1  0
 22 23  1  0
 23 26  1  0
 24 25  1  0
 25 26  1  0
 26 27  1  0
 27 28  2  0
 27 29  1  0
 29 30  2  0
 29 33  1  0
 30 31  1  0
 31 32  2  0
 32 33  1  0
  1 34  1  0
  2 35  1  0
  3 36  1  0
  4 37  1  0
  5 38  1  0
  7 39  1  0
  9 40  1  0
 12 41  1  0
 13 42  1  0
 17 43  1  0
 17 44  1  0
 17 45  1  0
 19 46  1  0
 19 47  1  0
 20 48  1  0
 20 49  1  0
 22 50  1  0
 22 51  1  0
 23 52  1  0
 23 53  1  0
 24 54  1  0
 24 55  1  0
 25 56  1  0
 25 57  1  0
 30 58  1  0
 31 59  1  0
 32 60  1  0
A    1
CAD
A    2
CAA
A    3
CAB
A    4
CAC
A    5
CAF
A    6
CAE
A    7
CAN
A    8
CAM
A    9
CAL
A   10
CAK
A   11
CLA
A   12
CAX
A   13
CAY
A   14
CAZ
A   15
NBA
A   16
CBB
A   17
CBC
A   18
NAO
A   19
CAP
A   20
CAQ
A   21
NAR
A   22
CAG
A   23
CAH
A   24
CBD
A   25
CBE
A   26
NAS
A   27
CAT
A   28
OAI
A   29
CAU
A   30
CBF
A   31
CBG
A   32
CAW
A   33
OAV
M  END
