2WPE_WPE_A_1000
     RDKit          3D

 48 51  0  0  0  0  0  0  0  0999 V2000
  -20.6200  -30.2620   59.6050 C   0  0  0  0  0  0  0  0  0  0  0  0
  -19.7470  -30.9060   58.6430 C   0  0  0  0  0  0  0  0  0  0  0  0
  -20.2370  -31.8150   57.6710 C   0  0  0  0  0  0  0  0  0  0  0  0
  -21.6410  -32.1010   57.6490 C   0  0  0  0  0  0  0  0  0  0  0  0
  -22.4980  -31.4590   58.6270 C   0  0  0  0  0  0  0  0  0  0  0  0
  -22.0030  -30.5360   59.5720 C   0  0  0  0  0  0  0  0  0  0  0  0
  -23.0080  -29.8720   60.6150 C   0  0  0  0  0  0  0  0  0  0  0  0
  -23.9900  -28.9860   59.9280 C   0  0  0  0  0  0  0  0  0  0  0  0
  -23.5270  -27.7790   59.4510 C   0  0  0  0  0  0  0  0  0  0  0  0
  -24.4780  -26.9670   58.8160 C   0  0  0  0  0  0  0  0  0  0  0  0
  -23.9930  -25.4780   58.1510 Cl  0  0  0  0  0  0  0  0  0  0  0  0
  -25.8000  -27.3150   58.6590 C   0  0  0  0  0  0  0  0  0  0  0  0
  -26.2570  -28.5170   59.1690 C   0  0  0  0  0  0  0  0  0  0  0  0
  -25.3420  -29.3470   59.7700 C   0  0  0  0  0  0  0  0  0  0  0  0
  -25.8540  -30.5270   60.2780 N   0  0  0  0  0  0  0  0  0  0  0  0
  -25.0480  -31.2990   61.0640 C   0  0  0  0  0  0  0  0  0  0  0  0
  -25.6820  -32.5010   61.7960 C   0  0  0  0  0  0  0  0  0  0  0  0
  -23.7220  -30.9930   61.2540 N   0  0  0  0  0  0  0  0  0  0  0  0
  -22.8890  -31.9570   62.0600 C   0  0  0  0  0  0  0  0  0  0  0  0
  -22.6980  -31.3710   63.4280 C   0  0  0  0  0  0  0  0  0  0  0  0
  -21.8300  -32.3310   64.1340 N   0  0  0  0  0  0  0  0  0  0  0  0
  -22.3650  -33.4360   64.6320 C   0  0  0  0  0  0  0  0  0  0  0  0
  -23.5600  -33.6810   64.4810 O   0  0  0  0  0  0  0  0  0  0  0  0
  -21.4060  -34.3990   65.4010 C   0  0  0  0  0  0  0  0  0  0  0  0
  -21.8070  -35.4430   66.1430 C   0  0  0  0  0  0  0  0  0  0  0  0
  -20.7090  -36.0230   66.6450 C   0  0  0  0  0  0  0  0  0  0  0  0
  -19.6230  -35.3640   66.2220 C   0  0  0  0  0  0  0  0  0  0  0  0
  -20.0270  -34.3190   65.4310 O   0  0  0  0  0  0  0  0  0  0  0  0
  -20.2082  -29.5676   60.3521 H   0  0  0  0  0  0  0  0  0  0  0  0
  -18.6703  -30.6824   58.6679 H   0  0  0  0  0  0  0  0  0  0  0  0
  -19.5549  -32.2897   56.9504 H   0  0  0  0  0  0  0  0  0  0  0  0
  -22.0605  -32.7940   56.9048 H   0  0  0  0  0  0  0  0  0  0  0  0
  -23.5712  -31.7001   58.6321 H   0  0  0  0  0  0  0  0  0  0  0  0
  -22.4625  -29.2518   61.3415 H   0  0  0  0  0  0  0  0  0  0  0  0
  -22.4767  -27.4714   59.5614 H   0  0  0  0  0  0  0  0  0  0  0  0
  -26.4900  -26.6407   58.1306 H   0  0  0  0  0  0  0  0  0  0  0  0
  -27.3178  -28.7988   59.0957 H   0  0  0  0  0  0  0  0  0  0  0  0
  -25.6032  -32.3515   62.8829 H   0  0  0  0  0  0  0  0  0  0  0  0
  -26.7417  -32.5850   61.5134 H   0  0  0  0  0  0  0  0  0  0  0  0
  -25.1529  -33.4231   61.5134 H   0  0  0  0  0  0  0  0  0  0  0  0
  -23.4069  -32.9244   62.1370 H   0  0  0  0  0  0  0  0  0  0  0  0
  -21.9157  -32.1205   61.5744 H   0  0  0  0  0  0  0  0  0  0  0  0
  -22.2128  -30.3859   63.3628 H   0  0  0  0  0  0  0  0  0  0  0  0
  -23.6541  -31.2161   63.9494 H   0  0  0  0  0  0  0  0  0  0  0  0
  -20.8223  -32.1453   64.2386 H   0  0  0  0  0  0  0  0  0  0  0  0
  -22.8462  -35.7634   66.3084 H   0  0  0  0  0  0  0  0  0  0  0  0
  -20.7008  -36.9044   67.3030 H   0  0  0  0  0  0  0  0  0  0  0  0
  -18.5813  -35.6181   66.4677 H   0  0  0  0  0  0  0  0  0  0  0  0
  1  2  2  0
  1  6  1  0
  2  3  1  0
  3  4  2  0
  4  5  1  0
  5  6  2  0
  6  7  1  0
  7  8  1  0
  7 18  1  0
  8  9  2  0
  8 14  1  0
  9 10  1  0
 10 11  1  0
 10 12  2  0
 12 13  1  0
 13 14  2  0
 14 15  1  0
 15 16  2  0
 16 17  1  0
 16 18  1  0
 18 19  1  0
 19 20  1  0
 20 21  1  0
 21 22  1  0
 22 23  2  0
 22 24  1  0
 24 25  2  0
 24 28  1  0
 25 26  1  0
 26 27  2  0
 27 28  1  0
  1 29  1  0
  2 30  1  0
  3 31  1  0
  4 32  1  0
  5 33  1  0
  7 34  1  0
  9 35  1  0
 12 36  1  0
 13 37  1  0
 17 38  1  0
 17 39  1  0
 17 40  1  0
 19 41  1  0
 19 42  1  0
 20 43  1  0
 20 44  1  0
 21 45  1  0
 25 46  1  0
 26 47  1  0
 27 48  1  0
A    1
CAD
A    2
CAA
A    3
CAB
A    4
CAC
A    5
CAF
A    6
CAE
A    7
CAK
A    8
CAJ
A    9
CAI
A   10
CAH
A   11
CL
A   12
CAR
A   13
CAS
A   14
CAT
A   15
NAU
A   16
CAV
A   17
CAW
A   18
NAL
A   19
CAM
A   20
CAN
A   21
NAO
A   22
CAP
A   23
OAQ
A   24
CAY
A   25
CAX
A   26
CBA
A   27
CBB
A   28
OAZ
M  END
