2WQO_VGK_A_1280
     RDKit          3D

 48 50  0  0  0  0  0  0  0  0999 V2000
   27.7090  -10.1930   24.9340 C   0  0  0  0  0  0  0  0  0  0  0  0
   28.3910  -10.1580   23.7050 O   0  0  0  0  0  0  0  0  0  0  0  0
   27.7100  -10.3830   22.5400 C   0  0  0  0  0  0  0  0  0  0  0  0
   27.1040   -9.3250   21.8740 C   0  0  0  0  0  0  0  0  0  0  0  0
   26.4100   -9.5550   20.6660 C   0  0  0  0  0  0  0  0  0  0  0  0
   25.7940   -8.4940   20.0140 C   0  0  0  0  0  0  0  0  0  0  0  0
   25.6980   -7.2420   20.6360 C   0  0  0  0  0  0  0  0  0  0  0  0
   25.1160   -6.2000   19.9750 N   0  0  0  0  0  0  0  0  0  0  0  0
   24.5970   -6.3600   18.7190 C   0  0  0  0  0  0  0  0  0  0  0  0
   23.9650   -5.2830   18.0280 N   0  0  0  0  0  0  0  0  0  0  0  0
   24.6910   -7.6290   18.1030 C   0  0  0  0  0  0  0  0  0  0  0  0
   24.1620   -7.8250   16.8300 C   0  0  0  0  0  0  0  0  0  0  0  0
   24.9980   -8.2350   15.7790 C   0  0  0  0  0  0  0  0  0  0  0  0
   24.4770   -8.3990   14.4930 C   0  0  0  0  0  0  0  0  0  0  0  0
   23.1350   -8.1550   14.2560 C   0  0  0  0  0  0  0  0  0  0  0  0
   22.5760   -8.3190   12.8410 C   0  0  0  0  0  0  0  0  0  0  0  0
   21.4880   -7.8910   12.5800 O   0  0  0  0  0  0  0  0  0  0  0  0
   23.3650   -8.8790   11.8350 O   0  0  0  0  0  0  0  0  0  0  0  0
   22.2870   -7.7250   15.2850 C   0  0  0  0  0  0  0  0  0  0  0  0
   22.8030   -7.5580   16.5790 C   0  0  0  0  0  0  0  0  0  0  0  0
   25.2800   -8.6840   18.7420 C   0  0  0  0  0  0  0  0  0  0  0  0
   26.3060  -10.8320   20.1540 C   0  0  0  0  0  0  0  0  0  0  0  0
   26.9290  -11.9280   20.8270 C   0  0  0  0  0  0  0  0  0  0  0  0
   26.8540  -13.2300   20.3080 O   0  0  0  0  0  0  0  0  0  0  0  0
   26.2790  -13.4290   19.0200 C   0  0  0  0  0  0  0  0  0  0  0  0
   27.6120  -11.7020   22.0130 C   0  0  0  0  0  0  0  0  0  0  0  0
   28.2110  -12.7540   22.6730 O   0  0  0  0  0  0  0  0  0  0  0  0
   29.6250  -12.8580   22.6780 C   0  0  0  0  0  0  0  0  0  0  0  0
   28.4365  -10.1557   25.7582 H   0  0  0  0  0  0  0  0  0  0  0  0
   27.0324   -9.3284   25.0027 H   0  0  0  0  0  0  0  0  0  0  0  0
   27.1245  -11.1223   25.0027 H   0  0  0  0  0  0  0  0  0  0  0  0
   27.1649   -8.3077   22.2879 H   0  0  0  0  0  0  0  0  0  0  0  0
   26.0905   -7.0998   21.6537 H   0  0  0  0  0  0  0  0  0  0  0  0
   23.5184   -4.5219   18.5591 H   0  0  0  0  0  0  0  0  0  0  0  0
   23.9555   -5.2668   16.9982 H   0  0  0  0  0  0  0  0  0  0  0  0
   26.0644   -8.4273   15.9683 H   0  0  0  0  0  0  0  0  0  0  0  0
   25.1320   -8.7215   13.6702 H   0  0  0  0  0  0  0  0  0  0  0  0
   24.1487   -9.4353   12.0725 H   0  0  0  0  0  0  0  0  0  0  0  0
   21.2258   -7.5201   15.0802 H   0  0  0  0  0  0  0  0  0  0  0  0
   22.1475   -7.2194   17.3949 H   0  0  0  0  0  0  0  0  0  0  0  0
   25.3447   -9.6677   18.2541 H   0  0  0  0  0  0  0  0  0  0  0  0
   25.7423  -11.0069   19.2257 H   0  0  0  0  0  0  0  0  0  0  0  0
   25.2448  -13.7869   19.1315 H   0  0  0  0  0  0  0  0  0  0  0  0
   26.2803  -12.4781   18.4670 H   0  0  0  0  0  0  0  0  0  0  0  0
   26.8678  -14.1756   18.4670 H   0  0  0  0  0  0  0  0  0  0  0  0
   29.9870  -12.8846   23.7164 H   0  0  0  0  0  0  0  0  0  0  0  0
   29.9266  -13.7808   22.1608 H   0  0  0  0  0  0  0  0  0  0  0  0
   30.0584  -11.9893   22.1608 H   0  0  0  0  0  0  0  0  0  0  0  0
  1  2  1  0
  2  3  1  0
  3  4  2  0
  3 26  1  0
  4  5  1  0
  5  6  1  0
  5 22  2  0
  6  7  2  0
  6 21  1  0
  7  8  1  0
  8  9  2  0
  9 10  1  0
  9 11  1  0
 11 12  1  0
 11 21  2  0
 12 13  2  0
 12 20  1  0
 13 14  1  0
 14 15  2  0
 15 16  1  0
 15 19  1  0
 16 17  2  0
 16 18  1  0
 19 20  2  0
 22 23  1  0
 23 24  1  0
 23 26  2  0
 24 25  1  0
 26 27  1  0
 27 28  1  0
  1 29  1  0
  1 30  1  0
  1 31  1  0
  4 32  1  0
  7 33  1  0
 10 34  1  0
 10 35  1  0
 13 36  1  0
 14 37  1  0
 18 38  1  0
 19 39  1  0
 20 40  1  0
 21 41  1  0
 22 42  1  0
 25 43  1  0
 25 44  1  0
 25 45  1  0
 28 46  1  0
 28 47  1  0
 28 48  1  0
A    1
C01
A    2
O02
A    3
C03
A    4
C04
A    5
C05
A    6
C06
A    7
C07
A    8
N08
A    9
C09
A   10
N10
A   11
C11
A   12
C12
A   13
C13
A   14
C14
A   15
C15
A   16
C16
A   17
O17
A   18
O18
A   19
C19
A   20
C20
A   21
C21
A   22
C22
A   23
C23
A   24
O24
A   25
C25
A   26
C26
A   27
O27
A   28
C28
M  END
