2WSX_NM2_A_1504
     RDKit          3D

 26 25  0  0  0  0  0  0  0  0999 V2000
    3.1210    4.9740   -5.9610 N   0  0  0  0  0  0  0  0  0  0  0  0
    3.7050    4.5800   -7.2450 C   0  0  0  0  0  0  0  0  0  0  0  0
    3.7490    3.9990   -0.3710 O   0  0  0  0  0  0  0  0  0  0  0  0
    3.6120    4.0010   -1.6080 C   0  0  0  0  0  0  0  0  0  0  0  0
    2.8270    3.2350   -2.1990 O   0  0  0  0  0  0  0  0  0  0  0  0
    4.4360    4.9700   -2.4140 C   0  0  0  0  0  0  0  0  0  0  0  0
    4.0960    4.7540   -4.8880 C   0  0  0  0  0  0  0  0  0  0  0  0
    1.9170    4.1700   -5.7120 C   0  0  0  0  0  0  0  0  0  0  0  0
    2.7730    6.3960   -6.0080 C   0  0  0  0  0  0  0  0  0  0  0  0
    3.6350    5.4490   -3.6160 C   0  0  0  0  0  0  0  0  0  0  0  0
    4.6049    3.9728   -7.0676 H   0  0  0  0  0  0  0  0  0  0  0  0
    2.9720    3.9911   -7.8159 H   0  0  0  0  0  0  0  0  0  0  0  0
    3.9767    5.4802   -7.8159 H   0  0  0  0  0  0  0  0  0  0  0  0
    2.9514    4.0106    0.2154 H   0  0  0  0  0  0  0  0  0  0  0  0
    4.7040    5.8325   -1.7861 H   0  0  0  0  0  0  0  0  0  0  0  0
    5.3507    4.4681   -2.7625 H   0  0  0  0  0  0  0  0  0  0  0  0
    4.1924    3.6747   -4.6990 H   0  0  0  0  0  0  0  0  0  0  0  0
    5.0685    5.1675   -5.1933 H   0  0  0  0  0  0  0  0  0  0  0  0
    1.7627    4.0669   -4.6278 H   0  0  0  0  0  0  0  0  0  0  0  0
    1.0446    4.6674   -6.1609 H   0  0  0  0  0  0  0  0  0  0  0  0
    2.0422    3.1736   -6.1609 H   0  0  0  0  0  0  0  0  0  0  0  0
    2.6780    6.7843   -4.9832 H   0  0  0  0  0  0  0  0  0  0  0  0
    3.5622    6.9493   -6.5380 H   0  0  0  0  0  0  0  0  0  0  0  0
    1.8174    6.5223   -6.5380 H   0  0  0  0  0  0  0  0  0  0  0  0
    3.7706    6.5347   -3.7295 H   0  0  0  0  0  0  0  0  0  0  0  0
    2.5744    5.2093   -3.4494 H   0  0  0  0  0  0  0  0  0  0  0  0
  1  7  1  0
  1  2  1  0
  1  8  1  0
  1  9  1  0
  7 10  1  0
  3  4  1  0
  4  5  2  0
  4  6  1  0
  6 10  1  0
  2 11  1  0
  2 12  1  0
  2 13  1  0
  3 14  1  0
  6 15  1  0
  6 16  1  0
  7 17  1  0
  7 18  1  0
  8 19  1  0
  8 20  1  0
  8 21  1  0
  9 22  1  0
  9 23  1  0
  9 24  1  0
 10 25  1  0
 10 26  1  0
M  CHG  1   1   1
A    1
N1
A    2
C8
A    3
O4
A    4
C5
A    5
O7
A    6
C6
A    7
C2
A    8
C9
A    9
C10
A   10
C3
M  END
