2WTD_ZZK_A_1513
     RDKit          3D

 40 43  0  0  0  0  0  0  0  0999 V2000
   35.0780  -32.2010   13.7160 N   0  0  0  0  0  0  0  0  0  0  0  0
   34.7610  -33.3720   12.9210 C   0  0  0  0  0  0  0  0  0  0  0  0
   34.1590  -34.2680   13.4260 O   0  0  0  0  0  0  0  0  0  0  0  0
   35.3420  -33.4650   11.5030 C   0  0  0  0  0  0  0  0  0  0  0  0
   35.4800  -32.2950   10.7350 C   0  0  0  0  0  0  0  0  0  0  0  0
   36.0680  -32.3520    9.4620 C   0  0  0  0  0  0  0  0  0  0  0  0
   36.5260  -33.5750    8.9420 C   0  0  0  0  0  0  0  0  0  0  0  0
   37.1160  -33.6110    7.6770 C   0  0  0  0  0  0  0  0  0  0  0  0
   37.9900  -32.6180    7.2970 C   0  0  0  0  0  0  0  0  0  0  0  0
   38.5700  -32.6180    6.0460 C   0  0  0  0  0  0  0  0  0  0  0  0
   39.4010  -31.5680    5.6530 C   0  0  0  0  0  0  0  0  0  0  0  0
   39.4190  -30.3950    6.4270 C   0  0  0  0  0  0  0  0  0  0  0  0
   40.2070  -29.2970    6.0520 C   0  0  0  0  0  0  0  0  0  0  0  0
   40.9470  -29.3520    4.8650 C   0  0  0  0  0  0  0  0  0  0  0  0
   40.9030  -30.4980    4.0580 C   0  0  0  0  0  0  0  0  0  0  0  0
   41.5400  -30.8100    2.8090 O   0  0  0  0  0  0  0  0  0  0  0  0
   40.9790  -32.0580    2.3890 C   0  0  0  0  0  0  0  0  0  0  0  0
   40.2450  -32.5520    3.5190 O   0  0  0  0  0  0  0  0  0  0  0  0
   40.1150  -31.6030    4.4400 C   0  0  0  0  0  0  0  0  0  0  0  0
   38.2510  -33.6440    5.1490 C   0  0  0  0  0  0  0  0  0  0  0  0
   37.3750  -34.6300    5.5200 N   0  0  0  0  0  0  0  0  0  0  0  0
   36.7980  -34.6250    6.7620 C   0  0  0  0  0  0  0  0  0  0  0  0
   35.8640  -35.6770    7.1120 N   0  0  0  0  0  0  0  0  0  0  0  0
   36.3890  -34.7400    9.7150 C   0  0  0  0  0  0  0  0  0  0  0  0
   35.8010  -34.6870   10.9880 C   0  0  0  0  0  0  0  0  0  0  0  0
   35.0628  -32.2572   14.7444 H   0  0  0  0  0  0  0  0  0  0  0  0
   35.3183  -31.3133   13.2522 H   0  0  0  0  0  0  0  0  0  0  0  0
   35.1261  -31.3326   11.1332 H   0  0  0  0  0  0  0  0  0  0  0  0
   36.1712  -31.4328    8.8667 H   0  0  0  0  0  0  0  0  0  0  0  0
   38.2301  -31.8100    8.0038 H   0  0  0  0  0  0  0  0  0  0  0  0
   38.8069  -30.3373    7.3391 H   0  0  0  0  0  0  0  0  0  0  0  0
   40.2433  -28.3989    6.6862 H   0  0  0  0  0  0  0  0  0  0  0  0
   41.5652  -28.4933    4.5642 H   0  0  0  0  0  0  0  0  0  0  0  0
   40.3073  -31.9075    1.5310 H   0  0  0  0  0  0  0  0  0  0  0  0
   41.7572  -32.7663    2.0684 H   0  0  0  0  0  0  0  0  0  0  0  0
   38.7035  -33.6587    4.1465 H   0  0  0  0  0  0  0  0  0  0  0  0
   35.6752  -35.8897    8.1020 H   0  0  0  0  0  0  0  0  0  0  0  0
   35.3892  -36.2118    6.3707 H   0  0  0  0  0  0  0  0  0  0  0  0
   36.7458  -35.7022    9.3189 H   0  0  0  0  0  0  0  0  0  0  0  0
   35.6996  -35.6060   11.5839 H   0  0  0  0  0  0  0  0  0  0  0  0
  1  2  1  0
  2  3  2  0
  2  4  1  0
  4  5  2  0
  4 25  1  0
  5  6  1  0
  6  7  2  0
  7  8  1  0
  7 24  1  0
  8  9  2  0
  8 22  1  0
  9 10  1  0
 10 11  1  0
 10 20  2  0
 11 12  2  0
 11 19  1  0
 12 13  1  0
 13 14  2  0
 14 15  1  0
 15 16  1  0
 15 19  2  0
 16 17  1  0
 17 18  1  0
 18 19  1  0
 20 21  1  0
 21 22  2  0
 22 23  1  0
 24 25  2  0
  1 26  1  0
  1 27  1  0
  5 28  1  0
  6 29  1  0
  9 30  1  0
 12 31  1  0
 13 32  1  0
 14 33  1  0
 17 34  1  0
 17 35  1  0
 20 36  1  0
 23 37  1  0
 23 38  1  0
 24 39  1  0
 25 40  1  0
A    1
N01
A    2
C02
A    3
O03
A    4
C04
A    5
C05
A    6
C06
A    7
C07
A    8
C08
A    9
C09
A   10
C10
A   11
C11
A   12
C12
A   13
C13
A   14
C14
A   15
C15
A   16
O16
A   17
C17
A   18
O18
A   19
C19
A   20
C20
A   21
N21
A   22
C22
A   23
N23
A   24
C24
A   25
C25
M  END
