2WTI_WTI_A_1513
     RDKit          3D

 40 43  0  0  0  0  0  0  0  0999 V2000
  -45.1480   14.3200  -13.6520 N   0  0  0  0  0  0  0  0  0  0  0  0
  -46.1060   13.4790  -12.9480 C   0  0  0  0  0  0  0  0  0  0  0  0
  -46.5170   12.4830  -13.4470 O   0  0  0  0  0  0  0  0  0  0  0  0
  -46.5490   13.8890  -11.5360 C   0  0  0  0  0  0  0  0  0  0  0  0
  -45.8800   15.0240  -10.8910 C   0  0  0  0  0  0  0  0  0  0  0  0
  -46.2700   15.4250   -9.5640 C   0  0  0  0  0  0  0  0  0  0  0  0
  -47.3370   14.7160   -8.8810 C   0  0  0  0  0  0  0  0  0  0  0  0
  -47.7380   15.1870   -7.6190 C   0  0  0  0  0  0  0  0  0  0  0  0
  -47.2440   16.4570   -7.1920 C   0  0  0  0  0  0  0  0  0  0  0  0
  -47.6290   16.9760   -5.9090 C   0  0  0  0  0  0  0  0  0  0  0  0
  -47.1200   18.2100   -5.4660 C   0  0  0  0  0  0  0  0  0  0  0  0
  -46.0260   19.1250   -6.2590 S   0  0  0  0  0  0  0  0  0  0  0  0
  -45.7230   20.3720   -5.3610 C   0  0  0  0  0  0  0  0  0  0  0  0
  -46.5680   20.2540   -4.0680 C   0  0  0  0  0  0  0  0  0  0  0  0
  -46.6780   21.0800   -2.9010 O   0  0  0  0  0  0  0  0  0  0  0  0
  -47.8170   20.7530   -2.0640 C   0  0  0  0  0  0  0  0  0  0  0  0
  -48.0260   19.2280   -1.8630 C   0  0  0  0  0  0  0  0  0  0  0  0
  -48.3240   18.5310   -3.0950 O   0  0  0  0  0  0  0  0  0  0  0  0
  -47.4420   18.8790   -4.1600 C   0  0  0  0  0  0  0  0  0  0  0  0
  -48.5370   16.2380   -5.0500 C   0  0  0  0  0  0  0  0  0  0  0  0
  -49.0420   14.9690   -5.4860 N   0  0  0  0  0  0  0  0  0  0  0  0
  -48.6630   14.4410   -6.7530 C   0  0  0  0  0  0  0  0  0  0  0  0
  -49.2330   13.1650   -7.1670 N   0  0  0  0  0  0  0  0  0  0  0  0
  -48.0060   13.5860   -9.5310 C   0  0  0  0  0  0  0  0  0  0  0  0
  -47.6100   13.1790  -10.8630 C   0  0  0  0  0  0  0  0  0  0  0  0
  -44.4851   14.9019  -13.1201 H   0  0  0  0  0  0  0  0  0  0  0  0
  -45.1333   14.3329  -14.6818 H   0  0  0  0  0  0  0  0  0  0  0  0
  -45.0827   15.5672  -11.4194 H   0  0  0  0  0  0  0  0  0  0  0  0
  -45.7612   16.2656   -9.0696 H   0  0  0  0  0  0  0  0  0  0  0  0
  -46.5716   17.0353   -7.8427 H   0  0  0  0  0  0  0  0  0  0  0  0
  -45.0299   21.1902   -5.6061 H   0  0  0  0  0  0  0  0  0  0  0  0
  -47.6674   21.2161   -1.0775 H   0  0  0  0  0  0  0  0  0  0  0  0
  -48.7124   21.1356   -2.5757 H   0  0  0  0  0  0  0  0  0  0  0  0
  -47.1076   18.8021   -1.4326 H   0  0  0  0  0  0  0  0  0  0  0  0
  -48.8905   19.0997   -1.1950 H   0  0  0  0  0  0  0  0  0  0  0  0
  -48.8348   16.6484   -4.0739 H   0  0  0  0  0  0  0  0  0  0  0  0
  -49.5377   12.4828   -6.4580 H   0  0  0  0  0  0  0  0  0  0  0  0
  -49.3311   12.9455   -8.1685 H   0  0  0  0  0  0  0  0  0  0  0  0
  -48.8090   13.0469   -9.0071 H   0  0  0  0  0  0  0  0  0  0  0  0
  -48.1137   12.3356  -11.3579 H   0  0  0  0  0  0  0  0  0  0  0  0
  1  2  1  0
  2  3  2  0
  2  4  1  0
  4  5  2  0
  4 25  1  0
  5  6  1  0
  6  7  2  0
  7  8  1  0
  7 24  1  0
  8  9  2  0
  8 22  1  0
  9 10  1  0
 10 11  1  0
 10 20  2  0
 11 12  1  0
 11 19  2  0
 12 13  1  0
 13 14  2  0
 14 15  1  0
 14 19  1  0
 15 16  1  0
 16 17  1  0
 17 18  1  0
 18 19  1  0
 20 21  1  0
 21 22  2  0
 22 23  1  0
 24 25  2  0
  1 26  1  0
  1 27  1  0
  5 28  1  0
  6 29  1  0
  9 30  1  0
 13 31  1  0
 16 32  1  0
 16 33  1  0
 17 34  1  0
 17 35  1  0
 20 36  1  0
 23 37  1  0
 23 38  1  0
 24 39  1  0
 25 40  1  0
A    1
N01
A    2
C02
A    3
O03
A    4
C04
A    5
C05
A    6
C06
A    7
C07
A    8
C08
A    9
C09
A   10
C10
A   11
C11
A   12
S12
A   13
C13
A   14
C14
A   15
O15
A   16
C16
A   17
C17
A   18
O18
A   19
C19
A   20
C20
A   21
N21
A   22
C22
A   23
N23
A   24
C24
A   25
C25
M  END
