2WTV_ZZL_A_1390
     RDKit          3D

 49 53  0  0  0  0  0  0  0  0999 V2000
    0.2390   -8.1290   -4.3300 C   0  0  0  0  0  0  0  0  0  0  0  0
    1.5590  -10.1680   -4.3770 C   0  0  0  0  0  0  0  0  0  0  0  0
    1.0890  -12.5210   -5.1880 C   0  0  0  0  0  0  0  0  0  0  0  0
    1.7190  -14.4680   -3.8830 C   0  0  0  0  0  0  0  0  0  0  0  0
    2.2810  -13.6300   -2.9140 C   0  0  0  0  0  0  0  0  0  0  0  0
    2.2390  -12.2390   -3.0830 C   0  0  0  0  0  0  0  0  0  0  0  0
    2.9340   -9.5980   -4.6240 C   0  0  0  0  0  0  0  0  0  0  0  0
    5.0930   -9.7350   -5.6530 C   0  0  0  0  0  0  0  0  0  0  0  0
    5.4760   -8.5410   -5.0110 C   0  0  0  0  0  0  0  0  0  0  0  0
    9.5690   -4.9640   -0.1350 O   0  0  0  0  0  0  0  0  0  0  0  0
    8.7770   -4.1540    0.2010 C   0  0  0  0  0  0  0  0  0  0  0  0
    9.1800   -2.9230    0.7240 O   0  0  0  0  0  0  0  0  0  0  0  0
    7.3020   -4.4660    0.0580 C   0  0  0  0  0  0  0  0  0  0  0  0
    6.9150   -5.6960   -0.4810 C   0  0  0  0  0  0  0  0  0  0  0  0
    5.5550   -5.9820   -0.6070 C   0  0  0  0  0  0  0  0  0  0  0  0
    4.6090   -5.0330   -0.1950 C   0  0  0  0  0  0  0  0  0  0  0  0
    3.2160   -5.3050   -0.4440 N   0  0  0  0  0  0  0  0  0  0  0  0
    2.4760   -6.0720   -1.4070 C   0  0  0  0  0  0  0  0  0  0  0  0
    1.1010   -5.9200   -1.4820 N   0  0  0  0  0  0  0  0  0  0  0  0
    0.4110   -6.6000   -2.4270 C   0  0  0  0  0  0  0  0  0  0  0  0
    1.0880   -7.4230   -3.2650 C   0  0  0  0  0  0  0  0  0  0  0  0
    0.4600   -9.5510   -4.2780 N   0  0  0  0  0  0  0  0  0  0  0  0
    1.6450  -11.6800   -4.2210 C   0  0  0  0  0  0  0  0  0  0  0  0
    0.5450  -11.9900   -6.3170 F   0  0  0  0  0  0  0  0  0  0  0  0
    1.1230  -13.9090   -5.0180 C   0  0  0  0  0  0  0  0  0  0  0  0
    2.8150  -11.4270   -2.1510 F   0  0  0  0  0  0  0  0  0  0  0  0
    3.8160  -10.2700   -5.4520 C   0  0  0  0  0  0  0  0  0  0  0  0
    6.1860  -10.5820   -6.7780 Cl  0  0  0  0  0  0  0  0  0  0  0  0
    4.5820   -7.8700   -4.1700 C   0  0  0  0  0  0  0  0  0  0  0  0
    3.3080   -8.4120   -3.9780 C   0  0  0  0  0  0  0  0  0  0  0  0
    2.4830   -7.5850   -3.1770 C   0  0  0  0  0  0  0  0  0  0  0  0
    3.1740   -6.9130   -2.2750 N   0  0  0  0  0  0  0  0  0  0  0  0
    4.9960   -3.8040    0.3330 C   0  0  0  0  0  0  0  0  0  0  0  0
    6.3570   -3.5220    0.4630 C   0  0  0  0  0  0  0  0  0  0  0  0
   -0.8248   -7.9194   -4.1447 H   0  0  0  0  0  0  0  0  0  0  0  0
    0.5268   -7.7566   -5.3242 H   0  0  0  0  0  0  0  0  0  0  0  0
    1.7457  -15.5600   -3.7530 H   0  0  0  0  0  0  0  0  0  0  0  0
    2.7553  -14.0621   -2.0205 H   0  0  0  0  0  0  0  0  0  0  0  0
    6.4850   -8.1335   -5.1721 H   0  0  0  0  0  0  0  0  0  0  0  0
    9.2229   -2.7919    1.7043 H   0  0  0  0  0  0  0  0  0  0  0  0
    7.6713   -6.4278   -0.8012 H   0  0  0  0  0  0  0  0  0  0  0  0
    5.2277   -6.9448   -1.0264 H   0  0  0  0  0  0  0  0  0  0  0  0
    2.6004   -4.8343    0.2345 H   0  0  0  0  0  0  0  0  0  0  0  0
   -0.6797   -6.4869   -2.5136 H   0  0  0  0  0  0  0  0  0  0  0  0
    0.6785  -14.5645   -5.7813 H   0  0  0  0  0  0  0  0  0  0  0  0
    3.5184  -11.2081   -5.9434 H   0  0  0  0  0  0  0  0  0  0  0  0
    4.8755   -6.9351   -3.6701 H   0  0  0  0  0  0  0  0  0  0  0  0
    4.2408   -3.0666    0.6429 H   0  0  0  0  0  0  0  0  0  0  0  0
    6.6835   -2.5593    0.8831 H   0  0  0  0  0  0  0  0  0  0  0  0
  1 21  1  0
  1 22  1  0
  2  7  1  0
  2 22  2  0
  2 23  1  0
  3 23  2  0
  3 24  1  0
  3 25  1  0
  4  5  1  0
  4 25  2  0
  5  6  2  0
  6 23  1  0
  6 26  1  0
  7 27  1  0
  7 30  2  0
  8  9  1  0
  8 27  2  0
  8 28  1  0
  9 29  2  0
 10 11  2  0
 11 12  1  0
 11 13  1  0
 13 14  2  0
 13 34  1  0
 14 15  1  0
 15 16  2  0
 16 17  1  0
 16 33  1  0
 17 18  1  0
 18 19  2  0
 18 32  1  0
 19 20  1  0
 20 21  2  0
 21 31  1  0
 29 30  1  0
 30 31  1  0
 31 32  2  0
 33 34  2  0
  1 35  1  0
  1 36  1  0
  4 37  1  0
  5 38  1  0
  9 39  1  0
 12 40  1  0
 14 41  1  0
 15 42  1  0
 17 43  1  0
 20 44  1  0
 25 45  1  0
 27 46  1  0
 29 47  1  0
 33 48  1  0
 34 49  1  0
A    1
C13
A    2
C15
A    3
C17
A    4
C20
A    5
C21
A    6
C22
A    7
C24
A    8
C26
A    9
C28
A   10
O01
A   11
C02
A   12
O03
A   13
C04
A   14
C05
A   15
C06
A   16
C07
A   17
N08
A   18
C09
A   19
N10
A   20
C11
A   21
C12
A   22
N14
A   23
C16
A   24
F18
A   25
C19
A   26
F23
A   27
C25
A   28
CL1
A   29
C29
A   30
C30
A   31
C31
A   32
N32
A   33
C33
A   34
C34
M  END
