2WUE_KEK_B_1289
     RDKit          3D

 34 34  0  0  0  0  0  0  0  0999 V2000
   10.8520  -40.7440    6.9840 Cl  0  0  0  0  0  0  0  0  0  0  0  0
   12.4910  -40.9300    6.3370 C   0  0  0  0  0  0  0  0  0  0  0  0
   12.7300  -41.0070    4.8310 C   0  0  0  0  0  0  0  0  0  0  0  0
   14.1470  -41.1610    4.2750 C   0  0  0  0  0  0  0  0  0  0  0  0
   15.3340  -41.2280    5.2510 C   0  0  0  0  0  0  0  0  0  0  0  0
   15.0870  -41.1330    6.7690 C   0  0  0  0  0  0  0  0  0  0  0  0
   13.6700  -40.9680    7.3220 C   0  0  0  0  0  0  0  0  0  0  0  0
   13.3730  -40.8680    8.8240 C   0  0  0  0  0  0  0  0  0  0  0  0
   12.2590  -41.9130    8.9920 C   0  0  0  0  0  0  0  0  0  0  0  0
   11.4280  -41.6380   10.2330 C   0  0  0  0  0  0  0  0  0  0  0  0
   10.0320  -41.0520   10.0010 C   0  0  0  0  0  0  0  0  0  0  0  0
    9.3280  -41.1240   11.3330 C   0  0  0  0  0  0  0  0  0  0  0  0
    9.3160  -40.0260   12.0430 C   0  0  0  0  0  0  0  0  0  0  0  0
    8.9360  -40.1490   13.4940 C   0  0  0  0  0  0  0  0  0  0  0  0
    8.9720  -38.9910   14.4800 C   0  0  0  0  0  0  0  0  0  0  0  0
    8.5400  -37.6970   14.1180 O   0  0  0  0  0  0  0  0  0  0  0  0
    9.7830  -39.0380   15.3300 O   0  0  0  0  0  0  0  0  0  0  0  0
    8.9470  -41.2310   13.9180 O   0  0  0  0  0  0  0  0  0  0  0  0
   10.0390  -39.5990    9.5230 C   0  0  0  0  0  0  0  0  0  0  0  0
   11.7820  -41.9140   11.3060 O   0  0  0  0  0  0  0  0  0  0  0  0
   11.8761  -40.9513    4.1398 H   0  0  0  0  0  0  0  0  0  0  0  0
   14.3150  -41.2231    3.1897 H   0  0  0  0  0  0  0  0  0  0  0  0
   16.3578  -41.3436    4.8658 H   0  0  0  0  0  0  0  0  0  0  0  0
   15.9390  -41.1844    7.4629 H   0  0  0  0  0  0  0  0  0  0  0  0
   14.2575  -41.1247    9.4255 H   0  0  0  0  0  0  0  0  0  0  0  0
   13.0916  -39.8581    9.1571 H   0  0  0  0  0  0  0  0  0  0  0  0
   11.6043  -41.8841    8.1085 H   0  0  0  0  0  0  0  0  0  0  0  0
   12.7251  -42.9037    9.0984 H   0  0  0  0  0  0  0  0  0  0  0  0
    9.5361  -41.6255    9.2040 H   0  0  0  0  0  0  0  0  0  0  0  0
    8.8508  -42.0495   11.6877 H   0  0  0  0  0  0  0  0  0  0  0  0
    9.5729  -39.0532   11.5984 H   0  0  0  0  0  0  0  0  0  0  0  0
   10.0422  -38.9266   10.3936 H   0  0  0  0  0  0  0  0  0  0  0  0
   10.9380  -39.4171    8.9158 H   0  0  0  0  0  0  0  0  0  0  0  0
    9.1418  -39.4084    8.9158 H   0  0  0  0  0  0  0  0  0  0  0  0
  1  2  1  0
  2  3  2  0
  2  7  1  0
  3  4  1  0
  4  5  2  0
  5  6  1  0
  6  7  2  0
  7  8  1  0
  8  9  1  0
  9 10  1  0
 10 11  1  0
 10 20  2  0
 11 12  1  0
 11 19  1  0
 12 13  2  0
 13 14  1  0
 14 15  1  0
 14 18  2  0
 15 16  1  0
 15 17  2  0
  3 21  1  0
  4 22  1  0
  5 23  1  0
  6 24  1  0
  8 25  1  0
  8 26  1  0
  9 27  1  0
  9 28  1  0
 11 29  1  0
 12 30  1  0
 13 31  1  0
 19 32  1  0
 19 33  1  0
 19 34  1  0
M  CHG  1  16  -1
A    1
CL
A    2
C02
A    3
C03
A    4
C04
A    5
C05
A    6
C06
A    7
C07
A    8
C08
A    9
C09
A   10
C10
A   11
C11
A   12
C12
A   13
C13
A   14
C14
A   15
C15
A   16
O16
A   17
O17
A   18
O18
A   19
C19
A   20
O20
M  END
