2WUF_KEM_B_1289
     RDKit          3D

 50 51  0  0  0  0  0  0  0  0999 V2000
    9.8520  -39.5360    9.4710 C   0  0  0  0  0  0  0  0  0  0  0  0
   10.0020  -40.8720   10.2100 C   0  0  0  0  0  0  0  0  0  0  0  0
    9.3170  -40.9380   11.5830 C   0  0  0  0  0  0  0  0  0  0  0  0
    9.3580  -39.8410   12.3420 C   0  0  0  0  0  0  0  0  0  0  0  0
    8.8290  -39.7800   13.7770 C   0  0  0  0  0  0  0  0  0  0  0  0
    8.7710  -40.7940   14.3670 O   0  0  0  0  0  0  0  0  0  0  0  0
    8.4360  -38.4380   14.4350 C   0  0  0  0  0  0  0  0  0  0  0  0
    8.1160  -37.2910   13.7200 O   0  0  0  0  0  0  0  0  0  0  0  0
    8.8250  -38.1850   15.5080 O   0  0  0  0  0  0  0  0  0  0  0  0
   11.4110  -41.4270   10.1720 C   0  0  0  0  0  0  0  0  0  0  0  0
   11.7950  -41.8220   11.1990 O   0  0  0  0  0  0  0  0  0  0  0  0
   12.3530  -40.8410    9.0590 C   0  0  0  0  0  0  0  0  0  0  0  0
   11.8860  -40.7930    7.5550 C   0  0  0  0  0  0  0  0  0  0  0  0
   13.1880  -40.7600    6.6710 C   0  0  0  0  0  0  0  0  0  0  0  0
   13.1780  -40.5560    5.0860 C   0  0  0  0  0  0  0  0  0  0  0  0
   13.6170  -39.1350    4.6850 C   0  0  0  0  0  0  0  0  0  0  0  0
   14.2080  -39.2170    3.2680 C   0  0  0  0  0  0  0  0  0  0  0  0
   14.8770  -40.5890    3.1900 C   0  0  0  0  0  0  0  0  0  0  0  0
   15.3420  -41.0980    2.2260 O   0  0  0  0  0  0  0  0  0  0  0  0
   14.2690  -41.4080    4.3180 C   0  0  0  0  0  0  0  0  0  0  0  0
   13.7930  -42.7620    3.7230 C   0  0  0  0  0  0  0  0  0  0  0  0
   15.3830  -41.8210    5.2510 C   0  0  0  0  0  0  0  0  0  0  0  0
   14.6720  -42.8430    6.1110 C   0  0  0  0  0  0  0  0  0  0  0  0
   13.8430  -42.0530    7.0810 C   0  0  0  0  0  0  0  0  0  0  0  0
   13.5430  -42.5400    8.0880 O   0  0  0  0  0  0  0  0  0  0  0  0
    9.7604  -38.7202   10.2032 H   0  0  0  0  0  0  0  0  0  0  0  0
   10.7366  -39.3647    8.8400 H   0  0  0  0  0  0  0  0  0  0  0  0
    8.9515  -39.5651    8.8400 H   0  0  0  0  0  0  0  0  0  0  0  0
    9.4082  -41.5814    9.6149 H   0  0  0  0  0  0  0  0  0  0  0  0
    8.8127  -41.8530   11.9271 H   0  0  0  0  0  0  0  0  0  0  0  0
    9.7970  -38.9287   11.9118 H   0  0  0  0  0  0  0  0  0  0  0  0
   12.5785  -39.8048    9.3514 H   0  0  0  0  0  0  0  0  0  0  0  0
   13.1836  -41.5618    9.0355 H   0  0  0  0  0  0  0  0  0  0  0  0
   11.2893  -41.6856    7.3158 H   0  0  0  0  0  0  0  0  0  0  0  0
   11.2600  -39.9085    7.3659 H   0  0  0  0  0  0  0  0  0  0  0  0
   13.6946  -39.8045    6.8719 H   0  0  0  0  0  0  0  0  0  0  0  0
   12.1440  -40.8267    4.8262 H   0  0  0  0  0  0  0  0  0  0  0  0
   12.7500  -38.4580    4.6918 H   0  0  0  0  0  0  0  0  0  0  0  0
   14.3623  -38.7450    5.3939 H   0  0  0  0  0  0  0  0  0  0  0  0
   13.4124  -39.1326    2.5130 H   0  0  0  0  0  0  0  0  0  0  0  0
   14.9198  -38.4015    3.0722 H   0  0  0  0  0  0  0  0  0  0  0  0
   15.9624  -40.4175    3.2403 H   0  0  0  0  0  0  0  0  0  0  0  0
   15.9835  -41.8002    2.5005 H   0  0  0  0  0  0  0  0  0  0  0  0
   13.5489  -43.4562    4.5406 H   0  0  0  0  0  0  0  0  0  0  0  0
   12.8992  -42.5963    3.1036 H   0  0  0  0  0  0  0  0  0  0  0  0
   14.5938  -43.1921    3.1036 H   0  0  0  0  0  0  0  0  0  0  0  0
   16.2245  -42.2693    4.7025 H   0  0  0  0  0  0  0  0  0  0  0  0
   15.8364  -40.9910    5.8127 H   0  0  0  0  0  0  0  0  0  0  0  0
   14.0288  -43.4848    5.4910 H   0  0  0  0  0  0  0  0  0  0  0  0
   15.3837  -43.5026    6.6291 H   0  0  0  0  0  0  0  0  0  0  0  0
  1  2  1  0
  2  3  1  0
  2 10  1  0
  3  4  2  0
  4  5  1  0
  5  6  2  0
  5  7  1  0
  7  8  1  0
  7  9  2  0
 10 11  2  0
 10 12  1  0
 12 13  1  0
 13 14  1  0
 14 15  1  0
 14 24  1  0
 15 16  1  0
 15 20  1  0
 16 17  1  0
 17 18  1  0
 18 19  1  0
 18 20  1  0
 20 21  1  0
 20 22  1  0
 22 23  1  0
 23 24  1  0
 24 25  2  0
  1 26  1  0
  1 27  1  0
  1 28  1  0
  2 29  1  0
  3 30  1  0
  4 31  1  0
 12 32  1  0
 12 33  1  0
 13 34  1  0
 13 35  1  0
 14 36  1  0
 15 37  1  0
 16 38  1  0
 16 39  1  0
 17 40  1  0
 17 41  1  0
 18 42  1  0
 19 43  1  0
 21 44  1  0
 21 45  1  0
 21 46  1  0
 22 47  1  0
 22 48  1  0
 23 49  1  0
 23 50  1  0
M  CHG  1   8  -1
A    1
C01
A    2
C02
A    3
C03
A    4
C04
A    5
C05
A    6
O06
A    7
C07
A    8
O08
A    9
O09
A   10
C10
A   11
O11
A   12
C12
A   13
C13
A   14
C14
A   15
C15
A   16
C16
A   17
C17
A   18
C18
A   19
O19
A   20
C20
A   21
C21
A   22
C22
A   23
C23
A   24
C24
A   25
O25
M  END
