2WVA_TPU_A_600
     RDKit          3D

 44 45  0  0  0  0  0  0  0  0999 V2000
   18.3930   32.2590   -7.4120 O   0  0  0  0  0  0  0  0  0  0  0  0
   17.8200   31.0660   -8.3900 P   0  0  0  0  0  0  0  0  0  0  0  0
   18.5800   29.6430   -8.0630 O   0  0  0  0  0  0  0  0  0  0  0  0
   18.1790   31.3990   -9.7600 O   0  0  0  0  0  0  0  0  0  0  0  0
   16.1880   30.9720   -8.1590 O   0  0  0  0  0  0  0  0  0  0  0  0
   15.1590   30.1370   -9.1360 P   0  0  0  0  0  0  0  0  0  0  0  0
   14.8140   31.0610  -10.4350 O   0  0  0  0  0  0  0  0  0  0  0  0
   13.8920   29.9420   -8.4230 O   0  0  0  0  0  0  0  0  0  0  0  0
   15.7810   28.6960   -9.6000 O   0  0  0  0  0  0  0  0  0  0  0  0
   15.1970   27.5070   -9.1770 C   0  0  0  0  0  0  0  0  0  0  0  0
   15.7110   26.2270   -9.8290 C   0  0  0  0  0  0  0  0  0  0  0  0
   15.5520   24.9520   -9.0180 C   0  0  0  0  0  0  0  0  0  0  0  0
   14.9930   23.8110   -9.4530 C   0  0  0  0  0  0  0  0  0  0  0  0
   14.4530   23.6050  -10.8590 C   0  0  0  0  0  0  0  0  0  0  0  0
   15.9420   24.7620   -7.6770 N   0  0  0  0  0  0  0  0  0  0  0  0
   15.6090   23.5160   -7.3350 N   0  0  0  0  0  0  0  0  0  0  0  0
   15.0110   22.8930   -8.4260 N   0  0  0  0  0  0  0  0  0  0  0  0
   14.5310   21.5130   -8.4690 C   0  0  0  0  0  0  0  0  0  0  0  0
   13.0130   21.4620   -8.2670 C   0  0  0  0  0  0  0  0  0  0  0  0
   12.1840   21.1910   -9.2820 C   0  0  0  0  0  0  0  0  0  0  0  0
   10.8490   21.1700   -9.0690 N   0  0  0  0  0  0  0  0  0  0  0  0
   10.3290   21.4320   -7.7980 C   0  0  0  0  0  0  0  0  0  0  0  0
    8.8130   21.4160   -7.5940 C   0  0  0  0  0  0  0  0  0  0  0  0
   11.1820   21.7110   -6.7360 N   0  0  0  0  0  0  0  0  0  0  0  0
   12.4770   21.7350   -6.9350 C   0  0  0  0  0  0  0  0  0  0  0  0
   13.4240   21.9970   -5.8620 N   0  0  0  0  0  0  0  0  0  0  0  0
   18.2677   31.9982   -6.4652 H   0  0  0  0  0  0  0  0  0  0  0  0
   18.6450   29.5213   -7.0827 H   0  0  0  0  0  0  0  0  0  0  0  0
   14.4842   31.9444  -10.1334 H   0  0  0  0  0  0  0  0  0  0  0  0
   15.3631   27.4201   -8.0931 H   0  0  0  0  0  0  0  0  0  0  0  0
   14.1400   27.5803   -9.4725 H   0  0  0  0  0  0  0  0  0  0  0  0
   15.1693   26.0919  -10.7768 H   0  0  0  0  0  0  0  0  0  0  0  0
   16.7956   26.3698   -9.9445 H   0  0  0  0  0  0  0  0  0  0  0  0
   13.4265   23.2134  -10.8038 H   0  0  0  0  0  0  0  0  0  0  0  0
   14.4507   24.5654  -11.3953 H   0  0  0  0  0  0  0  0  0  0  0  0
   15.0910   22.8871  -11.3953 H   0  0  0  0  0  0  0  0  0  0  0  0
   14.7803   21.0741   -9.4463 H   0  0  0  0  0  0  0  0  0  0  0  0
   15.0150   20.9445   -7.6612 H   0  0  0  0  0  0  0  0  0  0  0  0
   12.5868   20.9863  -10.2849 H   0  0  0  0  0  0  0  0  0  0  0  0
    8.5879   21.4136   -6.5173 H   0  0  0  0  0  0  0  0  0  0  0  0
    8.3710   22.3095   -8.0590 H   0  0  0  0  0  0  0  0  0  0  0  0
    8.3900   20.5133   -8.0590 H   0  0  0  0  0  0  0  0  0  0  0  0
   13.1252   21.9143   -4.8798 H   0  0  0  0  0  0  0  0  0  0  0  0
   14.3932   22.2652   -6.0846 H   0  0  0  0  0  0  0  0  0  0  0  0
  1  2  1  0
  2  3  1  0
  2  4  2  0
  2  5  1  0
  5  6  1  0
  6  7  1  0
  6  8  2  0
  6  9  1  0
  9 10  1  0
 10 11  1  0
 11 12  1  0
 12 13  2  0
 12 15  1  0
 13 14  1  0
 13 17  1  0
 15 16  2  0
 16 17  1  0
 17 18  1  0
 18 19  1  0
 19 20  2  0
 19 25  1  0
 20 21  1  0
 21 22  2  0
 22 23  1  0
 22 24  1  0
 24 25  2  0
 25 26  1  0
  1 27  1  0
  3 28  1  0
  7 29  1  0
 10 30  1  0
 10 31  1  0
 11 32  1  0
 11 33  1  0
 14 34  1  0
 14 35  1  0
 14 36  1  0
 18 37  1  0
 18 38  1  0
 20 39  1  0
 23 40  1  0
 23 41  1  0
 23 42  1  0
 26 43  1  0
 26 44  1  0
A    1
O23
A    2
P2
A    3
O22
A    4
O21
A    5
O11
A    6
P1
A    7
O12
A    8
O13
A    9
O5G
A   10
C5B
A   11
C5A
A   12
C5
A   13
C4
A   14
C4A
A   15
N1
A   16
N2
A   17
N3
A   18
C35
A   19
C5'
A   20
C6'
A   21
N1'
A   22
C2'
A   23
C2A
A   24
N3'
A   25
C4'
A   26
N4'
M  END
