2WX9_NGE_A_1309
     RDKit          3D

 41 41  0  0  0  0  0  0  0  0999 V2000
    8.1260   -6.1240  -17.6100 O   0  0  0  0  0  0  0  0  0  0  0  0
    7.2440   -6.6550  -16.6220 C   0  0  0  0  0  0  0  0  0  0  0  0
    7.8720   -7.5440  -15.5630 C   0  0  0  0  0  0  0  0  0  0  0  0
    8.4050   -8.6990  -16.1870 O   0  0  0  0  0  0  0  0  0  0  0  0
    8.9910   -6.7820  -14.8230 C   0  0  0  0  0  0  0  0  0  0  0  0
    8.3960   -5.6680  -14.1710 O   0  0  0  0  0  0  0  0  0  0  0  0
    9.6750   -7.7180  -13.8030 C   0  0  0  0  0  0  0  0  0  0  0  0
    8.5930   -8.2820  -13.0360 O   0  0  0  0  0  0  0  0  0  0  0  0
    7.6840   -9.5550  -11.3280 C   0  0  0  0  0  0  0  0  0  0  0  0
    7.3030  -10.7390  -11.2820 O   0  0  0  0  0  0  0  0  0  0  0  0
    7.0630   -8.5760  -10.8260 O   0  0  0  0  0  0  0  0  0  0  0  0
    9.4280  -10.4060  -12.7960 O   0  0  0  0  0  0  0  0  0  0  0  0
   10.0870   -8.7460  -11.1490 C   0  0  0  0  0  0  0  0  0  0  0  0
   11.2790   -8.1710  -11.9680 C   0  0  0  0  0  0  0  0  0  0  0  0
   12.2350   -7.6810  -11.0650 O   0  0  0  0  0  0  0  0  0  0  0  0
   10.6590   -7.0670  -12.8710 C   0  0  0  0  0  0  0  0  0  0  0  0
   11.7170   -6.3490  -13.6110 N   0  0  0  0  0  0  0  0  0  0  0  0
    8.9770   -9.2680  -12.0950 C   0  0  0  0  0  0  0  0  0  0  0  0
   12.1130   -5.1510  -13.2250 C   0  0  0  0  0  0  0  0  0  0  0  0
   11.6380   -4.5080  -12.2950 O   0  0  0  0  0  0  0  0  0  0  0  0
   13.1950   -4.5210  -14.0330 C   0  0  0  0  0  0  0  0  0  0  0  0
   13.5540   -5.2370  -15.2040 O   0  0  0  0  0  0  0  0  0  0  0  0
    8.8837   -5.6679  -17.1651 H   0  0  0  0  0  0  0  0  0  0  0  0
    6.7683   -5.8069  -16.1077 H   0  0  0  0  0  0  0  0  0  0  0  0
    6.5466   -7.3041  -17.1719 H   0  0  0  0  0  0  0  0  0  0  0  0
    7.1061   -7.8381  -14.8303 H   0  0  0  0  0  0  0  0  0  0  0  0
    8.7014   -9.3413  -15.4943 H   0  0  0  0  0  0  0  0  0  0  0  0
    9.7618   -6.4342  -15.5265 H   0  0  0  0  0  0  0  0  0  0  0  0
    8.4596   -5.7870  -13.1902 H   0  0  0  0  0  0  0  0  0  0  0  0
   10.2830   -8.4483  -14.3571 H   0  0  0  0  0  0  0  0  0  0  0  0
    7.0022   -8.4801   -9.8425 H   0  0  0  0  0  0  0  0  0  0  0  0
    9.7044  -11.1034  -12.1500 H   0  0  0  0  0  0  0  0  0  0  0  0
   10.4461   -9.5747  -10.5211 H   0  0  0  0  0  0  0  0  0  0  0  0
    9.6697   -7.9455  -10.5204 H   0  0  0  0  0  0  0  0  0  0  0  0
   11.7964   -8.9091  -12.5985 H   0  0  0  0  0  0  0  0  0  0  0  0
   11.9253   -7.8397  -10.1382 H   0  0  0  0  0  0  0  0  0  0  0  0
   10.1353   -6.3198  -12.2566 H   0  0  0  0  0  0  0  0  0  0  0  0
   12.1497   -6.7878  -14.4363 H   0  0  0  0  0  0  0  0  0  0  0  0
   12.8579   -3.5182  -14.3344 H   0  0  0  0  0  0  0  0  0  0  0  0
   14.0898   -4.5028  -13.3935 H   0  0  0  0  0  0  0  0  0  0  0  0
   13.9828   -6.0922  -14.9494 H   0  0  0  0  0  0  0  0  0  0  0  0
  1  2  1  0
  2  3  1  0
  3  4  1  0
  3  5  1  0
  5  6  1  0
  5  7  1  0
  7  8  1  0
  7 16  1  0
  8 18  1  0
  9 10  2  0
  9 11  1  0
  9 18  1  0
 12 18  1  0
 13 14  1  0
 13 18  1  0
 14 15  1  0
 14 16  1  0
 16 17  1  0
 17 19  1  0
 19 20  2  0
 19 21  1  0
 21 22  1  0
  1 23  1  0
  2 24  1  0
  2 25  1  0
  3 26  1  0
  4 27  1  0
  5 28  1  0
  6 29  1  0
  7 30  1  0
 11 31  1  0
 12 32  1  0
 13 33  1  0
 13 34  1  0
 14 35  1  0
 15 36  1  0
 16 37  1  0
 17 38  1  0
 21 39  1  0
 21 40  1  0
 22 41  1  0
A    1
O8
A    2
C8
A    3
C7
A    4
O7
A    5
C6
A    6
O6
A    7
C5
A    8
O5
A    9
C9
A   10
O9B
A   11
O9A
A   12
O1
A   13
C2
A   14
C3
A   15
O3
A   16
C4
A   17
N4
A   18
C1
A   19
C10
A   20
O10
A   21
C11
A   22
O11
M  END
