2WXD_E18_M_1501
     RDKit          3D

 38 38  0  0  0  0  0  0  0  0999 V2000
   48.4250  115.6210   46.7350 O   0  0  0  0  0  0  0  0  0  0  0  0
   47.9040  116.9280   46.7210 S   0  0  0  0  0  0  0  0  0  0  0  0
   46.5110  116.9750   46.1670 O   0  0  0  0  0  0  0  0  0  0  0  0
   48.7180  117.9040   45.9910 O   0  0  0  0  0  0  0  0  0  0  0  0
   47.7430  117.6640   48.1600 O   0  0  0  0  0  0  0  0  0  0  0  0
   46.8930  118.7250   48.2070 N   0  0  0  0  0  0  0  0  0  0  0  0
   47.0640  119.6010   49.1030 C   0  0  0  0  0  0  0  0  0  0  0  0
   48.3910  119.3700   50.1930 S   0  0  0  0  0  0  0  0  0  0  0  0
   48.2930  119.8600   51.9440 C   0  0  0  0  0  0  0  0  0  0  0  0
   47.7810  121.2840   52.1280 C   0  0  0  0  0  0  0  0  0  0  0  0
   48.4010  122.2200   53.1180 N   0  0  0  0  0  0  0  0  0  0  0  0
   48.3140  121.7680   54.5400 C   0  0  0  0  0  0  0  0  0  0  0  0
   47.6230  123.4760   53.0240 C   0  0  0  0  0  0  0  0  0  0  0  0
   46.0100  120.7230   48.9760 C   0  0  0  0  0  0  0  0  0  0  0  0
   46.5720  121.9730   48.3900 C   0  0  0  0  0  0  0  0  0  0  0  0
   46.4560  123.2070   49.0010 C   0  0  0  0  0  0  0  0  0  0  0  0
   47.1160  124.3010   48.5570 C   0  0  0  0  0  0  0  0  0  0  0  0
   47.9140  124.1810   47.4230 C   0  0  0  0  0  0  0  0  0  0  0  0
   48.0620  122.9620   46.8280 C   0  0  0  0  0  0  0  0  0  0  0  0
   47.4340  121.8210   47.3120 C   0  0  0  0  0  0  0  0  0  0  0  0
   45.8599  116.9970   46.9125 H   0  0  0  0  0  0  0  0  0  0  0  0
   47.6118  119.1709   52.4648 H   0  0  0  0  0  0  0  0  0  0  0  0
   49.3108  119.8164   52.3590 H   0  0  0  0  0  0  0  0  0  0  0  0
   47.8646  121.7723   51.1459 H   0  0  0  0  0  0  0  0  0  0  0  0
   46.7804  121.1203   52.5546 H   0  0  0  0  0  0  0  0  0  0  0  0
   48.4791  122.6260   55.2082 H   0  0  0  0  0  0  0  0  0  0  0  0
   47.3175  121.3424   54.7292 H   0  0  0  0  0  0  0  0  0  0  0  0
   49.0814  121.0029   54.7292 H   0  0  0  0  0  0  0  0  0  0  0  0
   47.3956  123.8431   54.0357 H   0  0  0  0  0  0  0  0  0  0  0  0
   48.2112  124.2320   52.4832 H   0  0  0  0  0  0  0  0  0  0  0  0
   46.6841  123.2861   52.4832 H   0  0  0  0  0  0  0  0  0  0  0  0
   45.1930  120.3676   48.3308 H   0  0  0  0  0  0  0  0  0  0  0  0
   45.6526  120.9609   49.9888 H   0  0  0  0  0  0  0  0  0  0  0  0
   45.8029  123.3032   49.8809 H   0  0  0  0  0  0  0  0  0  0  0  0
   47.0241  125.2641   49.0805 H   0  0  0  0  0  0  0  0  0  0  0  0
   48.4226  125.0640   47.0087 H   0  0  0  0  0  0  0  0  0  0  0  0
   48.6997  122.8799   45.9355 H   0  0  0  0  0  0  0  0  0  0  0  0
   47.6128  120.8349   46.8585 H   0  0  0  0  0  0  0  0  0  0  0  0
  1  2  2  0
  2  3  1  0
  2  4  2  0
  2  5  1  0
  5  6  1  0
  6  7  2  0
  7  8  1  0
  7 14  1  0
  8  9  1  0
  9 10  1  0
 10 11  1  0
 11 12  1  0
 11 13  1  0
 14 15  1  0
 15 16  2  0
 15 20  1  0
 16 17  1  0
 17 18  2  0
 18 19  1  0
 19 20  2  0
  3 21  1  0
  9 22  1  0
  9 23  1  0
 10 24  1  0
 10 25  1  0
 12 26  1  0
 12 27  1  0
 12 28  1  0
 13 29  1  0
 13 30  1  0
 13 31  1  0
 14 32  1  0
 14 33  1  0
 16 34  1  0
 17 35  1  0
 18 36  1  0
 19 37  1  0
 20 38  1  0
A    1
O20
A    2
S19
A    3
O21
A    4
O22
A    5
O18
A    6
N17
A    7
C13
A    8
S1
A    9
C1
A   10
C2
A   11
N18
A   12
C20
A   13
C19
A   14
CB
A   15
CG
A   16
CD2
A   17
CE2
A   18
CZ
A   19
CE1
A   20
CD1
M  END
