2WXG_ZZN_A_1500
     RDKit          3D

 60 65  0  0  0  0  0  0  0  0999 V2000
    2.8310  -34.0650  -23.9930 C   0  0  0  0  0  0  0  0  0  0  0  0
    3.5990  -35.3540  -23.8360 C   0  0  0  0  0  0  0  0  0  0  0  0
    3.2290  -36.4940  -24.6000 C   0  0  0  0  0  0  0  0  0  0  0  0
    3.9610  -37.6630  -24.4330 C   0  0  0  0  0  0  0  0  0  0  0  0
    5.0470  -37.7330  -23.5560 C   0  0  0  0  0  0  0  0  0  0  0  0
    5.4100  -36.6100  -22.8110 C   0  0  0  0  0  0  0  0  0  0  0  0
    4.6840  -35.4060  -22.9710 C   0  0  0  0  0  0  0  0  0  0  0  0
    5.1470  -34.3410  -22.1540 N   0  0  0  0  0  0  0  0  0  0  0  0
    4.5900  -34.1750  -20.8630 C   0  0  0  0  0  0  0  0  0  0  0  0
    3.6510  -34.8970  -20.5630 O   0  0  0  0  0  0  0  0  0  0  0  0
    5.0650  -33.1690  -20.0020 C   0  0  0  0  0  0  0  0  0  0  0  0
    4.5260  -32.9260  -18.7180 C   0  0  0  0  0  0  0  0  0  0  0  0
    3.3580  -33.7280  -18.1130 C   0  0  0  0  0  0  0  0  0  0  0  0
    5.0640  -31.8940  -17.9410 C   0  0  0  0  0  0  0  0  0  0  0  0
    6.1220  -31.1290  -18.4040 C   0  0  0  0  0  0  0  0  0  0  0  0
    6.6700  -31.3660  -19.6740 C   0  0  0  0  0  0  0  0  0  0  0  0
    6.1250  -32.3760  -20.4780 C   0  0  0  0  0  0  0  0  0  0  0  0
    6.6610  -32.5940  -21.7140 N   0  0  0  0  0  0  0  0  0  0  0  0
    6.2220  -33.5570  -22.5450 C   0  0  0  0  0  0  0  0  0  0  0  0
    6.8590  -33.7510  -23.9670 C   0  0  0  0  0  0  0  0  0  0  0  0
    7.3730  -32.4100  -24.3350 N   0  0  0  0  0  0  0  0  0  0  0  0
    8.5080  -32.0010  -24.0190 N   0  0  0  0  0  0  0  0  0  0  0  0
    6.6760  -31.5020  -24.9840 C   0  0  0  0  0  0  0  0  0  0  0  0
    5.4140  -31.5210  -25.4680 N   0  0  0  0  0  0  0  0  0  0  0  0
    4.9410  -30.4420  -26.0760 C   0  0  0  0  0  0  0  0  0  0  0  0
    5.7090  -29.3440  -26.2030 N   0  0  0  0  0  0  0  0  0  0  0  0
    6.9540  -29.2530  -25.7460 C   0  0  0  0  0  0  0  0  0  0  0  0
    7.6090  -28.0940  -25.9390 N   0  0  0  0  0  0  0  0  0  0  0  0
    7.4950  -30.3710  -25.0810 C   0  0  0  0  0  0  0  0  0  0  0  0
    8.6940  -30.7500  -24.4410 C   0  0  0  0  0  0  0  0  0  0  0  0
    9.9110  -30.0870  -24.1810 C   0  0  0  0  0  0  0  0  0  0  0  0
   10.7490  -29.4970  -25.1180 C   0  0  0  0  0  0  0  0  0  0  0  0
   10.3450  -30.1110  -22.8350 C   0  0  0  0  0  0  0  0  0  0  0  0
   11.5560  -29.5270  -22.4490 C   0  0  0  0  0  0  0  0  0  0  0  0
   11.9560  -29.5350  -21.1680 F   0  0  0  0  0  0  0  0  0  0  0  0
   12.3820  -28.9170  -23.3940 C   0  0  0  0  0  0  0  0  0  0  0  0
   11.9550  -28.8900  -24.7140 C   0  0  0  0  0  0  0  0  0  0  0  0
   12.7760  -28.3020  -25.6170 O   0  0  0  0  0  0  0  0  0  0  0  0
    2.5891  -33.6590  -22.9997 H   0  0  0  0  0  0  0  0  0  0  0  0
    3.4435  -33.3384  -24.5469 H   0  0  0  0  0  0  0  0  0  0  0  0
    1.9004  -34.2578  -24.5469 H   0  0  0  0  0  0  0  0  0  0  0  0
    2.3855  -36.4518  -25.3048 H   0  0  0  0  0  0  0  0  0  0  0  0
    3.6781  -38.5579  -25.0067 H   0  0  0  0  0  0  0  0  0  0  0  0
    5.6138  -38.6701  -23.4533 H   0  0  0  0  0  0  0  0  0  0  0  0
    6.2528  -36.6604  -22.1059 H   0  0  0  0  0  0  0  0  0  0  0  0
    3.4158  -33.6883  -17.0152 H   0  0  0  0  0  0  0  0  0  0  0  0
    2.4037  -33.2937  -18.4459 H   0  0  0  0  0  0  0  0  0  0  0  0
    3.4205  -34.7746  -18.4459 H   0  0  0  0  0  0  0  0  0  0  0  0
    4.6402  -31.6870  -16.9472 H   0  0  0  0  0  0  0  0  0  0  0  0
    6.5357  -30.3298  -17.7714 H   0  0  0  0  0  0  0  0  0  0  0  0
    7.5182  -30.7654  -20.0344 H   0  0  0  0  0  0  0  0  0  0  0  0
    7.6788  -34.4835  -23.9282 H   0  0  0  0  0  0  0  0  0  0  0  0
    6.1333  -34.1341  -24.6995 H   0  0  0  0  0  0  0  0  0  0  0  0
    3.9171  -30.4441  -26.4781 H   0  0  0  0  0  0  0  0  0  0  0  0
    7.9227  -27.5389  -25.1301 H   0  0  0  0  0  0  0  0  0  0  0  0
    7.7968  -27.7617  -26.8957 H   0  0  0  0  0  0  0  0  0  0  0  0
   10.4698  -29.5035  -26.1820 H   0  0  0  0  0  0  0  0  0  0  0  0
    9.7167  -30.5994  -22.0755 H   0  0  0  0  0  0  0  0  0  0  0  0
   13.3437  -28.4705  -23.1010 H   0  0  0  0  0  0  0  0  0  0  0  0
   13.5406  -27.7544  -25.3078 H   0  0  0  0  0  0  0  0  0  0  0  0
  1  2  1  0
  2  3  2  0
  2  7  1  0
  3  4  1  0
  4  5  2  0
  5  6  1  0
  6  7  2  0
  7  8  1  0
  8  9  1  0
  8 19  1  0
  9 10  2  0
  9 11  1  0
 11 12  2  0
 11 17  1  0
 12 13  1  0
 12 14  1  0
 14 15  2  0
 15 16  1  0
 16 17  2  0
 17 18  1  0
 18 19  2  0
 19 20  1  0
 20 21  1  0
 21 22  1  0
 21 23  1  0
 22 30  2  0
 23 24  2  0
 23 29  1  0
 24 25  1  0
 25 26  2  0
 26 27  1  0
 27 28  1  0
 27 29  2  0
 29 30  1  0
 30 31  1  0
 31 32  2  0
 31 33  1  0
 32 37  1  0
 33 34  2  0
 34 35  1  0
 34 36  1  0
 36 37  2  0
 37 38  1  0
  1 39  1  0
  1 40  1  0
  1 41  1  0
  3 42  1  0
  4 43  1  0
  5 44  1  0
  6 45  1  0
 13 46  1  0
 13 47  1  0
 13 48  1  0
 14 49  1  0
 15 50  1  0
 16 51  1  0
 20 52  1  0
 20 53  1  0
 25 54  1  0
 28 55  1  0
 28 56  1  0
 32 57  1  0
 33 58  1  0
 36 59  1  0
 38 60  1  0
A    1
CAT
A    2
CAP
A    3
CAQ
A    4
CAR
A    5
CAJ
A    6
CAI
A    7
CAH
A    8
NAG
A    9
CAF
A   10
OAB
A   11
CAE
A   12
CAD
A   13
CAA
A   14
CAC
A   15
CAK
A   16
CAL
A   17
CAM
A   18
NAN
A   19
CAO
A   20
CAS
A   21
NAV
A   22
NAU
A   23
C6
A   24
N1
A   25
C2
A   26
N3
A   27
C4
A   28
NBK
A   29
C5
A   30
CBD
A   31
CBC
A   32
CBB
A   33
CBJ
A   34
CBI
A   35
F
A   36
CBH
A   37
CBA
A   38
OAZ
M  END
