2WXH_ZZO_A_1500
     RDKit          3D

 60 65  0  0  0  0  0  0  0  0999 V2000
   -3.3030  -33.6830   23.9610 C   0  0  0  0  0  0  0  0  0  0  0  0
   -4.0530  -34.9750   23.8390 C   0  0  0  0  0  0  0  0  0  0  0  0
   -3.6970  -36.0840   24.6400 C   0  0  0  0  0  0  0  0  0  0  0  0
   -4.4230  -37.2630   24.5140 C   0  0  0  0  0  0  0  0  0  0  0  0
   -5.4900  -37.3720   23.6190 C   0  0  0  0  0  0  0  0  0  0  0  0
   -5.8460  -36.2650   22.8470 C   0  0  0  0  0  0  0  0  0  0  0  0
   -5.1050  -35.0700   22.9700 C   0  0  0  0  0  0  0  0  0  0  0  0
   -5.5130  -33.9960   22.1490 N   0  0  0  0  0  0  0  0  0  0  0  0
   -4.9440  -33.8550   20.8740 C   0  0  0  0  0  0  0  0  0  0  0  0
   -4.0310  -34.6410   20.5680 O   0  0  0  0  0  0  0  0  0  0  0  0
   -5.3750  -32.7980   20.0500 C   0  0  0  0  0  0  0  0  0  0  0  0
   -4.8390  -32.5590   18.7580 C   0  0  0  0  0  0  0  0  0  0  0  0
   -3.7060  -33.4080   18.1300 C   0  0  0  0  0  0  0  0  0  0  0  0
   -5.3320  -31.4910   18.0030 C   0  0  0  0  0  0  0  0  0  0  0  0
   -6.3610  -30.6940   18.4660 C   0  0  0  0  0  0  0  0  0  0  0  0
   -6.8990  -30.9400   19.7380 C   0  0  0  0  0  0  0  0  0  0  0  0
   -6.4110  -31.9800   20.5240 C   0  0  0  0  0  0  0  0  0  0  0  0
   -6.9690  -32.1690   21.7520 N   0  0  0  0  0  0  0  0  0  0  0  0
   -6.5410  -33.1750   22.5490 C   0  0  0  0  0  0  0  0  0  0  0  0
   -7.1760  -33.3710   23.9380 C   0  0  0  0  0  0  0  0  0  0  0  0
   -7.6400  -32.0110   24.3330 N   0  0  0  0  0  0  0  0  0  0  0  0
   -8.7820  -31.5840   24.0580 N   0  0  0  0  0  0  0  0  0  0  0  0
   -6.9020  -31.1290   25.0000 C   0  0  0  0  0  0  0  0  0  0  0  0
   -5.6290  -31.1670   25.4610 N   0  0  0  0  0  0  0  0  0  0  0  0
   -5.1170  -30.1030   26.0750 C   0  0  0  0  0  0  0  0  0  0  0  0
   -5.9100  -29.0170   26.2390 N   0  0  0  0  0  0  0  0  0  0  0  0
   -7.1450  -28.9130   25.8000 C   0  0  0  0  0  0  0  0  0  0  0  0
   -7.8640  -27.7890   26.0190 N   0  0  0  0  0  0  0  0  0  0  0  0
   -7.7070  -30.0010   25.1410 C   0  0  0  0  0  0  0  0  0  0  0  0
   -8.9310  -30.3270   24.5270 C   0  0  0  0  0  0  0  0  0  0  0  0
  -10.1560  -29.6760   24.3110 C   0  0  0  0  0  0  0  0  0  0  0  0
  -10.5920  -29.6240   22.9680 C   0  0  0  0  0  0  0  0  0  0  0  0
  -11.8340  -29.0500   22.7240 C   0  0  0  0  0  0  0  0  0  0  0  0
  -12.3530  -28.9310   21.4800 F   0  0  0  0  0  0  0  0  0  0  0  0
  -12.5900  -28.5530   23.7620 C   0  0  0  0  0  0  0  0  0  0  0  0
  -13.7610  -27.9970   23.4750 O   0  0  0  0  0  0  0  0  0  0  0  0
  -12.1850  -28.5800   25.0680 C   0  0  0  0  0  0  0  0  0  0  0  0
  -10.9580  -29.1760   25.3180 C   0  0  0  0  0  0  0  0  0  0  0  0
   -3.1619  -33.4399   25.0245 H   0  0  0  0  0  0  0  0  0  0  0  0
   -2.3216  -33.7813   23.4740 H   0  0  0  0  0  0  0  0  0  0  0  0
   -3.8751  -32.8795   23.4740 H   0  0  0  0  0  0  0  0  0  0  0  0
   -2.8602  -36.0154   25.3506 H   0  0  0  0  0  0  0  0  0  0  0  0
   -4.1508  -38.1302   25.1335 H   0  0  0  0  0  0  0  0  0  0  0  0
   -6.0427  -38.3183   23.5238 H   0  0  0  0  0  0  0  0  0  0  0  0
   -6.6951  -36.3233   22.1501 H   0  0  0  0  0  0  0  0  0  0  0  0
   -3.1013  -33.8611   18.9293 H   0  0  0  0  0  0  0  0  0  0  0  0
   -4.1446  -34.2017   17.5073 H   0  0  0  0  0  0  0  0  0  0  0  0
   -3.0674  -32.7642   17.5073 H   0  0  0  0  0  0  0  0  0  0  0  0
   -4.8906  -31.2803   17.0177 H   0  0  0  0  0  0  0  0  0  0  0  0
   -6.7540  -29.8759   17.8444 H   0  0  0  0  0  0  0  0  0  0  0  0
   -7.7135  -30.3056   20.1175 H   0  0  0  0  0  0  0  0  0  0  0  0
   -8.0236  -34.0699   23.8826 H   0  0  0  0  0  0  0  0  0  0  0  0
   -6.4687  -33.7983   24.6641 H   0  0  0  0  0  0  0  0  0  0  0  0
   -4.0790  -30.1054   26.4391 H   0  0  0  0  0  0  0  0  0  0  0  0
   -8.0600  -27.4826   26.9826 H   0  0  0  0  0  0  0  0  0  0  0  0
   -8.2157  -27.2392   25.2222 H   0  0  0  0  0  0  0  0  0  0  0  0
   -9.9740  -30.0214   22.1494 H   0  0  0  0  0  0  0  0  0  0  0  0
  -14.3650  -27.7102   24.2051 H   0  0  0  0  0  0  0  0  0  0  0  0
  -12.7983  -28.1528   25.8751 H   0  0  0  0  0  0  0  0  0  0  0  0
  -10.6101  -29.2535   26.3587 H   0  0  0  0  0  0  0  0  0  0  0  0
  1  2  1  0
  2  3  2  0
  2  7  1  0
  3  4  1  0
  4  5  2  0
  5  6  1  0
  6  7  2  0
  7  8  1  0
  8  9  1  0
  8 19  1  0
  9 10  2  0
  9 11  1  0
 11 12  2  0
 11 17  1  0
 12 13  1  0
 12 14  1  0
 14 15  2  0
 15 16  1  0
 16 17  2  0
 17 18  1  0
 18 19  2  0
 19 20  1  0
 20 21  1  0
 21 22  1  0
 21 23  1  0
 22 30  2  0
 23 24  2  0
 23 29  1  0
 24 25  1  0
 25 26  2  0
 26 27  1  0
 27 28  1  0
 27 29  2  0
 29 30  1  0
 30 31  1  0
 31 32  2  0
 31 38  1  0
 32 33  1  0
 33 34  1  0
 33 35  2  0
 35 36  1  0
 35 37  1  0
 37 38  2  0
  1 39  1  0
  1 40  1  0
  1 41  1  0
  3 42  1  0
  4 43  1  0
  5 44  1  0
  6 45  1  0
 13 46  1  0
 13 47  1  0
 13 48  1  0
 14 49  1  0
 15 50  1  0
 16 51  1  0
 20 52  1  0
 20 53  1  0
 25 54  1  0
 28 55  1  0
 28 56  1  0
 32 57  1  0
 36 58  1  0
 37 59  1  0
 38 60  1  0
A    1
CAT
A    2
CAL
A    3
CAM
A    4
CAE
A    5
CAD
A    6
CAC
A    7
CAK
A    8
NAJ
A    9
CAI
A   10
OAB
A   11
CAH
A   12
CAG
A   13
CAA
A   14
CAF
A   15
CAN
A   16
CAO
A   17
CAP
A   18
NAQ
A   19
CAR
A   20
CAS
A   21
NAV
A   22
NAU
A   23
C6
A   24
N1
A   25
C2
A   26
N3
A   27
C4
A   28
NBG
A   29
C5
A   30
CAZ
A   31
CBE
A   32
CBD
A   33
CBH
A   34
F
A   35
CBI
A   36
OBL
A   37
CBJ
A   38
CBF
M  END
