2WXI_S30_A_1500
     RDKit          3D

 55 59  0  0  0  0  0  0  0  0999 V2000
   -3.0690   -0.3840   23.6990 C   0  0  0  0  0  0  0  0  0  0  0  0
   -3.9430   -1.5950   23.7250 C   0  0  0  0  0  0  0  0  0  0  0  0
   -3.5360   -2.6450   24.5200 C   0  0  0  0  0  0  0  0  0  0  0  0
   -4.3770   -3.7620   24.5220 C   0  0  0  0  0  0  0  0  0  0  0  0
   -5.5650   -3.8720   23.7640 C   0  0  0  0  0  0  0  0  0  0  0  0
   -5.9380   -2.8180   22.9420 C   0  0  0  0  0  0  0  0  0  0  0  0
   -5.1240   -1.6700   22.9590 C   0  0  0  0  0  0  0  0  0  0  0  0
   -5.5670   -0.6420   22.1230 N   0  0  0  0  0  0  0  0  0  0  0  0
   -4.9880   -0.5260   20.8570 C   0  0  0  0  0  0  0  0  0  0  0  0
   -4.0720   -1.3320   20.6260 O   0  0  0  0  0  0  0  0  0  0  0  0
   -5.4390    0.4730   19.9790 C   0  0  0  0  0  0  0  0  0  0  0  0
   -4.8920    0.7000   18.6800 C   0  0  0  0  0  0  0  0  0  0  0  0
   -3.7230   -0.1380   18.0630 C   0  0  0  0  0  0  0  0  0  0  0  0
   -5.4080    1.7400   17.8700 C   0  0  0  0  0  0  0  0  0  0  0  0
   -6.4600    2.5350   18.3350 C   0  0  0  0  0  0  0  0  0  0  0  0
   -6.9750    2.3240   19.6140 C   0  0  0  0  0  0  0  0  0  0  0  0
   -6.4750    1.3000   20.4400 C   0  0  0  0  0  0  0  0  0  0  0  0
   -7.0410    1.1460   21.6650 N   0  0  0  0  0  0  0  0  0  0  0  0
   -6.6160    0.1860   22.5200 C   0  0  0  0  0  0  0  0  0  0  0  0
   -7.2160   -0.0090   23.9270 C   0  0  0  0  0  0  0  0  0  0  0  0
   -7.5330    1.3440   24.4570 N   0  0  0  0  0  0  0  0  0  0  0  0
   -8.6920    1.7350   24.3600 N   0  0  0  0  0  0  0  0  0  0  0  0
   -6.7400    2.2710   25.0190 C   0  0  0  0  0  0  0  0  0  0  0  0
   -5.4500    2.3510   25.3370 N   0  0  0  0  0  0  0  0  0  0  0  0
   -4.8830    3.4070   25.9270 C   0  0  0  0  0  0  0  0  0  0  0  0
   -5.6070    4.4760   26.2180 N   0  0  0  0  0  0  0  0  0  0  0  0
   -6.9230    4.4800   25.9180 C   0  0  0  0  0  0  0  0  0  0  0  0
   -7.5910    5.5730   26.2480 N   0  0  0  0  0  0  0  0  0  0  0  0
   -7.5280    3.3560   25.3060 C   0  0  0  0  0  0  0  0  0  0  0  0
   -8.7900    2.9470   24.8490 C   0  0  0  0  0  0  0  0  0  0  0  0
  -10.0230    3.6400   24.8510 C   0  0  0  0  0  0  0  0  0  0  0  0
  -11.0590    4.1600   24.8430 C   0  0  0  0  0  0  0  0  0  0  0  0
  -12.3610    4.8130   24.8400 C   0  0  0  0  0  0  0  0  0  0  0  0
  -13.4010    3.8280   25.0160 O   0  0  0  0  0  0  0  0  0  0  0  0
   -2.8439   -0.0721   24.7296 H   0  0  0  0  0  0  0  0  0  0  0  0
   -2.1315   -0.6197   23.1742 H   0  0  0  0  0  0  0  0  0  0  0  0
   -3.5880    0.4316   23.1742 H   0  0  0  0  0  0  0  0  0  0  0  0
   -2.6107   -2.6066   25.1136 H   0  0  0  0  0  0  0  0  0  0  0  0
   -4.0945   -4.6143   25.1575 H   0  0  0  0  0  0  0  0  0  0  0  0
   -6.1843   -4.7791   23.8248 H   0  0  0  0  0  0  0  0  0  0  0  0
   -6.8322   -2.8773   22.3040 H   0  0  0  0  0  0  0  0  0  0  0  0
   -3.1168   -0.5725   18.8716 H   0  0  0  0  0  0  0  0  0  0  0  0
   -4.1385   -0.9452   17.4419 H   0  0  0  0  0  0  0  0  0  0  0  0
   -3.0920    0.5147   17.4419 H   0  0  0  0  0  0  0  0  0  0  0  0
   -4.9806    1.9230   16.8731 H   0  0  0  0  0  0  0  0  0  0  0  0
   -6.8801    3.3243   17.6943 H   0  0  0  0  0  0  0  0  0  0  0  0
   -7.7859    2.9690   19.9834 H   0  0  0  0  0  0  0  0  0  0  0  0
   -8.1321   -0.6149   23.8662 H   0  0  0  0  0  0  0  0  0  0  0  0
   -6.5078   -0.5323   24.5862 H   0  0  0  0  0  0  0  0  0  0  0  0
   -3.8107    3.3880   26.1718 H   0  0  0  0  0  0  0  0  0  0  0  0
   -7.7350    5.8087   27.2403 H   0  0  0  0  0  0  0  0  0  0  0  0
   -7.9671    6.1884   25.5127 H   0  0  0  0  0  0  0  0  0  0  0  0
  -12.4058    5.5425   25.6620 H   0  0  0  0  0  0  0  0  0  0  0  0
  -12.5071    5.3285   23.8793 H   0  0  0  0  0  0  0  0  0  0  0  0
  -13.5562    3.6810   25.9827 H   0  0  0  0  0  0  0  0  0  0  0  0
  1  2  1  0
  2  3  2  0
  2  7  1  0
  3  4  1  0
  4  5  2  0
  5  6  1  0
  6  7  2  0
  7  8  1  0
  8  9  1  0
  8 19  1  0
  9 10  2  0
  9 11  1  0
 11 12  2  0
 11 17  1  0
 12 13  1  0
 12 14  1  0
 14 15  2  0
 15 16  1  0
 16 17  2  0
 17 18  1  0
 18 19  2  0
 19 20  1  0
 20 21  1  0
 21 22  1  0
 21 23  1  0
 22 30  2  0
 23 24  2  0
 23 29  1  0
 24 25  1  0
 25 26  2  0
 26 27  1  0
 27 28  1  0
 27 29  2  0
 29 30  1  0
 30 31  1  0
 31 32  3  0
 32 33  1  0
 33 34  1  0
  1 35  1  0
  1 36  1  0
  1 37  1  0
  3 38  1  0
  4 39  1  0
  5 40  1  0
  6 41  1  0
 13 42  1  0
 13 43  1  0
 13 44  1  0
 14 45  1  0
 15 46  1  0
 16 47  1  0
 20 48  1  0
 20 49  1  0
 25 50  1  0
 28 51  1  0
 28 52  1  0
 33 53  1  0
 33 54  1  0
 34 55  1  0
A    1
CAT
A    2
CAL
A    3
CAM
A    4
CAE
A    5
CAD
A    6
CAC
A    7
CAK
A    8
NAJ
A    9
CAI
A   10
OAB
A   11
CAH
A   12
CAG
A   13
CAA
A   14
CAF
A   15
CAN
A   16
CAO
A   17
CAP
A   18
NAQ
A   19
CAR
A   20
CAS
A   21
NAV
A   22
NAU
A   23
C6
A   24
N1
A   25
C2
A   26
N3
A   27
C4
A   28
NBE
A   29
C5
A   30
CAZ
A   31
CBD
A   32
CBF
A   33
CBG
A   34
OBH
M  END
