2WXJ_RW3_A_1500
     RDKit          3D

 69 75  0  0  0  0  0  0  0  0999 V2000
   -3.7220  -35.7710   23.5660 C   0  0  0  0  0  0  0  0  0  0  0  0
   -2.7670  -35.9520   24.7100 C   0  0  0  0  0  0  0  0  0  0  0  0
   -1.4140  -35.8510   24.2410 N   0  0  0  0  0  0  0  0  0  0  0  0
   -0.5100  -36.0570   25.3540 C   0  0  0  0  0  0  0  0  0  0  0  0
   -1.1770  -34.5160   23.7890 C   0  0  0  0  0  0  0  0  0  0  0  0
   -2.0400  -34.1870   22.6130 C   0  0  0  0  0  0  0  0  0  0  0  0
   -3.3980  -34.5860   22.8120 N   0  0  0  0  0  0  0  0  0  0  0  0
   -4.2900  -33.8660   22.1230 C   0  0  0  0  0  0  0  0  0  0  0  0
   -3.9150  -33.5890   20.8980 N   0  0  0  0  0  0  0  0  0  0  0  0
   -4.6400  -32.8670   20.0580 C   0  0  0  0  0  0  0  0  0  0  0  0
   -4.2150  -32.5920   18.7750 C   0  0  0  0  0  0  0  0  0  0  0  0
   -4.9650  -31.8210   17.9220 C   0  0  0  0  0  0  0  0  0  0  0  0
   -6.1580  -31.3280   18.3470 C   0  0  0  0  0  0  0  0  0  0  0  0
   -6.5800  -31.6050   19.6150 C   0  0  0  0  0  0  0  0  0  0  0  0
   -5.8240  -32.3670   20.4710 C   0  0  0  0  0  0  0  0  0  0  0  0
   -6.2400  -32.6400   21.7340 C   0  0  0  0  0  0  0  0  0  0  0  0
   -5.4760  -33.3900   22.6040 C   0  0  0  0  0  0  0  0  0  0  0  0
   -6.0490  -33.5880   23.9980 C   0  0  0  0  0  0  0  0  0  0  0  0
   -6.6520  -32.3230   24.4460 N   0  0  0  0  0  0  0  0  0  0  0  0
   -7.8040  -32.0440   24.2510 N   0  0  0  0  0  0  0  0  0  0  0  0
   -6.0640  -31.3560   25.0500 C   0  0  0  0  0  0  0  0  0  0  0  0
   -4.8410  -31.1960   25.4620 N   0  0  0  0  0  0  0  0  0  0  0  0
   -4.4730  -30.1130   26.0630 C   0  0  0  0  0  0  0  0  0  0  0  0
   -5.2870  -29.1490   26.2810 N   0  0  0  0  0  0  0  0  0  0  0  0
   -6.5180  -29.2330   25.9040 C   0  0  0  0  0  0  0  0  0  0  0  0
   -7.2360  -28.2130   26.1890 N   0  0  0  0  0  0  0  0  0  0  0  0
   -6.9770  -30.3760   25.2630 C   0  0  0  0  0  0  0  0  0  0  0  0
   -8.1310  -30.8700   24.6830 C   0  0  0  0  0  0  0  0  0  0  0  0
   -9.4260  -30.3630   24.5890 C   0  0  0  0  0  0  0  0  0  0  0  0
  -10.2780  -30.6480   23.5400 C   0  0  0  0  0  0  0  0  0  0  0  0
   -9.9450  -29.6130   25.5820 C   0  0  0  0  0  0  0  0  0  0  0  0
  -11.2170  -29.1400   25.5240 C   0  0  0  0  0  0  0  0  0  0  0  0
  -12.0440  -29.4030   24.4930 C   0  0  0  0  0  0  0  0  0  0  0  0
  -13.2850  -29.0130   24.3420 N   0  0  0  0  0  0  0  0  0  0  0  0
  -11.5810  -30.1660   23.4630 C   0  0  0  0  0  0  0  0  0  0  0  0
  -12.8390  -30.2800   22.4170 S   0  0  0  0  0  0  0  0  0  0  0  0
  -13.8520  -29.4250   23.2530 C   0  0  0  0  0  0  0  0  0  0  0  0
  -15.0740  -29.1100   22.9450 N   0  0  0  0  0  0  0  0  0  0  0  0
  -15.4920  -29.5890   21.8220 C   0  0  0  0  0  0  0  0  0  0  0  0
  -16.8860  -29.2460   21.3860 C   0  0  0  0  0  0  0  0  0  0  0  0
  -14.7740  -30.2940   21.1760 O   0  0  0  0  0  0  0  0  0  0  0  0
   -3.6621  -36.6474   22.9040 H   0  0  0  0  0  0  0  0  0  0  0  0
   -4.7398  -35.6651   23.9695 H   0  0  0  0  0  0  0  0  0  0  0  0
   -2.9502  -35.1725   25.4642 H   0  0  0  0  0  0  0  0  0  0  0  0
   -2.9214  -36.9459   25.1554 H   0  0  0  0  0  0  0  0  0  0  0  0
   -1.0581  -35.9321   26.2995 H   0  0  0  0  0  0  0  0  0  0  0  0
   -0.0923  -37.0734   25.3038 H   0  0  0  0  0  0  0  0  0  0  0  0
    0.3068  -35.3220   25.3038 H   0  0  0  0  0  0  0  0  0  0  0  0
   -1.4002  -33.8146   24.6064 H   0  0  0  0  0  0  0  0  0  0  0  0
   -0.1233  -34.4309   23.4850 H   0  0  0  0  0  0  0  0  0  0  0  0
   -2.0109  -33.1003   22.4452 H   0  0  0  0  0  0  0  0  0  0  0  0
   -1.6503  -34.7367   21.7435 H   0  0  0  0  0  0  0  0  0  0  0  0
   -3.2541  -32.9994   18.4277 H   0  0  0  0  0  0  0  0  0  0  0  0
   -4.6043  -31.6046   16.9056 H   0  0  0  0  0  0  0  0  0  0  0  0
   -6.7763  -30.7128   17.6768 H   0  0  0  0  0  0  0  0  0  0  0  0
   -7.5470  -31.2091   19.9587 H   0  0  0  0  0  0  0  0  0  0  0  0
   -7.2123  -32.2528   22.0728 H   0  0  0  0  0  0  0  0  0  0  0  0
   -6.8166  -34.3755   23.9739 H   0  0  0  0  0  0  0  0  0  0  0  0
   -5.2498  -33.8878   24.6918 H   0  0  0  0  0  0  0  0  0  0  0  0
   -3.4295  -30.0163   26.3973 H   0  0  0  0  0  0  0  0  0  0  0  0
   -7.4106  -27.9649   27.1733 H   0  0  0  0  0  0  0  0  0  0  0  0
   -7.6394  -27.6400   25.4341 H   0  0  0  0  0  0  0  0  0  0  0  0
   -9.9082  -31.2877   22.7251 H   0  0  0  0  0  0  0  0  0  0  0  0
   -9.3241  -29.3788   26.4593 H   0  0  0  0  0  0  0  0  0  0  0  0
  -11.5869  -28.5173   26.3519 H   0  0  0  0  0  0  0  0  0  0  0  0
  -15.6644  -28.5226   23.5510 H   0  0  0  0  0  0  0  0  0  0  0  0
  -17.5193  -29.0902   22.2718 H   0  0  0  0  0  0  0  0  0  0  0  0
  -16.8658  -28.3260   20.7833 H   0  0  0  0  0  0  0  0  0  0  0  0
  -17.2949  -30.0703   20.7833 H   0  0  0  0  0  0  0  0  0  0  0  0
  1  2  1  0
  1  7  1  0
  2  3  1  0
  3  4  1  0
  3  5  1  0
  5  6  1  0
  6  7  1  0
  7  8  1  0
  8  9  2  0
  8 17  1  0
  9 10  1  0
 10 11  2  0
 10 15  1  0
 11 12  1  0
 12 13  2  0
 13 14  1  0
 14 15  2  0
 15 16  1  0
 16 17  2  0
 17 18  1  0
 18 19  1  0
 19 20  1  0
 19 21  1  0
 20 28  2  0
 21 22  2  0
 21 27  1  0
 22 23  1  0
 23 24  2  0
 24 25  1  0
 25 26  1  0
 25 27  2  0
 27 28  1  0
 28 29  1  0
 29 30  2  0
 29 31  1  0
 30 35  1  0
 31 32  2  0
 32 33  1  0
 33 34  1  0
 33 35  2  0
 34 37  2  0
 35 36  1  0
 36 37  1  0
 37 38  1  0
 38 39  1  0
 39 40  1  0
 39 41  2  0
  1 42  1  0
  1 43  1  0
  2 44  1  0
  2 45  1  0
  4 46  1  0
  4 47  1  0
  4 48  1  0
  5 49  1  0
  5 50  1  0
  6 51  1  0
  6 52  1  0
 11 53  1  0
 12 54  1  0
 13 55  1  0
 14 56  1  0
 16 57  1  0
 18 58  1  0
 18 59  1  0
 23 60  1  0
 26 61  1  0
 26 62  1  0
 30 63  1  0
 31 64  1  0
 32 65  1  0
 38 66  1  0
 40 67  1  0
 40 68  1  0
 40 69  1  0
A    1
CAA
A    2
CAB
A    3
NAI
A    4
CAJ
A    5
CAQ
A    6
CAP
A    7
NAH
A    8
CAG
A    9
NAF
A   10
CAE
A   11
CAD
A   12
CAC
A   13
CAK
A   14
CAL
A   15
CAM
A   16
CAN
A   17
CAO
A   18
CAR
A   19
NAV
A   20
NBA
A   21
C6
A   22
N1
A   23
C2
A   24
N3
A   25
C4
A   26
NAZ
A   27
C5
A   28
CBB
A   29
CBD
A   30
CBC
A   31
CBE
A   32
CBH
A   33
CBG
A   34
NBO
A   35
CBF
A   36
SBJ
A   37
CBN
A   38
NBM
A   39
CBL
A   40
CBK
A   41
OBI
M  END
