2WXM_ZZM_A_1500
     RDKit          3D

 35 37  0  0  0  0  0  0  0  0999 V2000
   -4.4840   -2.3900   24.1090 C   0  0  0  0  0  0  0  0  0  0  0  0
   -5.9100   -2.0270   23.6960 C   0  0  0  0  0  0  0  0  0  0  0  0
   -6.8930   -3.1060   24.1140 C   0  0  0  0  0  0  0  0  0  0  0  0
   -6.4190   -0.6920   24.1920 N   0  0  0  0  0  0  0  0  0  0  0  0
   -7.5620   -0.3290   23.8730 N   0  0  0  0  0  0  0  0  0  0  0  0
   -5.8250    0.2810   24.9200 C   0  0  0  0  0  0  0  0  0  0  0  0
   -4.6230    0.4490   25.5040 N   0  0  0  0  0  0  0  0  0  0  0  0
   -4.2880    1.5470   26.1820 C   0  0  0  0  0  0  0  0  0  0  0  0
   -5.1380    2.5370   26.3280 N   0  0  0  0  0  0  0  0  0  0  0  0
   -6.3750    2.4660   25.7580 C   0  0  0  0  0  0  0  0  0  0  0  0
   -7.2180    3.4860   25.8750 N   0  0  0  0  0  0  0  0  0  0  0  0
   -6.7310    1.3200   25.0380 C   0  0  0  0  0  0  0  0  0  0  0  0
   -7.8080    0.8930   24.3130 C   0  0  0  0  0  0  0  0  0  0  0  0
   -9.0470    1.5480   24.1570 C   0  0  0  0  0  0  0  0  0  0  0  0
  -10.1100    1.9990   23.9460 C   0  0  0  0  0  0  0  0  0  0  0  0
  -11.3890    2.4550   23.6400 C   0  0  0  0  0  0  0  0  0  0  0  0
  -11.9760    3.4370   24.4120 C   0  0  0  0  0  0  0  0  0  0  0  0
  -13.2480    3.8660   24.0550 C   0  0  0  0  0  0  0  0  0  0  0  0
  -13.8810    3.2860   22.9650 C   0  0  0  0  0  0  0  0  0  0  0  0
  -13.2930    2.3490   22.2520 N   0  0  0  0  0  0  0  0  0  0  0  0
  -12.0790    1.9050   22.5670 C   0  0  0  0  0  0  0  0  0  0  0  0
   -4.4135   -2.4080   25.2066 H   0  0  0  0  0  0  0  0  0  0  0  0
   -4.2277   -3.3820   23.7088 H   0  0  0  0  0  0  0  0  0  0  0  0
   -3.7845   -1.6413   23.7088 H   0  0  0  0  0  0  0  0  0  0  0  0
   -5.8461   -1.9449   22.6009 H   0  0  0  0  0  0  0  0  0  0  0  0
   -6.9381   -3.1555   25.2120 H   0  0  0  0  0  0  0  0  0  0  0  0
   -7.8905   -2.8672   23.7164 H   0  0  0  0  0  0  0  0  0  0  0  0
   -6.5626   -4.0770   23.7164 H   0  0  0  0  0  0  0  0  0  0  0  0
   -3.2845    1.6247   26.6257 H   0  0  0  0  0  0  0  0  0  0  0  0
   -7.4948    3.8209   26.8089 H   0  0  0  0  0  0  0  0  0  0  0  0
   -7.5949    3.9420   25.0318 H   0  0  0  0  0  0  0  0  0  0  0  0
  -11.4543    3.8654   25.2805 H   0  0  0  0  0  0  0  0  0  0  0  0
  -13.7488    4.6581   24.6310 H   0  0  0  0  0  0  0  0  0  0  0  0
  -14.8941    3.6158   22.6914 H   0  0  0  0  0  0  0  0  0  0  0  0
  -11.6198    1.0992   21.9755 H   0  0  0  0  0  0  0  0  0  0  0  0
  1  2  1  0
  2  3  1  0
  2  4  1  0
  4  5  1  0
  4  6  1  0
  5 13  2  0
  6  7  2  0
  6 12  1  0
  7  8  1  0
  8  9  2  0
  9 10  1  0
 10 11  1  0
 10 12  2  0
 12 13  1  0
 13 14  1  0
 14 15  3  0
 15 16  1  0
 16 17  2  0
 16 21  1  0
 17 18  1  0
 18 19  2  0
 19 20  1  0
 20 21  2  0
  1 22  1  0
  1 23  1  0
  1 24  1  0
  2 25  1  0
  3 26  1  0
  3 27  1  0
  3 28  1  0
  8 29  1  0
 11 30  1  0
 11 31  1  0
 17 32  1  0
 18 33  1  0
 19 34  1  0
 21 35  1  0
A    1
CAA
A    2
CAB
A    3
CAC
A    4
NAE
A    5
NAD
A    6
C6
A    7
N1
A    8
C2
A    9
N3
A   10
C4
A   11
NAN
A   12
C5
A   13
CAI
A   14
CAM
A   15
CAO
A   16
CAP
A   17
CAQ
A   18
CAR
A   19
CAU
A   20
NAT
A   21
CAS
M  END
