2WYG_461_A_1245
     RDKit          3D

 53 55  0  0  0  0  0  0  0  0999 V2000
   13.8360    7.4200   26.2020 Cl  0  0  0  0  0  0  0  0  0  0  0  0
   12.1090    7.5820   26.3260 C   0  0  0  0  0  0  0  0  0  0  0  0
   11.3530    7.1170   27.3520 C   0  0  0  0  0  0  0  0  0  0  0  0
   10.0030    7.4060   27.1510 C   0  0  0  0  0  0  0  0  0  0  0  0
   11.2190    8.3990   25.1020 S   0  0  0  0  0  0  0  0  0  0  0  0
    9.7450    8.0980   25.9730 C   0  0  0  0  0  0  0  0  0  0  0  0
    8.4190    8.5290   25.5310 C   0  0  0  0  0  0  0  0  0  0  0  0
    8.0760    8.9630   24.3060 C   0  0  0  0  0  0  0  0  0  0  0  0
    6.4100    9.4180   24.0470 S   0  0  0  0  0  0  0  0  0  0  0  0
    6.3680   10.6590   23.3320 O   0  0  0  0  0  0  0  0  0  0  0  0
    5.7020    9.2010   25.2630 O   0  0  0  0  0  0  0  0  0  0  0  0
    5.8200    8.3890   22.9490 N   0  0  0  0  0  0  0  0  0  0  0  0
    5.9590    6.9700   23.1630 C   0  0  0  0  0  0  0  0  0  0  0  0
    4.6400    6.2160   22.9360 C   0  0  0  0  0  0  0  0  0  0  0  0
    4.9490    5.0760   21.9490 C   0  0  0  0  0  0  0  0  0  0  0  0
    6.8880    6.4160   22.0980 C   0  0  0  0  0  0  0  0  0  0  0  0
    7.9940    6.8560   21.8050 O   0  0  0  0  0  0  0  0  0  0  0  0
    6.3140    5.3380   21.5090 N   0  0  0  0  0  0  0  0  0  0  0  0
    7.0050    4.5440   20.5530 C   0  0  0  0  0  0  0  0  0  0  0  0
    7.5520    5.1550   19.4430 C   0  0  0  0  0  0  0  0  0  0  0  0
    7.4000    6.4750   19.2900 F   0  0  0  0  0  0  0  0  0  0  0  0
    7.1680    3.1740   20.7270 C   0  0  0  0  0  0  0  0  0  0  0  0
    7.8690    2.4530   19.7590 C   0  0  0  0  0  0  0  0  0  0  0  0
    8.4210    3.0820   18.6320 C   0  0  0  0  0  0  0  0  0  0  0  0
    8.2510    4.4560   18.4800 C   0  0  0  0  0  0  0  0  0  0  0  0
    9.1680    2.3280   17.5470 C   0  0  0  0  0  0  0  0  0  0  0  0
   10.0600    1.1850   18.0630 C   0  0  0  0  0  0  0  0  0  0  0  0
    8.2200    1.8630   16.5040 N   0  0  0  0  0  0  0  0  0  0  0  0
    7.2120    0.8780   16.9330 C   0  0  0  0  0  0  0  0  0  0  0  0
    7.6100    2.9150   15.6690 C   0  0  0  0  0  0  0  0  0  0  0  0
   11.7518    6.5826   28.2269 H   0  0  0  0  0  0  0  0  0  0  0  0
    9.2146    7.1131   27.8599 H   0  0  0  0  0  0  0  0  0  0  0  0
    7.6160    8.4942   26.2820 H   0  0  0  0  0  0  0  0  0  0  0  0
    8.8176    9.0292   23.4962 H   0  0  0  0  0  0  0  0  0  0  0  0
    4.8117    8.5829   22.8673 H   0  0  0  0  0  0  0  0  0  0  0  0
    6.3140    6.8371   24.1956 H   0  0  0  0  0  0  0  0  0  0  0  0
    4.2694    5.8049   23.8866 H   0  0  0  0  0  0  0  0  0  0  0  0
    3.8637    6.8859   22.5377 H   0  0  0  0  0  0  0  0  0  0  0  0
    4.8821    4.0988   22.4496 H   0  0  0  0  0  0  0  0  0  0  0  0
    4.2373    5.0423   21.1109 H   0  0  0  0  0  0  0  0  0  0  0  0
    6.7523    2.6680   21.6109 H   0  0  0  0  0  0  0  0  0  0  0  0
    7.9917    1.3668   19.8821 H   0  0  0  0  0  0  0  0  0  0  0  0
    8.6678    4.9764   17.6051 H   0  0  0  0  0  0  0  0  0  0  0  0
    9.8742    3.0444   17.1020 H   0  0  0  0  0  0  0  0  0  0  0  0
   10.0586    1.1868   19.1630 H   0  0  0  0  0  0  0  0  0  0  0  0
    9.6714    0.2230   17.6974 H   0  0  0  0  0  0  0  0  0  0  0  0
   11.0875    1.3282   17.6974 H   0  0  0  0  0  0  0  0  0  0  0  0
    7.1771    0.8439   18.0319 H   0  0  0  0  0  0  0  0  0  0  0  0
    6.2254    1.1697   16.5437 H   0  0  0  0  0  0  0  0  0  0  0  0
    7.4808   -0.1151   16.5437 H   0  0  0  0  0  0  0  0  0  0  0  0
    7.1639    3.6843   16.3164 H   0  0  0  0  0  0  0  0  0  0  0  0
    8.3826    3.3731   15.0340 H   0  0  0  0  0  0  0  0  0  0  0  0
    6.8286    2.4720   15.0340 H   0  0  0  0  0  0  0  0  0  0  0  0
  1  2  1  0
  2  3  2  0
  2  5  1  0
  3  4  1  0
  4  6  2  0
  5  6  1  0
  6  7  1  0
  7  8  2  0
  8  9  1  0
  9 10  2  0
  9 11  2  0
  9 12  1  0
 12 13  1  0
 13 14  1  0
 13 16  1  0
 14 15  1  0
 15 18  1  0
 16 17  2  0
 16 18  1  0
 18 19  1  0
 19 20  2  0
 19 22  1  0
 20 21  1  0
 20 25  1  0
 22 23  2  0
 23 24  1  0
 24 25  2  0
 24 26  1  0
 26 27  1  0
 26 28  1  0
 28 29  1  0
 28 30  1  0
  3 31  1  0
  4 32  1  0
  7 33  1  0
  8 34  1  0
 12 35  1  0
 13 36  1  0
 14 37  1  0
 14 38  1  0
 15 39  1  0
 15 40  1  0
 22 41  1  0
 23 42  1  0
 25 43  1  0
 26 44  1  0
 27 45  1  0
 27 46  1  0
 27 47  1  0
 29 48  1  0
 29 49  1  0
 29 50  1  0
 30 51  1  0
 30 52  1  0
 30 53  1  0
A    1
CL1
A    2
C1
A    3
C2
A    4
C3
A    5
S2
A    6
C4
A    7
C5
A    8
C6
A    9
S1
A   10
O2
A   11
O1
A   12
N1
A   13
C12
A   14
C13
A   15
C14
A   16
C50
A   17
O3
A   18
N2
A   19
C15
A   20
C21
A   21
F1
A   22
C22
A   23
C26
A   24
C27
A   25
C24
A   26
C28
A   27
C7
A   28
N3
A   29
C11
A   30
C10
M  END
