2X05_X05_A_1900
     RDKit          3D

 29 30  0  0  0  0  0  0  0  0999 V2000
   48.4480   44.0560   71.7970 O   0  0  0  0  0  0  0  0  0  0  0  0
   49.3860   42.9700   71.8900 C   0  0  0  0  0  0  0  0  0  0  0  0
   49.7520   42.5640   70.4690 C   0  0  0  0  0  0  0  0  0  0  0  0
   50.4890   43.6670   69.7360 C   0  0  0  0  0  0  0  0  0  0  0  0
   51.5330   44.2210   70.5900 O   0  0  0  0  0  0  0  0  0  0  0  0
   51.1160   42.8550   68.5970 C   0  0  0  0  0  0  0  0  0  0  0  0
   51.2220   41.4100   69.1320 C   0  0  0  0  0  0  0  0  0  0  0  0
   50.7480   41.4850   70.5180 N   0  0  0  0  0  0  0  0  0  0  0  0
   50.2070   40.2140   71.0780 C   0  0  0  0  0  0  0  0  0  0  0  0
   49.6870   40.4590   72.5280 C   0  0  0  0  0  0  0  0  0  0  0  0
   48.9160   39.2800   72.9920 N   0  0  0  0  0  0  0  0  0  0  0  0
   48.7940   41.7450   72.6380 C   0  0  0  0  0  0  0  0  0  0  0  0
   48.4850   42.1010   73.9930 O   0  0  0  0  0  0  0  0  0  0  0  0
   48.1933   44.3509   72.7071 H   0  0  0  0  0  0  0  0  0  0  0  0
   50.2647   43.3029   72.4619 H   0  0  0  0  0  0  0  0  0  0  0  0
   48.8062   42.2978   69.9744 H   0  0  0  0  0  0  0  0  0  0  0  0
   49.8691   44.5187   69.4193 H   0  0  0  0  0  0  0  0  0  0  0  0
   51.2864   44.0901   71.5398 H   0  0  0  0  0  0  0  0  0  0  0  0
   50.4757   42.8882   67.7032 H   0  0  0  0  0  0  0  0  0  0  0  0
   52.0976   43.2547   68.3024 H   0  0  0  0  0  0  0  0  0  0  0  0
   50.5880   40.7315   68.5423 H   0  0  0  0  0  0  0  0  0  0  0  0
   52.2477   41.0181   69.0658 H   0  0  0  0  0  0  0  0  0  0  0  0
   49.3784   39.8597   70.4472 H   0  0  0  0  0  0  0  0  0  0  0  0
   51.0042   39.4564   71.0996 H   0  0  0  0  0  0  0  0  0  0  0  0
   50.5693   40.6139   73.1665 H   0  0  0  0  0  0  0  0  0  0  0  0
   48.9038   39.2613   74.0218 H   0  0  0  0  0  0  0  0  0  0  0  0
   47.9505   39.3402   72.6382 H   0  0  0  0  0  0  0  0  0  0  0  0
   47.8553   41.4668   72.1365 H   0  0  0  0  0  0  0  0  0  0  0  0
   48.9918   41.5171   74.6114 H   0  0  0  0  0  0  0  0  0  0  0  0
  1  2  1  0
  2  3  1  0
  2 12  1  0
  3  4  1  0
  3  8  1  0
  4  5  1  0
  4  6  1  0
  6  7  1  0
  7  8  1  0
  8  9  1  0
  9 10  1  0
 10 11  1  0
 10 12  1  0
 12 13  1  0
  1 14  1  0
  2 15  1  0
  3 16  1  0
  4 17  1  0
  5 18  1  0
  6 19  1  0
  6 20  1  0
  7 21  1  0
  7 22  1  0
  9 23  1  0
  9 24  1  0
 10 25  1  0
 11 26  1  0
 11 27  1  0
 12 28  1  0
 13 29  1  0
A    1
OAD
A    2
CAK
A    3
CAL
A    4
CAI
A    5
OAB
A    6
CAE
A    7
CAF
A    8
NAM
A    9
CAG
A   10
CAH
A   11
NAA
A   12
CAJ
A   13
OAC
M  END
