2X0H_14T_A_1000
     RDKit          3D

 40 41  0  0  0  0  0  0  0  0999 V2000
   -2.5790   28.1120   19.4160 F   0  0  0  0  0  0  0  0  0  0  0  0
   -3.6000   28.3430   20.3190 C   0  0  0  0  0  0  0  0  0  0  0  0
   -4.2900   27.1830   20.4140 F   0  0  0  0  0  0  0  0  0  0  0  0
   -3.0910   28.6600   21.7030 C   0  0  0  0  0  0  0  0  0  0  0  0
   -1.9150   28.9190   21.8560 O   0  0  0  0  0  0  0  0  0  0  0  0
   -4.0090   28.6330   22.6890 N   0  0  0  0  0  0  0  0  0  0  0  0
   -3.8140   28.9000   24.1090 C   0  0  0  0  0  0  0  0  0  0  0  0
   -3.4870   30.3850   24.1630 C   0  0  0  0  0  0  0  0  0  0  0  0
   -4.7370   31.0980   24.2110 O   0  0  0  0  0  0  0  0  0  0  0  0
   -2.5730   30.7000   25.3530 C   0  0  0  0  0  0  0  0  0  0  0  0
   -2.2360   32.0950   25.4540 O   0  0  0  0  0  0  0  0  0  0  0  0
   -1.2970   29.9110   25.1660 C   0  0  0  0  0  0  0  0  0  0  0  0
   -0.2880   30.2240   26.2750 C   0  0  0  0  0  0  0  0  0  0  0  0
   -0.8930   29.9980   27.5590 O   0  0  0  0  0  0  0  0  0  0  0  0
   -1.5540   28.5080   25.1550 O   0  0  0  0  0  0  0  0  0  0  0  0
   -2.8520   27.9490   24.9290 C   0  0  0  0  0  0  0  0  0  0  0  0
   -3.2870   27.7730   26.2940 O   0  0  0  0  0  0  0  0  0  0  0  0
   -3.2070   26.6440   27.0930 C   0  0  0  0  0  0  0  0  0  0  0  0
   -2.0550   25.8470   27.2550 C   0  0  0  0  0  0  0  0  0  0  0  0
   -2.1110   24.7280   28.1040 C   0  0  0  0  0  0  0  0  0  0  0  0
   -1.0360   23.9250   28.2930 F   0  0  0  0  0  0  0  0  0  0  0  0
   -4.3650   26.3210   27.7950 C   0  0  0  0  0  0  0  0  0  0  0  0
   -4.4250   25.2030   28.6240 C   0  0  0  0  0  0  0  0  0  0  0  0
   -3.2900   24.4070   28.7820 C   0  0  0  0  0  0  0  0  0  0  0  0
   -3.3510   23.3340   29.6000 F   0  0  0  0  0  0  0  0  0  0  0  0
   -4.1949   29.1988   19.9673 H   0  0  0  0  0  0  0  0  0  0  0  0
   -4.9693   28.3936   22.4036 H   0  0  0  0  0  0  0  0  0  0  0  0
   -4.7279   28.6459   24.6659 H   0  0  0  0  0  0  0  0  0  0  0  0
   -2.9261   30.7022   23.2715 H   0  0  0  0  0  0  0  0  0  0  0  0
   -4.9965   31.2460   25.1549 H   0  0  0  0  0  0  0  0  0  0  0  0
   -3.1089   30.4307   26.2751 H   0  0  0  0  0  0  0  0  0  0  0  0
   -2.1741   32.3513   26.4082 H   0  0  0  0  0  0  0  0  0  0  0  0
   -0.8746   30.2085   24.1949 H   0  0  0  0  0  0  0  0  0  0  0  0
    0.5905   29.5712   26.1648 H   0  0  0  0  0  0  0  0  0  0  0  0
    0.0218   31.2767   26.1988 H   0  0  0  0  0  0  0  0  0  0  0  0
   -0.2508   30.2379   28.2732 H   0  0  0  0  0  0  0  0  0  0  0  0
   -2.8493   27.0363   24.3150 H   0  0  0  0  0  0  0  0  0  0  0  0
   -1.1248   26.0976   26.7240 H   0  0  0  0  0  0  0  0  0  0  0  0
   -5.2524   26.9629   27.6928 H   0  0  0  0  0  0  0  0  0  0  0  0
   -5.3581   24.9502   29.1489 H   0  0  0  0  0  0  0  0  0  0  0  0
  1  2  1  0
  2  3  1  0
  2  4  1  0
  4  5  2  0
  4  6  1  0
  6  7  1  0
  7  8  1  0
  7 16  1  0
  8  9  1  0
  8 10  1  0
 10 11  1  0
 10 12  1  0
 12 13  1  0
 12 15  1  0
 13 14  1  0
 15 16  1  0
 16 17  1  0
 17 18  1  0
 18 19  2  0
 18 22  1  0
 19 20  1  0
 20 21  1  0
 20 24  2  0
 22 23  2  0
 23 24  1  0
 24 25  1  0
  2 26  1  0
  6 27  1  0
  7 28  1  0
  8 29  1  0
  9 30  1  0
 10 31  1  0
 11 32  1  0
 12 33  1  0
 13 34  1  0
 13 35  1  0
 14 36  1  0
 16 37  1  0
 19 38  1  0
 22 39  1  0
 23 40  1  0
A    1
F1
A    2
C7
A    3
F2
A    4
C8
A    5
O5
A    6
N1
A    7
C5
A    8
C6
A    9
O3
A   10
C2
A   11
O2
A   12
C3
A   13
C4
A   14
O4
A   15
O1
A   16
C1
A   17
O6
A   18
C10
A   19
C9
A   20
C14
A   21
F3
A   22
C11
A   23
C12
A   24
C13
A   25
F4
M  END
