2X0Y_X0T_A_1625
     RDKit          3D

 32 33  0  0  0  0  0  0  0  0999 V2000
   35.6110   47.2310   22.1750 C   0  0  0  0  0  0  0  0  0  0  0  0
   35.2800   45.7690   22.2350 N   0  0  0  0  0  0  0  0  0  0  0  0
   36.2860   44.8090   22.1740 C   0  0  0  0  0  0  0  0  0  0  0  0
   37.4510   45.2020   22.0710 O   0  0  0  0  0  0  0  0  0  0  0  0
   35.9690   43.4200   22.2160 N   0  0  0  0  0  0  0  0  0  0  0  0
   37.0540   42.4090   22.1670 C   0  0  0  0  0  0  0  0  0  0  0  0
   34.6280   43.0120   22.3280 C   0  0  0  0  0  0  0  0  0  0  0  0
   34.3300   41.8080   22.3740 O   0  0  0  0  0  0  0  0  0  0  0  0
   33.6310   43.9970   22.3900 C   0  0  0  0  0  0  0  0  0  0  0  0
   33.9440   45.3540   22.3460 C   0  0  0  0  0  0  0  0  0  0  0  0
   32.8030   46.0490   22.4350 N   0  0  0  0  0  0  0  0  0  0  0  0
   31.7940   45.1740   22.5430 C   0  0  0  0  0  0  0  0  0  0  0  0
   32.3080   43.9460   22.5120 N   0  0  0  0  0  0  0  0  0  0  0  0
   31.5640   42.6810   22.5950 C   0  0  0  0  0  0  0  0  0  0  0  0
   30.0650   42.8360   22.6760 C   0  0  0  0  0  0  0  0  0  0  0  0
   29.7180   43.4200   23.9320 O   0  0  0  0  0  0  0  0  0  0  0  0
   29.4630   41.4380   22.5790 C   0  0  0  0  0  0  0  0  0  0  0  0
   28.1560   41.5710   22.0600 O   0  0  0  0  0  0  0  0  0  0  0  0
   35.7011   47.6288   23.1966 H   0  0  0  0  0  0  0  0  0  0  0  0
   36.5633   47.3698   21.6422 H   0  0  0  0  0  0  0  0  0  0  0  0
   34.8113   47.7664   21.6422 H   0  0  0  0  0  0  0  0  0  0  0  0
   37.3472   42.1358   23.1914 H   0  0  0  0  0  0  0  0  0  0  0  0
   36.6973   41.5137   21.6366 H   0  0  0  0  0  0  0  0  0  0  0  0
   37.9219   42.8279   21.6366 H   0  0  0  0  0  0  0  0  0  0  0  0
   30.7277   45.4260   22.6403 H   0  0  0  0  0  0  0  0  0  0  0  0
   31.7992   42.0857   21.7004 H   0  0  0  0  0  0  0  0  0  0  0  0
   31.8776   42.1966   23.5315 H   0  0  0  0  0  0  0  0  0  0  0  0
   29.6887   43.4820   21.8691 H   0  0  0  0  0  0  0  0  0  0  0  0
   30.0572   42.8492   24.6663 H   0  0  0  0  0  0  0  0  0  0  0  0
   30.0712   40.8134   21.9082 H   0  0  0  0  0  0  0  0  0  0  0  0
   29.4388   40.9582   23.5686 H   0  0  0  0  0  0  0  0  0  0  0  0
   27.5095   41.6368   22.8068 H   0  0  0  0  0  0  0  0  0  0  0  0
  1  2  1  0
  2  3  1  0
  2 10  1  0
  3  4  2  0
  3  5  1  0
  5  6  1  0
  5  7  1  0
  7  8  2  0
  7  9  1  0
  9 10  2  0
  9 13  1  0
 10 11  1  0
 11 12  2  0
 12 13  1  0
 13 14  1  0
 14 15  1  0
 15 16  1  0
 15 17  1  0
 17 18  1  0
  1 19  1  0
  1 20  1  0
  1 21  1  0
  6 22  1  0
  6 23  1  0
  6 24  1  0
 12 25  1  0
 14 26  1  0
 14 27  1  0
 15 28  1  0
 16 29  1  0
 17 30  1  0
 17 31  1  0
 18 32  1  0
A    1
CAB
A    2
N3
A    3
C2
A    4
O2
A    5
N1
A    6
CAA
A    7
C6
A    8
O6
A    9
C5
A   10
C4
A   11
N9
A   12
C8
A   13
N7
A   14
CAI
A   15
CAO
A   16
OAF
A   17
CAH
A   18
OAE
M  END
