2X15_X15_A_1420
     RDKit          3D

 23 22  0  0  0  0  0  0  0  0999 V2000
    2.3700   -7.5910  -20.5060 O   0  0  0  0  0  0  0  0  0  0  0  0
    1.9150   -9.0120  -20.3690 P   0  0  0  0  0  0  0  0  0  0  0  0
    3.1190  -10.0210  -20.1400 O   0  0  0  0  0  0  0  0  0  0  0  0
    1.1540   -9.5110  -21.7050 O   0  0  0  0  0  0  0  0  0  0  0  0
    0.5430   -9.1280  -19.1830 O   0  0  0  0  0  0  0  0  0  0  0  0
    1.0650   -8.9820  -17.8880 C   0  0  0  0  0  0  0  0  0  0  0  0
    2.2600   -8.8590  -17.6280 O   0  0  0  0  0  0  0  0  0  0  0  0
   -0.0590   -8.7230  -16.8570 C   0  0  0  0  0  0  0  0  0  0  0  0
    0.4950   -8.2980  -15.6180 O   0  0  0  0  0  0  0  0  0  0  0  0
   -0.9510   -9.9220  -16.5460 C   0  0  0  0  0  0  0  0  0  0  0  0
   -0.1890  -11.0230  -16.2510 O   0  0  0  0  0  0  0  0  0  0  0  0
   -0.6800  -12.4330  -16.7170 P   0  0  0  0  0  0  0  0  0  0  0  0
    0.1430  -13.4710  -15.9010 O   0  0  0  0  0  0  0  0  0  0  0  0
   -2.1790  -12.5560  -16.1700 O   0  0  0  0  0  0  0  0  0  0  0  0
   -0.4850  -12.6390  -18.1930 O   0  0  0  0  0  0  0  0  0  0  0  0
    2.4962   -7.1968  -19.6067 H   0  0  0  0  0  0  0  0  0  0  0  0
    0.3535  -10.0359  -21.4523 H   0  0  0  0  0  0  0  0  0  0  0  0
   -0.6834   -7.9549  -17.3367 H   0  0  0  0  0  0  0  0  0  0  0  0
   -0.0216   -8.6943  -14.8723 H   0  0  0  0  0  0  0  0  0  0  0  0
   -1.5912   -9.6831  -15.6839 H   0  0  0  0  0  0  0  0  0  0  0  0
   -1.5701  -10.1434  -17.4279 H   0  0  0  0  0  0  0  0  0  0  0  0
    0.0134  -13.3076  -14.9332 H   0  0  0  0  0  0  0  0  0  0  0  0
   -2.1701  -12.5553  -15.1800 H   0  0  0  0  0  0  0  0  0  0  0  0
  1  2  1  0
  2  3  2  0
  2  4  1  0
  2  5  1  0
  5  6  1  0
  6  7  2  0
  6  8  1  0
  8  9  1  0
  8 10  1  0
 10 11  1  0
 11 12  1  0
 12 13  1  0
 12 14  1  0
 12 15  2  0
  1 16  1  0
  4 17  1  0
  8 18  1  0
  9 19  1  0
 10 20  1  0
 10 21  1  0
 13 22  1  0
 14 23  1  0
A    1
OAG
A    2
PAO
A    3
OAH
A    4
OAF
A    5
OAK
A    6
CAM
A    7
OAB
A    8
CAL
A    9
OAA
A   10
CAI
A   11
OAJ
A   12
PAN
A   13
OAD
A   14
OAE
A   15
OAC
M  END
