2X2K_X2K_A_2017
     RDKit          3D

 34 36  0  0  0  0  0  0  0  0999 V2000
   -7.9550   10.6140   10.7070 C   0  0  0  0  0  0  0  0  0  0  0  0
   -9.3340   11.1530   11.2050 C   0  0  0  0  0  0  0  0  0  0  0  0
   -9.5600   12.4320   11.5350 C   0  0  0  0  0  0  0  0  0  0  0  0
  -10.8510   12.4830   11.9000 C   0  0  0  0  0  0  0  0  0  0  0  0
  -11.5500   13.7780   12.3660 C   0  0  0  0  0  0  0  0  0  0  0  0
  -11.4450   11.2750   11.8050 N   0  0  0  0  0  0  0  0  0  0  0  0
  -10.5230   10.4010   11.3670 C   0  0  0  0  0  0  0  0  0  0  0  0
  -10.5470    9.0240   11.0560 C   0  0  0  0  0  0  0  0  0  0  0  0
  -11.6100    8.1100   11.1920 C   0  0  0  0  0  0  0  0  0  0  0  0
  -11.5590    6.7460   10.8190 C   0  0  0  0  0  0  0  0  0  0  0  0
  -10.5820    5.8950   10.2480 C   0  0  0  0  0  0  0  0  0  0  0  0
  -10.8990    4.5230   10.0220 C   0  0  0  0  0  0  0  0  0  0  0  0
  -10.0160    3.6230    9.4830 N   0  0  0  0  0  0  0  0  0  0  0  0
  -12.1770    4.0350   10.3460 C   0  0  0  0  0  0  0  0  0  0  0  0
  -13.1300    4.8780   10.9040 C   0  0  0  0  0  0  0  0  0  0  0  0
  -12.8440    6.2290   11.1470 C   0  0  0  0  0  0  0  0  0  0  0  0
  -13.6150    7.2060   11.6800 N   0  0  0  0  0  0  0  0  0  0  0  0
  -12.9000    8.3410   11.7170 C   0  0  0  0  0  0  0  0  0  0  0  0
  -13.3370    9.4080   12.1600 O   0  0  0  0  0  0  0  0  0  0  0  0
   -7.3234   10.3671   11.5731 H   0  0  0  0  0  0  0  0  0  0  0  0
   -8.1122    9.7111   10.0986 H   0  0  0  0  0  0  0  0  0  0  0  0
   -7.4583   11.3842   10.0986 H   0  0  0  0  0  0  0  0  0  0  0  0
   -8.8404   13.2637   11.5118 H   0  0  0  0  0  0  0  0  0  0  0  0
  -11.5673   13.8101   13.4654 H   0  0  0  0  0  0  0  0  0  0  0  0
  -11.0000   14.6500   11.9823 H   0  0  0  0  0  0  0  0  0  0  0  0
  -12.5808   13.7968   11.9823 H   0  0  0  0  0  0  0  0  0  0  0  0
  -12.4276   11.0615   12.0280 H   0  0  0  0  0  0  0  0  0  0  0  0
   -9.6107    8.6098   10.6539 H   0  0  0  0  0  0  0  0  0  0  0  0
   -9.5896    6.2877    9.9817 H   0  0  0  0  0  0  0  0  0  0  0  0
   -9.4388    3.0347   10.1008 H   0  0  0  0  0  0  0  0  0  0  0  0
   -9.9299    3.5353    8.4604 H   0  0  0  0  0  0  0  0  0  0  0  0
  -12.4238    2.9799   10.1567 H   0  0  0  0  0  0  0  0  0  0  0  0
  -14.1232    4.4798   11.1588 H   0  0  0  0  0  0  0  0  0  0  0  0
  -14.5870    7.0965   12.0028 H   0  0  0  0  0  0  0  0  0  0  0  0
  1  2  1  0
  2  3  1  0
  2  7  2  0
  3  4  2  0
  4  5  1  0
  4  6  1  0
  6  7  1  0
  7  8  1  0
  8  9  2  0
  9 10  1  0
  9 18  1  0
 10 11  2  0
 10 16  1  0
 11 12  1  0
 12 13  1  0
 12 14  2  0
 14 15  1  0
 15 16  2  0
 16 17  1  0
 17 18  1  0
 18 19  2  0
  1 20  1  0
  1 21  1  0
  1 22  1  0
  3 23  1  0
  5 24  1  0
  5 25  1  0
  5 26  1  0
  6 27  1  0
  8 28  1  0
 11 29  1  0
 13 30  1  0
 13 31  1  0
 14 32  1  0
 15 33  1  0
 17 34  1  0
A    1
CAB
A    2
CAN
A    3
CAH
A    4
CAL
A    5
CAA
A    6
NAJ
A    7
CAO
A    8
CAE
A    9
CAQ
A   10
CAS
A   11
CAI
A   12
CAM
A   13
NAC
A   14
CAF
A   15
CAG
A   16
CAR
A   17
NAK
A   18
CAP
A   19
OAD
M  END
