2X2L_X2L_A_2015
     RDKit          3D

 34 36  0  0  0  0  0  0  0  0999 V2000
   -9.5690  -23.8960   11.0240 C   0  0  0  0  0  0  0  0  0  0  0  0
   -9.3310  -22.5630   11.3760 C   0  0  0  0  0  0  0  0  0  0  0  0
  -10.3100  -21.8630   12.0870 C   0  0  0  0  0  0  0  0  0  0  0  0
  -10.0260  -20.5570   12.4200 O   0  0  0  0  0  0  0  0  0  0  0  0
  -11.5240  -22.5030   12.4110 C   0  0  0  0  0  0  0  0  0  0  0  0
  -11.7420  -23.8410   12.0380 C   0  0  0  0  0  0  0  0  0  0  0  0
  -10.7600  -24.5710   11.3370 C   0  0  0  0  0  0  0  0  0  0  0  0
  -10.8820  -25.9190   10.8840 C   0  0  0  0  0  0  0  0  0  0  0  0
  -11.8860  -26.9070   11.0450 C   0  0  0  0  0  0  0  0  0  0  0  0
  -11.7210  -28.2440   10.6730 C   0  0  0  0  0  0  0  0  0  0  0  0
  -10.6670  -28.9520   10.0970 C   0  0  0  0  0  0  0  0  0  0  0  0
  -10.8060  -30.3170    9.8550 C   0  0  0  0  0  0  0  0  0  0  0  0
  -11.9620  -31.0210   10.1590 C   0  0  0  0  0  0  0  0  0  0  0  0
  -13.0120  -30.3170   10.7400 C   0  0  0  0  0  0  0  0  0  0  0  0
  -12.9030  -28.9380   10.9970 C   0  0  0  0  0  0  0  0  0  0  0  0
  -10.6720  -19.9110   13.5880 C   0  0  0  0  0  0  0  0  0  0  0  0
  -13.7610  -28.0740   11.5550 N   0  0  0  0  0  0  0  0  0  0  0  0
  -13.1930  -26.8610   11.5620 C   0  0  0  0  0  0  0  0  0  0  0  0
   -9.7800  -30.9630    9.3060 N   0  0  0  0  0  0  0  0  0  0  0  0
  -13.7740  -25.8940   12.0100 O   0  0  0  0  0  0  0  0  0  0  0  0
   -8.7862  -24.4411   10.4762 H   0  0  0  0  0  0  0  0  0  0  0  0
   -8.3867  -22.0726   11.0971 H   0  0  0  0  0  0  0  0  0  0  0  0
  -12.3039  -21.9530   12.9580 H   0  0  0  0  0  0  0  0  0  0  0  0
  -12.6944  -24.3264   12.2973 H   0  0  0  0  0  0  0  0  0  0  0  0
  -10.0223  -26.2608   10.2890 H   0  0  0  0  0  0  0  0  0  0  0  0
   -9.7314  -28.4360    9.8352 H   0  0  0  0  0  0  0  0  0  0  0  0
  -12.0455  -32.0974    9.9482 H   0  0  0  0  0  0  0  0  0  0  0  0
  -13.9402  -30.8459   11.0021 H   0  0  0  0  0  0  0  0  0  0  0  0
  -10.2541  -20.3289   14.5158 H   0  0  0  0  0  0  0  0  0  0  0  0
  -10.4855  -18.8274   13.5573 H   0  0  0  0  0  0  0  0  0  0  0  0
  -11.7556  -20.0975   13.5573 H   0  0  0  0  0  0  0  0  0  0  0  0
  -14.6977  -28.3032   11.9169 H   0  0  0  0  0  0  0  0  0  0  0  0
   -9.0716  -31.4090    9.9062 H   0  0  0  0  0  0  0  0  0  0  0  0
   -9.6944  -31.0169    8.2810 H   0  0  0  0  0  0  0  0  0  0  0  0
  1  2  2  0
  1  7  1  0
  2  3  1  0
  3  4  1  0
  3  5  2  0
  4 16  1  0
  5  6  1  0
  6  7  2  0
  7  8  1  0
  8  9  2  0
  9 10  1  0
  9 18  1  0
 10 11  2  0
 10 15  1  0
 11 12  1  0
 12 13  2  0
 12 19  1  0
 13 14  1  0
 14 15  2  0
 15 17  1  0
 17 18  1  0
 18 20  2  0
  1 21  1  0
  2 22  1  0
  5 23  1  0
  6 24  1  0
  8 25  1  0
 11 26  1  0
 13 27  1  0
 14 28  1  0
 16 29  1  0
 16 30  1  0
 16 31  1  0
 17 32  1  0
 19 33  1  0
 19 34  1  0
A    1
CAH
A    2
CAO
A    3
CAM
A    4
OAB
A    5
CAP
A    6
CAI
A    7
CAQ
A    8
CAF
A    9
CAS
A   10
CAU
A   11
CAK
A   12
CAN
A   13
CAG
A   14
CAJ
A   15
CAT
A   16
CAA
A   17
NAL
A   18
CAR
A   19
NAB
A   20
OAA
M  END
