2X2W_X2W_A_1259
     RDKit          3D

 29 28  0  0  0  0  0  0  0  0999 V2000
   19.1260   73.3180  108.1400 C   0  0  0  0  0  0  0  0  0  0  0  0
   18.6640   71.8630  108.2860 C   0  0  0  0  0  0  0  0  0  0  0  0
   18.6780   71.3580  109.7310 C   0  0  0  0  0  0  0  0  0  0  0  0
   17.5020   71.8840  110.5620 C   0  0  0  0  0  0  0  0  0  0  0  0
   20.6530   73.4170  108.2800 C   0  0  0  0  0  0  0  0  0  0  0  0
   21.1470   73.1180  109.3830 O   0  0  0  0  0  0  0  0  0  0  0  0
   21.2980   73.7960  107.2880 O   0  0  0  0  0  0  0  0  0  0  0  0
   18.6670   75.0710  106.4700 C   0  0  0  0  0  0  0  0  0  0  0  0
   18.9680   75.9790  107.2340 O   0  0  0  0  0  0  0  0  0  0  0  0
   16.4230   71.2530  112.7220 P   0  0  0  0  0  0  0  0  0  0  0  0
   16.5760   71.8640  114.1960 O   0  0  0  0  0  0  0  0  0  0  0  0
   16.6850   69.6850  112.9120 O   0  0  0  0  0  0  0  0  0  0  0  0
   15.1240   71.5700  112.1040 O   0  0  0  0  0  0  0  0  0  0  0  0
   18.7160   73.7900  106.8110 N   0  0  0  0  0  0  0  0  0  0  0  0
   18.2680   75.4050  105.1830 C   0  0  0  0  0  0  0  0  0  0  0  0
   16.5020   72.3690  110.0300 O   0  0  0  0  0  0  0  0  0  0  0  0
   17.7020   71.8030  111.9070 O   0  0  0  0  0  0  0  0  0  0  0  0
   18.6723   73.9360  108.9288 H   0  0  0  0  0  0  0  0  0  0  0  0
   17.6371   71.7837  107.8998 H   0  0  0  0  0  0  0  0  0  0  0  0
   19.3729   71.2410  107.7199 H   0  0  0  0  0  0  0  0  0  0  0  0
   18.6342   70.2589  109.7184 H   0  0  0  0  0  0  0  0  0  0  0  0
   19.6023   71.7274  110.1992 H   0  0  0  0  0  0  0  0  0  0  0  0
   22.1452   74.2938  107.4090 H   0  0  0  0  0  0  0  0  0  0  0  0
   16.3990   71.1572  114.8662 H   0  0  0  0  0  0  0  0  0  0  0  0
   14.4526   71.7339  112.8128 H   0  0  0  0  0  0  0  0  0  0  0  0
   18.4521   73.0879  106.1051 H   0  0  0  0  0  0  0  0  0  0  0  0
   17.4253   76.1104  105.2318 H   0  0  0  0  0  0  0  0  0  0  0  0
   19.1077   75.8733  104.6487 H   0  0  0  0  0  0  0  0  0  0  0  0
   17.9547   74.4959  104.6487 H   0  0  0  0  0  0  0  0  0  0  0  0
  1  2  1  0
  1  5  1  0
  1 14  1  0
  2  3  1  0
  5  6  2  0
  5  7  1  0
  8  9  2  0
  8 14  1  0
  8 15  1  0
 10 13  1  0
 10 11  1  0
 10 12  2  0
 10 17  1  0
  4 16  2  0
  4  3  1  0
  4 17  1  0
  1 18  1  0
  2 19  1  0
  2 20  1  0
  3 21  1  0
  3 22  1  0
  7 23  1  0
 11 24  1  0
 13 25  1  0
 14 26  1  0
 15 27  1  0
 15 28  1  0
 15 29  1  0
A    1
CA
A    2
CB
A    3
CG
A    4
C3
A    5
C
A    6
O
A    7
OXT
A    8
C1
A    9
O1
A   10
P
A   11
O2P
A   12
O1P
A   13
O3P
A   14
N1
A   15
C2
A   16
O2
A   17
OE2
M  END
