2X39_X39_A_1480
     RDKit          3D

 48 51  0  0  0  0  0  0  0  0999 V2000
   45.1570   33.2530  111.3780 N   0  0  0  0  0  0  0  0  0  0  0  0
   43.8220   32.6490  111.4460 C   0  0  0  0  0  0  0  0  0  0  0  0
   43.6270   31.9480  112.7790 C   0  0  0  0  0  0  0  0  0  0  0  0
   44.7570   30.9420  113.0720 C   0  0  0  0  0  0  0  0  0  0  0  0
   44.6610   30.5160  114.5120 N   0  0  0  0  0  0  0  0  0  0  0  0
   46.1250   31.5980  112.8660 C   0  0  0  0  0  0  0  0  0  0  0  0
   46.2180   32.2620  111.5160 C   0  0  0  0  0  0  0  0  0  0  0  0
   44.6570   29.6650  112.2120 C   0  0  0  0  0  0  0  0  0  0  0  0
   45.6360   29.1720  111.7300 O   0  0  0  0  0  0  0  0  0  0  0  0
   43.4520   29.1240  112.0350 N   0  0  0  0  0  0  0  0  0  0  0  0
   43.2720   27.9650  111.1780 C   0  0  0  0  0  0  0  0  0  0  0  0
   42.5540   28.3240  109.9110 C   0  0  0  0  0  0  0  0  0  0  0  0
   43.2660   28.5950  108.7430 C   0  0  0  0  0  0  0  0  0  0  0  0
   42.5980   28.9320  107.5810 C   0  0  0  0  0  0  0  0  0  0  0  0
   41.2170   28.9990  107.5790 C   0  0  0  0  0  0  0  0  0  0  0  0
   40.3790   29.4170  106.1230 Cl  0  0  0  0  0  0  0  0  0  0  0  0
   40.4960   28.7320  108.7270 C   0  0  0  0  0  0  0  0  0  0  0  0
   41.1590   28.3990  109.8880 C   0  0  0  0  0  0  0  0  0  0  0  0
   45.4060   34.6120  111.7620 C   0  0  0  0  0  0  0  0  0  0  0  0
   46.6800   34.8930  112.1080 N   0  0  0  0  0  0  0  0  0  0  0  0
   46.9510   36.1470  112.4690 C   0  0  0  0  0  0  0  0  0  0  0  0
   46.1120   37.1850  112.5230 N   0  0  0  0  0  0  0  0  0  0  0  0
   44.8650   36.8900  112.1650 C   0  0  0  0  0  0  0  0  0  0  0  0
   43.7990   37.7250  112.1150 N   0  0  0  0  0  0  0  0  0  0  0  0
   42.7190   37.0440  111.7100 C   0  0  0  0  0  0  0  0  0  0  0  0
   43.0980   35.7670  111.4990 C   0  0  0  0  0  0  0  0  0  0  0  0
   44.4200   35.6370  111.7750 C   0  0  0  0  0  0  0  0  0  0  0  0
   43.0617   33.4362  111.3355 H   0  0  0  0  0  0  0  0  0  0  0  0
   43.7217   31.9113  110.6362 H   0  0  0  0  0  0  0  0  0  0  0  0
   43.6078   32.7035  113.5783 H   0  0  0  0  0  0  0  0  0  0  0  0
   42.6791   31.3916  112.7352 H   0  0  0  0  0  0  0  0  0  0  0  0
   44.8434   31.3254  115.1224 H   0  0  0  0  0  0  0  0  0  0  0  0
   43.7165   30.1504  114.6997 H   0  0  0  0  0  0  0  0  0  0  0  0
   46.2806   32.3550  113.6488 H   0  0  0  0  0  0  0  0  0  0  0  0
   46.8963   30.8157  112.9212 H   0  0  0  0  0  0  0  0  0  0  0  0
   46.1127   31.5023  110.7275 H   0  0  0  0  0  0  0  0  0  0  0  0
   47.1943   32.7603  111.4231 H   0  0  0  0  0  0  0  0  0  0  0  0
   42.6366   29.5336  112.5127 H   0  0  0  0  0  0  0  0  0  0  0  0
   44.2592   27.5513  110.9244 H   0  0  0  0  0  0  0  0  0  0  0  0
   42.6650   27.2255  111.7208 H   0  0  0  0  0  0  0  0  0  0  0  0
   44.3646   28.5403  108.7465 H   0  0  0  0  0  0  0  0  0  0  0  0
   43.1627   29.1460  106.6616 H   0  0  0  0  0  0  0  0  0  0  0  0
   39.3974   28.7851  108.7141 H   0  0  0  0  0  0  0  0  0  0  0  0
   40.5859   28.1907  110.8035 H   0  0  0  0  0  0  0  0  0  0  0  0
   47.9924   36.3522  112.7576 H   0  0  0  0  0  0  0  0  0  0  0  0
   43.8165   38.7273  112.3516 H   0  0  0  0  0  0  0  0  0  0  0  0
   41.7066   37.4522  111.5741 H   0  0  0  0  0  0  0  0  0  0  0  0
   42.4378   34.9566  111.1563 H   0  0  0  0  0  0  0  0  0  0  0  0
  1  2  1  0
  1  7  1  0
  1 19  1  0
  2  3  1  0
  3  4  1  0
  4  5  1  0
  4  6  1  0
  4  8  1  0
  6  7  1  0
  8  9  2  0
  8 10  1  0
 10 11  1  0
 11 12  1  0
 12 13  2  0
 12 18  1  0
 13 14  1  0
 14 15  2  0
 15 16  1  0
 15 17  1  0
 17 18  2  0
 19 20  2  0
 19 27  1  0
 20 21  1  0
 21 22  2  0
 22 23  1  0
 23 24  1  0
 23 27  2  0
 24 25  1  0
 25 26  2  0
 26 27  1  0
  2 28  1  0
  2 29  1  0
  3 30  1  0
  3 31  1  0
  5 32  1  0
  5 33  1  0
  6 34  1  0
  6 35  1  0
  7 36  1  0
  7 37  1  0
 10 38  1  0
 11 39  1  0
 11 40  1  0
 13 41  1  0
 14 42  1  0
 17 43  1  0
 18 44  1  0
 21 45  1  0
 24 46  1  0
 25 47  1  0
 26 48  1  0
A    1
N1
A    2
C2
A    3
C3
A    4
C4
A    5
N5
A    6
C9
A    7
C10
A    8
C11
A    9
O12
A   10
N13
A   11
C14
A   12
C15
A   13
C16
A   14
C17
A   15
C18
A   16
CL1
A   17
C20
A   18
C21
A   19
C22
A   20
N23
A   21
C24
A   22
N25
A   23
C26
A   24
N27
A   25
C29
A   26
C30
A   27
C31
M  END
