2X3T_GYV_A_1170
     RDKit          3D

 34 34  0  0  0  0  0  0  0  0999 V2000
   17.4860   10.2990  -18.0360 N   0  0  0  0  0  0  0  0  0  0  0  0
   16.9590   10.0380  -16.8580 C   0  0  0  0  0  0  0  0  0  0  0  0
   16.5980   10.9440  -16.1620 O   0  0  0  0  0  0  0  0  0  0  0  0
   16.8340    8.7190  -16.2910 O   0  0  0  0  0  0  0  0  0  0  0  0
   15.6430    8.0470  -16.5240 C   0  0  0  0  0  0  0  0  0  0  0  0
   16.1010    6.8410  -17.0890 O   0  0  0  0  0  0  0  0  0  0  0  0
   16.7330    5.8930  -16.2370 C   0  0  0  0  0  0  0  0  0  0  0  0
   16.8660    4.5350  -16.9050 C   0  0  0  0  0  0  0  0  0  0  0  0
   17.6640    4.6030  -18.0740 O   0  0  0  0  0  0  0  0  0  0  0  0
   15.9100    5.7040  -14.9960 C   0  0  0  0  0  0  0  0  0  0  0  0
   16.5560    4.8360  -14.1040 O   0  0  0  0  0  0  0  0  0  0  0  0
   15.8000    7.0300  -14.3750 C   0  0  0  0  0  0  0  0  0  0  0  0
   15.2570    6.8520  -13.1010 O   0  0  0  0  0  0  0  0  0  0  0  0
   14.8560    7.7310  -15.2650 C   0  0  0  0  0  0  0  0  0  0  0  0
   14.4940    8.8720  -14.4720 N   0  0  0  0  0  0  0  0  0  0  0  0
   13.2740    9.3560  -14.4990 C   0  0  0  0  0  0  0  0  0  0  0  0
   12.4270    8.9020  -15.1990 O   0  0  0  0  0  0  0  0  0  0  0  0
   12.9530   10.5200  -13.6520 C   0  0  0  0  0  0  0  0  0  0  0  0
   18.4073   10.7553  -18.0983 H   0  0  0  0  0  0  0  0  0  0  0  0
   16.9770   10.0469  -18.8952 H   0  0  0  0  0  0  0  0  0  0  0  0
   14.9559    8.6461  -17.1397 H   0  0  0  0  0  0  0  0  0  0  0  0
   17.7341    6.2840  -16.0027 H   0  0  0  0  0  0  0  0  0  0  0  0
   17.3301    3.8330  -16.1966 H   0  0  0  0  0  0  0  0  0  0  0  0
   15.8608    4.1949  -17.1947 H   0  0  0  0  0  0  0  0  0  0  0  0
   18.6171    4.6842  -17.8187 H   0  0  0  0  0  0  0  0  0  0  0  0
   14.9279    5.2729  -15.2402 H   0  0  0  0  0  0  0  0  0  0  0  0
   16.3535    5.1080  -13.1739 H   0  0  0  0  0  0  0  0  0  0  0  0
   16.7457    7.5803  -14.2620 H   0  0  0  0  0  0  0  0  0  0  0  0
   15.9379    7.0752  -12.4179 H   0  0  0  0  0  0  0  0  0  0  0  0
   13.9482    7.2028  -15.5919 H   0  0  0  0  0  0  0  0  0  0  0  0
   15.2029    9.3179  -13.8724 H   0  0  0  0  0  0  0  0  0  0  0  0
   13.0315   10.2352  -12.5924 H   0  0  0  0  0  0  0  0  0  0  0  0
   13.6599   11.3352  -13.8659 H   0  0  0  0  0  0  0  0  0  0  0  0
   11.9282   10.8577  -13.8659 H   0  0  0  0  0  0  0  0  0  0  0  0
  1  2  1  0
  2  3  2  0
  2  4  1  0
  4  5  1  0
  5  6  1  0
  5 14  1  0
  6  7  1  0
  7  8  1  0
  7 10  1  0
  8  9  1  0
 10 11  1  0
 10 12  1  0
 12 13  1  0
 12 14  1  0
 14 15  1  0
 15 16  1  0
 16 17  2  0
 16 18  1  0
  1 19  1  0
  1 20  1  0
  5 21  1  0
  7 22  1  0
  8 23  1  0
  8 24  1  0
  9 25  1  0
 10 26  1  0
 11 27  1  0
 12 28  1  0
 13 29  1  0
 14 30  1  0
 15 31  1  0
 18 32  1  0
 18 33  1  0
 18 34  1  0
A    1
ND3
A    2
C1
A    3
O1A
A    4
O1B
A    5
C15
A    6
O8
A    7
C8
A    8
C9
A    9
O9
A   10
C7
A   11
O7
A   12
C6
A   13
O6
A   14
C5
A   15
N5
A   16
C10
A   17
O10
A   18
C11
M  END
