2X4F_16X_A_1374
     RDKit          3D

 35 38  0  0  0  0  0  0  0  0999 V2000
   87.0450   49.8870   34.7010 N   0  0  0  0  0  0  0  0  0  0  0  0
   87.0210   49.7290   33.3880 C   0  0  0  0  0  0  0  0  0  0  0  0
   86.4040   48.7390   32.7420 N   0  0  0  0  0  0  0  0  0  0  0  0
   86.5030   48.7710   31.4040 C   0  0  0  0  0  0  0  0  0  0  0  0
   85.9630   47.8680   30.5060 C   0  0  0  0  0  0  0  0  0  0  0  0
   87.7510   50.7480   32.3130 S   0  0  0  0  0  0  0  0  0  0  0  0
   87.2580   49.8770   30.9620 C   0  0  0  0  0  0  0  0  0  0  0  0
   87.6000   50.2660   29.6590 C   0  0  0  0  0  0  0  0  0  0  0  0
   88.4070   51.3300   29.5100 N   0  0  0  0  0  0  0  0  0  0  0  0
   87.1530   49.6060   28.5170 C   0  0  0  0  0  0  0  0  0  0  0  0
   87.5540   50.0730   27.2780 C   0  0  0  0  0  0  0  0  0  0  0  0
   88.3440   51.1230   27.2000 N   0  0  0  0  0  0  0  0  0  0  0  0
   88.7880   51.7560   28.2990 C   0  0  0  0  0  0  0  0  0  0  0  0
   89.5850   52.8230   28.1410 N   0  0  0  0  0  0  0  0  0  0  0  0
   90.4390   53.3940   29.0010 C   0  0  0  0  0  0  0  0  0  0  0  0
   91.6880   53.8070   28.5300 C   0  0  0  0  0  0  0  0  0  0  0  0
   90.1240   53.6400   30.3310 C   0  0  0  0  0  0  0  0  0  0  0  0
   91.0520   54.2600   31.1620 C   0  0  0  0  0  0  0  0  0  0  0  0
   90.7460   54.4730   32.4270 N   0  0  0  0  0  0  0  0  0  0  0  0
   91.1030   54.3660   33.7370 O   0  0  0  0  0  0  0  0  0  0  0  0
   89.8650   54.9440   33.3580 O   0  0  0  0  0  0  0  0  0  0  0  0
   92.2990   54.6570   30.6920 C   0  0  0  0  0  0  0  0  0  0  0  0
   92.6250   54.4290   29.3620 C   0  0  0  0  0  0  0  0  0  0  0  0
   86.9214   49.0731   35.3200 H   0  0  0  0  0  0  0  0  0  0  0  0
   87.1873   50.8239   35.1045 H   0  0  0  0  0  0  0  0  0  0  0  0
   85.4743   47.0508   31.0568 H   0  0  0  0  0  0  0  0  0  0  0  0
   85.2218   48.3785   29.8735 H   0  0  0  0  0  0  0  0  0  0  0  0
   86.7635   47.4566   29.8735 H   0  0  0  0  0  0  0  0  0  0  0  0
   86.4933   48.7296   28.5986 H   0  0  0  0  0  0  0  0  0  0  0  0
   87.2139   49.5687   26.3615 H   0  0  0  0  0  0  0  0  0  0  0  0
   89.5324   53.2728   27.2159 H   0  0  0  0  0  0  0  0  0  0  0  0
   91.9421   53.6380   27.4732 H   0  0  0  0  0  0  0  0  0  0  0  0
   89.1413   53.3448   30.7274 H   0  0  0  0  0  0  0  0  0  0  0  0
   93.0182   55.1457   31.3657 H   0  0  0  0  0  0  0  0  0  0  0  0
   93.6060   54.7330   28.9680 H   0  0  0  0  0  0  0  0  0  0  0  0
  1  2  1  0
  2  3  2  0
  2  6  1  0
  3  4  1  0
  4  5  1  0
  4  7  2  0
  6  7  1  0
  7  8  1  0
  8  9  2  0
  8 10  1  0
  9 13  1  0
 10 11  2  0
 11 12  1  0
 12 13  2  0
 13 14  1  0
 14 15  1  0
 15 16  2  0
 15 17  1  0
 16 23  1  0
 17 18  2  0
 18 19  1  0
 18 22  1  0
 19 20  1  0
 19 21  1  0
 20 21  1  0
 22 23  2  0
  1 24  1  0
  1 25  1  0
  5 26  1  0
  5 27  1  0
  5 28  1  0
 10 29  1  0
 11 30  1  0
 14 31  1  0
 16 32  1  0
 17 33  1  0
 22 34  1  0
 23 35  1  0
A    1
N7A
A    2
C3A
A    3
N2A
A    4
C1A
A    5
C6A
A    6
S4A
A    7
C5A
A    8
C4
A    9
N3
A   10
C5
A   11
C6
A   12
N1
A   13
C2
A   14
N7
A   15
C1B
A   16
C6B
A   17
C2B
A   18
C3B
A   19
N7B
A   20
O8B
A   21
O9B
A   22
C4B
A   23
C5B
M  END
