2AR8_CTE_A_650
     RDKit          3D

 27 28  0  0  0  0  0  0  0  0999 V2000
    2.7870    5.6820   14.0120 O   0  0  0  0  0  0  0  0  0  0  0  0
    3.9660    5.5210   14.3920 C   0  0  0  0  0  0  0  0  0  0  0  0
    4.2660    4.6120   15.1750 O   0  0  0  0  0  0  0  0  0  0  0  0
    5.0920    6.4370   13.8740 C   0  0  0  0  0  0  0  0  0  0  0  0
    5.1580    6.3700   12.3860 N   0  0  0  0  0  0  0  0  0  0  0  0
    4.8990    7.8670   14.4040 C   0  0  0  0  0  0  0  0  0  0  0  0
    5.0380    7.9590   15.9570 C   0  0  0  0  0  0  0  0  0  0  0  0
    6.1730    7.8970   16.6980 C   0  0  0  0  0  0  0  0  0  0  0  0
    5.8820    8.0230   18.0230 N   0  0  0  0  0  0  0  0  0  0  0  0
    4.5550    8.1790   18.1490 C   0  0  0  0  0  0  0  0  0  0  0  0
    3.9820    8.1250   16.8580 C   0  0  0  0  0  0  0  0  0  0  0  0
    2.5950    8.2580   16.6970 C   0  0  0  0  0  0  0  0  0  0  0  0
    1.7790    8.4410   17.8240 C   0  0  0  0  0  0  0  0  0  0  0  0
    2.3290    8.4770   19.1140 C   0  0  0  0  0  0  0  0  0  0  0  0
    3.7200    8.3480   19.2690 C   0  0  0  0  0  0  0  0  0  0  0  0
    4.4340    8.3600   20.8470 Cl  0  0  0  0  0  0  0  0  0  0  0  0
    4.2160    4.7636   16.1520 H   0  0  0  0  0  0  0  0  0  0  0  0
    6.0639    6.0887   14.2536 H   0  0  0  0  0  0  0  0  0  0  0  0
    5.8533    5.6641   12.1046 H   0  0  0  0  0  0  0  0  0  0  0  0
    4.2340    6.1096   12.0127 H   0  0  0  0  0  0  0  0  0  0  0  0
    5.6569    8.5180   13.9438 H   0  0  0  0  0  0  0  0  0  0  0  0
    3.8782    8.1828   14.1428 H   0  0  0  0  0  0  0  0  0  0  0  0
    7.1847    7.7639   16.2872 H   0  0  0  0  0  0  0  0  0  0  0  0
    6.5633    8.0021   18.7952 H   0  0  0  0  0  0  0  0  0  0  0  0
    2.1490    8.2191   15.6922 H   0  0  0  0  0  0  0  0  0  0  0  0
    0.6930    8.5578   17.6940 H   0  0  0  0  0  0  0  0  0  0  0  0
    1.6800    8.6045   19.9929 H   0  0  0  0  0  0  0  0  0  0  0  0
  1  2  2  0
  2  3  1  0
  2  4  1  0
  4  5  1  0
  4  6  1  0
  6  7  1  0
  7  8  2  0
  7 11  1  0
  8  9  1  0
  9 10  1  0
 10 11  2  0
 10 15  1  0
 11 12  1  0
 12 13  2  0
 13 14  1  0
 14 15  2  0
 15 16  1  0
  3 17  1  0
  4 18  1  0
  5 19  1  0
  5 20  1  0
  6 21  1  0
  6 22  1  0
  8 23  1  0
  9 24  1  0
 12 25  1  0
 13 26  1  0
 14 27  1  0
A    1
O
A    2
C
A    3
OXT
A    4
CA
A    5
N
A    6
CB
A    7
CG
A    8
CD1
A    9
NE1
A   10
CE2
A   11
CD2
A   12
CE3
A   13
CZ3
A   14
CH2
A   15
CZ2
A   16
CL
M  END
