2X6D_X6D_A_1391
     RDKit          3D

 67 72  0  0  0  0  0  0  0  0999 V2000
    0.6340   37.5200   83.6740 C   0  0  0  0  0  0  0  0  0  0  0  0
    0.0700   38.8790   83.9810 C   0  0  0  0  0  0  0  0  0  0  0  0
    0.7720   39.3980   85.1580 O   0  0  0  0  0  0  0  0  0  0  0  0
    0.5940   38.5710   86.3010 C   0  0  0  0  0  0  0  0  0  0  0  0
    1.1480   37.1950   85.9770 C   0  0  0  0  0  0  0  0  0  0  0  0
    0.4230   36.6410   84.8320 N   0  0  0  0  0  0  0  0  0  0  0  0
    0.9830   35.3240   84.5400 C   0  0  0  0  0  0  0  0  0  0  0  0
    0.3440   34.6340   83.3450 C   0  0  0  0  0  0  0  0  0  0  0  0
   -0.5490   33.6410   83.6420 C   0  0  0  0  0  0  0  0  0  0  0  0
   -1.1630   32.9660   82.6130 C   0  0  0  0  0  0  0  0  0  0  0  0
    0.6570   34.9420   82.0250 C   0  0  0  0  0  0  0  0  0  0  0  0
    0.0480   34.2600   80.9960 C   0  0  0  0  0  0  0  0  0  0  0  0
   -0.9050   33.3100   81.3010 C   0  0  0  0  0  0  0  0  0  0  0  0
   -1.4880   32.5150   80.3210 C   0  0  0  0  0  0  0  0  0  0  0  0
   -1.4030   32.6240   79.0030 N   0  0  0  0  0  0  0  0  0  0  0  0
   -2.1950   31.4210   80.5810 N   0  0  0  0  0  0  0  0  0  0  0  0
   -2.5600   30.8250   79.4650 C   0  0  0  0  0  0  0  0  0  0  0  0
   -2.0680   31.6280   78.4390 C   0  0  0  0  0  0  0  0  0  0  0  0
   -2.2810   31.3310   77.1490 N   0  0  0  0  0  0  0  0  0  0  0  0
   -2.9770   30.2450   76.8410 C   0  0  0  0  0  0  0  0  0  0  0  0
   -3.5390   29.3990   77.8140 C   0  0  0  0  0  0  0  0  0  0  0  0
   -4.4550   27.8960   77.1200 Br  0  0  0  0  0  0  0  0  0  0  0  0
   -3.3240   29.6820   79.1680 C   0  0  0  0  0  0  0  0  0  0  0  0
   -3.8650   28.9300   80.2910 N   0  0  0  0  0  0  0  0  0  0  0  0
   -5.2050   28.7610   80.4210 C   0  0  0  0  0  0  0  0  0  0  0  0
   -5.8400   27.6630   81.2610 C   0  0  0  0  0  0  0  0  0  0  0  0
   -3.5800   29.2630   81.7370 C   0  0  0  0  0  0  0  0  0  0  0  0
   -4.8700   29.1780   82.7260 C   0  0  0  0  0  0  0  0  0  0  0  0
   -5.3440   27.7840   82.6750 N   0  0  0  0  0  0  0  0  0  0  0  0
   -6.3090   26.7680   83.1740 C   0  0  0  0  0  0  0  0  0  0  0  0
   -6.0590   25.3090   82.7820 C   0  0  0  0  0  0  0  0  0  0  0  0
   -6.8860   24.6310   81.8460 C   0  0  0  0  0  0  0  0  0  0  0  0
   -6.5840   23.3040   81.5670 C   0  0  0  0  0  0  0  0  0  0  0  0
   -5.5340   22.6480   82.2120 C   0  0  0  0  0  0  0  0  0  0  0  0
   -5.1970   21.0150   81.8100 Cl  0  0  0  0  0  0  0  0  0  0  0  0
   -4.7450   23.3210   83.1420 C   0  0  0  0  0  0  0  0  0  0  0  0
   -5.0120   24.6550   83.4380 C   0  0  0  0  0  0  0  0  0  0  0  0
    0.1246   37.0996   82.7944 H   0  0  0  0  0  0  0  0  0  0  0  0
    1.7102   37.6037   83.4626 H   0  0  0  0  0  0  0  0  0  0  0  0
    0.2265   39.5516   83.1248 H   0  0  0  0  0  0  0  0  0  0  0  0
   -1.0106   38.8124   84.1756 H   0  0  0  0  0  0  0  0  0  0  0  0
    1.1345   38.9983   87.1585 H   0  0  0  0  0  0  0  0  0  0  0  0
   -0.4730   38.5016   86.5594 H   0  0  0  0  0  0  0  0  0  0  0  0
    2.2169   37.2775   85.7306 H   0  0  0  0  0  0  0  0  0  0  0  0
    1.0255   36.5332   86.8471 H   0  0  0  0  0  0  0  0  0  0  0  0
    2.0579   35.4417   84.3380 H   0  0  0  0  0  0  0  0  0  0  0  0
    0.7851   34.6911   85.4176 H   0  0  0  0  0  0  0  0  0  0  0  0
   -0.7726   33.3862   84.6885 H   0  0  0  0  0  0  0  0  0  0  0  0
   -1.8633   32.1477   82.8365 H   0  0  0  0  0  0  0  0  0  0  0  0
    1.3912   35.7306   81.8035 H   0  0  0  0  0  0  0  0  0  0  0  0
    0.3162   34.4686   79.9498 H   0  0  0  0  0  0  0  0  0  0  0  0
   -0.8991   33.3665   78.4973 H   0  0  0  0  0  0  0  0  0  0  0  0
   -3.1209   29.9952   75.7794 H   0  0  0  0  0  0  0  0  0  0  0  0
   -5.5884   29.7086   80.8272 H   0  0  0  0  0  0  0  0  0  0  0  0
   -5.4774   28.4361   79.4060 H   0  0  0  0  0  0  0  0  0  0  0  0
   -6.9346   27.7705   81.2431 H   0  0  0  0  0  0  0  0  0  0  0  0
   -5.5688   26.6778   80.8537 H   0  0  0  0  0  0  0  0  0  0  0  0
   -2.8192   28.5596   82.1063 H   0  0  0  0  0  0  0  0  0  0  0  0
   -3.2473   30.3113   81.7528 H   0  0  0  0  0  0  0  0  0  0  0  0
   -4.5796   29.4435   83.7532 H   0  0  0  0  0  0  0  0  0  0  0  0
   -5.6584   29.8783   82.4131 H   0  0  0  0  0  0  0  0  0  0  0  0
   -6.3049   26.8202   84.2728 H   0  0  0  0  0  0  0  0  0  0  0  0
   -7.2651   27.0286   82.6965 H   0  0  0  0  0  0  0  0  0  0  0  0
   -7.7332   25.1378   81.3608 H   0  0  0  0  0  0  0  0  0  0  0  0
   -7.1841   22.7594   80.8232 H   0  0  0  0  0  0  0  0  0  0  0  0
   -3.9141   22.8005   83.6407 H   0  0  0  0  0  0  0  0  0  0  0  0
   -4.4039   25.1901   84.1822 H   0  0  0  0  0  0  0  0  0  0  0  0
  1  2  1  0
  1  6  1  0
  2  3  1  0
  3  4  1  0
  4  5  1  0
  5  6  1  0
  6  7  1  0
  7  8  1  0
  8  9  2  0
  8 11  1  0
  9 10  1  0
 10 13  2  0
 11 12  2  0
 12 13  1  0
 13 14  1  0
 14 15  1  0
 14 16  2  0
 15 18  1  0
 16 17  1  0
 17 18  2  0
 17 23  1  0
 18 19  1  0
 19 20  2  0
 20 21  1  0
 21 22  1  0
 21 23  2  0
 23 24  1  0
 24 25  1  0
 24 27  1  0
 25 26  1  0
 26 29  1  0
 27 28  1  0
 28 29  1  0
 29 30  1  0
 30 31  1  0
 31 32  2  0
 31 37  1  0
 32 33  1  0
 33 34  2  0
 34 35  1  0
 34 36  1  0
 36 37  2  0
  1 38  1  0
  1 39  1  0
  2 40  1  0
  2 41  1  0
  4 42  1  0
  4 43  1  0
  5 44  1  0
  5 45  1  0
  7 46  1  0
  7 47  1  0
  9 48  1  0
 10 49  1  0
 11 50  1  0
 12 51  1  0
 15 52  1  0
 20 53  1  0
 25 54  1  0
 25 55  1  0
 26 56  1  0
 26 57  1  0
 27 58  1  0
 27 59  1  0
 28 60  1  0
 28 61  1  0
 30 62  1  0
 30 63  1  0
 32 64  1  0
 33 65  1  0
 36 66  1  0
 37 67  1  0
A    1
CAN
A    2
CAL
A    3
OAY
A    4
CAM
A    5
CAO
A    6
NBI
A    7
CAT
A    8
CBB
A    9
CAG
A   10
CAI
A   11
CAH
A   12
CAJ
A   13
CBD
A   14
CBE
A   15
NAX
A   16
NAW
A   17
CBH
A   18
CBG
A   19
NAV
A   20
CAK
A   21
CBC
A   22
BR
A   23
CBF
A   24
NBK
A   25
CAR
A   26
CAP
A   27
CAS
A   28
CAQ
A   29
NBJ
A   30
CAU
A   31
CBA
A   32
CAE
A   33
CAC
A   34
CAZ
A   35
CL
A   36
CAD
A   37
CAF
M  END
