2X7C_KZ9_A_1365
     RDKit          3D

 33 35  0  0  0  0  0  0  0  0999 V2000
   -8.3520   12.1700   34.2410 O   0  0  0  0  0  0  0  0  0  0  0  0
   -7.3740   12.9590   33.6690 C   0  0  0  0  0  0  0  0  0  0  0  0
   -7.4190   13.1760   32.2840 C   0  0  0  0  0  0  0  0  0  0  0  0
   -6.3600   13.5450   34.4360 C   0  0  0  0  0  0  0  0  0  0  0  0
   -5.3640   14.3420   33.8580 C   0  0  0  0  0  0  0  0  0  0  0  0
   -5.4170   14.5470   32.4590 C   0  0  0  0  0  0  0  0  0  0  0  0
   -6.4420   13.9610   31.6810 C   0  0  0  0  0  0  0  0  0  0  0  0
   -6.5040   14.1000   30.1470 C   0  0  0  0  0  0  0  0  0  0  0  0
   -6.8190   15.5570   29.7580 C   0  0  0  0  0  0  0  0  0  0  0  0
   -8.0410   16.1280   30.1230 C   0  0  0  0  0  0  0  0  0  0  0  0
   -8.9340   15.3830   30.5310 O   0  0  0  0  0  0  0  0  0  0  0  0
   -8.4090   17.5990   29.8640 C   0  0  0  0  0  0  0  0  0  0  0  0
   -7.1400   18.4700   29.8780 C   0  0  0  0  0  0  0  0  0  0  0  0
   -6.0490   17.8720   28.9460 C   0  0  0  0  0  0  0  0  0  0  0  0
   -5.8640   16.3620   29.1630 C   0  0  0  0  0  0  0  0  0  0  0  0
   -4.6130   15.8200   28.8480 N   0  0  0  0  0  0  0  0  0  0  0  0
   -4.3080   14.4730   29.0090 C   0  0  0  0  0  0  0  0  0  0  0  0
   -2.7750   13.9450   28.4270 S   0  0  0  0  0  0  0  0  0  0  0  0
   -5.2230   13.6110   29.6090 N   0  0  0  0  0  0  0  0  0  0  0  0
   -8.4262   12.1102   35.2264 H   0  0  0  0  0  0  0  0  0  0  0  0
   -8.2213   12.7285   31.6790 H   0  0  0  0  0  0  0  0  0  0  0  0
   -6.3452   13.3747   35.5226 H   0  0  0  0  0  0  0  0  0  0  0  0
   -4.5687   14.7926   34.4699 H   0  0  0  0  0  0  0  0  0  0  0  0
   -4.6522   15.1692   31.9712 H   0  0  0  0  0  0  0  0  0  0  0  0
   -7.3156   13.4976   29.7129 H   0  0  0  0  0  0  0  0  0  0  0  0
   -8.8986   17.6846   28.8827 H   0  0  0  0  0  0  0  0  0  0  0  0
   -9.0925   17.9444   30.6536 H   0  0  0  0  0  0  0  0  0  0  0  0
   -7.3941   19.4828   29.5321 H   0  0  0  0  0  0  0  0  0  0  0  0
   -6.7467   18.5032   30.9048 H   0  0  0  0  0  0  0  0  0  0  0  0
   -6.3422   18.0463   27.9002 H   0  0  0  0  0  0  0  0  0  0  0  0
   -5.0952   18.3664   29.1822 H   0  0  0  0  0  0  0  0  0  0  0  0
   -3.8843   16.4480   28.4798 H   0  0  0  0  0  0  0  0  0  0  0  0
   -4.9985   12.6081   29.6781 H   0  0  0  0  0  0  0  0  0  0  0  0
  1  2  1  0
  2  3  2  0
  2  4  1  0
  3  7  1  0
  4  5  2  0
  5  6  1  0
  6  7  2  0
  7  8  1  0
  8  9  1  0
  8 19  1  0
  9 10  1  0
  9 15  2  0
 10 11  2  0
 10 12  1  0
 12 13  1  0
 13 14  1  0
 14 15  1  0
 15 16  1  0
 16 17  1  0
 17 18  2  0
 17 19  1  0
  1 20  1  0
  3 21  1  0
  4 22  1  0
  5 23  1  0
  6 24  1  0
  8 25  1  0
 12 26  1  0
 12 27  1  0
 13 28  1  0
 13 29  1  0
 14 30  1  0
 14 31  1  0
 16 32  1  0
 19 33  1  0
A    1
OAB
A    2
CAQ
A    3
CAG
A    4
CAE
A    5
CAD
A    6
CAF
A    7
CAR
A    8
CAS
A    9
CAP
A   10
CAM
A   11
OAA
A   12
CAI
A   13
CAH
A   14
CAJ
A   15
CAO
A   16
NAK
A   17
CAN
A   18
SAC
A   19
NAL
M  END
