2X7E_X7E_A_1365
     RDKit          3D

 44 46  0  0  0  0  0  0  0  0999 V2000
  -37.2820  -15.9090  -27.7240 C   0  0  0  0  0  0  0  0  0  0  0  0
  -36.9400  -16.5620  -26.5520 C   0  0  0  0  0  0  0  0  0  0  0  0
  -35.6610  -16.7230  -26.1870 F   0  0  0  0  0  0  0  0  0  0  0  0
  -37.9100  -17.0760  -25.7090 C   0  0  0  0  0  0  0  0  0  0  0  0
  -37.4660  -17.7110  -24.6170 F   0  0  0  0  0  0  0  0  0  0  0  0
  -39.2590  -16.9570  -25.9830 C   0  0  0  0  0  0  0  0  0  0  0  0
  -39.6000  -16.2760  -27.1460 C   0  0  0  0  0  0  0  0  0  0  0  0
  -38.6400  -15.7720  -28.0210 C   0  0  0  0  0  0  0  0  0  0  0  0
  -39.0580  -15.1200  -29.3330 C   0  0  0  0  0  0  0  0  0  0  0  0
  -38.6870  -13.7830  -29.2920 O   0  0  0  0  0  0  0  0  0  0  0  0
  -40.5600  -15.2530  -29.4420 C   0  0  0  0  0  0  0  0  0  0  0  0
  -41.1440  -16.4770  -29.7410 C   0  0  0  0  0  0  0  0  0  0  0  0
  -40.3680  -17.8210  -29.9050 C   0  0  0  0  0  0  0  0  0  0  0  0
  -42.5180  -16.4820  -29.8550 N   0  0  0  0  0  0  0  0  0  0  0  0
  -43.2390  -17.7710  -30.1260 C   0  0  0  0  0  0  0  0  0  0  0  0
  -43.2440  -15.3420  -29.6840 C   0  0  0  0  0  0  0  0  0  0  0  0
  -44.8720  -15.5670  -29.5740 S   0  0  0  0  0  0  0  0  0  0  0  0
  -42.7210  -14.1000  -29.4360 N   0  0  0  0  0  0  0  0  0  0  0  0
  -41.3130  -13.9950  -29.7250 C   0  0  0  0  0  0  0  0  0  0  0  0
  -41.2380  -13.9260  -31.3260 C   0  0  0  0  0  0  0  0  0  0  0  0
  -42.1920  -13.2900  -32.1120 C   0  0  0  0  0  0  0  0  0  0  0  0
  -40.2240  -14.5410  -32.0630 C   0  0  0  0  0  0  0  0  0  0  0  0
  -40.1210  -14.4920  -33.4650 C   0  0  0  0  0  0  0  0  0  0  0  0
  -41.0640  -13.8020  -34.2280 C   0  0  0  0  0  0  0  0  0  0  0  0
  -42.0940  -13.2030  -33.5060 C   0  0  0  0  0  0  0  0  0  0  0  0
  -43.0700  -12.5330  -34.1810 O   0  0  0  0  0  0  0  0  0  0  0  0
  -36.5098  -15.5112  -28.3989 H   0  0  0  0  0  0  0  0  0  0  0  0
  -40.0241  -17.3795  -25.3150 H   0  0  0  0  0  0  0  0  0  0  0  0
  -40.6641  -16.1301  -27.3835 H   0  0  0  0  0  0  0  0  0  0  0  0
  -38.5784  -15.5946  -30.2017 H   0  0  0  0  0  0  0  0  0  0  0  0
  -38.6062  -13.4917  -28.3493 H   0  0  0  0  0  0  0  0  0  0  0  0
  -40.1312  -18.2312  -28.9122 H   0  0  0  0  0  0  0  0  0  0  0  0
  -40.9907  -18.5387  -30.4592 H   0  0  0  0  0  0  0  0  0  0  0  0
  -39.4351  -17.6405  -30.4592 H   0  0  0  0  0  0  0  0  0  0  0  0
  -43.5064  -18.2491  -29.1721 H   0  0  0  0  0  0  0  0  0  0  0  0
  -44.1532  -17.5656  -30.7022 H   0  0  0  0  0  0  0  0  0  0  0  0
  -42.5855  -18.4425  -30.7022 H   0  0  0  0  0  0  0  0  0  0  0  0
  -43.2820  -13.3145  -29.0765 H   0  0  0  0  0  0  0  0  0  0  0  0
  -40.9039  -13.1573  -29.1412 H   0  0  0  0  0  0  0  0  0  0  0  0
  -43.0625  -12.8349  -31.6168 H   0  0  0  0  0  0  0  0  0  0  0  0
  -39.4549  -15.1008  -31.5107 H   0  0  0  0  0  0  0  0  0  0  0  0
  -39.2865  -15.0041  -33.9664 H   0  0  0  0  0  0  0  0  0  0  0  0
  -40.9986  -13.7356  -35.3240 H   0  0  0  0  0  0  0  0  0  0  0  0
  -43.7746  -12.0493  -33.6814 H   0  0  0  0  0  0  0  0  0  0  0  0
  1  2  2  0
  1  8  1  0
  2  3  1  0
  2  4  1  0
  4  5  1  0
  4  6  2  0
  6  7  1  0
  7  8  2  0
  8  9  1  0
  9 10  1  0
  9 11  1  0
 11 12  2  0
 11 19  1  0
 12 13  1  0
 12 14  1  0
 14 15  1  0
 14 16  1  0
 16 17  2  0
 16 18  1  0
 18 19  1  0
 19 20  1  0
 20 21  2  0
 20 22  1  0
 21 25  1  0
 22 23  2  0
 23 24  1  0
 24 25  2  0
 25 26  1  0
  1 27  1  0
  6 28  1  0
  7 29  1  0
  9 30  1  0
 10 31  1  0
 13 32  1  0
 13 33  1  0
 13 34  1  0
 15 35  1  0
 15 36  1  0
 15 37  1  0
 18 38  1  0
 19 39  1  0
 21 40  1  0
 22 41  1  0
 23 42  1  0
 24 43  1  0
 26 44  1  0
A    1
CAN
A    2
CAW
A    3
FAG
A    4
CAV
A    5
FAF
A    6
CAL
A    7
CAJ
A    8
CAU
A    9
CAQ
A   10
OAC
A   11
CAS
A   12
CAP
A   13
CAA
A   14
NAZ
A   15
CAB
A   16
CAR
A   17
SAE
A   18
NAO
A   19
CAY
A   20
CAX
A   21
CAM
A   22
CAK
A   23
CAH
A   24
CAI
A   25
CAT
A   26
OAD
M  END
