1X8B_824_A_901
     RDKit          3D

 37 41  0  0  0  0  0  0  0  0999 V2000
    8.1890   55.6520   21.9340 O   0  0  0  0  0  0  0  0  0  0  0  0
    7.0210   55.2620   22.4050 C   0  0  0  0  0  0  0  0  0  0  0  0
    6.0450   54.8660   21.4330 C   0  0  0  0  0  0  0  0  0  0  0  0
    4.7660   54.3890   21.7500 C   0  0  0  0  0  0  0  0  0  0  0  0
    4.4030   54.3550   23.1030 C   0  0  0  0  0  0  0  0  0  0  0  0
    5.3970   54.7470   24.0960 C   0  0  0  0  0  0  0  0  0  0  0  0
    6.7120   55.1830   23.7850 C   0  0  0  0  0  0  0  0  0  0  0  0
    4.6770   54.5540   25.3490 C   0  0  0  0  0  0  0  0  0  0  0  0
    3.3430   54.0300   25.0930 C   0  0  0  0  0  0  0  0  0  0  0  0
    3.2710   53.9340   23.7350 N   0  0  0  0  0  0  0  0  0  0  0  0
    5.0330   54.7570   26.7210 C   0  0  0  0  0  0  0  0  0  0  0  0
    6.2490   55.1870   27.3920 C   0  0  0  0  0  0  0  0  0  0  0  0
    7.2990   55.6250   26.8410 O   0  0  0  0  0  0  0  0  0  0  0  0
    4.0930   54.4410   27.7600 C   0  0  0  0  0  0  0  0  0  0  0  0
    4.8590   54.7810   28.9710 C   0  0  0  0  0  0  0  0  0  0  0  0
    4.3970   54.6230   30.1430 O   0  0  0  0  0  0  0  0  0  0  0  0
    6.1320   55.1840   28.7310 N   0  0  0  0  0  0  0  0  0  0  0  0
    2.7320   53.9900   27.4820 C   0  0  0  0  0  0  0  0  0  0  0  0
    2.3990   53.7790   26.1090 C   0  0  0  0  0  0  0  0  0  0  0  0
    1.7480   53.6900   28.5320 C   0  0  0  0  0  0  0  0  0  0  0  0
    1.4460   54.6840   29.4920 C   0  0  0  0  0  0  0  0  0  0  0  0
    0.4900   54.4330   30.5090 C   0  0  0  0  0  0  0  0  0  0  0  0
   -0.2190   53.2380   30.4250 C   0  0  0  0  0  0  0  0  0  0  0  0
    0.0330   52.3000   29.4530 C   0  0  0  0  0  0  0  0  0  0  0  0
    1.0200   52.5030   28.4650 C   0  0  0  0  0  0  0  0  0  0  0  0
    8.9181   55.8954   22.5579 H   0  0  0  0  0  0  0  0  0  0  0  0
    6.3174   54.9413   20.3699 H   0  0  0  0  0  0  0  0  0  0  0  0
    4.0722   54.0534   20.9652 H   0  0  0  0  0  0  0  0  0  0  0  0
    7.4430   55.4425   24.5649 H   0  0  0  0  0  0  0  0  0  0  0  0
    2.4431   53.5785   23.2359 H   0  0  0  0  0  0  0  0  0  0  0  0
    6.8521   55.4334   29.4240 H   0  0  0  0  0  0  0  0  0  0  0  0
    1.3953   53.4168   25.8419 H   0  0  0  0  0  0  0  0  0  0  0  0
    1.9559   55.6578   29.4495 H   0  0  0  0  0  0  0  0  0  0  0  0
    0.3169   55.1490   31.3259 H   0  0  0  0  0  0  0  0  0  0  0  0
   -1.0094   53.0374   31.1633 H   0  0  0  0  0  0  0  0  0  0  0  0
   -0.5495   51.3670   29.4448 H   0  0  0  0  0  0  0  0  0  0  0  0
    1.2065   51.7581   27.6774 H   0  0  0  0  0  0  0  0  0  0  0  0
  1  2  1  0
  2  3  2  0
  2  7  1  0
  3  4  1  0
  4  5  2  0
  5  6  1  0
  5 10  1  0
  6  7  2  0
  6  8  1  0
  8  9  2  0
  8 11  1  0
  9 10  1  0
  9 19  1  0
 11 12  1  0
 11 14  2  0
 12 13  2  0
 12 17  1  0
 14 15  1  0
 14 18  1  0
 15 16  2  0
 15 17  1  0
 18 19  2  0
 18 20  1  0
 20 21  2  0
 20 25  1  0
 21 22  1  0
 22 23  2  0
 23 24  1  0
 24 25  2  0
  1 26  1  0
  3 27  1  0
  4 28  1  0
  7 29  1  0
 10 30  1  0
 17 31  1  0
 19 32  1  0
 21 33  1  0
 22 34  1  0
 23 35  1  0
 24 36  1  0
 25 37  1  0
A    1
O3
A    2
C19
A    3
C20
A    4
C18
A    5
C16
A    6
C15
A    7
C17
A    8
C13
A    9
C14
A   10
N2
A   11
C4
A   12
C5
A   13
O1
A   14
C3
A   15
C6
A   16
O2
A   17
N1
A   18
C2
A   19
C1
A   20
C7
A   21
C8
A   22
C9
A   23
C10
A   24
C11
A   25
C12
M  END
