2X7S_WZC_A_1263
     RDKit          3D

 53 56  0  0  0  0  0  0  0  0999 V2000
   17.8960   25.5750   19.6270 O   0  0  0  0  0  0  0  0  0  0  0  0
   19.2940   25.9400   19.3530 S   0  0  0  0  0  0  0  0  0  0  0  0
   20.0610   25.5190   20.5250 O   0  0  0  0  0  0  0  0  0  0  0  0
   19.8540   25.1190   18.1880 N   0  0  0  0  0  0  0  0  0  0  0  0
   19.3420   27.4390   19.0180 O   0  0  0  0  0  0  0  0  0  0  0  0
   20.5550   28.0960   18.6680 C   0  0  0  0  0  0  0  0  0  0  0  0
   20.7340   28.1940   17.1430 C   0  0  0  0  0  0  0  0  0  0  0  0
   21.3300   29.5740   16.8590 C   0  0  0  0  0  0  0  0  0  0  0  0
   21.7200   30.0270   18.2590 C   0  0  0  0  0  0  0  0  0  0  0  0
   22.0500   31.4930   18.5130 C   0  0  0  0  0  0  0  0  0  0  0  0
   23.0110   32.0740   17.4870 C   0  0  0  0  0  0  0  0  0  0  0  0
   23.1990   33.5600   17.7770 C   0  0  0  0  0  0  0  0  0  0  0  0
   23.3530   33.8570   19.2580 C   0  0  0  0  0  0  0  0  0  0  0  0
   23.7670   35.1420   19.6090 C   0  0  0  0  0  0  0  0  0  0  0  0
   23.9390   35.5020   20.9400 C   0  0  0  0  0  0  0  0  0  0  0  0
   24.3440   36.7730   21.2380 O   0  0  0  0  0  0  0  0  0  0  0  0
   23.6940   34.5790   21.9430 C   0  0  0  0  0  0  0  0  0  0  0  0
   23.8720   34.9500   23.2600 O   0  0  0  0  0  0  0  0  0  0  0  0
   24.4200   34.0470   24.2250 C   0  0  0  0  0  0  0  0  0  0  0  0
   23.2730   33.2860   21.6030 C   0  0  0  0  0  0  0  0  0  0  0  0
   23.1050   32.9170   20.2620 C   0  0  0  0  0  0  0  0  0  0  0  0
   22.6520   31.5380   19.9260 C   0  0  0  0  0  0  0  0  0  0  0  0
   21.6610   31.0210   20.9790 C   0  0  0  0  0  0  0  0  0  0  0  0
   21.0700   29.6430   20.6500 C   0  0  0  0  0  0  0  0  0  0  0  0
   20.6290   29.5240   19.1880 C   0  0  0  0  0  0  0  0  0  0  0  0
   19.2810   30.2340   18.9960 C   0  0  0  0  0  0  0  0  0  0  0  0
   20.3959   24.3246   18.5570 H   0  0  0  0  0  0  0  0  0  0  0  0
   19.0766   24.7662   17.6117 H   0  0  0  0  0  0  0  0  0  0  0  0
   21.3401   27.4785   19.1289 H   0  0  0  0  0  0  0  0  0  0  0  0
   21.4159   27.4064   16.7898 H   0  0  0  0  0  0  0  0  0  0  0  0
   19.7740   28.0624   16.6223 H   0  0  0  0  0  0  0  0  0  0  0  0
   22.2076   29.5052   16.1994 H   0  0  0  0  0  0  0  0  0  0  0  0
   20.6461   30.2606   16.3385 H   0  0  0  0  0  0  0  0  0  0  0  0
   22.7127   29.5907   18.4440 H   0  0  0  0  0  0  0  0  0  0  0  0
   21.1443   32.1110   18.4250 H   0  0  0  0  0  0  0  0  0  0  0  0
   23.9803   31.5584   17.5546 H   0  0  0  0  0  0  0  0  0  0  0  0
   22.6034   31.9391   16.4742 H   0  0  0  0  0  0  0  0  0  0  0  0
   24.1013   33.9086   17.2532 H   0  0  0  0  0  0  0  0  0  0  0  0
   22.2960   34.0819   17.4273 H   0  0  0  0  0  0  0  0  0  0  0  0
   23.9605   35.8826   18.8190 H   0  0  0  0  0  0  0  0  0  0  0  0
   24.4339   37.0552   22.1827 H   0  0  0  0  0  0  0  0  0  0  0  0
   24.1975   34.4136   25.2380 H   0  0  0  0  0  0  0  0  0  0  0  0
   23.9741   33.0506   24.0895 H   0  0  0  0  0  0  0  0  0  0  0  0
   25.5097   33.9825   24.0895 H   0  0  0  0  0  0  0  0  0  0  0  0
   23.0723   32.5528   22.3980 H   0  0  0  0  0  0  0  0  0  0  0  0
   23.5263   30.8706   19.9360 H   0  0  0  0  0  0  0  0  0  0  0  0
   22.1847   30.9523   21.9439 H   0  0  0  0  0  0  0  0  0  0  0  0
   20.8217   31.7315   21.0051 H   0  0  0  0  0  0  0  0  0  0  0  0
   21.8321   28.8758   20.8515 H   0  0  0  0  0  0  0  0  0  0  0  0
   20.1782   29.5047   21.2789 H   0  0  0  0  0  0  0  0  0  0  0  0
   18.8444   30.4640   19.9791 H   0  0  0  0  0  0  0  0  0  0  0  0
   19.4350   31.1680   18.4357 H   0  0  0  0  0  0  0  0  0  0  0  0
   18.5979   29.5787   18.4357 H   0  0  0  0  0  0  0  0  0  0  0  0
  1  2  2  0
  2  3  2  0
  2  4  1  0
  2  5  1  0
  5  6  1  0
  6  7  1  0
  6 25  1  0
  7  8  1  0
  8  9  1  0
  9 10  1  0
  9 25  1  0
 10 11  1  0
 10 22  1  0
 11 12  1  0
 12 13  1  0
 13 14  2  0
 13 21  1  0
 14 15  1  0
 15 16  1  0
 15 17  2  0
 17 18  1  0
 17 20  1  0
 18 19  1  0
 20 21  2  0
 21 22  1  0
 22 23  1  0
 23 24  1  0
 24 25  1  0
 25 26  1  0
  4 27  1  0
  4 28  1  0
  6 29  1  0
  7 30  1  0
  7 31  1  0
  8 32  1  0
  8 33  1  0
  9 34  1  0
 10 35  1  0
 11 36  1  0
 11 37  1  0
 12 38  1  0
 12 39  1  0
 14 40  1  0
 16 41  1  0
 19 42  1  0
 19 43  1  0
 19 44  1  0
 20 45  1  0
 22 46  1  0
 23 47  1  0
 23 48  1  0
 24 49  1  0
 24 50  1  0
 26 51  1  0
 26 52  1  0
 26 53  1  0
A    1
OAD
A    2
SAZ
A    3
OAE
A    4
NAC
A    5
OAP
A    6
CAV
A    7
CAK
A    8
CAM
A    9
CAX
A   10
CAW
A   11
CAJ
A   12
CAI
A   13
CAR
A   14
CAG
A   15
CAQ
A   16
OAF
A   17
CAS
A   18
OAO
A   19
CAA
A   20
CAH
A   21
CAT
A   22
CAU
A   23
CAL
A   24
CAN
A   25
CAY
A   26
CAB
M  END
