2X7T_WZB_A_1261
     RDKit          3D

 60 63  0  0  0  0  0  0  0  0999 V2000
   -7.2590    1.0810   17.1950 O   0  0  0  0  0  0  0  0  0  0  0  0
   -5.8440    1.1230   16.8590 S   0  0  0  0  0  0  0  0  0  0  0  0
   -5.0640    1.7200   17.8900 O   0  0  0  0  0  0  0  0  0  0  0  0
   -5.2570   -0.2570   16.5960 N   0  0  0  0  0  0  0  0  0  0  0  0
   -5.7450    1.9740   15.4580 O   0  0  0  0  0  0  0  0  0  0  0  0
   -4.4780    2.1930   14.8150 C   0  0  0  0  0  0  0  0  0  0  0  0
   -4.3360    1.3680   13.5120 C   0  0  0  0  0  0  0  0  0  0  0  0
   -3.3380    2.1590   12.6430 C   0  0  0  0  0  0  0  0  0  0  0  0
   -4.2720    3.6400   14.3690 C   0  0  0  0  0  0  0  0  0  0  0  0
   -2.9700    3.3090   13.5950 C   0  0  0  0  0  0  0  0  0  0  0  0
   -5.5180    4.0930   13.5180 C   0  0  0  0  0  0  0  0  0  0  0  0
   -4.0290    4.7390   15.4340 C   0  0  0  0  0  0  0  0  0  0  0  0
   -3.2790    5.9790   14.8850 C   0  0  0  0  0  0  0  0  0  0  0  0
   -1.9960    5.5750   14.1090 C   0  0  0  0  0  0  0  0  0  0  0  0
   -2.3100    4.5640   12.9310 C   0  0  0  0  0  0  0  0  0  0  0  0
   -1.0130    4.1990   12.1530 C   0  0  0  0  0  0  0  0  0  0  0  0
   -0.4090    5.4620   11.4650 C   0  0  0  0  0  0  0  0  0  0  0  0
   -0.4900    6.7330   12.3220 C   0  0  0  0  0  0  0  0  0  0  0  0
    0.2120    7.9250   11.8830 C   0  0  0  0  0  0  0  0  0  0  0  0
   -1.2440    6.7840   13.5670 C   0  0  0  0  0  0  0  0  0  0  0  0
   -1.0960    7.9940   14.0470 C   0  0  0  0  0  0  0  0  0  0  0  0
   -0.5640    9.1860   13.8900 C   0  0  0  0  0  0  0  0  0  0  0  0
   -0.6830   10.3940   14.8140 C   0  0  0  0  0  0  0  0  0  0  0  0
   -1.8820   11.2210   14.3680 C   0  0  0  0  0  0  0  0  0  0  0  0
    0.1890    9.1500   12.6430 C   0  0  0  0  0  0  0  0  0  0  0  0
    0.8930   10.2470   12.1610 O   0  0  0  0  0  0  0  0  0  0  0  0
    2.5430   10.2540   12.2570 S   0  0  0  0  0  0  0  0  0  0  0  0
    3.0080   11.6470   12.0590 O   0  0  0  0  0  0  0  0  0  0  0  0
    3.1160    9.4060   11.1880 O   0  0  0  0  0  0  0  0  0  0  0  0
    3.0410    9.7330   13.6050 N   0  0  0  0  0  0  0  0  0  0  0  0
   -5.0590   -0.7225   17.4932 H   0  0  0  0  0  0  0  0  0  0  0  0
   -5.9313   -0.8202   16.0584 H   0  0  0  0  0  0  0  0  0  0  0  0
   -3.7458    1.9002   15.5819 H   0  0  0  0  0  0  0  0  0  0  0  0
   -3.9453    0.3634   13.7315 H   0  0  0  0  0  0  0  0  0  0  0  0
   -5.3024    1.2274   13.0057 H   0  0  0  0  0  0  0  0  0  0  0  0
   -2.4582    1.5518   12.3835 H   0  0  0  0  0  0  0  0  0  0  0  0
   -3.7398    2.4842   11.6720 H   0  0  0  0  0  0  0  0  0  0  0  0
   -2.1611    2.9804   14.2642 H   0  0  0  0  0  0  0  0  0  0  0  0
   -6.3345    4.3898   14.1927 H   0  0  0  0  0  0  0  0  0  0  0  0
   -5.2379    4.9468   12.8836 H   0  0  0  0  0  0  0  0  0  0  0  0
   -5.8516    3.2586   12.8836 H   0  0  0  0  0  0  0  0  0  0  0  0
   -5.0038    5.0667   15.8244 H   0  0  0  0  0  0  0  0  0  0  0  0
   -3.3931    4.2967   16.2151 H   0  0  0  0  0  0  0  0  0  0  0  0
   -3.9478    6.5292   14.2068 H   0  0  0  0  0  0  0  0  0  0  0  0
   -2.9814    6.6062   15.7382 H   0  0  0  0  0  0  0  0  0  0  0  0
   -1.3488    5.0686   14.8403 H   0  0  0  0  0  0  0  0  0  0  0  0
   -2.9893    5.0068   12.1877 H   0  0  0  0  0  0  0  0  0  0  0  0
   -0.2756    3.7829   12.8553 H   0  0  0  0  0  0  0  0  0  0  0  0
   -1.2618    3.4590   11.3781 H   0  0  0  0  0  0  0  0  0  0  0  0
    0.6491    5.2620   11.2405 H   0  0  0  0  0  0  0  0  0  0  0  0
   -1.0039    5.6484   10.5587 H   0  0  0  0  0  0  0  0  0  0  0  0
    0.7793    7.8928   10.9411 H   0  0  0  0  0  0  0  0  0  0  0  0
   -1.6620    8.0269   14.9897 H   0  0  0  0  0  0  0  0  0  0  0  0
   -0.8289   10.0564   15.8507 H   0  0  0  0  0  0  0  0  0  0  0  0
    0.2340   10.9996   14.7661 H   0  0  0  0  0  0  0  0  0  0  0  0
   -2.4206   11.5925   15.2523 H   0  0  0  0  0  0  0  0  0  0  0  0
   -1.5357   12.0732   13.7648 H   0  0  0  0  0  0  0  0  0  0  0  0
   -2.5556   10.5945   13.7648 H   0  0  0  0  0  0  0  0  0  0  0  0
    2.5611   10.2350   14.3656 H   0  0  0  0  0  0  0  0  0  0  0  0
    2.8408    8.7253   13.6788 H   0  0  0  0  0  0  0  0  0  0  0  0
  1  2  2  0
  2  3  2  0
  2  4  1  0
  2  5  1  0
  5  6  1  0
  6  7  1  0
  6  9  1  0
  7  8  1  0
  8 10  1  0
  9 10  1  0
  9 11  1  0
  9 12  1  0
 10 15  1  0
 12 13  1  0
 13 14  1  0
 14 15  1  0
 14 20  1  0
 15 16  1  0
 16 17  1  0
 17 18  1  0
 18 19  2  0
 18 20  1  0
 19 25  1  0
 20 21  2  0
 21 22  1  0
 22 23  1  0
 22 25  2  0
 23 24  1  0
 25 26  1  0
 26 27  1  0
 27 28  2  0
 27 29  2  0
 27 30  1  0
  4 31  1  0
  4 32  1  0
  6 33  1  0
  7 34  1  0
  7 35  1  0
  8 36  1  0
  8 37  1  0
 10 38  1  0
 11 39  1  0
 11 40  1  0
 11 41  1  0
 12 42  1  0
 12 43  1  0
 13 44  1  0
 13 45  1  0
 14 46  1  0
 15 47  1  0
 16 48  1  0
 16 49  1  0
 17 50  1  0
 17 51  1  0
 19 52  1  0
 21 53  1  0
 23 54  1  0
 23 55  1  0
 24 56  1  0
 24 57  1  0
 24 58  1  0
 30 59  1  0
 30 60  1  0
A    1
OAH
A    2
SBD
A    3
OAG
A    4
NAD
A    5
OAS
A    6
CAX
A    7
CAM
A    8
CAO
A    9
CBB
A   10
CBA
A   11
CAB
A   12
CAQ
A   13
CAP
A   14
CAY
A   15
CAZ
A   16
CAN
A   17
CAL
A   18
CAU
A   19
CAI
A   20
CAW
A   21
CAJ
A   22
CAT
A   23
CAK
A   24
CAA
A   25
CAV
A   26
OAR
A   27
SBC
A   28
OAF
A   29
OAE
A   30
NAC
M  END
