2X93_X93_A_1623
     RDKit          3D

 59 61  0  0  0  0  0  0  0  0999 V2000
   27.6100   -1.1380  -23.7700 C   0  0  0  0  0  0  0  0  0  0  0  0
   27.1760    0.2660  -24.2180 C   0  0  0  0  0  0  0  0  0  0  0  0
   28.0140    1.3260  -23.4970 C   0  0  0  0  0  0  0  0  0  0  0  0
   27.6950    2.7710  -23.9020 C   0  0  0  0  0  0  0  0  0  0  0  0
   28.1580    3.8080  -23.0850 C   0  0  0  0  0  0  0  0  0  0  0  0
   26.9710    3.0670  -25.0580 C   0  0  0  0  0  0  0  0  0  0  0  0
   27.8870    5.1350  -23.4170 C   0  0  0  0  0  0  0  0  0  0  0  0
   26.6970    4.3920  -25.3940 C   0  0  0  0  0  0  0  0  0  0  0  0
   27.1580    5.4250  -24.5740 C   0  0  0  0  0  0  0  0  0  0  0  0
   26.9760   -1.4710  -22.4130 C   0  0  0  0  0  0  0  0  0  0  0  0
   25.7600   -1.7370  -22.4090 O   0  0  0  0  0  0  0  0  0  0  0  0
   27.7240   -1.4580  -21.4050 O   0  0  0  0  0  0  0  0  0  0  0  0
   27.2130   -2.1350  -24.7870 N   0  0  0  0  0  0  0  0  0  0  0  0
   27.6050   -3.5230  -24.4560 C   0  0  0  0  0  0  0  0  0  0  0  0
   29.1390   -3.6310  -24.4420 C   0  0  0  0  0  0  0  0  0  0  0  0
   29.7720   -2.8530  -25.1560 O   0  0  0  0  0  0  0  0  0  0  0  0
   27.0170   -4.4600  -25.5270 C   0  0  0  0  0  0  0  0  0  0  0  0
   29.8550   -4.5230  -23.7240 N   0  0  0  0  0  0  0  0  0  0  0  0
   29.4260   -5.5370  -22.7200 C   0  0  0  0  0  0  0  0  0  0  0  0
   28.1600   -6.3570  -23.0130 C   0  0  0  0  0  0  0  0  0  0  0  0
   27.9620   -7.4240  -21.9050 C   0  0  0  0  0  0  0  0  0  0  0  0
   29.2320   -8.2710  -21.6090 C   0  0  0  0  0  0  0  0  0  0  0  0
   30.5100   -7.4140  -21.5030 C   0  0  0  0  0  0  0  0  0  0  0  0
   30.5970   -6.5130  -22.7370 C   0  0  0  0  0  0  0  0  0  0  0  0
   31.7910   -5.5720  -22.7380 C   0  0  0  0  0  0  0  0  0  0  0  0
   31.3420   -4.5110  -23.7580 C   0  0  0  0  0  0  0  0  0  0  0  0
   31.8720   -4.8510  -25.1690 C   0  0  0  0  0  0  0  0  0  0  0  0
   32.9850   -4.3910  -25.4650 O   0  0  0  0  0  0  0  0  0  0  0  0
   31.1520   -5.5430  -25.9240 O   0  0  0  0  0  0  0  0  0  0  0  0
   28.7044   -1.1635  -23.6621 H   0  0  0  0  0  0  0  0  0  0  0  0
   26.1134    0.4140  -23.9752 H   0  0  0  0  0  0  0  0  0  0  0  0
   27.3265    0.3623  -25.3034 H   0  0  0  0  0  0  0  0  0  0  0  0
   29.0746    1.1336  -23.7164 H   0  0  0  0  0  0  0  0  0  0  0  0
   27.7745    1.2403  -22.4268 H   0  0  0  0  0  0  0  0  0  0  0  0
   28.7370    3.5761  -22.1789 H   0  0  0  0  0  0  0  0  0  0  0  0
   26.6155    2.2523  -25.7060 H   0  0  0  0  0  0  0  0  0  0  0  0
   28.2454    5.9502  -22.7712 H   0  0  0  0  0  0  0  0  0  0  0  0
   26.1199    4.6233  -26.3015 H   0  0  0  0  0  0  0  0  0  0  0  0
   26.9464    6.4712  -24.8400 H   0  0  0  0  0  0  0  0  0  0  0  0
   27.3306   -1.4648  -20.4965 H   0  0  0  0  0  0  0  0  0  0  0  0
   26.1885   -2.1035  -24.8885 H   0  0  0  0  0  0  0  0  0  0  0  0
   27.2228   -3.8055  -23.4640 H   0  0  0  0  0  0  0  0  0  0  0  0
   26.4935   -5.2942  -25.0369 H   0  0  0  0  0  0  0  0  0  0  0  0
   26.3079   -3.9002  -26.1546 H   0  0  0  0  0  0  0  0  0  0  0  0
   27.8295   -4.8550  -26.1546 H   0  0  0  0  0  0  0  0  0  0  0  0
   29.1785   -5.0109  -21.7862 H   0  0  0  0  0  0  0  0  0  0  0  0
   27.2876   -5.6874  -23.0363 H   0  0  0  0  0  0  0  0  0  0  0  0
   28.2667   -6.8575  -23.9867 H   0  0  0  0  0  0  0  0  0  0  0  0
   27.6653   -6.9100  -20.9788 H   0  0  0  0  0  0  0  0  0  0  0  0
   27.1920   -8.1207  -22.2678 H   0  0  0  0  0  0  0  0  0  0  0  0
   29.0857   -8.8032  -20.6575 H   0  0  0  0  0  0  0  0  0  0  0  0
   29.3689   -8.9677  -22.4491 H   0  0  0  0  0  0  0  0  0  0  0  0
   30.4670   -6.7952  -20.5946 H   0  0  0  0  0  0  0  0  0  0  0  0
   31.3954   -8.0645  -21.4493 H   0  0  0  0  0  0  0  0  0  0  0  0
   30.6382   -7.2104  -23.5867 H   0  0  0  0  0  0  0  0  0  0  0  0
   31.9556   -5.1301  -21.7442 H   0  0  0  0  0  0  0  0  0  0  0  0
   32.7460   -6.0582  -22.9864 H   0  0  0  0  0  0  0  0  0  0  0  0
   31.7381   -3.5149  -23.5111 H   0  0  0  0  0  0  0  0  0  0  0  0
   30.4945   -6.1749  -25.5386 H   0  0  0  0  0  0  0  0  0  0  0  0
  5  7  2  0
  5  4  1  0
  7  9  1  0
  9  8  2  0
  8  6  1  0
  6  4  2  0
  4  3  1  0
  3  2  1  0
  2  1  1  0
  1 10  1  0
  1 13  1  0
 10 12  1  0
 10 11  2  0
 13 14  1  0
 14 17  1  0
 14 15  1  0
 15 16  2  0
 15 18  1  0
 18 19  1  0
 18 26  1  0
 19 20  1  0
 19 24  1  0
 20 21  1  0
 21 22  1  0
 22 23  1  0
 23 24  1  0
 24 25  1  0
 25 26  1  0
 26 27  1  0
 27 28  2  0
 27 29  1  0
  1 30  1  0
  2 31  1  0
  2 32  1  0
  3 33  1  0
  3 34  1  0
  5 35  1  0
  6 36  1  0
  7 37  1  0
  8 38  1  0
  9 39  1  0
 12 40  1  0
 13 41  1  0
 14 42  1  0
 17 43  1  0
 17 44  1  0
 17 45  1  0
 19 46  1  0
 20 47  1  0
 20 48  1  0
 21 49  1  0
 21 50  1  0
 22 51  1  0
 22 52  1  0
 23 53  1  0
 23 54  1  0
 24 55  1  0
 25 56  1  0
 25 57  1  0
 26 58  1  0
 29 59  1  0
A    1
CAY
A    2
CAQ
A    3
CAN
A    4
CAW
A    5
CAJ
A    6
CAK
A    7
CAH
A    8
CAI
A    9
CAG
A   10
CAT
A   11
OAB
A   12
OAE
A   13
N
A   14
CA
A   15
C
A   16
O
A   17
CB
A   18
NBC
A   19
CBB
A   20
CAP
A   21
CAM
A   22
CAL
A   23
CAO
A   24
CAZ
A   25
CAR
A   26
CBA
A   27
CAU
A   28
OAF
A   29
OAC
M  END
