2X9D_ITC_A_1209
     RDKit          3D

 56 59  0  0  0  0  0  0  0  0999 V2000
   20.3340   34.7080   33.8070 C   0  0  0  0  0  0  0  0  0  0  0  0
   19.7720   35.3120   32.8670 O   0  0  0  0  0  0  0  0  0  0  0  0
   19.5870   33.8060   34.6670 C   0  0  0  0  0  0  0  0  0  0  0  0
   18.3180   33.1890   34.2120 C   0  0  0  0  0  0  0  0  0  0  0  0
   17.7490   32.3640   34.9200 O   0  0  0  0  0  0  0  0  0  0  0  0
   17.7210   33.6120   33.0950 N   0  0  0  0  0  0  0  0  0  0  0  0
   20.0990   33.5240   35.9060 C   0  0  0  0  0  0  0  0  0  0  0  0
   19.4660   32.6590   36.7020 O   0  0  0  0  0  0  0  0  0  0  0  0
   21.3190   34.1850   36.5040 C   0  0  0  0  0  0  0  0  0  0  0  0
   22.1250   33.2180   37.2800 N   0  0  0  0  0  0  0  0  0  0  0  0
   23.1000   32.4290   36.5070 C   0  0  0  0  0  0  0  0  0  0  0  0
   22.7230   33.9360   38.3990 C   0  0  0  0  0  0  0  0  0  0  0  0
   22.1190   35.0990   35.5330 C   0  0  0  0  0  0  0  0  0  0  0  0
   21.7930   36.5740   35.8480 C   0  0  0  0  0  0  0  0  0  0  0  0
   22.5140   37.5650   34.9300 C   0  0  0  0  0  0  0  0  0  0  0  0
   22.2400   39.0600   35.2130 C   0  0  0  0  0  0  0  0  0  0  0  0
   20.8680   39.3870   34.9430 O   0  0  0  0  0  0  0  0  0  0  0  0
   22.4960   39.5140   36.6550 C   0  0  0  0  0  0  0  0  0  0  0  0
   23.0000   39.8800   34.1990 C   0  0  0  0  0  0  0  0  0  0  0  0
   24.3800   39.9870   33.9520 C   0  0  0  0  0  0  0  0  0  0  0  0
   25.5790   39.1210   34.9130 Cl  0  0  0  0  0  0  0  0  0  0  0  0
   24.8520   40.8130   32.9240 C   0  0  0  0  0  0  0  0  0  0  0  0
   23.9360   41.5060   32.1260 C   0  0  0  0  0  0  0  0  0  0  0  0
   22.5650   41.3720   32.3710 C   0  0  0  0  0  0  0  0  0  0  0  0
   21.6850   42.0150   31.6200 O   0  0  0  0  0  0  0  0  0  0  0  0
   22.1270   40.5680   33.4150 C   0  0  0  0  0  0  0  0  0  0  0  0
   19.7100   40.7800   33.2080 O   0  0  0  0  0  0  0  0  0  0  0  0
   22.1590   37.1670   33.5170 C   0  0  0  0  0  0  0  0  0  0  0  0
   22.4850   35.8800   33.2320 C   0  0  0  0  0  0  0  0  0  0  0  0
   23.4020   35.5940   32.3380 O   0  0  0  0  0  0  0  0  0  0  0  0
   21.8490   34.8010   34.0540 C   0  0  0  0  0  0  0  0  0  0  0  0
   22.4850   33.5620   33.7640 O   0  0  0  0  0  0  0  0  0  0  0  0
   20.7430   40.2950   33.8070 C   0  0  0  0  0  0  0  0  0  0  0  0
   16.8819   34.2065   33.1530 H   0  0  0  0  0  0  0  0  0  0  0  0
   18.0996   33.3438   32.1754 H   0  0  0  0  0  0  0  0  0  0  0  0
   19.5332   32.7508   37.6854 H   0  0  0  0  0  0  0  0  0  0  0  0
   20.9494   34.9236   37.2306 H   0  0  0  0  0  0  0  0  0  0  0  0
   23.7656   31.8904   37.1975 H   0  0  0  0  0  0  0  0  0  0  0  0
   22.5662   31.7056   35.8732 H   0  0  0  0  0  0  0  0  0  0  0  0
   23.6961   33.1020   35.8732 H   0  0  0  0  0  0  0  0  0  0  0  0
   22.3640   33.5049   39.3452 H   0  0  0  0  0  0  0  0  0  0  0  0
   23.8183   33.8476   38.3481 H   0  0  0  0  0  0  0  0  0  0  0  0
   22.4380   34.9972   38.3481 H   0  0  0  0  0  0  0  0  0  0  0  0
   23.1874   34.8932   35.6946 H   0  0  0  0  0  0  0  0  0  0  0  0
   20.7086   36.7226   35.7385 H   0  0  0  0  0  0  0  0  0  0  0  0
   22.1379   36.7711   36.8738 H   0  0  0  0  0  0  0  0  0  0  0  0
   23.5957   37.4961   35.1174 H   0  0  0  0  0  0  0  0  0  0  0  0
   22.0782   38.7730   37.3524 H   0  0  0  0  0  0  0  0  0  0  0  0
   23.5791   39.6062   36.8236 H   0  0  0  0  0  0  0  0  0  0  0  0
   22.0144   40.4885   36.8236 H   0  0  0  0  0  0  0  0  0  0  0  0
   25.9326   40.9157   32.7460 H   0  0  0  0  0  0  0  0  0  0  0  0
   24.2915   42.1528   31.3103 H   0  0  0  0  0  0  0  0  0  0  0  0
   20.9631   42.5425   32.0451 H   0  0  0  0  0  0  0  0  0  0  0  0
   21.0750   37.2932   33.3788 H   0  0  0  0  0  0  0  0  0  0  0  0
   22.7365   37.8115   32.8379 H   0  0  0  0  0  0  0  0  0  0  0  0
   22.7194   33.1053   34.6105 H   0  0  0  0  0  0  0  0  0  0  0  0
  1  2  2  0
  1  3  1  0
  1 31  1  0
  3  4  1  0
  3  7  2  0
  4  5  2  0
  4  6  1  0
  7  8  1  0
  7  9  1  0
  9 10  1  0
  9 13  1  0
 10 11  1  0
 10 12  1  0
 13 14  1  0
 13 31  1  0
 14 15  1  0
 15 16  1  0
 15 28  1  0
 16 17  1  0
 16 18  1  0
 16 19  1  0
 17 33  1  0
 19 20  2  0
 19 26  1  0
 20 21  1  0
 20 22  1  0
 22 23  2  0
 23 24  1  0
 24 25  1  0
 24 26  2  0
 26 33  1  0
 27 33  2  0
 28 29  1  0
 29 30  2  0
 29 31  1  0
 31 32  1  0
  6 34  1  0
  6 35  1  0
  8 36  1  0
  9 37  1  0
 11 38  1  0
 11 39  1  0
 11 40  1  0
 12 41  1  0
 12 42  1  0
 12 43  1  0
 13 44  1  0
 14 45  1  0
 14 46  1  0
 15 47  1  0
 18 48  1  0
 18 49  1  0
 18 50  1  0
 22 51  1  0
 23 52  1  0
 25 53  1  0
 28 54  1  0
 28 55  1  0
 32 56  1  0
A    1
C1
A    2
O1
A    3
C2
A    4
C2'
A    5
O2'
A    6
N2'
A    7
C3
A    8
O3
A    9
C4
A   10
N4
A   11
C4'
A   12
C4D
A   13
C4A
A   14
C5
A   15
C5A
A   16
C6
A   17
O6
A   18
C6'
A   19
C6A
A   20
C7
A   21
CL7
A   22
C8
A   23
C9
A   24
C10
A   25
O10
A   26
C6B
A   27
O11
A   28
C5B
A   29
C12
A   30
O12
A   31
C4B
A   32
O4B
A   33
C11
M  END
