2X9F_X9F_A_1889
     RDKit          3D

 43 46  0  0  0  0  0  0  0  0999 V2000
   13.6070    6.2540   11.8440 C   0  0  0  0  0  0  0  0  0  0  0  0
   14.4260    5.2380   12.1810 N   0  0  0  0  0  0  0  0  0  0  0  0
   13.8820    4.0720   12.5410 C   0  0  0  0  0  0  0  0  0  0  0  0
   12.5350    3.8660   12.5780 C   0  0  0  0  0  0  0  0  0  0  0  0
   11.7450    4.9470   12.2220 C   0  0  0  0  0  0  0  0  0  0  0  0
   10.3380    4.8170   12.2310 N   0  0  0  0  0  0  0  0  0  0  0  0
    9.7150    3.6510   12.7000 C   0  0  0  0  0  0  0  0  0  0  0  0
    9.6110    3.3760   14.0520 C   0  0  0  0  0  0  0  0  0  0  0  0
    9.0180    2.2290   14.5480 C   0  0  0  0  0  0  0  0  0  0  0  0
    8.4630    1.2770   13.7220 C   0  0  0  0  0  0  0  0  0  0  0  0
    8.5610    1.5560   12.3730 C   0  0  0  0  0  0  0  0  0  0  0  0
    8.1210    0.8430   11.2910 N   0  0  0  0  0  0  0  0  0  0  0  0
    8.4250    1.4300   10.1160 N   0  0  0  0  0  0  0  0  0  0  0  0
    9.0580    2.5710   10.4350 C   0  0  0  0  0  0  0  0  0  0  0  0
    9.1690    2.6950   11.8470 C   0  0  0  0  0  0  0  0  0  0  0  0
   12.2710    6.1220   11.8590 N   0  0  0  0  0  0  0  0  0  0  0  0
   15.9810   12.2770   12.4030 C   0  0  0  0  0  0  0  0  0  0  0  0
   14.9290   12.5190   11.0440 S   0  0  0  0  0  0  0  0  0  0  0  0
   15.7150   12.5050    9.8180 O   0  0  0  0  0  0  0  0  0  0  0  0
   14.0600   13.6550   11.3180 O   0  0  0  0  0  0  0  0  0  0  0  0
   13.8890   11.0660   10.9830 C   0  0  0  0  0  0  0  0  0  0  0  0
   12.5510   11.2060   10.6850 C   0  0  0  0  0  0  0  0  0  0  0  0
   11.7480   10.0850   10.6420 C   0  0  0  0  0  0  0  0  0  0  0  0
   12.2880    8.8370   10.8940 C   0  0  0  0  0  0  0  0  0  0  0  0
   13.6260    8.7000   11.2010 C   0  0  0  0  0  0  0  0  0  0  0  0
   14.2270    7.4510   11.4600 N   0  0  0  0  0  0  0  0  0  0  0  0
   14.4340    9.8230   11.2370 C   0  0  0  0  0  0  0  0  0  0  0  0
   14.5494    3.2431   12.8193 H   0  0  0  0  0  0  0  0  0  0  0  0
   12.1012    2.8991   12.8729 H   0  0  0  0  0  0  0  0  0  0  0  0
    9.7576    5.5948   11.8859 H   0  0  0  0  0  0  0  0  0  0  0  0
   10.0198    4.1050   14.7672 H   0  0  0  0  0  0  0  0  0  0  0  0
    8.9888    2.0723   15.6364 H   0  0  0  0  0  0  0  0  0  0  0  0
    7.9799    0.3665   14.1063 H   0  0  0  0  0  0  0  0  0  0  0  0
    7.6110   -0.0487   11.3664 H   0  0  0  0  0  0  0  0  0  0  0  0
    9.4364    3.3045    9.7078 H   0  0  0  0  0  0  0  0  0  0  0  0
   15.4118   12.4079   13.3352 H   0  0  0  0  0  0  0  0  0  0  0  0
   16.3976   11.2596   12.3676 H   0  0  0  0  0  0  0  0  0  0  0  0
   16.8003   13.0101   12.3676 H   0  0  0  0  0  0  0  0  0  0  0  0
   12.1276   12.2011   10.4835 H   0  0  0  0  0  0  0  0  0  0  0  0
   10.6779   10.1839   10.4072 H   0  0  0  0  0  0  0  0  0  0  0  0
   11.6449    7.9457   10.8493 H   0  0  0  0  0  0  0  0  0  0  0  0
   15.2508    7.4135   11.3536 H   0  0  0  0  0  0  0  0  0  0  0  0
   15.5053    9.7258   11.4669 H   0  0  0  0  0  0  0  0  0  0  0  0
  1  2  2  0
  1 16  1  0
  1 26  1  0
  2  3  1  0
  3  4  2  0
  4  5  1  0
  5  6  1  0
  5 16  2  0
  6  7  1  0
  7  8  2  0
  7 15  1  0
  8  9  1  0
  9 10  2  0
 10 11  1  0
 11 12  1  0
 11 15  2  0
 12 13  1  0
 13 14  2  0
 14 15  1  0
 17 18  1  0
 18 19  2  0
 18 20  2  0
 18 21  1  0
 21 22  2  0
 21 27  1  0
 22 23  1  0
 23 24  2  0
 24 25  1  0
 25 26  1  0
 25 27  2  0
  3 28  1  0
  4 29  1  0
  6 30  1  0
  8 31  1  0
  9 32  1  0
 10 33  1  0
 12 34  1  0
 14 35  1  0
 17 36  1  0
 17 37  1  0
 17 38  1  0
 22 39  1  0
 23 40  1  0
 24 41  1  0
 26 42  1  0
 27 43  1  0
A    1
C7
A    2
N2
A    3
C8
A    4
C9
A    5
C10
A    6
N3
A    7
C11
A    8
C12
A    9
C13
A   10
C14
A   11
C15
A   12
N4
A   13
N5
A   14
C16
A   15
C17
A   16
N6
A   17
C1
A   18
S1
A   19
O1
A   20
O2
A   21
C2
A   22
C3
A   23
C4
A   24
C5
A   25
C6
A   26
N1
A   27
C18
M  END
