2XA4_AZ5_A_2131
     RDKit          3D

 38 40  0  0  0  0  0  0  0  0999 V2000
    1.8180    1.9460   25.4890 C   0  0  0  0  0  0  0  0  0  0  0  0
    2.3420    5.1100   22.8470 C   0  0  0  0  0  0  0  0  0  0  0  0
    0.8220    6.6900   23.6600 C   0  0  0  0  0  0  0  0  0  0  0  0
   -3.0780    3.5620   27.1820 C   0  0  0  0  0  0  0  0  0  0  0  0
    2.1150    6.3800   23.3160 C   0  0  0  0  0  0  0  0  0  0  0  0
   -1.9200    2.8850   27.7000 C   0  0  0  0  0  0  0  0  0  0  0  0
    3.1070    1.4660   25.3920 C   0  0  0  0  0  0  0  0  0  0  0  0
    1.4420    1.7330   26.8460 C   0  0  0  0  0  0  0  0  0  0  0  0
   -0.8670    2.6630   26.9040 C   0  0  0  0  0  0  0  0  0  0  0  0
    0.1550    4.6260   23.0760 C   0  0  0  0  0  0  0  0  0  0  0  0
   -1.9870    3.6020   25.1610 C   0  0  0  0  0  0  0  0  0  0  0  0
    4.0530    1.3900   24.2700 C   0  0  0  0  0  0  0  0  0  0  0  0
   -1.4570    3.7420   21.5140 C   0  0  0  0  0  0  0  0  0  0  0  0
   -0.9420    3.6290   22.9240 C   0  0  0  0  0  0  0  0  0  0  0  0
    1.3730    4.2070   22.7160 N   0  0  0  0  0  0  0  0  0  0  0  0
   -0.1920    5.8300   23.5450 N   0  0  0  0  0  0  0  0  0  0  0  0
   -3.0410    3.8610   25.8620 N   0  0  0  0  0  0  0  0  0  0  0  0
   -0.8680    3.0000   25.6910 N   0  0  0  0  0  0  0  0  0  0  0  0
    2.4450    1.1580   27.5200 N   0  0  0  0  0  0  0  0  0  0  0  0
    3.4310    1.0080   26.6340 N   0  0  0  0  0  0  0  0  0  0  0  0
    0.2450    2.0460   27.4200 N   0  0  0  0  0  0  0  0  0  0  0  0
   -2.0300    3.9130   23.8290 N   0  0  0  0  0  0  0  0  0  0  0  0
    3.1100    7.2710   23.4400 F   0  0  0  0  0  0  0  0  0  0  0  0
   -1.9790    2.4380   29.3600 Cl  0  0  0  0  0  0  0  0  0  0  0  0
    1.2107    2.3965   24.6901 H   0  0  0  0  0  0  0  0  0  0  0  0
    3.3676    4.8268   22.5678 H   0  0  0  0  0  0  0  0  0  0  0  0
    0.6118    7.6970   24.0496 H   0  0  0  0  0  0  0  0  0  0  0  0
   -3.9382    3.8203   27.8170 H   0  0  0  0  0  0  0  0  0  0  0  0
    5.0783    1.3076   24.6598 H   0  0  0  0  0  0  0  0  0  0  0  0
    3.8225    0.5075   23.6552 H   0  0  0  0  0  0  0  0  0  0  0  0
    3.9663    2.2980   23.6552 H   0  0  0  0  0  0  0  0  0  0  0  0
   -2.5313    3.9777   21.5338 H   0  0  0  0  0  0  0  0  0  0  0  0
   -0.9155    4.5427   20.9889 H   0  0  0  0  0  0  0  0  0  0  0  0
   -1.3005    2.7882   20.9889 H   0  0  0  0  0  0  0  0  0  0  0  0
   -0.5573    2.6227   23.1461 H   0  0  0  0  0  0  0  0  0  0  0  0
    2.4538    0.8880   28.5139 H   0  0  0  0  0  0  0  0  0  0  0  0
    0.1613    1.7727   28.4095 H   0  0  0  0  0  0  0  0  0  0  0  0
   -2.8749    4.3693   23.4563 H   0  0  0  0  0  0  0  0  0  0  0  0
  1  7  1  0
  1  8  2  0
  2  5  2  0
  2 15  1  0
  3  5  1  0
  3 16  2  0
  4  6  2  0
  4 17  1  0
  5 23  1  0
  6  9  1  0
  6 24  1  0
  7 12  1  0
  7 20  2  0
  8 19  1  0
  8 21  1  0
  9 18  2  0
  9 21  1  0
 10 14  1  0
 10 15  2  0
 10 16  1  0
 11 17  2  0
 11 18  1  0
 11 22  1  0
 13 14  1  0
 14 22  1  0
 19 20  1  0
  1 25  1  0
  2 26  1  0
  3 27  1  0
  4 28  1  0
 12 29  1  0
 12 30  1  0
 12 31  1  0
 13 32  1  0
 13 33  1  0
 13 34  1  0
 14 35  1  0
 19 36  1  0
 21 37  1  0
 22 38  1  0
A    1
C3
A    2
C19
A    3
C21
A    4
C10
A    5
C20
A    6
C9
A    7
C2
A    8
C4
A    9
C8
A   10
C17
A   11
C12
A   12
C1
A   13
C16
A   14
C15
A   15
N18
A   16
N22
A   17
N11
A   18
N13
A   19
N5
A   20
N6
A   21
N7
A   22
N14
A   23
F23
A   24
CL2
M  END
