2XB5_I7T_A_222
     RDKit          3D

 52 55  0  0  0  0  0  0  0  0999 V2000
   22.5450   35.6700   32.3740 O   0  0  0  0  0  0  0  0  0  0  0  0
   22.1330   35.9310   33.6310 C   0  0  0  0  0  0  0  0  0  0  0  0
   22.1250   37.1840   34.1050 C   0  0  0  0  0  0  0  0  0  0  0  0
   22.5800   38.3130   33.2950 C   0  0  0  0  0  0  0  0  0  0  0  0
   23.0080   38.1880   32.1060 O   0  0  0  0  0  0  0  0  0  0  0  0
   22.3510   39.6770   33.8750 C   0  0  0  0  0  0  0  0  0  0  0  0
   22.9960   40.7380   33.3160 C   0  0  0  0  0  0  0  0  0  0  0  0
   23.7180   40.5080   32.2600 O   0  0  0  0  0  0  0  0  0  0  0  0
   22.8520   42.0260   33.7930 C   0  0  0  0  0  0  0  0  0  0  0  0
   22.0490   42.2760   34.8740 C   0  0  0  0  0  0  0  0  0  0  0  0
   21.4120   41.2280   35.4860 C   0  0  0  0  0  0  0  0  0  0  0  0
   21.5600   39.9100   34.9960 C   0  0  0  0  0  0  0  0  0  0  0  0
   20.8690   38.7510   35.6360 C   0  0  0  0  0  0  0  0  0  0  0  0
   21.0660   36.3500   36.2620 C   0  0  0  0  0  0  0  0  0  0  0  0
   21.6510   34.7810   34.4970 C   0  0  0  0  0  0  0  0  0  0  0  0
   20.1850   34.5120   34.2420 C   0  0  0  0  0  0  0  0  0  0  0  0
   19.6240   35.0290   33.2780 O   0  0  0  0  0  0  0  0  0  0  0  0
   22.3950   33.5950   34.1730 O   0  0  0  0  0  0  0  0  0  0  0  0
   21.8000   35.0560   35.9660 C   0  0  0  0  0  0  0  0  0  0  0  0
   21.2660   33.9270   36.8610 C   0  0  0  0  0  0  0  0  0  0  0  0
   22.2910   33.0970   37.5760 N   0  0  0  0  0  0  0  0  0  0  0  0
   22.7570   33.9320   38.7130 C   0  0  0  0  0  0  0  0  0  0  0  0
   23.4210   32.6430   36.7490 C   0  0  0  0  0  0  0  0  0  0  0  0
   20.1350   33.1720   36.2330 C   0  0  0  0  0  0  0  0  0  0  0  0
   19.6330   32.2160   36.9560 O   0  0  0  0  0  0  0  0  0  0  0  0
   19.5390   33.4900   35.0770 C   0  0  0  0  0  0  0  0  0  0  0  0
   18.2880   32.8150   34.5690 C   0  0  0  0  0  0  0  0  0  0  0  0
   21.7450   37.5160   35.5350 C   0  0  0  0  0  0  0  0  0  0  0  0
   17.5590   32.0670   35.2430 O   0  0  0  0  0  0  0  0  0  0  0  0
   20.2300   41.7670   37.1440 I   0  0  0  0  0  0  0  0  0  0  0  0
   17.8120   33.1530   33.3700 N   0  0  0  0  0  0  0  0  0  0  0  0
   23.3715   35.1464   32.2226 H   0  0  0  0  0  0  0  0  0  0  0  0
   24.6567   40.2090   32.3577 H   0  0  0  0  0  0  0  0  0  0  0  0
   23.3843   42.8544   33.3028 H   0  0  0  0  0  0  0  0  0  0  0  0
   21.9172   43.3029   35.2456 H   0  0  0  0  0  0  0  0  0  0  0  0
   20.6777   38.9784   36.6951 H   0  0  0  0  0  0  0  0  0  0  0  0
   19.9151   38.5650   35.1208 H   0  0  0  0  0  0  0  0  0  0  0  0
   20.0242   36.2644   35.9196 H   0  0  0  0  0  0  0  0  0  0  0  0
   21.0883   36.5380   37.3456 H   0  0  0  0  0  0  0  0  0  0  0  0
   22.6777   33.1444   35.0079 H   0  0  0  0  0  0  0  0  0  0  0  0
   22.8729   35.1307   36.1971 H   0  0  0  0  0  0  0  0  0  0  0  0
   20.8168   34.4525   37.7167 H   0  0  0  0  0  0  0  0  0  0  0  0
   22.4852   33.4450   39.6611 H   0  0  0  0  0  0  0  0  0  0  0  0
   23.8497   34.0469   38.6599 H   0  0  0  0  0  0  0  0  0  0  0  0
   22.2811   34.9223   38.6599 H   0  0  0  0  0  0  0  0  0  0  0  0
   24.2431   32.3127   37.4010 H   0  0  0  0  0  0  0  0  0  0  0  0
   23.0973   31.8051   36.1140 H   0  0  0  0  0  0  0  0  0  0  0  0
   23.7670   33.4719   36.1140 H   0  0  0  0  0  0  0  0  0  0  0  0
   19.6635   32.2742   37.9438 H   0  0  0  0  0  0  0  0  0  0  0  0
   22.7026   37.7224   36.0353 H   0  0  0  0  0  0  0  0  0  0  0  0
   16.9743   33.7479   33.2975 H   0  0  0  0  0  0  0  0  0  0  0  0
   18.2821   32.8192   32.5165 H   0  0  0  0  0  0  0  0  0  0  0  0
  1  2  1  0
  2  3  2  0
  2 15  1  0
  3  4  1  0
  3 28  1  0
  4  5  2  0
  4  6  1  0
  6  7  2  0
  6 12  1  0
  7  8  1  0
  7  9  1  0
  9 10  2  0
 10 11  1  0
 11 12  2  0
 11 30  1  0
 12 13  1  0
 13 28  1  0
 14 19  1  0
 14 28  1  0
 15 16  1  0
 15 18  1  0
 15 19  1  0
 16 17  2  0
 16 26  1  0
 19 20  1  0
 20 21  1  0
 20 24  1  0
 21 23  1  0
 21 22  1  0
 24 25  1  0
 24 26  2  0
 26 27  1  0
 27 29  2  0
 27 31  1  0
  1 32  1  0
  8 33  1  0
  9 34  1  0
 10 35  1  0
 13 36  1  0
 13 37  1  0
 14 38  1  0
 14 39  1  0
 18 40  1  0
 19 41  1  0
 20 42  1  0
 22 43  1  0
 22 44  1  0
 22 45  1  0
 23 46  1  0
 23 47  1  0
 23 48  1  0
 25 49  1  0
 28 50  1  0
 31 51  1  0
 31 52  1  0
A    1
O12
A    2
C12
A    3
C1B
A    4
C11
A    5
O11
A    6
C1A
A    7
C10
A    8
O10
A    9
C9
A   10
C8
A   11
C7
A   12
C61
A   13
C6
A   14
C5
A   15
C1C
A   16
C1
A   17
O1
A   18
O1C
A   19
C41
A   20
C4
A   21
N4
A   22
C42
A   23
C43
A   24
C3
A   25
O3
A   26
C2
A   27
C21
A   28
C5A
A   29
O21
A   30
I7
A   31
N21
M  END
