2XBA_571_A_1501
     RDKit          3D

 61 65  0  0  0  0  0  0  0  0999 V2000
    5.6430   14.5890    9.0590 N   0  0  0  0  0  0  0  0  0  0  0  0
    2.3810   14.7560   10.3330 N   0  0  0  0  0  0  0  0  0  0  0  0
    2.5990   16.6350    9.2050 C   0  0  0  0  0  0  0  0  0  0  0  0
    1.7790   15.9590    9.9250 N   0  0  0  0  0  0  0  0  0  0  0  0
    2.2720   17.9350    8.6380 N   0  0  0  0  0  0  0  0  0  0  0  0
    2.8910   18.5990    7.6350 C   0  0  0  0  0  0  0  0  0  0  0  0
    2.4380   19.9130    7.2410 C   0  0  0  0  0  0  0  0  0  0  0  0
    3.8400   18.0920    7.0360 O   0  0  0  0  0  0  0  0  0  0  0  0
    3.2920   20.7510    6.4610 C   0  0  0  0  0  0  0  0  0  0  0  0
    2.8580   22.0440    6.0740 C   0  0  0  0  0  0  0  0  0  0  0  0
    0.7120   21.6420    7.2500 C   0  0  0  0  0  0  0  0  0  0  0  0
    1.1510   20.3610    7.6320 C   0  0  0  0  0  0  0  0  0  0  0  0
    3.5600   14.7400    9.8430 C   0  0  0  0  0  0  0  0  0  0  0  0
    3.7930   15.8220    9.1470 C   0  0  0  0  0  0  0  0  0  0  0  0
    5.1280   15.8840    8.5550 C   0  0  0  0  0  0  0  0  0  0  0  0
    4.6820   13.7800    9.8980 C   0  0  0  0  0  0  0  0  0  0  0  0
    1.1200   23.7830    6.0910 N   0  0  0  0  0  0  0  0  0  0  0  0
    1.6000   24.4180    4.8520 C   0  0  0  0  0  0  0  0  0  0  0  0
    1.8540   25.9520    4.9950 C   0  0  0  0  0  0  0  0  0  0  0  0
    0.9430   26.6050    5.9270 N   0  0  0  0  0  0  0  0  0  0  0  0
    0.5440   25.9700    7.1580 C   0  0  0  0  0  0  0  0  0  0  0  0
    0.1620   24.4930    6.9420 C   0  0  0  0  0  0  0  0  0  0  0  0
    0.4420   27.9150    5.6210 C   0  0  0  0  0  0  0  0  0  0  0  0
    1.5650   22.5010    6.4650 C   0  0  0  0  0  0  0  0  0  0  0  0
    6.9540   14.1570    8.8070 C   0  0  0  0  0  0  0  0  0  0  0  0
    7.3130   13.0450    9.2030 O   0  0  0  0  0  0  0  0  0  0  0  0
    8.4280   16.1920    9.0410 C   0  0  0  0  0  0  0  0  0  0  0  0
    8.4860   17.5180    8.5450 C   0  0  0  0  0  0  0  0  0  0  0  0
    8.7610   15.9350   10.4100 C   0  0  0  0  0  0  0  0  0  0  0  0
    8.8760   18.5790    9.4090 C   0  0  0  0  0  0  0  0  0  0  0  0
    9.1440   16.9880   11.2660 C   0  0  0  0  0  0  0  0  0  0  0  0
    7.9790   15.0640    8.1000 C   0  0  0  0  0  0  0  0  0  0  0  0
    9.2020   18.3150   10.7710 C   0  0  0  0  0  0  0  0  0  0  0  0
    9.1010   14.3230    7.7080 O   0  0  0  0  0  0  0  0  0  0  0  0
    1.9516   14.0247   10.9175 H   0  0  0  0  0  0  0  0  0  0  0  0
    1.4612   18.4132    9.0562 H   0  0  0  0  0  0  0  0  0  0  0  0
    4.2876   20.3928    6.1602 H   0  0  0  0  0  0  0  0  0  0  0  0
    3.5154   22.6915    5.4751 H   0  0  0  0  0  0  0  0  0  0  0  0
   -0.2869   21.9905    7.5514 H   0  0  0  0  0  0  0  0  0  0  0  0
    0.4982   19.7097    8.2317 H   0  0  0  0  0  0  0  0  0  0  0  0
    5.6033   16.6537    7.9291 H   0  0  0  0  0  0  0  0  0  0  0  0
    4.4326   12.8117    9.4395 H   0  0  0  0  0  0  0  0  0  0  0  0
    5.0284   13.4781   10.8974 H   0  0  0  0  0  0  0  0  0  0  0  0
    2.5431   23.9352    4.5563 H   0  0  0  0  0  0  0  0  0  0  0  0
    0.8106   24.2903    4.0967 H   0  0  0  0  0  0  0  0  0  0  0  0
    2.8840   26.1033    5.3503 H   0  0  0  0  0  0  0  0  0  0  0  0
    1.6851   26.4028    4.0059 H   0  0  0  0  0  0  0  0  0  0  0  0
    1.3792   26.0211    7.8720 H   0  0  0  0  0  0  0  0  0  0  0  0
   -0.3396   26.4988    7.5449 H   0  0  0  0  0  0  0  0  0  0  0  0
   -0.8295   24.4511    6.4675 H   0  0  0  0  0  0  0  0  0  0  0  0
    0.1615   24.0012    7.9260 H   0  0  0  0  0  0  0  0  0  0  0  0
    0.2351   28.4561    6.5561 H   0  0  0  0  0  0  0  0  0  0  0  0
    1.1924   28.4672    5.0362 H   0  0  0  0  0  0  0  0  0  0  0  0
   -0.4854   27.8255    5.0362 H   0  0  0  0  0  0  0  0  0  0  0  0
    8.2304   17.7264    7.4956 H   0  0  0  0  0  0  0  0  0  0  0  0
    8.7176   14.9064   10.7974 H   0  0  0  0  0  0  0  0  0  0  0  0
    8.9261   19.6081    9.0238 H   0  0  0  0  0  0  0  0  0  0  0  0
    9.3973   16.7801   12.3160 H   0  0  0  0  0  0  0  0  0  0  0  0
    7.4977   15.4952    7.2098 H   0  0  0  0  0  0  0  0  0  0  0  0
    9.4980   19.1392   11.4367 H   0  0  0  0  0  0  0  0  0  0  0  0
    9.5833   14.0044    8.5117 H   0  0  0  0  0  0  0  0  0  0  0  0
  1 15  2  0
  1 16  1  0
  1 25  1  0
  2  4  1  0
  2 13  1  0
  3  4  2  0
  3  5  1  0
  3 14  1  0
  5  6  1  0
  6  7  1  0
  6  8  2  0
  7  9  2  0
  7 12  1  0
  9 10  1  0
 10 24  2  0
 11 12  2  0
 11 24  1  0
 13 14  2  0
 13 16  1  0
 14 15  1  0
 17 18  1  0
 17 22  1  0
 17 24  1  0
 18 19  1  0
 19 20  1  0
 20 21  1  0
 20 23  1  0
 21 22  1  0
 25 26  2  0
 25 32  1  0
 27 29  1  0
 27 28  2  0
 27 32  1  0
 29 31  2  0
 28 30  1  0
 31 33  1  0
 30 33  2  0
 32 34  1  0
  2 35  1  0
  5 36  1  0
  9 37  1  0
 10 38  1  0
 11 39  1  0
 12 40  1  0
 15 41  1  0
 16 42  1  0
 16 43  1  0
 18 44  1  0
 18 45  1  0
 19 46  1  0
 19 47  1  0
 21 48  1  0
 21 49  1  0
 22 50  1  0
 22 51  1  0
 23 52  1  0
 23 53  1  0
 23 54  1  0
 28 55  1  0
 29 56  1  0
 30 57  1  0
 31 58  1  0
 32 59  1  0
 33 60  1  0
 34 61  1  0
M  CHG  1   1   1
A    1
N1
A    2
N2
A    3
C3
A    4
N4
A    5
N5
A    6
C6
A    7
C7
A    8
O8
A    9
C9
A   10
C10
A   11
C11
A   12
C12
A   13
C13
A   14
C14
A   15
C15
A   16
C16
A   17
N17
A   18
C18
A   19
C19
A   20
N20
A   21
C21
A   22
C22
A   23
C23
A   24
C24
A   25
C25
A   26
O26
A   27
C27
A   28
C29
A   29
C28
A   30
C33
A   31
C31
A   32
C20
A   33
C35
A   34
O34
M  END
