2XBX_RR8_A_1245
     RDKit          3D

 58 61  0  0  0  0  0  0  0  0999 V2000
    9.1560   70.2050    2.7760 S   0  0  0  0  0  0  0  0  0  0  0  0
    9.5790   66.3220    2.6170 C   0  0  0  0  0  0  0  0  0  0  0  0
   10.1310   66.6000    4.0140 C   0  0  0  0  0  0  0  0  0  0  0  0
    9.6270   68.5610    2.8280 N   0  0  0  0  0  0  0  0  0  0  0  0
    8.8080   65.0470    2.3840 C   0  0  0  0  0  0  0  0  0  0  0  0
    6.8600   58.8990    3.0480 N   0  0  0  0  0  0  0  0  0  0  0  0
   11.4700   65.9120    4.1040 C   0  0  0  0  0  0  0  0  0  0  0  0
   10.2760   68.1260    4.0480 C   0  0  0  0  0  0  0  0  0  0  0  0
    8.7270   67.5540    2.3150 C   0  0  0  0  0  0  0  0  0  0  0  0
    5.7550   58.5690    2.1910 C   0  0  0  0  0  0  0  0  0  0  0  0
    7.3430   60.2100    3.0040 C   0  0  0  0  0  0  0  0  0  0  0  0
    9.0090   64.0560    3.1350 N   0  0  0  0  0  0  0  0  0  0  0  0
    8.1540   60.5430    1.9470 C   0  0  0  0  0  0  0  0  0  0  0  0
   12.1710   65.9950    5.2990 N   0  0  0  0  0  0  0  0  0  0  0  0
    8.3560   62.7490    3.0380 C   0  0  0  0  0  0  0  0  0  0  0  0
    8.6500   61.8500    1.9940 C   0  0  0  0  0  0  0  0  0  0  0  0
   10.2900   70.9980    3.3660 O   0  0  0  0  0  0  0  0  0  0  0  0
    8.7570   70.5200    1.3810 O   0  0  0  0  0  0  0  0  0  0  0  0
    7.4320   57.9600    3.9870 C   0  0  0  0  0  0  0  0  0  0  0  0
    7.9920   64.9220    1.4220 O   0  0  0  0  0  0  0  0  0  0  0  0
   11.8310   65.1250    3.2380 O   0  0  0  0  0  0  0  0  0  0  0  0
    5.3060   57.2250    2.2240 C   0  0  0  0  0  0  0  0  0  0  0  0
    5.3770   59.4290    1.3520 O   0  0  0  0  0  0  0  0  0  0  0  0
    6.9800   61.0620    4.0340 C   0  0  0  0  0  0  0  0  0  0  0  0
    7.4990   62.3760    4.0660 C   0  0  0  0  0  0  0  0  0  0  0  0
    6.9140   56.6950    4.0070 C   0  0  0  0  0  0  0  0  0  0  0  0
    5.8340   56.3470    3.1190 C   0  0  0  0  0  0  0  0  0  0  0  0
   13.3500   65.2380    5.6910 C   0  0  0  0  0  0  0  0  0  0  0  0
    7.8170   70.2470    3.8950 C   0  0  0  0  0  0  0  0  0  0  0  0
    9.4710   62.2150    0.9720 F   0  0  0  0  0  0  0  0  0  0  0  0
   15.4740   63.7690    6.5750 C   0  0  0  0  0  0  0  0  0  0  0  0
   16.6610   62.6960    7.1880 Cl  0  0  0  0  0  0  0  0  0  0  0  0
   13.7780   65.3470    7.0160 C   0  0  0  0  0  0  0  0  0  0  0  0
   14.0020   64.4110    4.7780 C   0  0  0  0  0  0  0  0  0  0  0  0
   15.1010   63.6660    5.2060 C   0  0  0  0  0  0  0  0  0  0  0  0
   14.8630   64.5980    7.4570 C   0  0  0  0  0  0  0  0  0  0  0  0
   10.4295   66.1503    1.9409 H   0  0  0  0  0  0  0  0  0  0  0  0
    9.5090   66.2424    4.8478 H   0  0  0  0  0  0  0  0  0  0  0  0
    9.7739   68.5480    4.9311 H   0  0  0  0  0  0  0  0  0  0  0  0
   11.3244   68.4528    4.1125 H   0  0  0  0  0  0  0  0  0  0  0  0
    8.5387   67.6750    1.2380 H   0  0  0  0  0  0  0  0  0  0  0  0
    7.7137   67.5532    2.7430 H   0  0  0  0  0  0  0  0  0  0  0  0
    9.6991   64.1766    3.8900 H   0  0  0  0  0  0  0  0  0  0  0  0
    8.3930   59.8423    1.1335 H   0  0  0  0  0  0  0  0  0  0  0  0
   11.8149   66.6717    5.9891 H   0  0  0  0  0  0  0  0  0  0  0  0
    8.2522   58.2522    4.6592 H   0  0  0  0  0  0  0  0  0  0  0  0
    4.5272   56.8904    1.5229 H   0  0  0  0  0  0  0  0  0  0  0  0
    6.2928   60.7183    4.8212 H   0  0  0  0  0  0  0  0  0  0  0  0
    7.2350   63.0757    4.8727 H   0  0  0  0  0  0  0  0  0  0  0  0
    7.3211   55.9440    4.7000 H   0  0  0  0  0  0  0  0  0  0  0  0
    5.4193   55.3293    3.1667 H   0  0  0  0  0  0  0  0  0  0  0  0
    8.2003   70.2350    4.9260 H   0  0  0  0  0  0  0  0  0  0  0  0
    7.2316   71.1639    3.7321 H   0  0  0  0  0  0  0  0  0  0  0  0
    7.1753   69.3685    3.7321 H   0  0  0  0  0  0  0  0  0  0  0  0
   13.2576   66.0242    7.7093 H   0  0  0  0  0  0  0  0  0  0  0  0
   13.6553   64.3468    3.7360 H   0  0  0  0  0  0  0  0  0  0  0  0
   15.6590   63.0222    4.5102 H   0  0  0  0  0  0  0  0  0  0  0  0
   15.2170   64.6760    8.4956 H   0  0  0  0  0  0  0  0  0  0  0  0
  1  4  1  0
  1 17  2  0
  1 18  2  0
  1 29  1  0
  2  3  1  0
  2  5  1  0
  2  9  1  0
  3  7  1  0
  3  8  1  0
  4  8  1  0
  4  9  1  0
  5 12  1  0
  5 20  2  0
  6 10  1  0
  6 11  1  0
  6 19  1  0
  7 14  1  0
  7 21  2  0
 10 22  1  0
 10 23  2  0
 11 13  2  0
 11 24  1  0
 12 15  1  0
 13 16  1  0
 14 28  1  0
 15 16  2  0
 15 25  1  0
 16 30  1  0
 19 26  2  0
 22 27  2  0
 24 25  2  0
 26 27  1  0
 28 34  1  0
 28 33  2  0
 31 32  1  0
 31 36  2  0
 31 35  1  0
 34 35  2  0
 33 36  1  0
  2 37  1  0
  3 38  1  0
  8 39  1  0
  8 40  1  0
  9 41  1  0
  9 42  1  0
 12 43  1  0
 13 44  1  0
 14 45  1  0
 19 46  1  0
 22 47  1  0
 24 48  1  0
 25 49  1  0
 26 50  1  0
 27 51  1  0
 29 52  1  0
 29 53  1  0
 29 54  1  0
 33 55  1  0
 34 56  1  0
 35 57  1  0
 36 58  1  0
A    1
S1
A    2
C2
A    3
C3
A    4
N4
A    5
C5
A    6
N6
A    7
C7
A    8
C8
A    9
C9
A   10
C10
A   11
C11
A   12
N12
A   13
C13
A   14
N14
A   15
C15
A   16
C16
A   17
O17
A   18
O18
A   19
C19
A   20
O20
A   21
O21
A   22
C22
A   23
O23
A   24
C24
A   25
C25
A   26
C26
A   27
C27
A   28
C28
A   29
C29
A   30
F30
A   31
C31
A   32
CL3
A   33
C34
A   34
C33
A   35
C36
A   36
C35
M  END
