2XD9_XD9_A_200
     RDKit          3D

 32 33  0  0  0  0  0  0  0  0999 V2000
  -26.8140   48.3580   18.9240 C   0  0  0  0  0  0  0  0  0  0  0  0
  -25.7720   48.2530   17.7820 C   0  0  0  0  0  0  0  0  0  0  0  0
  -26.0810   48.2810   16.4240 C   0  0  0  0  0  0  0  0  0  0  0  0
  -25.1040   48.2110   15.4260 C   0  0  0  0  0  0  0  0  0  0  0  0
  -25.3320   48.2550   14.0870 C   0  0  0  0  0  0  0  0  0  0  0  0
  -23.4050   47.9920   15.6880 S   0  0  0  0  0  0  0  0  0  0  0  0
  -23.0490   48.0310   14.0180 C   0  0  0  0  0  0  0  0  0  0  0  0
  -24.2250   48.1720   13.2780 C   0  0  0  0  0  0  0  0  0  0  0  0
  -24.1500   48.2120   11.7190 C   0  0  0  0  0  0  0  0  0  0  0  0
  -25.3120   49.1050   11.2690 C   0  0  0  0  0  0  0  0  0  0  0  0
  -25.1320   50.3390   11.0160 O   0  0  0  0  0  0  0  0  0  0  0  0
  -26.4170   48.5140   11.2210 O   0  0  0  0  0  0  0  0  0  0  0  0
  -24.3510   46.9460   11.1440 O   0  0  0  0  0  0  0  0  0  0  0  0
  -22.7790   48.7240   11.2060 C   0  0  0  0  0  0  0  0  0  0  0  0
  -21.6130   47.9280   11.8750 C   0  0  0  0  0  0  0  0  0  0  0  0
  -20.3620   48.5350   11.5310 O   0  0  0  0  0  0  0  0  0  0  0  0
  -21.6530   47.9420   13.4340 C   0  0  0  0  0  0  0  0  0  0  0  0
  -20.8670   46.9130   14.1780 O   0  0  0  0  0  0  0  0  0  0  0  0
  -26.3001   48.3062   19.8952 H   0  0  0  0  0  0  0  0  0  0  0  0
  -27.3508   49.3148   18.8438 H   0  0  0  0  0  0  0  0  0  0  0  0
  -27.5309   47.5275   18.8438 H   0  0  0  0  0  0  0  0  0  0  0  0
  -24.7137   48.1490   18.0635 H   0  0  0  0  0  0  0  0  0  0  0  0
  -27.1364   48.3614   16.1245 H   0  0  0  0  0  0  0  0  0  0  0  0
  -26.3469   48.3517   13.6739 H   0  0  0  0  0  0  0  0  0  0  0  0
  -25.0374   50.9877   11.7578 H   0  0  0  0  0  0  0  0  0  0  0  0
  -24.4581   46.2713   11.8606 H   0  0  0  0  0  0  0  0  0  0  0  0
  -22.7283   48.5920   10.1151 H   0  0  0  0  0  0  0  0  0  0  0  0
  -22.6773   49.7884   11.4641 H   0  0  0  0  0  0  0  0  0  0  0  0
  -21.7241   46.8956   11.5120 H   0  0  0  0  0  0  0  0  0  0  0  0
  -19.8721   48.7727   12.3578 H   0  0  0  0  0  0  0  0  0  0  0  0
  -21.1098   48.8831   13.6050 H   0  0  0  0  0  0  0  0  0  0  0  0
  -20.9756   47.0552   15.1517 H   0  0  0  0  0  0  0  0  0  0  0  0
  1  2  1  0
  2  3  2  0
  3  4  1  0
  4  5  2  0
  4  6  1  0
  5  8  1  0
  6  7  1  0
  7  8  2  0
  7 17  1  0
  8  9  1  0
  9 10  1  0
  9 13  1  0
  9 14  1  0
 10 11  1  0
 10 12  2  0
 14 15  1  0
 15 16  1  0
 15 17  1  0
 17 18  1  0
  1 19  1  0
  1 20  1  0
  1 21  1  0
  2 22  1  0
  3 23  1  0
  5 24  1  0
 11 25  1  0
 13 26  1  0
 14 27  1  0
 14 28  1  0
 15 29  1  0
 16 30  1  0
 17 31  1  0
 18 32  1  0
A    1
CAA
A    2
CAG
A    3
CAH
A    4
CAM
A    5
CAI
A    6
SAK
A    7
CAO
A    8
CAN
A    9
CAR
A   10
CAL
A   11
OAC
A   12
OAB
A   13
OAF
A   14
CAJ
A   15
CAP
A   16
OAD
A   17
CAQ
A   18
OAE
M  END
