2XDA_JPS_A_1151
     RDKit          3D

 38 40  0  0  0  0  0  0  0  0999 V2000
    1.0330   18.5770   26.5630 C   0  0  0  0  0  0  0  0  0  0  0  0
    1.1820   17.4800   25.4960 C   0  0  0  0  0  0  0  0  0  0  0  0
    2.3770   16.5370   25.7270 C   0  0  0  0  0  0  0  0  0  0  0  0
    2.2390   15.3590   24.7630 C   0  0  0  0  0  0  0  0  0  0  0  0
    2.0960   14.0500   25.0410 C   0  0  0  0  0  0  0  0  0  0  0  0
    2.2610   15.5580   23.1290 S   0  0  0  0  0  0  0  0  0  0  0  0
    2.0760   13.9370   22.7770 C   0  0  0  0  0  0  0  0  0  0  0  0
    2.0010   13.2210   23.9740 C   0  0  0  0  0  0  0  0  0  0  0  0
    1.8090   11.6790   23.9580 C   0  0  0  0  0  0  0  0  0  0  0  0
    0.9480   11.2750   25.1550 C   0  0  0  0  0  0  0  0  0  0  0  0
    1.5710   11.1780   26.2130 O   0  0  0  0  0  0  0  0  0  0  0  0
   -0.2760   11.0620   25.0200 O   0  0  0  0  0  0  0  0  0  0  0  0
    3.0760   10.9940   24.1390 O   0  0  0  0  0  0  0  0  0  0  0  0
    1.2290   11.1970   22.6140 C   0  0  0  0  0  0  0  0  0  0  0  0
    2.0610   11.8050   21.4570 C   0  0  0  0  0  0  0  0  0  0  0  0
    1.5430   11.3300   20.2010 O   0  0  0  0  0  0  0  0  0  0  0  0
    1.9390   13.3210   21.4230 C   0  0  0  0  0  0  0  0  0  0  0  0
    2.8510   13.9730   20.5060 O   0  0  0  0  0  0  0  0  0  0  0  0
   -0.3070   19.3200   26.5630 C   0  0  0  0  0  0  0  0  0  0  0  0
    0.9320   20.0080   26.0390 C   0  0  0  0  0  0  0  0  0  0  0  0
    1.6464   18.0620   27.3169 H   0  0  0  0  0  0  0  0  0  0  0  0
    0.2621   16.8769   25.4897 H   0  0  0  0  0  0  0  0  0  0  0  0
    1.3614   17.9909   24.5385 H   0  0  0  0  0  0  0  0  0  0  0  0
    3.3182   17.0716   25.5315 H   0  0  0  0  0  0  0  0  0  0  0  0
    2.3887   16.1811   26.7678 H   0  0  0  0  0  0  0  0  0  0  0  0
    2.0585   13.6752   26.0745 H   0  0  0  0  0  0  0  0  0  0  0  0
   -0.8521   10.9618   25.8189 H   0  0  0  0  0  0  0  0  0  0  0  0
    3.2616   10.8936   25.1062 H   0  0  0  0  0  0  0  0  0  0  0  0
    1.2763   10.0991   22.5647 H   0  0  0  0  0  0  0  0  0  0  0  0
    0.1806   11.5181   22.5258 H   0  0  0  0  0  0  0  0  0  0  0  0
    3.1090   11.5110   21.6160 H   0  0  0  0  0  0  0  0  0  0  0  0
    0.8239   10.6706   20.3688 H   0  0  0  0  0  0  0  0  0  0  0  0
    0.9194   13.4914   21.0470 H   0  0  0  0  0  0  0  0  0  0  0  0
    3.5395   14.4652   21.0195 H   0  0  0  0  0  0  0  0  0  0  0  0
   -1.1031   19.0171   25.8669 H   0  0  0  0  0  0  0  0  0  0  0  0
   -1.0631   19.5575   27.3259 H   0  0  0  0  0  0  0  0  0  0  0  0
    1.3832   20.8338   26.6087 H   0  0  0  0  0  0  0  0  0  0  0  0
    1.2001   20.5085   25.0969 H   0  0  0  0  0  0  0  0  0  0  0  0
  1  2  1  0
  1 19  1  0
  1 20  1  0
  2  3  1  0
  3  4  1  0
  4  5  2  0
  4  6  1  0
  5  8  1  0
  6  7  1  0
  7  8  2  0
  7 17  1  0
  8  9  1  0
  9 10  1  0
  9 13  1  0
  9 14  1  0
 10 11  2  0
 10 12  1  0
 14 15  1  0
 15 16  1  0
 15 17  1  0
 17 18  1  0
 19 20  1  0
  1 21  1  0
  2 22  1  0
  2 23  1  0
  3 24  1  0
  3 25  1  0
  5 26  1  0
 12 27  1  0
 13 28  1  0
 14 29  1  0
 14 30  1  0
 15 31  1  0
 16 32  1  0
 17 33  1  0
 18 34  1  0
 19 35  1  0
 19 36  1  0
 20 37  1  0
 20 38  1  0
A    1
CAA
A    2
CAG
A    3
CAH
A    4
CAM
A    5
CAI
A    6
SAK
A    7
CAO
A    8
CAN
A    9
CAR
A   10
CAL
A   11
OAC
A   12
OAB
A   13
OAF
A   14
CAJ
A   15
CAP
A   16
OAD
A   17
CAQ
A   18
OAE
A   19
CA0
A   20
CA1
M  END
