2XEJ_OKD_A_1768
     RDKit          3D

 82 82  0  0  0  0  0  0  0  0999 V2000
   28.5360   62.2460   40.7690 C   0  0  0  0  0  0  0  0  0  0  0  0
   29.0310   61.8880   39.4610 O   0  0  0  0  0  0  0  0  0  0  0  0
   28.5600   60.5670   39.0970 C   0  0  0  0  0  0  0  0  0  0  0  0
   29.7120   59.7380   38.5070 C   0  0  0  0  0  0  0  0  0  0  0  0
   29.3250   58.3530   38.3020 O   0  0  0  0  0  0  0  0  0  0  0  0
   29.9960   57.4640   39.2290 C   0  0  0  0  0  0  0  0  0  0  0  0
   29.1110   57.0170   40.4130 C   0  0  0  0  0  0  0  0  0  0  0  0
   27.6640   57.0300   40.1680 O   0  0  0  0  0  0  0  0  0  0  0  0
   27.1750   55.6770   40.0090 C   0  0  0  0  0  0  0  0  0  0  0  0
   26.5950   55.0780   41.2950 C   0  0  0  0  0  0  0  0  0  0  0  0
   26.5170   53.6570   41.0790 O   0  0  0  0  0  0  0  0  0  0  0  0
   25.2770   53.2050   41.7720 C   0  0  0  0  0  0  0  0  0  0  0  0
   25.6130   51.7300   41.4260 C   0  0  0  0  0  0  0  0  0  0  0  0
   25.2830   51.2830   40.0310 O   0  0  0  0  0  0  0  0  0  0  0  0
   25.9460   49.9750   39.5960 C   0  0  0  0  0  0  0  0  0  0  0  0
   25.5110   48.6570   39.9510 C   0  0  0  0  0  0  0  0  0  0  0  0
   25.0760   48.3000   41.1660 C   0  0  0  0  0  0  0  0  0  0  0  0
   25.4630   47.5540   39.1750 N   0  0  0  0  0  0  0  0  0  0  0  0
   25.0300   46.6100   39.8780 N   0  0  0  0  0  0  0  0  0  0  0  0
   24.7780   47.0030   41.0380 N   0  0  0  0  0  0  0  0  0  0  0  0
   24.2730   46.1940   42.1920 C   0  0  0  0  0  0  0  0  0  0  0  0
   22.8500   45.7190   41.9930 C   0  0  0  0  0  0  0  0  0  0  0  0
   22.2330   45.2740   43.3600 C   0  0  0  0  0  0  0  0  0  0  0  0
   20.7290   45.6430   43.3010 C   0  0  0  0  0  0  0  0  0  0  0  0
   19.8660   44.9500   44.3800 C   0  0  0  0  0  0  0  0  0  0  0  0
   20.1240   45.6530   45.7320 C   0  0  0  0  0  0  0  0  0  0  0  0
   20.7800   44.9820   46.5610 O   0  0  0  0  0  0  0  0  0  0  0  0
   19.5350   46.7260   45.9510 O   0  0  0  0  0  0  0  0  0  0  0  0
   18.5110   45.2280   43.9040 N   0  0  0  0  0  0  0  0  0  0  0  0
   17.8820   44.4800   43.0190 C   0  0  0  0  0  0  0  0  0  0  0  0
   18.3540   43.4410   42.5700 O   0  0  0  0  0  0  0  0  0  0  0  0
   16.6270   44.8180   42.7210 N   0  0  0  0  0  0  0  0  0  0  0  0
   16.0080   44.2380   41.5470 C   0  0  0  0  0  0  0  0  0  0  0  0
   16.9940   44.4600   40.3680 C   0  0  0  0  0  0  0  0  0  0  0  0
   16.8500   43.6860   39.3980 O   0  0  0  0  0  0  0  0  0  0  0  0
   17.8880   45.3620   40.4300 O   0  0  0  0  0  0  0  0  0  0  0  0
   14.6910   44.9800   41.1240 C   0  0  0  0  0  0  0  0  0  0  0  0
   14.8820   46.5380   41.1420 C   0  0  0  0  0  0  0  0  0  0  0  0
   13.7560   47.3390   40.4280 C   0  0  0  0  0  0  0  0  0  0  0  0
   13.7050   48.5650   40.6570 O   0  0  0  0  0  0  0  0  0  0  0  0
   12.9430   46.7190   39.7060 O   0  0  0  0  0  0  0  0  0  0  0  0
   29.1717   61.7863   41.5401 H   0  0  0  0  0  0  0  0  0  0  0  0
   28.5559   63.3400   40.8818 H   0  0  0  0  0  0  0  0  0  0  0  0
   27.5032   61.8845   40.8818 H   0  0  0  0  0  0  0  0  0  0  0  0
   28.1691   60.0609   39.9921 H   0  0  0  0  0  0  0  0  0  0  0  0
   27.7644   60.6640   38.3436 H   0  0  0  0  0  0  0  0  0  0  0  0
   30.0061   60.1731   37.5405 H   0  0  0  0  0  0  0  0  0  0  0  0
   30.5502   59.7588   39.2191 H   0  0  0  0  0  0  0  0  0  0  0  0
   30.3182   56.5677   38.6787 H   0  0  0  0  0  0  0  0  0  0  0  0
   30.8426   58.0231   39.6542 H   0  0  0  0  0  0  0  0  0  0  0  0
   29.3989   55.9897   40.6809 H   0  0  0  0  0  0  0  0  0  0  0  0
   29.2859   57.7527   41.2118 H   0  0  0  0  0  0  0  0  0  0  0  0
   26.3875   55.6801   39.2410 H   0  0  0  0  0  0  0  0  0  0  0  0
   28.0360   55.0548   39.7236 H   0  0  0  0  0  0  0  0  0  0  0  0
   27.2533   55.2980   42.1484 H   0  0  0  0  0  0  0  0  0  0  0  0
   25.6064   55.5027   41.5236 H   0  0  0  0  0  0  0  0  0  0  0  0
   25.2627   53.4201   42.8507 H   0  0  0  0  0  0  0  0  0  0  0  0
   24.3010   53.6308   41.4960 H   0  0  0  0  0  0  0  0  0  0  0  0
   26.6933   51.5879   41.5769 H   0  0  0  0  0  0  0  0  0  0  0  0
   24.9786   51.1214   42.0872 H   0  0  0  0  0  0  0  0  0  0  0  0
   25.9354   49.9969   38.4963 H   0  0  0  0  0  0  0  0  0  0  0  0
   26.8771   50.0311   40.1790 H   0  0  0  0  0  0  0  0  0  0  0  0
   24.9848   48.9294   42.0635 H   0  0  0  0  0  0  0  0  0  0  0  0
   24.9231   45.3156   42.3174 H   0  0  0  0  0  0  0  0  0  0  0  0
   24.2865   46.8400   43.0822 H   0  0  0  0  0  0  0  0  0  0  0  0
   22.2488   46.5386   41.5726 H   0  0  0  0  0  0  0  0  0  0  0  0
   22.8507   44.8619   41.3035 H   0  0  0  0  0  0  0  0  0  0  0  0
   22.3536   44.1892   43.4969 H   0  0  0  0  0  0  0  0  0  0  0  0
   22.7331   45.7711   44.2043 H   0  0  0  0  0  0  0  0  0  0  0  0
   20.6351   46.7314   43.4301 H   0  0  0  0  0  0  0  0  0  0  0  0
   20.3557   45.2969   42.3259 H   0  0  0  0  0  0  0  0  0  0  0  0
   20.0632   43.8777   44.5258 H   0  0  0  0  0  0  0  0  0  0  0  0
   20.6425   45.1226   47.5313 H   0  0  0  0  0  0  0  0  0  0  0  0
   18.0219   46.0526   44.2805 H   0  0  0  0  0  0  0  0  0  0  0  0
   16.1071   45.4797   43.3150 H   0  0  0  0  0  0  0  0  0  0  0  0
   15.7769   43.1865   41.7727 H   0  0  0  0  0  0  0  0  0  0  0  0
   18.2066   45.6835   41.3105 H   0  0  0  0  0  0  0  0  0  0  0  0
   14.4132   44.6650   40.1074 H   0  0  0  0  0  0  0  0  0  0  0  0
   13.9000   44.7193   41.8426 H   0  0  0  0  0  0  0  0  0  0  0  0
   14.9234   46.8660   42.1911 H   0  0  0  0  0  0  0  0  0  0  0  0
   15.8094   46.7438   40.5873 H   0  0  0  0  0  0  0  0  0  0  0  0
   12.2282   46.1739   40.1208 H   0  0  0  0  0  0  0  0  0  0  0  0
  1  2  1  0
  2  3  1  0
  3  4  1  0
  4  5  1  0
  5  6  1  0
  6  7  1  0
  7  8  1  0
  8  9  1  0
  9 10  1  0
 10 11  1  0
 11 12  1  0
 12 13  1  0
 13 14  1  0
 14 15  1  0
 15 16  1  0
 16 17  2  0
 16 18  1  0
 17 20  1  0
 18 19  2  0
 19 20  1  0
 20 21  1  0
 21 22  1  0
 22 23  1  0
 23 24  1  0
 24 25  1  0
 25 26  1  0
 25 29  1  0
 26 27  1  0
 26 28  2  0
 29 30  1  0
 30 31  2  0
 30 32  1  0
 32 33  1  0
 33 34  1  0
 33 37  1  0
 34 35  2  0
 34 36  1  0
 37 38  1  0
 38 39  1  0
 39 40  2  0
 39 41  1  0
  1 42  1  0
  1 43  1  0
  1 44  1  0
  3 45  1  0
  3 46  1  0
  4 47  1  0
  4 48  1  0
  6 49  1  0
  6 50  1  0
  7 51  1  0
  7 52  1  0
  9 53  1  0
  9 54  1  0
 10 55  1  0
 10 56  1  0
 12 57  1  0
 12 58  1  0
 13 59  1  0
 13 60  1  0
 15 61  1  0
 15 62  1  0
 17 63  1  0
 21 64  1  0
 21 65  1  0
 22 66  1  0
 22 67  1  0
 23 68  1  0
 23 69  1  0
 24 70  1  0
 24 71  1  0
 25 72  1  0
 27 73  1  0
 29 74  1  0
 32 75  1  0
 33 76  1  0
 36 77  1  0
 37 78  1  0
 37 79  1  0
 38 80  1  0
 38 81  1  0
 41 82  1  0
A    1
CAA
A    2
OBC
A    3
CAL
A    4
CAM
A    5
OBD
A    6
CAN
A    7
CAO
A    8
OBE
A    9
CAP
A   10
CAQ
A   11
OBF
A   12
CAR
A   13
CAS
A   14
OBG
A   15
CAX
A   16
CBL
A   17
CAI
A   18
NAY
A   19
NAZ
A   20
NBO
A   21
CAW
A   22
CAK
A   23
CAJ
A   24
CB
A   25
CA
A   26
C
A   27
OXT
A   28
O
A   29
N
A   30
CBK
A   31
OAE
A   32
NBB
A   33
CBN
A   34
CBJ
A   35
OAH
A   36
OAD
A   37
CAV
A   38
CAT
A   39
CBH
A   40
OAF
A   41
OAB
M  END
