2J7L_XC2_A_1216
     RDKit          3D

 62 67  0  0  0  0  0  0  0  0999 V2000
   32.3580   28.8890   38.1830 S   0  0  0  0  0  0  0  0  0  0  0  0
   30.8860   28.2540   39.0050 C   0  0  0  0  0  0  0  0  0  0  0  0
   29.7360   28.5990   38.0410 C   0  0  0  0  0  0  0  0  0  0  0  0
   30.2870   28.4150   36.6840 N   0  0  0  0  0  0  0  0  0  0  0  0
   31.6060   28.5350   36.5840 C   0  0  0  0  0  0  0  0  0  0  0  0
   32.2770   28.4190   35.4010 C   0  0  0  0  0  0  0  0  0  0  0  0
   31.4480   28.1020   34.1580 C   0  0  0  0  0  0  0  0  0  0  0  0
   30.0790   27.9720   34.2880 C   0  0  0  0  0  0  0  0  0  0  0  0
   29.4920   28.1440   35.6560 C   0  0  0  0  0  0  0  0  0  0  0  0
   28.2750   28.0260   35.7730 O   0  0  0  0  0  0  0  0  0  0  0  0
   29.1710   27.6600   33.1120 C   0  0  0  0  0  0  0  0  0  0  0  0
   29.3860   26.2740   32.6360 N   0  0  0  0  0  0  0  0  0  0  0  0
   28.9940   26.1810   31.2080 C   0  0  0  0  0  0  0  0  0  0  0  0
   29.2060   24.7200   30.7100 C   0  0  0  0  0  0  0  0  0  0  0  0
   28.4690   23.7920   31.5450 O   0  0  0  0  0  0  0  0  0  0  0  0
   28.8550   23.8610   32.9320 C   0  0  0  0  0  0  0  0  0  0  0  0
   28.5930   25.3210   33.4650 C   0  0  0  0  0  0  0  0  0  0  0  0
   32.1300   27.9560   32.7880 C   0  0  0  0  0  0  0  0  0  0  0  0
   32.6660   26.5150   32.4790 C   0  0  0  0  0  0  0  0  0  0  0  0
   32.6850   25.4950   33.4940 C   0  0  0  0  0  0  0  0  0  0  0  0
   33.1700   24.1970   33.2230 C   0  0  0  0  0  0  0  0  0  0  0  0
   33.6550   23.8760   31.9260 C   0  0  0  0  0  0  0  0  0  0  0  0
   33.6530   24.8560   30.8920 C   0  0  0  0  0  0  0  0  0  0  0  0
   34.1420   24.5250   29.5940 C   0  0  0  0  0  0  0  0  0  0  0  0
   34.1420   25.4990   28.5510 C   0  0  0  0  0  0  0  0  0  0  0  0
   33.6570   26.8110   28.7970 C   0  0  0  0  0  0  0  0  0  0  0  0
   33.1660   27.1580   30.0920 C   0  0  0  0  0  0  0  0  0  0  0  0
   33.1590   26.1880   31.1590 C   0  0  0  0  0  0  0  0  0  0  0  0
   33.7910   28.5440   35.1750 C   0  0  0  0  0  0  0  0  0  0  0  0
   34.2650   30.0150   35.3030 C   0  0  0  0  0  0  0  0  0  0  0  0
   34.8880   28.8620   36.1650 C   0  0  0  0  0  0  0  0  0  0  0  0
   29.3100   30.0750   38.2480 C   0  0  0  0  0  0  0  0  0  0  0  0
   28.7850   30.3840   39.4340 O   0  0  0  0  0  0  0  0  0  0  0  0
   29.4410   30.9180   37.3720 O   0  0  0  0  0  0  0  0  0  0  0  0
   30.9594   27.1662   39.1511 H   0  0  0  0  0  0  0  0  0  0  0  0
   30.7417   28.6884   40.0052 H   0  0  0  0  0  0  0  0  0  0  0  0
   28.8511   27.9673   38.2082 H   0  0  0  0  0  0  0  0  0  0  0  0
   28.1228   27.7755   33.4249 H   0  0  0  0  0  0  0  0  0  0  0  0
   29.4041   28.3551   32.2919 H   0  0  0  0  0  0  0  0  0  0  0  0
   27.9346   26.4563   31.0991 H   0  0  0  0  0  0  0  0  0  0  0  0
   29.6122   26.8673   30.6107 H   0  0  0  0  0  0  0  0  0  0  0  0
   28.8510   24.6352   29.6723 H   0  0  0  0  0  0  0  0  0  0  0  0
   30.2773   24.4758   30.7628 H   0  0  0  0  0  0  0  0  0  0  0  0
   28.2611   23.1428   33.5164 H   0  0  0  0  0  0  0  0  0  0  0  0
   29.9220   23.6139   33.0338 H   0  0  0  0  0  0  0  0  0  0  0  0
   28.9060   25.3942   34.5170 H   0  0  0  0  0  0  0  0  0  0  0  0
   27.5218   25.5617   33.3970 H   0  0  0  0  0  0  0  0  0  0  0  0
   31.4001   28.2252   32.0104 H   0  0  0  0  0  0  0  0  0  0  0  0
   33.0071   28.6197   32.8027 H   0  0  0  0  0  0  0  0  0  0  0  0
   32.3139   25.7316   34.5021 H   0  0  0  0  0  0  0  0  0  0  0  0
   33.1725   23.4342   34.0155 H   0  0  0  0  0  0  0  0  0  0  0  0
   34.0343   22.8644   31.7193 H   0  0  0  0  0  0  0  0  0  0  0  0
   34.5218   23.5119   29.3953 H   0  0  0  0  0  0  0  0  0  0  0  0
   34.5191   25.2326   27.5526 H   0  0  0  0  0  0  0  0  0  0  0  0
   33.6596   27.5591   27.9906 H   0  0  0  0  0  0  0  0  0  0  0  0
   32.7895   28.1748   30.2775 H   0  0  0  0  0  0  0  0  0  0  0  0
   33.7550   27.6943   34.4774 H   0  0  0  0  0  0  0  0  0  0  0  0
   34.8483   30.4829   34.4963 H   0  0  0  0  0  0  0  0  0  0  0  0
   33.7862   30.9838   35.5081 H   0  0  0  0  0  0  0  0  0  0  0  0
   34.6841   28.8124   37.2448 H   0  0  0  0  0  0  0  0  0  0  0  0
   35.9078   28.4882   36.3387 H   0  0  0  0  0  0  0  0  0  0  0  0
   29.2473   30.1119   40.2660 H   0  0  0  0  0  0  0  0  0  0  0  0
  1  2  1  0
  1  5  1  0
  2  3  1  0
  3  4  1  0
  3 32  1  0
  4  5  1  0
  4  9  1  0
  5  6  2  0
  6  7  1  0
  6 29  1  0
  7  8  2  0
  7 18  1  0
  8  9  1  0
  8 11  1  0
  9 10  2  0
 11 12  1  0
 12 13  1  0
 12 17  1  0
 13 14  1  0
 14 15  1  0
 15 16  1  0
 16 17  1  0
 18 19  1  0
 19 20  2  0
 19 28  1  0
 20 21  1  0
 21 22  2  0
 22 23  1  0
 23 24  1  0
 23 28  2  0
 24 25  2  0
 25 26  1  0
 26 27  2  0
 27 28  1  0
 29 30  1  0
 29 31  1  0
 30 31  1  0
 32 33  1  0
 32 34  2  0
  2 35  1  0
  2 36  1  0
  3 37  1  0
 11 38  1  0
 11 39  1  0
 13 40  1  0
 13 41  1  0
 14 42  1  0
 14 43  1  0
 16 44  1  0
 16 45  1  0
 17 46  1  0
 17 47  1  0
 18 48  1  0
 18 49  1  0
 20 50  1  0
 21 51  1  0
 22 52  1  0
 24 53  1  0
 25 54  1  0
 26 55  1  0
 27 56  1  0
 29 57  1  0
 30 58  1  0
 30 59  1  0
 31 60  1  0
 31 61  1  0
 33 62  1  0
A    1
S6
A    2
C5
A    3
C11
A    4
N10
A    5
C6
A    6
C7
A    7
C8
A    8
C9
A    9
C10
A   10
O25
A   11
C26
A   12
N5
A   13
C1
A   14
C2
A   15
O3
A   16
C34
A   17
C4
A   18
C24
A   19
C15
A   20
C20
A   21
C19
A   22
C18
A   23
C17
A   24
C21
A   25
C27
A   26
C28
A   27
C29
A   28
C16
A   29
C22
A   30
C31
A   31
C30
A   32
C23
A   33
O33
A   34
O32
M  END
