2XG5_EC2_A_1219
     RDKit          3D

 56 61  0  0  0  0  0  0  0  0999 V2000
  -48.2110   -8.1180   16.2520 O   0  0  0  0  0  0  0  0  0  0  0  0
  -47.8980   -7.4720   15.2200 C   0  0  0  0  0  0  0  0  0  0  0  0
  -46.9220   -6.6710   15.0750 O   0  0  0  0  0  0  0  0  0  0  0  0
  -48.7730   -7.6810   14.0370 C   0  0  0  0  0  0  0  0  0  0  0  0
  -48.1670   -8.7610   13.1140 C   0  0  0  0  0  0  0  0  0  0  0  0
  -49.2340   -9.6000   12.5250 C   0  0  0  0  0  0  0  0  0  0  0  0
  -49.2840  -10.9660   12.7860 C   0  0  0  0  0  0  0  0  0  0  0  0
  -50.3030  -11.7440   12.2340 C   0  0  0  0  0  0  0  0  0  0  0  0
  -51.2590  -11.1500   11.4170 C   0  0  0  0  0  0  0  0  0  0  0  0
  -51.2200   -9.7750   11.1370 C   0  0  0  0  0  0  0  0  0  0  0  0
  -50.2000   -8.9980   11.7030 C   0  0  0  0  0  0  0  0  0  0  0  0
  -47.4540   -7.9020   11.7750 S   0  0  0  0  0  0  0  0  0  0  0  0
  -48.8550   -6.4130   13.2960 N   0  0  0  0  0  0  0  0  0  0  0  0
  -49.5400   -5.2620   13.7610 C   0  0  0  0  0  0  0  0  0  0  0  0
  -50.1050   -5.3160   14.8790 O   0  0  0  0  0  0  0  0  0  0  0  0
  -48.1950   -6.4100   12.0720 C   0  0  0  0  0  0  0  0  0  0  0  0
  -48.2090   -5.1930   11.2190 C   0  0  0  0  0  0  0  0  0  0  0  0
  -47.5180   -5.1350    9.9020 C   0  0  0  0  0  0  0  0  0  0  0  0
  -46.0220   -5.0350   10.1940 C   0  0  0  0  0  0  0  0  0  0  0  0
  -46.7760   -3.8170    9.6830 C   0  0  0  0  0  0  0  0  0  0  0  0
  -48.9480   -4.0190   11.7410 C   0  0  0  0  0  0  0  0  0  0  0  0
  -49.5880   -4.0930   12.9830 C   0  0  0  0  0  0  0  0  0  0  0  0
  -49.0370   -2.7810   10.8680 C   0  0  0  0  0  0  0  0  0  0  0  0
  -50.0380   -3.1730    9.7670 C   0  0  0  0  0  0  0  0  0  0  0  0
  -50.8210   -4.3280    9.9010 C   0  0  0  0  0  0  0  0  0  0  0  0
  -51.7370   -4.7090    8.9160 C   0  0  0  0  0  0  0  0  0  0  0  0
  -51.8800   -3.9320    7.7730 C   0  0  0  0  0  0  0  0  0  0  0  0
  -51.1200   -2.7750    7.6350 C   0  0  0  0  0  0  0  0  0  0  0  0
  -50.2060   -2.4030    8.6160 C   0  0  0  0  0  0  0  0  0  0  0  0
  -51.2740   -1.9930    6.4880 C   0  0  0  0  0  0  0  0  0  0  0  0
  -50.5160   -0.8340    6.3160 C   0  0  0  0  0  0  0  0  0  0  0  0
  -49.6040   -0.4600    7.2980 C   0  0  0  0  0  0  0  0  0  0  0  0
  -49.4560   -1.2360    8.4500 C   0  0  0  0  0  0  0  0  0  0  0  0
  -48.0273   -7.7390   17.1479 H   0  0  0  0  0  0  0  0  0  0  0  0
  -49.7704   -8.0080   14.3661 H   0  0  0  0  0  0  0  0  0  0  0  0
  -47.4625   -9.3859   13.6825 H   0  0  0  0  0  0  0  0  0  0  0  0
  -48.5211  -11.4323   13.4268 H   0  0  0  0  0  0  0  0  0  0  0  0
  -50.3497  -12.8227   12.4444 H   0  0  0  0  0  0  0  0  0  0  0  0
  -52.0589  -11.7679   10.9830 H   0  0  0  0  0  0  0  0  0  0  0  0
  -51.9770   -9.3152   10.4846 H   0  0  0  0  0  0  0  0  0  0  0  0
  -50.1563   -7.9172   11.5033 H   0  0  0  0  0  0  0  0  0  0  0  0
  -48.1927   -5.7344    9.2731 H   0  0  0  0  0  0  0  0  0  0  0  0
  -45.6619   -5.0623   11.2330 H   0  0  0  0  0  0  0  0  0  0  0  0
  -45.1285   -5.5881    9.8690 H   0  0  0  0  0  0  0  0  0  0  0  0
  -46.5985   -3.4493    8.6616 H   0  0  0  0  0  0  0  0  0  0  0  0
  -46.9096   -2.7826   10.0327 H   0  0  0  0  0  0  0  0  0  0  0  0
  -50.1398   -3.2184   13.3579 H   0  0  0  0  0  0  0  0  0  0  0  0
  -49.4077   -1.9212   11.4454 H   0  0  0  0  0  0  0  0  0  0  0  0
  -48.0603   -2.4771   10.4635 H   0  0  0  0  0  0  0  0  0  0  0  0
  -50.7121   -4.9491   10.8023 H   0  0  0  0  0  0  0  0  0  0  0  0
  -52.3413   -5.6190    9.0452 H   0  0  0  0  0  0  0  0  0  0  0  0
  -52.5874   -4.2289    6.9847 H   0  0  0  0  0  0  0  0  0  0  0  0
  -51.9974   -2.2926    5.7154 H   0  0  0  0  0  0  0  0  0  0  0  0
  -50.6386   -0.2208    5.4110 H   0  0  0  0  0  0  0  0  0  0  0  0
  -48.9982    0.4488    7.1669 H   0  0  0  0  0  0  0  0  0  0  0  0
  -48.7453   -0.9267    9.2305 H   0  0  0  0  0  0  0  0  0  0  0  0
  1  2  1  0
  2  3  2  0
  2  4  1  0
  4  5  1  0
  4 13  1  0
  5  6  1  0
  5 12  1  0
  6  7  2  0
  6 11  1  0
  7  8  1  0
  8  9  2  0
  9 10  1  0
 10 11  2  0
 12 16  1  0
 13 14  1  0
 13 16  1  0
 14 15  2  0
 14 22  1  0
 16 17  2  0
 17 18  1  0
 17 21  1  0
 18 19  1  0
 18 20  1  0
 19 20  1  0
 21 22  2  0
 21 23  1  0
 23 24  1  0
 24 25  2  0
 24 29  1  0
 25 26  1  0
 26 27  2  0
 27 28  1  0
 28 29  2  0
 28 30  1  0
 29 33  1  0
 30 31  2  0
 31 32  1  0
 32 33  2  0
  1 34  1  0
  4 35  1  0
  5 36  1  0
  7 37  1  0
  8 38  1  0
  9 39  1  0
 10 40  1  0
 11 41  1  0
 18 42  1  0
 19 43  1  0
 19 44  1  0
 20 45  1  0
 20 46  1  0
 22 47  1  0
 23 48  1  0
 23 49  1  0
 25 50  1  0
 26 51  1  0
 27 52  1  0
 30 53  1  0
 31 54  1  0
 32 55  1  0
 33 56  1  0
A    1
O23
A    2
C21
A    3
O22
A    4
C28
A    5
C29
A    6
C6
A    7
C5
A    8
C4
A    9
C3
A   10
C2
A   11
C1
A   12
S30
A   13
N27
A   14
C26
A   15
O26
A   16
C22
A   17
C23
A   18
C18
A   19
C20
A   20
C19
A   21
C24
A   22
C25
A   23
C17
A   24
C16
A   25
C7
A   26
C8
A   27
C9
A   28
C10
A   29
C15
A   30
C11
A   31
C12
A   32
C13
A   33
C14
M  END
