2XI4_AFT_A_1000
     RDKit          3D

 35 39  0  0  0  0  0  0  0  0999 V2000
   99.5890   52.3550   22.4280 C   0  0  0  0  0  0  0  0  0  0  0  0
  100.0260   55.6970   22.9690 C   0  0  0  0  0  0  0  0  0  0  0  0
   99.8060   52.8060   21.1330 O   0  0  0  0  0  0  0  0  0  0  0  0
   99.6410   54.2390   21.1320 C   0  0  0  0  0  0  0  0  0  0  0  0
  100.8960   54.9280   20.9910 O   0  0  0  0  0  0  0  0  0  0  0  0
  101.0190   55.8590   22.0030 C   0  0  0  0  0  0  0  0  0  0  0  0
  101.9620   56.8640   22.1850 C   0  0  0  0  0  0  0  0  0  0  0  0
  101.9140   57.7080   23.2980 C   0  0  0  0  0  0  0  0  0  0  0  0
  102.8680   58.6730   23.4220 O   0  0  0  0  0  0  0  0  0  0  0  0
  103.5390   58.9970   22.1750 C   0  0  0  0  0  0  0  0  0  0  0  0
  100.9040   57.5350   24.2700 C   0  0  0  0  0  0  0  0  0  0  0  0
   99.9520   56.5230   24.0700 C   0  0  0  0  0  0  0  0  0  0  0  0
   98.9250   56.2680   24.9260 O   0  0  0  0  0  0  0  0  0  0  0  0
   98.7890   57.0590   26.0220 C   0  0  0  0  0  0  0  0  0  0  0  0
   97.8500   56.8270   26.7780 O   0  0  0  0  0  0  0  0  0  0  0  0
   99.6700   58.1120   26.2870 C   0  0  0  0  0  0  0  0  0  0  0  0
  100.7580   58.3390   25.4180 C   0  0  0  0  0  0  0  0  0  0  0  0
  101.5690   59.5730   25.8750 C   0  0  0  0  0  0  0  0  0  0  0  0
  100.8610   60.0360   27.1520 C   0  0  0  0  0  0  0  0  0  0  0  0
   99.1040   54.5780   22.5350 C   0  0  0  0  0  0  0  0  0  0  0  0
   99.6830   59.0510   27.3220 C   0  0  0  0  0  0  0  0  0  0  0  0
   99.2440   53.2890   23.3230 C   0  0  0  0  0  0  0  0  0  0  0  0
   98.8420   59.1000   28.2290 O   0  0  0  0  0  0  0  0  0  0  0  0
   99.6941   51.2949   22.7020 H   0  0  0  0  0  0  0  0  0  0  0  0
   98.9882   54.5402   20.2995 H   0  0  0  0  0  0  0  0  0  0  0  0
  102.7601   56.9974   21.4399 H   0  0  0  0  0  0  0  0  0  0  0  0
  104.5101   59.4659   22.3922 H   0  0  0  0  0  0  0  0  0  0  0  0
  103.6981   58.0764   21.5943 H   0  0  0  0  0  0  0  0  0  0  0  0
  102.9170   59.6940   21.5943 H   0  0  0  0  0  0  0  0  0  0  0  0
  102.6129   59.2976   26.0857 H   0  0  0  0  0  0  0  0  0  0  0  0
  101.6089   60.3592   25.1066 H   0  0  0  0  0  0  0  0  0  0  0  0
  101.5410   59.9811   28.0149 H   0  0  0  0  0  0  0  0  0  0  0  0
  100.5252   61.0815   27.0877 H   0  0  0  0  0  0  0  0  0  0  0  0
   98.0594   54.9066   22.6393 H   0  0  0  0  0  0  0  0  0  0  0  0
   99.0935   53.1508   24.4038 H   0  0  0  0  0  0  0  0  0  0  0  0
  1  3  1  0
  1 22  2  0
  2  6  2  0
  2 12  1  0
  2 20  1  0
  3  4  1  0
  4  5  1  0
  4 20  1  0
  5  6  1  0
  6  7  1  0
  7  8  2  0
  8  9  1  0
  8 11  1  0
  9 10  1  0
 11 12  2  0
 11 17  1  0
 12 13  1  0
 13 14  1  0
 14 15  2  0
 14 16  1  0
 16 17  2  0
 16 21  1  0
 17 18  1  0
 18 19  1  0
 19 21  1  0
 21 23  2  0
 20 22  1  0
  1 24  1  0
  4 25  1  0
  7 26  1  0
 10 27  1  0
 10 28  1  0
 10 29  1  0
 18 30  1  0
 18 31  1  0
 19 32  1  0
 19 33  1  0
 20 34  1  0
 22 35  1  0
A    1
C8A
A    2
C9B
A    3
O7
A    4
C6A
A    5
O6A
A    6
C5A
A    7
C5B
A    8
C4B
A    9
O4
A   10
CM
A   11
C4A
A   12
C10
A   13
O10
A   14
C11
A   15
O11
A   16
C12
A   17
C3A
A   18
C3
A   19
C2A
A   20
C9A
A   21
C1
A   22
C9
A   23
O1
M  END
