2XJ1_XJ1_A_1307
     RDKit          3D

 47 49  0  0  0  0  0  0  0  0999 V2000
  -20.4820  -32.1700   -4.7560 C   0  0  0  0  0  0  0  0  0  0  0  0
  -20.7090  -30.6430   -4.7420 C   0  0  0  0  0  0  0  0  0  0  0  0
  -21.6460  -30.2350   -3.5910 C   0  0  0  0  0  0  0  0  0  0  0  0
  -21.8830  -28.7740   -3.5700 N   0  0  0  0  0  0  0  0  0  0  0  0
  -22.9640  -30.9900   -3.7540 C   0  0  0  0  0  0  0  0  0  0  0  0
  -22.7710  -32.5200   -3.8110 C   0  0  0  0  0  0  0  0  0  0  0  0
  -21.8260  -32.9080   -4.9490 C   0  0  0  0  0  0  0  0  0  0  0  0
  -21.5930  -34.3680   -5.0880 N   0  0  0  0  0  0  0  0  0  0  0  0
  -22.1160  -35.4220   -4.4480 C   0  0  0  0  0  0  0  0  0  0  0  0
  -22.0800  -35.5190   -3.1030 N   0  0  0  0  0  0  0  0  0  0  0  0
  -22.6330  -36.4880   -5.1900 C   0  0  0  0  0  0  0  0  0  0  0  0
  -23.1010  -37.5650   -4.5620 N   0  0  0  0  0  0  0  0  0  0  0  0
  -23.0910  -37.6520   -3.2210 C   0  0  0  0  0  0  0  0  0  0  0  0
  -22.5510  -36.6120   -2.4530 C   0  0  0  0  0  0  0  0  0  0  0  0
  -22.5370  -36.6250   -1.0330 C   0  0  0  0  0  0  0  0  0  0  0  0
  -22.3620  -35.4140   -0.3590 C   0  0  0  0  0  0  0  0  0  0  0  0
  -22.7360  -37.7770   -0.2680 C   0  0  0  0  0  0  0  0  0  0  0  0
  -22.7450  -37.7090    1.1400 C   0  0  0  0  0  0  0  0  0  0  0  0
  -22.5590  -36.4850    1.7820 C   0  0  0  0  0  0  0  0  0  0  0  0
  -22.3470  -35.3270    1.0320 C   0  0  0  0  0  0  0  0  0  0  0  0
  -22.1900  -34.0870    1.6650 C   0  0  0  0  0  0  0  0  0  0  0  0
  -21.4830  -32.9920    1.1620 C   0  0  0  0  0  0  0  0  0  0  0  0
  -21.4240  -31.7880    1.8820 C   0  0  0  0  0  0  0  0  0  0  0  0
  -20.7680  -30.8650    1.3760 O   0  0  0  0  0  0  0  0  0  0  0  0
  -22.0350  -31.6700    2.9760 O   0  0  0  0  0  0  0  0  0  0  0  0
  -19.8035  -32.4288   -5.5822 H   0  0  0  0  0  0  0  0  0  0  0  0
  -20.0394  -32.4757   -3.7965 H   0  0  0  0  0  0  0  0  0  0  0  0
  -19.7409  -30.1366   -4.6144 H   0  0  0  0  0  0  0  0  0  0  0  0
  -21.1751  -30.3493   -5.6941 H   0  0  0  0  0  0  0  0  0  0  0  0
  -21.1735  -30.4948   -2.6322 H   0  0  0  0  0  0  0  0  0  0  0  0
  -21.9358  -28.4487   -2.5941 H   0  0  0  0  0  0  0  0  0  0  0  0
  -21.1089  -28.2937   -4.0506 H   0  0  0  0  0  0  0  0  0  0  0  0
  -23.6154  -30.7490   -2.9010 H   0  0  0  0  0  0  0  0  0  0  0  0
  -23.4109  -30.6758   -4.7087 H   0  0  0  0  0  0  0  0  0  0  0  0
  -22.3467  -32.8654   -2.8567 H   0  0  0  0  0  0  0  0  0  0  0  0
  -23.7487  -32.9915   -3.9894 H   0  0  0  0  0  0  0  0  0  0  0  0
  -22.3189  -32.6042   -5.8843 H   0  0  0  0  0  0  0  0  0  0  0  0
  -20.9015  -34.6160   -5.8099 H   0  0  0  0  0  0  0  0  0  0  0  0
  -22.6532  -36.4374   -6.2886 H   0  0  0  0  0  0  0  0  0  0  0  0
  -23.5075  -38.5413   -2.7254 H   0  0  0  0  0  0  0  0  0  0  0  0
  -22.2311  -34.4944   -0.9483 H   0  0  0  0  0  0  0  0  0  0  0  0
  -22.8869  -38.7449   -0.7684 H   0  0  0  0  0  0  0  0  0  0  0  0
  -22.8989  -38.6225    1.7331 H   0  0  0  0  0  0  0  0  0  0  0  0
  -22.5794  -36.4321    2.8805 H   0  0  0  0  0  0  0  0  0  0  0  0
  -22.6673  -33.9643    2.6484 H   0  0  0  0  0  0  0  0  0  0  0  0
  -20.9681  -33.0738    0.1934 H   0  0  0  0  0  0  0  0  0  0  0  0
  -21.5436  -31.7649    3.8302 H   0  0  0  0  0  0  0  0  0  0  0  0
  1  2  1  0
  1  7  1  0
  2  3  1  0
  3  4  1  0
  3  5  1  0
  5  6  1  0
  6  7  1  0
  7  8  1  0
  8  9  1  0
  9 10  2  0
  9 11  1  0
 10 14  1  0
 11 12  2  0
 12 13  1  0
 13 14  2  0
 14 15  1  0
 15 16  2  0
 15 17  1  0
 16 20  1  0
 17 18  2  0
 18 19  1  0
 19 20  2  0
 20 21  1  0
 21 22  2  0
 22 23  1  0
 23 24  2  0
 23 25  1  0
  1 26  1  0
  1 27  1  0
  2 28  1  0
  2 29  1  0
  3 30  1  0
  4 31  1  0
  4 32  1  0
  5 33  1  0
  5 34  1  0
  6 35  1  0
  6 36  1  0
  7 37  1  0
  8 38  1  0
 11 39  1  0
 13 40  1  0
 16 41  1  0
 17 42  1  0
 18 43  1  0
 19 44  1  0
 21 45  1  0
 22 46  1  0
 25 47  1  0
A    1
C3
A    2
C4
A    3
C5
A    4
N8
A    5
C6
A    6
C7
A    7
C2
A    8
N1
A    9
C9
A   10
N10
A   11
C14
A   12
N13
A   13
C12
A   14
C11
A   15
C15
A   16
C16
A   17
C20
A   18
C19
A   19
C18
A   20
C17
A   21
C21
A   22
C22
A   23
C23
A   24
O25
A   25
O24
M  END
