2XJ7_GC2_A_1000
     RDKit          3D

 34 35  0  0  0  0  0  0  0  0999 V2000
    0.3980  -32.4170   32.3570 O   0  0  0  0  0  0  0  0  0  0  0  0
    1.5920  -32.5180   32.0060 C   0  0  0  0  0  0  0  0  0  0  0  0
    1.9700  -33.2280   30.7040 C   0  0  0  0  0  0  0  0  0  0  0  0
    2.6280  -31.9320   32.7010 N   0  0  0  0  0  0  0  0  0  0  0  0
    2.5620  -31.1990   33.9910 C   0  0  0  0  0  0  0  0  0  0  0  0
    2.2750  -32.2870   35.0610 C   0  0  0  0  0  0  0  0  0  0  0  0
    3.4980  -32.7140   35.6260 O   0  0  0  0  0  0  0  0  0  0  0  0
    1.3750  -31.7170   36.1530 C   0  0  0  0  0  0  0  0  0  0  0  0
    1.1720  -32.6840   37.1610 O   0  0  0  0  0  0  0  0  0  0  0  0
    1.4970  -30.0730   34.0910 C   0  0  0  0  0  0  0  0  0  0  0  0
    0.1340  -30.5980   34.2970 N   0  0  0  0  0  0  0  0  0  0  0  0
   -0.0010  -31.4410   35.5100 C   0  0  0  0  0  0  0  0  0  0  0  0
   -0.9490  -29.5930   34.2840 C   0  0  0  0  0  0  0  0  0  0  0  0
   -1.8890  -29.9530   35.4500 C   0  0  0  0  0  0  0  0  0  0  0  0
   -0.9680  -30.6780   36.4390 C   0  0  0  0  0  0  0  0  0  0  0  0
   -0.2490  -29.7020   37.2140 O   0  0  0  0  0  0  0  0  0  0  0  0
    2.4752  -34.1769   30.9371 H   0  0  0  0  0  0  0  0  0  0  0  0
    1.0605  -33.4308   30.1195 H   0  0  0  0  0  0  0  0  0  0  0  0
    2.6460  -32.5866   30.1195 H   0  0  0  0  0  0  0  0  0  0  0  0
    3.5617  -32.0122   32.2737 H   0  0  0  0  0  0  0  0  0  0  0  0
    3.5115  -30.6597   34.1233 H   0  0  0  0  0  0  0  0  0  0  0  0
    1.7662  -33.1407   34.5895 H   0  0  0  0  0  0  0  0  0  0  0  0
    3.4313  -32.6907   36.6135 H   0  0  0  0  0  0  0  0  0  0  0  0
    1.8322  -30.8134   36.5825 H   0  0  0  0  0  0  0  0  0  0  0  0
    1.2615  -32.2577   38.0500 H   0  0  0  0  0  0  0  0  0  0  0  0
    1.7542  -29.4189   34.9372 H   0  0  0  0  0  0  0  0  0  0  0  0
    1.5020  -29.5241   33.1378 H   0  0  0  0  0  0  0  0  0  0  0  0
   -0.4027  -32.4396   35.2831 H   0  0  0  0  0  0  0  0  0  0  0  0
   -0.5340  -28.5844   34.4271 H   0  0  0  0  0  0  0  0  0  0  0  0
   -1.4851  -29.5962   33.3235 H   0  0  0  0  0  0  0  0  0  0  0  0
   -2.3183  -29.0474   35.9034 H   0  0  0  0  0  0  0  0  0  0  0  0
   -2.7478  -30.5645   35.1359 H   0  0  0  0  0  0  0  0  0  0  0  0
   -1.4941  -31.3347   37.1475 H   0  0  0  0  0  0  0  0  0  0  0  0
   -0.3823  -29.8829   38.1782 H   0  0  0  0  0  0  0  0  0  0  0  0
  1  2  2  0
  2  3  1  0
  2  4  1  0
  4  5  1  0
  5  6  1  0
  5 10  1  0
  6  7  1  0
  6  8  1  0
  8  9  1  0
  8 12  1  0
 10 11  1  0
 11 12  1  0
 11 13  1  0
 12 15  1  0
 13 14  1  0
 14 15  1  0
 15 16  1  0
  3 17  1  0
  3 18  1  0
  3 19  1  0
  4 20  1  0
  5 21  1  0
  6 22  1  0
  7 23  1  0
  8 24  1  0
  9 25  1  0
 10 26  1  0
 10 27  1  0
 12 28  1  0
 13 29  1  0
 13 30  1  0
 14 31  1  0
 14 32  1  0
 15 33  1  0
 16 34  1  0
A    1
O1
A    2
C8
A    3
C10
A    4
N2
A    5
C2
A    6
C3
A    7
O4
A    8
C4
A    9
O2
A   10
C1
A   11
N1
A   12
C5
A   13
C9
A   14
C7
A   15
C6
A   16
O3
M  END
