2XK7_30E_A_1280
     RDKit          3D

 58 60  0  0  0  0  0  0  0  0999 V2000
  -26.5980   22.7870  -14.3120 C   0  0  0  0  0  0  0  0  0  0  0  0
  -25.7130   21.7020  -13.6960 C   0  0  0  0  0  0  0  0  0  0  0  0
  -24.7020   21.0100  -14.6250 C   0  0  0  0  0  0  0  0  0  0  0  0
  -25.0880   20.7770  -16.0920 C   0  0  0  0  0  0  0  0  0  0  0  0
  -24.8130   22.0050  -16.8080 N   0  0  0  0  0  0  0  0  0  0  0  0
  -25.2160   22.2750  -18.2250 C   0  0  0  0  0  0  0  0  0  0  0  0
  -25.8490   21.2130  -18.9070 N   0  0  0  0  0  0  0  0  0  0  0  0
  -26.3000   21.3680  -20.2200 C   0  0  0  0  0  0  0  0  0  0  0  0
  -26.8710   20.2430  -20.8510 C   0  0  0  0  0  0  0  0  0  0  0  0
  -26.7600   18.9610  -20.1670 C   0  0  0  0  0  0  0  0  0  0  0  0
  -27.3060   17.7420  -20.8060 C   0  0  0  0  0  0  0  0  0  0  0  0
  -27.2070   16.4790  -20.1860 O   0  0  0  0  0  0  0  0  0  0  0  0
  -26.6950   16.3540  -18.8890 C   0  0  0  0  0  0  0  0  0  0  0  0
  -27.9290   17.8360  -22.1180 C   0  0  0  0  0  0  0  0  0  0  0  0
  -28.4060   16.6550  -22.7090 O   0  0  0  0  0  0  0  0  0  0  0  0
  -27.4550   15.7110  -23.1600 C   0  0  0  0  0  0  0  0  0  0  0  0
  -28.0040   19.1100  -22.8100 C   0  0  0  0  0  0  0  0  0  0  0  0
  -28.5570   19.1690  -24.0980 O   0  0  0  0  0  0  0  0  0  0  0  0
  -28.8360   20.4020  -24.6760 C   0  0  0  0  0  0  0  0  0  0  0  0
  -27.4660   20.3430  -22.1720 C   0  0  0  0  0  0  0  0  0  0  0  0
  -26.1090   22.6100  -20.9070 C   0  0  0  0  0  0  0  0  0  0  0  0
  -25.4710   23.6910  -20.2100 N   0  0  0  0  0  0  0  0  0  0  0  0
  -25.0340   23.5510  -18.8980 C   0  0  0  0  0  0  0  0  0  0  0  0
  -24.4400   24.6920  -18.2330 N   0  0  0  0  0  0  0  0  0  0  0  0
  -23.7740   22.9420  -16.3590 C   0  0  0  0  0  0  0  0  0  0  0  0
  -22.6530   22.2170  -15.5810 C   0  0  0  0  0  0  0  0  0  0  0  0
  -23.2000   21.3250  -14.4400 C   0  0  0  0  0  0  0  0  0  0  0  0
  -22.7540   21.5980  -13.0110 C   0  0  0  0  0  0  0  0  0  0  0  0
  -23.1770   20.9200  -12.1300 O   0  0  0  0  0  0  0  0  0  0  0  0
  -21.8810   22.6490  -12.7270 O   0  0  0  0  0  0  0  0  0  0  0  0
  -27.0741   23.3707  -13.5104 H   0  0  0  0  0  0  0  0  0  0  0  0
  -25.9822   23.4530  -14.9343 H   0  0  0  0  0  0  0  0  0  0  0  0
  -27.3741   22.3176  -14.9343 H   0  0  0  0  0  0  0  0  0  0  0  0
  -25.1456   22.1642  -12.8748 H   0  0  0  0  0  0  0  0  0  0  0  0
  -26.4092   20.9067  -13.3913 H   0  0  0  0  0  0  0  0  0  0  0  0
  -24.8258   20.0178  -14.1665 H   0  0  0  0  0  0  0  0  0  0  0  0
  -24.4913   19.9541  -16.5124 H   0  0  0  0  0  0  0  0  0  0  0  0
  -26.1504   20.5051  -16.1775 H   0  0  0  0  0  0  0  0  0  0  0  0
  -26.2737   18.8993  -19.1823 H   0  0  0  0  0  0  0  0  0  0  0  0
  -27.4943   16.5491  -18.1589 H   0  0  0  0  0  0  0  0  0  0  0  0
  -26.3072   15.3348  -18.7445 H   0  0  0  0  0  0  0  0  0  0  0  0
  -25.8812   17.0798  -18.7445 H   0  0  0  0  0  0  0  0  0  0  0  0
  -26.9736   15.2331  -22.2940 H   0  0  0  0  0  0  0  0  0  0  0  0
  -27.9585   14.9453  -23.7684 H   0  0  0  0  0  0  0  0  0  0  0  0
  -26.6930   16.2201  -23.7684 H   0  0  0  0  0  0  0  0  0  0  0  0
  -29.0048   21.1478  -23.8853 H   0  0  0  0  0  0  0  0  0  0  0  0
  -27.9860   20.7152  -25.3001 H   0  0  0  0  0  0  0  0  0  0  0  0
  -29.7380   20.3187  -25.3001 H   0  0  0  0  0  0  0  0  0  0  0  0
  -27.5182   21.3113  -22.6913 H   0  0  0  0  0  0  0  0  0  0  0  0
  -26.4442   22.7332  -21.9474 H   0  0  0  0  0  0  0  0  0  0  0  0
  -24.4179   24.7344  -17.2041 H   0  0  0  0  0  0  0  0  0  0  0  0
  -24.0396   25.4611  -18.7889 H   0  0  0  0  0  0  0  0  0  0  0  0
  -23.3358   23.4373  -17.2380 H   0  0  0  0  0  0  0  0  0  0  0  0
  -24.2404   23.6768  -15.6862 H   0  0  0  0  0  0  0  0  0  0  0  0
  -22.0894   21.5848  -16.2829 H   0  0  0  0  0  0  0  0  0  0  0  0
  -22.0135   22.9867  -15.1243 H   0  0  0  0  0  0  0  0  0  0  0  0
  -22.6460   20.3851  -14.5804 H   0  0  0  0  0  0  0  0  0  0  0  0
  -21.6828   22.8876  -11.7868 H   0  0  0  0  0  0  0  0  0  0  0  0
  1  2  1  0
  2  3  1  0
  3  4  1  0
  3 27  1  0
  4  5  1  0
  5  6  1  0
  5 25  1  0
  6  7  2  0
  6 23  1  0
  7  8  1  0
  8  9  1  0
  8 21  2  0
  9 10  2  0
  9 20  1  0
 10 11  1  0
 11 12  1  0
 11 14  2  0
 12 13  1  0
 14 15  1  0
 14 17  1  0
 15 16  1  0
 17 18  1  0
 17 20  2  0
 18 19  1  0
 21 22  1  0
 22 23  2  0
 23 24  1  0
 25 26  1  0
 26 27  1  0
 27 28  1  0
 28 29  2  0
 28 30  1  0
  1 31  1  0
  1 32  1  0
  1 33  1  0
  2 34  1  0
  2 35  1  0
  3 36  1  0
  4 37  1  0
  4 38  1  0
 10 39  1  0
 13 40  1  0
 13 41  1  0
 13 42  1  0
 16 43  1  0
 16 44  1  0
 16 45  1  0
 19 46  1  0
 19 47  1  0
 19 48  1  0
 20 49  1  0
 21 50  1  0
 24 51  1  0
 24 52  1  0
 25 53  1  0
 25 54  1  0
 26 55  1  0
 26 56  1  0
 27 57  1  0
 30 58  1  0
A    1
C01
A    2
C02
A    3
C03
A    4
C04
A    5
N05
A    6
C06
A    7
N07
A    8
C08
A    9
C09
A   10
C10
A   11
C11
A   12
O12
A   13
C13
A   14
C14
A   15
O15
A   16
C16
A   17
C17
A   18
O18
A   19
C19
A   20
C20
A   21
C21
A   22
N22
A   23
C23
A   24
N24
A   25
C25
A   26
C26
A   27
C27
A   28
C28
A   29
O29
A   30
O30
M  END
