2XKC_4VQ_A_1280
     RDKit          3D

 50 52  0  0  0  0  0  0  0  0999 V2000
   21.1770   -7.2750   14.5330 C   0  0  0  0  0  0  0  0  0  0  0  0
   22.6500   -7.4280   14.9040 C   0  0  0  0  0  0  0  0  0  0  0  0
   23.0610   -7.2020   16.2360 C   0  0  0  0  0  0  0  0  0  0  0  0
   23.6170   -7.7920   13.9040 C   0  0  0  0  0  0  0  0  0  0  0  0
   23.1850   -8.0450   12.4600 C   0  0  0  0  0  0  0  0  0  0  0  0
   23.5810   -9.0060   11.8910 O   0  0  0  0  0  0  0  0  0  0  0  0
   22.4820   -7.0630   11.7500 O   0  0  0  0  0  0  0  0  0  0  0  0
   24.9780   -7.9240   14.2600 C   0  0  0  0  0  0  0  0  0  0  0  0
   25.3760   -7.7070   15.5480 C   0  0  0  0  0  0  0  0  0  0  0  0
   24.3770   -7.3310   16.5780 C   0  0  0  0  0  0  0  0  0  0  0  0
   24.8230   -7.0650   18.0140 C   0  0  0  0  0  0  0  0  0  0  0  0
   25.3660   -8.0190   18.7260 N   0  0  0  0  0  0  0  0  0  0  0  0
   24.6270   -5.7210   18.6060 C   0  0  0  0  0  0  0  0  0  0  0  0
   24.0060   -4.6720   17.8220 N   0  0  0  0  0  0  0  0  0  0  0  0
   25.0010   -5.4840   19.8370 N   0  0  0  0  0  0  0  0  0  0  0  0
   25.5680   -6.4710   20.5740 C   0  0  0  0  0  0  0  0  0  0  0  0
   25.7530   -7.7720   20.0020 C   0  0  0  0  0  0  0  0  0  0  0  0
   26.4030   -8.8830   20.8220 C   0  0  0  0  0  0  0  0  0  0  0  0
   26.9680   -8.5950   22.0290 C   0  0  0  0  0  0  0  0  0  0  0  0
   26.4600  -10.2640   20.2820 C   0  0  0  0  0  0  0  0  0  0  0  0
   27.0560  -11.2570   21.0060 C   0  0  0  0  0  0  0  0  0  0  0  0
   27.0880  -12.5690   20.5150 O   0  0  0  0  0  0  0  0  0  0  0  0
   26.6840  -12.8380   19.2010 C   0  0  0  0  0  0  0  0  0  0  0  0
   27.6250  -10.9610   22.2640 C   0  0  0  0  0  0  0  0  0  0  0  0
   28.2400  -11.9790   22.9990 O   0  0  0  0  0  0  0  0  0  0  0  0
   29.5720  -12.3100   22.7280 C   0  0  0  0  0  0  0  0  0  0  0  0
   27.5810   -9.6210   22.7780 C   0  0  0  0  0  0  0  0  0  0  0  0
   28.1370   -9.3240   24.0240 O   0  0  0  0  0  0  0  0  0  0  0  0
   27.5360   -9.8340   25.1790 C   0  0  0  0  0  0  0  0  0  0  0  0
   20.5726   -7.2122   15.4499 H   0  0  0  0  0  0  0  0  0  0  0  0
   21.0414   -6.3579   13.9409 H   0  0  0  0  0  0  0  0  0  0  0  0
   20.8558   -8.1446   13.9409 H   0  0  0  0  0  0  0  0  0  0  0  0
   22.3202   -6.9216   16.9993 H   0  0  0  0  0  0  0  0  0  0  0  0
   21.9807   -6.3627   12.2382 H   0  0  0  0  0  0  0  0  0  0  0  0
   25.7196   -8.2026   13.4968 H   0  0  0  0  0  0  0  0  0  0  0  0
   26.4364   -7.8109   15.8215 H   0  0  0  0  0  0  0  0  0  0  0  0
   23.5395   -3.8841   18.2937 H   0  0  0  0  0  0  0  0  0  0  0  0
   24.0311   -4.7145   16.7932 H   0  0  0  0  0  0  0  0  0  0  0  0
   25.8853   -6.2735   21.6086 H   0  0  0  0  0  0  0  0  0  0  0  0
   26.9458   -7.5661   22.4173 H   0  0  0  0  0  0  0  0  0  0  0  0
   26.0220  -10.4881   19.2981 H   0  0  0  0  0  0  0  0  0  0  0  0
   25.7685  -13.4476   19.2164 H   0  0  0  0  0  0  0  0  0  0  0  0
   26.4854  -11.8912   18.6774 H   0  0  0  0  0  0  0  0  0  0  0  0
   27.4809  -13.3864   18.6774 H   0  0  0  0  0  0  0  0  0  0  0  0
   30.1161  -12.4452   23.6744 H   0  0  0  0  0  0  0  0  0  0  0  0
   29.6070  -13.2442   22.1482 H   0  0  0  0  0  0  0  0  0  0  0  0
   30.0402  -11.5009   22.1482 H   0  0  0  0  0  0  0  0  0  0  0  0
   28.0316   -9.4135   26.0665 H   0  0  0  0  0  0  0  0  0  0  0  0
   26.4707   -9.5600   25.1896 H   0  0  0  0  0  0  0  0  0  0  0  0
   27.6330  -10.9297   25.1896 H   0  0  0  0  0  0  0  0  0  0  0  0
  1  2  1  0
  2  3  2  0
  2  4  1  0
  3 10  1  0
  4  5  1  0
  4  8  2  0
  5  6  2  0
  5  7  1  0
  8  9  1  0
  9 10  2  0
 10 11  1  0
 11 12  2  0
 11 13  1  0
 12 17  1  0
 13 14  1  0
 13 15  2  0
 15 16  1  0
 16 17  2  0
 17 18  1  0
 18 19  2  0
 18 20  1  0
 19 27  1  0
 20 21  2  0
 21 22  1  0
 21 24  1  0
 22 23  1  0
 24 25  1  0
 24 27  2  0
 25 26  1  0
 27 28  1  0
 28 29  1  0
  1 30  1  0
  1 31  1  0
  1 32  1  0
  3 33  1  0
  7 34  1  0
  8 35  1  0
  9 36  1  0
 14 37  1  0
 14 38  1  0
 16 39  1  0
 19 40  1  0
 20 41  1  0
 23 42  1  0
 23 43  1  0
 23 44  1  0
 26 45  1  0
 26 46  1  0
 26 47  1  0
 29 48  1  0
 29 49  1  0
 29 50  1  0
A    1
CAD
A    2
CAT
A    3
CAK
A    4
CBA
A    5
CAS
A    6
OAG
A    7
OAF
A    8
CAI
A    9
CAH
A   10
CAV
A   11
CBB
A   12
NAO
A   13
CAU
A   14
NAE
A   15
NAN
A   16
CAJ
A   17
CAX
A   18
CAW
A   19
CAM
A   20
CAL
A   21
CAY
A   22
OAP
A   23
CAA
A   24
CBC
A   25
OAR
A   26
CAC
A   27
CAZ
A   28
OAQ
A   29
CAB
M  END
