2XM9_LWH_A_1513
     RDKit          3D

 48 52  0  0  0  0  0  0  0  0999 V2000
   45.5790  -19.1560   -7.4150 C   0  0  0  0  0  0  0  0  0  0  0  0
   45.7400  -19.8170   -6.2050 C   0  0  0  0  0  0  0  0  0  0  0  0
   46.5890  -19.3150   -5.2410 C   0  0  0  0  0  0  0  0  0  0  0  0
   47.2880  -18.1440   -5.4820 C   0  0  0  0  0  0  0  0  0  0  0  0
   47.1330  -17.4730   -6.6930 C   0  0  0  0  0  0  0  0  0  0  0  0
   46.2800  -17.9740   -7.6610 C   0  0  0  0  0  0  0  0  0  0  0  0
   46.1220  -17.3060   -8.8620 C   0  0  0  0  0  0  0  0  0  0  0  0
   47.6680  -15.6860   -8.1130 C   0  0  0  0  0  0  0  0  0  0  0  0
   46.8120  -16.1650   -9.0710 N   0  0  0  0  0  0  0  0  0  0  0  0
   47.8230  -16.3410   -6.9150 N   0  0  0  0  0  0  0  0  0  0  0  0
   44.9090  -16.9580  -11.0530 C   0  0  0  0  0  0  0  0  0  0  0  0
   44.4110  -15.5600  -10.8190 C   0  0  0  0  0  0  0  0  0  0  0  0
   43.7030  -16.3610  -12.8830 C   0  0  0  0  0  0  0  0  0  0  0  0
   43.9800  -17.5610  -12.0530 C   0  0  0  0  0  0  0  0  0  0  0  0
   45.2450  -17.7670   -9.9000 N   0  0  0  0  0  0  0  0  0  0  0  0
   43.4160  -15.3370  -11.8890 N   0  0  0  0  0  0  0  0  0  0  0  0
   48.3320  -14.3870   -8.4160 C   0  0  0  0  0  0  0  0  0  0  0  0
   49.0600  -13.7380   -7.4270 C   0  0  0  0  0  0  0  0  0  0  0  0
   49.5950  -12.4880   -7.7040 C   0  0  0  0  0  0  0  0  0  0  0  0
   49.3280  -11.8640   -8.9260 C   0  0  0  0  0  0  0  0  0  0  0  0
   48.5280  -12.4740   -9.8870 C   0  0  0  0  0  0  0  0  0  0  0  0
   47.9970  -13.7250   -9.6040 C   0  0  0  0  0  0  0  0  0  0  0  0
   48.2490  -11.7920  -11.1970 C   0  0  0  0  0  0  0  0  0  0  0  0
   48.4050  -10.4200  -11.4750 C   0  0  0  0  0  0  0  0  0  0  0  0
   48.0600  -10.1980  -12.7880 C   0  0  0  0  0  0  0  0  0  0  0  0
   47.8180  -12.3810  -12.3630 N   0  0  0  0  0  0  0  0  0  0  0  0
   47.6980  -11.4360  -13.3340 N   0  0  0  0  0  0  0  0  0  0  0  0
   49.3090  -14.3780   -6.2320 O   0  0  0  0  0  0  0  0  0  0  0  0
   44.9001  -19.5629   -8.1789 H   0  0  0  0  0  0  0  0  0  0  0  0
   45.1863  -20.7480   -6.0136 H   0  0  0  0  0  0  0  0  0  0  0  0
   46.7106  -19.8431   -4.2837 H   0  0  0  0  0  0  0  0  0  0  0  0
   47.9672  -17.7428   -4.7154 H   0  0  0  0  0  0  0  0  0  0  0  0
   45.9328  -16.9122  -11.4527 H   0  0  0  0  0  0  0  0  0  0  0  0
   43.9415  -15.4754   -9.8278 H   0  0  0  0  0  0  0  0  0  0  0  0
   45.2226  -14.8179  -10.8416 H   0  0  0  0  0  0  0  0  0  0  0  0
   44.5791  -16.0888  -13.4899 H   0  0  0  0  0  0  0  0  0  0  0  0
   42.8840  -16.5099  -13.6021 H   0  0  0  0  0  0  0  0  0  0  0  0
   44.4645  -18.3594  -12.6343 H   0  0  0  0  0  0  0  0  0  0  0  0
   43.0920  -18.0537  -11.6303 H   0  0  0  0  0  0  0  0  0  0  0  0
   44.8386  -18.7102   -9.8219 H   0  0  0  0  0  0  0  0  0  0  0  0
   42.4593  -15.4447  -11.5230 H   0  0  0  0  0  0  0  0  0  0  0  0
   50.2311  -11.9866   -6.9597 H   0  0  0  0  0  0  0  0  0  0  0  0
   49.7582  -10.8727   -9.1315 H   0  0  0  0  0  0  0  0  0  0  0  0
   47.3081  -14.1999  -10.3180 H   0  0  0  0  0  0  0  0  0  0  0  0
   48.7455   -9.6547  -10.7620 H   0  0  0  0  0  0  0  0  0  0  0  0
   48.0671   -9.2302  -13.3108 H   0  0  0  0  0  0  0  0  0  0  0  0
   47.6169  -13.3841  -12.4825 H   0  0  0  0  0  0  0  0  0  0  0  0
   49.1289  -13.9151   -5.3756 H   0  0  0  0  0  0  0  0  0  0  0  0
  1  2  2  0
  1  6  1  0
  2  3  1  0
  3  4  2  0
  4  5  1  0
  5  6  2  0
  5 10  1  0
  6  7  1  0
  7  9  2  0
  7 15  1  0
  8  9  1  0
  8 10  2  0
  8 17  1  0
 11 12  1  0
 11 14  1  0
 11 15  1  0
 12 16  1  0
 13 14  1  0
 13 16  1  0
 17 18  2  0
 17 22  1  0
 18 19  1  0
 18 28  1  0
 19 20  2  0
 20 21  1  0
 21 22  2  0
 21 23  1  0
 23 24  2  0
 23 26  1  0
 24 25  1  0
 25 27  2  0
 26 27  1  0
  1 29  1  0
  2 30  1  0
  3 31  1  0
  4 32  1  0
 11 33  1  0
 12 34  1  0
 12 35  1  0
 13 36  1  0
 13 37  1  0
 14 38  1  0
 14 39  1  0
 15 40  1  0
 16 41  1  0
 19 42  1  0
 20 43  1  0
 22 44  1  0
 24 45  1  0
 25 46  1  0
 26 47  1  0
 28 48  1  0
A    1
C01
A    2
C02
A    3
C03
A    4
C04
A    5
C05
A    6
C06
A    7
C07
A    8
C08
A    9
N09
A   10
N10
A   11
C11
A   12
C12
A   13
C13
A   14
C14
A   15
N15
A   16
N16
A   17
C17
A   18
C18
A   19
C19
A   20
C20
A   21
C21
A   22
C22
A   23
C23
A   24
C24
A   25
C25
A   26
N26
A   27
N27
A   28
O28
M  END
