2XNO_ED8_A_1280
     RDKit          3D

 62 66  0  0  0  0  0  0  0  0999 V2000
  -29.6660   14.8770   23.1530 C   0  0  0  0  0  0  0  0  0  0  0  0
  -28.9900   14.3290   21.9920 N   0  0  0  0  0  0  0  0  0  0  0  0
  -27.5760   14.0280   22.2780 C   0  0  0  0  0  0  0  0  0  0  0  0
  -26.8840   13.0770   21.2670 C   0  0  0  0  0  0  0  0  0  0  0  0
  -27.6720   11.7770   21.0510 C   0  0  0  0  0  0  0  0  0  0  0  0
  -27.4060   10.9970   19.9060 O   0  0  0  0  0  0  0  0  0  0  0  0
  -26.9720    9.6970   20.1970 C   0  0  0  0  0  0  0  0  0  0  0  0
  -27.2840    9.0350   21.3890 C   0  0  0  0  0  0  0  0  0  0  0  0
  -26.8270    7.6450   21.5790 C   0  0  0  0  0  0  0  0  0  0  0  0
  -26.0620    6.9860   20.5440 C   0  0  0  0  0  0  0  0  0  0  0  0
  -25.4980    5.7050   20.4430 N   0  0  0  0  0  0  0  0  0  0  0  0
  -24.8570    5.5870   19.2070 C   0  0  0  0  0  0  0  0  0  0  0  0
  -25.0930    6.7790   18.5140 N   0  0  0  0  0  0  0  0  0  0  0  0
  -24.5780    7.1940   17.3230 C   0  0  0  0  0  0  0  0  0  0  0  0
  -25.3410    8.3300   16.5190 C   0  0  0  0  0  0  0  0  0  0  0  0
  -24.3950    8.6930   15.0690 C   0  0  0  0  0  0  0  0  0  0  0  0
  -24.8150    9.7110   14.1940 O   0  0  0  0  0  0  0  0  0  0  0  0
  -25.9470   10.4640   14.5580 C   0  0  0  0  0  0  0  0  0  0  0  0
  -25.8150   11.5570   15.6160 C   0  0  0  0  0  0  0  0  0  0  0  0
  -24.5300   12.1330   15.8220 C   0  0  0  0  0  0  0  0  0  0  0  0
  -24.3040   13.1660   16.8150 C   0  0  0  0  0  0  0  0  0  0  0  0
  -25.4690   13.6450   17.6440 C   0  0  0  0  0  0  0  0  0  0  0  0
  -26.7490   13.0900   17.4520 C   0  0  0  0  0  0  0  0  0  0  0  0
  -26.9840   12.0500   16.4500 C   0  0  0  0  0  0  0  0  0  0  0  0
  -28.3870   11.5310   16.3280 C   0  0  0  0  0  0  0  0  0  0  0  0
  -28.4370   10.2970   16.8380 F   0  0  0  0  0  0  0  0  0  0  0  0
  -29.2270   12.3020   17.0290 F   0  0  0  0  0  0  0  0  0  0  0  0
  -28.8110   11.5190   15.0640 F   0  0  0  0  0  0  0  0  0  0  0  0
  -23.1400    7.7910   15.0940 C   0  0  0  0  0  0  0  0  0  0  0  0
  -22.0710    7.6820   14.0350 C   0  0  0  0  0  0  0  0  0  0  0  0
  -22.2580    8.3390   12.7760 N   0  0  0  0  0  0  0  0  0  0  0  0
  -21.2200    6.8110   14.1490 O   0  0  0  0  0  0  0  0  0  0  0  0
  -23.1580    6.7740   16.5550 S   0  0  0  0  0  0  0  0  0  0  0  0
  -25.7650    7.6550   19.3600 C   0  0  0  0  0  0  0  0  0  0  0  0
  -26.2140    9.0270   19.1560 C   0  0  0  0  0  0  0  0  0  0  0  0
  -29.0920   11.8440   21.6410 C   0  0  0  0  0  0  0  0  0  0  0  0
  -29.7350   13.2340   21.3730 C   0  0  0  0  0  0  0  0  0  0  0  0
  -29.1922   14.4929   24.0684 H   0  0  0  0  0  0  0  0  0  0  0  0
  -29.5936   15.9745   23.1354 H   0  0  0  0  0  0  0  0  0  0  0  0
  -30.7247   14.5791   23.1354 H   0  0  0  0  0  0  0  0  0  0  0  0
  -27.0211   14.9778   22.2860 H   0  0  0  0  0  0  0  0  0  0  0  0
  -27.5658   13.5039   23.2451 H   0  0  0  0  0  0  0  0  0  0  0  0
  -26.7885   13.5965   20.3021 H   0  0  0  0  0  0  0  0  0  0  0  0
  -25.9004   12.8079   21.6795 H   0  0  0  0  0  0  0  0  0  0  0  0
  -27.1815   11.0278   21.6899 H   0  0  0  0  0  0  0  0  0  0  0  0
  -27.8623    9.5438   22.1743 H   0  0  0  0  0  0  0  0  0  0  0  0
  -27.0685    7.1095   22.5090 H   0  0  0  0  0  0  0  0  0  0  0  0
  -24.2783    4.7231   18.8481 H   0  0  0  0  0  0  0  0  0  0  0  0
  -26.2885    8.8063   16.8112 H   0  0  0  0  0  0  0  0  0  0  0  0
  -26.3170   10.9482   13.6423 H   0  0  0  0  0  0  0  0  0  0  0  0
  -26.6078    9.7237   15.0327 H   0  0  0  0  0  0  0  0  0  0  0  0
  -23.6842   11.7850   15.2109 H   0  0  0  0  0  0  0  0  0  0  0  0
  -23.3005   13.5924   16.9607 H   0  0  0  0  0  0  0  0  0  0  0  0
  -25.3187   14.4295   18.4003 H   0  0  0  0  0  0  0  0  0  0  0  0
  -27.5886   13.4454   18.0674 H   0  0  0  0  0  0  0  0  0  0  0  0
  -22.5399    9.3293   12.7487 H   0  0  0  0  0  0  0  0  0  0  0  0
  -22.1106    7.8211   11.8979 H   0  0  0  0  0  0  0  0  0  0  0  0
  -25.9796    9.5517   18.2181 H   0  0  0  0  0  0  0  0  0  0  0  0
  -29.7129   11.0637   21.1767 H   0  0  0  0  0  0  0  0  0  0  0  0
  -29.0304   11.6872   22.7280 H   0  0  0  0  0  0  0  0  0  0  0  0
  -30.7582   13.2321   21.7767 H   0  0  0  0  0  0  0  0  0  0  0  0
  -29.7270   13.3997   20.2856 H   0  0  0  0  0  0  0  0  0  0  0  0
  2  1  1  0
 37  2  1  0
  2  3  1  0
  4  3  1  0
  5  4  1  0
  6  5  1  0
  5 36  1  0
  6  7  1  0
 35  7  1  0
  7  8  2  0
  8  9  1  0
 10  9  2  0
 34 10  1  0
 11 10  1  0
 12 11  2  0
 13 12  1  0
 14 13  1  0
 13 34  1  0
 15 14  2  0
 33 14  1  0
 16 15  1  0
 17 16  1  0
 16 29  2  0
 17 18  1  0
 18 19  1  0
 19 20  2  0
 19 24  1  0
 20 21  1  0
 21 22  2  0
 23 22  1  0
 24 23  2  0
 25 24  1  0
 27 25  1  0
 25 28  1  0
 25 26  1  0
 30 29  1  0
 29 33  1  0
 31 30  1  0
 30 32  2  0
 35 34  2  0
 37 36  1  0
  1 38  1  0
  1 39  1  0
  1 40  1  0
  3 41  1  0
  3 42  1  0
  4 43  1  0
  4 44  1  0
  5 45  1  0
  8 46  1  0
  9 47  1  0
 12 48  1  0
 15 49  1  0
 18 50  1  0
 18 51  1  0
 20 52  1  0
 21 53  1  0
 22 54  1  0
 23 55  1  0
 31 56  1  0
 31 57  1  0
 35 58  1  0
 36 59  1  0
 36 60  1  0
 37 61  1  0
 37 62  1  0
A    1
C01
A    2
N02
A    3
C03
A    4
C04
A    5
C05
A    6
O06
A    7
C07
A    8
C08
A    9
C09
A   10
C10
A   11
N11
A   12
C12
A   13
N13
A   14
C14
A   15
C15
A   16
C16
A   17
O17
A   18
C18
A   19
C19
A   20
C20
A   21
C21
A   22
C22
A   23
C23
A   24
C24
A   25
C25
A   26
F26
A   27
F27
A   28
F28
A   29
C29
A   30
C30
A   31
N31
A   32
O32
A   33
S33
A   34
C34
A   35
C35
A   36
C36
A   37
C37
M  END
