2XNP_WCX_A_1280
     RDKit          3D

 68 72  0  0  0  0  0  0  0  0999 V2000
  -26.8380   -1.2510   13.6490 C   0  0  0  0  0  0  0  0  0  0  0  0
  -26.3110   -1.8480   14.9740 C   0  0  0  0  0  0  0  0  0  0  0  0
  -25.0880   -2.4870   14.6880 O   0  0  0  0  0  0  0  0  0  0  0  0
  -24.5630   -3.4050   15.6230 C   0  0  0  0  0  0  0  0  0  0  0  0
  -25.3160   -3.7060   16.8750 C   0  0  0  0  0  0  0  0  0  0  0  0
  -24.6990   -4.6340   17.8670 C   0  0  0  0  0  0  0  0  0  0  0  0
  -26.0410   -6.0280   20.8390 N   0  0  0  0  0  0  0  0  0  0  0  0
  -25.3470   -6.1620   19.5960 C   0  0  0  0  0  0  0  0  0  0  0  0
  -25.3090   -4.9020   19.0310 N   0  0  0  0  0  0  0  0  0  0  0  0
  -25.9620   -3.9740   19.8690 C   0  0  0  0  0  0  0  0  0  0  0  0
  -26.2190   -2.5100   19.7450 C   0  0  0  0  0  0  0  0  0  0  0  0
  -26.9360   -1.8180   20.8040 C   0  0  0  0  0  0  0  0  0  0  0  0
  -27.3880   -2.5920   21.9420 C   0  0  0  0  0  0  0  0  0  0  0  0
  -28.0810   -1.9690   23.0030 O   0  0  0  0  0  0  0  0  0  0  0  0
  -29.0850   -2.8440   23.5230 C   0  0  0  0  0  0  0  0  0  0  0  0
  -30.4220   -2.1050   23.7740 C   0  0  0  0  0  0  0  0  0  0  0  0
  -30.1890   -0.7550   24.4930 C   0  0  0  0  0  0  0  0  0  0  0  0
  -29.3360   -0.8500   25.6920 N   0  0  0  0  0  0  0  0  0  0  0  0
  -29.0850    0.4060   26.4420 C   0  0  0  0  0  0  0  0  0  0  0  0
  -28.0690   -1.6130   25.4850 C   0  0  0  0  0  0  0  0  0  0  0  0
  -28.3150   -3.0170   24.8530 C   0  0  0  0  0  0  0  0  0  0  0  0
  -27.1430   -4.0200   22.0610 C   0  0  0  0  0  0  0  0  0  0  0  0
  -26.4270   -4.7070   20.9760 C   0  0  0  0  0  0  0  0  0  0  0  0
  -23.4020   -5.2640   17.6240 C   0  0  0  0  0  0  0  0  0  0  0  0
  -22.6720   -4.9710   16.3600 C   0  0  0  0  0  0  0  0  0  0  0  0
  -23.2520   -4.0380   15.3660 C   0  0  0  0  0  0  0  0  0  0  0  0
  -22.4350   -3.7670   14.0760 C   0  0  0  0  0  0  0  0  0  0  0  0
  -22.9500   -2.8950   13.0170 N   0  0  0  0  0  0  0  0  0  0  0  0
  -21.3930   -4.3080   13.9570 O   0  0  0  0  0  0  0  0  0  0  0  0
  -26.0460   -0.7240   16.0120 C   0  0  0  0  0  0  0  0  0  0  0  0
  -24.7430   -0.0600   16.0460 C   0  0  0  0  0  0  0  0  0  0  0  0
  -24.5160    1.0090   17.0070 C   0  0  0  0  0  0  0  0  0  0  0  0
  -25.5930    1.4160   17.9450 C   0  0  0  0  0  0  0  0  0  0  0  0
  -26.9240    0.7480   17.9050 C   0  0  0  0  0  0  0  0  0  0  0  0
  -27.1460   -0.2940   16.9540 C   0  0  0  0  0  0  0  0  0  0  0  0
  -28.5360   -0.9970   16.9110 C   0  0  0  0  0  0  0  0  0  0  0  0
  -29.3350   -0.3830   17.8090 F   0  0  0  0  0  0  0  0  0  0  0  0
  -28.3990   -2.3040   17.2720 F   0  0  0  0  0  0  0  0  0  0  0  0
  -29.1130   -0.9090   15.6580 F   0  0  0  0  0  0  0  0  0  0  0  0
  -27.5513   -0.4430   13.8690 H   0  0  0  0  0  0  0  0  0  0  0  0
  -25.9955   -0.8482   13.0676 H   0  0  0  0  0  0  0  0  0  0  0  0
  -27.3422   -2.0370   13.0676 H   0  0  0  0  0  0  0  0  0  0  0  0
  -27.0525   -2.5459   15.3902 H   0  0  0  0  0  0  0  0  0  0  0  0
  -26.3017   -3.2550   17.0622 H   0  0  0  0  0  0  0  0  0  0  0  0
  -24.9263   -7.0862   19.1731 H   0  0  0  0  0  0  0  0  0  0  0  0
  -25.8691   -1.9585   18.8599 H   0  0  0  0  0  0  0  0  0  0  0  0
  -27.1298   -0.7369   20.7427 H   0  0  0  0  0  0  0  0  0  0  0  0
  -29.3870   -3.7213   22.9321 H   0  0  0  0  0  0  0  0  0  0  0  0
  -30.9147   -1.9170   22.8087 H   0  0  0  0  0  0  0  0  0  0  0  0
  -31.0539   -2.7367   24.4156 H   0  0  0  0  0  0  0  0  0  0  0  0
  -29.7112   -0.0637   23.7832 H   0  0  0  0  0  0  0  0  0  0  0  0
  -31.1742   -0.4025   24.8322 H   0  0  0  0  0  0  0  0  0  0  0  0
  -29.1257    0.2024   27.5222 H   0  0  0  0  0  0  0  0  0  0  0  0
  -28.0909    0.7972   26.1798 H   0  0  0  0  0  0  0  0  0  0  0  0
  -29.8524    1.1492   26.1798 H   0  0  0  0  0  0  0  0  0  0  0  0
  -27.4141   -1.0349   24.8165 H   0  0  0  0  0  0  0  0  0  0  0  0
  -27.6059   -1.7663   26.4709 H   0  0  0  0  0  0  0  0  0  0  0  0
  -28.9078   -3.6337   25.5445 H   0  0  0  0  0  0  0  0  0  0  0  0
  -27.3514   -3.5121   24.6622 H   0  0  0  0  0  0  0  0  0  0  0  0
  -27.4867   -4.5759   22.9458 H   0  0  0  0  0  0  0  0  0  0  0  0
  -22.9695   -5.9484   18.3686 H   0  0  0  0  0  0  0  0  0  0  0  0
  -21.7004   -5.4480   16.1638 H   0  0  0  0  0  0  0  0  0  0  0  0
  -23.4588   -2.0334   13.2613 H   0  0  0  0  0  0  0  0  0  0  0  0
  -22.8032   -3.1436   12.0283 H   0  0  0  0  0  0  0  0  0  0  0  0
  -23.9445   -0.3650   15.3536 H   0  0  0  0  0  0  0  0  0  0  0  0
  -23.5415    1.5183   17.0388 H   0  0  0  0  0  0  0  0  0  0  0  0
  -25.4065    2.2172   18.6752 H   0  0  0  0  0  0  0  0  0  0  0  0
  -27.7230    1.0525   18.5970 H   0  0  0  0  0  0  0  0  0  0  0  0
  1  2  1  0
  2  3  1  0
  2 30  1  0
  3  4  1  0
  4  5  2  0
  4 26  1  0
  5  6  1  0
  6  9  1  0
  6 24  2  0
  9  8  1  0
  9 10  1  0
  8  7  2  0
  7 23  1  0
 23 22  2  0
 23 10  1  0
 22 13  1  0
 13 14  1  0
 13 12  2  0
 14 15  1  0
 15 16  1  0
 15 21  1  0
 16 17  1  0
 17 18  1  0
 18 19  1  0
 18 20  1  0
 20 21  1  0
 12 11  1  0
 11 10  2  0
 24 25  1  0
 25 26  2  0
 26 27  1  0
 27 28  1  0
 27 29  2  0
 30 31  2  0
 30 35  1  0
 31 32  1  0
 32 33  2  0
 33 34  1  0
 34 35  2  0
 35 36  1  0
 36 39  1  0
 36 38  1  0
 36 37  1  0
  1 40  1  0
  1 41  1  0
  1 42  1  0
  2 43  1  0
  5 44  1  0
  8 45  1  0
 11 46  1  0
 12 47  1  0
 15 48  1  0
 16 49  1  0
 16 50  1  0
 17 51  1  0
 17 52  1  0
 19 53  1  0
 19 54  1  0
 19 55  1  0
 20 56  1  0
 20 57  1  0
 21 58  1  0
 21 59  1  0
 22 60  1  0
 24 61  1  0
 25 62  1  0
 28 63  1  0
 28 64  1  0
 31 65  1  0
 32 66  1  0
 33 67  1  0
 34 68  1  0
A    1
C01
A    2
C02
A    3
O03
A    4
C04
A    5
C05
A    6
C06
A    7
N09
A    8
C08
A    9
N07
A   10
C23
A   11
C22
A   12
C21
A   13
C12
A   14
O13
A   15
C14
A   16
C15
A   17
C16
A   18
N17
A   19
C18
A   20
C19
A   21
C20
A   22
C11
A   23
C10
A   24
C24
A   25
C25
A   26
C26
A   27
C27
A   28
N28
A   29
O29
A   30
C30
A   31
C31
A   32
C32
A   33
C33
A   34
C34
A   35
C35
A   36
C36
A   37
F39
A   38
F38
A   39
F37
M  END
