2Q93_B21_A_400
     RDKit          3D

 26 27  0  0  0  0  0  0  0  0999 V2000
   -6.7130    0.5580   10.3940 C   0  0  0  0  0  0  0  0  0  0  0  0
   -5.5430   -0.2640   10.3320 O   0  0  0  0  0  0  0  0  0  0  0  0
   -5.5330   -0.9980    9.1910 C   0  0  0  0  0  0  0  0  0  0  0  0
   -6.7030   -1.5420    8.6880 C   0  0  0  0  0  0  0  0  0  0  0  0
   -6.6890   -2.3080    7.5280 C   0  0  0  0  0  0  0  0  0  0  0  0
   -5.4820   -2.5300    6.8590 C   0  0  0  0  0  0  0  0  0  0  0  0
   -4.3140   -1.9880    7.3590 C   0  0  0  0  0  0  0  0  0  0  0  0
   -4.3260   -1.2260    8.5200 C   0  0  0  0  0  0  0  0  0  0  0  0
   -3.1240   -0.7230    9.0120 C   0  0  0  0  0  0  0  0  0  0  0  0
   -2.0230   -0.6610    8.2080 O   0  0  0  0  0  0  0  0  0  0  0  0
   -2.7990   -0.3240   10.2330 C   0  0  0  0  0  0  0  0  0  0  0  0
   -1.5040   -0.0070   10.2550 C   0  0  0  0  0  0  0  0  0  0  0  0
   -1.0270   -0.2130    9.0240 C   0  0  0  0  0  0  0  0  0  0  0  0
    0.4210   -0.0290    8.5760 C   0  0  0  0  0  0  0  0  0  0  0  0
    0.6760   -0.2470    7.3690 O   0  0  0  0  0  0  0  0  0  0  0  0
    1.2720    0.3200    9.4250 O   0  0  0  0  0  0  0  0  0  0  0  0
   -6.9760    0.7428   11.4460 H   0  0  0  0  0  0  0  0  0  0  0  0
   -6.5148    1.5164    9.8918 H   0  0  0  0  0  0  0  0  0  0  0  0
   -7.5474    0.0466    9.8918 H   0  0  0  0  0  0  0  0  0  0  0  0
   -7.6539   -1.3660    9.2122 H   0  0  0  0  0  0  0  0  0  0  0  0
   -7.6237   -2.7375    7.1383 H   0  0  0  0  0  0  0  0  0  0  0  0
   -5.4624   -3.1331    5.9393 H   0  0  0  0  0  0  0  0  0  0  0  0
   -3.3642   -2.1618    6.8320 H   0  0  0  0  0  0  0  0  0  0  0  0
   -3.4862   -0.2640   11.0898 H   0  0  0  0  0  0  0  0  0  0  0  0
   -0.9351    0.3560   11.1237 H   0  0  0  0  0  0  0  0  0  0  0  0
    1.0705    0.2374   10.3907 H   0  0  0  0  0  0  0  0  0  0  0  0
  1  2  1  0
  2  3  1  0
  3  8  2  0
  3  4  1  0
  4  5  2  0
  5  6  1  0
  6  7  2  0
  7  8  1  0
  8  9  1  0
  9 10  1  0
  9 11  2  0
 10 13  1  0
 11 12  1  0
 12 13  2  0
 13 14  1  0
 14 15  2  0
 14 16  1  0
  1 17  1  0
  1 18  1  0
  1 19  1  0
  4 20  1  0
  5 21  1  0
  6 22  1  0
  7 23  1  0
 11 24  1  0
 12 25  1  0
 16 26  1  0
A    1
CAL
A    2
OAP
A    3
CAH
A    4
CAK
A    5
CAI
A    6
CAJ
A    7
CAG
A    8
CAF
A    9
CAB
A   10
OAM
A   11
CAD
A   12
CAC
A   13
CAA
A   14
CAE
A   15
OAO
A   16
OAN
M  END
