2XP5_4FF_A_1165
     RDKit          3D

 25 26  0  0  0  0  0  0  0  0999 V2000
  -37.4850   28.4410   27.3900 O   0  0  0  0  0  0  0  0  0  0  0  0
  -37.7380   28.1510   26.1990 C   0  0  0  0  0  0  0  0  0  0  0  0
  -38.7680   28.5830   25.6820 O   0  0  0  0  0  0  0  0  0  0  0  0
  -36.8500   27.1730   25.3390 C   0  0  0  0  0  0  0  0  0  0  0  0
  -37.1340   26.7090   24.0460 C   0  0  0  0  0  0  0  0  0  0  0  0
  -36.1190   25.8980   23.6800 N   0  0  0  0  0  0  0  0  0  0  0  0
  -35.2250   25.8500   24.7240 C   0  0  0  0  0  0  0  0  0  0  0  0
  -35.6900   26.6570   25.7080 N   0  0  0  0  0  0  0  0  0  0  0  0
  -34.0100   25.1430   24.7950 C   0  0  0  0  0  0  0  0  0  0  0  0
  -33.3370   24.7610   23.6170 C   0  0  0  0  0  0  0  0  0  0  0  0
  -32.1150   24.0540   23.6470 C   0  0  0  0  0  0  0  0  0  0  0  0
  -31.5520   23.7450   24.8990 C   0  0  0  0  0  0  0  0  0  0  0  0
  -32.1830   24.1480   26.0950 C   0  0  0  0  0  0  0  0  0  0  0  0
  -33.4200   24.8350   26.0280 C   0  0  0  0  0  0  0  0  0  0  0  0
  -38.3780   27.0810   23.1580 C   0  0  0  0  0  0  0  0  0  0  0  0
  -37.9213   27.9409   28.1246 H   0  0  0  0  0  0  0  0  0  0  0  0
  -36.0300   25.4040   22.7806 H   0  0  0  0  0  0  0  0  0  0  0  0
  -33.7776   25.0219   22.6434 H   0  0  0  0  0  0  0  0  0  0  0  0
  -31.6155   23.7522   22.7146 H   0  0  0  0  0  0  0  0  0  0  0  0
  -30.6081   23.1822   24.9460 H   0  0  0  0  0  0  0  0  0  0  0  0
  -31.7194   23.9311   27.0687 H   0  0  0  0  0  0  0  0  0  0  0  0
  -33.9255   25.1314   26.9589 H   0  0  0  0  0  0  0  0  0  0  0  0
  -39.2289   27.3354   23.8071 H   0  0  0  0  0  0  0  0  0  0  0  0
  -38.1302   27.9443   22.5230 H   0  0  0  0  0  0  0  0  0  0  0  0
  -38.6448   26.2234   22.5230 H   0  0  0  0  0  0  0  0  0  0  0  0
  1  2  1  0
  2  3  2  0
  2  4  1  0
  4  5  2  0
  4  8  1  0
  5  6  1  0
  5 15  1  0
  6  7  1  0
  7  8  2  0
  7  9  1  0
  9 10  2  0
  9 14  1  0
 10 11  1  0
 11 12  2  0
 12 13  1  0
 13 14  2  0
  1 16  1  0
  6 17  1  0
 10 18  1  0
 11 19  1  0
 12 20  1  0
 13 21  1  0
 14 22  1  0
 15 23  1  0
 15 24  1  0
 15 25  1  0
A    1
O14
A    2
C12
A    3
O13
A    4
C10
A    5
C9
A    6
N8
A    7
C7
A    8
N11
A    9
C6
A   10
C1
A   11
C2
A   12
C3
A   13
C4
A   14
C5
A   15
C15
M  END
