2XP6_4G2_A_1165
     RDKit          3D

 25 26  0  0  0  0  0  0  0  0999 V2000
  -37.8530   28.3630   27.6200 O   0  0  0  0  0  0  0  0  0  0  0  0
  -38.1060   28.1520   26.4360 C   0  0  0  0  0  0  0  0  0  0  0  0
  -39.0270   28.7820   25.9190 O   0  0  0  0  0  0  0  0  0  0  0  0
  -37.2130   27.1770   25.6380 C   0  0  0  0  0  0  0  0  0  0  0  0
  -37.4050   26.6840   24.3470 C   0  0  0  0  0  0  0  0  0  0  0  0
  -36.3630   25.9020   24.0970 N   0  0  0  0  0  0  0  0  0  0  0  0
  -35.5230   25.9250   25.1470 C   0  0  0  0  0  0  0  0  0  0  0  0
  -36.0250   26.7200   26.1020 N   0  0  0  0  0  0  0  0  0  0  0  0
  -34.3210   25.2570   25.2120 C   0  0  0  0  0  0  0  0  0  0  0  0
  -33.6760   25.1900   26.4180 C   0  0  0  0  0  0  0  0  0  0  0  0
  -32.4260   24.5200   26.4710 C   0  0  0  0  0  0  0  0  0  0  0  0
  -31.8520   23.9350   25.3210 C   0  0  0  0  0  0  0  0  0  0  0  0
  -32.5000   24.0560   24.0850 C   0  0  0  0  0  0  0  0  0  0  0  0
  -33.7410   24.7260   24.0510 C   0  0  0  0  0  0  0  0  0  0  0  0
  -31.5940   24.4120   27.9890 Cl  0  0  0  0  0  0  0  0  0  0  0  0
  -38.5780   26.9250   23.3700 C   0  0  0  0  0  0  0  0  0  0  0  0
  -39.6952   29.2391   26.4888 H   0  0  0  0  0  0  0  0  0  0  0  0
  -36.2195   25.3609   23.2324 H   0  0  0  0  0  0  0  0  0  0  0  0
  -34.1141   25.6425   27.3198 H   0  0  0  0  0  0  0  0  0  0  0  0
  -30.9010   23.3872   25.3954 H   0  0  0  0  0  0  0  0  0  0  0  0
  -32.0547   23.6412   23.1687 H   0  0  0  0  0  0  0  0  0  0  0  0
  -34.2663   24.8345   23.0906 H   0  0  0  0  0  0  0  0  0  0  0  0
  -39.4985   27.1141   23.9418 H   0  0  0  0  0  0  0  0  0  0  0  0
  -38.3544   27.7960   22.7364 H   0  0  0  0  0  0  0  0  0  0  0  0
  -38.7160   26.0364   22.7364 H   0  0  0  0  0  0  0  0  0  0  0  0
  1  2  2  0
  2  3  1  0
  2  4  1  0
  4  5  2  0
  4  8  1  0
  5  6  1  0
  5 16  1  0
  6  7  1  0
  7  8  2  0
  7  9  1  0
  9 10  2  0
  9 14  1  0
 10 11  1  0
 11 12  2  0
 11 15  1  0
 12 13  1  0
 13 14  2  0
  3 17  1  0
  6 18  1  0
 10 19  1  0
 12 20  1  0
 13 21  1  0
 14 22  1  0
 16 23  1  0
 16 24  1  0
 16 25  1  0
A    1
O14
A    2
C12
A    3
O13
A    4
C10
A    5
C9
A    6
N8
A    7
C7
A    8
N11
A    9
C6
A   10
C1
A   11
C2
A   12
C3
A   13
C4
A   14
C5
A   15
CL1
A   16
C15
M  END
