2XP9_4G8_A_1165
     RDKit          3D

 45 47  0  0  0  0  0  0  0  0999 V2000
   44.1960  -12.4880   15.2230 C   0  0  0  0  0  0  0  0  0  0  0  0
   44.9320  -13.3770   16.0270 C   0  0  0  0  0  0  0  0  0  0  0  0
   44.2380  -14.3880   16.7280 C   0  0  0  0  0  0  0  0  0  0  0  0
   42.8350  -14.4940   16.6330 C   0  0  0  0  0  0  0  0  0  0  0  0
   42.1040  -13.6080   15.8310 C   0  0  0  0  0  0  0  0  0  0  0  0
   42.7830  -12.6040   15.1190 C   0  0  0  0  0  0  0  0  0  0  0  0
   41.9770  -11.6190   14.2240 C   0  0  0  0  0  0  0  0  0  0  0  0
   41.2910  -12.4780   13.2230 N   0  0  0  0  0  0  0  0  0  0  0  0
   42.2070  -13.3010   12.3670 C   0  0  0  0  0  0  0  0  0  0  0  0
   42.5270  -12.4610   11.1050 C   0  0  0  0  0  0  0  0  0  0  0  0
   42.4570  -11.2250   11.0960 O   0  0  0  0  0  0  0  0  0  0  0  0
   42.8010  -13.1130    9.9470 O   0  0  0  0  0  0  0  0  0  0  0  0
   39.9660  -12.5620   13.1590 C   0  0  0  0  0  0  0  0  0  0  0  0
   39.2290  -11.9260   13.8960 O   0  0  0  0  0  0  0  0  0  0  0  0
   39.4130  -13.6920   12.1800 C   0  0  0  0  0  0  0  0  0  0  0  0
   39.4600  -15.0050   12.5070 N   0  0  0  0  0  0  0  0  0  0  0  0
   38.8940  -13.5890   10.9040 C   0  0  0  0  0  0  0  0  0  0  0  0
   38.6880  -12.3160   10.0660 C   0  0  0  0  0  0  0  0  0  0  0  0
   38.8260  -11.1910   10.5860 O   0  0  0  0  0  0  0  0  0  0  0  0
   38.3870  -12.4500    8.8630 O   0  0  0  0  0  0  0  0  0  0  0  0
   38.5940  -14.8020   10.4660 N   0  0  0  0  0  0  0  0  0  0  0  0
   38.9350  -15.6920   11.4540 C   0  0  0  0  0  0  0  0  0  0  0  0
   38.8370  -17.0880   11.4190 C   0  0  0  0  0  0  0  0  0  0  0  0
   38.9390  -17.7500   10.1860 C   0  0  0  0  0  0  0  0  0  0  0  0
   38.8810  -19.1360   10.1360 C   0  0  0  0  0  0  0  0  0  0  0  0
   38.7400  -19.9200   11.3000 C   0  0  0  0  0  0  0  0  0  0  0  0
   38.6630  -19.2320   12.5380 C   0  0  0  0  0  0  0  0  0  0  0  0
   38.7200  -17.8510   12.6110 C   0  0  0  0  0  0  0  0  0  0  0  0
   44.7192  -11.6947   14.6689 H   0  0  0  0  0  0  0  0  0  0  0  0
   46.0253  -13.2868   16.1082 H   0  0  0  0  0  0  0  0  0  0  0  0
   44.7971  -15.0992   17.3538 H   0  0  0  0  0  0  0  0  0  0  0  0
   42.3092  -15.2804   17.1944 H   0  0  0  0  0  0  0  0  0  0  0  0
   41.0100  -13.6970   15.7592 H   0  0  0  0  0  0  0  0  0  0  0  0
   41.2418  -11.0642   14.8254 H   0  0  0  0  0  0  0  0  0  0  0  0
   42.6262  -10.8694   13.7479 H   0  0  0  0  0  0  0  0  0  0  0  0
   43.1337  -13.5272   12.9148 H   0  0  0  0  0  0  0  0  0  0  0  0
   41.7345  -14.2557   12.0928 H   0  0  0  0  0  0  0  0  0  0  0  0
   43.1844  -14.0254    9.9714 H   0  0  0  0  0  0  0  0  0  0  0  0
   37.5121  -12.8395    8.6121 H   0  0  0  0  0  0  0  0  0  0  0  0
   38.1807  -15.0350    9.5518 H   0  0  0  0  0  0  0  0  0  0  0  0
   39.0649  -17.1708    9.2593 H   0  0  0  0  0  0  0  0  0  0  0  0
   38.9470  -19.6379    9.1594 H   0  0  0  0  0  0  0  0  0  0  0  0
   38.6918  -21.0178   11.2499 H   0  0  0  0  0  0  0  0  0  0  0  0
   38.5549  -19.8123   13.4662 H   0  0  0  0  0  0  0  0  0  0  0  0
   38.6749  -17.3469   13.5876 H   0  0  0  0  0  0  0  0  0  0  0  0
  1  2  2  0
  1  6  1  0
  2  3  1  0
  3  4  2  0
  4  5  1  0
  5  6  2  0
  6  7  1  0
  7  8  1  0
  8  9  1  0
  8 13  1  0
  9 10  1  0
 10 11  2  0
 10 12  1  0
 13 14  2  0
 13 15  1  0
 15 16  1  0
 15 17  2  0
 16 22  2  0
 17 18  1  0
 17 21  1  0
 18 19  2  0
 18 20  1  0
 21 22  1  0
 22 23  1  0
 23 24  2  0
 23 28  1  0
 24 25  1  0
 25 26  2  0
 26 27  1  0
 27 28  2  0
  1 29  1  0
  2 30  1  0
  3 31  1  0
  4 32  1  0
  5 33  1  0
  7 34  1  0
  7 35  1  0
  9 36  1  0
  9 37  1  0
 12 38  1  0
 20 39  1  0
 21 40  1  0
 24 41  1  0
 25 42  1  0
 26 43  1  0
 27 44  1  0
 28 45  1  0
A    1
C20
A    2
C21
A    3
C22
A    4
C23
A    5
C24
A    6
C19
A    7
C18
A    8
N17
A    9
C25
A   10
C26
A   11
O27
A   12
O28
A   13
C15
A   14
O16
A   15
C9
A   16
N8
A   17
C10
A   18
C12
A   19
O14
A   20
O13
A   21
N11
A   22
C1
A   23
C2
A   24
C3
A   25
C4
A   26
C5
A   27
C6
A   28
C7
M  END
