2XPA_4G5_A_1165
     RDKit          3D

 36 37  0  0  0  0  0  0  0  0999 V2000
   39.0110  -17.8670   10.2520 C   0  0  0  0  0  0  0  0  0  0  0  0
   38.9630  -19.2590   10.3400 C   0  0  0  0  0  0  0  0  0  0  0  0
   38.9080  -19.8960   11.5870 C   0  0  0  0  0  0  0  0  0  0  0  0
   38.9010  -19.1200   12.7480 C   0  0  0  0  0  0  0  0  0  0  0  0
   38.9310  -17.7180   12.6660 C   0  0  0  0  0  0  0  0  0  0  0  0
   38.9550  -17.0920   11.4200 C   0  0  0  0  0  0  0  0  0  0  0  0
   39.0400  -15.7000   11.3420 C   0  0  0  0  0  0  0  0  0  0  0  0
   39.6080  -14.9950   12.3240 N   0  0  0  0  0  0  0  0  0  0  0  0
   38.6750  -14.8520   10.3400 N   0  0  0  0  0  0  0  0  0  0  0  0
   39.0110  -13.6040   10.7330 C   0  0  0  0  0  0  0  0  0  0  0  0
   38.8020  -12.2970    9.9310 C   0  0  0  0  0  0  0  0  0  0  0  0
   38.5330  -12.3280    8.7110 O   0  0  0  0  0  0  0  0  0  0  0  0
   38.9850  -11.2150   10.5150 O   0  0  0  0  0  0  0  0  0  0  0  0
   39.6140  -13.7110   11.9930 C   0  0  0  0  0  0  0  0  0  0  0  0
   40.2250  -12.6800   12.9800 C   0  0  0  0  0  0  0  0  0  0  0  0
   39.4830  -11.9210   13.5970 O   0  0  0  0  0  0  0  0  0  0  0  0
   41.5650  -12.7720   13.2150 N   0  0  0  0  0  0  0  0  0  0  0  0
   42.3730  -13.7430   12.4110 C   0  0  0  0  0  0  0  0  0  0  0  0
   42.2000  -11.9070   14.2400 C   0  0  0  0  0  0  0  0  0  0  0  0
   42.6600  -12.7830   15.4700 C   0  0  0  0  0  0  0  0  0  0  0  0
   42.0210  -13.7660   15.8860 O   0  0  0  0  0  0  0  0  0  0  0  0
   43.8080  -12.3780   16.0350 N   0  0  0  0  0  0  0  0  0  0  0  0
   39.0925  -17.3789    9.2696 H   0  0  0  0  0  0  0  0  0  0  0  0
   38.9684  -19.8627    9.4205 H   0  0  0  0  0  0  0  0  0  0  0  0
   38.8708  -20.9935   11.6505 H   0  0  0  0  0  0  0  0  0  0  0  0
   38.8718  -19.6096   13.7326 H   0  0  0  0  0  0  0  0  0  0  0  0
   38.9356  -17.1136   13.5850 H   0  0  0  0  0  0  0  0  0  0  0  0
   38.2271  -15.1134    9.4501 H   0  0  0  0  0  0  0  0  0  0  0  0
   37.5950  -12.4361    8.4135 H   0  0  0  0  0  0  0  0  0  0  0  0
   42.9270  -14.4088   13.0890 H   0  0  0  0  0  0  0  0  0  0  0  0
   41.7024  -14.3412   11.7767 H   0  0  0  0  0  0  0  0  0  0  0  0
   43.0831  -13.1923   11.7767 H   0  0  0  0  0  0  0  0  0  0  0  0
   43.0751  -11.4045   13.8022 H   0  0  0  0  0  0  0  0  0  0  0  0
   41.4728  -11.1556   14.5815 H   0  0  0  0  0  0  0  0  0  0  0  0
   43.8944  -12.3475   17.0609 H   0  0  0  0  0  0  0  0  0  0  0  0
   44.6027  -12.0977   15.4427 H   0  0  0  0  0  0  0  0  0  0  0  0
  1  2  2  0
  1  6  1  0
  2  3  1  0
  3  4  2  0
  4  5  1  0
  5  6  2  0
  6  7  1  0
  7  8  2  0
  7  9  1  0
  8 14  1  0
  9 10  1  0
 10 11  1  0
 10 14  2  0
 11 12  1  0
 11 13  2  0
 14 15  1  0
 15 16  2  0
 15 17  1  0
 17 18  1  0
 17 19  1  0
 19 20  1  0
 20 21  2  0
 20 22  1  0
  1 23  1  0
  2 24  1  0
  3 25  1  0
  4 26  1  0
  5 27  1  0
  9 28  1  0
 12 29  1  0
 18 30  1  0
 18 31  1  0
 18 32  1  0
 19 33  1  0
 19 34  1  0
 22 35  1  0
 22 36  1  0
A    1
C10
A    2
C11
A    3
C12
A    4
C13
A    5
C14
A    6
C9
A    7
C5
A    8
N1
A    9
N4
A   10
C3
A   11
C15
A   12
O17
A   13
O16
A   14
C2
A   15
C6
A   16
O8
A   17
N7
A   18
C22
A   19
C18
A   20
C19
A   21
O21
A   22
N20
M  END
