2XPK_Z0M_A_1625
     RDKit          3D

 52 54  0  0  0  0  0  0  0  0999 V2000
    5.2880   -2.0340   15.7010 C   0  0  0  0  0  0  0  0  0  0  0  0
    3.8310   -1.7130   16.0410 C   0  0  0  0  0  0  0  0  0  0  0  0
    3.5460   -0.1920   16.0920 C   0  0  0  0  0  0  0  0  0  0  0  0
    4.4170    0.6470   15.8430 O   0  0  0  0  0  0  0  0  0  0  0  0
    2.2680    0.1080   16.4010 N   0  0  0  0  0  0  0  0  0  0  0  0
    1.4380    1.9530   15.0470 C   0  0  0  0  0  0  0  0  0  0  0  0
    0.1170    1.5980   14.7110 O   0  0  0  0  0  0  0  0  0  0  0  0
    1.5660    3.4860   14.9230 C   0  0  0  0  0  0  0  0  0  0  0  0
    1.2500    3.8650   13.6020 O   0  0  0  0  0  0  0  0  0  0  0  0
    2.9910    3.8840   15.2540 C   0  0  0  0  0  0  0  0  0  0  0  0
    3.2840    5.3420   14.9220 C   0  0  0  0  0  0  0  0  0  0  0  0
    2.4360    6.2280   15.6960 O   0  0  0  0  0  0  0  0  0  0  0  0
    3.1860    3.5840   16.6990 N   0  0  0  0  0  0  0  0  0  0  0  0
    3.8510    4.2020   17.6690 C   0  0  0  0  0  0  0  0  0  0  0  0
    2.6160    2.4420   17.2780 C   0  0  0  0  0  0  0  0  0  0  0  0
    2.9500    2.4610   18.5570 N   0  0  0  0  0  0  0  0  0  0  0  0
    3.6990    3.5250   18.8160 C   0  0  0  0  0  0  0  0  0  0  0  0
    4.3400    3.9160   20.1960 C   0  0  0  0  0  0  0  0  0  0  0  0
    3.3830    3.7700   21.3970 C   0  0  0  0  0  0  0  0  0  0  0  0
    2.2840    4.8380   21.3610 C   0  0  0  0  0  0  0  0  0  0  0  0
    1.0960    4.5860   20.6430 C   0  0  0  0  0  0  0  0  0  0  0  0
    0.0930    5.5520   20.5850 C   0  0  0  0  0  0  0  0  0  0  0  0
    0.2850    6.7720   21.2420 C   0  0  0  0  0  0  0  0  0  0  0  0
    1.7170    1.4580   16.4760 C   0  0  0  0  0  0  0  0  0  0  0  0
    1.4680    7.0280   21.9550 C   0  0  0  0  0  0  0  0  0  0  0  0
    2.4800    6.0590   22.0220 C   0  0  0  0  0  0  0  0  0  0  0  0
    5.5900   -3.8240   15.4400 S   0  0  0  0  0  0  0  0  0  0  0  0
    5.5593   -1.4956   14.7809 H   0  0  0  0  0  0  0  0  0  0  0  0
    5.9011   -1.7202   16.5587 H   0  0  0  0  0  0  0  0  0  0  0  0
    3.1838   -2.1660   15.2756 H   0  0  0  0  0  0  0  0  0  0  0  0
    3.6277   -2.1210   17.0421 H   0  0  0  0  0  0  0  0  0  0  0  0
    1.6309   -0.6765   16.5996 H   0  0  0  0  0  0  0  0  0  0  0  0
    2.1781    1.4921   14.3763 H   0  0  0  0  0  0  0  0  0  0  0  0
   -0.4075    1.4570   15.5387 H   0  0  0  0  0  0  0  0  0  0  0  0
    0.8771    3.9889   15.6176 H   0  0  0  0  0  0  0  0  0  0  0  0
    0.6161    4.6253   13.6195 H   0  0  0  0  0  0  0  0  0  0  0  0
    3.7025    3.3154   14.6373 H   0  0  0  0  0  0  0  0  0  0  0  0
    4.3375    5.5594   15.1521 H   0  0  0  0  0  0  0  0  0  0  0  0
    3.0830    5.5070   13.8532 H   0  0  0  0  0  0  0  0  0  0  0  0
    2.5875    6.0697   16.6615 H   0  0  0  0  0  0  0  0  0  0  0  0
    4.4357    5.1260   17.5495 H   0  0  0  0  0  0  0  0  0  0  0  0
    5.2121    3.2681   20.3681 H   0  0  0  0  0  0  0  0  0  0  0  0
    4.6089    4.9807   20.1314 H   0  0  0  0  0  0  0  0  0  0  0  0
    2.9170    2.7741   21.3659 H   0  0  0  0  0  0  0  0  0  0  0  0
    3.9630    3.8972   22.3229 H   0  0  0  0  0  0  0  0  0  0  0  0
    0.9609    3.6239   20.1272 H   0  0  0  0  0  0  0  0  0  0  0  0
   -0.8368    5.3578   20.0302 H   0  0  0  0  0  0  0  0  0  0  0  0
   -0.5006    7.5408   21.1998 H   0  0  0  0  0  0  0  0  0  0  0  0
    0.7746    1.4217   17.0422 H   0  0  0  0  0  0  0  0  0  0  0  0
    1.6015    7.9941   22.4638 H   0  0  0  0  0  0  0  0  0  0  0  0
    3.4073    6.2528   22.5810 H   0  0  0  0  0  0  0  0  0  0  0  0
    5.6958   -4.4510   16.6535 H   0  0  0  0  0  0  0  0  0  0  0  0
  1  2  1  0
  1 27  1  0
  2  3  1  0
  3  4  2  0
  3  5  1  0
  5 24  1  0
  6  7  1  0
  6  8  1  0
  6 24  1  0
  8  9  1  0
  8 10  1  0
 10 11  1  0
 10 13  1  0
 11 12  1  0
 13 14  1  0
 13 15  1  0
 14 17  2  0
 15 16  2  0
 15 24  1  0
 16 17  1  0
 17 18  1  0
 18 19  1  0
 19 20  1  0
 20 21  2  0
 20 26  1  0
 21 22  1  0
 22 23  2  0
 23 25  1  0
 25 26  2  0
  1 28  1  0
  1 29  1  0
  2 30  1  0
  2 31  1  0
  5 32  1  0
  6 33  1  0
  7 34  1  0
  8 35  1  0
  9 36  1  0
 10 37  1  0
 11 38  1  0
 11 39  1  0
 12 40  1  0
 14 41  1  0
 18 42  1  0
 18 43  1  0
 19 44  1  0
 19 45  1  0
 21 46  1  0
 22 47  1  0
 23 48  1  0
 24 49  1  0
 25 50  1  0
 26 51  1  0
 27 52  1  0
A    1
CAZ
A    2
CAN
A    3
CAL
A    4
OAM
A    5
NAK
A    6
CAB
A    7
OAG
A    8
CAA
A    9
OAH
A   10
CAF
A   11
CAI
A   12
OAJ
A   13
NAE
A   14
CAQ
A   15
CAD
A   16
NAO
A   17
CAP
A   18
CAR
A   19
CAS
A   20
CAT
A   21
CAU
A   22
CAV
A   23
CAW
A   24
CAC
A   25
CAX
A   26
CAY
A   27
SAZ
M  END
