1VXR_VX_A_999
     RDKit          3D

 15 14  0  0  0  0  0  0  0  0999 V2000
    5.4110   64.0310   61.5890 P   0  0  0  0  0  0  0  0  0  0  0  0
    4.1770   64.0690   60.7950 O   0  0  0  0  0  0  0  0  0  0  0  0
    5.3320   64.9050   62.7160 O   0  0  0  0  0  0  0  0  0  0  0  0
    5.9270   62.3850   62.0890 C   0  0  0  0  0  0  0  0  0  0  0  0
    4.1700   65.1020   63.5710 C   0  0  0  0  0  0  0  0  0  0  0  0
    4.0550   64.1660   64.6270 C   0  0  0  0  0  0  0  0  0  0  0  0
    6.2829   64.4302   60.8348 H   0  0  0  0  0  0  0  0  0  0  0  0
    5.9460   62.3245   63.1872 H   0  0  0  0  0  0  0  0  0  0  0  0
    5.2185   61.6425   61.6930 H   0  0  0  0  0  0  0  0  0  0  0  0
    6.9326   62.1799   61.6930 H   0  0  0  0  0  0  0  0  0  0  0  0
    4.2322   66.1090   64.0092 H   0  0  0  0  0  0  0  0  0  0  0  0
    3.2843   64.9656   62.9330 H   0  0  0  0  0  0  0  0  0  0  0  0
    4.1195   64.6914   65.5913 H   0  0  0  0  0  0  0  0  0  0  0  0
    3.0866   63.6492   64.5551 H   0  0  0  0  0  0  0  0  0  0  0  0
    4.8695   63.4302   64.5551 H   0  0  0  0  0  0  0  0  0  0  0  0
  1  2  2  0
  1  3  1  0
  1  4  1  0
  3  5  1  0
  5  6  1  0
  1  7  1  0
  4  8  1  0
  4  9  1  0
  4 10  1  0
  5 11  1  0
  5 12  1  0
  6 13  1  0
  6 14  1  0
  6 15  1  0
A    1
P1
A    2
O1
A    3
O2
A    4
C1
A    5
C2
A    6
C3
M  END
