2XRU_400_A_1389
     RDKit          3D

 66 70  0  0  0  0  0  0  0  0999 V2000
    3.7470   31.6470    7.9320 C   0  0  0  0  0  0  0  0  0  0  0  0
    3.5630   31.9500    9.2420 N   0  0  0  0  0  0  0  0  0  0  0  0
    4.3810   31.2430   10.0000 N   0  0  0  0  0  0  0  0  0  0  0  0
    4.7550   30.6780    7.8850 C   0  0  0  0  0  0  0  0  0  0  0  0
    5.1370   30.4460    9.1940 C   0  0  0  0  0  0  0  0  0  0  0  0
    6.1650   29.5030    9.3180 C   0  0  0  0  0  0  0  0  0  0  0  0
    6.5710   29.0160    8.0490 C   0  0  0  0  0  0  0  0  0  0  0  0
    5.6420   29.7200    6.7270 S   0  0  0  0  0  0  0  0  0  0  0  0
    3.0090   32.2690    7.0000 N   0  0  0  0  0  0  0  0  0  0  0  0
    3.1830   32.3860    5.6410 C   0  0  0  0  0  0  0  0  0  0  0  0
    2.5540   33.4510    4.8550 C   0  0  0  0  0  0  0  0  0  0  0  0
    3.9060   31.5140    5.0410 O   0  0  0  0  0  0  0  0  0  0  0  0
    1.6110   34.3900    5.4170 C   0  0  0  0  0  0  0  0  0  0  0  0
    1.0240   35.4080    4.6200 C   0  0  0  0  0  0  0  0  0  0  0  0
    1.3320   35.5620    3.1990 C   0  0  0  0  0  0  0  0  0  0  0  0
    2.2670   34.6220    2.6430 C   0  0  0  0  0  0  0  0  0  0  0  0
    2.8550   33.6050    3.4410 C   0  0  0  0  0  0  0  0  0  0  0  0
    0.7510   36.5810    2.4350 N   0  0  0  0  0  0  0  0  0  0  0  0
   -0.1590   36.3020    1.2540 C   0  0  0  0  0  0  0  0  0  0  0  0
   -0.0350   37.3640    0.0850 C   0  0  0  0  0  0  0  0  0  0  0  0
    0.0440   38.7800    0.6770 N   0  0  0  0  0  0  0  0  0  0  0  0
    1.2470   38.8780    1.5890 C   0  0  0  0  0  0  0  0  0  0  0  0
    0.9740   37.9950    2.8210 C   0  0  0  0  0  0  0  0  0  0  0  0
    0.0980   39.8480   -0.3940 C   0  0  0  0  0  0  0  0  0  0  0  0
    7.6380   28.0720    7.8220 C   0  0  0  0  0  0  0  0  0  0  0  0
    8.1640   27.4530    8.7840 O   0  0  0  0  0  0  0  0  0  0  0  0
    8.1380   27.8580    6.5820 N   0  0  0  0  0  0  0  0  0  0  0  0
    9.2770   27.0380    6.2430 C   0  0  0  0  0  0  0  0  0  0  0  0
    8.7500   25.7080    5.7530 C   0  0  0  0  0  0  0  0  0  0  0  0
   10.1460   27.8230    5.2220 C   0  0  0  0  0  0  0  0  0  0  0  0
    7.5120   25.6070    4.9570 C   0  0  0  0  0  0  0  0  0  0  0  0
    7.0020   24.3290    4.4990 C   0  0  0  0  0  0  0  0  0  0  0  0
    7.7210   23.1280    4.8310 C   0  0  0  0  0  0  0  0  0  0  0  0
    8.9460   23.2050    5.6150 C   0  0  0  0  0  0  0  0  0  0  0  0
    9.4550   24.4830    6.0700 C   0  0  0  0  0  0  0  0  0  0  0  0
   11.0320   28.9190    5.8880 C   0  0  0  0  0  0  0  0  0  0  0  0
    4.4380   31.2867   11.0275 H   0  0  0  0  0  0  0  0  0  0  0  0
    6.6011   29.1816   10.2754 H   0  0  0  0  0  0  0  0  0  0  0  0
    2.1684   32.7393    7.3649 H   0  0  0  0  0  0  0  0  0  0  0  0
    1.3429   34.3150    6.4812 H   0  0  0  0  0  0  0  0  0  0  0  0
    0.3130   36.1049    5.0878 H   0  0  0  0  0  0  0  0  0  0  0  0
    2.5323   34.6919    1.5778 H   0  0  0  0  0  0  0  0  0  0  0  0
    3.5647   32.9078    2.9717 H   0  0  0  0  0  0  0  0  0  0  0  0
    0.0922   35.3104    0.8495 H   0  0  0  0  0  0  0  0  0  0  0  0
   -1.1925   36.3558    1.6268 H   0  0  0  0  0  0  0  0  0  0  0  0
    0.8749   37.1605   -0.4987 H   0  0  0  0  0  0  0  0  0  0  0  0
   -0.9172   37.2912   -0.5681 H   0  0  0  0  0  0  0  0  0  0  0  0
    2.1452   38.5210    1.0639 H   0  0  0  0  0  0  0  0  0  0  0  0
    1.4160   39.9216    1.8929 H   0  0  0  0  0  0  0  0  0  0  0  0
    0.0788   38.3700    3.3387 H   0  0  0  0  0  0  0  0  0  0  0  0
    1.8536   38.0391    3.4801 H   0  0  0  0  0  0  0  0  0  0  0  0
    0.1481   40.8397    0.0793 H   0  0  0  0  0  0  0  0  0  0  0  0
    0.9896   39.6949   -1.0199 H   0  0  0  0  0  0  0  0  0  0  0  0
   -0.8044   39.7856   -1.0199 H   0  0  0  0  0  0  0  0  0  0  0  0
    7.6571   28.3277    5.8016 H   0  0  0  0  0  0  0  0  0  0  0  0
    9.9368   26.8169    7.0949 H   0  0  0  0  0  0  0  0  0  0  0  0
   10.8028   27.1109    4.7008 H   0  0  0  0  0  0  0  0  0  0  0  0
    9.4592   28.3323    4.5300 H   0  0  0  0  0  0  0  0  0  0  0  0
    6.9613   26.5251    4.7043 H   0  0  0  0  0  0  0  0  0  0  0  0
    6.0773   24.2786    3.9054 H   0  0  0  0  0  0  0  0  0  0  0  0
    7.3454   22.1511    4.4926 H   0  0  0  0  0  0  0  0  0  0  0  0
    9.4909   22.2826    5.8645 H   0  0  0  0  0  0  0  0  0  0  0  0
   10.3826   24.5232    6.6599 H   0  0  0  0  0  0  0  0  0  0  0  0
   10.9618   28.8322    6.9823 H   0  0  0  0  0  0  0  0  0  0  0  0
   12.0782   28.7845    5.5758 H   0  0  0  0  0  0  0  0  0  0  0  0
   10.6812   29.9137    5.5758 H   0  0  0  0  0  0  0  0  0  0  0  0
  1  2  2  0
  1  4  1  0
  1  9  1  0
  2  3  1  0
  3  5  1  0
  4  5  2  0
  4  8  1  0
  5  6  1  0
  6  7  2  0
  7  8  1  0
  7 25  1  0
  9 10  1  0
 10 11  1  0
 10 12  2  0
 11 13  2  0
 11 17  1  0
 13 14  1  0
 14 15  2  0
 15 16  1  0
 15 18  1  0
 16 17  2  0
 18 19  1  0
 18 23  1  0
 19 20  1  0
 20 21  1  0
 21 22  1  0
 21 24  1  0
 22 23  1  0
 25 26  2  0
 25 27  1  0
 27 28  1  0
 28 29  1  0
 28 30  1  0
 29 31  2  0
 29 35  1  0
 30 36  1  0
 31 32  1  0
 32 33  2  0
 33 34  1  0
 34 35  2  0
  3 37  1  0
  6 38  1  0
  9 39  1  0
 13 40  1  0
 14 41  1  0
 16 42  1  0
 17 43  1  0
 19 44  1  0
 19 45  1  0
 20 46  1  0
 20 47  1  0
 22 48  1  0
 22 49  1  0
 23 50  1  0
 23 51  1  0
 24 52  1  0
 24 53  1  0
 24 54  1  0
 27 55  1  0
 28 56  1  0
 30 57  1  0
 30 58  1  0
 31 59  1  0
 32 60  1  0
 33 61  1  0
 34 62  1  0
 35 63  1  0
 36 64  1  0
 36 65  1  0
 36 66  1  0
A    1
C1
A    2
N2
A    3
N3
A    4
C4
A    5
C5
A    6
C6
A    7
C7
A    8
S8
A    9
N9
A   10
C10
A   11
C11
A   12
O12
A   13
C13
A   14
C14
A   15
C15
A   16
C16
A   17
C17
A   18
N18
A   19
C19
A   20
C20
A   21
N21
A   22
C22
A   23
C23
A   24
C24
A   25
C25
A   26
O26
A   27
N27
A   28
C28
A   29
C29
A   30
C30
A   31
C31
A   32
C32
A   33
C33
A   34
C34
A   35
C35
A   36
C36
M  END
