2XSH_DC5_A_902
     RDKit          3D

 22 23  0  0  0  0  0  0  0  0999 V2000
   22.9520    6.3140   -5.7910 C   0  0  0  0  0  0  0  0  0  0  0  0
   21.8970    5.6020   -5.1980 C   0  0  0  0  0  0  0  0  0  0  0  0
   21.4480    4.4000   -5.7550 C   0  0  0  0  0  0  0  0  0  0  0  0
   22.0500    3.8880   -6.9080 C   0  0  0  0  0  0  0  0  0  0  0  0
   23.0970    4.5880   -7.5070 C   0  0  0  0  0  0  0  0  0  0  0  0
   23.5360    5.7960   -6.9560 C   0  0  0  0  0  0  0  0  0  0  0  0
   23.4250    7.5350   -5.2630 C   0  0  0  0  0  0  0  0  0  0  0  0
   22.6460    8.6870   -5.2780 C   0  0  0  0  0  0  0  0  0  0  0  0
   23.1260    9.8980   -4.7750 C   0  0  0  0  0  0  0  0  0  0  0  0
   24.4070    9.9870   -4.2450 C   0  0  0  0  0  0  0  0  0  0  0  0
   25.1990    8.8490   -4.2240 C   0  0  0  0  0  0  0  0  0  0  0  0
   24.7080    7.6470   -4.7280 C   0  0  0  0  0  0  0  0  0  0  0  0
   25.7150    6.2650   -4.6870 Cl  0  0  0  0  0  0  0  0  0  0  0  0
   21.0580    8.6220   -5.9300 Cl  0  0  0  0  0  0  0  0  0  0  0  0
   21.4194    5.9929   -4.2874 H   0  0  0  0  0  0  0  0  0  0  0  0
   20.6171    3.8550   -5.2833 H   0  0  0  0  0  0  0  0  0  0  0  0
   21.7001    2.9389   -7.3402 H   0  0  0  0  0  0  0  0  0  0  0  0
   23.5775    4.1899   -8.4129 H   0  0  0  0  0  0  0  0  0  0  0  0
   24.3523    6.3486   -7.4441 H   0  0  0  0  0  0  0  0  0  0  0  0
   22.4833   10.7904   -4.7987 H   0  0  0  0  0  0  0  0  0  0  0  0
   24.7855   10.9412   -3.8498 H   0  0  0  0  0  0  0  0  0  0  0  0
   26.2165    8.8956   -3.8087 H   0  0  0  0  0  0  0  0  0  0  0  0
  1  6  1  0
  1  2  2  0
  1  7  1  0
  6  5  2  0
  5  4  1  0
  4  3  2  0
  3  2  1  0
  7  8  2  0
  7 12  1  0
  8  9  1  0
  8 14  1  0
  9 10  2  0
 10 11  1  0
 11 12  2  0
 12 13  1  0
  2 15  1  0
  3 16  1  0
  4 17  1  0
  5 18  1  0
  6 19  1  0
  9 20  1  0
 10 21  1  0
 11 22  1  0
A    1
CA1
A    2
CA6
A    3
CA5
A    4
CA4
A    5
CA3
A    6
CA2
A    7
CB1
A    8
CB2
A    9
CB3
A   10
CB4
A   11
CB5
A   12
CB6
A   13
CL6
A   14
CL1
M  END
