2B6O_MC3_A_264
     RDKit          3D

 85 84  0  0  0  0  0  0  0  0999 V2000
   43.6630   33.1810    6.7340 C   0  0  0  0  0  0  0  0  0  0  0  0
   43.4010   32.1460    7.8570 C   0  0  0  0  0  0  0  0  0  0  0  0
   44.3570   32.3760    9.0580 C   0  0  0  0  0  0  0  0  0  0  0  0
   45.4180   34.1570    3.8970 C   0  0  0  0  0  0  0  0  0  0  0  0
   46.6050   34.7830    3.1260 C   0  0  0  0  0  0  0  0  0  0  0  0
   45.5210   36.9740    2.7560 C   0  0  0  0  0  0  0  0  0  0  0  0
   47.8950   36.7490    2.4860 C   0  0  0  0  0  0  0  0  0  0  0  0
   46.9390   36.6680    4.6830 C   0  0  0  0  0  0  0  0  0  0  0  0
   46.2260   33.8640    9.8440 C   0  0  0  0  0  0  0  0  0  0  0  0
   46.2680   33.0150   11.1370 C   0  0  0  0  0  0  0  0  0  0  0  0
   46.5760   33.7720   12.4360 C   0  0  0  0  0  0  0  0  0  0  0  0
   45.5160   33.5200   13.5000 C   0  0  0  0  0  0  0  0  0  0  0  0
   45.8330   34.1850   14.8140 C   0  0  0  0  0  0  0  0  0  0  0  0
   45.9470   33.1690   15.9290 C   0  0  0  0  0  0  0  0  0  0  0  0
   46.2570   33.8440   17.2520 C   0  0  0  0  0  0  0  0  0  0  0  0
   41.1390   33.3180    8.8690 C   0  0  0  0  0  0  0  0  0  0  0  0
   41.7760   34.6810    9.1750 C   0  0  0  0  0  0  0  0  0  0  0  0
   42.2970   34.8350   10.6210 C   0  0  0  0  0  0  0  0  0  0  0  0
   41.2280   34.6870   11.7080 C   0  0  0  0  0  0  0  0  0  0  0  0
   41.8180   34.1490   13.0120 C   0  0  0  0  0  0  0  0  0  0  0  0
   41.8500   35.2120   14.1110 C   0  0  0  0  0  0  0  0  0  0  0  0
   41.5190   34.6110   15.4670 C   0  0  0  0  0  0  0  0  0  0  0  0
   41.5480   35.6550   16.5580 C   0  0  0  0  0  0  0  0  0  0  0  0
   41.9170   35.0370   17.8910 C   0  0  0  0  0  0  0  0  0  0  0  0
   40.7510   35.0560   18.8670 C   0  0  0  0  0  0  0  0  0  0  0  0
   46.7320   36.2900    3.2660 N   0  0  0  0  0  0  0  0  0  0  0  0
   41.9380   32.1690    8.2580 O   0  0  0  0  0  0  0  0  0  0  0  0
   45.2410   33.5100    8.8000 O   0  0  0  0  0  0  0  0  0  0  0  0
   46.9950   34.8200    9.6620 O   0  0  0  0  0  0  0  0  0  0  0  0
   39.9280   33.1480    9.1340 O   0  0  0  0  0  0  0  0  0  0  0  0
   45.7820   31.5330    5.8650 O   0  0  0  0  0  0  0  0  0  0  0  0
   44.2950   30.5630    4.1600 O   0  0  0  0  0  0  0  0  0  0  0  0
   43.4640   32.5610    5.4090 O   0  0  0  0  0  0  0  0  0  0  0  0
   45.4220   32.7130    3.6750 O   0  0  0  0  0  0  0  0  0  0  0  0
   44.7380   31.8780    4.7990 P   0  0  0  0  0  0  0  0  0  0  0  0
   42.9663   34.0245    6.8482 H   0  0  0  0  0  0  0  0  0  0  0  0
   44.7011   33.5366    6.8103 H   0  0  0  0  0  0  0  0  0  0  0  0
   43.6186   31.1370    7.4767 H   0  0  0  0  0  0  0  0  0  0  0  0
   43.7618   32.5793    9.9604 H   0  0  0  0  0  0  0  0  0  0  0  0
   44.9695   31.4738    9.2023 H   0  0  0  0  0  0  0  0  0  0  0  0
   45.5236   34.3662    4.9717 H   0  0  0  0  0  0  0  0  0  0  0  0
   44.4711   34.5877    3.5394 H   0  0  0  0  0  0  0  0  0  0  0  0
   47.5337   34.3254    3.4975 H   0  0  0  0  0  0  0  0  0  0  0  0
   46.4201   34.5857    2.0598 H   0  0  0  0  0  0  0  0  0  0  0  0
   44.9104   37.3189    3.6035 H   0  0  0  0  0  0  0  0  0  0  0  0
   45.8184   37.8375    2.1429 H   0  0  0  0  0  0  0  0  0  0  0  0
   44.9350   36.2735    2.1429 H   0  0  0  0  0  0  0  0  0  0  0  0
   48.6950   37.0647    3.1718 H   0  0  0  0  0  0  0  0  0  0  0  0
   48.2588   35.9270    1.8520 H   0  0  0  0  0  0  0  0  0  0  0  0
   47.5994   37.5979    1.8520 H   0  0  0  0  0  0  0  0  0  0  0  0
   46.5137   35.8913    5.3356 H   0  0  0  0  0  0  0  0  0  0  0  0
   48.0163   36.7653    4.8829 H   0  0  0  0  0  0  0  0  0  0  0  0
   46.4408   37.6281    4.8829 H   0  0  0  0  0  0  0  0  0  0  0  0
   45.2860   32.5335   11.2542 H   0  0  0  0  0  0  0  0  0  0  0  0
   47.1038   32.3129   11.0007 H   0  0  0  0  0  0  0  0  0  0  0  0
   47.5520   33.4396   12.8194 H   0  0  0  0  0  0  0  0  0  0  0  0
   46.5866   34.8487   12.2110 H   0  0  0  0  0  0  0  0  0  0  0  0
   44.5532   33.9066   13.1345 H   0  0  0  0  0  0  0  0  0  0  0  0
   45.4806   32.4353   13.6796 H   0  0  0  0  0  0  0  0  0  0  0  0
   46.7870   34.7248   14.7218 H   0  0  0  0  0  0  0  0  0  0  0  0
   45.0158   34.8796   15.0585 H   0  0  0  0  0  0  0  0  0  0  0  0
   44.9955   32.6243   16.0176 H   0  0  0  0  0  0  0  0  0  0  0  0
   46.7673   32.4766   15.6888 H   0  0  0  0  0  0  0  0  0  0  0  0
   45.9545   33.1853   18.0794 H   0  0  0  0  0  0  0  0  0  0  0  0
   47.3368   34.0432   17.3179 H   0  0  0  0  0  0  0  0  0  0  0  0
   45.7044   34.7929   17.3179 H   0  0  0  0  0  0  0  0  0  0  0  0
   42.6223   34.8267    8.4876 H   0  0  0  0  0  0  0  0  0  0  0  0
   40.9831   35.4325    9.0467 H   0  0  0  0  0  0  0  0  0  0  0  0
   43.0665   34.0676   10.7910 H   0  0  0  0  0  0  0  0  0  0  0  0
   42.6825   35.8619   10.7036 H   0  0  0  0  0  0  0  0  0  0  0  0
   40.7766   35.6715   11.9004 H   0  0  0  0  0  0  0  0  0  0  0  0
   40.4735   33.9702   11.3516 H   0  0  0  0  0  0  0  0  0  0  0  0
   41.2057   33.3021   13.3555 H   0  0  0  0  0  0  0  0  0  0  0  0
   42.8538   33.8376   12.8119 H   0  0  0  0  0  0  0  0  0  0  0  0
   42.8555   35.6562   14.1513 H   0  0  0  0  0  0  0  0  0  0  0  0
   41.0964   35.9782   13.8764 H   0  0  0  0  0  0  0  0  0  0  0  0
   40.5139   34.1661   15.4249 H   0  0  0  0  0  0  0  0  0  0  0  0
   42.2761   33.8478   15.6999 H   0  0  0  0  0  0  0  0  0  0  0  0
   42.2908   36.4242   16.3002 H   0  0  0  0  0  0  0  0  0  0  0  0
   40.5459   36.1004   16.6436 H   0  0  0  0  0  0  0  0  0  0  0  0
   42.2259   33.9942   17.7262 H   0  0  0  0  0  0  0  0  0  0  0  0
   42.7356   35.6290   18.3263 H   0  0  0  0  0  0  0  0  0  0  0  0
   41.1354   35.0497   19.8976 H   0  0  0  0  0  0  0  0  0  0  0  0
   40.1517   35.9640   18.7047 H   0  0  0  0  0  0  0  0  0  0  0  0
   40.1225   34.1680   18.7047 H   0  0  0  0  0  0  0  0  0  0  0  0
  1  2  1  0
  1 33  1  0
  2  3  1  0
  2 27  1  0
  3 28  1  0
  4  5  1  0
  4 34  1  0
  5 26  1  0
  6 26  1  0
  7 26  1  0
  8 26  1  0
  9 10  1  0
  9 28  1  0
  9 29  2  0
 10 11  1  0
 11 12  1  0
 12 13  1  0
 13 14  1  0
 14 15  1  0
 16 17  1  0
 16 27  1  0
 16 30  2  0
 17 18  1  0
 18 19  1  0
 19 20  1  0
 20 21  1  0
 21 22  1  0
 22 23  1  0
 23 24  1  0
 24 25  1  0
 31 35  2  0
 32 35  1  0
 33 35  1  0
 34 35  1  0
  1 36  1  0
  1 37  1  0
  2 38  1  0
  3 39  1  0
  3 40  1  0
  4 41  1  0
  4 42  1  0
  5 43  1  0
  5 44  1  0
  6 45  1  0
  6 46  1  0
  6 47  1  0
  7 48  1  0
  7 49  1  0
  7 50  1  0
  8 51  1  0
  8 52  1  0
  8 53  1  0
 10 54  1  0
 10 55  1  0
 11 56  1  0
 11 57  1  0
 12 58  1  0
 12 59  1  0
 13 60  1  0
 13 61  1  0
 14 62  1  0
 14 63  1  0
 15 64  1  0
 15 65  1  0
 15 66  1  0
 17 67  1  0
 17 68  1  0
 18 69  1  0
 18 70  1  0
 19 71  1  0
 19 72  1  0
 20 73  1  0
 20 74  1  0
 21 75  1  0
 21 76  1  0
 22 77  1  0
 22 78  1  0
 23 79  1  0
 23 80  1  0
 24 81  1  0
 24 82  1  0
 25 83  1  0
 25 84  1  0
 25 85  1  0
M  CHG  2  26   1  32  -1
A    1
C1
A    2
C2
A    3
C3
A    4
C4
A    5
C5
A    6
C6
A    7
C7
A    8
C8
A    9
C11
A   10
C12
A   11
C13
A   12
C14
A   13
C15
A   14
C16
A   15
C17
A   16
C31
A   17
C32
A   18
C33
A   19
C34
A   20
C35
A   21
C36
A   22
C37
A   23
C38
A   24
C39
A   25
C40
A   26
N
A   27
O2
A   28
O3
A   29
O11
A   30
O31
A   31
O1P
A   32
O2P
A   33
O3P
A   34
O4P
A   35
P
M  END
