2XU3_XU3_A_1221
     RDKit          3D

 57 61  0  0  0  0  0  0  0  0999 V2000
   20.5010    6.4700    7.6120 N   0  0  0  0  0  0  0  0  0  0  0  0
   20.7220    5.4100    8.5960 C   0  0  0  0  0  0  0  0  0  0  0  0
   19.3190    1.4370    9.7480 Cl  0  0  0  0  0  0  0  0  0  0  0  0
   19.5600    4.4490    8.3280 C   0  0  0  0  0  0  0  0  0  0  0  0
   22.0730    8.8040   13.2060 Cl  0  0  0  0  0  0  0  0  0  0  0  0
   18.4340    5.3250    7.7230 C   0  0  0  0  0  0  0  0  0  0  0  0
   19.2100    6.3720    6.9420 C   0  0  0  0  0  0  0  0  0  0  0  0
   20.0270    3.2520    7.0790 S   0  0  0  0  0  0  0  0  0  0  0  0
   18.4300    7.6690    6.8540 C   0  0  0  0  0  0  0  0  0  0  0  0
   21.1960    2.2020    7.9170 C   0  0  0  0  0  0  0  0  0  0  0  0
   18.8320    2.4880    6.8520 O   0  0  0  0  0  0  0  0  0  0  0  0
   20.6620    3.8940    5.9880 O   0  0  0  0  0  0  0  0  0  0  0  0
   20.8650    1.4350    9.0350 C   0  0  0  0  0  0  0  0  0  0  0  0
   21.7820    0.6190    9.6400 C   0  0  0  0  0  0  0  0  0  0  0  0
   23.0600    0.5430    9.1280 C   0  0  0  0  0  0  0  0  0  0  0  0
   23.4110    1.2910    8.0240 C   0  0  0  0  0  0  0  0  0  0  0  0
   22.4790    2.1130    7.4160 C   0  0  0  0  0  0  0  0  0  0  0  0
   18.1090    8.3120    7.8580 O   0  0  0  0  0  0  0  0  0  0  0  0
   18.0170    7.9960    5.6050 N   0  0  0  0  0  0  0  0  0  0  0  0
   17.1780    9.1180    5.2710 C   0  0  0  0  0  0  0  0  0  0  0  0
   15.7040    8.8830    5.3390 C   0  0  0  0  0  0  0  0  0  0  0  0
   14.8280    9.6650    5.0100 N   0  0  0  0  0  0  0  0  0  0  0  0
   17.7050   10.4990    5.6570 C   0  0  0  0  0  0  0  0  0  0  0  0
   17.7050   10.0470    4.2060 C   0  0  0  0  0  0  0  0  0  0  0  0
   21.4030    7.3790    7.2280 C   0  0  0  0  0  0  0  0  0  0  0  0
   22.7480    7.2870    7.8800 C   0  0  0  0  0  0  0  0  0  0  0  0
   21.1460    8.1970    6.3540 O   0  0  0  0  0  0  0  0  0  0  0  0
   22.8220    7.3510    9.3710 C   0  0  0  0  0  0  0  0  0  0  0  0
   23.4680    6.5670   10.2490 C   0  0  0  0  0  0  0  0  0  0  0  0
   23.3150    6.9560   11.5780 C   0  0  0  0  0  0  0  0  0  0  0  0
   22.5260    8.0260   11.7410 C   0  0  0  0  0  0  0  0  0  0  0  0
   21.9540    8.5830   10.1920 S   0  0  0  0  0  0  0  0  0  0  0  0
   23.7500    6.3870    7.1720 C   0  0  0  0  0  0  0  0  0  0  0  0
   23.8960    7.9020    7.0830 C   0  0  0  0  0  0  0  0  0  0  0  0
   21.6908    4.9149    8.4339 H   0  0  0  0  0  0  0  0  0  0  0  0
   20.7522    5.7778    9.6323 H   0  0  0  0  0  0  0  0  0  0  0  0
   19.2653    3.9206    9.2467 H   0  0  0  0  0  0  0  0  0  0  0  0
   17.7853    4.7347    7.0591 H   0  0  0  0  0  0  0  0  0  0  0  0
   17.7604    5.7543    8.4793 H   0  0  0  0  0  0  0  0  0  0  0  0
   19.3708    6.1030    5.8876 H   0  0  0  0  0  0  0  0  0  0  0  0
   21.5024    0.0297   10.5258 H   0  0  0  0  0  0  0  0  0  0  0  0
   23.8020   -0.1165    9.6018 H   0  0  0  0  0  0  0  0  0  0  0  0
   24.4348    1.2340    7.6257 H   0  0  0  0  0  0  0  0  0  0  0  0
   22.7619    2.6986    6.5288 H   0  0  0  0  0  0  0  0  0  0  0  0
   18.3289    7.3923    4.8310 H   0  0  0  0  0  0  0  0  0  0  0  0
   15.3760    7.9064    5.7246 H   0  0  0  0  0  0  0  0  0  0  0  0
   13.8377    9.3966    5.1000 H   0  0  0  0  0  0  0  0  0  0  0  0
   17.0083   11.2819    5.9911 H   0  0  0  0  0  0  0  0  0  0  0  0
   18.4634   10.8786    6.3575 H   0  0  0  0  0  0  0  0  0  0  0  0
   18.6562    9.8202    3.7023 H   0  0  0  0  0  0  0  0  0  0  0  0
   17.3029   10.4563    3.2675 H   0  0  0  0  0  0  0  0  0  0  0  0
   24.0653    5.6945    9.9457 H   0  0  0  0  0  0  0  0  0  0  0  0
   23.7978    6.4325   12.4164 H   0  0  0  0  0  0  0  0  0  0  0  0
   24.4710    5.7990    7.7588 H   0  0  0  0  0  0  0  0  0  0  0  0
   23.6778    5.5692    6.4399 H   0  0  0  0  0  0  0  0  0  0  0  0
   23.6920    8.4199    6.1342 H   0  0  0  0  0  0  0  0  0  0  0  0
   24.6988    8.6213    7.3023 H   0  0  0  0  0  0  0  0  0  0  0  0
  7  1  1  0
 25  1  1  0
  1  2  1  0
  4  2  1  0
 13  3  1  0
  8  4  1  0
  6  4  1  0
 31  5  1  0
  7  6  1  0
  9  7  1  0
 12  8  2  0
  8 11  2  0
  8 10  1  0
 19  9  1  0
  9 18  2  0
 17 10  1  0
 10 13  2  0
 13 14  1  0
 15 14  2  0
 16 15  1  0
 17 16  2  0
 20 19  1  0
 24 20  1  0
 20 21  1  0
 20 23  1  0
 22 21  2  3
 24 23  1  0
 27 25  2  0
 25 26  1  0
 34 26  1  0
 33 26  1  0
 26 28  1  0
 28 32  1  0
 28 29  2  0
 29 30  1  0
 30 31  2  0
 32 31  1  0
 34 33  1  0
  2 35  1  0
  2 36  1  0
  4 37  1  0
  6 38  1  0
  6 39  1  0
  7 40  1  0
 14 41  1  0
 15 42  1  0
 16 43  1  0
 17 44  1  0
 19 45  1  0
 21 46  1  0
 22 47  1  0
 23 48  1  0
 23 49  1  0
 24 50  1  0
 24 51  1  0
 29 52  1  0
 30 53  1  0
 33 54  1  0
 33 55  1  0
 34 56  1  0
 34 57  1  0
A    1
N1
A    2
C2
A    3
CL2
A    4
C3
A    5
CL3
A    6
C4
A    7
C5
A    8
S6
A    9
C7
A   10
C8
A   11
O9
A   12
O10
A   13
C11
A   14
C12
A   15
C13
A   16
C14
A   17
C15
A   18
O16
A   19
N17
A   20
C18
A   21
C19
A   22
N20
A   23
C21
A   24
C22
A   25
C24
A   26
C25
A   27
O26
A   28
C27
A   29
C28
A   30
C29
A   31
C30
A   32
S31
A   33
C33
A   34
C34
M  END
