1ACL_DME_A_999
     RDKit          3D

 56 55  0  0  0  0  0  0  0  0999 V2000
    0.3540   62.2480   71.5670 N   0  0  0  0  0  0  0  0  0  0  0  0
    1.1740   62.2950   70.3400 C   0  0  0  0  0  0  0  0  0  0  0  0
    1.9390   63.6250   70.2940 C   0  0  0  0  0  0  0  0  0  0  0  0
    3.2110   63.7240   69.4520 C   0  0  0  0  0  0  0  0  0  0  0  0
    3.7670   65.1430   69.6950 C   0  0  0  0  0  0  0  0  0  0  0  0
    5.0090   65.5070   68.8920 C   0  0  0  0  0  0  0  0  0  0  0  0
    4.7490   66.4850   67.7710 C   0  0  0  0  0  0  0  0  0  0  0  0
    4.3390   67.9200   68.1360 C   0  0  0  0  0  0  0  0  0  0  0  0
    3.7110   68.6500   66.9140 C   0  0  0  0  0  0  0  0  0  0  0  0
    4.2920   68.2410   65.5340 C   0  0  0  0  0  0  0  0  0  0  0  0
    3.8400   69.0560   64.2930 C   0  0  0  0  0  0  0  0  0  0  0  0
    4.7660   68.9640   63.1150 N   0  0  0  0  0  0  0  0  0  0  0  0
   -0.3820   63.5210   71.7960 C   0  0  0  0  0  0  0  0  0  0  0  0
   -0.6830   61.2010   71.4540 C   0  0  0  0  0  0  0  0  0  0  0  0
    1.2030   61.9000   72.7340 C   0  0  0  0  0  0  0  0  0  0  0  0
    5.9640   69.8160   63.3260 C   0  0  0  0  0  0  0  0  0  0  0  0
    4.0720   69.3780   61.8850 C   0  0  0  0  0  0  0  0  0  0  0  0
    5.1670   67.5710   62.8830 C   0  0  0  0  0  0  0  0  0  0  0  0
    1.8892   61.4593   70.3434 H   0  0  0  0  0  0  0  0  0  0  0  0
    0.5228   62.2128   69.4573 H   0  0  0  0  0  0  0  0  0  0  0  0
    1.2408   64.3845   69.9123 H   0  0  0  0  0  0  0  0  0  0  0  0
    2.2968   63.7572   71.3257 H   0  0  0  0  0  0  0  0  0  0  0  0
    3.9417   62.9664   69.7715 H   0  0  0  0  0  0  0  0  0  0  0  0
    3.0056   63.5468   68.3860 H   0  0  0  0  0  0  0  0  0  0  0  0
    2.9763   65.8647   69.4420 H   0  0  0  0  0  0  0  0  0  0  0  0
    4.0715   65.1712   70.7516 H   0  0  0  0  0  0  0  0  0  0  0  0
    5.7455   65.9529   69.5766 H   0  0  0  0  0  0  0  0  0  0  0  0
    5.3719   64.5783   68.4273 H   0  0  0  0  0  0  0  0  0  0  0  0
    5.6720   66.5514   67.1763 H   0  0  0  0  0  0  0  0  0  0  0  0
    3.8697   66.0754   67.2522 H   0  0  0  0  0  0  0  0  0  0  0  0
    3.6024   67.8868   68.9523 H   0  0  0  0  0  0  0  0  0  0  0  0
    5.2377   68.4717   68.4491 H   0  0  0  0  0  0  0  0  0  0  0  0
    2.6320   68.4361   66.9066 H   0  0  0  0  0  0  0  0  0  0  0  0
    3.9446   69.7174   67.0410 H   0  0  0  0  0  0  0  0  0  0  0  0
    5.3869   68.3233   65.6006 H   0  0  0  0  0  0  0  0  0  0  0  0
    3.9046   67.2267   65.3578 H   0  0  0  0  0  0  0  0  0  0  0  0
    2.8512   68.6878   63.9820 H   0  0  0  0  0  0  0  0  0  0  0  0
    3.8295   70.1122   64.6001 H   0  0  0  0  0  0  0  0  0  0  0  0
   -0.4835   63.6965   72.8772 H   0  0  0  0  0  0  0  0  0  0  0  0
    0.1743   64.3533   71.3401 H   0  0  0  0  0  0  0  0  0  0  0  0
   -1.3808   63.4542   71.3401 H   0  0  0  0  0  0  0  0  0  0  0  0
   -0.9961   60.8849   72.4600 H   0  0  0  0  0  0  0  0  0  0  0  0
   -1.5505   61.6014   70.9089 H   0  0  0  0  0  0  0  0  0  0  0  0
   -0.2742   60.3374   70.9089 H   0  0  0  0  0  0  0  0  0  0  0  0
    0.6583   62.1233   73.6632 H   0  0  0  0  0  0  0  0  0  0  0  0
    1.4492   60.8284   72.7017 H   0  0  0  0  0  0  0  0  0  0  0  0
    2.1305   62.4905   72.7017 H   0  0  0  0  0  0  0  0  0  0  0  0
    6.1397   69.9410   64.4047 H   0  0  0  0  0  0  0  0  0  0  0  0
    6.8403   69.3371   62.8648 H   0  0  0  0  0  0  0  0  0  0  0  0
    5.7993   70.8010   62.8648 H   0  0  0  0  0  0  0  0  0  0  0  0
    3.1547   69.9252   62.1480 H   0  0  0  0  0  0  0  0  0  0  0  0
    4.7314   70.0304   61.2938 H   0  0  0  0  0  0  0  0  0  0  0  0
    3.8112   68.4878   61.2938 H   0  0  0  0  0  0  0  0  0  0  0  0
    5.3125   67.0656   63.8491 H   0  0  0  0  0  0  0  0  0  0  0  0
    4.3814   67.0534   62.3130 H   0  0  0  0  0  0  0  0  0  0  0  0
    6.1076   67.5503   62.3130 H   0  0  0  0  0  0  0  0  0  0  0  0
  1  2  1  0
  1 13  1  0
  1 14  1  0
  1 15  1  0
  2  3  1  0
  3  4  1  0
  4  5  1  0
  5  6  1  0
  6  7  1  0
  7  8  1  0
  8  9  1  0
  9 10  1  0
 10 11  1  0
 11 12  1  0
 12 16  1  0
 12 17  1  0
 12 18  1  0
  2 19  1  0
  2 20  1  0
  3 21  1  0
  3 22  1  0
  4 23  1  0
  4 24  1  0
  5 25  1  0
  5 26  1  0
  6 27  1  0
  6 28  1  0
  7 29  1  0
  7 30  1  0
  8 31  1  0
  8 32  1  0
  9 33  1  0
  9 34  1  0
 10 35  1  0
 10 36  1  0
 11 37  1  0
 11 38  1  0
 13 39  1  0
 13 40  1  0
 13 41  1  0
 14 42  1  0
 14 43  1  0
 14 44  1  0
 15 45  1  0
 15 46  1  0
 15 47  1  0
 16 48  1  0
 16 49  1  0
 16 50  1  0
 17 51  1  0
 17 52  1  0
 17 53  1  0
 18 54  1  0
 18 55  1  0
 18 56  1  0
M  CHG  2   1   1  12   1
A    1
N1
A    2
C2
A    3
C3
A    4
C4
A    5
C5
A    6
C6
A    7
C7
A    8
C8
A    9
C9
A   10
C10
A   11
C11
A   12
N12
A   13
C13
A   14
C14
A   15
C15
A   16
C16
A   17
C17
A   18
C18
M  END
