2XVD_AS6_A_1889
     RDKit          3D

 69 72  0  0  0  0  0  0  0  0999 V2000
    9.4220    5.6620   10.0960 C   0  0  0  0  0  0  0  0  0  0  0  0
    9.3460    5.6460   11.6120 C   0  0  0  0  0  0  0  0  0  0  0  0
    7.8960    5.6550   12.0780 C   0  0  0  0  0  0  0  0  0  0  0  0
   10.1490    4.5810   12.2350 N   0  0  0  0  0  0  0  0  0  0  0  0
   11.5570    4.7790   12.2250 C   0  0  0  0  0  0  0  0  0  0  0  0
   12.3610    3.6850   12.5100 C   0  0  0  0  0  0  0  0  0  0  0  0
   13.7070    3.8980   12.5000 C   0  0  0  0  0  0  0  0  0  0  0  0
   14.2340    5.1050   12.2260 N   0  0  0  0  0  0  0  0  0  0  0  0
   13.3990    6.1120   11.9600 C   0  0  0  0  0  0  0  0  0  0  0  0
   14.0050    7.3550   11.6870 N   0  0  0  0  0  0  0  0  0  0  0  0
   13.3490    8.5200   11.2320 C   0  0  0  0  0  0  0  0  0  0  0  0
   14.0770    9.6960   11.2580 C   0  0  0  0  0  0  0  0  0  0  0  0
   13.5360   10.8980   10.8320 C   0  0  0  0  0  0  0  0  0  0  0  0
   12.2370   10.9080   10.3720 C   0  0  0  0  0  0  0  0  0  0  0  0
   11.5080    9.7430   10.3410 C   0  0  0  0  0  0  0  0  0  0  0  0
   12.0410    8.5380   10.7630 C   0  0  0  0  0  0  0  0  0  0  0  0
    9.8340    9.8680    9.7150 S   0  0  0  0  0  0  0  0  0  0  0  0
    9.5170   11.2920    9.6360 O   0  0  0  0  0  0  0  0  0  0  0  0
    9.8070    9.0460    8.5010 O   0  0  0  0  0  0  0  0  0  0  0  0
    8.8000    9.1190   10.9360 C   0  0  0  0  0  0  0  0  0  0  0  0
   14.2400   12.1100   10.8490 N   0  0  0  0  0  0  0  0  0  0  0  0
   15.6390   11.9890   11.1620 C   0  0  0  0  0  0  0  0  0  0  0  0
   16.1790   13.3930   11.3150 C   0  0  0  0  0  0  0  0  0  0  0  0
   15.8920   14.1100   10.1080 O   0  0  0  0  0  0  0  0  0  0  0  0
   14.4760   14.2820    9.9660 C   0  0  0  0  0  0  0  0  0  0  0  0
   13.9010   12.9190    9.6850 C   0  0  0  0  0  0  0  0  0  0  0  0
   12.0610    5.9950   11.9470 N   0  0  0  0  0  0  0  0  0  0  0  0
    9.5240    3.3320   12.4340 C   0  0  0  0  0  0  0  0  0  0  0  0
    9.1100    2.5870   11.3410 C   0  0  0  0  0  0  0  0  0  0  0  0
    8.4860    1.3680   11.5030 C   0  0  0  0  0  0  0  0  0  0  0  0
    8.0420    0.6170   10.2800 C   0  0  0  0  0  0  0  0  0  0  0  0
    8.6610   -0.6650   10.2410 O   0  0  0  0  0  0  0  0  0  0  0  0
    8.2720    0.8710   12.7730 C   0  0  0  0  0  0  0  0  0  0  0  0
    8.6910    1.5920   13.8680 C   0  0  0  0  0  0  0  0  0  0  0  0
    9.3110    2.8190   13.7070 C   0  0  0  0  0  0  0  0  0  0  0  0
    9.7380    3.5730   14.9230 C   0  0  0  0  0  0  0  0  0  0  0  0
   10.4539    5.8792    9.7829 H   0  0  0  0  0  0  0  0  0  0  0  0
    9.1186    4.6803    9.7033 H   0  0  0  0  0  0  0  0  0  0  0  0
    8.7486    6.4381    9.7033 H   0  0  0  0  0  0  0  0  0  0  0  0
    9.8148    6.5758   11.9665 H   0  0  0  0  0  0  0  0  0  0  0  0
    7.8642    5.6552   13.1775 H   0  0  0  0  0  0  0  0  0  0  0  0
    7.3938    6.5563   11.6965 H   0  0  0  0  0  0  0  0  0  0  0  0
    7.3827    4.7600   11.6965 H   0  0  0  0  0  0  0  0  0  0  0  0
   11.9339    2.6961   12.7327 H   0  0  0  0  0  0  0  0  0  0  0  0
   14.3822    3.0585   12.7224 H   0  0  0  0  0  0  0  0  0  0  0  0
   15.0225    7.4198   11.8332 H   0  0  0  0  0  0  0  0  0  0  0  0
   15.1131    9.6761   11.6268 H   0  0  0  0  0  0  0  0  0  0  0  0
   11.7829   11.8494   10.0292 H   0  0  0  0  0  0  0  0  0  0  0  0
   11.4431    7.6153   10.7281 H   0  0  0  0  0  0  0  0  0  0  0  0
    9.1659    9.3840   11.9389 H   0  0  0  0  0  0  0  0  0  0  0  0
    7.7683    9.4807   10.8147 H   0  0  0  0  0  0  0  0  0  0  0  0
    8.8220    8.0259   10.8147 H   0  0  0  0  0  0  0  0  0  0  0  0
   15.7695   11.4294   12.1000 H   0  0  0  0  0  0  0  0  0  0  0  0
   16.1739   11.4462   10.3688 H   0  0  0  0  0  0  0  0  0  0  0  0
   15.6938   13.8890   12.1685 H   0  0  0  0  0  0  0  0  0  0  0  0
   17.2636   13.3683   11.4970 H   0  0  0  0  0  0  0  0  0  0  0  0
   14.0486   14.6899   10.8939 H   0  0  0  0  0  0  0  0  0  0  0  0
   14.2422   14.9855    9.1533 H   0  0  0  0  0  0  0  0  0  0  0  0
   14.3490   12.4921    8.7756 H   0  0  0  0  0  0  0  0  0  0  0  0
   12.8147   12.9594    9.5165 H   0  0  0  0  0  0  0  0  0  0  0  0
    9.2823    2.9750   10.3262 H   0  0  0  0  0  0  0  0  0  0  0  0
    6.9494    0.4927   10.3061 H   0  0  0  0  0  0  0  0  0  0  0  0
    8.3330    1.1846    9.3838 H   0  0  0  0  0  0  0  0  0  0  0  0
    8.8155   -0.9851   11.1650 H   0  0  0  0  0  0  0  0  0  0  0  0
    7.7686   -0.0975   12.9093 H   0  0  0  0  0  0  0  0  0  0  0  0
    8.5318    1.1898   14.8794 H   0  0  0  0  0  0  0  0  0  0  0  0
    9.4267    3.0232   15.8235 H   0  0  0  0  0  0  0  0  0  0  0  0
   10.8325    3.6830   14.9207 H   0  0  0  0  0  0  0  0  0  0  0  0
    9.2694    4.5682   14.9207 H   0  0  0  0  0  0  0  0  0  0  0  0
  1  2  1  0
  2  3  1  0
  2  4  1  0
  4  5  1  0
  4 28  1  0
  5  6  2  0
  5 27  1  0
  6  7  1  0
  7  8  2  0
  8  9  1  0
  9 10  1  0
  9 27  2  0
 10 11  1  0
 11 12  2  0
 11 16  1  0
 12 13  1  0
 13 14  2  0
 13 21  1  0
 14 15  1  0
 15 16  2  0
 15 17  1  0
 17 18  2  0
 17 19  2  0
 17 20  1  0
 21 22  1  0
 21 26  1  0
 22 23  1  0
 23 24  1  0
 24 25  1  0
 25 26  1  0
 28 29  2  0
 28 35  1  0
 29 30  1  0
 30 31  1  0
 30 33  2  0
 31 32  1  0
 33 34  1  0
 34 35  2  0
 35 36  1  0
  1 37  1  0
  1 38  1  0
  1 39  1  0
  2 40  1  0
  3 41  1  0
  3 42  1  0
  3 43  1  0
  6 44  1  0
  7 45  1  0
 10 46  1  0
 12 47  1  0
 14 48  1  0
 16 49  1  0
 20 50  1  0
 20 51  1  0
 20 52  1  0
 22 53  1  0
 22 54  1  0
 23 55  1  0
 23 56  1  0
 25 57  1  0
 25 58  1  0
 26 59  1  0
 26 60  1  0
 29 61  1  0
 31 62  1  0
 31 63  1  0
 32 64  1  0
 33 65  1  0
 34 66  1  0
 36 67  1  0
 36 68  1  0
 36 69  1  0
A    1
C1
A    2
C2
A    3
C3
A    4
N1
A    5
C4
A    6
C5
A    7
C6
A    8
N2
A    9
C7
A   10
N3
A   11
C8
A   12
C9
A   13
C10
A   14
C11
A   15
C12
A   16
C13
A   17
S1
A   18
O1
A   19
O2
A   20
C14
A   21
N4
A   22
C15
A   23
C16
A   24
O3
A   25
C17
A   26
C18
A   27
N5
A   28
C19
A   29
C20
A   30
C21
A   31
C22
A   32
O4
A   33
C23
A   34
C24
A   35
C25
A   36
C26
M  END
