2XVW_9NR_A_2001
     RDKit          3D

 53 54  0  0  0  0  0  0  0  0999 V2000
   29.6720   15.1020   10.6650 N   0  0  0  0  0  0  0  0  0  0  0  0
   28.8280   14.1990   11.4620 C   0  0  0  0  0  0  0  0  0  0  0  0
   27.3340   14.5070   11.2900 C   0  0  0  0  0  0  0  0  0  0  0  0
   26.5630   13.4470   11.1240 O   0  0  0  0  0  0  0  0  0  0  0  0
   29.2570   14.3000   12.9400 C   0  0  0  0  0  0  0  0  0  0  0  0
   30.7730   14.2390   13.1070 C   0  0  0  0  0  0  0  0  0  0  0  0
   31.1660   13.3180   14.2410 C   0  0  0  0  0  0  0  0  0  0  0  0
   31.1320   14.0420   15.5080 N   0  0  0  0  0  0  0  0  0  0  0  0
   31.4130   13.5330   16.7060 C   0  0  0  0  0  0  0  0  0  0  0  0
   31.7600   12.2530   16.8470 N   0  0  0  0  0  0  0  0  0  0  0  0
   31.3490   14.3210   17.7650 N   0  0  0  0  0  0  0  0  0  0  0  0
   26.9490   15.6500   11.2550 O   0  0  0  0  0  0  0  0  0  0  0  0
   30.0570   14.6820    9.1320 S   0  0  0  0  0  0  0  0  0  0  0  0
   30.1990   13.2490    9.0820 O   0  0  0  0  0  0  0  0  0  0  0  0
   29.0520   15.3040    8.3190 O   0  0  0  0  0  0  0  0  0  0  0  0
   36.6330   16.0820    9.0850 N   0  0  0  0  0  0  0  0  0  0  0  0
   31.6150   15.4400    8.7510 C   0  0  0  0  0  0  0  0  0  0  0  0
   31.5540   16.4770    7.8610 C   0  0  0  0  0  0  0  0  0  0  0  0
   32.7310   17.1670    7.4650 C   0  0  0  0  0  0  0  0  0  0  0  0
   33.9700   16.8100    7.9780 C   0  0  0  0  0  0  0  0  0  0  0  0
   34.1140   15.7250    8.9280 C   0  0  0  0  0  0  0  0  0  0  0  0
   32.9000   14.9870    9.3540 C   0  0  0  0  0  0  0  0  0  0  0  0
   33.0570   13.9150   10.2900 C   0  0  0  0  0  0  0  0  0  0  0  0
   34.3160   13.5730   10.7940 C   0  0  0  0  0  0  0  0  0  0  0  0
   35.4930   14.2750   10.4010 C   0  0  0  0  0  0  0  0  0  0  0  0
   35.4280   15.3410    9.4860 C   0  0  0  0  0  0  0  0  0  0  0  0
   36.8740   17.2260    9.9960 C   0  0  0  0  0  0  0  0  0  0  0  0
   37.9120   15.2830    9.0780 C   0  0  0  0  0  0  0  0  0  0  0  0
   30.5579   15.2177   11.1776 H   0  0  0  0  0  0  0  0  0  0  0  0
   28.9700   13.1681   11.1055 H   0  0  0  0  0  0  0  0  0  0  0  0
   28.8938   15.2541   13.3497 H   0  0  0  0  0  0  0  0  0  0  0  0
   28.8239   13.4427   13.4762 H   0  0  0  0  0  0  0  0  0  0  0  0
   31.2215   13.8688   12.1733 H   0  0  0  0  0  0  0  0  0  0  0  0
   31.1369   15.2505   13.3401 H   0  0  0  0  0  0  0  0  0  0  0  0
   30.4621   12.4738   14.2850 H   0  0  0  0  0  0  0  0  0  0  0  0
   32.1860   12.9452   14.0659 H   0  0  0  0  0  0  0  0  0  0  0  0
   30.8666   15.0366   15.4722 H   0  0  0  0  0  0  0  0  0  0  0  0
   31.9737   11.8773   17.7819 H   0  0  0  0  0  0  0  0  0  0  0  0
   31.3819   13.9156   18.7113 H   0  0  0  0  0  0  0  0  0  0  0  0
   31.2662   15.3405   17.6441 H   0  0  0  0  0  0  0  0  0  0  0  0
   26.7831   16.1425   12.0976 H   0  0  0  0  0  0  0  0  0  0  0  0
   30.5813   16.7805    7.4467 H   0  0  0  0  0  0  0  0  0  0  0  0
   32.6594   17.9940    6.7432 H   0  0  0  0  0  0  0  0  0  0  0  0
   34.8642   17.3638    7.6559 H   0  0  0  0  0  0  0  0  0  0  0  0
   32.1719   13.3505   10.6185 H   0  0  0  0  0  0  0  0  0  0  0  0
   34.4001   12.7427   11.5106 H   0  0  0  0  0  0  0  0  0  0  0  0
   36.4661   13.9785   10.8195 H   0  0  0  0  0  0  0  0  0  0  0  0
   36.8022   16.8853   11.0394 H   0  0  0  0  0  0  0  0  0  0  0  0
   37.8782   17.6358    9.8123 H   0  0  0  0  0  0  0  0  0  0  0  0
   36.1205   18.0060    9.8123 H   0  0  0  0  0  0  0  0  0  0  0  0
   38.2270   15.0862   10.1134 H   0  0  0  0  0  0  0  0  0  0  0  0
   37.7451   14.3283    8.5578 H   0  0  0  0  0  0  0  0  0  0  0  0
   38.6968   15.8517    8.5578 H   0  0  0  0  0  0  0  0  0  0  0  0
 13 14  2  0
 13 15  2  0
 13 17  1  0
 13  1  1  0
 12  3  1  0
 16 26  1  0
 16 27  1  0
 16 28  1  0
 17 18  2  0
 17 22  1  0
 18 19  1  0
 19 20  2  0
 20 21  1  0
 21 22  2  0
 21 26  1  0
 22 23  1  0
 23 24  2  0
 24 25  1  0
 25 26  2  0
  1  2  1  0
  2  3  1  0
  2  5  1  0
  3  4  2  0
  5  6  1  0
  6  7  1  0
  7  8  1  0
  8  9  1  0
  9 10  2  3
  9 11  1  0
  1 29  1  0
  2 30  1  0
  5 31  1  0
  5 32  1  0
  6 33  1  0
  6 34  1  0
  7 35  1  0
  7 36  1  0
  8 37  1  0
 10 38  1  0
 11 39  1  0
 11 40  1  0
 12 41  1  0
 18 42  1  0
 19 43  1  0
 20 44  1  0
 23 45  1  0
 24 46  1  0
 25 47  1  0
 27 48  1  0
 27 49  1  0
 27 50  1  0
 28 51  1  0
 28 52  1  0
 28 53  1  0
A    1
N
A    2
CA
A    3
C
A    4
O
A    5
CB
A    6
CG
A    7
CD
A    8
NE
A    9
CZ
A   10
NH1
A   11
NH2
A   12
OXT
A   13
S1
A   14
O2
A   15
O3
A   16
N1
A   17
C1
A   18
C2
A   19
C3
A   20
C4
A   21
C5
A   22
C6
A   23
C7
A   24
C8
A   25
C9
A   26
C10
A   27
C11
A   28
C12
M  END
