2XW1_9NV_A_2001
     RDKit          3D

 46 47  0  0  0  0  0  0  0  0999 V2000
    7.7810    1.0480  -17.2500 N   0  0  0  0  0  0  0  0  0  0  0  0
    7.5540    2.0770  -18.2370 C   0  0  0  0  0  0  0  0  0  0  0  0
    7.2000    1.5700  -19.6420 C   0  0  0  0  0  0  0  0  0  0  0  0
    8.8110    2.9150  -18.3830 C   0  0  0  0  0  0  0  0  0  0  0  0
    8.6920    4.4190  -18.1980 C   0  0  0  0  0  0  0  0  0  0  0  0
   10.0630    5.0570  -18.3900 C   0  0  0  0  0  0  0  0  0  0  0  0
    7.0850    1.0680  -15.7920 S   0  0  0  0  0  0  0  0  0  0  0  0
    5.9140    1.9090  -15.8110 O   0  0  0  0  0  0  0  0  0  0  0  0
    6.8880   -0.3310  -15.5170 O   0  0  0  0  0  0  0  0  0  0  0  0
    8.2870    1.6960  -14.6590 C   0  0  0  0  0  0  0  0  0  0  0  0
    7.9370    2.8180  -13.8940 C   0  0  0  0  0  0  0  0  0  0  0  0
    8.8560    3.3890  -12.9440 C   0  0  0  0  0  0  0  0  0  0  0  0
   10.1290    2.8350  -12.7870 C   0  0  0  0  0  0  0  0  0  0  0  0
   10.5640    1.6570  -13.5440 C   0  0  0  0  0  0  0  0  0  0  0  0
    9.6260    1.0570  -14.5470 C   0  0  0  0  0  0  0  0  0  0  0  0
   10.0700   -0.1050  -15.2790 C   0  0  0  0  0  0  0  0  0  0  0  0
   11.3590   -0.6680  -15.1140 C   0  0  0  0  0  0  0  0  0  0  0  0
   12.2910   -0.0860  -14.1550 C   0  0  0  0  0  0  0  0  0  0  0  0
   11.9260    1.1000  -13.3540 C   0  0  0  0  0  0  0  0  0  0  0  0
   12.7980    1.7450  -12.3710 N   0  0  0  0  0  0  0  0  0  0  0  0
   13.2440    0.8210  -11.3090 C   0  0  0  0  0  0  0  0  0  0  0  0
   14.0220    2.3250  -12.9760 C   0  0  0  0  0  0  0  0  0  0  0  0
    7.4944    0.1622  -17.6906 H   0  0  0  0  0  0  0  0  0  0  0  0
    6.6875    2.6405  -17.8606 H   0  0  0  0  0  0  0  0  0  0  0  0
    6.5720    0.6706  -19.5598 H   0  0  0  0  0  0  0  0  0  0  0  0
    6.6507    2.3522  -20.1865 H   0  0  0  0  0  0  0  0  0  0  0  0
    8.1236    1.3239  -20.1865 H   0  0  0  0  0  0  0  0  0  0  0  0
    9.5352    2.5504  -17.6397 H   0  0  0  0  0  0  0  0  0  0  0  0
    9.1033    2.7902  -19.4361 H   0  0  0  0  0  0  0  0  0  0  0  0
    7.9893    4.8266  -18.9397 H   0  0  0  0  0  0  0  0  0  0  0  0
    8.3201    4.6389  -17.1864 H   0  0  0  0  0  0  0  0  0  0  0  0
   10.5112    5.2656  -17.4074 H   0  0  0  0  0  0  0  0  0  0  0  0
   10.7125    4.3686  -18.9506 H   0  0  0  0  0  0  0  0  0  0  0  0
    9.9546    5.9972  -18.9506 H   0  0  0  0  0  0  0  0  0  0  0  0
    6.9424    3.2700  -14.0220 H   0  0  0  0  0  0  0  0  0  0  0  0
    8.5563    4.2600  -12.3428 H   0  0  0  0  0  0  0  0  0  0  0  0
   10.8268    3.2971  -12.0731 H   0  0  0  0  0  0  0  0  0  0  0  0
    9.3783   -0.5729  -15.9950 H   0  0  0  0  0  0  0  0  0  0  0  0
   11.6571   -1.5439  -15.7089 H   0  0  0  0  0  0  0  0  0  0  0  0
   13.2850   -0.5391  -14.0258 H   0  0  0  0  0  0  0  0  0  0  0  0
   13.0305    1.2633  -10.3247 H   0  0  0  0  0  0  0  0  0  0  0  0
   12.7080   -0.1347  -11.4056 H   0  0  0  0  0  0  0  0  0  0  0  0
   14.3257    0.6461  -11.4056 H   0  0  0  0  0  0  0  0  0  0  0  0
   14.7068    2.6495  -12.1786 H   0  0  0  0  0  0  0  0  0  0  0  0
   14.5180    1.5662  -13.5990 H   0  0  0  0  0  0  0  0  0  0  0  0
   13.7488    3.1894  -13.5990 H   0  0  0  0  0  0  0  0  0  0  0  0
  1  2  1  0
  1  7  1  0
  2  4  1  0
  2  3  1  0
  4  5  1  0
  5  6  1  0
  7  8  2  0
  7  9  2  0
  7 10  1  0
 10 11  2  0
 10 15  1  0
 11 12  1  0
 12 13  2  0
 13 14  1  0
 14 15  2  0
 14 19  1  0
 15 16  1  0
 16 17  2  0
 17 18  1  0
 18 19  2  0
 19 20  1  0
 20 22  1  0
 20 21  1  0
  1 23  1  0
  2 24  1  0
  3 25  1  0
  3 26  1  0
  3 27  1  0
  4 28  1  0
  4 29  1  0
  5 30  1  0
  5 31  1  0
  6 32  1  0
  6 33  1  0
  6 34  1  0
 11 35  1  0
 12 36  1  0
 13 37  1  0
 16 38  1  0
 17 39  1  0
 18 40  1  0
 21 41  1  0
 21 42  1  0
 21 43  1  0
 22 44  1  0
 22 45  1  0
 22 46  1  0
A    1
N
A    2
CA
A    3
C
A    4
CB
A    5
CG
A    6
CD
A    7
S8
A    8
O9
A    9
O10
A   10
C11
A   11
C12
A   12
C13
A   13
C14
A   14
C15
A   15
C16
A   16
C17
A   17
C18
A   18
C19
A   19
C20
A   20
N21
A   21
C23
A   22
C22
M  END
