2XWO_SLM_A_1309
     RDKit          3D

 41 41  0  0  0  0  0  0  0  0999 V2000
    7.6160   -9.1610  -11.0440 C   0  0  0  0  0  0  0  0  0  0  0  0
    8.8740   -8.9460  -11.9150 C   0  0  0  0  0  0  0  0  0  0  0  0
   10.0680   -8.5340  -11.0110 C   0  0  0  0  0  0  0  0  0  0  0  0
   11.2360   -8.0670  -11.8630 C   0  0  0  0  0  0  0  0  0  0  0  0
   10.7570   -6.9320  -12.7410 C   0  0  0  0  0  0  0  0  0  0  0  0
    9.6220   -7.4670  -13.6250 C   0  0  0  0  0  0  0  0  0  0  0  0
    9.0630   -6.4750  -14.6230 C   0  0  0  0  0  0  0  0  0  0  0  0
    7.9400   -7.1020  -15.4540 C   0  0  0  0  0  0  0  0  0  0  0  0
    7.4400   -6.1460  -16.4930 C   0  0  0  0  0  0  0  0  0  0  0  0
   12.3680   -5.1940  -13.4160 C   0  0  0  0  0  0  0  0  0  0  0  0
   13.4480   -4.7980  -14.4330 C   0  0  0  0  0  0  0  0  0  0  0  0
   11.8540   -6.3950  -13.5840 N   0  0  0  0  0  0  0  0  0  0  0  0
    7.2480  -10.3080  -10.7720 O   0  0  0  0  0  0  0  0  0  0  0  0
    9.1640  -10.1510  -12.6170 O   0  0  0  0  0  0  0  0  0  0  0  0
   12.3260   -7.6810  -11.0020 O   0  0  0  0  0  0  0  0  0  0  0  0
    8.5630   -7.9010  -12.7670 O   0  0  0  0  0  0  0  0  0  0  0  0
    8.5500   -5.3220  -13.9730 O   0  0  0  0  0  0  0  0  0  0  0  0
    8.3960   -8.3360  -16.0580 O   0  0  0  0  0  0  0  0  0  0  0  0
    8.3620   -5.7470  -17.4980 O   0  0  0  0  0  0  0  0  0  0  0  0
    6.9990   -8.0300  -10.6190 N   0  0  0  0  0  0  0  0  0  0  0  0
   12.0120   -4.4070  -12.5450 O   0  0  0  0  0  0  0  0  0  0  0  0
    9.7543   -7.7164  -10.3454 H   0  0  0  0  0  0  0  0  0  0  0  0
   10.3836   -9.4035  -10.4158 H   0  0  0  0  0  0  0  0  0  0  0  0
   11.6083   -8.8702  -12.5159 H   0  0  0  0  0  0  0  0  0  0  0  0
   10.4020   -6.1050  -12.1085 H   0  0  0  0  0  0  0  0  0  0  0  0
   10.0525   -8.2816  -14.2259 H   0  0  0  0  0  0  0  0  0  0  0  0
    9.8951   -6.1856  -15.2817 H   0  0  0  0  0  0  0  0  0  0  0  0
    7.0981   -7.3321  -14.7845 H   0  0  0  0  0  0  0  0  0  0  0  0
    6.5847   -6.6203  -16.9965 H   0  0  0  0  0  0  0  0  0  0  0  0
    7.2004   -5.2244  -15.9423 H   0  0  0  0  0  0  0  0  0  0  0  0
   14.3508   -4.4670  -13.8989 H   0  0  0  0  0  0  0  0  0  0  0  0
   13.6926   -5.6649  -15.0644 H   0  0  0  0  0  0  0  0  0  0  0  0
   13.0743   -3.9784  -15.0644 H   0  0  0  0  0  0  0  0  0  0  0  0
   12.2312   -6.9895  -14.3358 H   0  0  0  0  0  0  0  0  0  0  0  0
    9.3388  -10.8774  -11.9675 H   0  0  0  0  0  0  0  0  0  0  0  0
   12.0500   -7.7787  -10.0563 H   0  0  0  0  0  0  0  0  0  0  0  0
    8.6045   -5.4445  -12.9921 H   0  0  0  0  0  0  0  0  0  0  0  0
    8.6349   -8.9826  -15.3474 H   0  0  0  0  0  0  0  0  0  0  0  0
    9.1819   -5.3922  -17.0715 H   0  0  0  0  0  0  0  0  0  0  0  0
    6.8986   -7.8460   -9.6106 H   0  0  0  0  0  0  0  0  0  0  0  0
    6.6310   -7.3553  -11.3048 H   0  0  0  0  0  0  0  0  0  0  0  0
  1  2  1  0
  1 13  2  0
  1 20  1  0
  2  3  1  0
  2 14  1  0
  2 16  1  0
  3  4  1  0
  4  5  1  0
  4 15  1  0
  5  6  1  0
  5 12  1  0
  6  7  1  0
  6 16  1  0
  7  8  1  0
  7 17  1  0
  8  9  1  0
  8 18  1  0
  9 19  1  0
 10 11  1  0
 10 12  1  0
 10 21  2  0
  3 22  1  0
  3 23  1  0
  4 24  1  0
  5 25  1  0
  6 26  1  0
  7 27  1  0
  8 28  1  0
  9 29  1  0
  9 30  1  0
 11 31  1  0
 11 32  1  0
 11 33  1  0
 12 34  1  0
 14 35  1  0
 15 36  1  0
 17 37  1  0
 18 38  1  0
 19 39  1  0
 20 40  1  0
 20 41  1  0
A    1
C1
A    2
C2
A    3
C3
A    4
C4
A    5
C5
A    6
C6
A    7
C7
A    8
C8
A    9
C9
A   10
C10
A   11
C11
A   12
N5
A   13
O1A
A   14
O2
A   15
O4
A   16
O6
A   17
O7
A   18
O8
A   19
O9
A   20
N1
A   21
O10
M  END
