2XX4_13I_A_1215
     RDKit          3D

 54 55  0  0  0  0  0  0  0  0999 V2000
  -19.8690    4.6060   -4.6370 C   0  0  0  0  0  0  0  0  0  0  0  0
  -19.9290    5.5670   -3.5110 C   0  0  0  0  0  0  0  0  0  0  0  0
  -19.0490    5.3540   -2.3820 C   0  0  0  0  0  0  0  0  0  0  0  0
  -18.1010    4.1900   -2.3580 C   0  0  0  0  0  0  0  0  0  0  0  0
  -18.0410    3.2140   -3.4850 C   0  0  0  0  0  0  0  0  0  0  0  0
  -18.8970    3.4220   -4.6050 C   0  0  0  0  0  0  0  0  0  0  0  0
  -18.9320    2.4760   -5.7590 C   0  0  0  0  0  0  0  0  0  0  0  0
  -19.9260    1.7710   -5.9160 O   0  0  0  0  0  0  0  0  0  0  0  0
  -17.8310    2.4350   -6.6650 N   0  0  0  0  0  0  0  0  0  0  0  0
  -17.8690    1.6280   -7.8870 C   0  0  0  0  0  0  0  0  0  0  0  0
  -16.5480    1.5590   -8.6220 C   0  0  0  0  0  0  0  0  0  0  0  0
  -15.3470    1.1440   -7.8180 C   0  0  0  0  0  0  0  0  0  0  0  0
  -14.3570    2.0690   -7.4380 C   0  0  0  0  0  0  0  0  0  0  0  0
  -13.2240    1.6740   -6.4840 C   0  0  0  0  0  0  0  0  0  0  0  0
  -13.4270    0.4550   -5.6310 C   0  0  0  0  0  0  0  0  0  0  0  0
  -14.3810    0.5620   -4.4450 C   0  0  0  0  0  0  0  0  0  0  0  0
  -14.3050    1.8470   -3.6850 C   0  0  0  0  0  0  0  0  0  0  0  0
  -15.6050    2.6820   -3.6890 C   0  0  0  0  0  0  0  0  0  0  0  0
  -16.9860    2.1230   -3.4560 C   0  0  0  0  0  0  0  0  0  0  0  0
  -15.4790    3.8610   -3.9760 O   0  0  0  0  0  0  0  0  0  0  0  0
  -13.6250    1.8190   -2.3470 C   0  0  0  0  0  0  0  0  0  0  0  0
  -13.4100    2.9070   -1.7970 O   0  0  0  0  0  0  0  0  0  0  0  0
  -12.8610    0.8350   -2.0140 O   0  0  0  0  0  0  0  0  0  0  0  0
  -12.3450    0.8460   -0.6790 C   0  0  0  0  0  0  0  0  0  0  0  0
  -10.9580    1.3700   -0.4830 C   0  0  0  0  0  0  0  0  0  0  0  0
  -17.1330    3.9160   -0.9510 Cl  0  0  0  0  0  0  0  0  0  0  0  0
  -19.0420    6.2340   -1.3250 O   0  0  0  0  0  0  0  0  0  0  0  0
  -20.6540    4.7410   -5.7530 O   0  0  0  0  0  0  0  0  0  0  0  0
  -20.6238    6.4195   -3.5325 H   0  0  0  0  0  0  0  0  0  0  0  0
  -16.9874    2.9871   -6.4545 H   0  0  0  0  0  0  0  0  0  0  0  0
  -18.1677    0.6046   -7.6162 H   0  0  0  0  0  0  0  0  0  0  0  0
  -18.5854    2.1135   -8.5661 H   0  0  0  0  0  0  0  0  0  0  0  0
  -16.6624    0.8389   -9.4456 H   0  0  0  0  0  0  0  0  0  0  0  0
  -16.3401    2.5916   -8.9389 H   0  0  0  0  0  0  0  0  0  0  0  0
  -15.2396    0.0908   -7.5194 H   0  0  0  0  0  0  0  0  0  0  0  0
  -14.3969    3.0949   -7.8330 H   0  0  0  0  0  0  0  0  0  0  0  0
  -12.3247    1.5029   -7.0940 H   0  0  0  0  0  0  0  0  0  0  0  0
  -13.1573    2.5074   -5.7691 H   0  0  0  0  0  0  0  0  0  0  0  0
  -13.8072   -0.3429   -6.2858 H   0  0  0  0  0  0  0  0  0  0  0  0
  -12.4425    0.2706   -5.1762 H   0  0  0  0  0  0  0  0  0  0  0  0
  -15.4081    0.4494   -4.8224 H   0  0  0  0  0  0  0  0  0  0  0  0
  -14.0844   -0.2290   -3.7405 H   0  0  0  0  0  0  0  0  0  0  0  0
  -13.5861    2.3999   -4.3075 H   0  0  0  0  0  0  0  0  0  0  0  0
  -17.0102    1.6286   -2.4737 H   0  0  0  0  0  0  0  0  0  0  0  0
  -17.2084    1.4070   -4.2609 H   0  0  0  0  0  0  0  0  0  0  0  0
  -14.5092    1.4394   -1.8140 H   0  0  0  0  0  0  0  0  0  0  0  0
  -13.4331    2.7902   -0.8142 H   0  0  0  0  0  0  0  0  0  0  0  0
  -13.0206    1.4636   -0.0689 H   0  0  0  0  0  0  0  0  0  0  0  0
  -12.2896   -0.2137   -0.3894 H   0  0  0  0  0  0  0  0  0  0  0  0
  -10.7451    1.4504    0.5932 H   0  0  0  0  0  0  0  0  0  0  0  0
  -10.2370    0.6823   -0.9490 H   0  0  0  0  0  0  0  0  0  0  0  0
  -10.8718    2.3627   -0.9490 H   0  0  0  0  0  0  0  0  0  0  0  0
  -19.0447    5.8918   -0.3960 H   0  0  0  0  0  0  0  0  0  0  0  0
  -21.6252    4.9080   -5.6578 H   0  0  0  0  0  0  0  0  0  0  0  0
  1  2  2  0
  1  6  1  0
  1 28  1  0
  2  3  1  0
  3  4  2  0
  3 27  1  0
  4  5  1  0
  4 26  1  0
  5  6  2  0
  5 19  1  0
  6  7  1  0
  7  8  2  0
  7  9  1  0
  9 10  1  0
 10 11  1  0
 11 12  1  0
 12 13  2  0
 13 14  1  0
 14 15  1  0
 15 16  1  0
 16 17  1  0
 17 18  1  0
 17 21  1  0
 18 19  1  0
 18 20  2  0
 21 22  1  0
 21 23  1  0
 23 24  1  0
 24 25  1  0
  2 29  1  0
  9 30  1  0
 10 31  1  0
 10 32  1  0
 11 33  1  0
 11 34  1  0
 12 35  1  0
 13 36  1  0
 14 37  1  0
 14 38  1  0
 15 39  1  0
 15 40  1  0
 16 41  1  0
 16 42  1  0
 17 43  1  0
 19 44  1  0
 19 45  1  0
 21 46  1  0
 22 47  1  0
 24 48  1  0
 24 49  1  0
 25 50  1  0
 25 51  1  0
 25 52  1  0
 27 53  1  0
 28 54  1  0
A    1
C01
A    2
C02
A    3
C03
A    4
C04
A    5
C05
A    6
C06
A    7
C07
A    8
O08
A    9
N09
A   10
C10
A   11
C11
A   12
C12
A   13
C13
A   14
C14
A   15
C15
A   16
C16
A   17
C17
A   18
C18
A   19
C19
A   20
O20
A   21
C21
A   22
O22
A   23
O23
A   24
C24
A   25
C25
A   26
CL
A   27
O27
A   28
O28
M  END
