2XYA_7L4_A_1181
     RDKit          3D

 28 30  0  0  0  0  0  0  0  0999 V2000
    6.8670   33.0100   22.1270 C   0  0  0  0  0  0  0  0  0  0  0  0
    6.4070   31.8810   22.7880 C   0  0  0  0  0  0  0  0  0  0  0  0
    6.8980   30.6140   22.4660 C   0  0  0  0  0  0  0  0  0  0  0  0
    7.8700   30.4790   21.4780 C   0  0  0  0  0  0  0  0  0  0  0  0
    8.3360   31.6020   20.8030 C   0  0  0  0  0  0  0  0  0  0  0  0
    7.8390   32.8550   21.1350 C   0  0  0  0  0  0  0  0  0  0  0  0
    8.4060   29.1490   21.1310 C   0  0  0  0  0  0  0  0  0  0  0  0
    7.5020   28.0860   20.9130 C   0  0  0  0  0  0  0  0  0  0  0  0
    8.0050   26.8570   20.5720 C   0  0  0  0  0  0  0  0  0  0  0  0
    9.4070   26.6950   20.4450 C   0  0  0  0  0  0  0  0  0  0  0  0
    9.9590   25.4580   20.1160 C   0  0  0  0  0  0  0  0  0  0  0  0
   11.3200   25.3100   20.0000 C   0  0  0  0  0  0  0  0  0  0  0  0
   12.1600   26.3940   20.2430 C   0  0  0  0  0  0  0  0  0  0  0  0
   11.6390   27.6220   20.5520 C   0  0  0  0  0  0  0  0  0  0  0  0
   10.2600   27.8030   20.6700 C   0  0  0  0  0  0  0  0  0  0  0  0
    9.7290   28.9950   21.0010 N   0  0  0  0  0  0  0  0  0  0  0  0
    7.1750   25.7980   20.3820 O   0  0  0  0  0  0  0  0  0  0  0  0
    6.4750   34.0066   22.3783 H   0  0  0  0  0  0  0  0  0  0  0  0
    5.6461   31.9848   23.5756 H   0  0  0  0  0  0  0  0  0  0  0  0
    6.5181   29.7253   22.9912 H   0  0  0  0  0  0  0  0  0  0  0  0
    9.0930   31.4982   20.0117 H   0  0  0  0  0  0  0  0  0  0  0  0
    8.2175   33.7427   20.6072 H   0  0  0  0  0  0  0  0  0  0  0  0
    6.4177   28.2408   21.0146 H   0  0  0  0  0  0  0  0  0  0  0  0
    9.2998   24.5936   19.9479 H   0  0  0  0  0  0  0  0  0  0  0  0
   11.7457   24.3364   19.7155 H   0  0  0  0  0  0  0  0  0  0  0  0
   13.2506   26.2626   20.1862 H   0  0  0  0  0  0  0  0  0  0  0  0
   12.3149   28.4756   20.7090 H   0  0  0  0  0  0  0  0  0  0  0  0
    6.7987   25.3179   21.1617 H   0  0  0  0  0  0  0  0  0  0  0  0
  1  2  2  0
  1  6  1  0
  2  3  1  0
  3  4  2  0
  4  5  1  0
  4  7  1  0
  5  6  2  0
  7  8  2  0
  7 16  1  0
  8  9  1  0
  9 10  2  0
  9 17  1  0
 10 11  1  0
 10 15  1  0
 11 12  2  0
 12 13  1  0
 13 14  2  0
 14 15  1  0
 15 16  2  0
  1 18  1  0
  2 19  1  0
  3 20  1  0
  5 21  1  0
  6 22  1  0
  8 23  1  0
 11 24  1  0
 12 25  1  0
 13 26  1  0
 14 27  1  0
 17 28  1  0
A    1
C1
A    2
C2
A    3
C3
A    4
C4
A    5
C5
A    6
C6
A    7
C7
A    8
C8
A    9
C9
A   10
C10
A   11
C11
A   12
C12
A   13
C13
A   14
C14
A   15
C15
A   16
N16
A   17
O17
M  END
