2XYJ_WLM_A_1441
     RDKit          3D

 55 57  0  0  0  0  0  0  0  0999 V2000
   -2.5760  -11.0060   52.5250 C   0  0  0  0  0  0  0  0  0  0  0  0
   -1.5230  -11.5560   53.2560 C   0  0  0  0  0  0  0  0  0  0  0  0
   -3.4710  -11.8420   51.8710 C   0  0  0  0  0  0  0  0  0  0  0  0
   -2.8130   -9.5580   52.4100 C   0  0  0  0  0  0  0  0  0  0  0  0
   -1.3790  -12.9570   53.3140 C   0  0  0  0  0  0  0  0  0  0  0  0
   -0.6490  -10.6890   53.9020 O   0  0  0  0  0  0  0  0  0  0  0  0
   -3.3100  -13.2040   51.9580 C   0  0  0  0  0  0  0  0  0  0  0  0
   -1.9120   -8.7280   52.9630 N   0  0  0  0  0  0  0  0  0  0  0  0
   -3.8130   -9.1310   51.8380 O   0  0  0  0  0  0  0  0  0  0  0  0
   -2.2770  -13.7800   52.6630 C   0  0  0  0  0  0  0  0  0  0  0  0
    0.3780  -11.2760   54.6830 C   0  0  0  0  0  0  0  0  0  0  0  0
   -4.4460  -14.2070   51.1660 Cl  0  0  0  0  0  0  0  0  0  0  0  0
   -2.0330   -7.2910   52.7960 C   0  0  0  0  0  0  0  0  0  0  0  0
   -1.3410   -6.5660   53.9580 C   0  0  0  0  0  0  0  0  0  0  0  0
    0.1580   -6.7770   53.9780 C   0  0  0  0  0  0  0  0  0  0  0  0
    0.7640   -7.5570   54.9680 C   0  0  0  0  0  0  0  0  0  0  0  0
    0.9650   -6.1940   53.0030 C   0  0  0  0  0  0  0  0  0  0  0  0
    2.1480   -7.7300   55.0020 C   0  0  0  0  0  0  0  0  0  0  0  0
    2.3450   -6.3570   53.0320 C   0  0  0  0  0  0  0  0  0  0  0  0
    2.9390   -7.1220   54.0290 C   0  0  0  0  0  0  0  0  0  0  0  0
    4.7170   -7.2770   54.0820 S   0  0  0  0  0  0  0  0  0  0  0  0
    5.3490   -7.8350   52.5610 N   0  0  0  0  0  0  0  0  0  0  0  0
    5.1090   -8.2680   55.0580 O   0  0  0  0  0  0  0  0  0  0  0  0
    5.2590   -5.9510   54.1770 O   0  0  0  0  0  0  0  0  0  0  0  0
    5.0910   -9.2090   52.2690 C   0  0  0  0  0  0  0  0  0  0  0  0
    4.6450  -10.4310   53.4310 S   0  0  0  0  0  0  0  0  0  0  0  0
    5.1910   -9.6850   51.0450 N   0  0  0  0  0  0  0  0  0  0  0  0
    4.5370  -11.5280   52.0750 C   0  0  0  0  0  0  0  0  0  0  0  0
    4.8650  -11.0150   50.9500 N   0  0  0  0  0  0  0  0  0  0  0  0
    4.0590  -12.9800   52.2060 C   0  0  0  0  0  0  0  0  0  0  0  0
    3.9650  -13.4460   53.6630 C   0  0  0  0  0  0  0  0  0  0  0  0
    4.8270  -13.9180   51.2530 C   0  0  0  0  0  0  0  0  0  0  0  0
   -4.3019  -11.4178   51.2882 H   0  0  0  0  0  0  0  0  0  0  0  0
   -0.5460  -13.3977   53.8814 H   0  0  0  0  0  0  0  0  0  0  0  0
   -1.1293   -9.1146   53.5097 H   0  0  0  0  0  0  0  0  0  0  0  0
   -2.1691  -14.8738   52.7069 H   0  0  0  0  0  0  0  0  0  0  0  0
    0.1476  -11.1443   55.7505 H   0  0  0  0  0  0  0  0  0  0  0  0
    0.4460  -12.3494   54.4523 H   0  0  0  0  0  0  0  0  0  0  0  0
    1.3374  -10.7899   54.4523 H   0  0  0  0  0  0  0  0  0  0  0  0
   -1.5604   -6.9936   51.8483 H   0  0  0  0  0  0  0  0  0  0  0  0
   -3.0985   -7.0179   52.7842 H   0  0  0  0  0  0  0  0  0  0  0  0
   -1.5421   -5.4883   53.8683 H   0  0  0  0  0  0  0  0  0  0  0  0
   -1.7445   -6.9825   54.8927 H   0  0  0  0  0  0  0  0  0  0  0  0
    0.1392   -8.0421   55.7324 H   0  0  0  0  0  0  0  0  0  0  0  0
    0.5046   -5.5980   52.2012 H   0  0  0  0  0  0  0  0  0  0  0  0
    2.6111   -8.3414   55.7905 H   0  0  0  0  0  0  0  0  0  0  0  0
    2.9695   -5.8788   52.2630 H   0  0  0  0  0  0  0  0  0  0  0  0
    5.8701   -7.2208   51.9191 H   0  0  0  0  0  0  0  0  0  0  0  0
    3.0155  -13.0275   51.8612 H   0  0  0  0  0  0  0  0  0  0  0  0
    4.1375  -12.5910   54.3333 H   0  0  0  0  0  0  0  0  0  0  0  0
    2.9646  -13.8631   53.8507 H   0  0  0  0  0  0  0  0  0  0  0  0
    4.7254  -14.2183   53.8507 H   0  0  0  0  0  0  0  0  0  0  0  0
    5.4157  -14.6370   51.8417 H   0  0  0  0  0  0  0  0  0  0  0  0
    4.1117  -14.4621   50.6187 H   0  0  0  0  0  0  0  0  0  0  0  0
    5.5015  -13.3241   50.6187 H   0  0  0  0  0  0  0  0  0  0  0  0
  1  2  2  0
  1  3  1  0
  1  4  1  0
  2  5  1  0
  2  6  1  0
  3  7  2  0
  4  8  1  0
  4  9  2  0
  5 10  2  0
  6 11  1  0
  7 10  1  0
  7 12  1  0
  8 13  1  0
 13 14  1  0
 14 15  1  0
 15 16  2  0
 15 17  1  0
 16 18  1  0
 17 19  2  0
 18 20  2  0
 19 20  1  0
 20 21  1  0
 21 22  1  0
 21 23  2  0
 21 24  2  0
 22 25  1  0
 25 26  1  0
 25 27  2  0
 26 28  1  0
 27 29  1  0
 28 29  2  0
 28 30  1  0
 30 31  1  0
 30 32  1  0
  3 33  1  0
  5 34  1  0
  8 35  1  0
 10 36  1  0
 11 37  1  0
 11 38  1  0
 11 39  1  0
 13 40  1  0
 13 41  1  0
 14 42  1  0
 14 43  1  0
 16 44  1  0
 17 45  1  0
 18 46  1  0
 19 47  1  0
 22 48  1  0
 30 49  1  0
 31 50  1  0
 31 51  1  0
 31 52  1  0
 32 53  1  0
 32 54  1  0
 32 55  1  0
A    1
C1
A    2
C2
A    3
C3
A    4
C4
A    5
C5
A    6
O6
A    7
C7
A    8
N8
A    9
O9
A   10
C10
A   11
C11
A   12
CL
A   13
C13
A   14
C14
A   15
C15
A   16
C16
A   17
C17
A   18
C18
A   19
C19
A   20
C20
A   21
S21
A   22
N22
A   23
O23
A   24
O24
A   25
C25
A   26
S26
A   27
N27
A   28
C28
A   29
N29
A   30
C30
A   31
C31
A   32
C32
M  END
