2XYW_08S_A_1441
     RDKit          3D

 54 57  0  0  0  0  0  0  0  0999 V2000
   18.0170   -1.0850   41.6240 C   0  0  0  0  0  0  0  0  0  0  0  0
   20.1140   -1.8770   42.7420 C   0  0  0  0  0  0  0  0  0  0  0  0
   14.8540   -1.7880   36.1740 C   0  0  0  0  0  0  0  0  0  0  0  0
   14.8900   -4.1100   35.2210 C   0  0  0  0  0  0  0  0  0  0  0  0
   16.2370   -1.7640   36.1820 C   0  0  0  0  0  0  0  0  0  0  0  0
   16.2900   -4.0340   35.2350 C   0  0  0  0  0  0  0  0  0  0  0  0
   11.8650   -1.7870   45.1540 C   0  0  0  0  0  0  0  0  0  0  0  0
   11.5010   -2.3630   43.9930 C   0  0  0  0  0  0  0  0  0  0  0  0
   13.8530   -0.7400   43.9560 C   0  0  0  0  0  0  0  0  0  0  0  0
   12.6960   -3.0870   35.6540 C   0  0  0  0  0  0  0  0  0  0  0  0
   12.3030   -3.5750   36.9500 C   0  0  0  0  0  0  0  0  0  0  0  0
   14.1690   -2.9800   35.6790 C   0  0  0  0  0  0  0  0  0  0  0  0
   16.9230   -2.8690   35.7100 C   0  0  0  0  0  0  0  0  0  0  0  0
   12.9770   -1.0200   45.1210 C   0  0  0  0  0  0  0  0  0  0  0  0
   12.2520   -2.1430   42.8100 C   0  0  0  0  0  0  0  0  0  0  0  0
   13.4280   -1.3500   42.7270 C   0  0  0  0  0  0  0  0  0  0  0  0
   11.8940   -2.6830   41.6390 C   0  0  0  0  0  0  0  0  0  0  0  0
   12.5720   -2.4510   40.5140 C   0  0  0  0  0  0  0  0  0  0  0  0
   19.4290   -2.4360   40.3780 C   0  0  0  0  0  0  0  0  0  0  0  0
   19.1840   -3.5010   38.1940 C   0  0  0  0  0  0  0  0  0  0  0  0
   19.5010   -1.4130   41.4380 C   0  0  0  0  0  0  0  0  0  0  0  0
   12.1050   -3.0040   39.2460 C   0  0  0  0  0  0  0  0  0  0  0  0
   19.5230   -3.7720   40.4470 N   0  0  0  0  0  0  0  0  0  0  0  0
   19.3750   -4.3950   39.1920 N   0  0  0  0  0  0  0  0  0  0  0  0
   12.7660   -2.7600   38.1240 N   0  0  0  0  0  0  0  0  0  0  0  0
   19.0230   -3.9410   36.8380 N   0  0  0  0  0  0  0  0  0  0  0  0
   11.1080   -3.6770   39.0920 O   0  0  0  0  0  0  0  0  0  0  0  0
   19.0040   -1.5040   35.7550 O   0  0  0  0  0  0  0  0  0  0  0  0
   18.9540   -3.3700   34.4100 O   0  0  0  0  0  0  0  0  0  0  0  0
   13.1080   -0.6050   46.3370 F   0  0  0  0  0  0  0  0  0  0  0  0
   13.9610   -1.4330   40.9760 S   0  0  0  0  0  0  0  0  0  0  0  0
   19.1700   -1.8300   38.8240 S   0  0  0  0  0  0  0  0  0  0  0  0
   18.6240   -2.8980   35.6920 S   0  0  0  0  0  0  0  0  0  0  0  0
   10.5290   -3.5450   41.7370 Cl  0  0  0  0  0  0  0  0  0  0  0  0
   17.7846   -1.0336   42.6980 H   0  0  0  0  0  0  0  0  0  0  0  0
   17.7940   -0.1159   41.1538 H   0  0  0  0  0  0  0  0  0  0  0  0
   17.4063   -1.8698   41.1538 H   0  0  0  0  0  0  0  0  0  0  0  0
   19.5502   -1.4502   43.5846 H   0  0  0  0  0  0  0  0  0  0  0  0
   20.0766   -2.9751   42.7945 H   0  0  0  0  0  0  0  0  0  0  0  0
   21.1607   -1.5429   42.7945 H   0  0  0  0  0  0  0  0  0  0  0  0
   14.2785   -0.9228   36.5348 H   0  0  0  0  0  0  0  0  0  0  0  0
   14.3711   -5.0132   34.8676 H   0  0  0  0  0  0  0  0  0  0  0  0
   16.7806   -0.8839   36.5562 H   0  0  0  0  0  0  0  0  0  0  0  0
   16.8921   -4.8817   34.8761 H   0  0  0  0  0  0  0  0  0  0  0  0
   11.2885   -1.9328   46.0794 H   0  0  0  0  0  0  0  0  0  0  0  0
   10.6124   -3.0106   43.9614 H   0  0  0  0  0  0  0  0  0  0  0  0
   14.7555   -0.1153   44.0280 H   0  0  0  0  0  0  0  0  0  0  0  0
   12.3787   -3.7905   34.8701 H   0  0  0  0  0  0  0  0  0  0  0  0
   12.2288   -2.1156   35.4346 H   0  0  0  0  0  0  0  0  0  0  0  0
   11.2040   -3.6122   36.9775 H   0  0  0  0  0  0  0  0  0  0  0  0
   12.7870   -4.5568   37.0587 H   0  0  0  0  0  0  0  0  0  0  0  0
   20.1550   -0.5746   41.1562 H   0  0  0  0  0  0  0  0  0  0  0  0
   13.5301   -2.0721   38.0621 H   0  0  0  0  0  0  0  0  0  0  0  0
   19.1650   -4.9333   36.6010 H   0  0  0  0  0  0  0  0  0  0  0  0
  1 21  1  0
  2 21  1  0
  3  5  2  0
  3 12  1  0
  4  6  1  0
  4 12  2  0
  5 13  1  0
  6 13  2  0
  7  8  2  0
  7 14  1  0
  8 15  1  0
  9 14  2  0
  9 16  1  0
 10 11  1  0
 10 12  1  0
 11 25  1  0
 13 33  1  0
 14 30  1  0
 15 16  2  0
 15 17  1  0
 16 31  1  0
 17 18  2  0
 17 34  1  0
 18 22  1  0
 18 31  1  0
 19 21  1  0
 19 23  2  0
 19 32  1  0
 20 24  2  0
 20 26  1  0
 20 32  1  0
 22 25  1  0
 22 27  2  0
 23 24  1  0
 26 33  1  0
 28 33  2  0
 29 33  2  0
  1 35  1  0
  1 36  1  0
  1 37  1  0
  2 38  1  0
  2 39  1  0
  2 40  1  0
  3 41  1  0
  4 42  1  0
  5 43  1  0
  6 44  1  0
  7 45  1  0
  8 46  1  0
  9 47  1  0
 10 48  1  0
 10 49  1  0
 11 50  1  0
 11 51  1  0
 21 52  1  0
 25 53  1  0
 26 54  1  0
A    1
C1
A    2
C2
A    3
C3
A    4
C4
A    5
C5
A    6
C6
A    7
C7
A    8
C8
A    9
C9
A   10
C10
A   11
C11
A   12
C12
A   13
C13
A   14
C14
A   15
C15
A   16
C16
A   17
C17
A   18
C18
A   19
C19
A   20
C20
A   21
C21
A   22
C22
A   23
N23
A   24
N24
A   25
N25
A   26
N26
A   27
O27
A   28
O28
A   29
O29
A   30
F30
A   31
S31
A   32
S32
A   33
S33
A   34
CL
M  END
