2XYX_Z00_A_1441
     RDKit          3D

 51 53  0  0  0  0  0  0  0  0999 V2000
   16.4750   -2.7110   35.8800 C   0  0  0  0  0  0  0  0  0  0  0  0
   18.1900   -2.7500   35.5130 S   0  0  0  0  0  0  0  0  0  0  0  0
   18.4860   -3.7560   34.5260 O   0  0  0  0  0  0  0  0  0  0  0  0
   18.5940   -1.3590   35.4770 O   0  0  0  0  0  0  0  0  0  0  0  0
   18.6580   -3.4450   36.9610 N   0  0  0  0  0  0  0  0  0  0  0  0
   12.9190   -2.1460   38.6360 C   0  0  0  0  0  0  0  0  0  0  0  0
   12.4460   -2.5150   37.2460 C   0  0  0  0  0  0  0  0  0  0  0  0
   13.8000   -2.5640   36.6440 C   0  0  0  0  0  0  0  0  0  0  0  0
   14.2390   -3.6380   35.8470 C   0  0  0  0  0  0  0  0  0  0  0  0
   15.5840   -3.6980   35.4340 C   0  0  0  0  0  0  0  0  0  0  0  0
   16.0470   -1.6660   36.6890 C   0  0  0  0  0  0  0  0  0  0  0  0
   14.7220   -1.5920   37.0600 C   0  0  0  0  0  0  0  0  0  0  0  0
   19.0170   -2.8560   38.1180 C   0  0  0  0  0  0  0  0  0  0  0  0
   18.9770   -1.2190   38.5760 S   0  0  0  0  0  0  0  0  0  0  0  0
   19.4850   -1.7340   40.1380 C   0  0  0  0  0  0  0  0  0  0  0  0
   19.6700   -3.0320   40.2390 N   0  0  0  0  0  0  0  0  0  0  0  0
   19.3880   -3.6840   39.0650 N   0  0  0  0  0  0  0  0  0  0  0  0
   19.6540   -0.7560   41.2630 C   0  0  0  0  0  0  0  0  0  0  0  0
   19.9590    0.6570   40.7470 C   0  0  0  0  0  0  0  0  0  0  0  0
   20.6700   -1.2520   42.2890 C   0  0  0  0  0  0  0  0  0  0  0  0
   11.2670   -1.9760   43.0710 C   0  0  0  0  0  0  0  0  0  0  0  0
   12.1100   -1.0640   43.6450 C   0  0  0  0  0  0  0  0  0  0  0  0
   12.2120   -1.6770   40.9770 C   0  0  0  0  0  0  0  0  0  0  0  0
   11.3050   -2.2860   41.7740 N   0  0  0  0  0  0  0  0  0  0  0  0
   13.0980   -0.6790   41.4870 C   0  0  0  0  0  0  0  0  0  0  0  0
   13.0220   -0.3890   42.8450 C   0  0  0  0  0  0  0  0  0  0  0  0
   12.0810   -2.2140   39.7510 N   0  0  0  0  0  0  0  0  0  0  0  0
   12.0040   -0.8140   45.0600 C   0  0  0  0  0  0  0  0  0  0  0  0
   12.7790    0.2230   45.4650 F   0  0  0  0  0  0  0  0  0  0  0  0
   12.3680   -1.8880   45.8030 F   0  0  0  0  0  0  0  0  0  0  0  0
   10.7190   -0.5450   45.3710 F   0  0  0  0  0  0  0  0  0  0  0  0
   14.2900    0.2750   40.6340 Cl  0  0  0  0  0  0  0  0  0  0  0  0
   18.6740   -4.4748   36.9690 H   0  0  0  0  0  0  0  0  0  0  0  0
   13.7733   -2.8038   38.8539 H   0  0  0  0  0  0  0  0  0  0  0  0
   13.0843   -1.0627   38.5406 H   0  0  0  0  0  0  0  0  0  0  0  0
   11.9292   -3.4855   37.2143 H   0  0  0  0  0  0  0  0  0  0  0  0
   11.7041   -1.8558   36.7716 H   0  0  0  0  0  0  0  0  0  0  0  0
   13.5340   -4.4276   35.5478 H   0  0  0  0  0  0  0  0  0  0  0  0
   15.9301   -4.5058   34.7724 H   0  0  0  0  0  0  0  0  0  0  0  0
   16.7612   -0.9026   37.0312 H   0  0  0  0  0  0  0  0  0  0  0  0
   14.3821   -0.7582   37.6919 H   0  0  0  0  0  0  0  0  0  0  0  0
   18.6926   -0.6841   41.7927 H   0  0  0  0  0  0  0  0  0  0  0  0
   20.1054    1.3354   41.6005 H   0  0  0  0  0  0  0  0  0  0  0  0
   20.8730    0.6346   40.1354 H   0  0  0  0  0  0  0  0  0  0  0  0
   19.1172    1.0137   40.1354 H   0  0  0  0  0  0  0  0  0  0  0  0
   20.2877   -1.0654   43.3034 H   0  0  0  0  0  0  0  0  0  0  0  0
   20.8331   -2.3311   42.1514 H   0  0  0  0  0  0  0  0  0  0  0  0
   21.6212   -0.7169   42.1514 H   0  0  0  0  0  0  0  0  0  0  0  0
   10.5235   -2.4768   43.7084 H   0  0  0  0  0  0  0  0  0  0  0  0
   13.6827    0.3731   43.2840 H   0  0  0  0  0  0  0  0  0  0  0  0
   11.2223   -2.7655   39.6117 H   0  0  0  0  0  0  0  0  0  0  0  0
  1  2  1  0
  1 10  2  0
  1 11  1  0
  2  3  2  0
  2  4  2  0
  2  5  1  0
  5 13  1  0
  6  7  1  0
  6 27  1  0
  7  8  1  0
  8  9  2  0
  8 12  1  0
  9 10  1  0
 11 12  2  0
 13 14  1  0
 13 17  2  0
 14 15  1  0
 15 16  2  0
 15 18  1  0
 16 17  1  0
 18 19  1  0
 18 20  1  0
 21 22  2  0
 21 24  1  0
 22 26  1  0
 22 28  1  0
 23 24  2  0
 23 25  1  0
 23 27  1  0
 25 26  2  0
 25 32  1  0
 28 29  1  0
 28 30  1  0
 28 31  1  0
  5 33  1  0
  6 34  1  0
  6 35  1  0
  7 36  1  0
  7 37  1  0
  9 38  1  0
 10 39  1  0
 11 40  1  0
 12 41  1  0
 18 42  1  0
 19 43  1  0
 19 44  1  0
 19 45  1  0
 20 46  1  0
 20 47  1  0
 20 48  1  0
 21 49  1  0
 26 50  1  0
 27 51  1  0
A    1
C1
A    2
S2
A    3
O3
A    4
O4
A    5
N5
A    6
C6
A    7
C7
A    8
C8
A    9
C9
A   10
C10
A   11
C11
A   12
C12
A   13
C13
A   14
S14
A   15
C15
A   16
N16
A   17
N17
A   18
C18
A   19
C19
A   20
C20
A   21
C21
A   22
C22
A   23
C23
A   24
N24
A   25
C25
A   26
C26
A   27
N27
A   28
C28
A   29
F29
A   30
F30
A   31
F31
A   32
CL
M  END
