2XZG_VH1_A_1362
     RDKit          3D

 40 43  0  0  0  0  0  0  0  0999 V2000
   46.0830   -7.5620   26.2510 C   0  0  0  0  0  0  0  0  0  0  0  0
   46.1750   -6.2670   26.7830 C   0  0  0  0  0  0  0  0  0  0  0  0
   46.5190   -5.1940   25.9590 C   0  0  0  0  0  0  0  0  0  0  0  0
   46.5910   -3.9400   26.4740 N   0  0  0  0  0  0  0  0  0  0  0  0
   46.7920   -5.4120   24.6050 C   0  0  0  0  0  0  0  0  0  0  0  0
   46.7260   -6.7070   24.0820 C   0  0  0  0  0  0  0  0  0  0  0  0
   46.3680   -7.7760   24.9120 C   0  0  0  0  0  0  0  0  0  0  0  0
   46.2630   -9.1560   24.2810 C   0  0  0  0  0  0  0  0  0  0  0  0
   47.4900   -9.9620   24.3130 N   0  0  0  0  0  0  0  0  0  0  0  0
   48.4100   -9.8270   23.2980 C   0  0  0  0  0  0  0  0  0  0  0  0
   48.1570   -9.0130   22.4290 O   0  0  0  0  0  0  0  0  0  0  0  0
   49.5740  -10.5970   23.2920 C   0  0  0  0  0  0  0  0  0  0  0  0
   49.7590  -11.5290   24.3490 C   0  0  0  0  0  0  0  0  0  0  0  0
   50.5050  -10.4670   22.2750 C   0  0  0  0  0  0  0  0  0  0  0  0
   51.6400  -11.2560   22.3080 C   0  0  0  0  0  0  0  0  0  0  0  0
   52.8450  -11.1720   21.0200 S   0  0  0  0  0  0  0  0  0  0  0  0
   52.6130  -12.2710   20.1830 O   0  0  0  0  0  0  0  0  0  0  0  0
   54.1560  -11.4150   21.6630 O   0  0  0  0  0  0  0  0  0  0  0  0
   52.8090   -9.8950   20.2520 O   0  0  0  0  0  0  0  0  0  0  0  0
   51.8430  -12.1770   23.3420 C   0  0  0  0  0  0  0  0  0  0  0  0
   50.9090  -12.3400   24.3740 C   0  0  0  0  0  0  0  0  0  0  0  0
   51.1200  -13.2500   25.4260 C   0  0  0  0  0  0  0  0  0  0  0  0
   50.1860  -13.3960   26.4600 C   0  0  0  0  0  0  0  0  0  0  0  0
   49.0230  -12.5950   26.4200 C   0  0  0  0  0  0  0  0  0  0  0  0
   48.8090  -11.6690   25.3680 C   0  0  0  0  0  0  0  0  0  0  0  0
   47.6530  -10.8870   25.3300 C   0  0  0  0  0  0  0  0  0  0  0  0
   46.7960  -10.9340   26.1950 O   0  0  0  0  0  0  0  0  0  0  0  0
   45.7860   -8.4036   26.8940 H   0  0  0  0  0  0  0  0  0  0  0  0
   45.9757   -6.0969   27.8513 H   0  0  0  0  0  0  0  0  0  0  0  0
   46.5989   -3.8021   27.4947 H   0  0  0  0  0  0  0  0  0  0  0  0
   46.6377   -3.1264   25.8440 H   0  0  0  0  0  0  0  0  0  0  0  0
   47.0580   -4.5669   23.9531 H   0  0  0  0  0  0  0  0  0  0  0  0
   46.9548   -6.8854   23.0210 H   0  0  0  0  0  0  0  0  0  0  0  0
   45.4779   -9.7130   24.8134 H   0  0  0  0  0  0  0  0  0  0  0  0
   46.0423   -8.9850   23.2170 H   0  0  0  0  0  0  0  0  0  0  0  0
   50.3446   -9.7497   21.4566 H   0  0  0  0  0  0  0  0  0  0  0  0
   52.7579  -12.7878   23.3447 H   0  0  0  0  0  0  0  0  0  0  0  0
   52.0362  -13.8587   25.4369 H   0  0  0  0  0  0  0  0  0  0  0  0
   50.3531  -14.1123   27.2779 H   0  0  0  0  0  0  0  0  0  0  0  0
   48.2717  -12.6913   27.2176 H   0  0  0  0  0  0  0  0  0  0  0  0
  1  2  2  0
  1  7  1  0
  2  3  1  0
  3  4  1  0
  3  5  2  0
  5  6  1  0
  6  7  2  0
  7  8  1  0
  8  9  1  0
  9 10  1  0
  9 26  1  0
 10 11  2  0
 10 12  1  0
 12 13  2  0
 12 14  1  0
 13 21  1  0
 13 25  1  0
 14 15  2  0
 15 16  1  0
 15 20  1  0
 16 17  2  0
 16 18  2  0
 16 19  1  0
 20 21  2  0
 21 22  1  0
 22 23  2  0
 23 24  1  0
 24 25  2  0
 25 26  1  0
 26 27  2  0
  1 28  1  0
  2 29  1  0
  4 30  1  0
  4 31  1  0
  5 32  1  0
  6 33  1  0
  8 34  1  0
  8 35  1  0
 14 36  1  0
 20 37  1  0
 22 38  1  0
 23 39  1  0
 24 40  1  0
M  CHG  1  19  -1
A    1
CAJ
A    2
CAH
A    3
CAQ
A    4
NAA
A    5
CAI
A    6
CAK
A    7
CAR
A    8
CAP
A    9
NAZ
A   10
CAU
A   11
OAC
A   12
CAX
A   13
CAY
A   14
CAO
A   15
CAS
A   16
SBA
A   17
OAF
A   18
OAE
A   19
OAD
A   20
CAN
A   21
CAV
A   22
CAL
A   23
CAG
A   24
CAM
A   25
CAW
A   26
CAT
A   27
OAB
M  END
