2XZI_KDM_A_500
     RDKit          3D

 34 34  0  0  0  0  0  0  0  0999 V2000
   49.1450   37.7820   43.0900 C   0  0  0  0  0  0  0  0  0  0  0  0
   50.1250   38.2670   44.1510 C   0  0  0  0  0  0  0  0  0  0  0  0
   49.2970   36.2660   42.8650 C   0  0  0  0  0  0  0  0  0  0  0  0
   47.9900   35.5820   42.3680 C   0  0  0  0  0  0  0  0  0  0  0  0
   46.9210   36.5470   41.8400 C   0  0  0  0  0  0  0  0  0  0  0  0
   46.6040   37.6000   42.9310 C   0  0  0  0  0  0  0  0  0  0  0  0
   45.7230   38.7520   42.4230 C   0  0  0  0  0  0  0  0  0  0  0  0
   45.2950   39.6590   43.5910 C   0  0  0  0  0  0  0  0  0  0  0  0
   44.4650   40.8300   43.0940 C   0  0  0  0  0  0  0  0  0  0  0  0
   45.7330   35.8300   41.4180 O   0  0  0  0  0  0  0  0  0  0  0  0
   51.1520   37.5830   44.3730 O   0  0  0  0  0  0  0  0  0  0  0  0
   49.8210   39.3460   44.7130 O   0  0  0  0  0  0  0  0  0  0  0  0
   48.3430   34.6740   41.3240 O   0  0  0  0  0  0  0  0  0  0  0  0
   47.8100   38.1920   43.5200 O   0  0  0  0  0  0  0  0  0  0  0  0
   46.4630   39.5160   41.4670 O   0  0  0  0  0  0  0  0  0  0  0  0
   44.4950   38.9300   44.5330 O   0  0  0  0  0  0  0  0  0  0  0  0
   43.2380   40.2980   42.5680 O   0  0  0  0  0  0  0  0  0  0  0  0
   49.5090   38.4990   41.9040 O   0  0  0  0  0  0  0  0  0  0  0  0
   50.0840   36.1019   42.1142 H   0  0  0  0  0  0  0  0  0  0  0  0
   49.5501   35.8167   43.8366 H   0  0  0  0  0  0  0  0  0  0  0  0
   47.5406   35.0833   43.2394 H   0  0  0  0  0  0  0  0  0  0  0  0
   47.3048   37.0680   40.9505 H   0  0  0  0  0  0  0  0  0  0  0  0
   46.0568   37.0286   43.6953 H   0  0  0  0  0  0  0  0  0  0  0  0
   44.8186   38.3362   41.9548 H   0  0  0  0  0  0  0  0  0  0  0  0
   46.2161   40.0228   44.0698 H   0  0  0  0  0  0  0  0  0  0  0  0
   44.2503   41.5176   43.9253 H   0  0  0  0  0  0  0  0  0  0  0  0
   45.0090   41.3885   42.3180 H   0  0  0  0  0  0  0  0  0  0  0  0
   45.2302   35.5265   42.2150 H   0  0  0  0  0  0  0  0  0  0  0  0
   49.8052   39.4021   45.7013 H   0  0  0  0  0  0  0  0  0  0  0  0
   48.6719   33.8281   41.7195 H   0  0  0  0  0  0  0  0  0  0  0  0
   47.0679   40.1405   41.9406 H   0  0  0  0  0  0  0  0  0  0  0  0
   44.7639   39.1751   45.4537 H   0  0  0  0  0  0  0  0  0  0  0  0
   42.6428   40.0399   43.3158 H   0  0  0  0  0  0  0  0  0  0  0  0
   49.9425   39.3530   42.1547 H   0  0  0  0  0  0  0  0  0  0  0  0
  1  2  1  0
  1  3  1  0
  1 14  1  0
  1 18  1  0
  2 12  1  0
  2 11  2  0
  3  4  1  0
  4  5  1  0
  4 13  1  0
  5  6  1  0
  5 10  1  0
  6  7  1  0
  6 14  1  0
  7  8  1  0
  7 15  1  0
  8  9  1  0
  8 16  1  0
  9 17  1  0
  3 19  1  0
  3 20  1  0
  4 21  1  0
  5 22  1  0
  6 23  1  0
  7 24  1  0
  8 25  1  0
  9 26  1  0
  9 27  1  0
 10 28  1  0
 12 29  1  0
 13 30  1  0
 15 31  1  0
 16 32  1  0
 17 33  1  0
 18 34  1  0
A    1
C1
A    2
C10
A    3
C2
A    4
C3
A    5
C4
A    6
C5
A    7
C6
A    8
C7
A    9
C9
A   10
O4
A   11
O8
A   12
O9
A   13
O3
A   14
O5
A   15
O6
A   16
O7
A   17
O10
A   18
O1
M  END
