2XZJ_KFN_A_503
     RDKit          3D

 31 31  0  0  0  0  0  0  0  0999 V2000
   50.5810   38.2160   44.0210 C   0  0  0  0  0  0  0  0  0  0  0  0
   49.5310   36.2370   42.8770 C   0  0  0  0  0  0  0  0  0  0  0  0
   48.3270   35.5250   42.2190 C   0  0  0  0  0  0  0  0  0  0  0  0
   47.2700   36.5590   41.7430 C   0  0  0  0  0  0  0  0  0  0  0  0
   47.0210   37.6200   42.8460 C   0  0  0  0  0  0  0  0  0  0  0  0
   46.0360   38.7510   42.4390 C   0  0  0  0  0  0  0  0  0  0  0  0
   45.6250   39.6490   43.6180 C   0  0  0  0  0  0  0  0  0  0  0  0
   44.8950   40.8860   43.1220 C   0  0  0  0  0  0  0  0  0  0  0  0
   46.0220   35.9290   41.3820 O   0  0  0  0  0  0  0  0  0  0  0  0
   51.6180   37.5390   44.1490 O   0  0  0  0  0  0  0  0  0  0  0  0
   50.4130   39.3960   44.4430 O   0  0  0  0  0  0  0  0  0  0  0  0
   48.8180   34.6690   41.1660 O   0  0  0  0  0  0  0  0  0  0  0  0
   48.2740   38.2900   43.2220 O   0  0  0  0  0  0  0  0  0  0  0  0
   49.4120   37.5490   43.3460 C   0  0  0  0  0  0  0  0  0  0  0  0
   46.6790   39.5980   41.4880 O   0  0  0  0  0  0  0  0  0  0  0  0
   44.7860   38.9450   44.5310 O   0  0  0  0  0  0  0  0  0  0  0  0
   43.6340   40.5160   42.5310 O   0  0  0  0  0  0  0  0  0  0  0  0
   50.4897   35.7070   42.9772 H   0  0  0  0  0  0  0  0  0  0  0  0
   47.8034   34.8887   42.9476 H   0  0  0  0  0  0  0  0  0  0  0  0
   47.6733   37.0481   40.8441 H   0  0  0  0  0  0  0  0  0  0  0  0
   46.5832   37.0435   43.6742 H   0  0  0  0  0  0  0  0  0  0  0  0
   45.1375   38.2565   42.0412 H   0  0  0  0  0  0  0  0  0  0  0  0
   46.5458   39.9518   44.1380 H   0  0  0  0  0  0  0  0  0  0  0  0
   44.7143   41.5651   43.9683 H   0  0  0  0  0  0  0  0  0  0  0  0
   45.5135   41.3878   42.3633 H   0  0  0  0  0  0  0  0  0  0  0  0
   45.5284   35.6798   42.2032 H   0  0  0  0  0  0  0  0  0  0  0  0
   51.9565   37.3180   45.0527 H   0  0  0  0  0  0  0  0  0  0  0  0
   49.2691   33.8825   41.5635 H   0  0  0  0  0  0  0  0  0  0  0  0
   47.2039   40.2895   41.9638 H   0  0  0  0  0  0  0  0  0  0  0  0
   45.0497   39.1662   45.4592 H   0  0  0  0  0  0  0  0  0  0  0  0
   42.9779   40.3235   43.2469 H   0  0  0  0  0  0  0  0  0  0  0  0
  1 10  1  0
  1 11  2  0
  1 14  1  0
  2  3  1  0
  2 14  2  0
  3  4  1  0
  3 12  1  0
  4  5  1  0
  4  9  1  0
  5  6  1  0
  5 13  1  0
  6  7  1  0
  6 15  1  0
  7  8  1  0
  7 16  1  0
  8 17  1  0
 13 14  1  0
  2 18  1  0
  3 19  1  0
  4 20  1  0
  5 21  1  0
  6 22  1  0
  7 23  1  0
  8 24  1  0
  8 25  1  0
  9 26  1  0
 10 27  1  0
 12 28  1  0
 15 29  1  0
 16 30  1  0
 17 31  1  0
A    1
C10
A    2
C2
A    3
C3
A    4
C4
A    5
C5
A    6
C6
A    7
C7
A    8
C9
A    9
O4
A   10
O9
A   11
O8
A   12
O3
A   13
O5
A   14
C20
A   15
O6
A   16
O7
A   17
O10
M  END
