2Y04_68H_A_601
     RDKit          3D

 38 38  0  0  0  0  0  0  0  0999 V2000
  -20.5720  -13.3880   28.7190 O   0  0  0  0  0  0  0  0  0  0  0  0
  -19.9640  -12.8280   27.5540 C   0  0  0  0  0  0  0  0  0  0  0  0
  -20.9390  -12.4700   26.4450 C   0  0  0  0  0  0  0  0  0  0  0  0
  -20.3920  -11.6740   25.3160 C   0  0  0  0  0  0  0  0  0  0  0  0
  -19.0790  -11.3060   25.2970 O   0  0  0  0  0  0  0  0  0  0  0  0
  -21.2240  -11.3120   24.2620 C   0  0  0  0  0  0  0  0  0  0  0  0
  -22.5580  -11.7040   24.2740 C   0  0  0  0  0  0  0  0  0  0  0  0
  -22.3020  -12.8380   26.4090 C   0  0  0  0  0  0  0  0  0  0  0  0
  -23.1070  -12.4500   25.3170 C   0  0  0  0  0  0  0  0  0  0  0  0
  -24.5500  -12.7900   25.2030 C   0  0  0  0  0  0  0  0  0  0  0  0
  -25.1390  -12.1870   24.0370 O   0  0  0  0  0  0  0  0  0  0  0  0
  -24.7830  -14.2960   25.0910 C   0  0  0  0  0  0  0  0  0  0  0  0
  -26.2080  -14.5420   25.3150 N   0  0  0  0  0  0  0  0  0  0  0  0
  -26.8180  -15.8520   25.3900 C   0  0  0  0  0  0  0  0  0  0  0  0
  -26.0070  -16.8520   24.5670 C   0  0  0  0  0  0  0  0  0  0  0  0
  -26.8620  -16.2730   26.8560 C   0  0  0  0  0  0  0  0  0  0  0  0
  -28.2240  -15.7730   24.8080 C   0  0  0  0  0  0  0  0  0  0  0  0
  -20.1525  -13.0017   29.5282 H   0  0  0  0  0  0  0  0  0  0  0  0
  -19.4303  -11.9131   27.8510 H   0  0  0  0  0  0  0  0  0  0  0  0
  -19.2969  -13.6018   27.1465 H   0  0  0  0  0  0  0  0  0  0  0  0
  -18.5909  -11.1692   26.1474 H   0  0  0  0  0  0  0  0  0  0  0  0
  -20.8291  -10.7191   23.4238 H   0  0  0  0  0  0  0  0  0  0  0  0
  -23.2033  -11.4156   23.4311 H   0  0  0  0  0  0  0  0  0  0  0  0
  -22.7355  -13.4263   27.2312 H   0  0  0  0  0  0  0  0  0  0  0  0
  -25.0155  -12.4052   26.1224 H   0  0  0  0  0  0  0  0  0  0  0  0
  -25.8026  -11.5076   24.3164 H   0  0  0  0  0  0  0  0  0  0  0  0
  -24.4950  -14.6464   24.0889 H   0  0  0  0  0  0  0  0  0  0  0  0
  -24.1768  -14.8365   25.8328 H   0  0  0  0  0  0  0  0  0  0  0  0
  -26.4294  -14.0833   26.2103 H   0  0  0  0  0  0  0  0  0  0  0  0
  -25.4606  -17.5258   25.2433 H   0  0  0  0  0  0  0  0  0  0  0  0
  -26.6859  -17.4408   23.9326 H   0  0  0  0  0  0  0  0  0  0  0  0
  -25.2907  -16.3093   23.9326 H   0  0  0  0  0  0  0  0  0  0  0  0
  -26.7690  -15.3832   27.4960 H   0  0  0  0  0  0  0  0  0  0  0  0
  -27.8176  -16.7763   27.0644 H   0  0  0  0  0  0  0  0  0  0  0  0
  -26.0311  -16.9630   27.0644 H   0  0  0  0  0  0  0  0  0  0  0  0
  -28.9578  -15.7318   25.6264 H   0  0  0  0  0  0  0  0  0  0  0  0
  -28.3142  -14.8684   24.1887 H   0  0  0  0  0  0  0  0  0  0  0  0
  -28.4150  -16.6618   24.1887 H   0  0  0  0  0  0  0  0  0  0  0  0
  1  2  1  0
  2  3  1  0
  3  4  2  0
  3  8  1  0
  4  5  1  0
  4  6  1  0
  6  7  2  0
  7  9  1  0
  8  9  2  0
  9 10  1  0
 10 11  1  0
 10 12  1  0
 12 13  1  0
 13 14  1  0
 14 15  1  0
 14 16  1  0
 14 17  1  0
  1 18  1  0
  2 19  1  0
  2 20  1  0
  5 21  1  0
  6 22  1  0
  7 23  1  0
  8 24  1  0
 10 25  1  0
 11 26  1  0
 12 27  1  0
 12 28  1  0
 13 29  1  0
 15 30  1  0
 15 31  1  0
 15 32  1  0
 16 33  1  0
 16 34  1  0
 16 35  1  0
 17 36  1  0
 17 37  1  0
 17 38  1  0
A    1
O2
A    2
C2
A    3
C12
A    4
C11
A    5
O1
A    6
C10
A    7
C9
A    8
C13
A    9
C8
A   10
C1
A   11
O3
A   12
C3
A   13
N1
A   14
C4
A   15
C7
A   16
C6
A   17
C5
M  END
