2Y1D_34F_A_1390
     RDKit          3D

 31 31  0  0  0  0  0  0  0  0999 V2000
   40.4340   10.1120   24.9000 C   0  0  0  0  0  0  0  0  0  0  0  0
   41.5380   10.0110   25.5200 N   0  0  0  0  0  0  0  0  0  0  0  0
   39.3890    9.6660   25.3620 O   0  0  0  0  0  0  0  0  0  0  0  0
   44.7170   12.2280   20.0940 Cl  0  0  0  0  0  0  0  0  0  0  0  0
   42.7530   10.6110   24.9740 C   0  0  0  0  0  0  0  0  0  0  0  0
   41.6110    9.3390   26.7310 O   0  0  0  0  0  0  0  0  0  0  0  0
   41.7480   11.7980   18.7520 Cl  0  0  0  0  0  0  0  0  0  0  0  0
   43.7860    9.4930   24.7610 C   0  0  0  0  0  0  0  0  0  0  0  0
   43.4230    8.5310   23.6370 C   0  0  0  0  0  0  0  0  0  0  0  0
   43.0480    9.3380   22.4170 C   0  0  0  0  0  0  0  0  0  0  0  0
   43.9320   10.2840   21.8690 C   0  0  0  0  0  0  0  0  0  0  0  0
   43.5460   11.0390   20.7560 C   0  0  0  0  0  0  0  0  0  0  0  0
   42.2690   10.8530   20.1870 C   0  0  0  0  0  0  0  0  0  0  0  0
   41.3790    9.9130   20.7360 C   0  0  0  0  0  0  0  0  0  0  0  0
   41.7700    9.1610   21.8510 C   0  0  0  0  0  0  0  0  0  0  0  0
   44.5860    7.4320   23.3590 P   0  0  0  0  0  0  0  0  0  0  0  0
   44.8390    6.7950   24.7060 O   0  0  0  0  0  0  0  0  0  0  0  0
   43.9640    6.4870   22.3590 O   0  0  0  0  0  0  0  0  0  0  0  0
   45.7920    8.1410   22.8100 O   0  0  0  0  0  0  0  0  0  0  0  0
   40.4146   10.6136   23.9212 H   0  0  0  0  0  0  0  0  0  0  0  0
   42.5286   11.0987   24.0139 H   0  0  0  0  0  0  0  0  0  0  0  0
   43.1487   11.3671   25.6680 H   0  0  0  0  0  0  0  0  0  0  0  0
   41.5404    9.9894   27.4741 H   0  0  0  0  0  0  0  0  0  0  0  0
   44.7549    9.9560   24.5227 H   0  0  0  0  0  0  0  0  0  0  0  0
   43.8196    8.9047   25.6898 H   0  0  0  0  0  0  0  0  0  0  0  0
   42.5525    7.9278   23.9344 H   0  0  0  0  0  0  0  0  0  0  0  0
   44.9268   10.4305   22.3151 H   0  0  0  0  0  0  0  0  0  0  0  0
   40.3825    9.7692   20.2928 H   0  0  0  0  0  0  0  0  0  0  0  0
   41.0754    8.4281   22.2873 H   0  0  0  0  0  0  0  0  0  0  0  0
   44.5872    7.4290   25.4234 H   0  0  0  0  0  0  0  0  0  0  0  0
   43.4882    5.7641   22.8398 H   0  0  0  0  0  0  0  0  0  0  0  0
  1  2  1  0
  1  3  2  0
  2  5  1  0
  2  6  1  0
  4 12  1  0
  5  8  1  0
  7 13  1  0
  8  9  1  0
  9 10  1  0
  9 16  1  0
 10 11  2  0
 10 15  1  0
 11 12  1  0
 12 13  2  0
 13 14  1  0
 14 15  2  0
 16 17  1  0
 16 18  1  0
 16 19  2  0
  1 20  1  0
  5 21  1  0
  5 22  1  0
  6 23  1  0
  8 24  1  0
  8 25  1  0
  9 26  1  0
 11 27  1  0
 14 28  1  0
 15 29  1  0
 17 30  1  0
 18 31  1  0
A    1
C1
A    2
N1
A    3
O1
A    4
CL1
A    5
C2
A    6
O2
A    7
CL2
A    8
C3
A    9
C4
A   10
C6
A   11
C7
A   12
C8
A   13
C9
A   14
C10
A   15
C11
A   16
PA1
A   17
OP1
A   18
OP2
A   19
OP3
M  END
