2Y1O_T26_A_500
     RDKit          3D

 55 57  0  0  0  0  0  0  0  0999 V2000
   -5.3310   32.1810   54.1340 O   0  0  0  0  0  0  0  0  0  0  0  0
   -5.2680   31.2740   54.9930 C   0  0  0  0  0  0  0  0  0  0  0  0
   -4.4270   31.3180   55.9330 O   0  0  0  0  0  0  0  0  0  0  0  0
   -6.2500   30.1090   54.9630 C   0  0  0  0  0  0  0  0  0  0  0  0
   -6.1340   29.2490   53.6880 C   0  0  0  0  0  0  0  0  0  0  0  0
   -7.1500   27.4470   52.2920 C   0  0  0  0  0  0  0  0  0  0  0  0
   -7.1980   27.9700   51.1270 O   0  0  0  0  0  0  0  0  0  0  0  0
   -6.9180   26.2310   52.4900 O   0  0  0  0  0  0  0  0  0  0  0  0
   -8.5350   29.1540   53.3570 N   0  0  0  0  0  0  0  0  0  0  0  0
   -9.7600   28.7780   53.7440 C   0  0  0  0  0  0  0  0  0  0  0  0
   -9.9110   27.8100   54.4760 O   0  0  0  0  0  0  0  0  0  0  0  0
  -10.9480   29.4860   53.2280 C   0  0  0  0  0  0  0  0  0  0  0  0
  -10.8840   30.7730   52.8390 C   0  0  0  0  0  0  0  0  0  0  0  0
  -12.2500   28.7930   53.1040 C   0  0  0  0  0  0  0  0  0  0  0  0
  -11.9620   31.4140   52.2410 C   0  0  0  0  0  0  0  0  0  0  0  0
  -13.3230   29.4360   52.4790 C   0  0  0  0  0  0  0  0  0  0  0  0
  -13.2010   30.7770   52.1250 C   0  0  0  0  0  0  0  0  0  0  0  0
  -13.7750   33.9140   52.7120 C   0  0  0  0  0  0  0  0  0  0  0  0
  -12.9130   33.7270   51.5330 C   0  0  0  0  0  0  0  0  0  0  0  0
  -11.7730   32.7670   51.7230 N   0  0  0  0  0  0  0  0  0  0  0  0
  -13.2060   34.1790   53.9490 C   0  0  0  0  0  0  0  0  0  0  0  0
  -14.0160   34.3200   55.0630 C   0  0  0  0  0  0  0  0  0  0  0  0
  -15.1530   33.8200   52.5860 C   0  0  0  0  0  0  0  0  0  0  0  0
  -15.9710   33.9720   53.7110 C   0  0  0  0  0  0  0  0  0  0  0  0
  -15.4140   34.2360   54.9560 C   0  0  0  0  0  0  0  0  0  0  0  0
  -16.2160   34.3910   56.1910 C   0  0  0  0  0  0  0  0  0  0  0  0
  -17.5530   34.4750   56.3210 C   0  0  0  0  0  0  0  0  0  0  0  0
  -18.7890   34.3340   55.0900 S   0  0  0  0  0  0  0  0  0  0  0  0
  -19.9650   34.6570   56.3300 C   0  0  0  0  0  0  0  0  0  0  0  0
  -21.6740   34.6740   55.8690 S   0  0  0  0  0  0  0  0  0  0  0  0
  -19.5430   34.8220   57.6150 N   0  0  0  0  0  0  0  0  0  0  0  0
  -18.1870   34.7410   57.6220 C   0  0  0  0  0  0  0  0  0  0  0  0
   -7.3450   28.3040   53.5210 C   0  0  0  0  0  0  0  0  0  0  0  0
  -17.5010   34.8700   58.6990 O   0  0  0  0  0  0  0  0  0  0  0  0
   -4.7348   31.3019   56.8738 H   0  0  0  0  0  0  0  0  0  0  0  0
   -6.0583   29.4677   55.8359 H   0  0  0  0  0  0  0  0  0  0  0  0
   -7.2638   30.5357   54.9783 H   0  0  0  0  0  0  0  0  0  0  0  0
   -6.0783   29.9142   52.8137 H   0  0  0  0  0  0  0  0  0  0  0  0
   -5.2277   28.6315   53.7734 H   0  0  0  0  0  0  0  0  0  0  0  0
   -7.2880   28.9509   51.0281 H   0  0  0  0  0  0  0  0  0  0  0  0
   -8.4199   30.0816   52.9242 H   0  0  0  0  0  0  0  0  0  0  0  0
   -9.9512   31.3336   52.9992 H   0  0  0  0  0  0  0  0  0  0  0  0
  -12.3732   27.7751   53.5024 H   0  0  0  0  0  0  0  0  0  0  0  0
  -14.2535   28.8882   52.2693 H   0  0  0  0  0  0  0  0  0  0  0  0
  -14.0755   31.3327   51.7557 H   0  0  0  0  0  0  0  0  0  0  0  0
  -13.5389   33.3540   50.7089 H   0  0  0  0  0  0  0  0  0  0  0  0
  -12.4574   34.7070   51.3280 H   0  0  0  0  0  0  0  0  0  0  0  0
  -10.8209   33.0747   51.4785 H   0  0  0  0  0  0  0  0  0  0  0  0
  -12.1145   34.2768   54.0446 H   0  0  0  0  0  0  0  0  0  0  0  0
  -13.5578   34.5005   56.0466 H   0  0  0  0  0  0  0  0  0  0  0  0
  -15.6030   33.6259   51.6012 H   0  0  0  0  0  0  0  0  0  0  0  0
  -17.0625   33.8818   53.6089 H   0  0  0  0  0  0  0  0  0  0  0  0
  -15.6421   34.4447   57.1279 H   0  0  0  0  0  0  0  0  0  0  0  0
  -20.1453   34.9801   58.4355 H   0  0  0  0  0  0  0  0  0  0  0  0
   -7.4560   27.6409   54.3917 H   0  0  0  0  0  0  0  0  0  0  0  0
  3  2  1  0
  2  1  2  0
  2  4  1  0
  4  5  1  0
  5 33  1  0
  6  7  1  0
  6  8  2  0
  6 33  1  0
  9 10  1  0
  9 33  1  0
 10 11  2  0
 10 12  1  0
 12 14  2  0
 12 13  1  0
 14 16  1  0
 13 15  2  0
 15 17  1  0
 15 20  1  0
 17 16  2  0
 18 21  2  0
 18 23  1  0
 18 19  1  0
 21 22  1  0
 22 25  2  0
 23 24  2  0
 24 25  1  0
 25 26  1  0
 26 27  2  0
 27 28  1  0
 27 32  1  0
 28 29  1  0
 29 30  2  0
 29 31  1  0
 31 32  1  0
 32 34  2  0
 19 20  1  0
  3 35  1  0
  4 36  1  0
  4 37  1  0
  5 38  1  0
  5 39  1  0
  7 40  1  0
  9 41  1  0
 13 42  1  0
 14 43  1  0
 16 44  1  0
 17 45  1  0
 19 46  1  0
 19 47  1  0
 20 48  1  0
 21 49  1  0
 22 50  1  0
 23 51  1  0
 24 52  1  0
 26 53  1  0
 31 54  1  0
 33 55  1  0
A    1
OE2
A    2
CD
A    3
OE1
A    4
CG
A    5
CB
A    6
C
A    7
OXT
A    8
O
A    9
N
A   10
CAU
A   11
OBC
A   12
CAT
A   13
CAS
A   14
CAQ
A   15
CAR
A   16
CAO
A   17
CAP
A   18
CAA
A   19
CAN
A   20
NAY
A   21
CAC
A   22
CAE
A   23
CAB
A   24
CAG
A   25
CAF
A   26
CAH
A   27
CAI
A   28
SBG
A   29
CAL
A   30
SBH
A   31
NAX
A   32
CAK
A   33
CA
A   34
OBE
M  END
