2Y1W_849_A_1005
     RDKit          3D

 56 59  0  0  0  0  0  0  0  0999 V2000
   28.8430  -28.9630  -78.6770 C   0  0  0  0  0  0  0  0  0  0  0  0
   28.2160  -27.6680  -78.4820 C   0  0  0  0  0  0  0  0  0  0  0  0
   28.3160  -26.6770  -79.5130 C   0  0  0  0  0  0  0  0  0  0  0  0
   29.0100  -26.9200  -80.7160 C   0  0  0  0  0  0  0  0  0  0  0  0
   29.5490  -29.2090  -79.8970 C   0  0  0  0  0  0  0  0  0  0  0  0
   29.6270  -28.1870  -80.9030 C   0  0  0  0  0  0  0  0  0  0  0  0
   30.3600  -28.6350  -81.9940 N   0  0  0  0  0  0  0  0  0  0  0  0
   30.7720  -29.9790  -81.6790 C   0  0  0  0  0  0  0  0  0  0  0  0
   30.2500  -30.3120  -80.3740 C   0  0  0  0  0  0  0  0  0  0  0  0
   31.5700  -30.8040  -82.5640 C   0  0  0  0  0  0  0  0  0  0  0  0
   27.4460  -27.3520  -77.1490 C   0  0  0  0  0  0  0  0  0  0  0  0
   27.6330  -28.3820  -75.9620 C   0  0  0  0  0  0  0  0  0  0  0  0
   26.6630  -29.6170  -75.9280 C   0  0  0  0  0  0  0  0  0  0  0  0
   25.2030  -29.2370  -76.2010 N   0  0  0  0  0  0  0  0  0  0  0  0
   25.0290  -28.3930  -77.4450 C   0  0  0  0  0  0  0  0  0  0  0  0
   25.9070  -27.1120  -77.3760 C   0  0  0  0  0  0  0  0  0  0  0  0
   24.2700  -30.4660  -76.2170 C   0  0  0  0  0  0  0  0  0  0  0  0
   24.7380  -31.5930  -77.1830 C   0  0  0  0  0  0  0  0  0  0  0  0
   23.7030  -32.6670  -77.3380 N   0  0  0  0  0  0  0  0  0  0  0  0
   23.9280  -33.5950  -78.4870 C   0  0  0  0  0  0  0  0  0  0  0  0
   31.1790  -31.0230  -83.9470 C   0  0  0  0  0  0  0  0  0  0  0  0
   32.0110  -31.8490  -84.7950 C   0  0  0  0  0  0  0  0  0  0  0  0
   33.1980  -32.4470  -84.2920 C   0  0  0  0  0  0  0  0  0  0  0  0
   33.5830  -32.2370  -82.9460 C   0  0  0  0  0  0  0  0  0  0  0  0
   32.7900  -31.4330  -82.0950 C   0  0  0  0  0  0  0  0  0  0  0  0
   29.9800  -30.4090  -84.4120 O   0  0  0  0  0  0  0  0  0  0  0  0
   29.2730  -30.6490  -85.6630 C   0  0  0  0  0  0  0  0  0  0  0  0
   30.4050  -31.4910  -79.7010 F   0  0  0  0  0  0  0  0  0  0  0  0
   28.7765  -29.7403  -77.9015 H   0  0  0  0  0  0  0  0  0  0  0  0
   27.8373  -25.6984  -79.3611 H   0  0  0  0  0  0  0  0  0  0  0  0
   29.0728  -26.1450  -81.4941 H   0  0  0  0  0  0  0  0  0  0  0  0
   30.5676  -28.1111  -82.8561 H   0  0  0  0  0  0  0  0  0  0  0  0
   27.9374  -26.4221  -76.8267 H   0  0  0  0  0  0  0  0  0  0  0  0
   28.6610  -28.7693  -76.0180 H   0  0  0  0  0  0  0  0  0  0  0  0
   27.4004  -27.8118  -75.0506 H   0  0  0  0  0  0  0  0  0  0  0  0
   26.9867  -30.3386  -76.6926 H   0  0  0  0  0  0  0  0  0  0  0  0
   26.7088  -30.0448  -74.9156 H   0  0  0  0  0  0  0  0  0  0  0  0
   25.3234  -28.9840  -78.3248 H   0  0  0  0  0  0  0  0  0  0  0  0
   23.9738  -28.0912  -77.5192 H   0  0  0  0  0  0  0  0  0  0  0  0
   25.5356  -26.4917  -76.5470 H   0  0  0  0  0  0  0  0  0  0  0  0
   25.8199  -26.6347  -78.3632 H   0  0  0  0  0  0  0  0  0  0  0  0
   24.2219  -30.8790  -75.1986 H   0  0  0  0  0  0  0  0  0  0  0  0
   23.2892  -30.1209  -76.5761 H   0  0  0  0  0  0  0  0  0  0  0  0
   24.9428  -31.1523  -78.1698 H   0  0  0  0  0  0  0  0  0  0  0  0
   25.6420  -32.0520  -76.7563 H   0  0  0  0  0  0  0  0  0  0  0  0
   23.6896  -33.2259  -76.4729 H   0  0  0  0  0  0  0  0  0  0  0  0
   24.1712  -34.5979  -78.1061 H   0  0  0  0  0  0  0  0  0  0  0  0
   23.0164  -33.6468  -79.1004 H   0  0  0  0  0  0  0  0  0  0  0  0
   24.7621  -33.2236  -79.1004 H   0  0  0  0  0  0  0  0  0  0  0  0
   31.7209  -32.0163  -85.8428 H   0  0  0  0  0  0  0  0  0  0  0  0
   33.8184  -33.0738  -84.9494 H   0  0  0  0  0  0  0  0  0  0  0  0
   34.5028  -32.7012  -82.5606 H   0  0  0  0  0  0  0  0  0  0  0  0
   33.1059  -31.2809  -81.0524 H   0  0  0  0  0  0  0  0  0  0  0  0
   28.2518  -30.9957  -85.4464 H   0  0  0  0  0  0  0  0  0  0  0  0
   29.2280  -29.7158  -86.2436 H   0  0  0  0  0  0  0  0  0  0  0  0
   29.8054  -31.4168  -86.2436 H   0  0  0  0  0  0  0  0  0  0  0  0
  1  2  2  0
  1  5  1  0
  2  3  1  0
  2 11  1  0
  3  4  2  0
  4  6  1  0
  5  6  2  0
  5  9  1  0
  6  7  1  0
  7  8  1  0
  8  9  2  0
  8 10  1  0
  9 28  1  0
 10 21  2  0
 10 25  1  0
 11 12  1  0
 11 16  1  0
 12 13  1  0
 13 14  1  0
 14 15  1  0
 14 17  1  0
 15 16  1  0
 17 18  1  0
 18 19  1  0
 19 20  1  0
 21 22  1  0
 21 26  1  0
 22 23  2  0
 23 24  1  0
 24 25  2  0
 26 27  1  0
  1 29  1  0
  3 30  1  0
  4 31  1  0
  7 32  1  0
 11 33  1  0
 12 34  1  0
 12 35  1  0
 13 36  1  0
 13 37  1  0
 15 38  1  0
 15 39  1  0
 16 40  1  0
 16 41  1  0
 17 42  1  0
 17 43  1  0
 18 44  1  0
 18 45  1  0
 19 46  1  0
 20 47  1  0
 20 48  1  0
 20 49  1  0
 22 50  1  0
 23 51  1  0
 24 52  1  0
 25 53  1  0
 27 54  1  0
 27 55  1  0
 27 56  1  0
A    1
C1
A    2
C2
A    3
C3
A    4
C4
A    5
C5
A    6
C6
A    7
N7
A    8
C8
A    9
C9
A   10
C10
A   11
C11
A   12
C12
A   13
C13
A   14
N14
A   15
C15
A   16
C16
A   17
C17
A   18
C18
A   19
N19
A   20
C20
A   21
C21
A   22
C22
A   23
C23
A   24
C24
A   25
C25
A   26
O26
A   27
C27
A   28
F28
M  END
