2Y2B_MHI_A_202
     RDKit          3D

 53 52  0  0  0  0  0  0  0  0999 V2000
  -37.1980   22.4770   -1.7900 C   0  0  0  0  0  0  0  0  0  0  0  0
  -37.2820   22.4490    0.6270 N   0  0  0  0  0  0  0  0  0  0  0  0
  -38.8590   24.5150   -1.1800 O   0  0  0  0  0  0  0  0  0  0  0  0
  -36.9850   23.2600   -0.5350 C   0  0  0  0  0  0  0  0  0  0  0  0
  -37.6470   25.4870    0.4890 N   0  0  0  0  0  0  0  0  0  0  0  0
  -37.1330   27.2640    2.5450 O   0  0  0  0  0  0  0  0  0  0  0  0
  -37.8420   24.4890   -0.5270 C   0  0  0  0  0  0  0  0  0  0  0  0
  -33.9070   29.6790   -2.3630 N   0  0  0  0  0  0  0  0  0  0  0  0
  -37.6880   28.9940    1.1900 O   0  0  0  0  0  0  0  0  0  0  0  0
  -37.3330   26.8530    0.1480 C   0  0  0  0  0  0  0  0  0  0  0  0
  -30.7460   30.4690   -6.4000 N   0  0  0  0  0  0  0  0  0  0  0  0
  -33.2200   27.7290   -1.2680 O   0  0  0  0  0  0  0  0  0  0  0  0
  -37.3930   27.7530    1.4180 C   0  0  0  0  0  0  0  0  0  0  0  0
  -32.6210   31.4680   -0.8020 O   0  0  0  0  0  0  0  0  0  0  0  0
  -35.8960   26.9370   -0.3370 C   0  0  0  0  0  0  0  0  0  0  0  0
  -30.6430   31.2320   -1.8720 O   0  0  0  0  0  0  0  0  0  0  0  0
  -35.5910   28.0830   -1.2970 C   0  0  0  0  0  0  0  0  0  0  0  0
  -33.0070   31.2200   -9.1330 O   0  0  0  0  0  0  0  0  0  0  0  0
  -34.1530   28.4270   -1.6450 C   0  0  0  0  0  0  0  0  0  0  0  0
  -30.7950   31.1220   -9.0350 O   0  0  0  0  0  0  0  0  0  0  0  0
  -32.5650   30.0210   -2.7500 C   0  0  0  0  0  0  0  0  0  0  0  0
  -31.9450   31.0010   -1.7170 C   0  0  0  0  0  0  0  0  0  0  0  0
  -32.5460   30.6190   -4.1520 C   0  0  0  0  0  0  0  0  0  0  0  0
  -33.6610   30.2390   -5.0940 C   0  0  0  0  0  0  0  0  0  0  0  0
  -33.3490   30.2970   -6.5670 C   0  0  0  0  0  0  0  0  0  0  0  0
  -31.9300   31.1550   -8.5180 C   0  0  0  0  0  0  0  0  0  0  0  0
  -32.0160   31.1110   -6.9730 C   0  0  0  0  0  0  0  0  0  0  0  0
  -37.4789   21.4445   -1.5348 H   0  0  0  0  0  0  0  0  0  0  0  0
  -38.0026   22.9408   -2.3795 H   0  0  0  0  0  0  0  0  0  0  0  0
  -36.2693   22.4693   -2.3795 H   0  0  0  0  0  0  0  0  0  0  0  0
  -37.0844   22.9885    1.4818 H   0  0  0  0  0  0  0  0  0  0  0  0
  -38.2761   22.1800    0.6129 H   0  0  0  0  0  0  0  0  0  0  0  0
  -35.9282   23.5632   -0.4984 H   0  0  0  0  0  0  0  0  0  0  0  0
  -37.7332   25.2214    1.4804 H   0  0  0  0  0  0  0  0  0  0  0  0
  -34.6891   30.3099   -2.5892 H   0  0  0  0  0  0  0  0  0  0  0  0
  -37.8356   29.6148    1.9469 H   0  0  0  0  0  0  0  0  0  0  0  0
  -38.0530   27.1806   -0.6164 H   0  0  0  0  0  0  0  0  0  0  0  0
  -30.7855   30.4890   -5.3710 H   0  0  0  0  0  0  0  0  0  0  0  0
  -30.6793   29.4930   -6.7222 H   0  0  0  0  0  0  0  0  0  0  0  0
  -35.2474   27.0517    0.5440 H   0  0  0  0  0  0  0  0  0  0  0  0
  -35.7151   26.0123   -0.9046 H   0  0  0  0  0  0  0  0  0  0  0  0
  -30.0606   31.3353   -1.0781 H   0  0  0  0  0  0  0  0  0  0  0  0
  -36.0977   27.8458   -2.2441 H   0  0  0  0  0  0  0  0  0  0  0  0
  -35.9340   28.9703   -0.7446 H   0  0  0  0  0  0  0  0  0  0  0  0
  -29.9896   31.0986   -8.4598 H   0  0  0  0  0  0  0  0  0  0  0  0
  -31.9566   29.1047   -2.7670 H   0  0  0  0  0  0  0  0  0  0  0  0
  -32.5679   31.7133   -4.0422 H   0  0  0  0  0  0  0  0  0  0  0  0
  -31.6383   30.2066   -4.6167 H   0  0  0  0  0  0  0  0  0  0  0  0
  -33.9613   29.2077   -4.8568 H   0  0  0  0  0  0  0  0  0  0  0  0
  -34.4456   30.9931   -4.9338 H   0  0  0  0  0  0  0  0  0  0  0  0
  -33.2367   29.2643   -6.9288 H   0  0  0  0  0  0  0  0  0  0  0  0
  -34.1845   30.8450   -7.0271 H   0  0  0  0  0  0  0  0  0  0  0  0
  -32.0810   32.1245   -6.5504 H   0  0  0  0  0  0  0  0  0  0  0  0
  1  4  1  0
  2  4  1  0
  3  7  2  0
  4  7  1  0
  5  7  1  0
  5 10  1  0
  6 13  2  0
  8 19  1  0
  8 21  1  0
  9 13  1  0
 10 13  1  0
 10 15  1  0
 11 27  1  0
 12 19  2  0
 14 22  2  0
 15 17  1  0
 16 22  1  0
 17 19  1  0
 18 26  2  0
 20 26  1  0
 21 22  1  0
 21 23  1  0
 23 24  1  0
 24 25  1  0
 25 27  1  0
 26 27  1  0
  1 28  1  0
  1 29  1  0
  1 30  1  0
  2 31  1  0
  2 32  1  0
  4 33  1  0
  5 34  1  0
  8 35  1  0
  9 36  1  0
 10 37  1  0
 11 38  1  0
 11 39  1  0
 15 40  1  0
 15 41  1  0
 16 42  1  0
 17 43  1  0
 17 44  1  0
 20 45  1  0
 21 46  1  0
 23 47  1  0
 23 48  1  0
 24 49  1  0
 24 50  1  0
 25 51  1  0
 25 52  1  0
 27 53  1  0
A    1
C1
A    2
N1
A    3
O1
A    4
C2
A    5
N2
A    6
O2
A    7
C3
A    8
N3
A    9
O3
A   10
C4
A   11
N4
A   12
O4
A   13
C5
A   14
O5
A   15
C6
A   16
O6
A   17
C7
A   18
O7
A   19
C8
A   20
O8
A   21
C9
A   22
C10
A   23
C11
A   24
C12
A   25
C13
A   26
C15
A   27
C14
M  END
