1PJX_ME2_A_471
     RDKit          3D

 26 25  0  0  0  0  0  0  0  0999 V2000
    3.1350  -23.3280    6.3740 C   0  0  0  0  0  0  0  0  0  0  0  0
    4.6490  -23.5430    6.3890 C   0  0  0  0  0  0  0  0  0  0  0  0
    5.5470  -22.7680    7.2610 O   0  0  0  0  0  0  0  0  0  0  0  0
    5.5210  -23.2310    8.6530 C   0  0  0  0  0  0  0  0  0  0  0  0
    6.0560  -24.7110    8.7070 C   0  0  0  0  0  0  0  0  0  0  0  0
    6.0720  -25.3560    7.3990 O   0  0  0  0  0  0  0  0  0  0  0  0
    6.7740  -26.6140    7.3510 C   0  0  0  0  0  0  0  0  0  0  0  0
    7.9500  -26.7490    8.3090 C   0  0  0  0  0  0  0  0  0  0  0  0
    8.8580  -27.8140    8.4910 O   0  0  0  0  0  0  0  0  0  0  0  0
   10.2590  -27.4450    8.6780 C   0  0  0  0  0  0  0  0  0  0  0  0
    2.7619  -23.2750    7.4074 H   0  0  0  0  0  0  0  0  0  0  0  0
    2.9033  -22.3879    5.8519 H   0  0  0  0  0  0  0  0  0  0  0  0
    2.6507  -24.1664    5.8519 H   0  0  0  0  0  0  0  0  0  0  0  0
    4.8054  -24.5999    6.6506 H   0  0  0  0  0  0  0  0  0  0  0  0
    4.9387  -23.1852    5.3900 H   0  0  0  0  0  0  0  0  0  0  0  0
    6.1619  -22.5837    9.2697 H   0  0  0  0  0  0  0  0  0  0  0  0
    4.4922  -23.1917    9.0402 H   0  0  0  0  0  0  0  0  0  0  0  0
    7.0813  -24.6994    9.1054 H   0  0  0  0  0  0  0  0  0  0  0  0
    5.3737  -25.2857    9.3505 H   0  0  0  0  0  0  0  0  0  0  0  0
    6.0541  -27.4123    7.5845 H   0  0  0  0  0  0  0  0  0  0  0  0
    7.2010  -26.6816    6.3395 H   0  0  0  0  0  0  0  0  0  0  0  0
    8.5916  -25.8885    8.0681 H   0  0  0  0  0  0  0  0  0  0  0  0
    7.3679  -26.8980    9.2304 H   0  0  0  0  0  0  0  0  0  0  0  0
   10.4823  -27.3862    9.7535 H   0  0  0  0  0  0  0  0  0  0  0  0
   10.9036  -28.2040    8.2107 H   0  0  0  0  0  0  0  0  0  0  0  0
   10.4461  -26.4669    8.2107 H   0  0  0  0  0  0  0  0  0  0  0  0
  1  2  1  0
  2  3  1  0
  3  4  1  0
  4  5  1  0
  5  6  1  0
  6  7  1  0
  7  8  1  0
  8  9  1  0
  9 10  1  0
  1 11  1  0
  1 12  1  0
  1 13  1  0
  2 14  1  0
  2 15  1  0
  4 16  1  0
  4 17  1  0
  5 18  1  0
  5 19  1  0
  7 20  1  0
  7 21  1  0
  8 22  1  0
  8 23  1  0
 10 24  1  0
 10 25  1  0
 10 26  1  0
A    1
C7
A    2
C6
A    3
O3
A    4
C5
A    5
C4
A    6
O2
A    7
C3
A    8
C2
A    9
O1
A   10
C1
M  END
