2Y5F_XWG_A_1244
     RDKit          3D

 67 72  0  0  0  0  0  0  0  0999 V2000
   -0.5040    5.7010   27.9950 Cl  0  0  0  0  0  0  0  0  0  0  0  0
   -1.2770    7.2730   27.5840 C   0  0  0  0  0  0  0  0  0  0  0  0
   -2.3770    7.8220   28.1910 C   0  0  0  0  0  0  0  0  0  0  0  0
   -2.6990    9.0320   27.5800 C   0  0  0  0  0  0  0  0  0  0  0  0
   -0.5440    8.1750   26.3360 S   0  0  0  0  0  0  0  0  0  0  0  0
   -1.7920    9.3340   26.5820 C   0  0  0  0  0  0  0  0  0  0  0  0
   -1.8180   10.4320   25.7310 C   0  0  0  0  0  0  0  0  0  0  0  0
   -2.9060   11.1400   25.3110 C   0  0  0  0  0  0  0  0  0  0  0  0
   -0.7090   10.8190   25.0880 O   0  0  0  0  0  0  0  0  0  0  0  0
   -1.0440   11.8910   24.2560 N   0  0  0  0  0  0  0  0  0  0  0  0
   -2.3470   12.0750   24.3730 C   0  0  0  0  0  0  0  0  0  0  0  0
   -3.1590   13.1180   23.6470 C   0  0  0  0  0  0  0  0  0  0  0  0
   -4.5040   13.4520   24.1660 N   0  0  0  0  0  0  0  0  0  0  0  0
   -5.1350   14.2220   23.0740 C   0  0  0  0  0  0  0  0  0  0  0  0
   -4.7350   15.6770   23.3140 C   0  0  0  0  0  0  0  0  0  0  0  0
   -4.4180   15.7660   24.8030 C   0  0  0  0  0  0  0  0  0  0  0  0
   -4.4420   14.3340   25.3410 C   0  0  0  0  0  0  0  0  0  0  0  0
   -4.6220   13.6230   21.7710 C   0  0  0  0  0  0  0  0  0  0  0  0
   -3.4340   12.7590   22.1770 C   0  0  0  0  0  0  0  0  0  0  0  0
   -3.9270   11.3500   21.9650 C   0  0  0  0  0  0  0  0  0  0  0  0
   -3.2810   10.3010   22.1250 O   0  0  0  0  0  0  0  0  0  0  0  0
   -5.5970   12.6270   21.2260 C   0  0  0  0  0  0  0  0  0  0  0  0
   -6.5930   12.8870   20.5530 O   0  0  0  0  0  0  0  0  0  0  0  0
   -5.2690   11.3580   21.6520 N   0  0  0  0  0  0  0  0  0  0  0  0
   -5.9380   10.1520   21.1060 C   0  0  0  0  0  0  0  0  0  0  0  0
   -5.5230    9.6770   19.7290 C   0  0  0  0  0  0  0  0  0  0  0  0
   -6.4250    8.4940   19.3970 C   0  0  0  0  0  0  0  0  0  0  0  0
   -6.2420    7.9000   18.0570 N   0  0  0  0  0  0  0  0  0  0  0  0
   -6.3460    8.8810   16.9370 C   0  0  0  0  0  0  0  0  0  0  0  0
   -7.5910    9.7700   16.9810 C   0  0  0  0  0  0  0  0  0  0  0  0
   -8.7440    8.9660   16.7620 O   0  0  0  0  0  0  0  0  0  0  0  0
   -7.2340    6.8110   17.8900 C   0  0  0  0  0  0  0  0  0  0  0  0
   -6.5820    5.5360   18.4020 C   0  0  0  0  0  0  0  0  0  0  0  0
   -5.1140    5.7350   18.1010 C   0  0  0  0  0  0  0  0  0  0  0  0
   -4.9220    7.2350   18.0090 C   0  0  0  0  0  0  0  0  0  0  0  0
   -2.9235    7.3742   29.0341 H   0  0  0  0  0  0  0  0  0  0  0  0
   -3.5583    9.6614   27.8546 H   0  0  0  0  0  0  0  0  0  0  0  0
   -3.9564   11.0236   25.6162 H   0  0  0  0  0  0  0  0  0  0  0  0
   -2.4861   13.9748   23.7985 H   0  0  0  0  0  0  0  0  0  0  0  0
   -6.2334   14.1814   23.0306 H   0  0  0  0  0  0  0  0  0  0  0  0
   -3.8497   15.9371   22.7152 H   0  0  0  0  0  0  0  0  0  0  0  0
   -5.5329   16.3755   23.0218 H   0  0  0  0  0  0  0  0  0  0  0  0
   -5.1749   16.3771   25.3164 H   0  0  0  0  0  0  0  0  0  0  0  0
   -3.4387   16.2373   24.9728 H   0  0  0  0  0  0  0  0  0  0  0  0
   -5.3253   14.1815   25.9786 H   0  0  0  0  0  0  0  0  0  0  0  0
   -3.5529   14.1222   25.9531 H   0  0  0  0  0  0  0  0  0  0  0  0
   -4.4222   14.4258   21.0461 H   0  0  0  0  0  0  0  0  0  0  0  0
   -2.4945   12.8949   21.6212 H   0  0  0  0  0  0  0  0  0  0  0  0
   -5.7504    9.3264   21.8083 H   0  0  0  0  0  0  0  0  0  0  0  0
   -6.9914   10.4473   20.9915 H   0  0  0  0  0  0  0  0  0  0  0  0
   -5.6611   10.4807   18.9908 H   0  0  0  0  0  0  0  0  0  0  0  0
   -4.4614    9.3898   19.7073 H   0  0  0  0  0  0  0  0  0  0  0  0
   -6.2377    7.7075   20.1429 H   0  0  0  0  0  0  0  0  0  0  0  0
   -7.4515    8.8891   19.4101 H   0  0  0  0  0  0  0  0  0  0  0  0
   -5.4592    9.5311   16.9671 H   0  0  0  0  0  0  0  0  0  0  0  0
   -6.4176    8.2906   16.0116 H   0  0  0  0  0  0  0  0  0  0  0  0
   -7.6622   10.2560   17.9652 H   0  0  0  0  0  0  0  0  0  0  0  0
   -7.5234   10.5420   16.2004 H   0  0  0  0  0  0  0  0  0  0  0  0
   -9.1293    8.6973   17.6335 H   0  0  0  0  0  0  0  0  0  0  0  0
   -8.1403    7.0325   18.4726 H   0  0  0  0  0  0  0  0  0  0  0  0
   -7.5290    6.7059   16.8355 H   0  0  0  0  0  0  0  0  0  0  0  0
   -6.7478    5.4180   19.4830 H   0  0  0  0  0  0  0  0  0  0  0  0
   -6.9932    4.6301   17.9327 H   0  0  0  0  0  0  0  0  0  0  0  0
   -4.8478    5.2538   17.1484 H   0  0  0  0  0  0  0  0  0  0  0  0
   -4.4733    5.2873   18.8750 H   0  0  0  0  0  0  0  0  0  0  0  0
   -4.4193    7.4838   17.0628 H   0  0  0  0  0  0  0  0  0  0  0  0
   -4.3045    7.5800   18.8514 H   0  0  0  0  0  0  0  0  0  0  0  0
 12 19  1  0
 12 13  1  0
 12 11  1  0
  5  6  1  0
  5  2  1  0
  1  2  1  0
 19 18  1  0
 19 20  1  0
 13 14  1  0
 13 17  1  0
 11 10  2  0
 11  8  1  0
 18 14  1  0
 18 22  1  0
 20 24  1  0
 20 21  2  0
 14 15  1  0
 17 16  1  0
 10  9  1  0
  9  7  1  0
 22 24  1  0
 22 23  2  0
 24 25  1  0
 15 16  1  0
  8  7  2  0
  7  6  1  0
 25 26  1  0
  6  4  2  0
 26 27  1  0
  4  3  1  0
 27 28  1  0
  3  2  2  0
 28 35  1  0
 28 32  1  0
 28 29  1  0
 35 34  1  0
 32 33  1  0
 34 33  1  0
 29 30  1  0
 30 31  1  0
  3 36  1  0
  4 37  1  0
  8 38  1  0
 12 39  1  0
 14 40  1  0
 15 41  1  0
 15 42  1  0
 16 43  1  0
 16 44  1  0
 17 45  1  0
 17 46  1  0
 18 47  1  0
 19 48  1  0
 25 49  1  0
 25 50  1  0
 26 51  1  0
 26 52  1  0
 27 53  1  0
 27 54  1  0
 29 55  1  0
 29 56  1  0
 30 57  1  0
 30 58  1  0
 31 59  1  0
 32 60  1  0
 32 61  1  0
 33 62  1  0
 33 63  1  0
 34 64  1  0
 34 65  1  0
 35 66  1  0
 35 67  1  0
M  CHG  1  28   1
A    1
CL1
A    2
C25
A    3
C24
A    4
C22
A    5
S1
A    6
C20
A    7
C17
A    8
C16
A    9
O10
A   10
N9
A   11
C4
A   12
C1
A   13
N3
A   14
C7
A   15
C14
A   16
C15
A   17
C8
A   18
C5
A   19
C2
A   20
C6
A   21
O13
A   22
C11
A   23
O18
A   24
N12
A   25
C19
A   26
C21
A   27
C23
A   28
N29
A   29
C34
A   30
C35
A   31
O36
A   32
C31
A   33
C33
A   34
C32
A   35
C30
M  END
