2Y5K_YCU_A_1336
     RDKit          3D

 53 54  0  0  0  0  0  0  0  0999 V2000
   16.6550   58.9840   18.5350 S   0  0  0  0  0  0  0  0  0  0  0  0
   18.3840   58.7730   18.7280 C   0  0  0  0  0  0  0  0  0  0  0  0
   16.0970   59.9680   19.7540 N   0  0  0  0  0  0  0  0  0  0  0  0
   19.5360   59.9090   18.0840 S   0  0  0  0  0  0  0  0  0  0  0  0
   15.8220   59.5850   21.0300 C   0  0  0  0  0  0  0  0  0  0  0  0
   15.0190   60.5190   23.1800 C   0  0  0  0  0  0  0  0  0  0  0  0
   14.2000   61.7640   24.9610 C   0  0  0  0  0  0  0  0  0  0  0  0
   19.0280   57.7710   19.3340 C   0  0  0  0  0  0  0  0  0  0  0  0
   14.6430   61.6700   23.7180 N   0  0  0  0  0  0  0  0  0  0  0  0
   20.8830   58.9560   18.6800 C   0  0  0  0  0  0  0  0  0  0  0  0
   15.4180   60.5790   21.8520 N   0  0  0  0  0  0  0  0  0  0  0  0
   13.8110   62.9990   25.4800 N   0  0  0  0  0  0  0  0  0  0  0  0
   20.4100   57.8750   19.3050 C   0  0  0  0  0  0  0  0  0  0  0  0
   13.3370   63.9940   24.6880 C   0  0  0  0  0  0  0  0  0  0  0  0
   14.9370   59.3380   23.9110 C   0  0  0  0  0  0  0  0  0  0  0  0
   14.1100   60.6330   25.7630 C   0  0  0  0  0  0  0  0  0  0  0  0
   16.5320   59.7420   17.3380 O   0  0  0  0  0  0  0  0  0  0  0  0
   16.0790   57.7050   18.7020 O   0  0  0  0  0  0  0  0  0  0  0  0
   14.4760   59.3950   25.2350 C   0  0  0  0  0  0  0  0  0  0  0  0
   15.9600   58.4300   21.4120 O   0  0  0  0  0  0  0  0  0  0  0  0
   12.9920   65.0360   25.2040 O   0  0  0  0  0  0  0  0  0  0  0  0
   13.2610   63.8500   23.3430 N   0  0  0  0  0  0  0  0  0  0  0  0
   22.3510   59.3070   18.5230 C   0  0  0  0  0  0  0  0  0  0  0  0
   14.3920   58.2790   26.0190 O   0  0  0  0  0  0  0  0  0  0  0  0
   21.3280   56.8500   19.9330 C   0  0  0  0  0  0  0  0  0  0  0  0
   24.2230   59.5130   16.9840 O   0  0  0  0  0  0  0  0  0  0  0  0
   22.8150   59.2090   17.0600 C   0  0  0  0  0  0  0  0  0  0  0  0
   12.7790   64.9050   22.4410 C   0  0  0  0  0  0  0  0  0  0  0  0
   13.5380   58.3570   27.1660 C   0  0  0  0  0  0  0  0  0  0  0  0
   24.7280   59.8130   15.6740 C   0  0  0  0  0  0  0  0  0  0  0  0
   15.9455   60.9598   19.5212 H   0  0  0  0  0  0  0  0  0  0  0  0
   18.5043   56.9324   19.8163 H   0  0  0  0  0  0  0  0  0  0  0  0
   15.4042   61.5190   21.4311 H   0  0  0  0  0  0  0  0  0  0  0  0
   13.8857   63.1606   26.4945 H   0  0  0  0  0  0  0  0  0  0  0  0
   15.2280   58.3780   23.4596 H   0  0  0  0  0  0  0  0  0  0  0  0
   13.7547   60.7129   26.8010 H   0  0  0  0  0  0  0  0  0  0  0  0
   13.5568   62.9535   22.9310 H   0  0  0  0  0  0  0  0  0  0  0  0
   22.5097   60.3362   18.8774 H   0  0  0  0  0  0  0  0  0  0  0  0
   22.9368   58.5872   19.1135 H   0  0  0  0  0  0  0  0  0  0  0  0
   21.2633   56.9223   21.0287 H   0  0  0  0  0  0  0  0  0  0  0  0
   21.0251   55.8419   19.6135 H   0  0  0  0  0  0  0  0  0  0  0  0
   22.3632   57.0403   19.6135 H   0  0  0  0  0  0  0  0  0  0  0  0
   22.6387   58.1896   16.6863 H   0  0  0  0  0  0  0  0  0  0  0  0
   22.2501   59.9258   16.4459 H   0  0  0  0  0  0  0  0  0  0  0  0
   12.3942   65.7473   23.0346 H   0  0  0  0  0  0  0  0  0  0  0  0
   13.6079   65.2520   21.8066 H   0  0  0  0  0  0  0  0  0  0  0  0
   11.9741   64.5055   21.8066 H   0  0  0  0  0  0  0  0  0  0  0  0
   14.1465   58.3014   28.0807 H   0  0  0  0  0  0  0  0  0  0  0  0
   12.9875   59.3092   27.1492 H   0  0  0  0  0  0  0  0  0  0  0  0
   12.8241   57.5203   27.1492 H   0  0  0  0  0  0  0  0  0  0  0  0
   25.6706   60.3729   15.7637 H   0  0  0  0  0  0  0  0  0  0  0  0
   24.9089   58.8758   15.1273 H   0  0  0  0  0  0  0  0  0  0  0  0
   23.9915   60.4201   15.1273 H   0  0  0  0  0  0  0  0  0  0  0  0
  1  2  1  0
  1  3  1  0
  1 17  2  0
  1 18  2  0
  2  4  1  0
  2  8  2  0
  3  5  1  0
  4 10  1  0
  5 11  1  0
  5 20  2  0
  6  9  1  0
  6 11  1  0
  6 15  2  0
  7  9  2  0
  7 12  1  0
  7 16  1  0
  8 13  1  0
 10 13  2  0
 10 23  1  0
 12 14  1  0
 13 25  1  0
 14 21  2  0
 14 22  1  0
 15 19  1  0
 16 19  2  0
 19 24  1  0
 22 28  1  0
 23 27  1  0
 24 29  1  0
 26 27  1  0
 26 30  1  0
  3 31  1  0
  8 32  1  0
 11 33  1  0
 12 34  1  0
 15 35  1  0
 16 36  1  0
 22 37  1  0
 23 38  1  0
 23 39  1  0
 25 40  1  0
 25 41  1  0
 25 42  1  0
 27 43  1  0
 27 44  1  0
 28 45  1  0
 28 46  1  0
 28 47  1  0
 29 48  1  0
 29 49  1  0
 29 50  1  0
 30 51  1  0
 30 52  1  0
 30 53  1  0
A    1
S1
A    2
C2
A    3
N3
A    4
S4
A    5
C5
A    6
C6
A    7
C7
A    8
C8
A    9
N9
A   10
C10
A   11
N11
A   12
N12
A   13
C13
A   14
C14
A   15
C15
A   16
C16
A   17
O17
A   18
O18
A   19
C19
A   20
O20
A   21
O21
A   22
N22
A   23
C23
A   24
O24
A   25
C25
A   26
O26
A   27
C27
A   28
C28
A   29
C29
A   30
C30
M  END
