2Y66_N04_A_500
     RDKit          3D

 54 56  0  0  0  0  0  0  0  0999 V2000
    0.5060   27.3950  120.7780 O   0  0  0  0  0  0  0  0  0  0  0  0
    1.3290   27.5570  121.7100 C   0  0  0  0  0  0  0  0  0  0  0  0
    1.1970   28.3990  122.6230 O   0  0  0  0  0  0  0  0  0  0  0  0
    2.6020   26.7710  121.7830 C   0  0  0  0  0  0  0  0  0  0  0  0
    2.7840   25.8010  120.6420 C   0  0  0  0  0  0  0  0  0  0  0  0
    5.0820   25.2400  121.3850 C   0  0  0  0  0  0  0  0  0  0  0  0
    5.7790   25.3830  120.3500 O   0  0  0  0  0  0  0  0  0  0  0  0
    5.4730   25.4990  122.5470 O   0  0  0  0  0  0  0  0  0  0  0  0
    3.6310   23.5220  120.4310 N   0  0  0  0  0  0  0  0  0  0  0  0
    4.1170   22.3580  120.8470 C   0  0  0  0  0  0  0  0  0  0  0  0
    4.7920   22.2390  121.8630 O   0  0  0  0  0  0  0  0  0  0  0  0
    3.7890   21.1920  119.9630 C   0  0  0  0  0  0  0  0  0  0  0  0
    2.5190   21.1280  119.4020 C   0  0  0  0  0  0  0  0  0  0  0  0
    4.7280   20.2120  119.6670 C   0  0  0  0  0  0  0  0  0  0  0  0
    4.3840   19.1610  118.8230 C   0  0  0  0  0  0  0  0  0  0  0  0
    3.1150   19.0910  118.2620 C   0  0  0  0  0  0  0  0  0  0  0  0
    2.1870   20.0800  118.5530 C   0  0  0  0  0  0  0  0  0  0  0  0
    0.7980   20.0220  117.9760 C   0  0  0  0  0  0  0  0  0  0  0  0
   -1.1760   17.8390  118.3200 C   0  0  0  0  0  0  0  0  0  0  0  0
   -1.6900   16.5850  118.6000 C   0  0  0  0  0  0  0  0  0  0  0  0
   -1.6390   16.0800  119.8890 C   0  0  0  0  0  0  0  0  0  0  0  0
   -0.6270   18.6050  119.3400 C   0  0  0  0  0  0  0  0  0  0  0  0
   -0.5800   18.1050  120.6400 C   0  0  0  0  0  0  0  0  0  0  0  0
   -1.0800   16.8350  120.9080 C   0  0  0  0  0  0  0  0  0  0  0  0
   -1.0210   16.3260  122.3300 C   0  0  0  0  0  0  0  0  0  0  0  0
   -1.3970   13.5480  121.4530 S   0  0  0  0  0  0  0  0  0  0  0  0
   -1.5590   12.4480  122.8210 C   0  0  0  0  0  0  0  0  0  0  0  0
   -1.4950   12.9230  124.0880 N   0  0  0  0  0  0  0  0  0  0  0  0
    3.6830   24.7140  121.2340 C   0  0  0  0  0  0  0  0  0  0  0  0
   -1.3200   14.2530  124.0010 C   0  0  0  0  0  0  0  0  0  0  0  0
   -1.2350   14.8470  122.6450 C   0  0  0  0  0  0  0  0  0  0  0  0
   -1.2260   14.9730  125.0630 O   0  0  0  0  0  0  0  0  0  0  0  0
   -0.1350   19.8550  119.0470 O   0  0  0  0  0  0  0  0  0  0  0  0
   -1.7310   11.1930  122.6700 O   0  0  0  0  0  0  0  0  0  0  0  0
    1.2418   28.1135  123.5699 H   0  0  0  0  0  0  0  0  0  0  0  0
    3.4461   27.4763  121.7768 H   0  0  0  0  0  0  0  0  0  0  0  0
    2.5586   26.1752  122.7066 H   0  0  0  0  0  0  0  0  0  0  0  0
    1.8177   25.3819  120.3249 H   0  0  0  0  0  0  0  0  0  0  0  0
    3.2152   26.2712  119.7459 H   0  0  0  0  0  0  0  0  0  0  0  0
    6.7458   25.5814  120.4278 H   0  0  0  0  0  0  0  0  0  0  0  0
    3.2001   23.5730  119.4969 H   0  0  0  0  0  0  0  0  0  0  0  0
    1.7769   21.9072  119.6303 H   0  0  0  0  0  0  0  0  0  0  0  0
    5.7386   20.2668  120.0979 H   0  0  0  0  0  0  0  0  0  0  0  0
    5.1234   18.3784  118.5978 H   0  0  0  0  0  0  0  0  0  0  0  0
    2.8487   18.2591  117.5934 H   0  0  0  0  0  0  0  0  0  0  0  0
    0.5810   20.9566  117.4380 H   0  0  0  0  0  0  0  0  0  0  0  0
    0.7181   19.1793  117.2735 H   0  0  0  0  0  0  0  0  0  0  0  0
   -1.2022   18.2283  117.2915 H   0  0  0  0  0  0  0  0  0  0  0  0
   -2.1413   15.9863  117.7951 H   0  0  0  0  0  0  0  0  0  0  0  0
   -2.0423   15.0794  120.1038 H   0  0  0  0  0  0  0  0  0  0  0  0
   -0.1496   18.7118  121.4503 H   0  0  0  0  0  0  0  0  0  0  0  0
   -0.8210   17.0313  123.1501 H   0  0  0  0  0  0  0  0  0  0  0  0
   -1.5668   12.3699  124.9539 H   0  0  0  0  0  0  0  0  0  0  0  0
    3.3187   24.4393  122.2349 H   0  0  0  0  0  0  0  0  0  0  0  0
  3  2  1  0
  2  1  2  0
  2  4  1  0
  4  5  1  0
  5 29  1  0
  6  7  1  0
  6  8  2  0
  6 29  1  0
  9 10  1  0
  9 29  1  0
 10 11  2  0
 10 12  1  0
 12 13  2  0
 12 14  1  0
 13 17  1  0
 14 15  2  0
 15 16  1  0
 16 17  2  0
 17 18  1  0
 18 33  1  0
 19 22  2  0
 19 20  1  0
 22 23  1  0
 22 33  1  0
 23 24  2  0
 20 21  2  0
 21 24  1  0
 24 25  1  0
 25 31  2  0
 26 27  1  0
 26 31  1  0
 27 28  1  0
 27 34  2  0
 28 30  1  0
 30 32  2  0
 30 31  1  0
  3 35  1  0
  4 36  1  0
  4 37  1  0
  5 38  1  0
  5 39  1  0
  7 40  1  0
  9 41  1  0
 13 42  1  0
 14 43  1  0
 15 44  1  0
 16 45  1  0
 18 46  1  0
 18 47  1  0
 19 48  1  0
 20 49  1  0
 21 50  1  0
 23 51  1  0
 25 52  1  0
 28 53  1  0
 29 54  1  0
A    1
OE2
A    2
CD
A    3
OE1
A    4
CG
A    5
CB
A    6
C
A    7
OXT
A    8
O
A    9
N
A   10
CAU
A   11
OBC
A   12
CAT
A   13
CAQ
A   14
CAS
A   15
CAR
A   16
CAP
A   17
CAO
A   18
CAN
A   19
CAA
A   20
CAB
A   21
CAG
A   22
CAC
A   23
CAE
A   24
CAF
A   25
CAH
A   26
SBG
A   27
CAL
A   28
NAX
A   29
CA
A   30
CAK
A   31
CAI
A   32
OBE
A   33
OAY
A   34
OBH
M  END
