2Y68_T04_A_500
     RDKit          3D

 55 57  0  0  0  0  0  0  0  0999 V2000
   27.4390    0.4830   47.2550 O   0  0  0  0  0  0  0  0  0  0  0  0
   27.5810    1.3050   46.3040 C   0  0  0  0  0  0  0  0  0  0  0  0
   28.3870    1.2190   45.3770 O   0  0  0  0  0  0  0  0  0  0  0  0
   26.6450    2.4370   46.1720 C   0  0  0  0  0  0  0  0  0  0  0  0
   25.9700    2.7970   47.2260 C   0  0  0  0  0  0  0  0  0  0  0  0
   25.3620    5.2240   46.6410 C   0  0  0  0  0  0  0  0  0  0  0  0
   25.5620    5.5180   45.4200 O   0  0  0  0  0  0  0  0  0  0  0  0
   25.4980    6.0320   47.5570 O   0  0  0  0  0  0  0  0  0  0  0  0
   23.8710    3.6220   47.6500 N   0  0  0  0  0  0  0  0  0  0  0  0
   22.8030    4.4020   47.7330 C   0  0  0  0  0  0  0  0  0  0  0  0
   22.5100    5.2200   46.8780 O   0  0  0  0  0  0  0  0  0  0  0  0
   21.9340    4.1000   48.9240 C   0  0  0  0  0  0  0  0  0  0  0  0
   21.6210    2.7490   49.1150 C   0  0  0  0  0  0  0  0  0  0  0  0
   21.4720    5.0620   49.8350 C   0  0  0  0  0  0  0  0  0  0  0  0
   20.6950    4.6680   50.9160 C   0  0  0  0  0  0  0  0  0  0  0  0
   20.3720    3.3310   51.1060 C   0  0  0  0  0  0  0  0  0  0  0  0
   20.8290    2.3750   50.2100 C   0  0  0  0  0  0  0  0  0  0  0  0
   20.5060    0.9640   50.4760 C   0  0  0  0  0  0  0  0  0  0  0  0
   19.1690    0.5770   50.5740 N   0  0  0  0  0  0  0  0  0  0  0  0
   18.5450    0.1670   49.4100 C   0  0  0  0  0  0  0  0  0  0  0  0
   19.1190    0.4500   48.1690 C   0  0  0  0  0  0  0  0  0  0  0  0
   18.4670    0.0400   47.0080 C   0  0  0  0  0  0  0  0  0  0  0  0
   17.3350   -0.5030   49.5070 C   0  0  0  0  0  0  0  0  0  0  0  0
   16.6860   -0.9210   48.3600 C   0  0  0  0  0  0  0  0  0  0  0  0
   17.2660   -0.6720   47.1160 C   0  0  0  0  0  0  0  0  0  0  0  0
   16.6120   -0.9870   45.8400 C   0  0  0  0  0  0  0  0  0  0  0  0
   15.1550   -1.1180   45.6180 C   0  0  0  0  0  0  0  0  0  0  0  0
   13.9460   -1.0220   46.8700 S   0  0  0  0  0  0  0  0  0  0  0  0
   12.7710   -1.2870   45.6280 C   0  0  0  0  0  0  0  0  0  0  0  0
   11.0800   -1.3960   46.0230 S   0  0  0  0  0  0  0  0  0  0  0  0
   13.1920   -1.4390   44.3610 N   0  0  0  0  0  0  0  0  0  0  0  0
   14.5460   -1.3430   44.3860 C   0  0  0  0  0  0  0  0  0  0  0  0
   21.7460    6.3860   49.7190 F   0  0  0  0  0  0  0  0  0  0  0  0
   15.2150   -1.4260   43.2820 O   0  0  0  0  0  0  0  0  0  0  0  0
   24.9920    3.8940   47.1200 C   0  0  0  0  0  0  0  0  0  0  0  0
   27.4932    0.7965   48.1925 H   0  0  0  0  0  0  0  0  0  0  0  0
   27.2300    3.3090   45.8444 H   0  0  0  0  0  0  0  0  0  0  0  0
   25.8815    2.0818   45.4642 H   0  0  0  0  0  0  0  0  0  0  0  0
   25.4197    1.9097   47.5723 H   0  0  0  0  0  0  0  0  0  0  0  0
   26.7393    3.2003   47.9009 H   0  0  0  0  0  0  0  0  0  0  0  0
   25.4467    5.7273   48.4975 H   0  0  0  0  0  0  0  0  0  0  0  0
   23.7809    2.6835   48.0648 H   0  0  0  0  0  0  0  0  0  0  0  0
   21.9928    1.9882   48.4129 H   0  0  0  0  0  0  0  0  0  0  0  0
   20.3316    5.4226   51.6291 H   0  0  0  0  0  0  0  0  0  0  0  0
   19.7548    3.0301   51.9654 H   0  0  0  0  0  0  0  0  0  0  0  0
   20.9523    0.3736   49.6623 H   0  0  0  0  0  0  0  0  0  0  0  0
   20.9022    0.7919   51.4876 H   0  0  0  0  0  0  0  0  0  0  0  0
   18.6686    0.5959   51.4741 H   0  0  0  0  0  0  0  0  0  0  0  0
   20.0751    0.9905   48.1087 H   0  0  0  0  0  0  0  0  0  0  0  0
   18.8900    0.2725   46.0196 H   0  0  0  0  0  0  0  0  0  0  0  0
   16.8924   -0.7015   50.4943 H   0  0  0  0  0  0  0  0  0  0  0  0
   15.7212   -1.4451   48.4278 H   0  0  0  0  0  0  0  0  0  0  0  0
   17.2655   -1.1397   44.9684 H   0  0  0  0  0  0  0  0  0  0  0  0
   12.6020   -1.5976   43.5318 H   0  0  0  0  0  0  0  0  0  0  0  0
   24.7754    4.2044   46.0872 H   0  0  0  0  0  0  0  0  0  0  0  0
  1  2  1  0
  2  3  2  0
  2  4  1  0
  4  5  1  0
  5 35  1  0
  6  8  1  0
  6  7  2  0
  6 35  1  0
  9 10  1  0
  9 35  1  0
 10 11  2  0
 10 12  1  0
 12 13  2  0
 12 14  1  0
 13 17  1  0
 14 15  2  0
 14 33  1  0
 15 16  1  0
 16 17  2  0
 17 18  1  0
 18 19  1  0
 19 20  1  0
 20 21  2  0
 20 23  1  0
 21 22  1  0
 22 25  2  0
 23 24  2  0
 24 25  1  0
 25 26  1  0
 26 27  2  0
 27 28  1  0
 27 32  1  0
 28 29  1  0
 29 30  2  0
 29 31  1  0
 31 32  1  0
 32 34  2  0
  1 36  1  0
  4 37  1  0
  4 38  1  0
  5 39  1  0
  5 40  1  0
  8 41  1  0
  9 42  1  0
 13 43  1  0
 15 44  1  0
 16 45  1  0
 18 46  1  0
 18 47  1  0
 19 48  1  0
 21 49  1  0
 22 50  1  0
 23 51  1  0
 24 52  1  0
 26 53  1  0
 31 54  1  0
 35 55  1  0
A    1
OE1
A    2
CD
A    3
OE2
A    4
CG
A    5
CB
A    6
C
A    7
O
A    8
OXT
A    9
N
A   10
CAU
A   11
OBC
A   12
CAT
A   13
CAQ
A   14
CAS
A   15
CAR
A   16
CAP
A   17
CAO
A   18
CAN
A   19
NAY
A   20
CAA
A   21
CAC
A   22
CAE
A   23
CAB
A   24
CAG
A   25
CAF
A   26
CAH
A   27
CAI
A   28
SBG
A   29
CAL
A   30
SBH
A   31
NAX
A   32
CAK
A   33
FAS
A   34
OBE
A   35
CA
M  END
