2Y77_CB8_A_1144
     RDKit          3D

 49 52  0  0  0  0  0  0  0  0999 V2000
    2.9040   13.9280   23.1960 C   0  0  0  0  0  0  0  0  0  0  0  0
    2.6640   13.3050   21.8120 C   0  0  0  0  0  0  0  0  0  0  0  0
    3.7080   13.7540   20.9280 O   0  0  0  0  0  0  0  0  0  0  0  0
    2.6300   11.7740   21.8920 C   0  0  0  0  0  0  0  0  0  0  0  0
    2.0630   11.2490   20.6830 O   0  0  0  0  0  0  0  0  0  0  0  0
    1.7360   11.3370   23.0510 C   0  0  0  0  0  0  0  0  0  0  0  0
    2.3530   11.7910   24.3830 C   0  0  0  0  0  0  0  0  0  0  0  0
    1.5660   11.3000   25.5910 C   0  0  0  0  0  0  0  0  0  0  0  0
    2.1970   11.2340   26.6680 O   0  0  0  0  0  0  0  0  0  0  0  0
    0.3710   11.0030   25.4260 O   0  0  0  0  0  0  0  0  0  0  0  0
    3.8540   10.9960   24.5060 O   0  0  0  0  0  0  0  0  0  0  0  0
    2.6220   13.3040   24.4060 C   0  0  0  0  0  0  0  0  0  0  0  0
    0.2950   17.0970   24.4200 C   0  0  0  0  0  0  0  0  0  0  0  0
    0.0350   17.7550   25.5740 C   0  0  0  0  0  0  0  0  0  0  0  0
   -1.2030   18.0950   26.1210 C   0  0  0  0  0  0  0  0  0  0  0  0
   -1.2960   18.7790   27.3260 C   0  0  0  0  0  0  0  0  0  0  0  0
   -0.1410   19.1400   28.0050 C   0  0  0  0  0  0  0  0  0  0  0  0
    1.1060   18.8130   27.4810 C   0  0  0  0  0  0  0  0  0  0  0  0
    1.1960   18.1270   26.2750 C   0  0  0  0  0  0  0  0  0  0  0  0
    2.5210   17.5950   25.3710 S   0  0  0  0  0  0  0  0  0  0  0  0
    1.5930   16.9200   24.1430 C   0  0  0  0  0  0  0  0  0  0  0  0
    2.1300   16.2340   23.0030 C   0  0  0  0  0  0  0  0  0  0  0  0
    3.3350   15.2340   23.2420 O   0  0  0  0  0  0  0  0  0  0  0  0
    2.8810   14.0110   25.7480 C   0  0  0  0  0  0  0  0  0  0  0  0
    1.5470   14.4020   26.4020 C   0  0  0  0  0  0  0  0  0  0  0  0
    1.3490   14.9570   27.6000 C   0  0  0  0  0  0  0  0  0  0  0  0
    0.0540   15.2010   27.9020 C   0  0  0  0  0  0  0  0  0  0  0  0
   -0.8500   14.8530   26.9720 C   0  0  0  0  0  0  0  0  0  0  0  0
    0.0330   14.2130   25.6840 S   0  0  0  0  0  0  0  0  0  0  0  0
    1.6851   13.6253   21.4259 H   0  0  0  0  0  0  0  0  0  0  0  0
    4.4737   14.0833   21.4621 H   0  0  0  0  0  0  0  0  0  0  0  0
    3.6554   11.4033   22.0376 H   0  0  0  0  0  0  0  0  0  0  0  0
    1.3555   10.5939   20.9076 H   0  0  0  0  0  0  0  0  0  0  0  0
    0.7407   11.7909   22.9359 H   0  0  0  0  0  0  0  0  0  0  0  0
    1.6457   10.2407   23.0471 H   0  0  0  0  0  0  0  0  0  0  0  0
    1.7122   11.2847   27.5297 H   0  0  0  0  0  0  0  0  0  0  0  0
    4.0853   10.8735   25.4608 H   0  0  0  0  0  0  0  0  0  0  0  0
   -0.5036   16.7334   23.7567 H   0  0  0  0  0  0  0  0  0  0  0  0
   -2.1233   17.8157   25.5872 H   0  0  0  0  0  0  0  0  0  0  0  0
   -2.2823   19.0339   27.7410 H   0  0  0  0  0  0  0  0  0  0  0  0
   -0.2111   19.6849   28.9580 H   0  0  0  0  0  0  0  0  0  0  0  0
    2.0210   19.0974   28.0212 H   0  0  0  0  0  0  0  0  0  0  0  0
    1.3097   15.6570   22.5510 H   0  0  0  0  0  0  0  0  0  0  0  0
    2.5527   17.0313   22.3741 H   0  0  0  0  0  0  0  0  0  0  0  0
    3.4297   13.3322   26.4174 H   0  0  0  0  0  0  0  0  0  0  0  0
    3.4752   14.9192   25.5689 H   0  0  0  0  0  0  0  0  0  0  0  0
    2.1741   15.1967   28.2869 H   0  0  0  0  0  0  0  0  0  0  0  0
   -0.2428   15.6593   28.8569 H   0  0  0  0  0  0  0  0  0  0  0  0
   -1.9426   14.9627   27.0365 H   0  0  0  0  0  0  0  0  0  0  0  0
  1  2  1  0
  1 12  2  0
  1 23  1  0
  2  3  1  0
  2  4  1  0
  4  5  1  0
  4  6  1  0
  6  7  1  0
  7  8  1  0
  7 11  1  0
  7 12  1  0
  8  9  1  0
  8 10  2  0
 12 24  1  0
 13 14  1  0
 13 21  2  0
 14 15  2  0
 14 19  1  0
 15 16  1  0
 16 17  2  0
 17 18  1  0
 18 19  2  0
 19 20  1  0
 20 21  1  0
 21 22  1  0
 22 23  1  0
 24 25  1  0
 25 26  2  0
 25 29  1  0
 26 27  1  0
 27 28  2  0
 28 29  1  0
  2 30  1  0
  3 31  1  0
  4 32  1  0
  5 33  1  0
  6 34  1  0
  6 35  1  0
  9 36  1  0
 11 37  1  0
 13 38  1  0
 15 39  1  0
 16 40  1  0
 17 41  1  0
 18 42  1  0
 22 43  1  0
 22 44  1  0
 24 45  1  0
 24 46  1  0
 26 47  1  0
 27 48  1  0
 28 49  1  0
A    1
CAV
A    2
CBB
A    3
OAD
A    4
CBA
A    5
OAC
A    6
CAP
A    7
CBC
A    8
CAT
A    9
OAB
A   10
OAA
A   11
OAE
A   12
CAU
A   13
CAM
A   14
CAY
A   15
CAK
A   16
CAF
A   17
CAG
A   18
CAL
A   19
CAZ
A   20
SAS
A   21
CAX
A   22
CAN
A   23
OAQ
A   24
CAO
A   25
CAW
A   26
CAJ
A   27
CAH
A   28
CAI
A   29
SAR
M  END
