2Y7Z_C0Z_A_1245
     RDKit          3D

 59 63  0  0  0  0  0  0  0  0999 V2000
    7.9740    6.3450   21.7500 O   0  0  0  0  0  0  0  0  0  0  0  0
    6.8620    5.9370   22.0180 C   0  0  0  0  0  0  0  0  0  0  0  0
    6.3000    4.7850   21.5610 N   0  0  0  0  0  0  0  0  0  0  0  0
    6.9080    3.8350   20.7200 C   0  0  0  0  0  0  0  0  0  0  0  0
    7.9710    4.1430   19.8700 C   0  0  0  0  0  0  0  0  0  0  0  0
    6.4340    2.5170   20.7640 C   0  0  0  0  0  0  0  0  0  0  0  0
    6.9990    1.5380   19.9750 C   0  0  0  0  0  0  0  0  0  0  0  0
    8.0450    1.8470   19.1170 C   0  0  0  0  0  0  0  0  0  0  0  0
    8.5370    3.1450   19.0810 C   0  0  0  0  0  0  0  0  0  0  0  0
    9.6720    3.2270   18.0950 C   0  0  0  0  0  0  0  0  0  0  0  0
   10.1070    1.7580   17.9070 C   0  0  0  0  0  0  0  0  0  0  0  0
    8.8150    0.9480   18.1590 C   0  0  0  0  0  0  0  0  0  0  0  0
    8.1210    0.6090   16.8730 N   0  0  0  0  0  0  0  0  0  0  0  0
    7.7100    1.8000   16.0970 C   0  0  0  0  0  0  0  0  0  0  0  0
    6.8710   -0.1230   17.1640 C   0  0  0  0  0  0  0  0  0  0  0  0
    5.9030    6.6160   22.9650 C   0  0  0  0  0  0  0  0  0  0  0  0
    4.5430    5.9790   22.6000 C   0  0  0  0  0  0  0  0  0  0  0  0
    4.9560    4.5770   22.1290 C   0  0  0  0  0  0  0  0  0  0  0  0
    5.9040    8.0660   22.8050 N   0  0  0  0  0  0  0  0  0  0  0  0
    6.3110    9.0510   24.0100 S   0  0  0  0  0  0  0  0  0  0  0  0
    6.1740   10.3420   23.4470 O   0  0  0  0  0  0  0  0  0  0  0  0
    5.5830    8.7370   25.1920 O   0  0  0  0  0  0  0  0  0  0  0  0
    8.0200    8.7750   24.3660 C   0  0  0  0  0  0  0  0  0  0  0  0
    8.3710    8.1060   25.5100 C   0  0  0  0  0  0  0  0  0  0  0  0
    9.7350    7.8740   25.8010 C   0  0  0  0  0  0  0  0  0  0  0  0
   10.7170    8.3440   24.8760 C   0  0  0  0  0  0  0  0  0  0  0  0
   10.3150    9.0220   23.7060 C   0  0  0  0  0  0  0  0  0  0  0  0
    8.9860    9.2360   23.4670 C   0  0  0  0  0  0  0  0  0  0  0  0
   10.1460    7.1910   26.9700 C   0  0  0  0  0  0  0  0  0  0  0  0
   11.4880    6.9850   27.2020 C   0  0  0  0  0  0  0  0  0  0  0  0
   12.4390    7.4560   26.2930 C   0  0  0  0  0  0  0  0  0  0  0  0
   14.1380    7.1930   26.5720 Cl  0  0  0  0  0  0  0  0  0  0  0  0
   12.0780    8.1140   25.1480 C   0  0  0  0  0  0  0  0  0  0  0  0
    8.3605    5.1707   19.8234 H   0  0  0  0  0  0  0  0  0  0  0  0
    5.6016    2.2607   21.4358 H   0  0  0  0  0  0  0  0  0  0  0  0
    6.6189    0.5070   20.0257 H   0  0  0  0  0  0  0  0  0  0  0  0
    9.3324    3.6596   17.1424 H   0  0  0  0  0  0  0  0  0  0  0  0
   10.4923    3.8710   18.4449 H   0  0  0  0  0  0  0  0  0  0  0  0
   10.4812    1.5890   16.8865 H   0  0  0  0  0  0  0  0  0  0  0  0
   10.9251    1.4697   18.5834 H   0  0  0  0  0  0  0  0  0  0  0  0
    8.9636   -0.0495   18.5982 H   0  0  0  0  0  0  0  0  0  0  0  0
    7.4307    2.6092   16.7878 H   0  0  0  0  0  0  0  0  0  0  0  0
    8.5459    2.1310   15.4632 H   0  0  0  0  0  0  0  0  0  0  0  0
    6.8479    1.5451   15.4632 H   0  0  0  0  0  0  0  0  0  0  0  0
    6.7371   -0.2014   18.2530 H   0  0  0  0  0  0  0  0  0  0  0  0
    6.0188    0.4188   16.7278 H   0  0  0  0  0  0  0  0  0  0  0  0
    6.9265   -1.1313   16.7278 H   0  0  0  0  0  0  0  0  0  0  0  0
    6.1680    6.4727   24.0229 H   0  0  0  0  0  0  0  0  0  0  0  0
    3.8798    5.9259   23.4760 H   0  0  0  0  0  0  0  0  0  0  0  0
    3.9771    6.5481   21.8478 H   0  0  0  0  0  0  0  0  0  0  0  0
    4.2609    4.1986   21.3651 H   0  0  0  0  0  0  0  0  0  0  0  0
    4.9445    3.8330   22.9391 H   0  0  0  0  0  0  0  0  0  0  0  0
    6.5528    8.2713   22.0318 H   0  0  0  0  0  0  0  0  0  0  0  0
    7.5923    7.7501   26.2007 H   0  0  0  0  0  0  0  0  0  0  0  0
   11.0687    9.3775   22.9880 H   0  0  0  0  0  0  0  0  0  0  0  0
    8.6745    9.7751   22.5602 H   0  0  0  0  0  0  0  0  0  0  0  0
    9.3980    6.8266   27.6895 H   0  0  0  0  0  0  0  0  0  0  0  0
   11.8121    6.4480   28.1057 H   0  0  0  0  0  0  0  0  0  0  0  0
   12.8485    8.4612   24.4440 H   0  0  0  0  0  0  0  0  0  0  0  0
  1  2  2  0
  2  3  1  0
  2 16  1  0
  3  4  1  0
  3 18  1  0
  4  5  2  0
  4  6  1  0
  5  9  1  0
  6  7  2  0
  7  8  1  0
  8  9  2  0
  8 12  1  0
  9 10  1  0
 10 11  1  0
 11 12  1  0
 12 13  1  0
 13 14  1  0
 13 15  1  0
 16 17  1  0
 16 19  1  0
 17 18  1  0
 19 20  1  0
 20 21  2  0
 20 22  2  0
 20 23  1  0
 23 24  2  0
 23 28  1  0
 24 25  1  0
 25 26  2  0
 25 29  1  0
 26 27  1  0
 26 33  1  0
 27 28  2  0
 29 30  2  0
 30 31  1  0
 31 32  1  0
 31 33  2  0
  5 34  1  0
  6 35  1  0
  7 36  1  0
 10 37  1  0
 10 38  1  0
 11 39  1  0
 11 40  1  0
 12 41  1  0
 14 42  1  0
 14 43  1  0
 14 44  1  0
 15 45  1  0
 15 46  1  0
 15 47  1  0
 16 48  1  0
 17 49  1  0
 17 50  1  0
 18 51  1  0
 18 52  1  0
 19 53  1  0
 24 54  1  0
 27 55  1  0
 28 56  1  0
 29 57  1  0
 30 58  1  0
 33 59  1  0
A    1
O3
A    2
C25
A    3
N2
A    4
C8
A    5
C7
A    6
C9
A    7
C10
A    8
C11
A    9
C6
A   10
C5
A   11
C4
A   12
C3
A   13
N1
A   14
C2
A   15
C1
A   16
C14
A   17
C13
A   18
C12
A   19
N3
A   20
S1
A   21
O1
A   22
O2
A   23
C15
A   24
C24
A   25
C23
A   26
C18
A   27
C17
A   28
C16
A   29
C22
A   30
C21
A   31
C20
A   32
CL1
A   33
C19
M  END
