1JCM_137_P_400
     RDKit          3D

 41 41  0  0  0  0  0  0  0  0999 V2000
   24.7110   38.9590   70.0040 P   0  0  0  0  0  0  0  0  0  0  0  0
   24.6740   40.4000   70.1610 O   0  0  0  0  0  0  0  0  0  0  0  0
   26.1330   38.5460   69.8910 O   0  0  0  0  0  0  0  0  0  0  0  0
   24.0000   38.2130   71.0910 O   0  0  0  0  0  0  0  0  0  0  0  0
   23.9500   38.7480   68.7230 O   0  0  0  0  0  0  0  0  0  0  0  0
   24.3600   38.8280   67.5120 C   0  0  0  0  0  0  0  0  0  0  0  0
   23.3830   38.5920   66.3210 C   0  0  0  0  0  0  0  0  0  0  0  0
   23.1480   37.1960   66.1340 O   0  0  0  0  0  0  0  0  0  0  0  0
   22.0130   39.2940   66.5460 C   0  0  0  0  0  0  0  0  0  0  0  0
   22.3150   40.6650   66.5930 O   0  0  0  0  0  0  0  0  0  0  0  0
   20.9960   39.1160   65.3770 C   0  0  0  0  0  0  0  0  0  0  0  0
   21.4270   39.5350   64.1270 O   0  0  0  0  0  0  0  0  0  0  0  0
   19.6680   39.7990   65.6010 C   0  0  0  0  0  0  0  0  0  0  0  0
   19.1490   39.4110   66.8780 N   0  0  0  0  0  0  0  0  0  0  0  0
   17.2690   39.8130   68.4400 C   0  0  0  0  0  0  0  0  0  0  0  0
   17.7690   39.4190   67.1250 C   0  0  0  0  0  0  0  0  0  0  0  0
   16.8620   39.0280   66.0580 C   0  0  0  0  0  0  0  0  0  0  0  0
   15.4680   39.0310   66.3010 C   0  0  0  0  0  0  0  0  0  0  0  0
   14.9570   39.4170   67.5880 C   0  0  0  0  0  0  0  0  0  0  0  0
   15.8430   39.7980   68.6370 C   0  0  0  0  0  0  0  0  0  0  0  0
   18.1340   40.2260   69.5950 C   0  0  0  0  0  0  0  0  0  0  0  0
   19.3610   40.2750   69.5320 O   0  0  0  0  0  0  0  0  0  0  0  0
   17.6050   40.5320   70.6590 O   0  0  0  0  0  0  0  0  0  0  0  0
   26.5172   38.4344   70.7966 H   0  0  0  0  0  0  0  0  0  0  0  0
   24.3107   38.5390   71.9727 H   0  0  0  0  0  0  0  0  0  0  0  0
   24.7693   39.8412   67.3858 H   0  0  0  0  0  0  0  0  0  0  0  0
   25.0520   37.9767   67.4321 H   0  0  0  0  0  0  0  0  0  0  0  0
   23.8625   39.0219   65.4292 H   0  0  0  0  0  0  0  0  0  0  0  0
   23.0734   36.7528   67.0161 H   0  0  0  0  0  0  0  0  0  0  0  0
   21.5491   38.8645   67.4462 H   0  0  0  0  0  0  0  0  0  0  0  0
   22.3792   40.9566   67.5369 H   0  0  0  0  0  0  0  0  0  0  0  0
   20.8909   38.0210   65.3812 H   0  0  0  0  0  0  0  0  0  0  0  0
   22.1327   40.2210   64.2341 H   0  0  0  0  0  0  0  0  0  0  0  0
   19.8064   40.8900   65.5761 H   0  0  0  0  0  0  0  0  0  0  0  0
   18.9626   39.5043   64.8101 H   0  0  0  0  0  0  0  0  0  0  0  0
   19.7976   39.1225   67.6243 H   0  0  0  0  0  0  0  0  0  0  0  0
   17.2548   38.7334   65.0737 H   0  0  0  0  0  0  0  0  0  0  0  0
   14.7722   38.7366   65.5015 H   0  0  0  0  0  0  0  0  0  0  0  0
   13.8713   39.4183   67.7648 H   0  0  0  0  0  0  0  0  0  0  0  0
   15.4299   40.0859   69.6150 H   0  0  0  0  0  0  0  0  0  0  0  0
   19.8988   40.2965   70.3629 H   0  0  0  0  0  0  0  0  0  0  0  0
  1  2  2  0
  1  3  1  0
  1  4  1  0
  1  5  1  0
  5  6  1  0
  6  7  1  0
  7  8  1  0
  7  9  1  0
  9 10  1  0
  9 11  1  0
 11 12  1  0
 11 13  1  0
 13 14  1  0
 14 16  1  0
 15 16  2  0
 15 20  1  0
 15 21  1  0
 16 17  1  0
 17 18  2  0
 18 19  1  0
 19 20  2  0
 21 22  1  0
 21 23  2  0
  3 24  1  0
  4 25  1  0
  6 26  1  0
  6 27  1  0
  7 28  1  0
  8 29  1  0
  9 30  1  0
 10 31  1  0
 11 32  1  0
 12 33  1  0
 13 34  1  0
 13 35  1  0
 14 36  1  0
 17 37  1  0
 18 38  1  0
 19 39  1  0
 20 40  1  0
 22 41  1  0
A    1
P
A    2
O1P
A    3
O2P
A    4
O3P
A    5
O5'
A    6
C5'
A    7
C4'
A    8
O4'
A    9
C3'
A   10
O3'
A   11
C2'
A   12
O2'
A   13
C1'
A   14
NH
A   15
C1
A   16
C2
A   17
C3
A   18
C4
A   19
C5
A   20
C6
A   21
C7
A   22
O71
A   23
O72
M  END
