2Y91_98J_A_1293
     RDKit          3D

 17 16  0  0  0  0  0  0  0  0999 V2000
   24.1010   -5.1340   15.5970 C   0  0  0  0  0  0  0  0  0  0  0  0
   25.2430   -7.2170   12.7720 O   0  0  0  0  0  0  0  0  0  0  0  0
   24.8370   -5.3460   16.5660 O   0  0  0  0  0  0  0  0  0  0  0  0
   22.9580   -4.6880   15.7460 O   0  0  0  0  0  0  0  0  0  0  0  0
   24.6160   -5.4140   14.1910 C   0  0  0  0  0  0  0  0  0  0  0  0
   24.7810   -6.8870   13.8640 C   0  0  0  0  0  0  0  0  0  0  0  0
   24.4060   -7.9700   14.8460 C   0  0  0  0  0  0  0  0  0  0  0  0
   25.6680   -8.4110   15.5620 C   0  0  0  0  0  0  0  0  0  0  0  0
   26.6710   -7.3940   15.4220 O   0  0  0  0  0  0  0  0  0  0  0  0
   22.5965   -4.5469   16.6568 H   0  0  0  0  0  0  0  0  0  0  0  0
   25.5953   -4.9254   14.0799 H   0  0  0  0  0  0  0  0  0  0  0  0
   23.8589   -5.0217   13.4961 H   0  0  0  0  0  0  0  0  0  0  0  0
   23.6809   -7.5784   15.5746 H   0  0  0  0  0  0  0  0  0  0  0  0
   23.9480   -8.8207   14.3201 H   0  0  0  0  0  0  0  0  0  0  0  0
   25.4499   -8.5680   16.6287 H   0  0  0  0  0  0  0  0  0  0  0  0
   26.0321   -9.3515   15.1228 H   0  0  0  0  0  0  0  0  0  0  0  0
   26.9655   -7.0953   16.3187 H   0  0  0  0  0  0  0  0  0  0  0  0
  2  6  2  0
  6  5  1  0
  6  7  1  0
  5  1  1  0
  1  4  1  0
  1  3  2  0
  7  8  1  0
  8  9  1  0
  4 10  1  0
  5 11  1  0
  5 12  1  0
  7 13  1  0
  7 14  1  0
  8 15  1  0
  8 16  1  0
  9 17  1  0
A    1
C12
A    2
O1
A    3
O14
A    4
O13
A    5
C3
A    6
C2
A    7
C9
A    8
C10
A    9
O11
M  END
