2YC3_MW5_A_1301
     RDKit          3D

 27 29  0  0  0  0  0  0  0  0999 V2000
   17.1090   55.4690  -19.6490 O   0  0  0  0  0  0  0  0  0  0  0  0
   16.8120   56.6680  -19.3450 C   0  0  0  0  0  0  0  0  0  0  0  0
   17.6400   57.6880  -19.6690 N   0  0  0  0  0  0  0  0  0  0  0  0
   18.7970   57.6320  -20.3240 N   0  0  0  0  0  0  0  0  0  0  0  0
   19.2010   58.8760  -20.3610 C   0  0  0  0  0  0  0  0  0  0  0  0
   15.6430   56.9700  -18.6920 C   0  0  0  0  0  0  0  0  0  0  0  0
   15.4030   58.3390  -18.4580 C   0  0  0  0  0  0  0  0  0  0  0  0
   13.9100   58.7940  -17.7390 Cl  0  0  0  0  0  0  0  0  0  0  0  0
   16.1950   59.3450  -18.8200 N   0  0  0  0  0  0  0  0  0  0  0  0
   17.3290   59.0170  -19.4590 C   0  0  0  0  0  0  0  0  0  0  0  0
   18.2900   59.7730  -19.8880 N   0  0  0  0  0  0  0  0  0  0  0  0
   14.6590   55.9450  -18.2050 C   0  0  0  0  0  0  0  0  0  0  0  0
   13.6500   55.3820  -19.1800 C   0  0  0  0  0  0  0  0  0  0  0  0
   13.9380   55.2020  -20.5390 C   0  0  0  0  0  0  0  0  0  0  0  0
   13.0000   54.6660  -21.4020 C   0  0  0  0  0  0  0  0  0  0  0  0
   11.8100   54.2030  -20.9190 C   0  0  0  0  0  0  0  0  0  0  0  0
   11.5470   54.3630  -19.5530 C   0  0  0  0  0  0  0  0  0  0  0  0
   12.4570   54.9540  -18.7260 C   0  0  0  0  0  0  0  0  0  0  0  0
   20.1899   59.1723  -20.7408 H   0  0  0  0  0  0  0  0  0  0  0  0
   18.3507   60.8011  -19.8748 H   0  0  0  0  0  0  0  0  0  0  0  0
   15.2417   55.0965  -17.8170 H   0  0  0  0  0  0  0  0  0  0  0  0
   14.0454   56.4921  -17.4741 H   0  0  0  0  0  0  0  0  0  0  0  0
   14.9262   55.4917  -20.9258 H   0  0  0  0  0  0  0  0  0  0  0  0
   13.2130   54.6125  -22.4798 H   0  0  0  0  0  0  0  0  0  0  0  0
   11.0793   53.7185  -21.5833 H   0  0  0  0  0  0  0  0  0  0  0  0
   10.5917   54.0066  -19.1402 H   0  0  0  0  0  0  0  0  0  0  0  0
   12.2099   55.0840  -17.6620 H   0  0  0  0  0  0  0  0  0  0  0  0
  1  2  2  0
  2  3  1  0
  2  6  1  0
  3  4  1  0
  3 10  1  0
  4  5  2  0
  5 11  1  0
  6  7  2  0
  6 12  1  0
  7  8  1  0
  7  9  1  0
  9 10  2  0
 10 11  1  0
 12 13  1  0
 13 14  2  0
 13 18  1  0
 14 15  1  0
 15 16  2  0
 16 17  1  0
 17 18  2  0
  5 19  1  0
 11 20  1  0
 12 21  1  0
 12 22  1  0
 14 23  1  0
 15 24  1  0
 16 25  1  0
 17 26  1  0
 18 27  1  0
A    1
O
A    2
C5
A    3
N2
A    4
N3
A    5
C1
A    6
C4
A    7
C3
A    8
CL
A    9
N4
A   10
C2
A   11
N1
A   12
C6
A   13
C7
A   14
C12
A   15
C11
A   16
C10
A   17
C9
A   18
C8
M  END
