2YCR_HCW_A_600
     RDKit          3D

 62 65  0  0  0  0  0  0  0  0999 V2000
  -36.5350   33.7960    7.7370 O   0  0  0  0  0  0  0  0  0  0  0  0
  -37.1040   32.9820    8.4370 C   0  0  0  0  0  0  0  0  0  0  0  0
  -37.9890   32.0890    8.0030 N   0  0  0  0  0  0  0  0  0  0  0  0
  -38.4690   31.8330    6.7630 C   0  0  0  0  0  0  0  0  0  0  0  0
  -38.0810   32.5160    5.6140 C   0  0  0  0  0  0  0  0  0  0  0  0
  -38.6400   32.1650    4.3960 C   0  0  0  0  0  0  0  0  0  0  0  0
  -39.4110   30.8100    6.6800 C   0  0  0  0  0  0  0  0  0  0  0  0
  -39.9650   30.4620    5.4600 C   0  0  0  0  0  0  0  0  0  0  0  0
  -39.5820   31.1450    4.3090 C   0  0  0  0  0  0  0  0  0  0  0  0
  -40.1870   30.7670    2.9900 C   0  0  0  0  0  0  0  0  0  0  0  0
  -39.7980   31.4600    1.7180 C   0  0  0  0  0  0  0  0  0  0  0  0
  -41.0760   29.7740    2.9570 N   0  0  0  0  0  0  0  0  0  0  0  0
  -41.7370   29.3580    1.8890 N   0  0  0  0  0  0  0  0  0  0  0  0
  -42.9390   28.5400    2.0710 C   0  0  0  0  0  0  0  0  0  0  0  0
  -43.5320   28.6510    3.4170 N   0  0  0  0  0  0  0  0  0  0  0  0
  -44.7540   28.9810    3.3880 C   0  0  0  0  0  0  0  0  0  0  0  0
  -45.2670   29.1950    1.9860 C   0  0  0  0  0  0  0  0  0  0  0  0
  -44.0490   28.9780    1.2360 N   0  0  0  0  0  0  0  0  0  0  0  0
  -36.9320   32.8670    9.7520 N   0  0  0  0  0  0  0  0  0  0  0  0
  -36.1610   33.5520   10.6340 C   0  0  0  0  0  0  0  0  0  0  0  0
  -35.2900   34.5980   10.3350 C   0  0  0  0  0  0  0  0  0  0  0  0
  -34.5730   35.1930   11.3620 C   0  0  0  0  0  0  0  0  0  0  0  0
  -34.6940   34.7560   12.6860 C   0  0  0  0  0  0  0  0  0  0  0  0
  -35.5640   33.7130   12.9620 C   0  0  0  0  0  0  0  0  0  0  0  0
  -36.2960   33.1260   11.9460 C   0  0  0  0  0  0  0  0  0  0  0  0
  -33.9440   35.3470   13.8550 C   0  0  0  0  0  0  0  0  0  0  0  0
  -32.9510   36.4690   13.7560 C   0  0  0  0  0  0  0  0  0  0  0  0
  -34.2020   34.8130   15.0460 N   0  0  0  0  0  0  0  0  0  0  0  0
  -33.6670   35.1200   16.1250 N   0  0  0  0  0  0  0  0  0  0  0  0
  -34.2020   34.4930   17.3340 C   0  0  0  0  0  0  0  0  0  0  0  0
  -33.5350   34.5610   18.6140 N   0  0  0  0  0  0  0  0  0  0  0  0
  -34.2460   33.7060   19.5440 C   0  0  0  0  0  0  0  0  0  0  0  0
  -34.9010   32.7610   18.5440 C   0  0  0  0  0  0  0  0  0  0  0  0
  -34.7950   33.1520   17.3300 N   0  0  0  0  0  0  0  0  0  0  0  0
  -38.3783   31.4851    8.7410 H   0  0  0  0  0  0  0  0  0  0  0  0
  -37.3386   33.3256    5.6724 H   0  0  0  0  0  0  0  0  0  0  0  0
  -38.3347   32.7004    3.4848 H   0  0  0  0  0  0  0  0  0  0  0  0
  -39.7170   30.2746    7.5909 H   0  0  0  0  0  0  0  0  0  0  0  0
  -40.7043   29.6497    5.4004 H   0  0  0  0  0  0  0  0  0  0  0  0
  -39.2724   32.3964    1.9566 H   0  0  0  0  0  0  0  0  0  0  0  0
  -39.1350   30.8063    1.1323 H   0  0  0  0  0  0  0  0  0  0  0  0
  -40.7014   31.6856    1.1323 H   0  0  0  0  0  0  0  0  0  0  0  0
  -41.4115   29.6055    0.9437 H   0  0  0  0  0  0  0  0  0  0  0  0
  -43.0083   28.4786    4.2870 H   0  0  0  0  0  0  0  0  0  0  0  0
  -45.3452   28.1829    3.8608 H   0  0  0  0  0  0  0  0  0  0  0  0
  -44.8530   29.9349    3.9268 H   0  0  0  0  0  0  0  0  0  0  0  0
  -46.0454   28.4646    1.7204 H   0  0  0  0  0  0  0  0  0  0  0  0
  -45.7499   30.1681    1.8132 H   0  0  0  0  0  0  0  0  0  0  0  0
  -37.4901   32.1154   10.1816 H   0  0  0  0  0  0  0  0  0  0  0  0
  -35.1729   34.9469    9.2984 H   0  0  0  0  0  0  0  0  0  0  0  0
  -33.8940   36.0270   11.1309 H   0  0  0  0  0  0  0  0  0  0  0  0
  -35.6729   33.3501   13.9947 H   0  0  0  0  0  0  0  0  0  0  0  0
  -36.9948   32.3100   12.1823 H   0  0  0  0  0  0  0  0  0  0  0  0
  -32.6632   36.7942   14.7667 H   0  0  0  0  0  0  0  0  0  0  0  0
  -32.0586   36.1221   13.2144 H   0  0  0  0  0  0  0  0  0  0  0  0
  -33.4037   37.3126   13.2144 H   0  0  0  0  0  0  0  0  0  0  0  0
  -32.8823   35.7859   16.1663 H   0  0  0  0  0  0  0  0  0  0  0  0
  -33.5620   33.1775   20.2243 H   0  0  0  0  0  0  0  0  0  0  0  0
  -34.9347   34.2215   20.2296 H   0  0  0  0  0  0  0  0  0  0  0  0
  -34.4256   31.7732   18.6349 H   0  0  0  0  0  0  0  0  0  0  0  0
  -35.9744   32.7296   18.7823 H   0  0  0  0  0  0  0  0  0  0  0  0
  -35.0770   32.6179   16.4957 H   0  0  0  0  0  0  0  0  0  0  0  0
  1  2  2  0
  2  3  1  0
  2 19  1  0
  3  4  1  0
  4  5  2  0
  4  7  1  0
  5  6  1  0
  6  9  2  0
  7  8  2  0
  8  9  1  0
  9 10  1  0
 10 11  1  0
 10 12  2  0
 12 13  1  0
 13 14  1  0
 14 15  1  0
 14 18  2  0
 15 16  1  0
 16 17  1  0
 17 18  1  0
 19 20  1  0
 20 21  2  0
 20 25  1  0
 21 22  1  0
 22 23  2  0
 23 24  1  0
 23 26  1  0
 24 25  2  0
 26 27  1  0
 26 28  2  0
 28 29  1  0
 29 30  1  0
 30 31  2  0
 30 34  1  0
 31 32  1  0
 32 33  1  0
 33 34  1  0
  3 35  1  0
  5 36  1  0
  6 37  1  0
  7 38  1  0
  8 39  1  0
 11 40  1  0
 11 41  1  0
 11 42  1  0
 13 43  1  0
 15 44  1  0
 16 45  1  0
 16 46  1  0
 17 47  1  0
 17 48  1  0
 19 49  1  0
 21 50  1  0
 22 51  1  0
 24 52  1  0
 25 53  1  0
 27 54  1  0
 27 55  1  0
 27 56  1  0
 29 57  1  0
 32 58  1  0
 32 59  1  0
 33 60  1  0
 33 61  1  0
 34 62  1  0
A    1
OBH
A    2
CAV
A    3
NAF
A    4
CAW
A    5
CBB
A    6
CBA
A    7
CAX
A    8
CAY
A    9
CAZ
A   10
CBC
A   11
CBD
A   12
NAG
A   13
NAH
A   14
CBE
A   15
NAI
A   16
CBF
A   17
CBG
A   18
NAJ
A   19
NAE
A   20
CAS
A   21
CAR
A   22
CAQ
A   23
CAP
A   24
CAU
A   25
CAT
A   26
CAN
A   27
CAO
A   28
NAD
A   29
NAC
A   30
CAM
A   31
NAB
A   32
CAL
A   33
CAK
A   34
NAA
M  END
