2YDF_IO3_A_2001
     RDKit          3D

 28 28  0  0  0  0  0  0  0  0999 V2000
    7.2560  -13.1420    7.2940 I   0  0  0  0  0  0  0  0  0  0  0  0
    3.9020  -12.0250   12.0250 I   0  0  0  0  0  0  0  0  0  0  0  0
    3.1480   -8.5590    7.2340 I   0  0  0  0  0  0  0  0  0  0  0  0
    2.8260   -9.7470   10.0540 O   0  0  0  0  0  0  0  0  0  0  0  0
    4.6850   -8.9210    3.1840 O   0  0  0  0  0  0  0  0  0  0  0  0
    6.2480  -10.4520    3.3010 O   0  0  0  0  0  0  0  0  0  0  0  0
    5.1420  -10.9020    7.4700 C   0  0  0  0  0  0  0  0  0  0  0  0
    5.7490  -11.9520    8.1530 C   0  0  0  0  0  0  0  0  0  0  0  0
    5.3910  -12.2650    9.4430 C   0  0  0  0  0  0  0  0  0  0  0  0
    4.4180  -11.5240   10.0610 C   0  0  0  0  0  0  0  0  0  0  0  0
    3.8000  -10.4780    9.4150 C   0  0  0  0  0  0  0  0  0  0  0  0
    4.1630  -10.1650    8.1250 C   0  0  0  0  0  0  0  0  0  0  0  0
    5.5660  -10.5750    6.0730 C   0  0  0  0  0  0  0  0  0  0  0  0
    4.5430  -10.4550    4.9960 C   0  0  0  0  0  0  0  0  0  0  0  0
    5.1940   -9.9200    3.7620 C   0  0  0  0  0  0  0  0  0  0  0  0
    3.9240  -11.7820    4.7160 C   0  0  0  0  0  0  0  0  0  0  0  0
    4.7530  -12.8490    4.0840 C   0  0  0  0  0  0  0  0  0  0  0  0
    2.7940   -9.7230   11.0432 H   0  0  0  0  0  0  0  0  0  0  0  0
    6.9380  -10.8003    3.9196 H   0  0  0  0  0  0  0  0  0  0  0  0
    5.8784  -13.0978    9.9711 H   0  0  0  0  0  0  0  0  0  0  0  0
    6.2664  -11.3635    5.7602 H   0  0  0  0  0  0  0  0  0  0  0  0
    5.9642   -9.5533    6.1606 H   0  0  0  0  0  0  0  0  0  0  0  0
    3.7492   -9.7671    5.3227 H   0  0  0  0  0  0  0  0  0  0  0  0
    3.0667  -11.6035    4.0503 H   0  0  0  0  0  0  0  0  0  0  0  0
    3.6965  -12.1824    5.7149 H   0  0  0  0  0  0  0  0  0  0  0  0
    5.2264  -13.4582    4.8681 H   0  0  0  0  0  0  0  0  0  0  0  0
    4.1127  -13.4888    3.4589 H   0  0  0  0  0  0  0  0  0  0  0  0
    5.5312  -12.3867    3.4589 H   0  0  0  0  0  0  0  0  0  0  0  0
  5 15  2  0
  6 15  1  0
 15 14  1  0
 17 16  1  0
 16 14  1  0
 14 13  1  0
 13  7  1  0
  3 12  1  0
  1  8  1  0
  7 12  2  0
  7  8  1  0
 12 11  1  0
  8  9  2  0
 11  4  1  0
 11 10  2  0
  9 10  1  0
 10  2  1  0
  4 18  1  0
  6 19  1  0
  9 20  1  0
 13 21  1  0
 13 22  1  0
 14 23  1  0
 16 24  1  0
 16 25  1  0
 17 26  1  0
 17 27  1  0
 17 28  1  0
A    1
I1
A    2
I2
A    3
I3
A    4
O1
A    5
O2
A    6
O3
A    7
C1
A    8
C2
A    9
C3
A   10
C4
A   11
C5
A   12
C6
A   13
C7
A   14
C8
A   15
C9
A   16
C10
A   17
C11
M  END
