2YDK_YDK_A_1277
     RDKit          3D

 44 46  0  0  0  0  0  0  0  0999 V2000
    1.2590   71.9410   10.0000 S   0  0  0  0  0  0  0  0  0  0  0  0
    2.7360   72.8250    9.7660 C   0  0  0  0  0  0  0  0  0  0  0  0
    2.9350   73.8130   10.7180 C   0  0  0  0  0  0  0  0  0  0  0  0
    1.8450   73.8320   11.6340 C   0  0  0  0  0  0  0  0  0  0  0  0
    0.8610   72.8960   11.3850 C   0  0  0  0  0  0  0  0  0  0  0  0
    3.5990   72.5150    8.7140 N   0  0  0  0  0  0  0  0  0  0  0  0
    3.3740   71.4330    7.9070 C   0  0  0  0  0  0  0  0  0  0  0  0
    4.4360   71.0590    7.1280 N   0  0  0  0  0  0  0  0  0  0  0  0
    2.3180   70.8440    7.8680 O   0  0  0  0  0  0  0  0  0  0  0  0
    4.1220   74.6620   10.7220 C   0  0  0  0  0  0  0  0  0  0  0  0
    5.0040   74.5430    9.8990 O   0  0  0  0  0  0  0  0  0  0  0  0
    4.2280   75.5830   11.7290 N   0  0  0  0  0  0  0  0  0  0  0  0
    5.5240   76.1430   12.0570 C   0  0  0  0  0  0  0  0  0  0  0  0
    6.2170   75.2340   13.0390 C   0  0  0  0  0  0  0  0  0  0  0  0
    7.5240   75.8190   13.4510 N   0  0  0  0  0  0  0  0  0  0  0  0
    7.4040   77.1600   14.0990 C   0  0  0  0  0  0  0  0  0  0  0  0
    6.7580   78.0830   13.0800 C   0  0  0  0  0  0  0  0  0  0  0  0
    5.4040   77.5620   12.6190 C   0  0  0  0  0  0  0  0  0  0  0  0
   -0.3740   72.6280   12.1140 C   0  0  0  0  0  0  0  0  0  0  0  0
   -0.8100   73.4350   13.1440 C   0  0  0  0  0  0  0  0  0  0  0  0
   -1.9880   73.1630   13.8240 C   0  0  0  0  0  0  0  0  0  0  0  0
   -2.7240   72.0570   13.4540 C   0  0  0  0  0  0  0  0  0  0  0  0
   -2.3000   71.2370   12.4270 C   0  0  0  0  0  0  0  0  0  0  0  0
   -1.1290   71.5280   11.7660 C   0  0  0  0  0  0  0  0  0  0  0  0
    1.7910   74.5383   12.4756 H   0  0  0  0  0  0  0  0  0  0  0  0
    4.4207   73.1118    8.5418 H   0  0  0  0  0  0  0  0  0  0  0  0
    5.3142   70.7497    7.5685 H   0  0  0  0  0  0  0  0  0  0  0  0
    4.3568   71.0869    6.1014 H   0  0  0  0  0  0  0  0  0  0  0  0
    3.3904   75.8768   12.2514 H   0  0  0  0  0  0  0  0  0  0  0  0
    6.1202   76.2159   11.1355 H   0  0  0  0  0  0  0  0  0  0  0  0
    5.5805   75.1063   13.9270 H   0  0  0  0  0  0  0  0  0  0  0  0
    6.3957   74.2598   12.5605 H   0  0  0  0  0  0  0  0  0  0  0  0
    7.9730   75.1747   14.1175 H   0  0  0  0  0  0  0  0  0  0  0  0
    6.7757   77.0908   14.9993 H   0  0  0  0  0  0  0  0  0  0  0  0
    8.3895   77.5395   14.4067 H   0  0  0  0  0  0  0  0  0  0  0  0
    6.6209   79.0749   13.5354 H   0  0  0  0  0  0  0  0  0  0  0  0
    7.4189   78.1370   12.2023 H   0  0  0  0  0  0  0  0  0  0  0  0
    5.0105   78.2268   11.8360 H   0  0  0  0  0  0  0  0  0  0  0  0
    4.7243   77.5400   13.4836 H   0  0  0  0  0  0  0  0  0  0  0  0
   -0.2116   74.3119   13.4320 H   0  0  0  0  0  0  0  0  0  0  0  0
   -2.3280   73.8159   14.6414 H   0  0  0  0  0  0  0  0  0  0  0  0
   -3.6600   71.8252   13.9833 H   0  0  0  0  0  0  0  0  0  0  0  0
   -2.8944   70.3572   12.1394 H   0  0  0  0  0  0  0  0  0  0  0  0
   -0.7905   70.8742   10.9487 H   0  0  0  0  0  0  0  0  0  0  0  0
  1  2  1  0
  1  5  1  0
  2  3  2  0
  2  6  1  0
  3  4  1  0
  3 10  1  0
  4  5  2  0
  5 19  1  0
  6  7  1  0
  7  8  1  0
  7  9  2  0
 10 11  2  0
 10 12  1  0
 12 13  1  0
 13 14  1  0
 13 18  1  0
 14 15  1  0
 15 16  1  0
 16 17  1  0
 17 18  1  0
 19 20  2  0
 19 24  1  0
 20 21  1  0
 21 22  2  0
 22 23  1  0
 23 24  2  0
  4 25  1  0
  6 26  1  0
  8 27  1  0
  8 28  1  0
 12 29  1  0
 13 30  1  0
 14 31  1  0
 14 32  1  0
 15 33  1  0
 16 34  1  0
 16 35  1  0
 17 36  1  0
 17 37  1  0
 18 38  1  0
 18 39  1  0
 20 40  1  0
 21 41  1  0
 22 42  1  0
 23 43  1  0
 24 44  1  0
A    1
S01
A    2
C02
A    3
C03
A    4
C04
A    5
C05
A    6
N06
A    7
C07
A    8
N08
A    9
O09
A   10
C10
A   11
O11
A   12
N12
A   13
C13
A   14
C14
A   15
N15
A   16
C16
A   17
C17
A   18
C18
A   19
C19
A   20
C20
A   21
C21
A   22
C22
A   23
C23
A   24
C24
M  END
