2YFJ_1IT_A_1460
     RDKit          3D

 21 23  0  0  0  0  0  0  0  0999 V2000
  -17.4440   -3.9400   36.0210 C   0  0  0  0  0  0  0  0  0  0  0  0
  -18.6340   -4.0310   35.3080 C   0  0  0  0  0  0  0  0  0  0  0  0
  -16.6010   -2.8690   35.7050 C   0  0  0  0  0  0  0  0  0  0  0  0
  -16.9570   -1.9350   34.7190 C   0  0  0  0  0  0  0  0  0  0  0  0
  -18.1630   -2.0450   34.0150 C   0  0  0  0  0  0  0  0  0  0  0  0
  -18.9900   -3.1160   34.3350 C   0  0  0  0  0  0  0  0  0  0  0  0
  -20.2670   -3.4570   33.7710 O   0  0  0  0  0  0  0  0  0  0  0  0
  -20.6830   -4.6470   34.4590 C   0  0  0  0  0  0  0  0  0  0  0  0
  -19.7310   -5.0230   35.3900 C   0  0  0  0  0  0  0  0  0  0  0  0
  -21.8520   -5.3820   34.2840 C   0  0  0  0  0  0  0  0  0  0  0  0
  -22.0210   -6.5150   35.0880 C   0  0  0  0  0  0  0  0  0  0  0  0
  -21.0480   -6.8910   36.0270 C   0  0  0  0  0  0  0  0  0  0  0  0
  -19.8770   -6.1440   36.1980 C   0  0  0  0  0  0  0  0  0  0  0  0
  -17.1782   -4.6742   36.7958 H   0  0  0  0  0  0  0  0  0  0  0  0
  -15.6448   -2.7570   36.2371 H   0  0  0  0  0  0  0  0  0  0  0  0
  -16.2758   -1.1009   34.4950 H   0  0  0  0  0  0  0  0  0  0  0  0
  -18.4439   -1.3149   33.2417 H   0  0  0  0  0  0  0  0  0  0  0  0
  -22.6108   -5.0849   33.5451 H   0  0  0  0  0  0  0  0  0  0  0  0
  -22.9325   -7.1215   34.9821 H   0  0  0  0  0  0  0  0  0  0  0  0
  -21.2089   -7.7899   36.6402 H   0  0  0  0  0  0  0  0  0  0  0  0
  -19.1114   -6.4296   36.9343 H   0  0  0  0  0  0  0  0  0  0  0  0
  1  2  2  0
  1  3  1  0
  2  6  1  0
  2  9  1  0
  3  4  2  0
  4  5  1  0
  5  6  2  0
  6  7  1  0
  7  8  1  0
  8  9  2  0
  8 10  1  0
  9 13  1  0
 10 11  2  0
 11 12  1  0
 12 13  2  0
  1 14  1  0
  3 15  1  0
  4 16  1  0
  5 17  1  0
 10 18  1  0
 11 19  1  0
 12 20  1  0
 13 21  1  0
A    1
C13
A    2
C1
A    3
C12
A    4
C11
A    5
C10
A    6
C9
A    7
O8
A    8
C7
A    9
C2
A   10
C6
A   11
C5
A   12
C4
A   13
C3
M  END
