2YFL_DC4_A_1460
     RDKit          3D

 21 23  0  0  0  0  0  0  0  0999 V2000
   24.4230    8.2220   -5.5090 C   0  0  0  0  0  0  0  0  0  0  0  0
   23.3770    7.2980   -5.5420 C   0  0  0  0  0  0  0  0  0  0  0  0
   23.1640    6.1400   -6.2820 C   0  0  0  0  0  0  0  0  0  0  0  0
   23.9180    5.4910   -7.2570 C   0  0  0  0  0  0  0  0  0  0  0  0
   23.4350    4.3180   -7.8370 C   0  0  0  0  0  0  0  0  0  0  0  0
   22.2060    3.7890   -7.4500 C   0  0  0  0  0  0  0  0  0  0  0  0
   21.4510    4.4370   -6.4780 C   0  0  0  0  0  0  0  0  0  0  0  0
   21.9320    5.6120   -5.8960 C   0  0  0  0  0  0  0  0  0  0  0  0
   21.4060    6.4330   -4.9410 O   0  0  0  0  0  0  0  0  0  0  0  0
   22.2720    7.4650   -4.7100 C   0  0  0  0  0  0  0  0  0  0  0  0
   22.2060    8.5530   -3.8430 C   0  0  0  0  0  0  0  0  0  0  0  0
   23.2490    9.4760   -3.8100 C   0  0  0  0  0  0  0  0  0  0  0  0
   24.3570    9.3130   -4.6420 C   0  0  0  0  0  0  0  0  0  0  0  0
   25.6450   10.4710   -4.5830 Cl  0  0  0  0  0  0  0  0  0  0  0  0
   25.2965    8.0902   -6.1645 H   0  0  0  0  0  0  0  0  0  0  0  0
   24.8899    5.9017   -7.5681 H   0  0  0  0  0  0  0  0  0  0  0  0
   24.0303    3.8059   -8.6073 H   0  0  0  0  0  0  0  0  0  0  0  0
   21.8339    2.8623   -7.9113 H   0  0  0  0  0  0  0  0  0  0  0  0
   20.4788    4.0256   -6.1689 H   0  0  0  0  0  0  0  0  0  0  0  0
   21.3331    8.6831   -3.1864 H   0  0  0  0  0  0  0  0  0  0  0  0
   23.1988   10.3359   -3.1259 H   0  0  0  0  0  0  0  0  0  0  0  0
  1  2  2  0
  1 13  1  0
  2  3  1  0
  2 10  1  0
  3  4  2  0
  3  8  1  0
  4  5  1  0
  5  6  2  0
  6  7  1  0
  7  8  2  0
  8  9  1  0
  9 10  1  0
 10 11  2  0
 11 12  1  0
 12 13  2  0
 13 14  1  0
  1 15  1  0
  4 16  1  0
  5 17  1  0
  6 18  1  0
  7 19  1  0
 11 20  1  0
 12 21  1  0
A    1
CAH
A    2
CAN
A    3
CAM
A    4
CAF
A    5
CAC
A    6
CAB
A    7
CAE
A    8
CAK
A    9
OAI
A   10
CAL
A   11
CAG
A   12
CAD
A   13
CAJ
A   14
CL1
M  END
