2YIG_5EL_A_301
     RDKit          3D

 61 65  0  0  0  0  0  0  0  0999 V2000
   23.1050   14.4070   12.6740 C   0  0  0  0  0  0  0  0  0  0  0  0
   23.4960   13.8490   13.8770 C   0  0  0  0  0  0  0  0  0  0  0  0
   22.6310   13.0050   14.5770 C   0  0  0  0  0  0  0  0  0  0  0  0
   21.3680   12.7240   14.0800 C   0  0  0  0  0  0  0  0  0  0  0  0
   20.9610   13.2780   12.8650 C   0  0  0  0  0  0  0  0  0  0  0  0
   21.8350   14.1180   12.1670 C   0  0  0  0  0  0  0  0  0  0  0  0
   21.4040   14.6200   10.9130 C   0  0  0  0  0  0  0  0  0  0  0  0
   21.0410   14.9990    9.8290 C   0  0  0  0  0  0  0  0  0  0  0  0
   20.6150   15.5170    8.4900 C   0  0  0  0  0  0  0  0  0  0  0  0
   19.1040   15.2820    8.4030 C   0  0  0  0  0  0  0  0  0  0  0  0
   18.8360   14.4450    7.1700 N   0  0  0  0  0  0  0  0  0  0  0  0
   19.3300   15.1330    5.9200 C   0  0  0  0  0  0  0  0  0  0  0  0
   20.8320   15.3740    6.0610 C   0  0  0  0  0  0  0  0  0  0  0  0
   21.3750   14.8040    7.3510 C   0  0  0  0  0  0  0  0  0  0  0  0
   21.0810   13.3380    7.4270 C   0  0  0  0  0  0  0  0  0  0  0  0
   19.5420   13.1430    7.3890 C   0  0  0  0  0  0  0  0  0  0  0  0
   20.9900   16.8750    8.3850 O   0  0  0  0  0  0  0  0  0  0  0  0
   22.9370   12.3840   15.7550 O   0  0  0  0  0  0  0  0  0  0  0  0
   23.4940   13.0730   16.8130 C   0  0  0  0  0  0  0  0  0  0  0  0
   23.4720   14.4700   16.8910 C   0  0  0  0  0  0  0  0  0  0  0  0
   24.0360   15.1030   17.9780 C   0  0  0  0  0  0  0  0  0  0  0  0
   24.6160   14.3350   18.9390 C   0  0  0  0  0  0  0  0  0  0  0  0
   24.6410   12.9430   18.8840 C   0  0  0  0  0  0  0  0  0  0  0  0
   24.0730   12.3080   17.7830 C   0  0  0  0  0  0  0  0  0  0  0  0
   25.2390   14.9940   20.1330 C   0  0  0  0  0  0  0  0  0  0  0  0
   25.2680   14.3570   21.1720 O   0  0  0  0  0  0  0  0  0  0  0  0
   25.6910   16.2610   19.9550 N   0  0  0  0  0  0  0  0  0  0  0  0
   26.0230   17.0310   21.1640 C   0  0  0  0  0  0  0  0  0  0  0  0
   27.4150   16.7210   21.6510 C   0  0  0  0  0  0  0  0  0  0  0  0
   28.3170   15.9920   20.8740 C   0  0  0  0  0  0  0  0  0  0  0  0
   29.5650   15.7390   21.4120 C   0  0  0  0  0  0  0  0  0  0  0  0
   30.0020   16.1600   22.6200 N   0  0  0  0  0  0  0  0  0  0  0  0
   29.1280   16.8660   23.3430 C   0  0  0  0  0  0  0  0  0  0  0  0
   27.8310   17.1680   22.9020 C   0  0  0  0  0  0  0  0  0  0  0  0
   23.7861   15.0713   12.1218 H   0  0  0  0  0  0  0  0  0  0  0  0
   24.4932   14.0709   14.2848 H   0  0  0  0  0  0  0  0  0  0  0  0
   20.6882   12.0662   14.6414 H   0  0  0  0  0  0  0  0  0  0  0  0
   19.9625   13.0561   12.4604 H   0  0  0  0  0  0  0  0  0  0  0  0
   18.7560   14.7489    9.3000 H   0  0  0  0  0  0  0  0  0  0  0  0
   18.5690   16.2411    8.3401 H   0  0  0  0  0  0  0  0  0  0  0  0
   19.1370   14.4955    5.0446 H   0  0  0  0  0  0  0  0  0  0  0  0
   18.8057   16.0904    5.7844 H   0  0  0  0  0  0  0  0  0  0  0  0
   21.3497   14.8971    5.2157 H   0  0  0  0  0  0  0  0  0  0  0  0
   21.0039   16.4605    6.0691 H   0  0  0  0  0  0  0  0  0  0  0  0
   22.4632   14.9496    7.4185 H   0  0  0  0  0  0  0  0  0  0  0  0
   21.5418   12.8221    6.5717 H   0  0  0  0  0  0  0  0  0  0  0  0
   21.4917   12.9185    8.3573 H   0  0  0  0  0  0  0  0  0  0  0  0
   19.2113   12.7121    8.3455 H   0  0  0  0  0  0  0  0  0  0  0  0
   19.2970   12.4695    6.5545 H   0  0  0  0  0  0  0  0  0  0  0  0
   21.0961   17.2591    9.2913 H   0  0  0  0  0  0  0  0  0  0  0  0
   23.0066   15.0607   16.0882 H   0  0  0  0  0  0  0  0  0  0  0  0
   24.0175   16.1993   18.0657 H   0  0  0  0  0  0  0  0  0  0  0  0
   25.1003   12.3576   19.6942 H   0  0  0  0  0  0  0  0  0  0  0  0
   24.0907   11.2115   17.6969 H   0  0  0  0  0  0  0  0  0  0  0  0
   25.7971   16.6662   19.0140 H   0  0  0  0  0  0  0  0  0  0  0  0
   25.9556   18.1045   20.9338 H   0  0  0  0  0  0  0  0  0  0  0  0
   25.3108   16.7549   21.9556 H   0  0  0  0  0  0  0  0  0  0  0  0
   28.0448   15.6322   19.8708 H   0  0  0  0  0  0  0  0  0  0  0  0
   30.2627   15.1437   20.8047 H   0  0  0  0  0  0  0  0  0  0  0  0
   29.4410   17.2285   24.3333 H   0  0  0  0  0  0  0  0  0  0  0  0
   27.1497   17.7520   23.5382 H   0  0  0  0  0  0  0  0  0  0  0  0
  1  2  2  0
  1  6  1  0
  2  3  1  0
  3  4  2  0
  3 18  1  0
  4  5  1  0
  5  6  2  0
  6  7  1  0
  7  8  3  0
  8  9  1  0
  9 10  1  0
  9 14  1  0
  9 17  1  0
 10 11  1  0
 11 12  1  0
 11 16  1  0
 12 13  1  0
 13 14  1  0
 14 15  1  0
 15 16  1  0
 18 19  1  0
 19 20  2  0
 19 24  1  0
 20 21  1  0
 21 22  2  0
 22 23  1  0
 22 25  1  0
 23 24  2  0
 25 26  2  0
 25 27  1  0
 27 28  1  0
 28 29  1  0
 29 30  2  0
 29 34  1  0
 30 31  1  0
 31 32  2  0
 32 33  1  0
 33 34  2  0
  1 35  1  0
  2 36  1  0
  4 37  1  0
  5 38  1  0
 10 39  1  0
 10 40  1  0
 12 41  1  0
 12 42  1  0
 13 43  1  0
 13 44  1  0
 14 45  1  0
 15 46  1  0
 15 47  1  0
 16 48  1  0
 16 49  1  0
 17 50  1  0
 20 51  1  0
 21 52  1  0
 23 53  1  0
 24 54  1  0
 27 55  1  0
 28 56  1  0
 28 57  1  0
 30 58  1  0
 31 59  1  0
 33 60  1  0
 34 61  1  0
A    1
C1
A    2
C2
A    3
C3
A    4
C4
A    5
C5
A    6
C6
A    7
C7
A    8
C8
A    9
C9
A   10
C10
A   11
N1
A   12
C11
A   13
C12
A   14
C13
A   15
C14
A   16
C15
A   17
O1
A   18
O2
A   19
C16
A   20
C17
A   21
C18
A   22
C19
A   23
C20
A   24
C21
A   25
C22
A   26
O3
A   27
N2
A   28
C23
A   29
C24
A   30
C25
A   31
C26
A   32
N3
A   33
C27
A   34
C28
M  END
