2YIT_YIT_A_600
     RDKit          3D

 53 55  0  0  0  0  0  0  0  0999 V2000
   46.9850  -16.9060   -7.7150 N   0  0  0  0  0  0  0  0  0  0  0  0
   47.0020  -17.6790   -6.6340 C   0  0  0  0  0  0  0  0  0  0  0  0
   46.4080  -18.9010   -6.3730 C   0  0  0  0  0  0  0  0  0  0  0  0
   46.5960  -19.5170   -5.1390 C   0  0  0  0  0  0  0  0  0  0  0  0
   47.3840  -18.9320   -4.1560 C   0  0  0  0  0  0  0  0  0  0  0  0
   47.5120  -19.6420   -2.9810 O   0  0  0  0  0  0  0  0  0  0  0  0
   48.1120  -18.9770   -1.8380 C   0  0  0  0  0  0  0  0  0  0  0  0
   48.0010  -17.6900   -4.4150 C   0  0  0  0  0  0  0  0  0  0  0  0
   47.8090  -17.0640   -5.6730 C   0  0  0  0  0  0  0  0  0  0  0  0
   48.2450  -15.9220   -6.2270 C   0  0  0  0  0  0  0  0  0  0  0  0
   47.7330  -15.8310   -7.4650 C   0  0  0  0  0  0  0  0  0  0  0  0
   48.0110  -14.6880   -8.4710 C   0  0  0  0  0  0  0  0  0  0  0  0
   48.8490  -13.8340   -8.2030 O   0  0  0  0  0  0  0  0  0  0  0  0
   47.3860  -14.7720   -9.6620 N   0  0  0  0  0  0  0  0  0  0  0  0
   47.5380  -13.9470  -10.7130 C   0  0  0  0  0  0  0  0  0  0  0  0
   46.6590  -14.1350  -11.7810 C   0  0  0  0  0  0  0  0  0  0  0  0
   46.7430  -13.3930  -12.9470 C   0  0  0  0  0  0  0  0  0  0  0  0
   48.5240  -12.9780  -10.8290 C   0  0  0  0  0  0  0  0  0  0  0  0
   48.6130  -12.2030  -12.0000 C   0  0  0  0  0  0  0  0  0  0  0  0
   47.7160  -12.3960  -13.0690 C   0  0  0  0  0  0  0  0  0  0  0  0
   47.7950  -11.6060  -14.2310 C   0  0  0  0  0  0  0  0  0  0  0  0
   48.3530  -10.1870  -14.2140 C   0  0  0  0  0  0  0  0  0  0  0  0
   49.6710  -10.0900  -15.0070 C   0  0  0  0  0  0  0  0  0  0  0  0
   50.2010   -8.6410  -14.9860 C   0  0  0  0  0  0  0  0  0  0  0  0
   47.3480  -12.1120  -15.3940 N   0  0  0  0  0  0  0  0  0  0  0  0
   47.3720  -11.5010  -16.4900 N   0  0  0  0  0  0  0  0  0  0  0  0
   46.9450  -12.1090  -17.6190 C   0  0  0  0  0  0  0  0  0  0  0  0
   46.9640  -11.5300  -18.8110 N   0  0  0  0  0  0  0  0  0  0  0  0
   46.5130  -13.3380  -17.5860 N   0  0  0  0  0  0  0  0  0  0  0  0
   46.4822  -17.1029   -8.5921 H   0  0  0  0  0  0  0  0  0  0  0  0
   45.7871  -19.3858   -7.1408 H   0  0  0  0  0  0  0  0  0  0  0  0
   46.1119  -20.4843   -4.9387 H   0  0  0  0  0  0  0  0  0  0  0  0
   47.7167  -19.4152   -0.9097 H   0  0  0  0  0  0  0  0  0  0  0  0
   49.2038  -19.1077   -1.8692 H   0  0  0  0  0  0  0  0  0  0  0  0
   47.8701  -17.9044   -1.8692 H   0  0  0  0  0  0  0  0  0  0  0  0
   48.6262  -17.2109   -3.6471 H   0  0  0  0  0  0  0  0  0  0  0  0
   48.9083  -15.1863   -5.7487 H   0  0  0  0  0  0  0  0  0  0  0  0
   46.7217  -15.5503   -9.7797 H   0  0  0  0  0  0  0  0  0  0  0  0
   45.8725  -14.8990  -11.6932 H   0  0  0  0  0  0  0  0  0  0  0  0
   46.0460  -13.5873  -13.7755 H   0  0  0  0  0  0  0  0  0  0  0  0
   49.2357  -12.8157  -10.0061 H   0  0  0  0  0  0  0  0  0  0  0  0
   49.3954  -11.4342  -12.0821 H   0  0  0  0  0  0  0  0  0  0  0  0
   47.6144   -9.5069  -14.6633 H   0  0  0  0  0  0  0  0  0  0  0  0
   48.5567   -9.9082  -13.1696 H   0  0  0  0  0  0  0  0  0  0  0  0
   50.4184  -10.7568  -14.5522 H   0  0  0  0  0  0  0  0  0  0  0  0
   49.4853  -10.3888  -16.0492 H   0  0  0  0  0  0  0  0  0  0  0  0
   50.3221   -8.3099  -13.9440 H   0  0  0  0  0  0  0  0  0  0  0  0
   51.1729   -8.5986  -15.4995 H   0  0  0  0  0  0  0  0  0  0  0  0
   49.4859   -7.9815  -15.4995 H   0  0  0  0  0  0  0  0  0  0  0  0
   47.7187  -10.5319  -16.5292 H   0  0  0  0  0  0  0  0  0  0  0  0
   46.6254  -12.0424  -19.6379 H   0  0  0  0  0  0  0  0  0  0  0  0
   46.3498  -13.8024  -16.6812 H   0  0  0  0  0  0  0  0  0  0  0  0
   46.3348  -13.8450  -18.4647 H   0  0  0  0  0  0  0  0  0  0  0  0
  1  2  1  0
  1 11  1  0
  2  3  2  0
  2  9  1  0
  3  4  1  0
  4  5  2  0
  5  6  1  0
  5  8  1  0
  6  7  1  0
  8  9  2  0
  9 10  1  0
 10 11  2  0
 11 12  1  0
 12 13  2  0
 12 14  1  0
 14 15  1  0
 15 16  2  0
 15 18  1  0
 16 17  1  0
 17 20  2  0
 18 19  2  0
 19 20  1  0
 20 21  1  0
 21 22  1  0
 21 25  2  0
 22 23  1  0
 23 24  1  0
 25 26  1  0
 26 27  1  0
 27 28  2  3
 27 29  1  0
  1 30  1  0
  3 31  1  0
  4 32  1  0
  7 33  1  0
  7 34  1  0
  7 35  1  0
  8 36  1  0
 10 37  1  0
 14 38  1  0
 16 39  1  0
 17 40  1  0
 18 41  1  0
 19 42  1  0
 22 43  1  0
 22 44  1  0
 23 45  1  0
 23 46  1  0
 24 47  1  0
 24 48  1  0
 24 49  1  0
 26 50  1  0
 28 51  1  0
 29 52  1  0
 29 53  1  0
A    1
NAA
A    2
CAI
A    3
CAH
A    4
CAG
A    5
CAL
A    6
OBB
A    7
CAO
A    8
CAK
A    9
CAJ
A   10
CAN
A   11
CAM
A   12
CAP
A   13
OBC
A   14
NAB
A   15
CAQ
A   16
CAV
A   17
CAU
A   18
CAR
A   19
CAS
A   20
CAT
A   21
CAW
A   22
CAX
A   23
CAZ
A   24
CBA
A   25
NAC
A   26
NAD
A   27
CAY
A   28
NAF
A   29
NAE
M  END
