2YJD_YJD_A_1498
     RDKit          3D

 36 38  0  0  0  0  0  0  0  0999 V2000
  -15.2100  -22.2670    4.6840 C   0  0  0  0  0  0  0  0  0  0  0  0
  -16.1040  -21.7610    3.6820 C   0  0  0  0  0  0  0  0  0  0  0  0
  -15.8560  -20.5060    3.1000 C   0  0  0  0  0  0  0  0  0  0  0  0
  -14.7020  -19.7410    3.4940 C   0  0  0  0  0  0  0  0  0  0  0  0
  -13.8040  -20.2770    4.4910 C   0  0  0  0  0  0  0  0  0  0  0  0
  -14.0450  -21.5210    5.0940 C   0  0  0  0  0  0  0  0  0  0  0  0
  -13.3910  -16.9300    1.6150 N   0  0  0  0  0  0  0  0  0  0  0  0
  -13.3040  -18.1340    2.1620 C   0  0  0  0  0  0  0  0  0  0  0  0
  -12.2700  -18.9860    2.0340 O   0  0  0  0  0  0  0  0  0  0  0  0
  -15.4970  -23.4750    5.2490 O   0  0  0  0  0  0  0  0  0  0  0  0
  -14.5900  -16.4020    1.9080 C   0  0  0  0  0  0  0  0  0  0  0  0
  -15.1750  -15.1650    1.5960 C   0  0  0  0  0  0  0  0  0  0  0  0
  -16.4780  -14.9020    2.0470 C   0  0  0  0  0  0  0  0  0  0  0  0
  -17.1820  -15.8430    2.8140 C   0  0  0  0  0  0  0  0  0  0  0  0
  -10.8450  -18.7460    2.1870 C   0  0  0  0  0  0  0  0  0  0  0  0
  -16.5950  -17.0820    3.1290 C   0  0  0  0  0  0  0  0  0  0  0  0
  -15.2960  -17.3760    2.6960 C   0  0  0  0  0  0  0  0  0  0  0  0
  -10.0480  -19.5350    1.1380 C   0  0  0  0  0  0  0  0  0  0  0  0
  -14.4590  -18.4730    2.8430 N   0  0  0  0  0  0  0  0  0  0  0  0
  -10.3300  -17.3240    2.3050 C   0  0  0  0  0  0  0  0  0  0  0  0
  -16.9782  -22.3519    3.3713 H   0  0  0  0  0  0  0  0  0  0  0  0
  -16.5456  -20.1073    2.3414 H   0  0  0  0  0  0  0  0  0  0  0  0
  -12.9147  -19.6991    4.7828 H   0  0  0  0  0  0  0  0  0  0  0  0
  -13.3627  -21.9176    5.8603 H   0  0  0  0  0  0  0  0  0  0  0  0
  -15.5191  -23.5679    6.2344 H   0  0  0  0  0  0  0  0  0  0  0  0
  -14.6230  -14.4159    1.0093 H   0  0  0  0  0  0  0  0  0  0  0  0
  -16.9548  -13.9432    1.7952 H   0  0  0  0  0  0  0  0  0  0  0  0
  -18.1965  -15.6109    3.1702 H   0  0  0  0  0  0  0  0  0  0  0  0
  -10.6696  -19.1171    3.2075 H   0  0  0  0  0  0  0  0  0  0  0  0
  -17.1578  -17.8219    3.7170 H   0  0  0  0  0  0  0  0  0  0  0  0
   -9.3542  -20.2218    1.6449 H   0  0  0  0  0  0  0  0  0  0  0  0
  -10.7413  -20.1125    0.5088 H   0  0  0  0  0  0  0  0  0  0  0  0
   -9.4776  -18.8359    0.5088 H   0  0  0  0  0  0  0  0  0  0  0  0
  -10.2330  -17.0561    3.3675 H   0  0  0  0  0  0  0  0  0  0  0  0
   -9.3473  -17.2482    1.8165 H   0  0  0  0  0  0  0  0  0  0  0  0
  -11.0363  -16.6365    1.8165 H   0  0  0  0  0  0  0  0  0  0  0  0
  1  2  2  0
  1  6  1  0
  1 10  1  0
  2  3  1  0
  3  4  2  0
  4  5  1  0
  4 19  1  0
  5  6  2  0
  7  8  2  0
  7 11  1  0
  8  9  1  0
  8 19  1  0
  9 15  1  0
 11 12  2  0
 11 17  1  0
 12 13  1  0
 13 14  2  0
 14 16  1  0
 16 17  2  0
 17 19  1  0
 15 18  1  0
 15 20  1  0
  2 21  1  0
  3 22  1  0
  5 23  1  0
  6 24  1  0
 10 25  1  0
 12 26  1  0
 13 27  1  0
 14 28  1  0
 15 29  1  0
 16 30  1  0
 18 31  1  0
 18 32  1  0
 18 33  1  0
 20 34  1  0
 20 35  1  0
 20 36  1  0
A    1
CA
A    2
CB
A    3
CC
A    4
CD
A    5
CE
A    6
CF
A    7
N1
A    8
C6
A    9
O2
A   10
O4
A   11
C2
A   12
C3
A   13
C7
A   14
C8
A   15
C20
A   16
C9
A   17
C10
A   18
C11
A   19
N13
A   20
C13
M  END
