2YKC_YKC_A_1224
     RDKit          3D

 48 53  0  0  0  0  0  0  0  0999 V2000
    8.0450   10.2400   23.4430 C   0  0  0  0  0  0  0  0  0  0  0  0
    6.8490    9.6260   22.9020 C   0  0  0  0  0  0  0  0  0  0  0  0
    5.6070   10.2990   23.1110 C   0  0  0  0  0  0  0  0  0  0  0  0
    8.0570   11.5060   24.1960 C   0  0  0  0  0  0  0  0  0  0  0  0
    6.7960   12.1870   24.3800 C   0  0  0  0  0  0  0  0  0  0  0  0
    5.5640   11.5270   23.7950 C   0  0  0  0  0  0  0  0  0  0  0  0
    4.4300   12.4130   24.1190 C   0  0  0  0  0  0  0  0  0  0  0  0
    6.3680   13.3690   25.0490 C   0  0  0  0  0  0  0  0  0  0  0  0
    4.9710   13.5210   24.8870 C   0  0  0  0  0  0  0  0  0  0  0  0
    4.2600   14.6530   25.4940 C   0  0  0  0  0  0  0  0  0  0  0  0
    4.9870   15.6060   26.2720 C   0  0  0  0  0  0  0  0  0  0  0  0
    6.3990   15.4440   26.4370 C   0  0  0  0  0  0  0  0  0  0  0  0
    7.0920   14.3470   25.8280 C   0  0  0  0  0  0  0  0  0  0  0  0
    8.5440   14.3430   26.0510 C   0  0  0  0  0  0  0  0  0  0  0  0
    9.4940   14.1550   25.1230 N   0  0  0  0  0  0  0  0  0  0  0  0
    9.0590   14.5150   27.3110 N   0  0  0  0  0  0  0  0  0  0  0  0
   10.3920   14.5020   27.1630 C   0  0  0  0  0  0  0  0  0  0  0  0
   10.6940   14.2780   25.7560 C   0  0  0  0  0  0  0  0  0  0  0  0
   12.0150   14.2150   25.2850 C   0  0  0  0  0  0  0  0  0  0  0  0
   12.9960   14.4320   26.2470 C   0  0  0  0  0  0  0  0  0  0  0  0
   12.7270   14.6150   27.6080 N   0  0  0  0  0  0  0  0  0  0  0  0
   11.4290   14.6570   28.0620 C   0  0  0  0  0  0  0  0  0  0  0  0
    3.2480   11.9200   24.7620 N   0  0  0  0  0  0  0  0  0  0  0  0
    2.1080   11.6650   24.0310 C   0  0  0  0  0  0  0  0  0  0  0  0
    0.8960   11.2280   24.7890 C   0  0  0  0  0  0  0  0  0  0  0  0
    2.1010   11.8230   22.8070 O   0  0  0  0  0  0  0  0  0  0  0  0
   -0.3950   11.6650   24.2140 C   0  0  0  0  0  0  0  0  0  0  0  0
   -1.5650   11.3290   24.9430 C   0  0  0  0  0  0  0  0  0  0  0  0
    0.9930   10.5200   26.0470 C   0  0  0  0  0  0  0  0  0  0  0  0
   -1.4590   10.6080   26.1560 N   0  0  0  0  0  0  0  0  0  0  0  0
   -0.2360   10.1910   26.7380 C   0  0  0  0  0  0  0  0  0  0  0  0
    9.0050    9.7281   23.2810 H   0  0  0  0  0  0  0  0  0  0  0  0
    6.8962    8.6756   22.3502 H   0  0  0  0  0  0  0  0  0  0  0  0
    4.6752    9.8527   22.7334 H   0  0  0  0  0  0  0  0  0  0  0  0
    8.9920   11.9180   24.6034 H   0  0  0  0  0  0  0  0  0  0  0  0
    4.0162   12.6509   23.1279 H   0  0  0  0  0  0  0  0  0  0  0  0
    3.1753   14.7668   25.3509 H   0  0  0  0  0  0  0  0  0  0  0  0
    4.4666   16.4551   26.7391 H   0  0  0  0  0  0  0  0  0  0  0  0
    6.9611   16.1722   27.0402 H   0  0  0  0  0  0  0  0  0  0  0  0
    8.5316   14.6302   28.1882 H   0  0  0  0  0  0  0  0  0  0  0  0
   12.2567   14.0090   24.2318 H   0  0  0  0  0  0  0  0  0  0  0  0
   14.0454   14.4615   25.9184 H   0  0  0  0  0  0  0  0  0  0  0  0
   11.2191   14.8125   29.1305 H   0  0  0  0  0  0  0  0  0  0  0  0
    3.2505   11.7549   25.7787 H   0  0  0  0  0  0  0  0  0  0  0  0
   -0.4455   12.2232   23.2675 H   0  0  0  0  0  0  0  0  0  0  0  0
   -2.5538   11.6288   24.5655 H   0  0  0  0  0  0  0  0  0  0  0  0
    1.9709   10.2401   26.4658 H   0  0  0  0  0  0  0  0  0  0  0  0
   -0.2209    9.6340   27.6864 H   0  0  0  0  0  0  0  0  0  0  0  0
  1  2  2  0
  1  4  1  0
  2  3  1  0
  3  6  2  0
  4  5  2  0
  5  6  1  0
  5  8  1  0
  6  7  1  0
  7  9  1  0
  7 23  1  0
  8  9  2  0
  8 13  1  0
  9 10  1  0
 10 11  2  0
 11 12  1  0
 12 13  2  0
 13 14  1  0
 14 15  2  0
 14 16  1  0
 15 18  1  0
 16 17  1  0
 17 18  2  0
 17 22  1  0
 18 19  1  0
 19 20  2  0
 20 21  1  0
 21 22  2  0
 23 24  1  0
 24 25  1  0
 24 26  2  0
 25 27  2  0
 25 29  1  0
 27 28  1  0
 28 30  2  0
 29 31  2  0
 30 31  1  0
  1 32  1  0
  2 33  1  0
  3 34  1  0
  4 35  1  0
  7 36  1  0
 10 37  1  0
 11 38  1  0
 12 39  1  0
 16 40  1  0
 19 41  1  0
 20 42  1  0
 22 43  1  0
 23 44  1  0
 27 45  1  0
 28 46  1  0
 29 47  1  0
 31 48  1  0
A    1
C1
A    2
C2
A    3
C3
A    4
C4
A    5
C5
A    6
C6
A    7
C7
A    8
C8
A    9
C9
A   10
C10
A   11
C11
A   12
C12
A   13
C13
A   14
C14
A   15
N15
A   16
N16
A   17
C17
A   18
C18
A   19
C19
A   20
C20
A   21
N21
A   22
C22
A   23
N23
A   24
C24
A   25
C25
A   26
O26
A   27
C27
A   28
C28
A   29
C40
A   30
N30
A   31
C60
M  END
