2YLP_056_A_1922
     RDKit          3D

 32 33  0  0  0  0  0  0  0  0999 V2000
   15.2720  -17.5170  -27.2950 O   0  0  0  0  0  0  0  0  0  0  0  0
   16.3300  -17.9240  -27.8080 C   0  0  0  0  0  0  0  0  0  0  0  0
   16.6260  -19.1370  -27.9140 O   0  0  0  0  0  0  0  0  0  0  0  0
   17.2520  -16.8630  -28.2850 C   0  0  0  0  0  0  0  0  0  0  0  0
   17.9540  -16.9460  -29.4880 C   0  0  0  0  0  0  0  0  0  0  0  0
   18.7890  -15.8990  -29.8430 C   0  0  0  0  0  0  0  0  0  0  0  0
   18.8740  -14.8050  -29.0190 C   0  0  0  0  0  0  0  0  0  0  0  0
   18.1700  -14.7350  -27.8340 C   0  0  0  0  0  0  0  0  0  0  0  0
   17.3460  -15.7650  -27.4640 C   0  0  0  0  0  0  0  0  0  0  0  0
   19.4740  -14.1710  -31.6550 S   0  0  0  0  0  0  0  0  0  0  0  0
   19.9340  -12.2450  -35.7860 C   0  0  0  0  0  0  0  0  0  0  0  0
   19.5990  -15.8520  -31.1140 C   0  0  0  0  0  0  0  0  0  0  0  0
   19.9070  -13.0510  -34.6470 C   0  0  0  0  0  0  0  0  0  0  0  0
   18.6430  -14.3410  -34.5580 Cl  0  0  0  0  0  0  0  0  0  0  0  0
   20.9110  -12.7870  -33.5580 C   0  0  0  0  0  0  0  0  0  0  0  0
   21.0130  -13.5780  -32.2690 C   0  0  0  0  0  0  0  0  0  0  0  0
   21.8350  -11.7650  -33.7380 C   0  0  0  0  0  0  0  0  0  0  0  0
   21.8060  -11.0040  -34.8990 C   0  0  0  0  0  0  0  0  0  0  0  0
   20.8750  -11.2240  -35.9160 C   0  0  0  0  0  0  0  0  0  0  0  0
   20.8870  -10.1860  -37.3970 Cl  0  0  0  0  0  0  0  0  0  0  0  0
   15.1810  -17.4820  -26.3098 H   0  0  0  0  0  0  0  0  0  0  0  0
   17.8467  -17.8246  -30.1411 H   0  0  0  0  0  0  0  0  0  0  0  0
   19.5192  -13.9630  -29.3102 H   0  0  0  0  0  0  0  0  0  0  0  0
   18.2706  -13.8517  -27.1862 H   0  0  0  0  0  0  0  0  0  0  0  0
   16.7707  -15.7141  -26.5278 H   0  0  0  0  0  0  0  0  0  0  0  0
   19.2043  -12.4171  -36.5909 H   0  0  0  0  0  0  0  0  0  0  0  0
   19.1806  -16.5354  -31.8676 H   0  0  0  0  0  0  0  0  0  0  0  0
   20.6418  -16.1655  -30.9581 H   0  0  0  0  0  0  0  0  0  0  0  0
   21.6684  -14.4432  -32.4474 H   0  0  0  0  0  0  0  0  0  0  0  0
   21.4093  -12.8888  -31.5087 H   0  0  0  0  0  0  0  0  0  0  0  0
   22.5876  -11.5593  -32.9626 H   0  0  0  0  0  0  0  0  0  0  0  0
   22.5440  -10.1977  -35.0221 H   0  0  0  0  0  0  0  0  0  0  0  0
 20 19  1  0
 19 11  2  0
 19 18  1  0
 11 13  1  0
 13 14  1  0
 13 15  2  0
 18 17  2  0
 17 15  1  0
 15 16  1  0
 16 10  1  0
 10 12  1  0
 12  6  1  0
  6  7  1  0
  6  5  2  0
  7  8  2  0
  8  9  1  0
  9  4  2  0
  4  5  1  0
  4  2  1  0
  2  1  1  0
  2  3  2  0
  1 21  1  0
  5 22  1  0
  7 23  1  0
  8 24  1  0
  9 25  1  0
 11 26  1  0
 12 27  1  0
 12 28  1  0
 16 29  1  0
 16 30  1  0
 17 31  1  0
 18 32  1  0
A    1
O17
A    2
C16
A    3
O18
A    4
C12
A    5
C11
A    6
C10
A    7
C15
A    8
C14
A    9
C13
A   10
S8
A   11
C6
A   12
C9
A   13
C1
A   14
CL1
A   15
C2
A   16
C7
A   17
C3
A   18
C4
A   19
C5
A   20
CL2
M  END
