2YLQ_YLQ_A_1922
     RDKit          3D

 45 47  0  0  0  0  0  0  0  0999 V2000
   11.5980  -13.1890  -33.5290 C   0  0  0  0  0  0  0  0  0  0  0  0
   12.6370  -14.2550  -33.5740 C   0  0  0  0  0  0  0  0  0  0  0  0
   12.4600  -15.4180  -32.8830 C   0  0  0  0  0  0  0  0  0  0  0  0
   13.4700  -16.4470  -32.9520 C   0  0  0  0  0  0  0  0  0  0  0  0
   14.6460  -16.2530  -33.7150 C   0  0  0  0  0  0  0  0  0  0  0  0
   15.6080  -17.2140  -33.7800 O   0  0  0  0  0  0  0  0  0  0  0  0
   16.1260  -17.8270  -32.6480 C   0  0  0  0  0  0  0  0  0  0  0  0
   17.4860  -17.3990  -32.2430 C   0  0  0  0  0  0  0  0  0  0  0  0
   17.7230  -16.6840  -30.9540 N   0  0  0  0  0  0  0  0  0  0  0  0
   18.6970  -15.7680  -30.7000 C   0  0  0  0  0  0  0  0  0  0  0  0
   19.8340  -15.1870  -31.8810 S   0  0  0  0  0  0  0  0  0  0  0  0
   19.6500  -13.3830  -31.7530 C   0  0  0  0  0  0  0  0  0  0  0  0
   20.1360  -12.4770  -32.8130 C   0  0  0  0  0  0  0  0  0  0  0  0
   21.5840  -12.1500  -32.9290 C   0  0  0  0  0  0  0  0  0  0  0  0
   22.4260  -12.7080  -32.2070 O   0  0  0  0  0  0  0  0  0  0  0  0
   21.9490  -11.2930  -33.8030 O   0  0  0  0  0  0  0  0  0  0  0  0
   18.6440  -15.3350  -29.4340 N   0  0  0  0  0  0  0  0  0  0  0  0
   17.6020  -15.9890  -28.8360 C   0  0  0  0  0  0  0  0  0  0  0  0
   17.1020  -15.9210  -27.5210 C   0  0  0  0  0  0  0  0  0  0  0  0
   16.0200  -16.7200  -27.2120 C   0  0  0  0  0  0  0  0  0  0  0  0
   15.4470  -17.5730  -28.1370 C   0  0  0  0  0  0  0  0  0  0  0  0
   15.9410  -17.6510  -29.4520 C   0  0  0  0  0  0  0  0  0  0  0  0
   17.0260  -16.8360  -29.7780 C   0  0  0  0  0  0  0  0  0  0  0  0
   14.8180  -15.0550  -34.4210 C   0  0  0  0  0  0  0  0  0  0  0  0
   13.8350  -14.0660  -34.3570 C   0  0  0  0  0  0  0  0  0  0  0  0
   11.3641  -12.9490  -32.4813 H   0  0  0  0  0  0  0  0  0  0  0  0
   11.9744  -12.2884  -34.0362 H   0  0  0  0  0  0  0  0  0  0  0  0
   10.6881  -13.5422  -34.0362 H   0  0  0  0  0  0  0  0  0  0  0  0
   11.5542  -15.5704  -32.2777 H   0  0  0  0  0  0  0  0  0  0  0  0
   13.3242  -17.3909  -32.4063 H   0  0  0  0  0  0  0  0  0  0  0  0
   15.4441  -17.6187  -31.8104 H   0  0  0  0  0  0  0  0  0  0  0  0
   16.2137  -18.8937  -32.9018 H   0  0  0  0  0  0  0  0  0  0  0  0
   18.1023  -18.3096  -32.2116 H   0  0  0  0  0  0  0  0  0  0  0  0
   17.7259  -16.6285  -32.9905 H   0  0  0  0  0  0  0  0  0  0  0  0
   18.5723  -13.1884  -31.6496 H   0  0  0  0  0  0  0  0  0  0  0  0
   20.3155  -13.1384  -30.9120 H   0  0  0  0  0  0  0  0  0  0  0  0
   19.8377  -12.9265  -33.7716 H   0  0  0  0  0  0  0  0  0  0  0  0
   19.6883  -11.5116  -32.5345 H   0  0  0  0  0  0  0  0  0  0  0  0
   22.3203  -10.4212  -33.5165 H   0  0  0  0  0  0  0  0  0  0  0  0
   17.5559  -15.2575  -26.7702 H   0  0  0  0  0  0  0  0  0  0  0  0
   15.5997  -16.6768  -26.1964 H   0  0  0  0  0  0  0  0  0  0  0  0
   14.5928  -18.1995  -27.8406 H   0  0  0  0  0  0  0  0  0  0  0  0
   15.4902  -18.3271  -30.1934 H   0  0  0  0  0  0  0  0  0  0  0  0
   15.7243  -14.8945  -35.0234 H   0  0  0  0  0  0  0  0  0  0  0  0
   13.9756  -13.1270  -34.9124 H   0  0  0  0  0  0  0  0  0  0  0  0
  1  2  1  0
  2  3  2  0
  2 25  1  0
  3  4  1  0
  4  5  2  0
  5  6  1  0
  5 24  1  0
  6  7  1  0
  7  8  1  0
  8  9  1  0
  9 10  1  0
  9 23  1  0
 10 11  1  0
 10 17  2  0
 11 12  1  0
 12 13  1  0
 13 14  1  0
 14 15  2  0
 14 16  1  0
 17 18  1  0
 18 19  1  0
 18 23  2  0
 19 20  2  0
 20 21  1  0
 21 22  2  0
 22 23  1  0
 24 25  2  0
  1 26  1  0
  1 27  1  0
  1 28  1  0
  3 29  1  0
  4 30  1  0
  7 31  1  0
  7 32  1  0
  8 33  1  0
  8 34  1  0
 12 35  1  0
 12 36  1  0
 13 37  1  0
 13 38  1  0
 16 39  1  0
 19 40  1  0
 20 41  1  0
 21 42  1  0
 22 43  1  0
 24 44  1  0
 25 45  1  0
A    1
C01
A    2
C02
A    3
C03
A    4
C04
A    5
C05
A    6
O06
A    7
C07
A    8
C08
A    9
N09
A   10
C10
A   11
S11
A   12
C12
A   13
C13
A   14
C14
A   15
O15
A   16
O16
A   17
N17
A   18
C18
A   19
C19
A   20
C20
A   21
C21
A   22
C22
A   23
C23
A   24
C24
A   25
C25
M  END
