2YM4_4YM_A_1271
     RDKit          3D

 52 55  0  0  0  0  0  0  0  0999 V2000
   21.2950    0.4780    7.4970 C   0  0  0  0  0  0  0  0  0  0  0  0
   20.6870   -0.7620    8.0660 C   0  0  0  0  0  0  0  0  0  0  0  0
   19.9370   -0.6480    9.2140 O   0  0  0  0  0  0  0  0  0  0  0  0
   18.7820   -1.3940    9.3220 C   0  0  0  0  0  0  0  0  0  0  0  0
   18.8350   -2.6090    9.2660 O   0  0  0  0  0  0  0  0  0  0  0  0
   17.4850   -0.6730    9.4500 C   0  0  0  0  0  0  0  0  0  0  0  0
   17.3620    0.4930    8.6890 C   0  0  0  0  0  0  0  0  0  0  0  0
   16.2390    1.2250    8.7260 N   0  0  0  0  0  0  0  0  0  0  0  0
   15.1710    0.8480    9.5140 C   0  0  0  0  0  0  0  0  0  0  0  0
   13.9550    1.4870    9.6610 N   0  0  0  0  0  0  0  0  0  0  0  0
   13.2000    0.7680   10.5380 N   0  0  0  0  0  0  0  0  0  0  0  0
   13.9180   -0.2960   10.9430 C   0  0  0  0  0  0  0  0  0  0  0  0
   13.4460   -1.2410   11.8270 C   0  0  0  0  0  0  0  0  0  0  0  0
   14.3050   -2.1330   12.4450 C   0  0  0  0  0  0  0  0  0  0  0  0
   13.8160   -3.0860   13.3290 C   0  0  0  0  0  0  0  0  0  0  0  0
   12.4620   -3.1460   13.5990 C   0  0  0  0  0  0  0  0  0  0  0  0
   11.6010   -2.2570   12.9840 C   0  0  0  0  0  0  0  0  0  0  0  0
   10.1480   -2.3260   13.2780 C   0  0  0  0  0  0  0  0  0  0  0  0
    9.0410   -2.3810   13.5050 N   0  0  0  0  0  0  0  0  0  0  0  0
   12.0890   -1.3030   12.0960 C   0  0  0  0  0  0  0  0  0  0  0  0
   15.2080   -0.2880   10.2960 C   0  0  0  0  0  0  0  0  0  0  0  0
   16.4150   -1.0830   10.2750 C   0  0  0  0  0  0  0  0  0  0  0  0
   16.5280   -2.2990   11.0620 N   0  0  0  0  0  0  0  0  0  0  0  0
   16.3890   -3.4150   10.2160 C   0  0  0  0  0  0  0  0  0  0  0  0
   16.4190   -4.6710   11.0150 C   0  0  0  0  0  0  0  0  0  0  0  0
   17.5970   -4.7630   11.7670 O   0  0  0  0  0  0  0  0  0  0  0  0
   17.8520   -3.6440   12.5810 C   0  0  0  0  0  0  0  0  0  0  0  0
   16.9660   -3.6660   13.7940 C   0  0  0  0  0  0  0  0  0  0  0  0
   17.0230   -2.3840   14.4490 N   0  0  0  0  0  0  0  0  0  0  0  0
   17.6910   -2.3430   11.8520 C   0  0  0  0  0  0  0  0  0  0  0  0
   21.6182    1.1371    8.3162 H   0  0  0  0  0  0  0  0  0  0  0  0
   22.1637    0.2096    6.8779 H   0  0  0  0  0  0  0  0  0  0  0  0
   20.5509    1.0004    6.8779 H   0  0  0  0  0  0  0  0  0  0  0  0
   20.0349   -1.1913    7.2911 H   0  0  0  0  0  0  0  0  0  0  0  0
   21.5487   -1.3783    8.3621 H   0  0  0  0  0  0  0  0  0  0  0  0
   18.1982    0.8147    8.0508 H   0  0  0  0  0  0  0  0  0  0  0  0
   13.6687    2.3566    9.1891 H   0  0  0  0  0  0  0  0  0  0  0  0
   15.3836   -2.0868   12.2343 H   0  0  0  0  0  0  0  0  0  0  0  0
   14.5058   -3.7924   13.8138 H   0  0  0  0  0  0  0  0  0  0  0  0
   12.0713   -3.8980   14.3003 H   0  0  0  0  0  0  0  0  0  0  0  0
   11.3980   -0.5994   11.6086 H   0  0  0  0  0  0  0  0  0  0  0  0
   15.4308   -3.3478    9.6800 H   0  0  0  0  0  0  0  0  0  0  0  0
   17.2210   -3.4266    9.4965 H   0  0  0  0  0  0  0  0  0  0  0  0
   15.5558   -4.6836   11.6967 H   0  0  0  0  0  0  0  0  0  0  0  0
   16.3786   -5.5256   10.3236 H   0  0  0  0  0  0  0  0  0  0  0  0
   18.9056   -3.7129   12.8894 H   0  0  0  0  0  0  0  0  0  0  0  0
   15.9304   -3.8769   13.4888 H   0  0  0  0  0  0  0  0  0  0  0  0
   17.3088   -4.4490   14.4864 H   0  0  0  0  0  0  0  0  0  0  0  0
   17.0170   -2.5195   15.4700 H   0  0  0  0  0  0  0  0  0  0  0  0
   17.8865   -1.8953   14.1726 H   0  0  0  0  0  0  0  0  0  0  0  0
   18.5643   -2.1957   11.1996 H   0  0  0  0  0  0  0  0  0  0  0  0
   17.6068   -1.5488   12.6084 H   0  0  0  0  0  0  0  0  0  0  0  0
  1  2  1  0
  2  3  1  0
  3  4  1  0
  4  5  2  0
  4  6  1  0
  6  7  2  0
  6 22  1  0
  7  8  1  0
  8  9  2  0
  9 10  1  0
  9 21  1  0
 10 11  1  0
 11 12  2  0
 12 13  1  0
 12 21  1  0
 13 14  2  0
 13 20  1  0
 14 15  1  0
 15 16  2  0
 16 17  1  0
 17 18  1  0
 17 20  2  0
 18 19  3  0
 21 22  2  0
 22 23  1  0
 23 24  1  0
 23 30  1  0
 24 25  1  0
 25 26  1  0
 26 27  1  0
 27 28  1  0
 27 30  1  0
 28 29  1  0
  1 31  1  0
  1 32  1  0
  1 33  1  0
  2 34  1  0
  2 35  1  0
  7 36  1  0
 10 37  1  0
 14 38  1  0
 15 39  1  0
 16 40  1  0
 20 41  1  0
 24 42  1  0
 24 43  1  0
 25 44  1  0
 25 45  1  0
 27 46  1  0
 28 47  1  0
 28 48  1  0
 29 49  1  0
 29 50  1  0
 30 51  1  0
 30 52  1  0
A    1
C01
A    2
C02
A    3
O03
A    4
C04
A    5
O05
A    6
C06
A    7
C07
A    8
N08
A    9
C09
A   10
N10
A   11
N11
A   12
C12
A   13
C13
A   14
C14
A   15
C15
A   16
C16
A   17
C17
A   18
C18
A   19
N19
A   20
C20
A   21
C21
A   22
C22
A   23
N23
A   24
C24
A   25
C25
A   26
O26
A   27
C27
A   28
C28
A   29
N29
A   30
C30
M  END
