2YNF_WHU_A_1563
     RDKit          3D

 40 42  0  0  0  0  0  0  0  0999 V2000
   -6.1530   71.6100   13.1880 N   0  0  0  0  0  0  0  0  0  0  0  0
   -6.1020   70.3960   13.8540 C   0  0  0  0  0  0  0  0  0  0  0  0
   -5.7730   70.2760   15.1310 N   0  0  0  0  0  0  0  0  0  0  0  0
   -5.8280   68.9360   15.3920 C   0  0  0  0  0  0  0  0  0  0  0  0
   -5.4620   68.3830   16.9820 Cl  0  0  0  0  0  0  0  0  0  0  0  0
   -6.1540   68.1750   14.2940 C   0  0  0  0  0  0  0  0  0  0  0  0
   -6.3620   69.1680   13.2940 N   0  0  0  0  0  0  0  0  0  0  0  0
   -6.4070   66.7330   14.1120 C   0  0  0  0  0  0  0  0  0  0  0  0
   -6.8640   66.2840   13.0590 O   0  0  0  0  0  0  0  0  0  0  0  0
   -6.1600   65.9070   15.2160 N   0  0  0  0  0  0  0  0  0  0  0  0
   -6.4900   64.4660   15.2240 C   0  0  0  0  0  0  0  0  0  0  0  0
   -8.0060   64.4890   15.3370 C   0  0  0  0  0  0  0  0  0  0  0  0
   -8.8630   64.2210   14.2740 C   0  0  0  0  0  0  0  0  0  0  0  0
  -10.2560   64.3150   14.4040 C   0  0  0  0  0  0  0  0  0  0  0  0
  -10.7640   64.7450   15.6270 C   0  0  0  0  0  0  0  0  0  0  0  0
  -12.5530   65.0170   16.1530 Br  0  0  0  0  0  0  0  0  0  0  0  0
   -9.9570   65.0300   16.6670 C   0  0  0  0  0  0  0  0  0  0  0  0
  -10.5950   65.4140   17.8120 O   0  0  0  0  0  0  0  0  0  0  0  0
  -10.2560   64.9040   19.0520 C   0  0  0  0  0  0  0  0  0  0  0  0
  -10.1940   63.5080   19.1610 C   0  0  0  0  0  0  0  0  0  0  0  0
   -9.9100   62.9340   20.3920 C   0  0  0  0  0  0  0  0  0  0  0  0
   -9.8070   61.1880   20.5710 Cl  0  0  0  0  0  0  0  0  0  0  0  0
   -9.6890   63.7180   21.5110 C   0  0  0  0  0  0  0  0  0  0  0  0
   -9.7710   65.1090   21.3650 C   0  0  0  0  0  0  0  0  0  0  0  0
  -10.0430   65.7210   20.1450 C   0  0  0  0  0  0  0  0  0  0  0  0
   -9.5460   65.8660   22.5500 C   0  0  0  0  0  0  0  0  0  0  0  0
   -9.3600   66.4600   23.5220 N   0  0  0  0  0  0  0  0  0  0  0  0
   -8.5940   64.9100   16.5200 C   0  0  0  0  0  0  0  0  0  0  0  0
   -7.8380   65.2300   17.5930 F   0  0  0  0  0  0  0  0  0  0  0  0
   -6.1900   72.4896   13.7227 H   0  0  0  0  0  0  0  0  0  0  0  0
   -6.1540   71.6328   12.1583 H   0  0  0  0  0  0  0  0  0  0  0  0
   -6.6557   68.9959   12.3219 H   0  0  0  0  0  0  0  0  0  0  0  0
   -5.7311   66.3204   16.0563 H   0  0  0  0  0  0  0  0  0  0  0  0
   -6.1660   63.9767   14.2936 H   0  0  0  0  0  0  0  0  0  0  0  0
   -5.9940   63.9021   16.0278 H   0  0  0  0  0  0  0  0  0  0  0  0
   -8.4355   63.9270   13.3040 H   0  0  0  0  0  0  0  0  0  0  0  0
  -10.9242   64.0580   13.5689 H   0  0  0  0  0  0  0  0  0  0  0  0
  -10.3687   62.8737   18.2794 H   0  0  0  0  0  0  0  0  0  0  0  0
   -9.4561   63.2630   22.4850 H   0  0  0  0  0  0  0  0  0  0  0  0
  -10.0868   66.8164   20.0545 H   0  0  0  0  0  0  0  0  0  0  0  0
  1  2  1  0
  2  3  2  0
  2  7  1  0
  3  4  1  0
  4  5  1  0
  4  6  2  0
  6  7  1  0
  6  8  1  0
  8  9  2  0
  8 10  1  0
 10 11  1  0
 11 12  1  0
 12 13  2  0
 12 28  1  0
 13 14  1  0
 14 15  2  0
 15 16  1  0
 15 17  1  0
 17 18  1  0
 17 28  2  0
 18 19  1  0
 19 20  2  0
 19 25  1  0
 20 21  1  0
 21 22  1  0
 21 23  2  0
 23 24  1  0
 24 25  2  0
 24 26  1  0
 26 27  3  0
 28 29  1  0
  1 30  1  0
  1 31  1  0
  7 32  1  0
 10 33  1  0
 11 34  1  0
 11 35  1  0
 13 36  1  0
 14 37  1  0
 20 38  1  0
 23 39  1  0
 25 40  1  0
A    1
N01
A    2
C02
A    3
N03
A    4
C04
A    5
CL
A    6
C06
A    7
N07
A    8
C08
A    9
O09
A   10
N10
A   11
C11
A   12
C12
A   13
C13
A   14
C14
A   15
C15
A   16
BR
A   17
C17
A   18
O18
A   19
C19
A   20
C20
A   21
C21
A   22
CL2
A   23
C23
A   24
C24
A   25
C27
A   26
C25
A   27
N26
A   28
C28
A   29
F29
M  END
