2YNH_EUR_A_1560
     RDKit          3D

 42 44  0  0  0  0  0  0  0  0999 V2000
   -5.8020   71.5470   12.0080 O   0  0  0  0  0  0  0  0  0  0  0  0
   -5.7310   71.8580   13.3900 C   0  0  0  0  0  0  0  0  0  0  0  0
   -5.7320   70.5520   14.1230 C   0  0  0  0  0  0  0  0  0  0  0  0
   -5.4120   70.4060   15.3950 N   0  0  0  0  0  0  0  0  0  0  0  0
   -5.5460   69.0810   15.6570 C   0  0  0  0  0  0  0  0  0  0  0  0
   -5.1980   68.4750   17.2460 Cl  0  0  0  0  0  0  0  0  0  0  0  0
   -5.9300   68.3830   14.5220 C   0  0  0  0  0  0  0  0  0  0  0  0
   -6.0650   69.3700   13.5520 N   0  0  0  0  0  0  0  0  0  0  0  0
   -6.2390   66.9740   14.3070 C   0  0  0  0  0  0  0  0  0  0  0  0
   -6.7740   66.5650   13.2770 O   0  0  0  0  0  0  0  0  0  0  0  0
   -5.9060   66.1540   15.3730 N   0  0  0  0  0  0  0  0  0  0  0  0
   -6.2370   64.7340   15.3640 C   0  0  0  0  0  0  0  0  0  0  0  0
   -7.7440   64.7540   15.5120 C   0  0  0  0  0  0  0  0  0  0  0  0
   -8.6060   64.3550   14.4890 C   0  0  0  0  0  0  0  0  0  0  0  0
   -9.9860   64.4140   14.6410 C   0  0  0  0  0  0  0  0  0  0  0  0
  -10.5000   64.9100   15.8340 C   0  0  0  0  0  0  0  0  0  0  0  0
  -12.1990   65.0360   16.1200 Cl  0  0  0  0  0  0  0  0  0  0  0  0
   -9.6790   65.3320   16.8650 C   0  0  0  0  0  0  0  0  0  0  0  0
  -10.2480   65.8100   18.0180 O   0  0  0  0  0  0  0  0  0  0  0  0
  -10.1240   65.2270   19.2560 C   0  0  0  0  0  0  0  0  0  0  0  0
  -10.1920   63.8370   19.3210 C   0  0  0  0  0  0  0  0  0  0  0  0
  -10.0830   63.2280   20.5630 C   0  0  0  0  0  0  0  0  0  0  0  0
  -10.1660   61.4890   20.6400 Cl  0  0  0  0  0  0  0  0  0  0  0  0
   -9.9130   63.9420   21.7400 C   0  0  0  0  0  0  0  0  0  0  0  0
   -9.8590   65.3310   21.6410 C   0  0  0  0  0  0  0  0  0  0  0  0
   -9.9640   65.9830   20.4080 C   0  0  0  0  0  0  0  0  0  0  0  0
   -9.6870   66.1290   22.8120 C   0  0  0  0  0  0  0  0  0  0  0  0
   -9.5490   66.8070   23.7430 N   0  0  0  0  0  0  0  0  0  0  0  0
   -8.3100   65.2600   16.6780 C   0  0  0  0  0  0  0  0  0  0  0  0
   -7.5360   65.6780   17.7020 F   0  0  0  0  0  0  0  0  0  0  0  0
   -6.0209   70.5880   11.8964 H   0  0  0  0  0  0  0  0  0  0  0  0
   -4.8071   72.4143   13.6069 H   0  0  0  0  0  0  0  0  0  0  0  0
   -6.5787   72.4871   13.6991 H   0  0  0  0  0  0  0  0  0  0  0  0
   -6.3639   69.2280   12.5766 H   0  0  0  0  0  0  0  0  0  0  0  0
   -5.4162   66.5544   16.1858 H   0  0  0  0  0  0  0  0  0  0  0  0
   -5.9357   64.2605   14.4179 H   0  0  0  0  0  0  0  0  0  0  0  0
   -5.7247   64.1569   16.1479 H   0  0  0  0  0  0  0  0  0  0  0  0
   -8.1839   63.9861   13.5426 H   0  0  0  0  0  0  0  0  0  0  0  0
  -10.6560   64.0763   13.8366 H   0  0  0  0  0  0  0  0  0  0  0  0
  -10.3288   63.2366   18.4095 H   0  0  0  0  0  0  0  0  0  0  0  0
   -9.8245   63.4330   22.7111 H   0  0  0  0  0  0  0  0  0  0  0  0
   -9.9203   67.0807   20.3526 H   0  0  0  0  0  0  0  0  0  0  0  0
  1  2  1  0
  2  3  1  0
  3  4  2  0
  3  8  1  0
  4  5  1  0
  5  6  1  0
  5  7  2  0
  7  8  1  0
  7  9  1  0
  9 10  2  0
  9 11  1  0
 11 12  1  0
 12 13  1  0
 13 14  2  0
 13 29  1  0
 14 15  1  0
 15 16  2  0
 16 17  1  0
 16 18  1  0
 18 19  1  0
 18 29  2  0
 19 20  1  0
 20 21  2  0
 20 26  1  0
 21 22  1  0
 22 23  1  0
 22 24  2  0
 24 25  1  0
 25 26  2  0
 25 27  1  0
 27 28  3  0
 29 30  1  0
  1 31  1  0
  2 32  1  0
  2 33  1  0
  8 34  1  0
 11 35  1  0
 12 36  1  0
 12 37  1  0
 14 38  1  0
 15 39  1  0
 21 40  1  0
 24 41  1  0
 26 42  1  0
A    1
O01
A    2
C02
A    3
C03
A    4
N04
A    5
C05
A    6
CL1
A    7
C07
A    8
N08
A    9
C09
A   10
O10
A   11
N11
A   12
C12
A   13
C13
A   14
C14
A   15
C15
A   16
C16
A   17
CL2
A   18
C18
A   19
O19
A   20
C20
A   21
C21
A   22
C22
A   23
CL3
A   24
C24
A   25
C25
A   26
C28
A   27
C26
A   28
N27
A   29
C29
A   30
F30
M  END
