2YOJ_8Y6_A_1569
     RDKit          3D

 50 55  0  0  0  0  0  0  0  0999 V2000
   27.1760   43.3960   43.2830 C   0  0  0  0  0  0  0  0  0  0  0  0
   27.3960   44.5530   44.0660 C   0  0  0  0  0  0  0  0  0  0  0  0
   28.5450   45.3490   43.8540 C   0  0  0  0  0  0  0  0  0  0  0  0
   29.5070   44.9880   42.8840 C   0  0  0  0  0  0  0  0  0  0  0  0
   29.2670   43.8510   42.0930 C   0  0  0  0  0  0  0  0  0  0  0  0
   28.1060   43.0980   42.2890 C   0  0  0  0  0  0  0  0  0  0  0  0
   23.0570   45.5020   46.2340 C   0  0  0  0  0  0  0  0  0  0  0  0
   24.6080   43.4570   46.7100 C   0  0  0  0  0  0  0  0  0  0  0  0
   25.4060   42.6370   45.8860 C   0  0  0  0  0  0  0  0  0  0  0  0
   25.2190   43.0650   44.6190 N   0  0  0  0  0  0  0  0  0  0  0  0
   24.3510   44.1390   44.5650 C   0  0  0  0  0  0  0  0  0  0  0  0
   23.9310   44.4110   45.8890 C   0  0  0  0  0  0  0  0  0  0  0  0
   26.2010   41.4570   47.8250 C   0  0  0  0  0  0  0  0  0  0  0  0
   26.2030   41.6380   46.4320 C   0  0  0  0  0  0  0  0  0  0  0  0
   23.9950   44.8790   43.3490 C   0  0  0  0  0  0  0  0  0  0  0  0
   25.9560   42.5080   43.5020 C   0  0  0  0  0  0  0  0  0  0  0  0
   23.8590   46.0880   43.2510 O   0  0  0  0  0  0  0  0  0  0  0  0
   21.7540   45.7180   45.4740 C   0  0  0  0  0  0  0  0  0  0  0  0
   21.0060   46.8220   45.8560 N   0  0  0  0  0  0  0  0  0  0  0  0
   21.3630   47.6800   46.8690 C   0  0  0  0  0  0  0  0  0  0  0  0
   22.4870   47.4920   47.5630 C   0  0  0  0  0  0  0  0  0  0  0  0
   23.3660   46.3880   47.2280 C   0  0  0  0  0  0  0  0  0  0  0  0
   21.3800   44.9450   44.5630 O   0  0  0  0  0  0  0  0  0  0  0  0
   23.8100   44.0660   42.2850 O   0  0  0  0  0  0  0  0  0  0  0  0
   27.8810   42.0430   41.4990 F   0  0  0  0  0  0  0  0  0  0  0  0
   28.7840   46.5860   44.6450 C   0  0  0  0  0  0  0  0  0  0  0  0
   27.9750   46.9860   45.4770 O   0  0  0  0  0  0  0  0  0  0  0  0
   29.9750   47.2460   44.3460 N   0  0  0  0  0  0  0  0  0  0  0  0
   30.6880   45.7430   42.6690 N   0  0  0  0  0  0  0  0  0  0  0  0
   30.8640   46.7950   43.4020 C   0  0  0  0  0  0  0  0  0  0  0  0
   27.0080   40.5270   48.3400 F   0  0  0  0  0  0  0  0  0  0  0  0
   25.4020   42.2370   48.6790 C   0  0  0  0  0  0  0  0  0  0  0  0
   24.6150   43.2300   48.1020 C   0  0  0  0  0  0  0  0  0  0  0  0
   23.9180   43.9110   49.0250 O   0  0  0  0  0  0  0  0  0  0  0  0
   25.1470   42.3190   50.0740 C   0  0  0  0  0  0  0  0  0  0  0  0
   24.2390   43.3360   50.2210 C   0  0  0  0  0  0  0  0  0  0  0  0
   26.6702   44.8347   44.8431 H   0  0  0  0  0  0  0  0  0  0  0  0
   29.9920   43.5543   41.3208 H   0  0  0  0  0  0  0  0  0  0  0  0
   26.8240   41.0007   45.7853 H   0  0  0  0  0  0  0  0  0  0  0  0
   25.3266   42.5022   42.5999 H   0  0  0  0  0  0  0  0  0  0  0  0
   26.2585   41.4711   43.7103 H   0  0  0  0  0  0  0  0  0  0  0  0
   20.1292   47.0105   45.3495 H   0  0  0  0  0  0  0  0  0  0  0  0
   20.7128   48.5337   47.1109 H   0  0  0  0  0  0  0  0  0  0  0  0
   22.7464   48.1727   48.3873 H   0  0  0  0  0  0  0  0  0  0  0  0
   24.3044   46.2606   47.7876 H   0  0  0  0  0  0  0  0  0  0  0  0
   23.5925   43.1103   42.4242 H   0  0  0  0  0  0  0  0  0  0  0  0
   30.1983   48.1120   44.8569 H   0  0  0  0  0  0  0  0  0  0  0  0
   31.7917   47.3685   43.2585 H   0  0  0  0  0  0  0  0  0  0  0  0
   25.5855   41.6977   50.8688 H   0  0  0  0  0  0  0  0  0  0  0  0
   23.8191   43.6511   51.1877 H   0  0  0  0  0  0  0  0  0  0  0  0
  1  2  2  0
  1  6  1  0
  1 16  1  0
  2  3  1  0
  3  4  2  0
  3 26  1  0
  4  5  1  0
  4 29  1  0
  5  6  2  0
  6 25  1  0
  7 12  1  0
  7 18  1  0
  7 22  2  0
  8  9  2  0
  8 12  1  0
  8 33  1  0
  9 10  1  0
  9 14  1  0
 10 11  1  0
 10 16  1  0
 11 12  2  0
 11 15  1  0
 13 14  2  0
 13 31  1  0
 13 32  1  0
 15 17  2  0
 15 24  1  0
 18 19  1  0
 18 23  2  0
 19 20  1  0
 20 21  2  0
 21 22  1  0
 26 27  2  0
 26 28  1  0
 28 30  1  0
 29 30  2  0
 32 33  2  0
 32 35  1  0
 33 34  1  0
 34 36  1  0
 36 35  2  0
  2 37  1  0
  5 38  1  0
 14 39  1  0
 16 40  1  0
 16 41  1  0
 19 42  1  0
 20 43  1  0
 21 44  1  0
 22 45  1  0
 24 46  1  0
 28 47  1  0
 30 48  1  0
 35 49  1  0
 36 50  1  0
A    1
C1
A    2
C2
A    3
C3
A    4
C4
A    5
C5
A    6
C6
A    7
C7
A    8
C8
A    9
C9
A   10
N1
A   11
C10
A   12
C11
A   13
C12
A   14
C13
A   15
C14
A   16
C15
A   17
O1
A   18
C16
A   19
N2
A   20
C17
A   21
C18
A   22
C19
A   23
O2
A   24
O3
A   25
F1
A   26
C20
A   27
O4
A   28
N3
A   29
N4
A   30
C21
A   31
F2
A   32
C22
A   33
C23
A   34
O5
A   35
C25
A   36
C24
M  END
