2YXN_AZY_A_501
     RDKit          3D

 26 26  0  0  0  0  0  0  0  0999 V2000
    4.7590   28.4790   15.5960 O   0  0  0  0  0  0  0  0  0  0  0  0
    5.4710   28.3070   16.6080 C   0  0  0  0  0  0  0  0  0  0  0  0
    5.0740   28.1950   17.7880 O   0  0  0  0  0  0  0  0  0  0  0  0
    6.9840   28.2370   16.3960 C   0  0  0  0  0  0  0  0  0  0  0  0
    7.2890   27.7450   15.0430 N   0  0  0  0  0  0  0  0  0  0  0  0
    7.5660   29.6390   16.5970 C   0  0  0  0  0  0  0  0  0  0  0  0
    9.0970   29.5980   16.5680 C   0  0  0  0  0  0  0  0  0  0  0  0
    9.7820   28.9300   17.5780 C   0  0  0  0  0  0  0  0  0  0  0  0
    9.7950   30.1660   15.5050 C   0  0  0  0  0  0  0  0  0  0  0  0
   11.1820   30.0450   15.4530 C   0  0  0  0  0  0  0  0  0  0  0  0
   11.8640   29.3640   16.4570 C   0  0  0  0  0  0  0  0  0  0  0  0
   13.2120   29.1970   16.3760 O   0  0  0  0  0  0  0  0  0  0  0  0
   11.1680   28.8090   17.5280 C   0  0  0  0  0  0  0  0  0  0  0  0
   11.8020   28.1770   18.5150 N   0  0  0  0  0  0  0  0  0  0  0  0
   12.9160   28.0420   18.5270 N   0  0  0  0  0  0  0  0  0  0  0  0
   14.0280   27.8980   18.5450 N   0  0  0  0  0  0  0  0  0  0  0  0
    3.8018   28.7102   15.6977 H   0  0  0  0  0  0  0  0  0  0  0  0
    7.4314   27.5390   17.1190 H   0  0  0  0  0  0  0  0  0  0  0  0
    7.8306   26.8714   15.1093 H   0  0  0  0  0  0  0  0  0  0  0  0
    6.4102   27.5665   14.5364 H   0  0  0  0  0  0  0  0  0  0  0  0
    7.2070   30.2979   15.7927 H   0  0  0  0  0  0  0  0  0  0  0  0
    7.2405   30.0204   17.5761 H   0  0  0  0  0  0  0  0  0  0  0  0
    9.2252   28.4949   18.4210 H   0  0  0  0  0  0  0  0  0  0  0  0
    9.2555   30.7058   14.7128 H   0  0  0  0  0  0  0  0  0  0  0  0
   11.7399   30.4892   14.6155 H   0  0  0  0  0  0  0  0  0  0  0  0
   13.7530   29.1300   17.2024 H   0  0  0  0  0  0  0  0  0  0  0  0
  1  2  1  0
  2  3  2  0
  2  4  1  0
  4  5  1  0
  4  6  1  0
  6  7  1  0
  7  9  2  0
  7  8  1  0
  8 13  2  0
  9 10  1  0
 10 11  2  0
 11 12  1  0
 11 13  1  0
 13 14  1  0
 14 15  2  3
 15 16  2  0
  1 17  1  0
  4 18  1  0
  5 19  1  0
  5 20  1  0
  6 21  1  0
  6 22  1  0
  8 23  1  0
  9 24  1  0
 10 25  1  0
 12 26  1  0
M  CHG  2  15   1  16  -1
A    1
OXT
A    2
C
A    3
O
A    4
CA
A    5
N
A    6
CB
A    7
CG
A    8
CD2
A    9
CD1
A   10
CE1
A   11
CZ
A   12
OH
A   13
CE2
A   14
N1
A   15
N2
A   16
N3
M  END
