1J79_NCD_A_950
     RDKit          3D

 20 19  0  0  0  0  0  0  0  0999 V2000
   15.8620   19.9760   76.6110 C   0  0  0  0  0  0  0  0  0  0  0  0
   15.5870   18.4830   76.1880 C   0  0  0  0  0  0  0  0  0  0  0  0
   16.4470   17.6090   76.2870 O   0  0  0  0  0  0  0  0  0  0  0  0
   14.4440   18.0730   75.8070 O   0  0  0  0  0  0  0  0  0  0  0  0
   14.7470   20.8530   76.2900 N   0  0  0  0  0  0  0  0  0  0  0  0
   13.4770   20.7240   76.8100 C   0  0  0  0  0  0  0  0  0  0  0  0
   12.5930   21.5610   76.5390 O   0  0  0  0  0  0  0  0  0  0  0  0
   13.1470   19.7080   77.5910 N   0  0  0  0  0  0  0  0  0  0  0  0
   16.1920   20.0210   78.0740 C   0  0  0  0  0  0  0  0  0  0  0  0
   17.5990   19.4780   78.3320 C   0  0  0  0  0  0  0  0  0  0  0  0
   18.1800   19.8790   79.3180 O   0  0  0  0  0  0  0  0  0  0  0  0
   18.0770   18.5740   77.6260 O   0  0  0  0  0  0  0  0  0  0  0  0
   16.7199   20.3500   76.0329 H   0  0  0  0  0  0  0  0  0  0  0  0
   16.7447   17.3065   77.1814 H   0  0  0  0  0  0  0  0  0  0  0  0
   14.9182   21.6237   75.6284 H   0  0  0  0  0  0  0  0  0  0  0  0
   13.1812   19.8133   78.6150 H   0  0  0  0  0  0  0  0  0  0  0  0
   12.8559   18.8119   77.1749 H   0  0  0  0  0  0  0  0  0  0  0  0
   16.1379   21.0625   78.4238 H   0  0  0  0  0  0  0  0  0  0  0  0
   15.4683   19.3958   78.6175 H   0  0  0  0  0  0  0  0  0  0  0  0
   18.4951   17.7833   78.0503 H   0  0  0  0  0  0  0  0  0  0  0  0
  1  2  1  0
  1  5  1  0
  1  9  1  0
  2  3  1  0
  2  4  2  0
  5  6  1  0
  6  7  2  0
  6  8  1  0
  9 10  1  0
 10 11  2  0
 10 12  1  0
  1 13  1  0
  3 14  1  0
  5 15  1  0
  8 16  1  0
  8 17  1  0
  9 18  1  0
  9 19  1  0
 12 20  1  0
A    1
C6
A    2
C61
A    3
O61
A    4
O62
A    5
N1
A    6
C2
A    7
O2
A    8
N3
A    9
C5
A   10
C4
A   11
O4
A   12
O5
M  END
