1KC8_BLS_A_9001
     RDKit          3D

 56 57  0  0  0  0  0  0  0  0999 V2000
   80.2790  112.7880   95.2850 O   0  0  0  0  0  0  0  0  0  0  0  0
   76.0830  110.6960   97.0450 N   0  0  0  0  0  0  0  0  0  0  0  0
   74.8400  109.9690   97.1530 C   0  0  0  0  0  0  0  0  0  0  0  0
   73.8670  110.2210   96.5190 O   0  0  0  0  0  0  0  0  0  0  0  0
   74.7500  108.9070   98.0730 N   0  0  0  0  0  0  0  0  0  0  0  0
   75.8270  108.6120   98.8570 C   0  0  0  0  0  0  0  0  0  0  0  0
   75.6780  107.5790   99.7630 N   0  0  0  0  0  0  0  0  0  0  0  0
   77.0160  109.3390   98.7720 C   0  0  0  0  0  0  0  0  0  0  0  0
   77.1630  110.3830   97.8450 C   0  0  0  0  0  0  0  0  0  0  0  0
   76.2160  111.7870   96.0390 C   0  0  0  0  0  0  0  0  0  0  0  0
   75.6220  113.0370   96.5010 C   0  0  0  0  0  0  0  0  0  0  0  0
   76.1980  114.2940   96.2010 C   0  0  0  0  0  0  0  0  0  0  0  0
   77.5170  114.2530   95.3250 C   0  0  0  0  0  0  0  0  0  0  0  0
   77.9500  112.9920   94.7770 C   0  0  0  0  0  0  0  0  0  0  0  0
   77.6970  111.9510   95.8140 O   0  0  0  0  0  0  0  0  0  0  0  0
   79.6240  113.0400   93.1220 O   0  0  0  0  0  0  0  0  0  0  0  0
   79.4760  112.9190   94.4520 C   0  0  0  0  0  0  0  0  0  0  0  0
   77.4900  115.3530   94.2490 N   0  0  0  0  0  0  0  0  0  0  0  0
   78.0200  116.6070   94.3090 C   0  0  0  0  0  0  0  0  0  0  0  0
   78.6080  116.9350   95.3500 O   0  0  0  0  0  0  0  0  0  0  0  0
   77.7960  117.3670   92.9770 C   0  0  0  0  0  0  0  0  0  0  0  0
   78.7820  116.9470   91.9450 C   0  0  0  0  0  0  0  0  0  0  0  0
   78.6820  117.6470   90.5760 N   0  0  0  0  0  0  0  0  0  0  0  0
   80.0740  117.2330   92.4030 C   0  0  0  0  0  0  0  0  0  0  0  0
   81.0310  116.0370   92.4680 C   0  0  0  0  0  0  0  0  0  0  0  0
   82.4200  116.5320   92.8200 N   0  0  0  0  0  0  0  0  0  0  0  0
   82.6620  116.7500   94.2450 C   0  0  0  0  0  0  0  0  0  0  0  0
   83.3280  116.7570   91.8910 C   0  0  0  0  0  0  0  0  0  0  0  0
   84.6340  116.8770   92.3730 N   0  0  0  0  0  0  0  0  0  0  0  0
   83.1940  116.6210   90.5710 N   0  0  0  0  0  0  0  0  0  0  0  0
   80.0150  112.8311   96.2382 H   0  0  0  0  0  0  0  0  0  0  0  0
   75.7060  107.7728  100.7742 H   0  0  0  0  0  0  0  0  0  0  0  0
   75.5390  106.6153   99.4270 H   0  0  0  0  0  0  0  0  0  0  0  0
   77.8515  109.0896   99.4426 H   0  0  0  0  0  0  0  0  0  0  0  0
   78.1106  110.9349   97.7589 H   0  0  0  0  0  0  0  0  0  0  0  0
   75.6812  111.5304   95.1126 H   0  0  0  0  0  0  0  0  0  0  0  0
   74.6999  113.0011   97.0997 H   0  0  0  0  0  0  0  0  0  0  0  0
   75.7582  115.2387   96.5534 H   0  0  0  0  0  0  0  0  0  0  0  0
   78.2997  114.4439   96.0740 H   0  0  0  0  0  0  0  0  0  0  0  0
   77.3996  112.8510   93.8351 H   0  0  0  0  0  0  0  0  0  0  0  0
   77.0097  115.1102   93.3708 H   0  0  0  0  0  0  0  0  0  0  0  0
   76.7807  117.1560   92.6100 H   0  0  0  0  0  0  0  0  0  0  0  0
   77.9252  118.4432   93.1643 H   0  0  0  0  0  0  0  0  0  0  0  0
   78.5608  115.8800   91.7950 H   0  0  0  0  0  0  0  0  0  0  0  0
   78.5377  118.6571   90.7166 H   0  0  0  0  0  0  0  0  0  0  0  0
   79.5533  117.4948   90.0481 H   0  0  0  0  0  0  0  0  0  0  0  0
   80.5141  117.9830   91.7293 H   0  0  0  0  0  0  0  0  0  0  0  0
   79.9566  117.5825   93.4394 H   0  0  0  0  0  0  0  0  0  0  0  0
   80.6858  115.3304   93.2371 H   0  0  0  0  0  0  0  0  0  0  0  0
   81.0549  115.5279   91.4932 H   0  0  0  0  0  0  0  0  0  0  0  0
   81.9715  116.1280   94.8335 H   0  0  0  0  0  0  0  0  0  0  0  0
   83.6994  116.4757   94.4869 H   0  0  0  0  0  0  0  0  0  0  0  0
   82.4972  117.8103   94.4869 H   0  0  0  0  0  0  0  0  0  0  0  0
   85.4101  117.0536   91.7192 H   0  0  0  0  0  0  0  0  0  0  0  0
   82.5227  115.9396   90.1890 H   0  0  0  0  0  0  0  0  0  0  0  0
   83.7619  117.1973   89.9336 H   0  0  0  0  0  0  0  0  0  0  0  0
  1 17  1  0
  2  3  1  0
  2  9  1  0
  2 10  1  0
  3  4  2  0
  3  5  1  0
  5  6  2  0
  6  7  1  0
  6  8  1  0
  8  9  2  0
 10 11  1  0
 10 15  1  0
 11 12  2  0
 12 13  1  0
 13 14  1  0
 13 18  1  0
 14 15  1  0
 14 17  1  0
 16 17  2  0
 18 19  1  0
 19 20  2  0
 19 21  1  0
 21 22  1  0
 22 23  1  0
 22 24  1  0
 24 25  1  0
 25 26  1  0
 26 27  1  0
 26 28  1  0
 28 29  2  3
 28 30  1  0
  1 31  1  0
  7 32  1  0
  7 33  1  0
  8 34  1  0
  9 35  1  0
 10 36  1  0
 11 37  1  0
 12 38  1  0
 13 39  1  0
 14 40  1  0
 18 41  1  0
 21 42  1  0
 21 43  1  0
 22 44  1  0
 23 45  1  0
 23 46  1  0
 24 47  1  0
 24 48  1  0
 25 49  1  0
 25 50  1  0
 27 51  1  0
 27 52  1  0
 27 53  1  0
 29 54  1  0
 30 55  1  0
 30 56  1  0
A    1
O4
A    2
N1
A    3
C2
A    4
O2
A    5
N3
A    6
C4
A    7
N4
A    8
C5
A    9
C6
A   10
C1'
A   11
C2'
A   12
C3'
A   13
C4'
A   14
C5'
A   15
O5'
A   16
O3
A   17
C6'
A   18
N6
A   19
C7
A   20
O7
A   21
C8
A   22
C9
A   23
N9
A   24
C10
A   25
C11
A   26
N12
A   27
C13
A   28
C14
A   29
N14
A   30
N15
M  END
