2Z4X_252_A_1101
     RDKit          3D

 40 39  0  0  0  0  0  0  0  0999 V2000
  -17.1800   26.4070   65.4400 C   0  0  0  0  0  0  0  0  0  0  0  0
  -17.6140   27.4240   64.3800 C   0  0  0  0  0  0  0  0  0  0  0  0
  -19.1190   27.3180   64.1260 C   0  0  0  0  0  0  0  0  0  0  0  0
  -19.5810   28.3340   63.0830 C   0  0  0  0  0  0  0  0  0  0  0  0
  -21.0300   28.0520   62.6780 C   0  0  0  0  0  0  0  0  0  0  0  0
  -21.3900   28.7570   61.3690 C   0  0  0  0  0  0  0  0  0  0  0  0
  -22.6680   28.1560   60.7750 C   0  0  0  0  0  0  0  0  0  0  0  0
  -22.9680   28.8080   59.4250 C   0  0  0  0  0  0  0  0  0  0  0  0
  -24.2740   28.3560   58.7700 C   0  0  0  0  0  0  0  0  0  0  0  0
  -24.4190   29.2510   57.1450 P   0  0  0  0  0  0  0  0  0  0  0  0
  -24.1640   30.8150   57.4430 O   0  0  0  0  0  0  0  0  0  0  0  0
  -23.1410   28.8110   56.2700 O   0  0  0  0  0  0  0  0  0  0  0  0
  -25.7110   28.9940   56.4640 O   0  0  0  0  0  0  0  0  0  0  0  0
  -24.2610   26.5410   58.3550 P   0  0  0  0  0  0  0  0  0  0  0  0
  -24.6190   25.7360   59.6920 O   0  0  0  0  0  0  0  0  0  0  0  0
  -25.4940   26.3630   57.3450 O   0  0  0  0  0  0  0  0  0  0  0  0
  -22.9730   26.1910   57.7110 O   0  0  0  0  0  0  0  0  0  0  0  0
  -25.4010   28.6570   59.6000 O   0  0  0  0  0  0  0  0  0  0  0  0
  -17.3578   26.8237   66.4424 H   0  0  0  0  0  0  0  0  0  0  0  0
  -17.7613   25.4810   65.3194 H   0  0  0  0  0  0  0  0  0  0  0  0
  -16.1092   26.1860   65.3194 H   0  0  0  0  0  0  0  0  0  0  0  0
  -17.3761   28.4387   64.7320 H   0  0  0  0  0  0  0  0  0  0  0  0
  -17.0777   27.2144   63.4428 H   0  0  0  0  0  0  0  0  0  0  0  0
  -19.3507   26.3048   63.7659 H   0  0  0  0  0  0  0  0  0  0  0  0
  -19.6449   27.5267   65.0693 H   0  0  0  0  0  0  0  0  0  0  0  0
  -19.5124   29.3468   63.5067 H   0  0  0  0  0  0  0  0  0  0  0  0
  -18.9374   28.2550   62.1944 H   0  0  0  0  0  0  0  0  0  0  0  0
  -21.1610   26.9675   62.5484 H   0  0  0  0  0  0  0  0  0  0  0  0
  -21.6916   28.4327   63.4700 H   0  0  0  0  0  0  0  0  0  0  0  0
  -21.5498   29.8275   61.5655 H   0  0  0  0  0  0  0  0  0  0  0  0
  -20.5658   28.6241   60.6527 H   0  0  0  0  0  0  0  0  0  0  0  0
  -22.5318   27.0734   60.6355 H   0  0  0  0  0  0  0  0  0  0  0  0
  -23.5082   28.3385   61.4612 H   0  0  0  0  0  0  0  0  0  0  0  0
  -23.0192   29.8966   59.5747 H   0  0  0  0  0  0  0  0  0  0  0  0
  -22.1588   28.5005   58.7463 H   0  0  0  0  0  0  0  0  0  0  0  0
  -24.1396   30.9648   58.4213 H   0  0  0  0  0  0  0  0  0  0  0  0
  -22.3995   28.5557   56.8742 H   0  0  0  0  0  0  0  0  0  0  0  0
  -24.3761   26.2822   60.4811 H   0  0  0  0  0  0  0  0  0  0  0  0
  -22.2948   26.0067   58.4082 H   0  0  0  0  0  0  0  0  0  0  0  0
  -25.1380   28.5868   60.5518 H   0  0  0  0  0  0  0  0  0  0  0  0
  1  2  1  0
  2  3  1  0
  3  4  1  0
  4  5  1  0
  5  6  1  0
  6  7  1  0
  7  8  1  0
  8  9  1  0
  9 10  1  0
  9 18  1  0
  9 14  1  0
 10 13  2  0
 10 11  1  0
 10 12  1  0
 14 16  2  0
 14 17  1  0
 14 15  1  0
  1 19  1  0
  1 20  1  0
  1 21  1  0
  2 22  1  0
  2 23  1  0
  3 24  1  0
  3 25  1  0
  4 26  1  0
  4 27  1  0
  5 28  1  0
  5 29  1  0
  6 30  1  0
  6 31  1  0
  7 32  1  0
  7 33  1  0
  8 34  1  0
  8 35  1  0
 11 36  1  0
 12 37  1  0
 15 38  1  0
 17 39  1  0
 18 40  1  0
A    1
CAA
A    2
CAI
A    3
CAJ
A    4
CAK
A    5
CAL
A    6
CAM
A    7
CAN
A    8
CAO
A    9
CAP
A   10
P1P
A   11
OAE
A   12
OAF
A   13
OAB
A   14
P1R
A   15
OAG
A   16
OAH
A   17
OAC
A   18
OAD
M  END
