2Z5X_HRM_A_700
     RDKit          3D

 28 30  0  0  0  0  0  0  0  0999 V2000
   37.9770   27.0500  -17.7610 C   0  0  0  0  0  0  0  0  0  0  0  0
   38.2180   27.4840  -16.3270 C   0  0  0  0  0  0  0  0  0  0  0  0
   37.3130   28.3190  -15.7820 N   0  0  0  0  0  0  0  0  0  0  0  0
   37.4270   28.8250  -14.5370 C   0  0  0  0  0  0  0  0  0  0  0  0
   38.5280   28.4870  -13.7520 C   0  0  0  0  0  0  0  0  0  0  0  0
   39.5060   27.6500  -14.3040 C   0  0  0  0  0  0  0  0  0  0  0  0
   39.3440   27.1250  -15.6030 C   0  0  0  0  0  0  0  0  0  0  0  0
   40.4290   26.3750  -15.8550 N   0  0  0  0  0  0  0  0  0  0  0  0
   41.2340   26.3960  -14.7790 C   0  0  0  0  0  0  0  0  0  0  0  0
   42.4500   25.7810  -14.5650 C   0  0  0  0  0  0  0  0  0  0  0  0
   40.6940   27.1720  -13.7850 C   0  0  0  0  0  0  0  0  0  0  0  0
   41.3130   27.3740  -12.5100 C   0  0  0  0  0  0  0  0  0  0  0  0
   42.5570   26.7670  -12.2850 C   0  0  0  0  0  0  0  0  0  0  0  0
   43.0880   25.9660  -13.3350 C   0  0  0  0  0  0  0  0  0  0  0  0
   44.3000   25.3650  -13.1470 O   0  0  0  0  0  0  0  0  0  0  0  0
   44.9390   24.7660  -14.3200 C   0  0  0  0  0  0  0  0  0  0  0  0
   37.4430   26.0883  -17.7682 H   0  0  0  0  0  0  0  0  0  0  0  0
   37.3715   27.8096  -18.2771 H   0  0  0  0  0  0  0  0  0  0  0  0
   38.9419   26.9375  -18.2771 H   0  0  0  0  0  0  0  0  0  0  0  0
   36.6544   29.5015  -14.1428 H   0  0  0  0  0  0  0  0  0  0  0  0
   38.6264   28.8680  -12.7248 H   0  0  0  0  0  0  0  0  0  0  0  0
   40.6143   25.8660  -16.7311 H   0  0  0  0  0  0  0  0  0  0  0  0
   42.9085   25.1574  -15.3466 H   0  0  0  0  0  0  0  0  0  0  0  0
   40.8293   27.9845  -11.7333 H   0  0  0  0  0  0  0  0  0  0  0  0
   43.0992   26.9040  -11.3377 H   0  0  0  0  0  0  0  0  0  0  0  0
   45.7053   24.0476  -13.9933 H   0  0  0  0  0  0  0  0  0  0  0  0
   44.1817   24.2449  -14.9240 H   0  0  0  0  0  0  0  0  0  0  0  0
   45.4102   25.5554  -14.9240 H   0  0  0  0  0  0  0  0  0  0  0  0
  1  2  1  0
  2  3  2  0
  2  7  1  0
  3  4  1  0
  4  5  2  0
  5  6  1  0
  6  7  2  0
  6 11  1  0
  7  8  1  0
  8  9  1  0
  9 10  1  0
  9 11  2  0
 10 14  2  0
 11 12  1  0
 12 13  2  0
 13 14  1  0
 14 15  1  0
 15 16  1  0
  1 17  1  0
  1 18  1  0
  1 19  1  0
  4 20  1  0
  5 21  1  0
  8 22  1  0
 10 23  1  0
 12 24  1  0
 13 25  1  0
 16 26  1  0
 16 27  1  0
 16 28  1  0
A    1
CAB
A    2
CAL
A    3
NAH
A    4
CAC
A    5
CAE
A    6
CAO
A    7
CAP
A    8
NAI
A    9
CAM
A   10
CAG
A   11
CAN
A   12
CAF
A   13
CAD
A   14
CAK
A   15
OAJ
A   16
CAA
M  END
