2Z9J_DTZ_A_902
     RDKit          3D

  5  4  0  0  0  0  0  0  0  0999 V2000
    9.8550   35.9750   10.2930 S   0  0  0  0  0  0  0  0  0  0  0  0
    8.7840   35.2470    8.3780 Zn  0  0  0  0  0  2  0  0  0  0  0  0
    9.0460   32.9550    8.3150 S   0  0  0  0  0  0  0  0  0  0  0  0
    9.1817   35.5173   11.3948 H   0  0  0  0  0  0  0  0  0  0  0  0
    9.1018   32.4664    9.5937 H   0  0  0  0  0  0  0  0  0  0  0  0
  1  2  1  0
  2  3  1  0
  1  4  1  0
  3  5  1  0
A    1
S1
A    2
ZN
A    3
S2
M  END
