1RFT_PXM_A_402
     RDKit          3D

 24 24  0  0  0  0  0  0  0  0999 V2000
   40.2890   45.5980   -2.2720 N   0  0  0  0  0  0  0  0  0  0  0  0
   40.4590   44.6890   -1.2470 C   0  0  0  0  0  0  0  0  0  0  0  0
   39.2390   44.1180   -0.5470 C   0  0  0  0  0  0  0  0  0  0  0  0
   41.7960   44.2960   -0.9370 C   0  0  0  0  0  0  0  0  0  0  0  0
   41.9430   43.3890    0.0520 O   0  0  0  0  0  0  0  0  0  0  0  0
   42.9040   44.8350   -1.6730 C   0  0  0  0  0  0  0  0  0  0  0  0
   42.6250   45.7500   -2.7970 C   0  0  0  0  0  0  0  0  0  0  0  0
   43.8190   46.2400   -3.6570 C   0  0  0  0  0  0  0  0  0  0  0  0
   43.3940   47.0890   -4.6800 O   0  0  0  0  0  0  0  0  0  0  0  0
   41.3020   46.1470   -3.0650 C   0  0  0  0  0  0  0  0  0  0  0  0
   44.2390   44.4250   -1.3310 C   0  0  0  0  0  0  0  0  0  0  0  0
   44.4260   43.1830   -2.1020 N   0  0  0  0  0  0  0  0  0  0  0  0
   39.3775   44.1828    0.5423 H   0  0  0  0  0  0  0  0  0  0  0  0
   38.3470   44.6922   -0.8380 H   0  0  0  0  0  0  0  0  0  0  0  0
   39.1085   43.0653   -0.8380 H   0  0  0  0  0  0  0  0  0  0  0  0
   41.8964   43.6765    0.9982 H   0  0  0  0  0  0  0  0  0  0  0  0
   44.5260   46.7824   -3.0121 H   0  0  0  0  0  0  0  0  0  0  0  0
   44.3012   45.3625   -4.1126 H   0  0  0  0  0  0  0  0  0  0  0  0
   42.9873   47.9015   -4.2869 H   0  0  0  0  0  0  0  0  0  0  0  0
   41.0729   46.8626   -3.8684 H   0  0  0  0  0  0  0  0  0  0  0  0
   44.9732   45.1876   -1.6300 H   0  0  0  0  0  0  0  0  0  0  0  0
   44.3795   44.2829   -0.2493 H   0  0  0  0  0  0  0  0  0  0  0  0
   44.5452   42.3913   -1.4540 H   0  0  0  0  0  0  0  0  0  0  0  0
   43.6001   43.0196   -2.6954 H   0  0  0  0  0  0  0  0  0  0  0  0
  1  2  2  0
  1 10  1  0
  2  3  1  0
  2  4  1  0
  4  5  1  0
  4  6  2  0
  6  7  1  0
  6 11  1  0
  7  8  1  0
  7 10  2  0
  8  9  1  0
 11 12  1  0
  3 13  1  0
  3 14  1  0
  3 15  1  0
  5 16  1  0
  8 17  1  0
  8 18  1  0
  9 19  1  0
 10 20  1  0
 11 21  1  0
 11 22  1  0
 12 23  1  0
 12 24  1  0
A    1
N1
A    2
C2
A    3
C2A
A    4
C3
A    5
O3
A    6
C4
A    7
C5
A    8
C5A
A    9
O5
A   10
C6
A   11
C4A
A   12
N4
M  END
