2Z9Y_DDR_A_1
     RDKit          3D

 72 71  0  0  0  0  0  0  0  0999 V2000
   -5.2400    1.0010    2.9040 O   0  0  0  0  0  0  0  0  0  0  0  0
   -6.1630    1.6070    3.4840 C   0  0  0  0  0  0  0  0  0  0  0  0
   -6.5640    3.0020    3.0830 C   0  0  0  0  0  0  0  0  0  0  0  0
   -6.5940    3.1810    1.5720 C   0  0  0  0  0  0  0  0  0  0  0  0
   -7.8570    3.8950    1.1190 C   0  0  0  0  0  0  0  0  0  0  0  0
   -7.7030    4.5080   -0.2690 C   0  0  0  0  0  0  0  0  0  0  0  0
   -7.9690    3.4720   -1.3450 C   0  0  0  0  0  0  0  0  0  0  0  0
   -8.3280    4.1500   -2.6560 C   0  0  0  0  0  0  0  0  0  0  0  0
   -8.7940    3.1350   -3.6880 C   0  0  0  0  0  0  0  0  0  0  0  0
   -8.6930    3.7650   -5.0690 C   0  0  0  0  0  0  0  0  0  0  0  0
   -8.3880    2.7300   -6.1290 C   0  0  0  0  0  0  0  0  0  0  0  0
   -6.9260    1.0630    4.6030 O   0  0  0  0  0  0  0  0  0  0  0  0
   -6.6820   -0.2460    5.1220 C   0  0  0  0  0  0  0  0  0  0  0  0
   -6.6360   -0.1790    6.6490 C   0  0  0  0  0  0  0  0  0  0  0  0
   -6.0050   -1.3320    7.2380 O   0  0  0  0  0  0  0  0  0  0  0  0
   -7.8650   -1.1240    4.7520 C   0  0  0  0  0  0  0  0  0  0  0  0
   -8.0910   -1.0400    3.3450 O   0  0  0  0  0  0  0  0  0  0  0  0
   -7.1680   -1.7210    2.4750 C   0  0  0  0  0  0  0  0  0  0  0  0
   -6.2040   -2.2850    2.9620 O   0  0  0  0  0  0  0  0  0  0  0  0
   -7.4090   -1.7590    0.9920 C   0  0  0  0  0  0  0  0  0  0  0  0
   -7.1310   -0.3930    0.4040 C   0  0  0  0  0  0  0  0  0  0  0  0
   -7.1660   -0.4590   -1.1190 C   0  0  0  0  0  0  0  0  0  0  0  0
   -8.6190   -0.5960   -1.5730 C   0  0  0  0  0  0  0  0  0  0  0  0
   -8.6690   -0.8090   -3.0820 C   0  0  0  0  0  0  0  0  0  0  0  0
   -9.9080   -1.5840   -3.5020 C   0  0  0  0  0  0  0  0  0  0  0  0
  -10.4960   -1.0400   -4.7860 C   0  0  0  0  0  0  0  0  0  0  0  0
  -11.3880    0.1420   -4.4460 C   0  0  0  0  0  0  0  0  0  0  0  0
  -12.8340   -0.2160   -4.6550 C   0  0  0  0  0  0  0  0  0  0  0  0
   -5.8423    3.7142    3.5096 H   0  0  0  0  0  0  0  0  0  0  0  0
   -7.5797    3.1835    3.4642 H   0  0  0  0  0  0  0  0  0  0  0  0
   -6.5525    2.1911    1.0942 H   0  0  0  0  0  0  0  0  0  0  0  0
   -5.7284    3.7940    1.2805 H   0  0  0  0  0  0  0  0  0  0  0  0
   -8.0886    4.6958    1.8367 H   0  0  0  0  0  0  0  0  0  0  0  0
   -8.6678    3.1530    1.0736 H   0  0  0  0  0  0  0  0  0  0  0  0
   -6.6784    4.8918   -0.3826 H   0  0  0  0  0  0  0  0  0  0  0  0
   -8.4309    5.3256   -0.3774 H   0  0  0  0  0  0  0  0  0  0  0  0
   -8.8032    2.8280   -1.0297 H   0  0  0  0  0  0  0  0  0  0  0  0
   -7.0607    2.8692   -1.4922 H   0  0  0  0  0  0  0  0  0  0  0  0
   -7.4424    4.6751   -3.0431 H   0  0  0  0  0  0  0  0  0  0  0  0
   -9.1475    4.8596   -2.4692 H   0  0  0  0  0  0  0  0  0  0  0  0
   -9.8376    2.8526   -3.4850 H   0  0  0  0  0  0  0  0  0  0  0  0
   -8.1650    2.2339   -3.6393 H   0  0  0  0  0  0  0  0  0  0  0  0
   -7.8896    4.5164   -5.0613 H   0  0  0  0  0  0  0  0  0  0  0  0
   -9.6610    4.2295   -5.3083 H   0  0  0  0  0  0  0  0  0  0  0  0
   -8.1086    1.7820   -5.6461 H   0  0  0  0  0  0  0  0  0  0  0  0
   -9.2783    2.5738   -6.7559 H   0  0  0  0  0  0  0  0  0  0  0  0
   -7.5553    3.0816   -6.7559 H   0  0  0  0  0  0  0  0  0  0  0  0
   -5.7367   -0.6385    4.7191 H   0  0  0  0  0  0  0  0  0  0  0  0
   -6.0740    0.7191    6.9449 H   0  0  0  0  0  0  0  0  0  0  0  0
   -7.6742   -0.1475    7.0112 H   0  0  0  0  0  0  0  0  0  0  0  0
   -6.0437   -1.2613    8.2247 H   0  0  0  0  0  0  0  0  0  0  0  0
   -8.7608   -0.7797    5.2896 H   0  0  0  0  0  0  0  0  0  0  0  0
   -7.6521   -2.1668    5.0301 H   0  0  0  0  0  0  0  0  0  0  0  0
   -8.4553   -2.0368    0.7970 H   0  0  0  0  0  0  0  0  0  0  0  0
   -6.7419   -2.5014    0.5296 H   0  0  0  0  0  0  0  0  0  0  0  0
   -6.1373   -0.0522    0.7303 H   0  0  0  0  0  0  0  0  0  0  0  0
   -7.9017    0.3110    0.7509 H   0  0  0  0  0  0  0  0  0  0  0  0
   -6.5872   -1.3281   -1.4647 H   0  0  0  0  0  0  0  0  0  0  0  0
   -6.7268    0.4561   -1.5429 H   0  0  0  0  0  0  0  0  0  0  0  0
   -9.1705    0.3200   -1.3147 H   0  0  0  0  0  0  0  0  0  0  0  0
   -9.0781   -1.4588   -1.0683 H   0  0  0  0  0  0  0  0  0  0  0  0
   -7.7755   -1.3707   -3.3921 H   0  0  0  0  0  0  0  0  0  0  0  0
   -8.7029    0.1783   -3.5658 H   0  0  0  0  0  0  0  0  0  0  0  0
  -10.6623   -1.5108   -2.7047 H   0  0  0  0  0  0  0  0  0  0  0  0
   -9.6177   -2.6312   -3.6728 H   0  0  0  0  0  0  0  0  0  0  0  0
  -11.0895   -1.8218   -5.2826 H   0  0  0  0  0  0  0  0  0  0  0  0
   -9.6903   -0.7211   -5.4636 H   0  0  0  0  0  0  0  0  0  0  0  0
  -11.2324    0.4228   -3.3939 H   0  0  0  0  0  0  0  0  0  0  0  0
  -11.1301    0.9849   -5.1040 H   0  0  0  0  0  0  0  0  0  0  0  0
  -13.3263   -0.3379   -3.6789 H   0  0  0  0  0  0  0  0  0  0  0  0
  -13.3324    0.5859   -5.2195 H   0  0  0  0  0  0  0  0  0  0  0  0
  -12.9007   -1.1578   -5.2195 H   0  0  0  0  0  0  0  0  0  0  0  0
 11 10  1  0
 10  9  1  0
 26 27  1  0
 26 25  1  0
 28 27  1  0
  9  8  1  0
 25 24  1  0
 24 23  1  0
  8  7  1  0
 23 22  1  0
  7  6  1  0
 22 21  1  0
  6  5  1  0
 21 20  1  0
 20 18  1  0
  5  4  1  0
  4  3  1  0
 18 19  2  0
 18 17  1  0
  1  2  2  0
  3  2  1  0
 17 16  1  0
  2 12  1  0
 12 13  1  0
 16 13  1  0
 13 14  1  0
 14 15  1  0
  3 29  1  0
  3 30  1  0
  4 31  1  0
  4 32  1  0
  5 33  1  0
  5 34  1  0
  6 35  1  0
  6 36  1  0
  7 37  1  0
  7 38  1  0
  8 39  1  0
  8 40  1  0
  9 41  1  0
  9 42  1  0
 10 43  1  0
 10 44  1  0
 11 45  1  0
 11 46  1  0
 11 47  1  0
 13 48  1  0
 14 49  1  0
 14 50  1  0
 15 51  1  0
 16 52  1  0
 16 53  1  0
 20 54  1  0
 20 55  1  0
 21 56  1  0
 21 57  1  0
 22 58  1  0
 22 59  1  0
 23 60  1  0
 23 61  1  0
 24 62  1  0
 24 63  1  0
 25 64  1  0
 25 65  1  0
 26 66  1  0
 26 67  1  0
 27 68  1  0
 27 69  1  0
 28 70  1  0
 28 71  1  0
 28 72  1  0
A    1
O21
A    2
C21
A    3
C22
A    4
C23
A    5
C24
A    6
C25
A    7
C26
A    8
C27
A    9
C28
A   10
C29
A   11
C30
A   12
O52
A   13
C52
A   14
C53
A   15
O53
A   16
C51
A   17
O51
A   18
C1
A   19
O1
A   20
C2
A   21
C3
A   22
C4
A   23
C5
A   24
C6
A   25
C7
A   26
C8
A   27
C9
A   28
C10
M  END
