2ZA0_MGI_A_300
     RDKit          3D

 38 39  0  0  0  0  0  0  0  0999 V2000
   47.1770   28.2680   58.5000 O   0  0  0  0  0  0  0  0  0  0  0  0
   46.8420   29.4440   58.5450 C   0  0  0  0  0  0  0  0  0  0  0  0
   47.8880   30.4530   58.5820 O   0  0  0  0  0  0  0  0  0  0  0  0
   49.2840   30.1420   58.7540 C   0  0  0  0  0  0  0  0  0  0  0  0
   45.3720   29.8120   58.5920 C   0  0  0  0  0  0  0  0  0  0  0  0
   44.4190   28.7610   58.7010 C   0  0  0  0  0  0  0  0  0  0  0  0
   44.8100   27.4610   58.7590 O   0  0  0  0  0  0  0  0  0  0  0  0
   43.0680   29.0460   58.7550 C   0  0  0  0  0  0  0  0  0  0  0  0
   44.8870   31.1850   58.5320 C   0  0  0  0  0  0  0  0  0  0  0  0
   45.7660   32.4140   58.4040 C   0  0  0  0  0  0  0  0  0  0  0  0
   43.5170   31.4340   58.5920 C   0  0  0  0  0  0  0  0  0  0  0  0
   42.5980   30.3930   58.7040 C   0  0  0  0  0  0  0  0  0  0  0  0
   41.2820   30.7380   58.7630 O   0  0  0  0  0  0  0  0  0  0  0  0
   40.2470   29.8870   59.1270 C   0  0  0  0  0  0  0  0  0  0  0  0
   40.2080   29.2260   60.4030 C   0  0  0  0  0  0  0  0  0  0  0  0
   39.2200   29.6720   58.1950 C   0  0  0  0  0  0  0  0  0  0  0  0
   39.2590   30.3000   57.0020 O   0  0  0  0  0  0  0  0  0  0  0  0
   38.1580   28.8120   58.4930 C   0  0  0  0  0  0  0  0  0  0  0  0
   37.1560   28.5990   57.5650 O   0  0  0  0  0  0  0  0  0  0  0  0
   38.1150   28.1500   59.7600 C   0  0  0  0  0  0  0  0  0  0  0  0
   39.1340   28.3590   60.7080 C   0  0  0  0  0  0  0  0  0  0  0  0
   39.0680   27.6600   62.0280 C   0  0  0  0  0  0  0  0  0  0  0  0
   49.5185   30.0898   59.8275 H   0  0  0  0  0  0  0  0  0  0  0  0
   49.5045   29.1727   58.2829 H   0  0  0  0  0  0  0  0  0  0  0  0
   49.8951   30.9260   58.2829 H   0  0  0  0  0  0  0  0  0  0  0  0
   44.9419   27.0225   59.6367 H   0  0  0  0  0  0  0  0  0  0  0  0
   42.3436   28.2224   58.8386 H   0  0  0  0  0  0  0  0  0  0  0  0
   46.0295   32.7824   59.4064 H   0  0  0  0  0  0  0  0  0  0  0  0
   46.6836   32.1531   57.8564 H   0  0  0  0  0  0  0  0  0  0  0  0
   45.2226   33.1981   57.8564 H   0  0  0  0  0  0  0  0  0  0  0  0
   43.1546   32.4718   58.5501 H   0  0  0  0  0  0  0  0  0  0  0  0
   41.0092   29.3939   61.1377 H   0  0  0  0  0  0  0  0  0  0  0  0
   39.3203   31.2874   56.9641 H   0  0  0  0  0  0  0  0  0  0  0  0
   36.2341   28.4030   57.8681 H   0  0  0  0  0  0  0  0  0  0  0  0
   37.2803   27.4732   59.9950 H   0  0  0  0  0  0  0  0  0  0  0  0
   39.1379   28.4001   62.8387 H   0  0  0  0  0  0  0  0  0  0  0  0
   38.1146   27.1172   62.1082 H   0  0  0  0  0  0  0  0  0  0  0  0
   39.9029   26.9484   62.1082 H   0  0  0  0  0  0  0  0  0  0  0  0
  1  2  2  0
  2  3  1  0
  2  5  1  0
  3  4  1  0
  5  9  2  0
  5  6  1  0
  6  8  2  0
  6  7  1  0
  8 12  1  0
  9 10  1  0
  9 11  1  0
 11 12  2  0
 12 13  1  0
 13 14  1  0
 14 15  2  0
 14 16  1  0
 15 21  1  0
 16 18  2  0
 16 17  1  0
 18 20  1  0
 18 19  1  0
 20 21  2  0
 21 22  1  0
  4 23  1  0
  4 24  1  0
  4 25  1  0
  7 26  1  0
  8 27  1  0
 10 28  1  0
 10 29  1  0
 10 30  1  0
 11 31  1  0
 15 32  1  0
 17 33  1  0
 19 34  1  0
 20 35  1  0
 22 36  1  0
 22 37  1  0
 22 38  1  0
A    1
O2
A    2
C1
A    3
O1
A    4
C9
A    5
C2
A    6
C7
A    7
O3
A    8
C6
A    9
C3
A   10
C8
A   11
C4
A   12
C5
A   13
O4
A   14
C10
A   15
C15
A   16
C11
A   17
O5
A   18
C12
A   19
O6
A   20
C13
A   21
C14
A   22
C16
M  END
