2ZA5_2FF_A_4
     RDKit          3D

 55 59  0  0  0  0  0  0  0  0999 V2000
   22.2370   77.6270   83.0030 C   0  0  0  0  0  0  0  0  0  0  0  0
   22.7300   78.2010   84.1830 C   0  0  0  0  0  0  0  0  0  0  0  0
   21.8060   78.7030   85.2150 C   0  0  0  0  0  0  0  0  0  0  0  0
   20.4280   78.6140   85.0280 C   0  0  0  0  0  0  0  0  0  0  0  0
   19.9180   78.0380   83.8350 C   0  0  0  0  0  0  0  0  0  0  0  0
   20.8250   77.5280   82.8200 C   0  0  0  0  0  0  0  0  0  0  0  0
   22.5840   79.2510   86.3210 O   0  0  0  0  0  0  0  0  0  0  0  0
   23.9340   79.4370   85.8820 C   0  0  0  0  0  0  0  0  0  0  0  0
   24.1170   78.4980   84.7080 C   0  0  0  0  0  0  0  0  0  0  0  0
   24.6090   77.0690   85.0950 C   0  0  0  0  0  0  0  0  0  0  0  0
   26.1060   77.1010   85.4520 C   0  0  0  0  0  0  0  0  0  0  0  0
   26.8230   77.9270   84.4930 N   0  0  0  0  0  0  0  0  0  0  0  0
   26.3670   79.2790   84.1490 C   0  0  0  0  0  0  0  0  0  0  0  0
   24.9610   79.1300   83.5750 C   0  0  0  0  0  0  0  0  0  0  0  0
   27.7220   77.3350   83.5290 C   0  0  0  0  0  0  0  0  0  0  0  0
   28.2330   75.9210   83.6330 C   0  0  0  0  0  0  0  0  0  0  0  0
   28.4020   75.1860   82.4590 O   0  0  0  0  0  0  0  0  0  0  0  0
   28.9400   73.9340   82.8240 C   0  0  0  0  0  0  0  0  0  0  0  0
   29.1030   73.8900   84.2250 C   0  0  0  0  0  0  0  0  0  0  0  0
   28.6720   75.1530   84.7430 C   0  0  0  0  0  0  0  0  0  0  0  0
   29.2030   72.8610   81.7930 C   0  0  0  0  0  0  0  0  0  0  0  0
   29.4180   72.1130   80.9190 C   0  0  0  0  0  0  0  0  0  0  0  0
   29.7370   71.0530   79.8830 C   0  0  0  0  0  0  0  0  0  0  0  0
   29.8850   71.4350   78.5380 C   0  0  0  0  0  0  0  0  0  0  0  0
   30.1610   70.4660   77.5540 C   0  0  0  0  0  0  0  0  0  0  0  0
   30.2710   69.1080   77.9470 C   0  0  0  0  0  0  0  0  0  0  0  0
   30.1010   68.7190   79.2980 C   0  0  0  0  0  0  0  0  0  0  0  0
   29.8250   69.6910   80.2790 C   0  0  0  0  0  0  0  0  0  0  0  0
   28.0710   77.9710   82.5980 O   0  0  0  0  0  0  0  0  0  0  0  0
   20.2450   76.9110   81.5320 C   0  0  0  0  0  0  0  0  0  0  0  0
   20.4350   77.9100   80.4930 N   0  0  0  0  0  0  0  0  0  0  0  0
   22.9276   77.2586   82.2301 H   0  0  0  0  0  0  0  0  0  0  0  0
   19.7395   78.9878   85.8002 H   0  0  0  0  0  0  0  0  0  0  0  0
   18.8310   77.9773   83.6779 H   0  0  0  0  0  0  0  0  0  0  0  0
   24.0950   80.4789   85.5683 H   0  0  0  0  0  0  0  0  0  0  0  0
   24.6547   79.2266   86.6860 H   0  0  0  0  0  0  0  0  0  0  0  0
   24.4525   76.3883   84.2452 H   0  0  0  0  0  0  0  0  0  0  0  0
   24.0392   76.7172   85.9677 H   0  0  0  0  0  0  0  0  0  0  0  0
   26.2320   77.5200   86.4612 H   0  0  0  0  0  0  0  0  0  0  0  0
   26.5086   76.0777   85.4230 H   0  0  0  0  0  0  0  0  0  0  0  0
   26.3452   79.9127   85.0479 H   0  0  0  0  0  0  0  0  0  0  0  0
   27.0440   79.7543   83.4239 H   0  0  0  0  0  0  0  0  0  0  0  0
   24.9735   78.4732   82.6927 H   0  0  0  0  0  0  0  0  0  0  0  0
   24.5486   80.0963   83.2492 H   0  0  0  0  0  0  0  0  0  0  0  0
   29.4895   73.0426   84.8103 H   0  0  0  0  0  0  0  0  0  0  0  0
   28.6796   75.4674   85.7971 H   0  0  0  0  0  0  0  0  0  0  0  0
   29.7850   72.4929   78.2537 H   0  0  0  0  0  0  0  0  0  0  0  0
   30.2888   70.7570   76.5009 H   0  0  0  0  0  0  0  0  0  0  0  0
   30.4924   68.3427   77.1886 H   0  0  0  0  0  0  0  0  0  0  0  0
   30.1844   67.6592   79.5807 H   0  0  0  0  0  0  0  0  0  0  0  0
   29.6805   69.4018   81.3304 H   0  0  0  0  0  0  0  0  0  0  0  0
   20.7811   75.9853   81.2758 H   0  0  0  0  0  0  0  0  0  0  0  0
   19.1835   76.6485   81.6516 H   0  0  0  0  0  0  0  0  0  0  0  0
   20.6095   78.8277   80.9269 H   0  0  0  0  0  0  0  0  0  0  0  0
   21.2412   77.6479   79.9080 H   0  0  0  0  0  0  0  0  0  0  0  0
  7  8  1  0
  7  3  1  0
 20 19  1  0
 20 16  2  0
  8  9  1  0
 11 10  1  0
 11 12  1  0
 19 18  2  0
 10  9  1  0
 12 13  1  0
 12 15  1  0
  9  2  1  0
  9 14  1  0
  3  4  2  0
  3  2  1  0
 16 15  1  0
 16 17  1  0
 13 14  1  0
 15 29  2  0
  4  5  1  0
 18 17  1  0
 18 21  1  0
  2  1  2  0
 21 22  3  0
  5  6  2  0
  1  6  1  0
 22 23  1  0
  6 30  1  0
 28 23  1  0
 28 27  2  0
 23 24  2  0
 27 26  1  0
 30 31  1  0
 24 25  1  0
 26 25  2  0
  1 32  1  0
  4 33  1  0
  5 34  1  0
  8 35  1  0
  8 36  1  0
 10 37  1  0
 10 38  1  0
 11 39  1  0
 11 40  1  0
 13 41  1  0
 13 42  1  0
 14 43  1  0
 14 44  1  0
 19 45  1  0
 20 46  1  0
 24 47  1  0
 25 48  1  0
 26 49  1  0
 27 50  1  0
 28 51  1  0
 30 52  1  0
 30 53  1  0
 31 54  1  0
 31 55  1  0
A    1
C1
A    2
C2
A    3
C3
A    4
C4
A    5
C5
A    6
C6
A    7
O13
A    8
C8
A    9
C7
A   10
C10
A   11
C11
A   12
N22
A   13
C13
A   14
C14
A   15
C15
A   16
C32
A   17
O35
A   18
C18
A   19
C19
A   20
C20
A   21
C21
A   22
C22
A   23
C46
A   24
C24
A   25
C25
A   26
C26
A   27
C27
A   28
C28
A   29
O61
A   30
C30
A   31
N64
M  END
