2ZAS_1OH_A_460
     RDKit          3D

 32 33  0  0  0  0  0  0  0  0999 V2000
   16.5670   23.4480   42.3290 O   0  0  0  0  0  0  0  0  0  0  0  0
   16.2750   24.7520   42.0490 C   0  0  0  0  0  0  0  0  0  0  0  0
   15.1420   25.3580   42.5920 C   0  0  0  0  0  0  0  0  0  0  0  0
   14.8560   26.6920   42.2850 C   0  0  0  0  0  0  0  0  0  0  0  0
   17.1220   25.4780   41.2100 C   0  0  0  0  0  0  0  0  0  0  0  0
   16.8410   26.8040   40.9150 C   0  0  0  0  0  0  0  0  0  0  0  0
   15.7020   27.4270   41.4470 C   0  0  0  0  0  0  0  0  0  0  0  0
   15.4160   28.8740   41.1150 C   0  0  0  0  0  0  0  0  0  0  0  0
   16.4640   29.7570   41.7830 C   0  0  0  0  0  0  0  0  0  0  0  0
   14.0620   29.3260   41.6500 C   0  0  0  0  0  0  0  0  0  0  0  0
   15.4480   29.0210   39.6100 C   0  0  0  0  0  0  0  0  0  0  0  0
   16.6270   29.3760   38.9420 C   0  0  0  0  0  0  0  0  0  0  0  0
   16.6470   29.4930   37.5520 C   0  0  0  0  0  0  0  0  0  0  0  0
   15.4890   29.2540   36.8190 C   0  0  0  0  0  0  0  0  0  0  0  0
   14.3140   28.8950   37.4770 C   0  0  0  0  0  0  0  0  0  0  0  0
   14.2960   28.7700   38.8640 C   0  0  0  0  0  0  0  0  0  0  0  0
   16.6344   23.1468   43.2697 H   0  0  0  0  0  0  0  0  0  0  0  0
   14.4768   24.7894   43.2584 H   0  0  0  0  0  0  0  0  0  0  0  0
   13.9580   27.1678   42.7060 H   0  0  0  0  0  0  0  0  0  0  0  0
   18.0142   24.9976   40.7819 H   0  0  0  0  0  0  0  0  0  0  0  0
   17.5168   27.3718   40.2585 H   0  0  0  0  0  0  0  0  0  0  0  0
   16.3685   29.6766   42.8759 H   0  0  0  0  0  0  0  0  0  0  0  0
   17.4685   29.4289   41.4775 H   0  0  0  0  0  0  0  0  0  0  0  0
   16.3111   30.8026   41.4775 H   0  0  0  0  0  0  0  0  0  0  0  0
   14.0816   29.3195   42.7498 H   0  0  0  0  0  0  0  0  0  0  0  0
   13.8481   30.3443   41.2931 H   0  0  0  0  0  0  0  0  0  0  0  0
   13.2793   28.6404   41.2931 H   0  0  0  0  0  0  0  0  0  0  0  0
   17.5448   29.5641   39.5184 H   0  0  0  0  0  0  0  0  0  0  0  0
   17.5771   29.7738   37.0363 H   0  0  0  0  0  0  0  0  0  0  0  0
   15.5007   29.3481   35.7231 H   0  0  0  0  0  0  0  0  0  0  0  0
   13.3970   28.7096   36.8984 H   0  0  0  0  0  0  0  0  0  0  0  0
   13.3683   28.4717   39.3742 H   0  0  0  0  0  0  0  0  0  0  0  0
 14 15  2  0
 14 13  1  0
 15 16  1  0
 13 12  2  0
 16 11  2  0
 12 11  1  0
 11  8  1  0
  6  5  1  0
  6  7  2  0
  8  7  1  0
  8 10  1  0
  8  9  1  0
  5  2  2  0
  7  4  1  0
  2  1  1  0
  2  3  1  0
  4  3  2  0
  1 17  1  0
  3 18  1  0
  4 19  1  0
  5 20  1  0
  6 21  1  0
  9 22  1  0
  9 23  1  0
  9 24  1  0
 10 25  1  0
 10 26  1  0
 10 27  1  0
 12 28  1  0
 13 29  1  0
 14 30  1  0
 15 31  1  0
 16 32  1  0
A    1
O2
A    2
C13
A    3
C14
A    4
C15
A    5
C12
A    6
C11
A    7
C4
A    8
C2
A    9
C5
A   10
C3
A   11
C1
A   12
C6
A   13
C7
A   14
C8
A   15
C9
A   16
C10
M  END
