2ZB0_GK3_A_361
     RDKit          3D

 48 51  0  0  0  0  0  0  0  0999 V2000
   48.8280   37.7680   26.1990 N   0  0  0  0  0  0  0  0  0  0  0  0
   48.8270   36.5420   26.7180 C   0  0  0  0  0  0  0  0  0  0  0  0
   48.8050   35.1770   27.3020 C   0  0  0  0  0  0  0  0  0  0  0  0
   49.9450   34.3550   27.2360 C   0  0  0  0  0  0  0  0  0  0  0  0
   49.9010   33.0740   27.7910 C   0  0  0  0  0  0  0  0  0  0  0  0
   48.7190   32.6180   28.4020 C   0  0  0  0  0  0  0  0  0  0  0  0
   47.6260   34.7170   27.9190 C   0  0  0  0  0  0  0  0  0  0  0  0
   47.5690   33.4340   28.4860 C   0  0  0  0  0  0  0  0  0  0  0  0
   46.4430   32.9380   29.0880 N   0  0  0  0  0  0  0  0  0  0  0  0
   45.5340   33.6050   29.8330 C   0  0  0  0  0  0  0  0  0  0  0  0
   45.5840   34.9200   30.0670 O   0  0  0  0  0  0  0  0  0  0  0  0
   44.3250   32.8600   30.3680 C   0  0  0  0  0  0  0  0  0  0  0  0
   44.0670   31.5650   29.9120 C   0  0  0  0  0  0  0  0  0  0  0  0
   43.4430   33.4670   31.2770 C   0  0  0  0  0  0  0  0  0  0  0  0
   42.3180   32.7820   31.7420 C   0  0  0  0  0  0  0  0  0  0  0  0
   42.0780   31.4700   31.2990 C   0  0  0  0  0  0  0  0  0  0  0  0
   42.9480   30.8750   30.3710 C   0  0  0  0  0  0  0  0  0  0  0  0
   40.9290   30.7640   31.6750 C   0  0  0  0  0  0  0  0  0  0  0  0
   40.9170   29.8050   32.6880 C   0  0  0  0  0  0  0  0  0  0  0  0
   39.7100   29.1600   32.9570 C   0  0  0  0  0  0  0  0  0  0  0  0
   39.5280   28.1850   34.0660 C   0  0  0  0  0  0  0  0  0  0  0  0
   38.7310   27.2210   34.1440 O   0  0  0  0  0  0  0  0  0  0  0  0
   38.9620   26.7500   35.2680 C   0  0  0  0  0  0  0  0  0  0  0  0
   38.2060   25.5580   35.7720 C   0  0  0  0  0  0  0  0  0  0  0  0
   39.9080   27.3760   35.9760 N   0  0  0  0  0  0  0  0  0  0  0  0
   40.2930   28.3390   35.1660 N   0  0  0  0  0  0  0  0  0  0  0  0
   38.5450   29.4450   32.2370 C   0  0  0  0  0  0  0  0  0  0  0  0
   38.5510   30.3790   31.2280 C   0  0  0  0  0  0  0  0  0  0  0  0
   39.7410   31.0350   30.9400 C   0  0  0  0  0  0  0  0  0  0  0  0
   39.6660   32.0470   29.8220 C   0  0  0  0  0  0  0  0  0  0  0  0
   50.8633   34.7182   26.7513 H   0  0  0  0  0  0  0  0  0  0  0  0
   50.7876   32.4241   27.7504 H   0  0  0  0  0  0  0  0  0  0  0  0
   48.6894   31.6026   28.8241 H   0  0  0  0  0  0  0  0  0  0  0  0
   46.7410   35.3692   27.9571 H   0  0  0  0  0  0  0  0  0  0  0  0
   46.2673   31.9316   28.9565 H   0  0  0  0  0  0  0  0  0  0  0  0
   44.7479   31.0903   29.1902 H   0  0  0  0  0  0  0  0  0  0  0  0
   43.6400   34.4914   31.6260 H   0  0  0  0  0  0  0  0  0  0  0  0
   41.6265   33.2648   32.4482 H   0  0  0  0  0  0  0  0  0  0  0  0
   42.7443   29.8580   30.0046 H   0  0  0  0  0  0  0  0  0  0  0  0
   41.8285   29.5656   33.2553 H   0  0  0  0  0  0  0  0  0  0  0  0
   38.2078   25.5609   36.8720 H   0  0  0  0  0  0  0  0  0  0  0  0
   37.1692   25.6002   35.4070 H   0  0  0  0  0  0  0  0  0  0  0  0
   38.6861   24.6381   35.4070 H   0  0  0  0  0  0  0  0  0  0  0  0
   37.6124   28.9152   32.4811 H   0  0  0  0  0  0  0  0  0  0  0  0
   37.6345   30.6016   30.6619 H   0  0  0  0  0  0  0  0  0  0  0  0
   39.5910   33.0586   30.2475 H   0  0  0  0  0  0  0  0  0  0  0  0
   40.5719   31.9762   29.2020 H   0  0  0  0  0  0  0  0  0  0  0  0
   38.7805   31.8435   29.2020 H   0  0  0  0  0  0  0  0  0  0  0  0
  1  2  3  0
  2  3  1  0
  4  3  2  0
  4  5  1  0
  3  7  1  0
  5  6  2  0
  7  8  2  0
  6  8  1  0
  8  9  1  0
  9 10  1  0
 30 29  1  0
 10 11  2  0
 10 12  1  0
 13 12  2  0
 13 17  1  0
 12 14  1  0
 17 16  2  0
 29 28  2  0
 29 18  1  0
 28 27  1  0
 14 15  2  0
 16 18  1  0
 16 15  1  0
 18 19  2  0
 27 20  2  0
 19 20  1  0
 20 21  1  0
 21 22  1  0
 21 26  2  0
 22 23  1  0
 26 25  1  0
 23 24  1  0
 23 25  2  0
  4 31  1  0
  5 32  1  0
  6 33  1  0
  7 34  1  0
  9 35  1  0
 13 36  1  0
 14 37  1  0
 15 38  1  0
 17 39  1  0
 19 40  1  0
 24 41  1  0
 24 42  1  0
 24 43  1  0
 27 44  1  0
 28 45  1  0
 30 46  1  0
 30 47  1  0
 30 48  1  0
A    1
N5
A    2
C5
A    3
C18
A    4
C2
A    5
C29
A    6
C19
A    7
C22
A    8
C15
A    9
N3
A   10
C3
A   11
O1
A   12
C25
A   13
C9
A   14
C10
A   15
C16
A   16
C13
A   17
C27
A   18
C28
A   19
C14
A   20
C17
A   21
C12
A   22
O2
A   23
C7
A   24
C21
A   25
N4
A   26
N7
A   27
C20
A   28
C26
A   29
C23
A   30
C1
M  END
