2ZB1_GK4_A_361
     RDKit          3D

 47 50  0  0  0  0  0  0  0  0999 V2000
   45.7200   34.8960   32.5820 O   0  0  0  0  0  0  0  0  0  0  0  0
   45.7430   33.7180   32.1950 C   0  0  0  0  0  0  0  0  0  0  0  0
   46.9130   33.0920   31.9880 N   0  0  0  0  0  0  0  0  0  0  0  0
   48.1540   33.8290   32.1750 C   0  0  0  0  0  0  0  0  0  0  0  0
   49.2800   33.1550   31.4260 C   0  0  0  0  0  0  0  0  0  0  0  0
   49.2780   33.6720   29.9930 C   0  0  0  0  0  0  0  0  0  0  0  0
   50.2910   34.2050   31.0040 C   0  0  0  0  0  0  0  0  0  0  0  0
   44.4420   32.9440   32.0480 C   0  0  0  0  0  0  0  0  0  0  0  0
   44.4170   31.5670   31.7720 C   0  0  0  0  0  0  0  0  0  0  0  0
   43.2070   30.8760   31.6830 C   0  0  0  0  0  0  0  0  0  0  0  0
   43.2340   33.6040   32.2620 C   0  0  0  0  0  0  0  0  0  0  0  0
   42.0360   32.9150   32.1840 C   0  0  0  0  0  0  0  0  0  0  0  0
   42.0000   31.5660   31.8690 C   0  0  0  0  0  0  0  0  0  0  0  0
   40.7560   30.9350   31.8330 C   0  0  0  0  0  0  0  0  0  0  0  0
   39.7590   31.1380   30.8780 C   0  0  0  0  0  0  0  0  0  0  0  0
   39.9510   32.0670   29.7180 C   0  0  0  0  0  0  0  0  0  0  0  0
   38.5430   30.4580   30.9870 C   0  0  0  0  0  0  0  0  0  0  0  0
   38.3010   29.5920   32.0460 C   0  0  0  0  0  0  0  0  0  0  0  0
   40.4930   30.0690   32.8940 C   0  0  0  0  0  0  0  0  0  0  0  0
   39.2910   29.3860   33.0070 C   0  0  0  0  0  0  0  0  0  0  0  0
   39.1150   28.5320   34.1010 C   0  0  0  0  0  0  0  0  0  0  0  0
   40.0380   28.3150   35.0720 N   0  0  0  0  0  0  0  0  0  0  0  0
   39.4920   27.4050   35.9820 N   0  0  0  0  0  0  0  0  0  0  0  0
   38.0990   27.8400   34.3740 O   0  0  0  0  0  0  0  0  0  0  0  0
   38.2920   27.1830   35.4370 C   0  0  0  0  0  0  0  0  0  0  0  0
   37.1470   26.3110   35.8800 C   0  0  0  0  0  0  0  0  0  0  0  0
   46.9318   32.1031   31.7006 H   0  0  0  0  0  0  0  0  0  0  0  0
   48.3991   33.8616   33.2469 H   0  0  0  0  0  0  0  0  0  0  0  0
   48.0263   34.8505   31.7873 H   0  0  0  0  0  0  0  0  0  0  0  0
   49.3336   32.1682   31.9090 H   0  0  0  0  0  0  0  0  0  0  0  0
   48.4593   34.3169   29.6411 H   0  0  0  0  0  0  0  0  0  0  0  0
   49.3399   33.2093   28.9970 H   0  0  0  0  0  0  0  0  0  0  0  0
   51.3541   33.9384   30.9101 H   0  0  0  0  0  0  0  0  0  0  0  0
   50.5735   35.2034   31.3691 H   0  0  0  0  0  0  0  0  0  0  0  0
   45.3632   31.0259   31.6240 H   0  0  0  0  0  0  0  0  0  0  0  0
   43.2003   29.7972   31.4683 H   0  0  0  0  0  0  0  0  0  0  0  0
   43.2322   34.6792   32.4944 H   0  0  0  0  0  0  0  0  0  0  0  0
   41.0937   33.4490   32.3759 H   0  0  0  0  0  0  0  0  0  0  0  0
   40.1605   33.0805   30.0907 H   0  0  0  0  0  0  0  0  0  0  0  0
   40.7963   31.7194   29.1059 H   0  0  0  0  0  0  0  0  0  0  0  0
   39.0372   32.0830   29.1059 H   0  0  0  0  0  0  0  0  0  0  0  0
   37.7662   30.6107   30.2232 H   0  0  0  0  0  0  0  0  0  0  0  0
   37.3350   29.0721   32.1262 H   0  0  0  0  0  0  0  0  0  0  0  0
   41.2631   29.9229   33.6657 H   0  0  0  0  0  0  0  0  0  0  0  0
   37.1109   26.2835   36.9791 H   0  0  0  0  0  0  0  0  0  0  0  0
   36.2027   26.7208   35.4923 H   0  0  0  0  0  0  0  0  0  0  0  0
   37.2910   25.2917   35.4923 H   0  0  0  0  0  0  0  0  0  0  0  0
 16 15  1  0
  6  7  1  0
  6  5  1  0
 15 17  2  0
 15 14  1  0
 17 18  1  0
  7  5  1  0
  5  4  1  0
 10  9  2  0
 10 13  1  0
  9  8  1  0
 14 13  1  0
 14 19  2  0
 13 12  2  0
  3  4  1  0
  3  2  1  0
 18 20  2  0
  8  2  1  0
  8 11  2  0
 12 11  1  0
  2  1  2  0
 19 20  1  0
 20 21  1  0
 21 24  1  0
 21 22  2  0
 24 25  1  0
 22 23  1  0
 25 26  1  0
 25 23  2  0
  3 27  1  0
  4 28  1  0
  4 29  1  0
  5 30  1  0
  6 31  1  0
  6 32  1  0
  7 33  1  0
  7 34  1  0
  9 35  1  0
 10 36  1  0
 11 37  1  0
 12 38  1  0
 16 39  1  0
 16 40  1  0
 16 41  1  0
 17 42  1  0
 18 43  1  0
 19 44  1  0
 26 45  1  0
 26 46  1  0
 26 47  1  0
A    1
O2
A    2
C17
A    3
N3
A    4
C18
A    5
C19
A    6
C21
A    7
C20
A    8
C14
A    9
C13
A   10
C12
A   11
C15
A   12
C16
A   13
C11
A   14
C9
A   15
C7
A   16
C8
A   17
C6
A   18
C5
A   19
C10
A   20
C4
A   21
C3
A   22
N2
A   23
N1
A   24
O1
A   25
C2
A   26
C1
M  END
