2ZCR_B69_A_668
     RDKit          3D

 55 56  0  0  0  0  0  0  0  0999 V2000
    9.6030   61.6780   37.6620 C   0  0  0  0  0  0  0  0  0  0  0  0
   10.0000   60.3370   38.2800 C   0  0  0  0  0  0  0  0  0  0  0  0
   11.4430   59.9530   37.9370 C   0  0  0  0  0  0  0  0  0  0  0  0
   11.7280   58.5850   38.5610 C   0  0  0  0  0  0  0  0  0  0  0  0
   13.0590   57.9340   38.1750 C   0  0  0  0  0  0  0  0  0  0  0  0
   13.1960   57.2880   36.9500 C   0  0  0  0  0  0  0  0  0  0  0  0
   14.2900   56.4650   36.7060 C   0  0  0  0  0  0  0  0  0  0  0  0
   14.0400   57.7730   39.1450 C   0  0  0  0  0  0  0  0  0  0  0  0
   15.1350   56.9520   38.9010 C   0  0  0  0  0  0  0  0  0  0  0  0
   15.2640   56.2920   37.6840 C   0  0  0  0  0  0  0  0  0  0  0  0
   16.4110   55.5450   37.4380 C   0  0  0  0  0  0  0  0  0  0  0  0
   17.0740   54.9240   38.4920 C   0  0  0  0  0  0  0  0  0  0  0  0
   18.2950   54.2940   38.2670 C   0  0  0  0  0  0  0  0  0  0  0  0
   16.9620   55.5140   36.1630 C   0  0  0  0  0  0  0  0  0  0  0  0
   18.1830   54.8860   35.9390 C   0  0  0  0  0  0  0  0  0  0  0  0
   18.8540   54.2790   36.9950 C   0  0  0  0  0  0  0  0  0  0  0  0
   20.2220   53.6230   36.7780 C   0  0  0  0  0  0  0  0  0  0  0  0
   20.1110   52.0980   36.7290 C   0  0  0  0  0  0  0  0  0  0  0  0
   21.4080   51.4360   37.1990 C   0  0  0  0  0  0  0  0  0  0  0  0
   22.5900   51.7140   36.2700 C   0  0  0  0  0  0  0  0  0  0  0  0
   22.6190   50.5110   34.8790 P   0  0  0  0  0  0  0  0  0  0  0  0
   23.9080   50.8500   33.9740 O   0  0  0  0  0  0  0  0  0  0  0  0
   22.8820   49.0690   35.5430 O   0  0  0  0  0  0  0  0  0  0  0  0
   21.3680   50.5640   34.0890 O   0  0  0  0  0  0  0  0  0  0  0  0
   24.1430   51.6000   37.2320 S   0  0  0  0  0  0  0  0  0  0  0  0
   25.2460   51.9260   36.3830 O   0  0  0  0  0  0  0  0  0  0  0  0
   24.3020   50.2040   37.7550 O   0  0  0  0  0  0  0  0  0  0  0  0
   24.0800   52.5610   38.3840 O   0  0  0  0  0  0  0  0  0  0  0  0
    9.3888   62.4015   38.4624 H   0  0  0  0  0  0  0  0  0  0  0  0
   10.4285   62.0536   37.0395 H   0  0  0  0  0  0  0  0  0  0  0  0
    8.7061   61.5437   37.0395 H   0  0  0  0  0  0  0  0  0  0  0  0
    9.9011   60.4064   39.3733 H   0  0  0  0  0  0  0  0  0  0  0  0
    9.3351   59.5629   37.8692 H   0  0  0  0  0  0  0  0  0  0  0  0
   11.5655   59.8984   36.8452 H   0  0  0  0  0  0  0  0  0  0  0  0
   12.1428   60.7057   38.3291 H   0  0  0  0  0  0  0  0  0  0  0  0
   11.7170   58.7052   39.6544 H   0  0  0  0  0  0  0  0  0  0  0  0
   10.9470   57.9143   38.1733 H   0  0  0  0  0  0  0  0  0  0  0  0
   12.4338   57.4294   36.1696 H   0  0  0  0  0  0  0  0  0  0  0  0
   14.3853   55.9502   35.7386 H   0  0  0  0  0  0  0  0  0  0  0  0
   13.9503   58.2963   40.1084 H   0  0  0  0  0  0  0  0  0  0  0  0
   15.9048   56.8236   39.6762 H   0  0  0  0  0  0  0  0  0  0  0  0
   16.6346   54.9308   39.5004 H   0  0  0  0  0  0  0  0  0  0  0  0
   18.8201   53.8054   39.1009 H   0  0  0  0  0  0  0  0  0  0  0  0
   16.4297   55.9888   35.3257 H   0  0  0  0  0  0  0  0  0  0  0  0
   18.6169   54.8696   34.9283 H   0  0  0  0  0  0  0  0  0  0  0  0
   20.6435   53.9814   35.8273 H   0  0  0  0  0  0  0  0  0  0  0  0
   20.8729   53.8947   37.6221 H   0  0  0  0  0  0  0  0  0  0  0  0
   19.2864   51.7766   37.3822 H   0  0  0  0  0  0  0  0  0  0  0  0
   19.9209   51.7947   35.6889 H   0  0  0  0  0  0  0  0  0  0  0  0
   21.6528   51.8167   38.2016 H   0  0  0  0  0  0  0  0  0  0  0  0
   21.2405   50.3488   37.2028 H   0  0  0  0  0  0  0  0  0  0  0  0
   22.4876   52.7239   35.8462 H   0  0  0  0  0  0  0  0  0  0  0  0
   24.6791   51.0528   34.5608 H   0  0  0  0  0  0  0  0  0  0  0  0
   22.8668   49.1522   36.5294 H   0  0  0  0  0  0  0  0  0  0  0  0
   24.1130   52.0576   39.2358 H   0  0  0  0  0  0  0  0  0  0  0  0
  1  2  1  0
  2  3  1  0
  3  4  1  0
  4  5  1  0
  5  6  2  0
  5  8  1  0
  6  7  1  0
  7 10  2  0
  8  9  2  0
  9 10  1  0
 10 11  1  0
 11 12  2  0
 11 14  1  0
 12 13  1  0
 13 16  2  0
 14 15  2  0
 15 16  1  0
 16 17  1  0
 17 18  1  0
 18 19  1  0
 19 20  1  0
 20 25  1  0
 25 26  2  0
 25 27  2  0
 25 28  1  0
 21 24  2  0
 21 22  1  0
 21 23  1  0
 20 21  1  0
  1 29  1  0
  1 30  1  0
  1 31  1  0
  2 32  1  0
  2 33  1  0
  3 34  1  0
  3 35  1  0
  4 36  1  0
  4 37  1  0
  6 38  1  0
  7 39  1  0
  8 40  1  0
  9 41  1  0
 12 42  1  0
 13 43  1  0
 14 44  1  0
 15 45  1  0
 17 46  1  0
 17 47  1  0
 18 48  1  0
 18 49  1  0
 19 50  1  0
 19 51  1  0
 20 52  1  0
 22 53  1  0
 23 54  1  0
 28 55  1  0
A    1
CAA
A    2
CAP
A    3
CAQ
A    4
CAS
A    5
CAV
A    6
CAI
A    7
CAM
A    8
CAH
A    9
CAL
A   10
CAX
A   11
CAY
A   12
CAO
A   13
CAK
A   14
CAN
A   15
CAJ
A   16
CAW
A   17
CAT
A   18
CAR
A   19
CAU
A   20
CAZ
A   21
PBA
A   22
OAC
A   23
OAD
A   24
OAB
A   25
SBB
A   26
OAG
A   27
OAF
A   28
OAE
M  END
