2ZCS_B70_A_640
     RDKit          3D

 43 44  0  0  0  0  0  0  0  0999 V2000
   57.9210   19.1690   54.4000 C   0  0  0  0  0  0  0  0  0  0  0  0
   58.1900   20.5080   54.6620 C   0  0  0  0  0  0  0  0  0  0  0  0
   57.9480   21.4740   53.6910 C   0  0  0  0  0  0  0  0  0  0  0  0
   57.4420   21.0900   52.4550 C   0  0  0  0  0  0  0  0  0  0  0  0
   57.1740   19.7500   52.1930 C   0  0  0  0  0  0  0  0  0  0  0  0
   57.4050   18.7850   53.1670 C   0  0  0  0  0  0  0  0  0  0  0  0
   57.0680   17.4590   52.9220 C   0  0  0  0  0  0  0  0  0  0  0  0
   56.2100   17.1510   51.8720 C   0  0  0  0  0  0  0  0  0  0  0  0
   55.8650   15.8290   51.6100 C   0  0  0  0  0  0  0  0  0  0  0  0
   57.5740   16.4360   53.7150 C   0  0  0  0  0  0  0  0  0  0  0  0
   57.2300   15.1140   53.4510 C   0  0  0  0  0  0  0  0  0  0  0  0
   56.3770   14.8050   52.3960 C   0  0  0  0  0  0  0  0  0  0  0  0
   56.0300   13.3500   52.0710 C   0  0  0  0  0  0  0  0  0  0  0  0
   57.2910   12.5210   51.8070 C   0  0  0  0  0  0  0  0  0  0  0  0
   56.9530   11.0840   51.4000 C   0  0  0  0  0  0  0  0  0  0  0  0
   56.1980   10.3240   52.4940 C   0  0  0  0  0  0  0  0  0  0  0  0
   57.2180   10.1690   54.0140 P   0  0  0  0  0  0  0  0  0  0  0  0
   57.0280    8.6740   54.5820 O   0  0  0  0  0  0  0  0  0  0  0  0
   58.7460   10.2620   53.5160 O   0  0  0  0  0  0  0  0  0  0  0  0
   56.8650   11.1970   55.0190 O   0  0  0  0  0  0  0  0  0  0  0  0
   55.6570    8.6690   51.9240 S   0  0  0  0  0  0  0  0  0  0  0  0
   54.6280    8.8250   50.9410 O   0  0  0  0  0  0  0  0  0  0  0  0
   55.1130    7.8690   53.0720 O   0  0  0  0  0  0  0  0  0  0  0  0
   56.8190    7.9340   51.3240 O   0  0  0  0  0  0  0  0  0  0  0  0
   58.1173   18.4100   55.1717 H   0  0  0  0  0  0  0  0  0  0  0  0
   58.5956   20.8042   55.6406 H   0  0  0  0  0  0  0  0  0  0  0  0
   58.1556   22.5339   53.8998 H   0  0  0  0  0  0  0  0  0  0  0  0
   57.2526   21.8482   51.6809 H   0  0  0  0  0  0  0  0  0  0  0  0
   56.7776   19.4528   51.2109 H   0  0  0  0  0  0  0  0  0  0  0  0
   55.8017   17.9573   51.2449 H   0  0  0  0  0  0  0  0  0  0  0  0
   55.1848   15.5942   50.7780 H   0  0  0  0  0  0  0  0  0  0  0  0
   58.2472   16.6718   54.5523 H   0  0  0  0  0  0  0  0  0  0  0  0
   57.6350   14.3079   54.0804 H   0  0  0  0  0  0  0  0  0  0  0  0
   55.4859   12.9132   52.9213 H   0  0  0  0  0  0  0  0  0  0  0  0
   55.4098   13.3363   51.1626 H   0  0  0  0  0  0  0  0  0  0  0  0
   57.8652   12.9946   50.9970 H   0  0  0  0  0  0  0  0  0  0  0  0
   57.8763   12.4837   52.7376 H   0  0  0  0  0  0  0  0  0  0  0  0
   56.3281   11.1119   50.4951 H   0  0  0  0  0  0  0  0  0  0  0  0
   57.9016   10.5564   51.2220 H   0  0  0  0  0  0  0  0  0  0  0  0
   55.2984   10.9110   52.7308 H   0  0  0  0  0  0  0  0  0  0  0  0
   57.0306    8.6942   55.5718 H   0  0  0  0  0  0  0  0  0  0  0  0
   59.3474   10.2986   54.3015 H   0  0  0  0  0  0  0  0  0  0  0  0
   55.3948    8.2834   53.9258 H   0  0  0  0  0  0  0  0  0  0  0  0
  1  2  2  0
  1  6  1  0
  2  3  1  0
  3  4  2  0
  4  5  1  0
  5  6  2  0
  6  7  1  0
  7  8  2  0
  7 10  1  0
  8  9  1  0
  9 12  2  0
 10 11  2  0
 11 12  1  0
 12 13  1  0
 13 14  1  0
 14 15  1  0
 15 16  1  0
 16 21  1  0
 21 22  2  0
 21 23  1  0
 21 24  2  0
 16 17  1  0
 17 20  2  0
 17 18  1  0
 17 19  1  0
  1 25  1  0
  2 26  1  0
  3 27  1  0
  4 28  1  0
  5 29  1  0
  8 30  1  0
  9 31  1  0
 10 32  1  0
 11 33  1  0
 13 34  1  0
 13 35  1  0
 14 36  1  0
 14 37  1  0
 15 38  1  0
 15 39  1  0
 16 40  1  0
 18 41  1  0
 19 42  1  0
 23 43  1  0
A    1
CAJ
A    2
CAH
A    3
CAG
A    4
CAI
A    5
CAK
A    6
CAT
A    7
CAU
A    8
CAO
A    9
CAM
A   10
CAN
A   11
CAL
A   12
CAS
A   13
CAQ
A   14
CAP
A   15
CAR
A   16
CAV
A   17
PAW
A   18
OAB
A   19
OAC
A   20
OAA
A   21
SAX
A   22
OAF
A   23
OAE
A   24
OAD
M  END
