2ZDN_49U_A_501
     RDKit          3D

 57 59  0  0  0  0  0  0  0  0999 V2000
  -31.2940   -1.9020   18.7110 C   0  0  0  0  0  0  0  0  0  0  0  0
  -30.6810   -0.5410   18.2600 C   0  0  0  0  0  0  0  0  0  0  0  0
  -29.1640   -0.6340   18.6100 C   0  0  0  0  0  0  0  0  0  0  0  0
  -29.1170   -1.6550   19.7750 C   0  0  0  0  0  0  0  0  0  0  0  0
  -30.2290   -2.6770   19.4830 C   0  0  0  0  0  0  0  0  0  0  0  0
  -28.4740    0.6340   19.1180 C   0  0  0  0  0  0  0  0  0  0  0  0
  -28.5490    1.6470   18.0200 C   0  0  0  0  0  0  0  0  0  0  0  0
  -27.6260    1.3410   16.8970 C   0  0  0  0  0  0  0  0  0  0  0  0
  -26.4130    1.2220   17.0330 O   0  0  0  0  0  0  0  0  0  0  0  0
  -28.1900    1.2020   15.7020 N   0  0  0  0  0  0  0  0  0  0  0  0
  -27.4160    0.7930   14.5370 C   0  0  0  0  0  0  0  0  0  0  0  0
  -26.2180    1.6490   14.2790 C   0  0  0  0  0  0  0  0  0  0  0  0
  -26.2630    2.8550   14.4520 O   0  0  0  0  0  0  0  0  0  0  0  0
  -28.4510    0.9520   13.4430 C   0  0  0  0  0  0  0  0  0  0  0  0
  -29.8480    0.9250   14.0150 C   0  0  0  0  0  0  0  0  0  0  0  0
  -29.6150    1.4530   15.4150 C   0  0  0  0  0  0  0  0  0  0  0  0
  -25.0840    1.1450   13.8960 N   0  0  0  0  0  0  0  0  0  0  0  0
  -23.8870    1.8350   13.5870 C   0  0  0  0  0  0  0  0  0  0  0  0
  -22.8330    1.6870   14.6120 C   0  0  0  0  0  0  0  0  0  0  0  0
  -23.0260    1.9730   15.9290 C   0  0  0  0  0  0  0  0  0  0  0  0
  -21.9870    1.8100   16.8380 C   0  0  0  0  0  0  0  0  0  0  0  0
  -20.7410    1.3600   16.4560 C   0  0  0  0  0  0  0  0  0  0  0  0
  -19.6160    1.1830   17.4360 C   0  0  0  0  0  0  0  0  0  0  0  0
  -19.4740    2.0300   18.4450 N   0  0  0  0  0  0  0  0  0  0  0  0
  -18.7650    0.1810   17.2910 N   0  0  0  0  0  0  0  0  0  0  0  0
  -20.5600    1.0730   15.1090 C   0  0  0  0  0  0  0  0  0  0  0  0
  -21.5910    1.2310   14.1800 C   0  0  0  0  0  0  0  0  0  0  0  0
  -32.1646   -1.7211   19.3586 H   0  0  0  0  0  0  0  0  0  0  0  0
  -31.6202   -2.4793   17.8333 H   0  0  0  0  0  0  0  0  0  0  0  0
  -31.1511    0.2918   18.8036 H   0  0  0  0  0  0  0  0  0  0  0  0
  -30.8429   -0.3545   17.1881 H   0  0  0  0  0  0  0  0  0  0  0  0
  -28.6320   -0.8823   17.6798 H   0  0  0  0  0  0  0  0  0  0  0  0
  -28.1372   -2.1540   19.8075 H   0  0  0  0  0  0  0  0  0  0  0  0
  -29.2638   -1.1647   20.7487 H   0  0  0  0  0  0  0  0  0  0  0  0
  -30.6447   -3.0731   20.4213 H   0  0  0  0  0  0  0  0  0  0  0  0
  -29.8544   -3.5396   18.9124 H   0  0  0  0  0  0  0  0  0  0  0  0
  -27.4231    0.4195   19.3620 H   0  0  0  0  0  0  0  0  0  0  0  0
  -28.9643    1.0078   20.0290 H   0  0  0  0  0  0  0  0  0  0  0  0
  -28.2881    2.6331   18.4319 H   0  0  0  0  0  0  0  0  0  0  0  0
  -29.5744    1.6321   17.6222 H   0  0  0  0  0  0  0  0  0  0  0  0
  -26.9823   -0.2129   14.6373 H   0  0  0  0  0  0  0  0  0  0  0  0
  -28.3414    0.1292   12.7212 H   0  0  0  0  0  0  0  0  0  0  0  0
  -28.2927    1.9213   12.9476 H   0  0  0  0  0  0  0  0  0  0  0  0
  -30.5267    1.5787   13.4474 H   0  0  0  0  0  0  0  0  0  0  0  0
  -30.3247   -0.0659   13.9844 H   0  0  0  0  0  0  0  0  0  0  0  0
  -29.8317    2.5305   15.4599 H   0  0  0  0  0  0  0  0  0  0  0  0
  -30.2705    0.9621   16.1493 H   0  0  0  0  0  0  0  0  0  0  0  0
  -25.0516    0.1194   13.8062 H   0  0  0  0  0  0  0  0  0  0  0  0
  -23.4999    1.4481   12.6328 H   0  0  0  0  0  0  0  0  0  0  0  0
  -24.1373    2.9049   13.5363 H   0  0  0  0  0  0  0  0  0  0  0  0
  -24.0060    2.3338   16.2745 H   0  0  0  0  0  0  0  0  0  0  0  0
  -22.1648    2.0479   17.8971 H   0  0  0  0  0  0  0  0  0  0  0  0
  -18.7022    1.9071   19.1159 H   0  0  0  0  0  0  0  0  0  0  0  0
  -18.3703   -0.2837   18.1212 H   0  0  0  0  0  0  0  0  0  0  0  0
  -18.4969   -0.1346   16.3479 H   0  0  0  0  0  0  0  0  0  0  0  0
  -19.5795    0.7120   14.7651 H   0  0  0  0  0  0  0  0  0  0  0  0
  -21.4231    0.9975   13.1183 H   0  0  0  0  0  0  0  0  0  0  0  0
 14 15  1  0
 14 11  1  0
 18 17  1  0
 18 19  1  0
 17 12  1  0
 15 16  1  0
 27 19  1  0
 27 26  2  0
 12 13  2  0
 12 11  1  0
 11 10  1  0
 19 20  2  0
 26 22  1  0
 16 10  1  0
 10  8  1  0
 20 21  1  0
 22 21  2  0
 22 23  1  0
  8  9  2  0
  8  7  1  0
 25 23  1  0
 23 24  2  3
  7  6  1  0
  2  3  1  0
  2  1  1  0
  3  6  1  0
  3  4  1  0
  1  5  1  0
  5  4  1  0
  1 28  1  0
  1 29  1  0
  2 30  1  0
  2 31  1  0
  3 32  1  0
  4 33  1  0
  4 34  1  0
  5 35  1  0
  5 36  1  0
  6 37  1  0
  6 38  1  0
  7 39  1  0
  7 40  1  0
 11 41  1  0
 14 42  1  0
 14 43  1  0
 15 44  1  0
 15 45  1  0
 16 46  1  0
 16 47  1  0
 17 48  1  0
 18 49  1  0
 18 50  1  0
 20 51  1  0
 21 52  1  0
 24 53  1  0
 25 54  1  0
 25 55  1  0
 26 56  1  0
 27 57  1  0
A    1
C47
A    2
C45
A    3
C44
A    4
C49
A    5
C48
A    6
C21
A    7
C5
A    8
C14
A    9
O32
A   10
N1
A   11
C1
A   12
C7
A   13
O22
A   14
C2
A   15
C3
A   16
C4
A   17
N23
A   18
C24
A   19
C25
A   20
C30
A   21
C29
A   22
C28
A   23
C9
A   24
N46
A   25
N47
A   26
C27
A   27
C26
M  END
