2ZEB_11M_A_244
     RDKit          3D

 53 57  0  0  0  0  0  0  0  0999 V2000
   20.3760  -78.5880  -85.0010 C   0  0  0  0  0  0  0  0  0  0  0  0
   19.8940  -77.9670  -83.7760 C   0  0  0  0  0  0  0  0  0  0  0  0
   20.8460  -77.4710  -82.7650 C   0  0  0  0  0  0  0  0  0  0  0  0
   23.8450  -79.6500  -85.7480 C   0  0  0  0  0  0  0  0  0  0  0  0
   24.7230  -77.1860  -85.1630 C   0  0  0  0  0  0  0  0  0  0  0  0
   26.3720  -79.2710  -83.7170 C   0  0  0  0  0  0  0  0  0  0  0  0
   24.1320  -78.5630  -84.7300 C   0  0  0  0  0  0  0  0  0  0  0  0
   27.7620  -77.2300  -83.3790 C   0  0  0  0  0  0  0  0  0  0  0  0
   29.3970  -73.6450  -84.1750 C   0  0  0  0  0  0  0  0  0  0  0  0
   30.7010  -74.0960  -86.4190 C   0  0  0  0  0  0  0  0  0  0  0  0
   30.4650  -76.5460  -87.3280 C   0  0  0  0  0  0  0  0  0  0  0  0
   22.2850  -77.5940  -82.9670 C   0  0  0  0  0  0  0  0  0  0  0  0
   22.7570  -78.1930  -84.1820 C   0  0  0  0  0  0  0  0  0  0  0  0
   21.7810  -78.7070  -85.2000 C   0  0  0  0  0  0  0  0  0  0  0  0
   22.5630  -79.2670  -86.3000 O   0  0  0  0  0  0  0  0  0  0  0  0
   26.2430  -77.3470  -85.4070 C   0  0  0  0  0  0  0  0  0  0  0  0
   26.8880  -78.0110  -84.2490 N   0  0  0  0  0  0  0  0  0  0  0  0
   24.8390  -79.2070  -83.4910 C   0  0  0  0  0  0  0  0  0  0  0  0
   28.1940  -77.6980  -82.3770 O   0  0  0  0  0  0  0  0  0  0  0  0
   20.2910  -76.8250  -81.4820 C   0  0  0  0  0  0  0  0  0  0  0  0
   20.2910  -77.8390  -80.4280 N   0  0  0  0  0  0  0  0  0  0  0  0
   28.4360  -75.9790  -83.9280 C   0  0  0  0  0  0  0  0  0  0  0  0
   29.2970  -75.9330  -85.2080 C   0  0  0  0  0  0  0  0  0  0  0  0
   29.8940  -74.4300  -85.3410 C   0  0  0  0  0  0  0  0  0  0  0  0
   28.4640  -74.5930  -83.2260 S   0  0  0  0  0  0  0  0  0  0  0  0
   31.0210  -75.1270  -87.4440 C   0  0  0  0  0  0  0  0  0  0  0  0
   29.5920  -76.8920  -86.1690 C   0  0  0  0  0  0  0  0  0  0  0  0
   29.7600  -71.9210  -83.8180 S   0  0  0  0  0  0  0  0  0  0  0  0
   31.0120  -71.8580  -82.4930 C   0  0  0  0  0  0  0  0  0  0  0  0
   19.6689  -78.9581  -85.7581 H   0  0  0  0  0  0  0  0  0  0  0  0
   18.8123  -77.8670  -83.6032 H   0  0  0  0  0  0  0  0  0  0  0  0
   24.6189  -79.6710  -86.5294 H   0  0  0  0  0  0  0  0  0  0  0  0
   23.8376  -80.6579  -85.3075 H   0  0  0  0  0  0  0  0  0  0  0  0
   24.2341  -76.8491  -86.0890 H   0  0  0  0  0  0  0  0  0  0  0  0
   24.5493  -76.4409  -84.3727 H   0  0  0  0  0  0  0  0  0  0  0  0
   26.5948  -80.0781  -84.4304 H   0  0  0  0  0  0  0  0  0  0  0  0
   26.8562  -79.4605  -82.7477 H   0  0  0  0  0  0  0  0  0  0  0  0
   31.1017  -73.0761  -86.5156 H   0  0  0  0  0  0  0  0  0  0  0  0
   30.7056  -77.3025  -88.0895 H   0  0  0  0  0  0  0  0  0  0  0  0
   22.9926  -77.2355  -82.2049 H   0  0  0  0  0  0  0  0  0  0  0  0
   26.4022  -77.9568  -86.3086 H   0  0  0  0  0  0  0  0  0  0  0  0
   26.6893  -76.3503  -85.5392 H   0  0  0  0  0  0  0  0  0  0  0  0
   24.4517  -80.2256  -83.3415 H   0  0  0  0  0  0  0  0  0  0  0  0
   24.6344  -78.5910  -82.6029 H   0  0  0  0  0  0  0  0  0  0  0  0
   20.9274  -75.9783  -81.1852 H   0  0  0  0  0  0  0  0  0  0  0  0
   19.2704  -76.4521  -81.6530 H   0  0  0  0  0  0  0  0  0  0  0  0
   21.2621  -78.0770  -80.1806 H   0  0  0  0  0  0  0  0  0  0  0  0
   19.8055  -77.4710  -79.5975 H   0  0  0  0  0  0  0  0  0  0  0  0
   31.6657  -74.8643  -88.2956 H   0  0  0  0  0  0  0  0  0  0  0  0
   29.1811  -77.9081  -86.0751 H   0  0  0  0  0  0  0  0  0  0  0  0
   30.5113  -71.8832  -81.5139 H   0  0  0  0  0  0  0  0  0  0  0  0
   31.6850  -72.7234  -82.5830 H   0  0  0  0  0  0  0  0  0  0  0  0
   31.5947  -70.9294  -82.5830 H   0  0  0  0  0  0  0  0  0  0  0  0
  1  2  2  0
  1 14  1  0
  2  3  1  0
  3 12  2  0
  3 20  1  0
  4  7  1  0
  4 15  1  0
  5  7  1  0
  5 16  1  0
  6 17  1  0
  6 18  1  0
  7 13  1  0
  7 18  1  0
  8 17  1  0
  8 19  2  0
  8 22  1  0
  9 24  2  0
  9 25  1  0
  9 28  1  0
 10 24  1  0
 10 26  2  0
 11 26  1  0
 11 27  2  0
 12 13  1  0
 13 14  2  0
 14 15  1  0
 16 17  1  0
 20 21  1  0
 22 23  2  0
 22 25  1  0
 23 24  1  0
 23 27  1  0
 28 29  1  0
  1 30  1  0
  2 31  1  0
  4 32  1  0
  4 33  1  0
  5 34  1  0
  5 35  1  0
  6 36  1  0
  6 37  1  0
 10 38  1  0
 11 39  1  0
 12 40  1  0
 16 41  1  0
 16 42  1  0
 18 43  1  0
 18 44  1  0
 20 45  1  0
 20 46  1  0
 21 47  1  0
 21 48  1  0
 26 49  1  0
 27 50  1  0
 29 51  1  0
 29 52  1  0
 29 53  1  0
A    1
C4
A    2
C5
A    3
C6
A    4
C8
A    5
C10
A    6
C13
A    7
C15
A    8
C17
A    9
C22
A   10
C24
A   11
C26
A   12
C1
A   13
C2
A   14
C3
A   15
O13
A   16
C11
A   17
N22
A   18
C14
A   19
O61
A   20
C30
A   21
N64
A   22
C39
A   23
C41
A   24
C42
A   25
S44
A   26
C25
A   27
C27
A   28
S59
A   29
C29
M  END
