2ZEU_B71_A_1201
     RDKit          3D

 59 59  0  0  0  0  0  0  0  0999 V2000
   37.7010   56.7330   12.4350 C   0  0  0  0  0  0  0  0  0  0  0  0
   37.6680   55.3810   11.7180 C   0  0  0  0  0  0  0  0  0  0  0  0
   37.3610   54.2530   12.7030 C   0  0  0  0  0  0  0  0  0  0  0  0
   37.1060   52.9230   11.9910 C   0  0  0  0  0  0  0  0  0  0  0  0
   36.0550   53.0940   10.8930 C   0  0  0  0  0  0  0  0  0  0  0  0
   35.4280   51.7580   10.4890 C   0  0  0  0  0  0  0  0  0  0  0  0
   34.7680   51.8790    9.1150 C   0  0  0  0  0  0  0  0  0  0  0  0
   33.8700   50.6800    8.8040 C   0  0  0  0  0  0  0  0  0  0  0  0
   32.5440   50.7820    9.5600 C   0  0  0  0  0  0  0  0  0  0  0  0
   31.6580   49.5720    9.2650 C   0  0  0  0  0  0  0  0  0  0  0  0
   30.3590   49.7500    9.8500 O   0  0  0  0  0  0  0  0  0  0  0  0
   29.6580   48.5870    9.7650 C   0  0  0  0  0  0  0  0  0  0  0  0
   29.9710   47.6590    8.7790 C   0  0  0  0  0  0  0  0  0  0  0  0
   28.6300   48.3210   10.6640 C   0  0  0  0  0  0  0  0  0  0  0  0
   27.9070   47.1340   10.5840 C   0  0  0  0  0  0  0  0  0  0  0  0
   28.2110   46.2020    9.5990 C   0  0  0  0  0  0  0  0  0  0  0  0
   29.2460   46.4640    8.6900 N   0  0  0  0  0  0  0  0  0  0  0  0
   29.5590   45.5030    7.6100 C   0  0  0  0  0  0  0  0  0  0  0  0
   29.4780   46.2010    6.2510 C   0  0  0  0  0  0  0  0  0  0  0  0
   30.0580   45.0740    4.9180 P   0  0  0  0  0  0  0  0  0  0  0  0
   29.3400   43.6630    5.1950 O   0  0  0  0  0  0  0  0  0  0  0  0
   29.5040   45.6370    3.5160 O   0  0  0  0  0  0  0  0  0  0  0  0
   31.5340   44.9810    4.8900 O   0  0  0  0  0  0  0  0  0  0  0  0
   27.7770   46.8410    5.9740 P   0  0  0  0  0  0  0  0  0  0  0  0
   27.5960   47.0990    4.3970 O   0  0  0  0  0  0  0  0  0  0  0  0
   26.7460   45.6680    6.3700 O   0  0  0  0  0  0  0  0  0  0  0  0
   27.5420   48.0730    6.7600 O   0  0  0  0  0  0  0  0  0  0  0  0
   37.6971   56.5712   13.5230 H   0  0  0  0  0  0  0  0  0  0  0  0
   38.6127   57.2778   12.1486 H   0  0  0  0  0  0  0  0  0  0  0  0
   36.8170   57.3216   12.1486 H   0  0  0  0  0  0  0  0  0  0  0  0
   36.8896   55.4035   10.9411 H   0  0  0  0  0  0  0  0  0  0  0  0
   38.6539   55.1967   11.2662 H   0  0  0  0  0  0  0  0  0  0  0  0
   38.2170   54.1330   13.3834 H   0  0  0  0  0  0  0  0  0  0  0  0
   36.4485   54.5231   13.2548 H   0  0  0  0  0  0  0  0  0  0  0  0
   38.0448   52.5679   11.5409 H   0  0  0  0  0  0  0  0  0  0  0  0
   36.7364   52.1923   12.7255 H   0  0  0  0  0  0  0  0  0  0  0  0
   35.2622   53.7620   11.2608 H   0  0  0  0  0  0  0  0  0  0  0  0
   36.5527   53.5179   10.0083 H   0  0  0  0  0  0  0  0  0  0  0  0
   36.2109   50.9863   10.4494 H   0  0  0  0  0  0  0  0  0  0  0  0
   34.6647   51.4806   11.2309 H   0  0  0  0  0  0  0  0  0  0  0  0
   34.1586   52.7945    9.0929 H   0  0  0  0  0  0  0  0  0  0  0  0
   35.5643   51.9133    8.3569 H   0  0  0  0  0  0  0  0  0  0  0  0
   33.6674   50.6523    7.7232 H   0  0  0  0  0  0  0  0  0  0  0  0
   34.3863   49.7619    9.1212 H   0  0  0  0  0  0  0  0  0  0  0  0
   32.7469   50.8259   10.6402 H   0  0  0  0  0  0  0  0  0  0  0  0
   32.0198   51.6918    9.2323 H   0  0  0  0  0  0  0  0  0  0  0  0
   31.5527   49.4564    8.1762 H   0  0  0  0  0  0  0  0  0  0  0  0
   32.1243   48.6739    9.6964 H   0  0  0  0  0  0  0  0  0  0  0  0
   30.7867   47.8627    8.0697 H   0  0  0  0  0  0  0  0  0  0  0  0
   28.3862   49.0557   11.4455 H   0  0  0  0  0  0  0  0  0  0  0  0
   27.0960   46.9340   11.2997 H   0  0  0  0  0  0  0  0  0  0  0  0
   27.6422   45.2628    9.5327 H   0  0  0  0  0  0  0  0  0  0  0  0
   30.5750   45.1077    7.7568 H   0  0  0  0  0  0  0  0  0  0  0  0
   28.8313   44.6786    7.6372 H   0  0  0  0  0  0  0  0  0  0  0  0
   30.1505   47.0713    6.2354 H   0  0  0  0  0  0  0  0  0  0  0  0
   28.8200   46.3321    3.6866 H   0  0  0  0  0  0  0  0  0  0  0  0
   31.8809   44.9591    5.8170 H   0  0  0  0  0  0  0  0  0  0  0  0
   27.0332   47.9012    4.2563 H   0  0  0  0  0  0  0  0  0  0  0  0
   27.5825   47.8608    7.7261 H   0  0  0  0  0  0  0  0  0  0  0  0
  1  2  1  0
  2  3  1  0
  3  4  1  0
  4  5  1  0
  5  6  1  0
  6  7  1  0
  7  8  1  0
  8  9  1  0
  9 10  1  0
 10 11  1  0
 11 12  1  0
 12 14  2  0
 12 13  1  0
 13 17  2  0
 14 15  1  0
 15 16  2  0
 16 17  1  0
 17 18  1  0
 18 19  1  0
 19 20  1  0
 19 24  1  0
 20 21  2  0
 20 22  1  0
 20 23  1  0
 24 26  2  0
 24 27  1  0
 24 25  1  0
  1 28  1  0
  1 29  1  0
  1 30  1  0
  2 31  1  0
  2 32  1  0
  3 33  1  0
  3 34  1  0
  4 35  1  0
  4 36  1  0
  5 37  1  0
  5 38  1  0
  6 39  1  0
  6 40  1  0
  7 41  1  0
  7 42  1  0
  8 43  1  0
  8 44  1  0
  9 45  1  0
  9 46  1  0
 10 47  1  0
 10 48  1  0
 13 49  1  0
 14 50  1  0
 15 51  1  0
 16 52  1  0
 18 53  1  0
 18 54  1  0
 19 55  1  0
 22 56  1  0
 23 57  1  0
 25 58  1  0
 27 59  1  0
M  CHG  1  17   1
A    1
CAA
A    2
CAL
A    3
CAM
A    4
CAN
A    5
CAO
A    6
CAP
A    7
CAQ
A    8
CAR
A    9
CAS
A   10
CAT
A   11
OAV
A   12
CAW
A   13
CAK
A   14
CAI
A   15
CAH
A   16
CAJ
A   17
NAY
A   18
CAU
A   19
CAX
A   20
PBA
A   21
OAF
A   22
OAG
A   23
OAC
A   24
PAZ
A   25
OAD
A   26
OAE
A   27
OAB
M  END
