2ZFS_12U_A_501
     RDKit          3D

 62 64  0  0  0  0  0  0  0  0999 V2000
   28.6330   -1.0330   16.7230 C   0  0  0  0  0  0  0  0  0  0  0  0
   27.5260   -0.7840   17.2090 O   0  0  0  0  0  0  0  0  0  0  0  0
   29.7830   -1.2450   17.6730 C   0  0  0  0  0  0  0  0  0  0  0  0
   29.5330   -0.5000   18.9370 N   0  0  0  0  0  0  0  0  0  0  0  0
   29.8540    0.9440   18.9280 C   0  0  0  0  0  0  0  0  0  0  0  0
   31.2790    1.1990   19.2940 C   0  0  0  0  0  0  0  0  0  0  0  0
   31.3910    1.2800   20.7990 C   0  0  0  0  0  0  0  0  0  0  0  0
   31.2250    2.6480   21.3890 C   0  0  0  0  0  0  0  0  0  0  0  0
   29.9080    3.2210   21.1430 C   0  0  0  0  0  0  0  0  0  0  0  0
   29.4170    2.7770   19.8420 C   0  0  0  0  0  0  0  0  0  0  0  0
   28.7690    1.4960   19.5650 C   0  0  0  0  0  0  0  0  0  0  0  0
   28.7020   -1.0400   15.4270 N   0  0  0  0  0  0  0  0  0  0  0  0
   27.7440   -0.7940   14.6310 C   0  0  0  0  0  0  0  0  0  0  0  0
   26.6100   -1.7090   14.5000 C   0  0  0  0  0  0  0  0  0  0  0  0
   26.6790   -2.8940   14.8240 O   0  0  0  0  0  0  0  0  0  0  0  0
   28.3430   -0.6200   13.2310 C   0  0  0  0  0  0  0  0  0  0  0  0
   29.6590   -1.3350   13.2780 C   0  0  0  0  0  0  0  0  0  0  0  0
   29.9930   -1.3170   14.7630 C   0  0  0  0  0  0  0  0  0  0  0  0
   25.4700   -1.3260   14.0110 N   0  0  0  0  0  0  0  0  0  0  0  0
   24.3470   -2.1350   13.6570 C   0  0  0  0  0  0  0  0  0  0  0  0
   23.2520   -2.0120   14.7090 C   0  0  0  0  0  0  0  0  0  0  0  0
   23.3090   -2.4080   16.0240 C   0  0  0  0  0  0  0  0  0  0  0  0
   22.1860   -2.2110   16.8550 C   0  0  0  0  0  0  0  0  0  0  0  0
   20.9650   -1.6340   16.4790 C   0  0  0  0  0  0  0  0  0  0  0  0
   19.8400   -1.4820   17.4860 C   0  0  0  0  0  0  0  0  0  0  0  0
   19.0160   -0.4670   17.2910 N   0  0  0  0  0  0  0  0  0  0  0  0
   19.6820   -2.3110   18.5070 N   0  0  0  0  0  0  0  0  0  0  0  0
   20.9130   -1.2380   15.1660 C   0  0  0  0  0  0  0  0  0  0  0  0
   22.0300   -1.4310   14.3260 C   0  0  0  0  0  0  0  0  0  0  0  0
   29.8815   -2.3180   17.8943 H   0  0  0  0  0  0  0  0  0  0  0  0
   30.7105   -0.8767   17.2103 H   0  0  0  0  0  0  0  0  0  0  0  0
   28.5331   -0.5966   19.1644 H   0  0  0  0  0  0  0  0  0  0  0  0
   29.9240    1.4837   17.9721 H   0  0  0  0  0  0  0  0  0  0  0  0
   31.9087    0.3781   18.9205 H   0  0  0  0  0  0  0  0  0  0  0  0
   31.6159    2.1444   18.8438 H   0  0  0  0  0  0  0  0  0  0  0  0
   30.6169    0.6290   21.2313 H   0  0  0  0  0  0  0  0  0  0  0  0
   32.4186    0.9711   21.0409 H   0  0  0  0  0  0  0  0  0  0  0  0
   31.3804    2.5816   22.4759 H   0  0  0  0  0  0  0  0  0  0  0  0
   31.9637    3.3050   20.9066 H   0  0  0  0  0  0  0  0  0  0  0  0
   29.2125    2.8913   21.9289 H   0  0  0  0  0  0  0  0  0  0  0  0
   29.9793    4.3187   21.1518 H   0  0  0  0  0  0  0  0  0  0  0  0
   28.6909    3.5422   19.5301 H   0  0  0  0  0  0  0  0  0  0  0  0
   30.3732    2.6229   19.3205 H   0  0  0  0  0  0  0  0  0  0  0  0
   27.8910    1.5929   18.9095 H   0  0  0  0  0  0  0  0  0  0  0  0
   28.3434    0.9453   20.4168 H   0  0  0  0  0  0  0  0  0  0  0  0
   27.2818    0.0869   15.1004 H   0  0  0  0  0  0  0  0  0  0  0  0
   27.6863   -1.0692   12.4714 H   0  0  0  0  0  0  0  0  0  0  0  0
   28.4592    0.4401   12.9612 H   0  0  0  0  0  0  0  0  0  0  0  0
   29.5648   -2.3654   12.9045 H   0  0  0  0  0  0  0  0  0  0  0  0
   30.4327   -0.8697   12.6496 H   0  0  0  0  0  0  0  0  0  0  0  0
   30.3947   -2.2896   15.0834 H   0  0  0  0  0  0  0  0  0  0  0  0
   30.7608   -0.5694   15.0109 H   0  0  0  0  0  0  0  0  0  0  0  0
   25.3618   -0.3130   13.8594 H   0  0  0  0  0  0  0  0  0  0  0  0
   23.9541   -1.8042   12.6843 H   0  0  0  0  0  0  0  0  0  0  0  0
   24.6683   -3.1853   13.5971 H   0  0  0  0  0  0  0  0  0  0  0  0
   24.2213   -2.8740   16.4246 H   0  0  0  0  0  0  0  0  0  0  0  0
   22.2774   -2.5425   17.8999 H   0  0  0  0  0  0  0  0  0  0  0  0
   18.2314   -0.3087   17.9393 H   0  0  0  0  0  0  0  0  0  0  0  0
   19.7493   -1.9579   19.4722 H   0  0  0  0  0  0  0  0  0  0  0  0
   19.4918   -3.3087   18.3357 H   0  0  0  0  0  0  0  0  0  0  0  0
   20.0003   -0.7701   14.7685 H   0  0  0  0  0  0  0  0  0  0  0  0
   21.9370   -1.0984   13.2816 H   0  0  0  0  0  0  0  0  0  0  0  0
 15 14  2  0
 14 19  1  0
 14 13  1  0
 19 20  1  0
 20 21  1  0
 21 29  1  0
 21 22  2  0
 29 28  2  0
 28 24  1  0
 24 25  1  0
 24 23  2  0
 25 26  2  3
 25 27  1  0
 23 22  1  0
 13 16  1  0
 13 12  1  0
 16 17  1  0
 17 18  1  0
 18 12  1  0
 12  1  1  0
  1  2  2  0
  1  3  1  0
  3  4  1  0
  4  5  1  0
  5  6  1  0
  5 11  1  0
  6  7  1  0
  7  8  1  0
  8  9  1  0
  9 10  1  0
 10 11  1  0
  3 30  1  0
  3 31  1  0
  4 32  1  0
  5 33  1  0
  6 34  1  0
  6 35  1  0
  7 36  1  0
  7 37  1  0
  8 38  1  0
  8 39  1  0
  9 40  1  0
  9 41  1  0
 10 42  1  0
 10 43  1  0
 11 44  1  0
 11 45  1  0
 13 46  1  0
 16 47  1  0
 16 48  1  0
 17 49  1  0
 17 50  1  0
 18 51  1  0
 18 52  1  0
 19 53  1  0
 20 54  1  0
 20 55  1  0
 22 56  1  0
 23 57  1  0
 26 58  1  0
 27 59  1  0
 27 60  1  0
 28 61  1  0
 29 62  1  0
A    1
C14
A    2
O32
A    3
C5
A    4
N21
A    5
C49
A    6
C48
A    7
C47
A    8
C46
A    9
C52
A   10
C51
A   11
C50
A   12
N1
A   13
C1
A   14
C7
A   15
O22
A   16
C2
A   17
C3
A   18
C4
A   19
N23
A   20
C24
A   21
C25
A   22
C30
A   23
C29
A   24
C28
A   25
C9
A   26
N10
A   27
N11
A   28
C27
A   29
C26
M  END
