2ZFX_YR3_A_1
     RDKit          3D

 75 76  0  0  0  0  0  0  0  0999 V2000
    9.8880   11.9550    9.9850 C   0  0  0  0  0  0  0  0  0  0  0  0
    9.3080   11.2860   11.0620 C   0  0  0  0  0  0  0  0  0  0  0  0
    9.9130   10.0020   11.5370 C   0  0  0  0  0  0  0  0  0  0  0  0
   11.0290    9.5130   10.8800 C   0  0  0  0  0  0  0  0  0  0  0  0
   11.5850   10.1630    9.7750 C   0  0  0  0  0  0  0  0  0  0  0  0
   11.0190   11.3930    9.3590 C   0  0  0  0  0  0  0  0  0  0  0  0
   12.8470    9.5550    9.1370 C   0  0  0  0  0  0  0  0  0  0  0  0
   13.0410    9.8230    7.6510 C   0  0  0  0  0  0  0  0  0  0  0  0
   12.9460    8.0140    9.3370 C   0  0  0  0  0  0  0  0  0  0  0  0
   14.0060   10.1690    9.9650 C   0  0  0  0  0  0  0  0  0  0  0  0
   14.2560   11.6820    9.8360 C   0  0  0  0  0  0  0  0  0  0  0  0
   12.0980    7.0980    8.4590 C   0  0  0  0  0  0  0  0  0  0  0  0
   14.3350    9.9980    7.1280 C   0  0  0  0  0  0  0  0  0  0  0  0
   14.5380   10.2380    5.7760 C   0  0  0  0  0  0  0  0  0  0  0  0
   13.3580   10.2840    4.8830 C   0  0  0  0  0  0  0  0  0  0  0  0
   14.0820   12.2650    1.4160 O   0  0  0  0  0  0  0  0  0  0  0  0
   12.9280   11.3790    1.3590 C   0  0  0  0  0  0  0  0  0  0  0  0
   11.8440   11.9270    0.4230 C   0  0  0  0  0  0  0  0  0  0  0  0
   10.5270   11.1740    0.6260 C   0  0  0  0  0  0  0  0  0  0  0  0
   11.5770   13.4180    0.6020 C   0  0  0  0  0  0  0  0  0  0  0  0
   12.3530   11.6920   -0.9890 C   0  0  0  0  0  0  0  0  0  0  0  0
   12.4440   11.0700    2.7810 C   0  0  0  0  0  0  0  0  0  0  0  0
   13.5300   10.5170    3.5370 O   0  0  0  0  0  0  0  0  0  0  0  0
   15.9210   10.4380    5.2130 C   0  0  0  0  0  0  0  0  0  0  0  0
   12.0860   10.0980    5.4310 C   0  0  0  0  0  0  0  0  0  0  0  0
   11.9380    9.8760    6.7880 C   0  0  0  0  0  0  0  0  0  0  0  0
    9.3400    9.2260   12.7060 C   0  0  0  0  0  0  0  0  0  0  0  0
    8.2310   11.7970   11.7300 O   0  0  0  0  0  0  0  0  0  0  0  0
    8.5240   12.2630   13.0500 C   0  0  0  0  0  0  0  0  0  0  0  0
    7.5400   13.3000   13.5630 C   0  0  0  0  0  0  0  0  0  0  0  0
    7.4800   14.4050   12.6520 O   0  0  0  0  0  0  0  0  0  0  0  0
    6.1680   12.6530   13.7650 C   0  0  0  0  0  0  0  0  0  0  0  0
    5.1590   13.6410   14.0270 O   0  0  0  0  0  0  0  0  0  0  0  0
    9.4690   12.9077    9.6289 H   0  0  0  0  0  0  0  0  0  0  0  0
   11.4931    8.5827   11.2394 H   0  0  0  0  0  0  0  0  0  0  0  0
   11.4791   11.9295    8.5161 H   0  0  0  0  0  0  0  0  0  0  0  0
   13.9973    7.7346    9.1734 H   0  0  0  0  0  0  0  0  0  0  0  0
   12.5465    7.8532   10.3492 H   0  0  0  0  0  0  0  0  0  0  0  0
   13.7989    9.9597   11.0249 H   0  0  0  0  0  0  0  0  0  0  0  0
   14.9151    9.7020    9.5582 H   0  0  0  0  0  0  0  0  0  0  0  0
   14.3297   12.1283   10.8387 H   0  0  0  0  0  0  0  0  0  0  0  0
   15.1946   11.8532    9.2885 H   0  0  0  0  0  0  0  0  0  0  0  0
   13.4223   12.1460    9.2885 H   0  0  0  0  0  0  0  0  0  0  0  0
   11.4889    6.4401    9.0963 H   0  0  0  0  0  0  0  0  0  0  0  0
   11.4378    7.7070    7.8239 H   0  0  0  0  0  0  0  0  0  0  0  0
   12.7560    6.4867    7.8239 H   0  0  0  0  0  0  0  0  0  0  0  0
   15.2020    9.9437    7.8028 H   0  0  0  0  0  0  0  0  0  0  0  0
   14.3146   12.4436    2.3616 H   0  0  0  0  0  0  0  0  0  0  0  0
   13.2174   10.4170    0.9109 H   0  0  0  0  0  0  0  0  0  0  0  0
   10.3309   11.0619    1.7026 H   0  0  0  0  0  0  0  0  0  0  0  0
    9.7060   11.7392    0.1607 H   0  0  0  0  0  0  0  0  0  0  0  0
   10.5976   10.1798    0.1607 H   0  0  0  0  0  0  0  0  0  0  0  0
   11.5343   13.6566    1.6750 H   0  0  0  0  0  0  0  0  0  0  0  0
   12.3862   13.9947    0.1301 H   0  0  0  0  0  0  0  0  0  0  0  0
   10.6180   13.6780    0.1301 H   0  0  0  0  0  0  0  0  0  0  0  0
   13.3510   11.2312   -0.9471 H   0  0  0  0  0  0  0  0  0  0  0  0
   11.6618   11.0219   -1.5211 H   0  0  0  0  0  0  0  0  0  0  0  0
   12.4148   12.6527   -1.5211 H   0  0  0  0  0  0  0  0  0  0  0  0
   12.0954   11.9964    3.2608 H   0  0  0  0  0  0  0  0  0  0  0  0
   11.6149   10.3482    2.7414 H   0  0  0  0  0  0  0  0  0  0  0  0
   16.6412   10.5421    6.0379 H   0  0  0  0  0  0  0  0  0  0  0  0
   16.1944    9.5700    4.5950 H   0  0  0  0  0  0  0  0  0  0  0  0
   15.9373   11.3478    4.5950 H   0  0  0  0  0  0  0  0  0  0  0  0
   11.1993   10.1283    4.7807 H   0  0  0  0  0  0  0  0  0  0  0  0
   10.9279    9.7374    7.2009 H   0  0  0  0  0  0  0  0  0  0  0  0
    9.6765    9.6818   13.6489 H   0  0  0  0  0  0  0  0  0  0  0  0
    8.2413    9.2500   12.6588 H   0  0  0  0  0  0  0  0  0  0  0  0
    9.6863    8.1830   12.6588 H   0  0  0  0  0  0  0  0  0  0  0  0
    8.5089   11.4016   13.7339 H   0  0  0  0  0  0  0  0  0  0  0  0
    9.5103   12.7482   13.0084 H   0  0  0  0  0  0  0  0  0  0  0  0
    7.8761   13.6871   14.5362 H   0  0  0  0  0  0  0  0  0  0  0  0
    7.4340   15.2518   13.1629 H   0  0  0  0  0  0  0  0  0  0  0  0
    5.8969   12.0963   12.8558 H   0  0  0  0  0  0  0  0  0  0  0  0
    6.2265   11.9780   14.6315 H   0  0  0  0  0  0  0  0  0  0  0  0
    5.0488   13.7489   15.0049 H   0  0  0  0  0  0  0  0  0  0  0  0
  1  2  2  0
  1  6  1  0
  2  3  1  0
  2 28  1  0
  3  4  2  0
  3 27  1  0
  4  5  1  0
  5  6  2  0
  5  7  1  0
  7  8  1  0
  7  9  1  0
  7 10  1  0
  8 13  2  0
  8 26  1  0
  9 12  1  0
 10 11  1  0
 13 14  1  0
 14 15  2  0
 14 24  1  0
 15 23  1  0
 15 25  1  0
 16 17  1  0
 17 18  1  0
 17 22  1  0
 18 19  1  0
 18 20  1  0
 18 21  1  0
 22 23  1  0
 25 26  2  0
 28 29  1  0
 29 30  1  0
 30 31  1  0
 30 32  1  0
 32 33  1  0
  1 34  1  0
  4 35  1  0
  6 36  1  0
  9 37  1  0
  9 38  1  0
 10 39  1  0
 10 40  1  0
 11 41  1  0
 11 42  1  0
 11 43  1  0
 12 44  1  0
 12 45  1  0
 12 46  1  0
 13 47  1  0
 16 48  1  0
 17 49  1  0
 19 50  1  0
 19 51  1  0
 19 52  1  0
 20 53  1  0
 20 54  1  0
 20 55  1  0
 21 56  1  0
 21 57  1  0
 21 58  1  0
 22 59  1  0
 22 60  1  0
 24 61  1  0
 24 62  1  0
 24 63  1  0
 25 64  1  0
 26 65  1  0
 27 66  1  0
 27 67  1  0
 27 68  1  0
 29 69  1  0
 29 70  1  0
 30 71  1  0
 31 72  1  0
 32 73  1  0
 32 74  1  0
 33 75  1  0
A    1
C1
A    2
C2
A    3
C3
A    4
C4
A    5
C5
A    6
C6
A    7
C7
A    8
C8
A    9
C9
A   10
C10
A   11
C11
A   12
C12
A   13
C13
A   14
C14
A   15
C15
A   16
O33
A   17
C22
A   18
C23
A   19
C26
A   20
C25
A   21
C24
A   22
C21
A   23
O20
A   24
C18
A   25
C16
A   26
C17
A   27
C19
A   28
O27
A   29
C28
A   30
C29
A   31
O32
A   32
C30
A   33
O31
M  END
