2ZGA_YDP_A_2501
     RDKit          3D

 42 42  0  0  0  0  0  0  0  0999 V2000
   -2.4640  -20.2510   18.0140 N   0  0  0  0  0  0  0  0  0  0  0  0
   -3.9760  -17.9940   16.8360 C   0  0  0  0  0  0  0  0  0  0  0  0
   -4.2010  -19.3270   16.4680 C   0  0  0  0  0  0  0  0  0  0  0  0
   -3.4000  -20.4770   17.0580 C   0  0  0  0  0  0  0  0  0  0  0  0
   -8.3970  -17.2140   19.8470 C   0  0  0  0  0  0  0  0  0  0  0  0
   -4.6870  -16.9370   16.2550 C   0  0  0  0  0  0  0  0  0  0  0  0
   -9.0190  -17.0490   14.0200 C   0  0  0  0  0  0  0  0  0  0  0  0
   -5.6660  -17.2230   15.3030 C   0  0  0  0  0  0  0  0  0  0  0  0
   -5.9080  -18.5510   14.9480 C   0  0  0  0  0  0  0  0  0  0  0  0
   -5.1900  -19.6070   15.5240 C   0  0  0  0  0  0  0  0  0  0  0  0
   -6.6070  -15.9200   14.5440 S   0  0  0  0  0  0  0  0  0  0  0  0
   -6.1790  -14.6880   15.1710 O   0  0  0  0  0  0  0  0  0  0  0  0
   -8.2400  -16.2580   14.9900 N   0  0  0  0  0  0  0  0  0  0  0  0
   -8.7360  -15.7230   16.2580 C   0  0  0  0  0  0  0  0  0  0  0  0
   -8.5770  -16.6020   17.4710 C   0  0  0  0  0  0  0  0  0  0  0  0
   -8.5110  -16.1790   18.7480 C   0  0  0  0  0  0  0  0  0  0  0  0
   -8.5590  -14.7380   19.1930 C   0  0  0  0  0  0  0  0  0  0  0  0
   -9.5900  -18.3910   14.5340 C   0  0  0  0  0  0  0  0  0  0  0  0
  -10.7830  -18.6770   13.7170 N   0  0  0  0  0  0  0  0  0  0  0  0
   -6.5190  -16.1520   13.1150 O   0  0  0  0  0  0  0  0  0  0  0  0
   -3.6900  -21.6180   16.7430 O   0  0  0  0  0  0  0  0  0  0  0  0
   -2.7197  -20.3127   19.0099 H   0  0  0  0  0  0  0  0  0  0  0  0
   -1.4978  -20.0177   17.7438 H   0  0  0  0  0  0  0  0  0  0  0  0
   -3.2195  -17.7716   17.6030 H   0  0  0  0  0  0  0  0  0  0  0  0
   -8.4518  -16.7163   20.8265 H   0  0  0  0  0  0  0  0  0  0  0  0
   -9.2209  -17.9372   19.7565 H   0  0  0  0  0  0  0  0  0  0  0  0
   -7.4354  -17.7405   19.7565 H   0  0  0  0  0  0  0  0  0  0  0  0
   -4.4769  -15.8968   16.5447 H   0  0  0  0  0  0  0  0  0  0  0  0
   -9.8650  -16.4307   13.6854 H   0  0  0  0  0  0  0  0  0  0  0  0
   -8.3102  -17.3172   13.2227 H   0  0  0  0  0  0  0  0  0  0  0  0
   -6.6811  -18.7738   14.1979 H   0  0  0  0  0  0  0  0  0  0  0  0
   -5.4036  -20.6467   15.2351 H   0  0  0  0  0  0  0  0  0  0  0  0
   -8.2006  -14.7825   16.4553 H   0  0  0  0  0  0  0  0  0  0  0  0
   -9.8218  -15.6131   16.1207 H   0  0  0  0  0  0  0  0  0  0  0  0
   -8.5087  -17.6862   17.2984 H   0  0  0  0  0  0  0  0  0  0  0  0
   -8.5605  -14.6935   20.2921 H   0  0  0  0  0  0  0  0  0  0  0  0
   -7.6781  -14.2051   18.8057 H   0  0  0  0  0  0  0  0  0  0  0  0
   -9.4734  -14.2649   18.8057 H   0  0  0  0  0  0  0  0  0  0  0  0
   -8.8457  -19.1920   14.4136 H   0  0  0  0  0  0  0  0  0  0  0  0
   -9.8437  -18.3327   15.6027 H   0  0  0  0  0  0  0  0  0  0  0  0
  -11.5843  -18.8691   14.3350 H   0  0  0  0  0  0  0  0  0  0  0  0
  -10.9952  -17.8631   13.1226 H   0  0  0  0  0  0  0  0  0  0  0  0
  1  4  1  0
  2  3  2  0
  2  6  1  0
  3  4  1  0
  3 10  1  0
  4 21  2  0
  5 16  1  0
  6  8  2  0
  7 13  1  0
  7 18  1  0
  8  9  1  0
  8 11  1  0
  9 10  2  0
 11 12  2  0
 11 13  1  0
 11 20  2  0
 13 14  1  0
 14 15  1  0
 15 16  2  0
 16 17  1  0
 18 19  1  0
  1 22  1  0
  1 23  1  0
  2 24  1  0
  5 25  1  0
  5 26  1  0
  5 27  1  0
  6 28  1  0
  7 29  1  0
  7 30  1  0
  9 31  1  0
 10 32  1  0
 14 33  1  0
 14 34  1  0
 15 35  1  0
 17 36  1  0
 17 37  1  0
 17 38  1  0
 18 39  1  0
 18 40  1  0
 19 41  1  0
 19 42  1  0
A    1
N1
A    2
C5
A    3
C6
A    4
C8
A    5
C10
A    6
C20
A    7
C24
A    8
C27
A    9
C18
A   10
C2
A   11
S9
A   12
O40
A   13
N32
A   14
C33
A   15
C34
A   16
C35
A   17
C11
A   18
C25
A   19
N22
A   20
O11
A   21
O2
M  END
