2ZI4_3L1_A_401
     RDKit          3D

 31 33  0  0  0  0  0  0  0  0999 V2000
   23.5300   -7.6090   17.9840 N   0  0  0  0  0  0  0  0  0  0  0  0
   24.7900   -7.8130   18.1490 C   0  0  0  0  0  0  0  0  0  0  0  0
   25.4380   -8.9420   17.9570 N   0  0  0  0  0  0  0  0  0  0  0  0
   26.8340   -9.2180   18.1030 C   0  0  0  0  0  0  0  0  0  0  0  0
   27.6170   -8.0980   18.4940 N   0  0  0  0  0  0  0  0  0  0  0  0
   26.9810   -6.9000   18.7080 C   0  0  0  0  0  0  0  0  0  0  0  0
   25.6590   -6.7050   18.5470 C   0  0  0  0  0  0  0  0  0  0  0  0
   25.3850   -5.4180   18.8570 N   0  0  0  0  0  0  0  0  0  0  0  0
   26.5970   -4.8370   19.1580 C   0  0  0  0  0  0  0  0  0  0  0  0
   27.5950   -5.7910   19.0620 N   0  0  0  0  0  0  0  0  0  0  0  0
   29.0070   -5.6530   19.3400 C   0  0  0  0  0  0  0  0  0  0  0  0
   29.2370   -4.2660   19.5800 O   0  0  0  0  0  0  0  0  0  0  0  0
   29.3620   -6.2970   20.6540 C   0  0  0  0  0  0  0  0  0  0  0  0
   30.5900   -5.5020   21.0560 C   0  0  0  0  0  0  0  0  0  0  0  0
   31.7920   -6.0680   20.5540 O   0  0  0  0  0  0  0  0  0  0  0  0
   30.4500   -4.1590   20.3470 C   0  0  0  0  0  0  0  0  0  0  0  0
   30.3920   -2.9970   21.3270 C   0  0  0  0  0  0  0  0  0  0  0  0
   29.7810   -1.8090   20.7850 O   0  0  0  0  0  0  0  0  0  0  0  0
   22.9129   -7.5091   18.8026 H   0  0  0  0  0  0  0  0  0  0  0  0
   23.1387   -7.5456   17.0333 H   0  0  0  0  0  0  0  0  0  0  0  0
   27.2657  -10.2144   17.9273 H   0  0  0  0  0  0  0  0  0  0  0  0
   26.7478   -3.7822   19.4313 H   0  0  0  0  0  0  0  0  0  0  0  0
   29.5755   -6.0937   18.5077 H   0  0  0  0  0  0  0  0  0  0  0  0
   28.5515   -6.1843   21.3891 H   0  0  0  0  0  0  0  0  0  0  0  0
   29.5300   -7.3823   20.5916 H   0  0  0  0  0  0  0  0  0  0  0  0
   30.6456   -5.4595   22.1538 H   0  0  0  0  0  0  0  0  0  0  0  0
   32.3698   -6.3401   21.3105 H   0  0  0  0  0  0  0  0  0  0  0  0
   31.3219   -3.9479   19.7104 H   0  0  0  0  0  0  0  0  0  0  0  0
   29.8133   -3.3141   22.2071 H   0  0  0  0  0  0  0  0  0  0  0  0
   31.4310   -2.7371   21.5778 H   0  0  0  0  0  0  0  0  0  0  0  0
   29.4807   -1.2250   21.5258 H   0  0  0  0  0  0  0  0  0  0  0  0
  1  2  1  0
  2  3  2  0
  2  7  1  0
  3  4  1  0
  4  5  2  0
  5  6  1  0
  6  7  2  0
  6 10  1  0
  7  8  1  0
  8  9  2  0
  9 10  1  0
 10 11  1  0
 11 12  1  0
 11 13  1  0
 12 16  1  0
 13 14  1  0
 14 15  1  0
 14 16  1  0
 16 17  1  0
 17 18  1  0
  1 19  1  0
  1 20  1  0
  4 21  1  0
  9 22  1  0
 11 23  1  0
 13 24  1  0
 13 25  1  0
 14 26  1  0
 15 27  1  0
 16 28  1  0
 17 29  1  0
 17 30  1  0
 18 31  1  0
A    1
N6
A    2
C6
A    3
N1
A    4
C2
A    5
N3
A    6
C4
A    7
C5
A    8
N7
A    9
C8
A   10
N9
A   11
C1'
A   12
O4'
A   13
C2'
A   14
C3'
A   15
O3'
A   16
C4'
A   17
C5'
A   18
O5'
M  END
