1S2G_3D1_A_1168
     RDKit          3D

 31 33  0  0  0  0  0  0  0  0999 V2000
   -1.3760  -10.2730  -22.0380 O   0  0  0  0  0  0  0  0  0  0  0  0
   -2.0280   -9.0170  -22.2620 C   0  0  0  0  0  0  0  0  0  0  0  0
   -2.3380   -8.2530  -20.9460 C   0  0  0  0  0  0  0  0  0  0  0  0
   -1.1470   -7.9570  -20.1840 O   0  0  0  0  0  0  0  0  0  0  0  0
   -0.7210   -6.6180  -20.5300 C   0  0  0  0  0  0  0  0  0  0  0  0
    0.3710   -6.6620  -21.8290 N   0  0  0  0  0  0  0  0  0  0  0  0
    0.7880   -5.6430  -22.6800 C   0  0  0  0  0  0  0  0  0  0  0  0
    0.3970   -4.3240  -22.6470 N   0  0  0  0  0  0  0  0  0  0  0  0
    0.9940   -3.5860  -23.6340 C   0  0  0  0  0  0  0  0  0  0  0  0
    1.8870   -4.0470  -24.5790 N   0  0  0  0  0  0  0  0  0  0  0  0
    2.2550   -5.4100  -24.5670 C   0  0  0  0  0  0  0  0  0  0  0  0
    3.1020   -5.9490  -25.4310 N   0  0  0  0  0  0  0  0  0  0  0  0
    1.6980   -6.2480  -23.5900 C   0  0  0  0  0  0  0  0  0  0  0  0
    1.8980   -7.6110  -23.3680 N   0  0  0  0  0  0  0  0  0  0  0  0
    1.1210   -7.7990  -22.3520 C   0  0  0  0  0  0  0  0  0  0  0  0
   -1.9450   -5.8760  -21.0320 C   0  0  0  0  0  0  0  0  0  0  0  0
   -3.0060   -6.9150  -21.3020 C   0  0  0  0  0  0  0  0  0  0  0  0
   -4.1460   -6.6070  -20.4800 O   0  0  0  0  0  0  0  0  0  0  0  0
   -1.2931  -10.4328  -21.0645 H   0  0  0  0  0  0  0  0  0  0  0  0
   -1.3754   -8.3894  -22.8866 H   0  0  0  0  0  0  0  0  0  0  0  0
   -2.9884   -9.2274  -22.7553 H   0  0  0  0  0  0  0  0  0  0  0  0
   -2.9891   -8.8972  -20.3369 H   0  0  0  0  0  0  0  0  0  0  0  0
   -0.2527   -6.1457  -19.6539 H   0  0  0  0  0  0  0  0  0  0  0  0
    0.7354   -2.5177  -23.6777 H   0  0  0  0  0  0  0  0  0  0  0  0
    3.9222   -6.4710  -25.0908 H   0  0  0  0  0  0  0  0  0  0  0  0
    2.9404   -5.8462  -26.4430 H   0  0  0  0  0  0  0  0  0  0  0  0
    1.0274   -8.7939  -21.8921 H   0  0  0  0  0  0  0  0  0  0  0  0
   -2.2963   -5.1657  -20.2691 H   0  0  0  0  0  0  0  0  0  0  0  0
   -1.7132   -5.3035  -21.9422 H   0  0  0  0  0  0  0  0  0  0  0  0
   -3.3707   -6.9489  -22.3392 H   0  0  0  0  0  0  0  0  0  0  0  0
   -3.8927   -6.6754  -19.5254 H   0  0  0  0  0  0  0  0  0  0  0  0
  1  2  1  0
  2  3  1  0
  3  4  1  0
  3 17  1  0
  4  5  1  0
  5  6  1  0
  5 16  1  0
  6  7  1  0
  6 15  1  0
  7  8  2  0
  7 13  1  0
  8  9  1  0
  9 10  2  0
 10 11  1  0
 11 12  1  0
 11 13  2  0
 13 14  1  0
 14 15  2  0
 16 17  1  0
 17 18  1  0
  1 19  1  0
  2 20  1  0
  2 21  1  0
  3 22  1  0
  5 23  1  0
  9 24  1  0
 12 25  1  0
 12 26  1  0
 15 27  1  0
 16 28  1  0
 16 29  1  0
 17 30  1  0
 18 31  1  0
A    1
O5'
A    2
C5'
A    3
C4'
A    4
O4'
A    5
C1'
A    6
N9
A    7
C4
A    8
N3
A    9
C2
A   10
N1
A   11
C6
A   12
N6
A   13
C5
A   14
N7
A   15
C8
A   16
C2'
A   17
C3'
A   18
O3'
M  END
