2ZI8_SDT_A_702
     RDKit          3D

 47 49  0  0  0  0  0  0  0  0999 V2000
   77.8970   35.5400   13.9510 O   0  0  0  0  0  0  0  0  0  0  0  0
   77.5280   34.4370   13.5220 C   0  0  0  0  0  0  0  0  0  0  0  0
   76.0990   33.9090   13.6550 C   0  0  0  0  0  0  0  0  0  0  0  0
   76.1670   32.5280   12.9270 C   0  0  0  0  0  0  0  0  0  0  0  0
   77.6500   32.1420   13.0400 C   0  0  0  0  0  0  0  0  0  0  0  0
   78.4200   33.4540   12.7820 C   0  0  0  0  0  0  0  0  0  0  0  0
   78.4180   33.9120   11.3040 C   0  0  0  0  0  0  0  0  0  0  0  0
   79.8420   33.3270   13.3710 C   0  0  0  0  0  0  0  0  0  0  0  0
   80.5730   32.0690   12.8570 C   0  0  0  0  0  0  0  0  0  0  0  0
   78.2030   30.9490   12.2360 C   0  0  0  0  0  0  0  0  0  0  0  0
   79.6920   30.8450   12.5870 C   0  0  0  0  0  0  0  0  0  0  0  0
   80.2630   29.7760   12.6550 O   0  0  0  0  0  0  0  0  0  0  0  0
   77.3720   29.6380   12.3610 C   0  0  0  0  0  0  0  0  0  0  0  0
   77.1280   29.1740   13.7990 C   0  0  0  0  0  0  0  0  0  0  0  0
   76.1440   28.0160   13.9850 C   0  0  0  0  0  0  0  0  0  0  0  0
   76.6580   26.7210   14.2570 C   0  0  0  0  0  0  0  0  0  0  0  0
   78.0280   26.5070   14.2840 O   0  0  0  0  0  0  0  0  0  0  0  0
   75.7790   25.6160   14.4890 C   0  0  0  0  0  0  0  0  0  0  0  0
   76.2680   24.3940   14.7350 O   0  0  0  0  0  0  0  0  0  0  0  0
   74.4090   25.7240   14.4640 C   0  0  0  0  0  0  0  0  0  0  0  0
   73.9030   27.0110   14.2080 C   0  0  0  0  0  0  0  0  0  0  0  0
   74.7190   28.1380   13.9830 C   0  0  0  0  0  0  0  0  0  0  0  0
   73.9630   29.4160   13.7150 C   0  0  0  0  0  0  0  0  0  0  0  0
   75.8195   33.7858   14.7117 H   0  0  0  0  0  0  0  0  0  0  0  0
   75.3444   34.5871   13.2299 H   0  0  0  0  0  0  0  0  0  0  0  0
   75.5274   31.7864   13.4280 H   0  0  0  0  0  0  0  0  0  0  0  0
   75.8114   32.5715   11.8870 H   0  0  0  0  0  0  0  0  0  0  0  0
   77.7911   31.7115   14.0424 H   0  0  0  0  0  0  0  0  0  0  0  0
   78.4132   35.0111   11.2607 H   0  0  0  0  0  0  0  0  0  0  0  0
   79.3178   33.5291   10.8003 H   0  0  0  0  0  0  0  0  0  0  0  0
   77.5216   33.5213   10.8003 H   0  0  0  0  0  0  0  0  0  0  0  0
   80.4241   34.2162   13.0874 H   0  0  0  0  0  0  0  0  0  0  0  0
   79.7497   33.2423   14.4638 H   0  0  0  0  0  0  0  0  0  0  0  0
   81.0787   32.3339   11.9168 H   0  0  0  0  0  0  0  0  0  0  0  0
   81.2559   31.7708   13.6661 H   0  0  0  0  0  0  0  0  0  0  0  0
   78.1007   31.1255   11.1551 H   0  0  0  0  0  0  0  0  0  0  0  0
   76.3951   29.8040   11.8834 H   0  0  0  0  0  0  0  0  0  0  0  0
   77.9612   28.8473   11.8736 H   0  0  0  0  0  0  0  0  0  0  0  0
   78.0957   28.8609   14.2180 H   0  0  0  0  0  0  0  0  0  0  0  0
   76.6665   30.0331   14.3079 H   0  0  0  0  0  0  0  0  0  0  0  0
   78.5005   26.4332   15.1508 H   0  0  0  0  0  0  0  0  0  0  0  0
   76.3903   24.0885   15.6687 H   0  0  0  0  0  0  0  0  0  0  0  0
   73.7506   24.8593   14.6334 H   0  0  0  0  0  0  0  0  0  0  0  0
   72.8115   27.1453   14.1820 H   0  0  0  0  0  0  0  0  0  0  0  0
   73.6855   29.8851   14.6705 H   0  0  0  0  0  0  0  0  0  0  0  0
   74.5992   30.1046   13.1396 H   0  0  0  0  0  0  0  0  0  0  0  0
   73.0532   29.1900   13.1396 H   0  0  0  0  0  0  0  0  0  0  0  0
  1  2  2  0
  2  3  1  0
  2  6  1  0
  3  4  1  0
  4  5  1  0
  5  6  1  0
  5 10  1  0
  6  7  1  0
  6  8  1  0
  8  9  1  0
  9 11  1  0
 10 11  1  0
 10 13  1  0
 11 12  2  0
 13 14  1  0
 14 15  1  0
 15 16  2  0
 15 22  1  0
 16 17  1  0
 16 18  1  0
 18 19  1  0
 18 20  2  0
 20 21  1  0
 21 22  2  0
 22 23  1  0
  3 24  1  0
  3 25  1  0
  4 26  1  0
  4 27  1  0
  5 28  1  0
  7 29  1  0
  7 30  1  0
  7 31  1  0
  8 32  1  0
  8 33  1  0
  9 34  1  0
  9 35  1  0
 10 36  1  0
 13 37  1  0
 13 38  1  0
 14 39  1  0
 14 40  1  0
 17 41  1  0
 19 42  1  0
 20 43  1  0
 21 44  1  0
 23 45  1  0
 23 46  1  0
 23 47  1  0
A    1
OAD
A    2
CAP
A    3
CAI
A    4
CAL
A    5
CAV
A    6
CAW
A    7
CAB
A    8
CAN
A    9
CAJ
A   10
CAU
A   11
CAO
A   12
OAC
A   13
CAM
A   14
CAK
A   15
CAT
A   16
CAS
A   17
OAF
A   18
CAR
A   19
OAE
A   20
CAH
A   21
CAG
A   22
CAQ
A   23
CAA
M  END
