2ZI9_CL9_A_401
     RDKit          3D

 31 33  0  0  0  0  0  0  0  0999 V2000
   51.6650   67.6120  101.4690 C   0  0  0  0  0  0  0  0  0  0  0  0
   51.1760   65.6650  100.3950 C   0  0  0  0  0  0  0  0  0  0  0  0
   49.8550   65.7780  100.7980 C   0  0  0  0  0  0  0  0  0  0  0  0
   49.4590   66.8530  101.5490 C   0  0  0  0  0  0  0  0  0  0  0  0
   50.0840   63.9800   99.6460 C   0  0  0  0  0  0  0  0  0  0  0  0
   52.8630   68.8510  101.8870 Cl  0  0  0  0  0  0  0  0  0  0  0  0
   52.0790   66.5860  100.7300 N   0  0  0  0  0  0  0  0  0  0  0  0
   51.2930   64.5520   99.7070 N   0  0  0  0  0  0  0  0  0  0  0  0
   49.1890   64.7290  100.3280 N   0  0  0  0  0  0  0  0  0  0  0  0
   48.1820   66.9720  101.9520 N   0  0  0  0  0  0  0  0  0  0  0  0
   50.3830   67.7690  101.8770 N   0  0  0  0  0  0  0  0  0  0  0  0
   52.5180   64.0730   99.0510 C   0  0  0  0  0  0  0  0  0  0  0  0
   53.5000   63.3740   99.9500 C   0  0  0  0  0  0  0  0  0  0  0  0
   54.1710   62.4450   98.9660 C   0  0  0  0  0  0  0  0  0  0  0  0
   55.2510   63.1770   98.3830 O   0  0  0  0  0  0  0  0  0  0  0  0
   53.1500   62.1830   97.8750 C   0  0  0  0  0  0  0  0  0  0  0  0
   52.1190   63.1200   98.0760 O   0  0  0  0  0  0  0  0  0  0  0  0
   52.4660   60.8420   97.9520 C   0  0  0  0  0  0  0  0  0  0  0  0
   51.2860   61.0880   98.7010 O   0  0  0  0  0  0  0  0  0  0  0  0
   49.8537   63.0417   99.1200 H   0  0  0  0  0  0  0  0  0  0  0  0
   47.9590   66.9928  102.9574 H   0  0  0  0  0  0  0  0  0  0  0  0
   47.4266   67.0424  101.2554 H   0  0  0  0  0  0  0  0  0  0  0  0
   53.0262   64.9653   98.6567 H   0  0  0  0  0  0  0  0  0  0  0  0
   54.2170   64.0805  100.3936 H   0  0  0  0  0  0  0  0  0  0  0  0
   53.0464   62.8701  100.8163 H   0  0  0  0  0  0  0  0  0  0  0  0
   54.5241   61.5126   99.4307 H   0  0  0  0  0  0  0  0  0  0  0  0
   55.8156   63.5597   99.1005 H   0  0  0  0  0  0  0  0  0  0  0  0
   53.6883   62.2368   96.9172 H   0  0  0  0  0  0  0  0  0  0  0  0
   52.2181   60.4735   96.9456 H   0  0  0  0  0  0  0  0  0  0  0  0
   53.1027   60.0734   98.4146 H   0  0  0  0  0  0  0  0  0  0  0  0
   51.4939   61.0447   99.6680 H   0  0  0  0  0  0  0  0  0  0  0  0
  1  6  1  0
  1  7  2  0
  1 11  1  0
  2  3  2  0
  2  7  1  0
  2  8  1  0
  3  4  1  0
  3  9  1  0
  4 10  1  0
  4 11  2  0
  5  8  1  0
  5  9  2  0
  8 12  1  0
 12 13  1  0
 12 17  1  0
 13 14  1  0
 14 15  1  0
 14 16  1  0
 16 17  1  0
 16 18  1  0
 18 19  1  0
  5 20  1  0
 10 21  1  0
 10 22  1  0
 12 23  1  0
 13 24  1  0
 13 25  1  0
 14 26  1  0
 15 27  1  0
 16 28  1  0
 18 29  1  0
 18 30  1  0
 19 31  1  0
A    1
C2
A    2
C4
A    3
C5
A    4
C6
A    5
C8
A    6
CL
A    7
N3
A    8
N9
A    9
N7
A   10
N6
A   11
N1
A   12
C1'
A   13
C2'
A   14
C3'
A   15
O3'
A   16
C4'
A   17
O4'
A   18
C5'
A   19
O5'
M  END
