2ZIR_NH7_B_903
     RDKit          3D

 66 71  0  0  0  0  0  0  0  0999 V2000
   20.1290  126.2860    3.1920 C   0  0  0  0  0  0  0  0  0  0  0  0
   18.5840  128.2370    0.4490 C   0  0  0  0  0  0  0  0  0  0  0  0
   17.5550  129.3660    0.6880 C   0  0  0  0  0  0  0  0  0  0  0  0
   17.6780  130.5520    1.3350 C   0  0  0  0  0  0  0  0  0  0  0  0
   16.3950  131.1460    1.3930 C   0  0  0  0  0  0  0  0  0  0  0  0
   15.8700  132.2980    2.0000 C   0  0  0  0  0  0  0  0  0  0  0  0
   14.5020  132.5540    1.8360 C   0  0  0  0  0  0  0  0  0  0  0  0
   13.6560  131.6980    1.0540 C   0  0  0  0  0  0  0  0  0  0  0  0
   14.1680  130.5620    0.4200 C   0  0  0  0  0  0  0  0  0  0  0  0
   17.8860  127.2620   -0.4810 C   0  0  0  0  0  0  0  0  0  0  0  0
   16.8980  126.4260    0.0410 C   0  0  0  0  0  0  0  0  0  0  0  0
   16.4890  125.5450   -2.1780 C   0  0  0  0  0  0  0  0  0  0  0  0
   13.3760  129.6620   -0.4390 C   0  0  0  0  0  0  0  0  0  0  0  0
   12.5300  130.1480   -1.4570 C   0  0  0  0  0  0  0  0  0  0  0  0
   11.7890  129.2910   -2.2730 C   0  0  0  0  0  0  0  0  0  0  0  0
   11.8830  127.9140   -2.0620 C   0  0  0  0  0  0  0  0  0  0  0  0
   12.7220  127.4060   -1.0530 C   0  0  0  0  0  0  0  0  0  0  0  0
   19.9700  126.5650    1.8640 N   0  0  0  0  0  0  0  0  0  0  0  0
   19.3670  127.0880    3.9130 N   0  0  0  0  0  0  0  0  0  0  0  0
   18.7080  127.8960    3.0540 C   0  0  0  0  0  0  0  0  0  0  0  0
   19.0440  127.6100    1.7660 C   0  0  0  0  0  0  0  0  0  0  0  0
   20.6580  125.8530    0.7810 C   0  0  0  0  0  0  0  0  0  0  0  0
   19.7140  128.8350   -0.2050 O   0  0  0  0  0  0  0  0  0  0  0  0
   16.2560  129.2510    0.2010 O   0  0  0  0  0  0  0  0  0  0  0  0
   15.5480  130.3190    0.6520 C   0  0  0  0  0  0  0  0  0  0  0  0
   16.1950  125.5630   -0.8050 C   0  0  0  0  0  0  0  0  0  0  0  0
   17.4840  126.3740   -2.7280 C   0  0  0  0  0  0  0  0  0  0  0  0
   18.1740  127.2290   -1.8640 C   0  0  0  0  0  0  0  0  0  0  0  0
   15.5510  124.4920   -3.1680 Cl  0  0  0  0  0  0  0  0  0  0  0  0
   13.4610  128.2670   -0.2390 C   0  0  0  0  0  0  0  0  0  0  0  0
   13.9430  133.7330    2.4940 C   0  0  0  0  0  0  0  0  0  0  0  0
   12.7590  133.7790    2.8510 O   0  0  0  0  0  0  0  0  0  0  0  0
   14.7920  134.7940    2.7190 N   0  0  0  0  0  0  0  0  0  0  0  0
   14.3260  136.0240    3.3410 N   0  0  0  0  0  0  0  0  0  0  0  0
   13.6870  136.8730    2.3150 C   0  0  0  0  0  0  0  0  0  0  0  0
   13.2640  138.2010    2.9230 C   0  0  0  0  0  0  0  0  0  0  0  0
   14.3360  138.8000    3.6250 O   0  0  0  0  0  0  0  0  0  0  0  0
   14.8290  138.0010    4.6930 C   0  0  0  0  0  0  0  0  0  0  0  0
   15.4020  136.7130    4.1040 C   0  0  0  0  0  0  0  0  0  0  0  0
   20.7927  125.5093    3.5997 H   0  0  0  0  0  0  0  0  0  0  0  0
   18.6081  130.9758    1.7415 H   0  0  0  0  0  0  0  0  0  0  0  0
   16.5100  132.9759    2.5838 H   0  0  0  0  0  0  0  0  0  0  0  0
   12.5877  131.9396    0.9519 H   0  0  0  0  0  0  0  0  0  0  0  0
   16.6725  126.4460    1.1174 H   0  0  0  0  0  0  0  0  0  0  0  0
   12.4515  131.2341   -1.6128 H   0  0  0  0  0  0  0  0  0  0  0  0
   11.1431  129.6932   -3.0674 H   0  0  0  0  0  0  0  0  0  0  0  0
   11.2985  127.2231   -2.6874 H   0  0  0  0  0  0  0  0  0  0  0  0
   12.7966  126.3187   -0.9038 H   0  0  0  0  0  0  0  0  0  0  0  0
   17.9963  128.6790    3.3545 H   0  0  0  0  0  0  0  0  0  0  0  0
   21.3618  125.1246    1.2102 H   0  0  0  0  0  0  0  0  0  0  0  0
   19.9181  125.3262    0.1605 H   0  0  0  0  0  0  0  0  0  0  0  0
   21.2099  126.5744    0.1605 H   0  0  0  0  0  0  0  0  0  0  0  0
   20.3494  129.1712    0.4757 H   0  0  0  0  0  0  0  0  0  0  0  0
   15.4160  124.9019   -0.3974 H   0  0  0  0  0  0  0  0  0  0  0  0
   17.7116  126.3500   -3.8039 H   0  0  0  0  0  0  0  0  0  0  0  0
   18.9560  127.8886   -2.2683 H   0  0  0  0  0  0  0  0  0  0  0  0
   14.1060  127.8604    0.5539 H   0  0  0  0  0  0  0  0  0  0  0  0
   15.7804  134.7148    2.4403 H   0  0  0  0  0  0  0  0  0  0  0  0
   14.4016  137.0577    1.4994 H   0  0  0  0  0  0  0  0  0  0  0  0
   12.7975  136.3569    1.9245 H   0  0  0  0  0  0  0  0  0  0  0  0
   12.9376  138.8772    2.1192 H   0  0  0  0  0  0  0  0  0  0  0  0
   12.4409  138.0174    3.6292 H   0  0  0  0  0  0  0  0  0  0  0  0
   15.6176  138.5464    5.2322 H   0  0  0  0  0  0  0  0  0  0  0  0
   14.0170  137.7671    5.3973 H   0  0  0  0  0  0  0  0  0  0  0  0
   15.7583  136.0605    4.9147 H   0  0  0  0  0  0  0  0  0  0  0  0
   16.2466  136.9455    3.4387 H   0  0  0  0  0  0  0  0  0  0  0  0
  1 18  1  0
  1 19  2  0
  2  3  1  0
  2 10  1  0
  2 21  1  0
  2 23  1  0
  3  4  2  0
  3 24  1  0
  4  5  1  0
  5  6  2  0
  5 25  1  0
  6  7  1  0
  7  8  2  0
  7 31  1  0
  8  9  1  0
  9 13  1  0
  9 25  2  0
 10 11  2  0
 10 28  1  0
 11 26  1  0
 12 26  2  0
 12 27  1  0
 12 29  1  0
 13 14  2  0
 13 30  1  0
 14 15  1  0
 15 16  2  0
 16 17  1  0
 17 30  2  0
 18 21  1  0
 18 22  1  0
 19 20  1  0
 20 21  2  0
 24 25  1  0
 27 28  2  0
 31 32  2  0
 31 33  1  0
 33 34  1  0
 34 35  1  0
 34 39  1  0
 35 36  1  0
 36 37  1  0
 37 38  1  0
 38 39  1  0
  1 40  1  0
  4 41  1  0
  6 42  1  0
  8 43  1  0
 11 44  1  0
 14 45  1  0
 15 46  1  0
 16 47  1  0
 17 48  1  0
 20 49  1  0
 22 50  1  0
 22 51  1  0
 22 52  1  0
 23 53  1  0
 26 54  1  0
 27 55  1  0
 28 56  1  0
 30 57  1  0
 33 58  1  0
 35 59  1  0
 35 60  1  0
 36 61  1  0
 36 62  1  0
 38 63  1  0
 38 64  1  0
 39 65  1  0
 39 66  1  0
A    1
C2
A    2
C7
A    3
C10
A    4
C11
A    5
C12
A    6
C13
A    7
C14
A    8
C15
A    9
C16
A   10
C21
A   11
C22
A   12
C24
A   13
C31
A   14
C32
A   15
C33
A   16
C34
A   17
C35
A   18
N1
A   19
N3
A   20
C4
A   21
C5
A   22
C6
A   23
O8
A   24
O9
A   25
C17
A   26
C23
A   27
C25
A   28
C26
A   29
CL27
A   30
C36
A   31
C41
A   32
O42
A   33
N43
A   34
N44
A   35
C45
A   36
C46
A   37
O47
A   38
C48
A   39
C49
M  END
