2ZIS_NH8_B_903
     RDKit          3D

 53 57  0  0  0  0  0  0  0  0999 V2000
   72.3250   80.6270    3.1800 C   0  0  0  0  0  0  0  0  0  0  0  0
   70.0400   80.2090    0.3360 C   0  0  0  0  0  0  0  0  0  0  0  0
   68.5900   79.8560    0.5940 C   0  0  0  0  0  0  0  0  0  0  0  0
   67.5660   80.5170    1.2180 C   0  0  0  0  0  0  0  0  0  0  0  0
   66.4880   79.6060    1.3360 C   0  0  0  0  0  0  0  0  0  0  0  0
   65.2310   79.6100    1.9900 C   0  0  0  0  0  0  0  0  0  0  0  0
   64.4410   78.4620    1.8550 C   0  0  0  0  0  0  0  0  0  0  0  0
   64.8190   77.3350    1.0550 C   0  0  0  0  0  0  0  0  0  0  0  0
   66.0310   77.3300    0.3560 C   0  0  0  0  0  0  0  0  0  0  0  0
   70.5340   79.1100   -0.5600 C   0  0  0  0  0  0  0  0  0  0  0  0
   71.0230   77.9170   -0.0210 C   0  0  0  0  0  0  0  0  0  0  0  0
   71.3260   77.0650   -2.2710 C   0  0  0  0  0  0  0  0  0  0  0  0
   71.7180   75.9860   -3.1160 C   0  0  0  0  0  0  0  0  0  0  0  0
   66.4520   76.2520   -0.5700 C   0  0  0  0  0  0  0  0  0  0  0  0
   65.6160   75.8330   -1.6230 C   0  0  0  0  0  0  0  0  0  0  0  0
   66.0020   74.8330   -2.5090 C   0  0  0  0  0  0  0  0  0  0  0  0
   67.2500   74.2280   -2.3550 C   0  0  0  0  0  0  0  0  0  0  0  0
   68.1160   74.6180   -1.3150 C   0  0  0  0  0  0  0  0  0  0  0  0
   72.0670   80.7000    1.8420 N   0  0  0  0  0  0  0  0  0  0  0  0
   71.2980   80.2020    3.8610 N   0  0  0  0  0  0  0  0  0  0  0  0
   70.3750   80.0030    2.9390 C   0  0  0  0  0  0  0  0  0  0  0  0
   70.7670   80.2870    1.6640 C   0  0  0  0  0  0  0  0  0  0  0  0
   73.0490   81.1130    0.8100 C   0  0  0  0  0  0  0  0  0  0  0  0
   70.1390   81.4770   -0.3000 O   0  0  0  0  0  0  0  0  0  0  0  0
   68.1400   78.6400    0.1510 O   0  0  0  0  0  0  0  0  0  0  0  0
   66.8670   78.4700    0.5940 C   0  0  0  0  0  0  0  0  0  0  0  0
   71.4240   76.8950   -0.8840 C   0  0  0  0  0  0  0  0  0  0  0  0
   70.8350   78.2710   -2.8030 C   0  0  0  0  0  0  0  0  0  0  0  0
   70.4320   79.2970   -1.9420 C   0  0  0  0  0  0  0  0  0  0  0  0
   71.9850   75.0900   -3.7780 N   0  0  0  0  0  0  0  0  0  0  0  0
   67.7100   75.6280   -0.4290 C   0  0  0  0  0  0  0  0  0  0  0  0
   69.4040   73.9850   -1.1810 C   0  0  0  0  0  0  0  0  0  0  0  0
   70.4400   73.4910   -1.1080 N   0  0  0  0  0  0  0  0  0  0  0  0
   63.1590   78.4120    2.5800 N   0  0  0  0  0  0  0  0  0  0  0  0
   62.5660   79.4880    2.7930 O   0  0  0  0  0  0  0  0  0  0  0  0
   62.7030   77.3080    2.9550 O   0  0  0  0  0  0  0  0  0  0  0  0
   73.2906   80.8964    3.6328 H   0  0  0  0  0  0  0  0  0  0  0  0
   67.5783   81.5613    1.5634 H   0  0  0  0  0  0  0  0  0  0  0  0
   64.8912   80.4759    2.5772 H   0  0  0  0  0  0  0  0  0  0  0  0
   64.1494   76.4647    0.9897 H   0  0  0  0  0  0  0  0  0  0  0  0
   71.0912   77.7847    1.0689 H   0  0  0  0  0  0  0  0  0  0  0  0
   64.6322   76.3090   -1.7479 H   0  0  0  0  0  0  0  0  0  0  0  0
   65.3304   74.5221   -3.3229 H   0  0  0  0  0  0  0  0  0  0  0  0
   67.5610   73.4375   -3.0538 H   0  0  0  0  0  0  0  0  0  0  0  0
   69.3665   79.6361    3.1804 H   0  0  0  0  0  0  0  0  0  0  0  0
   73.9569   81.4948    1.2998 H   0  0  0  0  0  0  0  0  0  0  0  0
   73.3074   80.2473    0.1824 H   0  0  0  0  0  0  0  0  0  0  0  0
   72.6110   81.9031    0.1824 H   0  0  0  0  0  0  0  0  0  0  0  0
   70.1945   82.1874    0.3872 H   0  0  0  0  0  0  0  0  0  0  0  0
   71.8180   75.9536   -0.4734 H   0  0  0  0  0  0  0  0  0  0  0  0
   70.7682   78.4068   -3.8925 H   0  0  0  0  0  0  0  0  0  0  0  0
   70.0390   80.2409   -2.3477 H   0  0  0  0  0  0  0  0  0  0  0  0
   68.3810   75.9372    0.3859 H   0  0  0  0  0  0  0  0  0  0  0  0
  1 19  1  0
  1 20  2  0
  2  3  1  0
  2 10  1  0
  2 22  1  0
  2 24  1  0
  3  4  2  0
  3 25  1  0
  4  5  1  0
  5  6  2  0
  5 26  1  0
  6  7  1  0
  7  8  2  0
  7 34  1  0
  8  9  1  0
  9 14  1  0
  9 26  2  0
 10 11  2  0
 10 29  1  0
 11 27  1  0
 12 13  1  0
 12 27  2  0
 12 28  1  0
 13 30  3  0
 14 15  2  0
 14 31  1  0
 15 16  1  0
 16 17  2  0
 17 18  1  0
 18 31  2  0
 18 32  1  0
 19 22  1  0
 19 23  1  0
 20 21  1  0
 21 22  2  0
 25 26  1  0
 28 29  2  0
 32 33  3  0
 34 35  1  0
 34 36  2  0
  1 37  1  0
  4 38  1  0
  6 39  1  0
  8 40  1  0
 11 41  1  0
 15 42  1  0
 16 43  1  0
 17 44  1  0
 21 45  1  0
 23 46  1  0
 23 47  1  0
 23 48  1  0
 24 49  1  0
 27 50  1  0
 28 51  1  0
 29 52  1  0
 31 53  1  0
M  CHG  2  34   1  35  -1
A    1
C2
A    2
C7
A    3
C10
A    4
C11
A    5
C12
A    6
C13
A    7
C14
A    8
C15
A    9
C16
A   10
C21
A   11
C22
A   12
C24
A   13
C27
A   14
C31
A   15
C32
A   16
C33
A   17
C34
A   18
C35
A   19
N1
A   20
N3
A   21
C4
A   22
C5
A   23
C6
A   24
O8
A   25
O9
A   26
C17
A   27
C23
A   28
C25
A   29
C26
A   30
N28
A   31
C36
A   32
C37
A   33
N38
A   34
N41
A   35
O42
A   36
O43
M  END
