1PK9_2FA_A_306
     RDKit          3D

 32 34  0  0  0  0  0  0  0  0999 V2000
   94.2360   66.0700   17.2030 O   0  0  0  0  0  0  0  0  0  0  0  0
   93.7440   65.0540   18.1070 C   0  0  0  0  0  0  0  0  0  0  0  0
   94.2310   65.2630   19.5480 C   0  0  0  0  0  0  0  0  0  0  0  0
   93.8630   66.5550   20.1320 O   0  0  0  0  0  0  0  0  0  0  0  0
   92.6220   66.4420   20.8330 C   0  0  0  0  0  0  0  0  0  0  0  0
   91.5490   67.0970   20.0070 N   0  0  0  0  0  0  0  0  0  0  0  0
   90.4880   66.5670   19.2300 C   0  0  0  0  0  0  0  0  0  0  0  0
   90.1420   65.2480   19.0220 N   0  0  0  0  0  0  0  0  0  0  0  0
   89.0660   65.1200   18.2150 C   0  0  0  0  0  0  0  0  0  0  0  0
   88.6350   63.9180   17.9340 F   0  0  0  0  0  0  0  0  0  0  0  0
   88.3570   66.1080   17.6400 N   0  0  0  0  0  0  0  0  0  0  0  0
   88.7270   67.3890   17.8670 C   0  0  0  0  0  0  0  0  0  0  0  0
   88.0380   68.3590   17.3070 N   0  0  0  0  0  0  0  0  0  0  0  0
   89.8350   67.6590   18.6930 C   0  0  0  0  0  0  0  0  0  0  0  0
   90.4310   68.8420   19.0970 N   0  0  0  0  0  0  0  0  0  0  0  0
   91.4100   68.4290   19.8510 C   0  0  0  0  0  0  0  0  0  0  0  0
   92.4580   64.9150   21.1710 C   0  0  0  0  0  0  0  0  0  0  0  0
   92.1550   64.6120   22.5710 O   0  0  0  0  0  0  0  0  0  0  0  0
   93.7320   64.2300   20.5720 C   0  0  0  0  0  0  0  0  0  0  0  0
   94.7430   64.0680   21.5550 O   0  0  0  0  0  0  0  0  0  0  0  0
   94.6025   66.8269   17.7253 H   0  0  0  0  0  0  0  0  0  0  0  0
   92.6443   65.0777   18.0994 H   0  0  0  0  0  0  0  0  0  0  0  0
   94.1301   64.0838   17.7612 H   0  0  0  0  0  0  0  0  0  0  0  0
   95.3165   65.1729   19.3948 H   0  0  0  0  0  0  0  0  0  0  0  0
   92.5633   66.9741   21.7939 H   0  0  0  0  0  0  0  0  0  0  0  0
   87.5482   69.0486   17.8948 H   0  0  0  0  0  0  0  0  0  0  0  0
   87.9881   68.4292   16.2806 H   0  0  0  0  0  0  0  0  0  0  0  0
   92.0947   69.1376   20.3400 H   0  0  0  0  0  0  0  0  0  0  0  0
   91.5493   64.4977   20.7126 H   0  0  0  0  0  0  0  0  0  0  0  0
   92.7178   65.1748   23.1597 H   0  0  0  0  0  0  0  0  0  0  0  0
   93.5087   63.2338   20.1623 H   0  0  0  0  0  0  0  0  0  0  0  0
   94.3398   64.1326   22.4569 H   0  0  0  0  0  0  0  0  0  0  0  0
  1  2  1  0
  2  3  1  0
  3  4  1  0
  3 19  1  0
  4  5  1  0
  5  6  1  0
  5 17  1  0
  6  7  1  0
  6 16  1  0
  7  8  2  0
  7 14  1  0
  8  9  1  0
  9 10  1  0
  9 11  2  0
 11 12  1  0
 12 13  1  0
 12 14  2  0
 14 15  1  0
 15 16  2  0
 17 18  1  0
 17 19  1  0
 19 20  1  0
  1 21  1  0
  2 22  1  0
  2 23  1  0
  3 24  1  0
  5 25  1  0
 13 26  1  0
 13 27  1  0
 16 28  1  0
 17 29  1  0
 18 30  1  0
 19 31  1  0
 20 32  1  0
A    1
O5'
A    2
C5'
A    3
C4'
A    4
O4'
A    5
C1'
A    6
N9
A    7
C4
A    8
N3
A    9
C2
A   10
F
A   11
N1
A   12
C6
A   13
N6
A   14
C5
A   15
N7
A   16
C8
A   17
C2'
A   18
O2'
A   19
C3'
A   20
O3'
M  END
