2ZJU_IM4_A_301
     RDKit          3D

 27 28  0  0  0  0  0  0  0  0999 V2000
   29.9310  -27.6730  -31.5650 C   0  0  0  0  0  0  0  0  0  0  0  0
   29.4720  -26.8520  -32.6270 C   0  0  0  0  0  0  0  0  0  0  0  0
   29.4520  -25.4450  -32.4270 C   0  0  0  0  0  0  0  0  0  0  0  0
   28.9030  -24.4050  -33.7080 Cl  0  0  0  0  0  0  0  0  0  0  0  0
   29.8530  -24.9010  -31.2700 N   0  0  0  0  0  0  0  0  0  0  0  0
   30.2930  -25.6520  -30.2440 C   0  0  0  0  0  0  0  0  0  0  0  0
   30.3560  -27.0840  -30.3420 C   0  0  0  0  0  0  0  0  0  0  0  0
   30.8620  -27.9590  -29.1820 C   0  0  0  0  0  0  0  0  0  0  0  0
   30.4740  -27.5720  -27.8100 N   0  0  0  0  0  0  0  0  0  0  0  0
   31.2770  -26.6650  -26.9730 C   0  0  0  0  0  0  0  0  0  0  0  0
   30.5190  -26.5320  -25.6360 C   0  0  0  0  0  0  0  0  0  0  0  0
   29.3270  -27.3680  -25.7820 N   0  0  0  0  0  0  0  0  0  0  0  0
   29.3130  -27.9570  -27.0660 C   0  0  0  0  0  0  0  0  0  0  0  0
   28.4160  -28.7680  -27.5020 N   0  0  0  0  0  0  0  0  0  0  0  0
   27.2430  -29.2760  -26.9930 N   0  0  0  0  0  0  0  0  0  0  0  0
   26.8050  -29.0090  -25.7960 O   0  0  0  0  0  0  0  0  0  0  0  0
   26.5520  -30.0730  -27.7290 O   0  0  0  0  0  0  0  0  0  0  0  0
   29.9583  -28.7658  -31.6874 H   0  0  0  0  0  0  0  0  0  0  0  0
   29.1407  -27.2922  -33.5791 H   0  0  0  0  0  0  0  0  0  0  0  0
   30.6105  -25.1604  -29.3126 H   0  0  0  0  0  0  0  0  0  0  0  0
   30.4890  -28.9796  -29.3534 H   0  0  0  0  0  0  0  0  0  0  0  0
   31.9558  -27.8448  -29.2043 H   0  0  0  0  0  0  0  0  0  0  0  0
   32.2782  -27.0881  -26.8037 H   0  0  0  0  0  0  0  0  0  0  0  0
   31.4125  -25.6865  -27.4569 H   0  0  0  0  0  0  0  0  0  0  0  0
   31.1414  -26.8909  -24.8031 H   0  0  0  0  0  0  0  0  0  0  0  0
   30.2611  -25.4861  -25.4135 H   0  0  0  0  0  0  0  0  0  0  0  0
   28.6072  -27.5061  -25.0583 H   0  0  0  0  0  0  0  0  0  0  0  0
  1  7  2  0
  2  1  1  0
  2  3  2  0
  3  5  1  0
  4  3  1  0
  5  6  2  0
  7  6  1  0
  7  8  1  0
  8  9  1  0
  9 13  1  0
  9 10  1  0
 10 11  1  0
 12 11  1  0
 13 12  1  0
 14 13  2  0
 14 15  1  0
 15 17  1  0
 16 15  2  0
  1 18  1  0
  2 19  1  0
  6 20  1  0
  8 21  1  0
  8 22  1  0
 10 23  1  0
 10 24  1  0
 11 25  1  0
 11 26  1  0
 12 27  1  0
M  CHG  2  15   1  17  -1
A    1
C5
A    2
C6
A    3
C1
A    4
CL7
A    5
N2
A    6
C3
A    7
C4
A    8
C8
A    9
N9
A   10
C13
A   11
C12
A   12
N11
A   13
C10
A   14
N14
A   15
N15
A   16
O16
A   17
O17
M  END
