2ZJW_REF_A_336
     RDKit          3D

 28 31  0  0  0  0  0  0  0  0999 V2000
   36.2990   -4.1210   11.3460 C   0  0  0  0  0  0  0  0  0  0  0  0
   36.7620   -3.9980   10.0510 C   0  0  0  0  0  0  0  0  0  0  0  0
   37.0360   -5.1560    9.3730 C   0  0  0  0  0  0  0  0  0  0  0  0
   36.8540   -6.3910    9.9870 C   0  0  0  0  0  0  0  0  0  0  0  0
   36.4080   -6.4780   11.2130 O   0  0  0  0  0  0  0  0  0  0  0  0
   36.1270   -5.3960   11.8930 C   0  0  0  0  0  0  0  0  0  0  0  0
   37.4950   -5.0300    8.0770 C   0  0  0  0  0  0  0  0  0  0  0  0
   37.8020   -6.1670    7.3410 C   0  0  0  0  0  0  0  0  0  0  0  0
   37.6380   -7.4090    7.9360 C   0  0  0  0  0  0  0  0  0  0  0  0
   37.1730   -7.5170    9.2340 C   0  0  0  0  0  0  0  0  0  0  0  0
   36.9570   -2.7650    9.4290 C   0  0  0  0  0  0  0  0  0  0  0  0
   37.3840   -2.6760    8.2030 O   0  0  0  0  0  0  0  0  0  0  0  0
   37.6500   -3.7590    7.5280 C   0  0  0  0  0  0  0  0  0  0  0  0
   36.0200   -2.9650   12.0640 C   0  0  0  0  0  0  0  0  0  0  0  0
   36.2260   -1.7260   11.4630 C   0  0  0  0  0  0  0  0  0  0  0  0
   36.6900   -1.6180   10.1560 C   0  0  0  0  0  0  0  0  0  0  0  0
   37.0570   -8.7500    9.7080 O   0  0  0  0  0  0  0  0  0  0  0  0
   37.9390   -8.5720    7.2540 O   0  0  0  0  0  0  0  0  0  0  0  0
   38.0940   -3.6720    6.2710 O   0  0  0  0  0  0  0  0  0  0  0  0
   36.8970   -0.3670    9.5960 O   0  0  0  0  0  0  0  0  0  0  0  0
   35.9810   -0.5860   12.1650 O   0  0  0  0  0  0  0  0  0  0  0  0
   35.6540   -5.5010   13.1600 O   0  0  0  0  0  0  0  0  0  0  0  0
   38.1679   -6.0842    6.3069 H   0  0  0  0  0  0  0  0  0  0  0  0
   35.6410   -3.0277   13.0947 H   0  0  0  0  0  0  0  0  0  0  0  0
   37.0424   -8.9051   10.6857 H   0  0  0  0  0  0  0  0  0  0  0  0
   38.1529   -9.3985    7.7552 H   0  0  0  0  0  0  0  0  0  0  0  0
   37.0275    0.4215   10.1803 H   0  0  0  0  0  0  0  0  0  0  0  0
   35.9848   -0.6037   13.1548 H   0  0  0  0  0  0  0  0  0  0  0  0
  1  2  2  0
  1  6  1  0
  1 14  1  0
  2  3  1  0
  2 11  1  0
  3  4  2  0
  3  7  1  0
  4  5  1  0
  4 10  1  0
  5  6  1  0
  6 22  2  0
  7  8  2  0
  7 13  1  0
  8  9  1  0
  9 10  2  0
  9 18  1  0
 10 17  1  0
 11 12  1  0
 11 16  2  0
 12 13  1  0
 13 19  2  0
 14 15  2  0
 15 16  1  0
 15 21  1  0
 16 20  1  0
  8 23  1  0
 14 24  1  0
 17 25  1  0
 18 26  1  0
 20 27  1  0
 21 28  1  0
A    1
C1
A    2
C2
A    3
C3
A    4
C4
A    5
O5
A    6
C6
A    7
C7
A    8
C8
A    9
C9
A   10
C10
A   11
C11
A   12
O12
A   13
C13
A   14
C14
A   15
C15
A   16
C16
A   17
O19
A   18
O20
A   19
O21
A   20
O22
A   21
O23
A   22
O24
M  END
