2ZL9_VDA_A_500
     RDKit          3D

 80 82  0  0  0  0  0  0  0  0999 V2000
   16.3410    8.5980   19.3420 O   0  0  0  0  0  0  0  0  0  0  0  0
   14.8080    6.0380   19.0690 C   0  0  0  0  0  0  0  0  0  0  0  0
   14.2840    7.4410   18.4440 C   0  0  0  0  0  0  0  0  0  0  0  0
   14.9110    8.7130   19.3480 C   0  0  0  0  0  0  0  0  0  0  0  0
   14.3940    8.5480   20.8990 C   0  0  0  0  0  0  0  0  0  0  0  0
   14.5510    7.1360   21.5440 C   0  0  0  0  0  0  0  0  0  0  0  0
   14.4340    6.9300   22.8700 C   0  0  0  0  0  0  0  0  0  0  0  0
   14.9500    5.8200   23.7210 C   0  0  0  0  0  0  0  0  0  0  0  0
   14.7270    5.7010   24.9460 C   0  0  0  0  0  0  0  0  0  0  0  0
   14.5130    6.9710   26.0340 C   0  0  0  0  0  0  0  0  0  0  0  0
   14.2540    5.9190   20.5420 C   0  0  0  0  0  0  0  0  0  0  0  0
   13.2560    6.8210   27.0190 C   0  0  0  0  0  0  0  0  0  0  0  0
   13.0920    5.2500   27.5770 C   0  0  0  0  0  0  0  0  0  0  0  0
   13.3020    4.0410   26.4080 C   0  0  0  0  0  0  0  0  0  0  0  0
   14.7280    4.3520   25.7280 C   0  0  0  0  0  0  0  0  0  0  0  0
   15.2170    2.8980   25.0260 C   0  0  0  0  0  0  0  0  0  0  0  0
   14.3660    1.8440   25.7870 C   0  0  0  0  0  0  0  0  0  0  0  0
   13.6240    2.5980   26.9440 C   0  0  0  0  0  0  0  0  0  0  0  0
   11.9380    4.1960   25.4170 C   0  0  0  0  0  0  0  0  0  0  0  0
   12.7980    2.1640   28.3430 C   0  0  0  0  0  0  0  0  0  0  0  0
   13.5490    0.7910   28.7320 C   0  0  0  0  0  0  0  0  0  0  0  0
   11.1240    2.2280   28.3240 S   0  0  0  0  0  0  0  0  0  0  0  0
   10.5510    1.2170   27.3460 C   0  0  0  0  0  0  0  0  0  0  0  0
    9.3350    0.3720   27.8180 C   0  0  0  0  0  0  0  0  0  0  0  0
   10.2420   -0.7520   28.3940 O   0  0  0  0  0  0  0  0  0  0  0  0
    8.2360    0.7570   28.5080 C   0  0  0  0  0  0  0  0  0  0  0  0
    9.1950   -0.3730   26.3910 C   0  0  0  0  0  0  0  0  0  0  0  0
   14.3890    4.9190   18.2980 O   0  0  0  0  0  0  0  0  0  0  0  0
   14.6250    7.6200   17.0800 O   0  0  0  0  0  0  0  0  0  0  0  0
   13.5380    8.1210   16.4560 C   0  0  0  0  0  0  0  0  0  0  0  0
   14.1280    8.2440   14.8780 C   0  0  0  0  0  0  0  0  0  0  0  0
   13.7680    6.9850   14.2920 O   0  0  0  0  0  0  0  0  0  0  0  0
    7.3870    1.9740   27.7060 C   0  0  0  0  0  0  0  0  0  0  0  0
    8.1670   -1.6240   26.2360 C   0  0  0  0  0  0  0  0  0  0  0  0
   16.6738    8.5712   20.2740 H   0  0  0  0  0  0  0  0  0  0  0  0
   15.9080    6.0355   19.0622 H   0  0  0  0  0  0  0  0  0  0  0  0
   13.1852    7.4197   18.4906 H   0  0  0  0  0  0  0  0  0  0  0  0
   14.5917    9.6803   18.9328 H   0  0  0  0  0  0  0  0  0  0  0  0
   14.9598    9.2612   21.5165 H   0  0  0  0  0  0  0  0  0  0  0  0
   13.3098    8.7302   20.8630 H   0  0  0  0  0  0  0  0  0  0  0  0
   13.8682    7.7031   23.4105 H   0  0  0  0  0  0  0  0  0  0  0  0
   15.5707    5.0513   23.2374 H   0  0  0  0  0  0  0  0  0  0  0  0
   15.4210    7.0481   26.6501 H   0  0  0  0  0  0  0  0  0  0  0  0
   14.3186    7.8659   25.4246 H   0  0  0  0  0  0  0  0  0  0  0  0
   13.1619    5.8057   20.4754 H   0  0  0  0  0  0  0  0  0  0  0  0
   14.7897    5.0614   20.9751 H   0  0  0  0  0  0  0  0  0  0  0  0
   13.3947    7.4924   27.8792 H   0  0  0  0  0  0  0  0  0  0  0  0
   12.3468    7.0829   26.4580 H   0  0  0  0  0  0  0  0  0  0  0  0
   13.8389    5.0908   28.3687 H   0  0  0  0  0  0  0  0  0  0  0  0
   12.0531    5.1581   27.9266 H   0  0  0  0  0  0  0  0  0  0  0  0
   15.5499    4.6137   26.4106 H   0  0  0  0  0  0  0  0  0  0  0  0
   14.9946    2.8837   23.9488 H   0  0  0  0  0  0  0  0  0  0  0  0
   16.2999    2.7204   25.1024 H   0  0  0  0  0  0  0  0  0  0  0  0
   14.2971    0.7705   25.5571 H   0  0  0  0  0  0  0  0  0  0  0  0
   11.0395    4.2981   26.0433 H   0  0  0  0  0  0  0  0  0  0  0  0
   12.0456    5.0877   24.7819 H   0  0  0  0  0  0  0  0  0  0  0  0
   11.8428    3.3029   24.7819 H   0  0  0  0  0  0  0  0  0  0  0  0
   12.8547    2.9087   29.1506 H   0  0  0  0  0  0  0  0  0  0  0  0
   13.5997    0.6983   29.8269 H   0  0  0  0  0  0  0  0  0  0  0  0
   12.9918   -0.0619   28.3172 H   0  0  0  0  0  0  0  0  0  0  0  0
   14.5678    0.8001   28.3172 H   0  0  0  0  0  0  0  0  0  0  0  0
   10.2398    1.7684   26.4465 H   0  0  0  0  0  0  0  0  0  0  0  0
   11.3584    0.4856   27.1936 H   0  0  0  0  0  0  0  0  0  0  0  0
   10.2174   -0.7215   29.3832 H   0  0  0  0  0  0  0  0  0  0  0  0
    7.5746   -0.1123   28.6379 H   0  0  0  0  0  0  0  0  0  0  0  0
    8.5642    1.1530   29.4803 H   0  0  0  0  0  0  0  0  0  0  0  0
    8.8831    0.3892   25.6618 H   0  0  0  0  0  0  0  0  0  0  0  0
   10.1835   -0.8320   26.2420 H   0  0  0  0  0  0  0  0  0  0  0  0
   14.1143    4.1854   18.9034 H   0  0  0  0  0  0  0  0  0  0  0  0
   12.6805    7.4348   16.5178 H   0  0  0  0  0  0  0  0  0  0  0  0
   13.1556    9.0613   16.8798 H   0  0  0  0  0  0  0  0  0  0  0  0
   13.6511    9.0784   14.3429 H   0  0  0  0  0  0  0  0  0  0  0  0
   15.2088    8.4446   14.8369 H   0  0  0  0  0  0  0  0  0  0  0  0
   13.5804    6.3288   15.0092 H   0  0  0  0  0  0  0  0  0  0  0  0
    6.9203    2.6430   28.4440 H   0  0  0  0  0  0  0  0  0  0  0  0
    8.0801    2.5502   27.0755 H   0  0  0  0  0  0  0  0  0  0  0  0
    6.6069    1.5225   27.0755 H   0  0  0  0  0  0  0  0  0  0  0  0
    7.8725   -1.9824   27.2334 H   0  0  0  0  0  0  0  0  0  0  0  0
    7.2727   -1.2976   25.6849 H   0  0  0  0  0  0  0  0  0  0  0  0
    8.6606   -2.4380   25.6849 H   0  0  0  0  0  0  0  0  0  0  0  0
  1  4  1  0
  2  3  1  0
  2 11  1  0
  2 28  1  0
  3  4  1  0
  3 29  1  0
  4  5  1  0
  5  6  1  0
  6  7  2  0
  6 11  1  0
  7  8  1  0
  8  9  2  0
  9 10  1  0
  9 15  1  0
 10 12  1  0
 12 13  1  0
 13 14  1  0
 14 15  1  0
 14 18  1  0
 14 19  1  0
 15 16  1  0
 16 17  1  0
 17 18  2  0
 18 20  1  0
 20 21  1  0
 20 22  1  0
 22 23  1  0
 23 24  1  0
 24 25  1  0
 24 26  1  0
 24 27  1  0
 26 33  1  0
 27 34  1  0
 29 30  1  0
 30 31  1  0
 31 32  1  0
  1 35  1  0
  2 36  1  0
  3 37  1  0
  4 38  1  0
  5 39  1  0
  5 40  1  0
  7 41  1  0
  8 42  1  0
 10 43  1  0
 10 44  1  0
 11 45  1  0
 11 46  1  0
 12 47  1  0
 12 48  1  0
 13 49  1  0
 13 50  1  0
 15 51  1  0
 16 52  1  0
 16 53  1  0
 17 54  1  0
 19 55  1  0
 19 56  1  0
 19 57  1  0
 20 58  1  0
 21 59  1  0
 21 60  1  0
 21 61  1  0
 23 62  1  0
 23 63  1  0
 25 64  1  0
 26 65  1  0
 26 66  1  0
 27 67  1  0
 27 68  1  0
 28 69  1  0
 30 70  1  0
 30 71  1  0
 31 72  1  0
 31 73  1  0
 32 74  1  0
 33 75  1  0
 33 76  1  0
 33 77  1  0
 34 78  1  0
 34 79  1  0
 34 80  1  0
A    1
O2
A    2
C1
A    3
C2
A    4
C3
A    5
C4
A    6
C5
A    7
C6
A    8
C7
A    9
C8
A   10
C9
A   11
C10
A   12
C11
A   13
C12
A   14
C13
A   15
C14
A   16
C15
A   17
C16
A   18
C17
A   19
C18
A   20
C20
A   21
C21
A   22
S22
A   23
C23
A   24
C25
A   25
O3
A   26
C26
A   27
C27
A   28
O1
A   29
O4
A   30
C30
A   31
C31
A   32
O5
A   33
C29
A   34
C28
M  END
