2ZLG_MRT_A_889
     RDKit          3D

141146  0  0  0  0  0  0  0  0999 V2000
   11.8780   19.0230   -1.9680 O   0  0  0  0  0  0  0  0  0  0  0  0
   10.9920   20.4400   -3.5320 O   0  0  0  0  0  0  0  0  0  0  0  0
   10.5730   21.7970   -3.4270 C   0  0  0  0  0  0  0  0  0  0  0  0
   11.7660   22.6290   -3.8750 C   0  0  0  0  0  0  0  0  0  0  0  0
   11.5700   24.0540   -3.6170 C   0  0  0  0  0  0  0  0  0  0  0  0
   11.4090   24.6640   -2.3830 C   0  0  0  0  0  0  0  0  0  0  0  0
   11.2370   26.0450   -2.3730 C   0  0  0  0  0  0  0  0  0  0  0  0
   11.2290   26.7740   -3.5660 C   0  0  0  0  0  0  0  0  0  0  0  0
   11.8690   22.6430   -5.3340 C   0  0  0  0  0  0  0  0  0  0  0  0
   12.0620   21.5530   -6.1670 C   0  0  0  0  0  0  0  0  0  0  0  0
   12.1300   21.7950   -7.5360 C   0  0  0  0  0  0  0  0  0  0  0  0
   12.0070   23.0900   -8.0440 C   0  0  0  0  0  0  0  0  0  0  0  0
   11.8120   24.1800   -7.1970 C   0  0  0  0  0  0  0  0  0  0  0  0
   11.7490   23.9140   -5.8410 C   0  0  0  0  0  0  0  0  0  0  0  0
   11.5670   24.7820   -4.7860 C   0  0  0  0  0  0  0  0  0  0  0  0
   11.3980   26.1530   -4.8010 C   0  0  0  0  0  0  0  0  0  0  0  0
   12.1030   19.9570   -2.7190 C   0  0  0  0  0  0  0  0  0  0  0  0
   16.4120   21.5540   -2.8190 C   0  0  0  0  0  0  0  0  0  0  0  0
   15.8480   20.2900   -3.4610 C   0  0  0  0  0  0  0  0  0  0  0  0
   16.4690   19.7920   -4.3950 O   0  0  0  0  0  0  0  0  0  0  0  0
   14.5660   19.6170   -2.9890 C   0  0  0  0  0  0  0  0  0  0  0  0
   14.8980   18.7490   -1.8130 C   0  0  0  0  0  0  0  0  0  0  0  0
   16.0760   18.0050   -1.8650 C   0  0  0  0  0  0  0  0  0  0  0  0
   16.4340   17.1720   -0.8080 C   0  0  0  0  0  0  0  0  0  0  0  0
   15.6200   17.0680    0.3160 C   0  0  0  0  0  0  0  0  0  0  0  0
   14.4430   17.8040    0.3780 C   0  0  0  0  0  0  0  0  0  0  0  0
   14.0910   18.6370   -0.6800 C   0  0  0  0  0  0  0  0  0  0  0  0
   13.4150   20.5650   -2.8440 N   0  0  0  0  0  0  0  0  0  0  0  0
   13.6710   21.5540   -1.7730 C   0  0  0  0  0  0  0  0  0  0  0  0
   19.3260   21.1210   -2.2710 O   0  0  0  0  0  0  0  0  0  0  0  0
   19.1710   21.7260   -1.2180 C   0  0  0  0  0  0  0  0  0  0  0  0
   17.7910   21.9410   -0.6390 C   0  0  0  0  0  0  0  0  0  0  0  0
   17.8000   21.2650    0.7340 C   0  0  0  0  0  0  0  0  0  0  0  0
   16.4360   21.2760    1.4110 C   0  0  0  0  0  0  0  0  0  0  0  0
   16.2940   22.4640    2.3520 C   0  0  0  0  0  0  0  0  0  0  0  0
   16.2020   19.9830    2.1790 C   0  0  0  0  0  0  0  0  0  0  0  0
   16.6780   21.3710   -1.3960 N   0  0  0  0  0  0  0  0  0  0  0  0
   20.1980   22.2090   -0.5040 N   0  0  0  0  0  0  0  0  0  0  0  0
   21.5890   22.0570   -0.9330 C   0  0  0  0  0  0  0  0  0  0  0  0
   21.8110   22.9490   -2.1570 C   0  0  0  0  0  0  0  0  0  0  0  0
   21.7980   24.4240   -1.8180 C   0  0  0  0  0  0  0  0  0  0  0  0
   22.6490   24.8810   -1.0210 O   0  0  0  0  0  0  0  0  0  0  0  0
   20.9340   25.1430   -2.3680 O   0  0  0  0  0  0  0  0  0  0  0  0
   22.5780   22.4150    0.1480 C   0  0  0  0  0  0  0  0  0  0  0  0
   22.1860   22.8410    1.2220 O   0  0  0  0  0  0  0  0  0  0  0  0
   23.8730   22.2380   -0.1390 N   0  0  0  0  0  0  0  0  0  0  0  0
   24.9440   22.5310    0.8130 C   0  0  0  0  0  0  0  0  0  0  0  0
   25.5310   21.1800    1.2180 C   0  0  0  0  0  0  0  0  0  0  0  0
   26.4410   21.3160    2.4370 C   0  0  0  0  0  0  0  0  0  0  0  0
   25.6530   21.7120    3.6810 C   0  0  0  0  0  0  0  0  0  0  0  0
   24.5480   20.7000    3.9650 C   0  0  0  0  0  0  0  0  0  0  0  0
   23.6360   20.5460    2.7540 C   0  0  0  0  0  0  0  0  0  0  0  0
   24.4380   20.1580    1.5150 C   0  0  0  0  0  0  0  0  0  0  0  0
   26.0310   23.4080    0.2370 C   0  0  0  0  0  0  0  0  0  0  0  0
   26.8890   23.8810    0.9730 O   0  0  0  0  0  0  0  0  0  0  0  0
   26.0040   23.6410   -1.0840 N   0  0  0  0  0  0  0  0  0  0  0  0
   26.9840   24.5000   -1.7500 C   0  0  0  0  0  0  0  0  0  0  0  0
   26.8690   24.2280   -3.2480 C   0  0  0  0  0  0  0  0  0  0  0  0
   25.7000   24.9820   -3.8400 C   0  0  0  0  0  0  0  0  0  0  0  0
   25.9140   26.0840   -4.3980 O   0  0  0  0  0  0  0  0  0  0  0  0
   24.5590   24.4700   -3.7640 O   0  0  0  0  0  0  0  0  0  0  0  0
   26.6290   25.9170   -1.4000 C   0  0  0  0  0  0  0  0  0  0  0  0
   27.1840   26.8860   -1.8920 O   0  0  0  0  0  0  0  0  0  0  0  0
   25.6430   25.9460   -0.5090 N   0  0  0  0  0  0  0  0  0  0  0  0
   24.9800   27.0340    0.1710 C   0  0  0  0  0  0  0  0  0  0  0  0
   26.0620   27.8790    0.7660 C   0  0  0  0  0  0  0  0  0  0  0  0
   25.9330   29.1320    0.7810 O   0  0  0  0  0  0  0  0  0  0  0  0
   27.0740   27.2700    1.2120 O   0  0  0  0  0  0  0  0  0  0  0  0
   24.2430   26.2120    1.2000 C   0  0  0  0  0  0  0  0  0  0  0  0
   24.0820   26.3970    2.6610 C   0  0  0  0  0  0  0  0  0  0  0  0
   24.5880   27.4880    3.3520 C   0  0  0  0  0  0  0  0  0  0  0  0
   24.3890   27.5910    4.7210 C   0  0  0  0  0  0  0  0  0  0  0  0
   23.6820   26.6080    5.3970 C   0  0  0  0  0  0  0  0  0  0  0  0
   23.1710   25.5140    4.7110 C   0  0  0  0  0  0  0  0  0  0  0  0
   23.3740   25.4130    3.3420 C   0  0  0  0  0  0  0  0  0  0  0  0
    9.7078   21.9834   -4.0802 H   0  0  0  0  0  0  0  0  0  0  0  0
   10.2624   22.0492   -2.4023 H   0  0  0  0  0  0  0  0  0  0  0  0
   12.6216   22.1869   -3.3435 H   0  0  0  0  0  0  0  0  0  0  0  0
   11.4168   24.0809   -1.4503 H   0  0  0  0  0  0  0  0  0  0  0  0
   11.1058   26.5693   -1.4149 H   0  0  0  0  0  0  0  0  0  0  0  0
   11.0858   27.8640   -3.5282 H   0  0  0  0  0  0  0  0  0  0  0  0
   12.1579   20.5348   -5.7618 H   0  0  0  0  0  0  0  0  0  0  0  0
   12.2829   20.9537   -8.2280 H   0  0  0  0  0  0  0  0  0  0  0  0
   12.0649   23.2527   -9.1304 H   0  0  0  0  0  0  0  0  0  0  0  0
   11.7129   25.2032   -7.5885 H   0  0  0  0  0  0  0  0  0  0  0  0
   11.3970   26.7250   -5.7406 H   0  0  0  0  0  0  0  0  0  0  0  0
   17.3518   21.8205   -3.3248 H   0  0  0  0  0  0  0  0  0  0  0  0
   15.6633   22.3528   -2.9252 H   0  0  0  0  0  0  0  0  0  0  0  0
   14.1663   18.9456   -3.7632 H   0  0  0  0  0  0  0  0  0  0  0  0
   16.7279   18.0766   -2.7481 H   0  0  0  0  0  0  0  0  0  0  0  0
   17.3671   16.5919   -0.8619 H   0  0  0  0  0  0  0  0  0  0  0  0
   15.9060   16.4085    1.1486 H   0  0  0  0  0  0  0  0  0  0  0  0
   13.7912   17.7285    1.2609 H   0  0  0  0  0  0  0  0  0  0  0  0
   13.1589   19.2182   -0.6220 H   0  0  0  0  0  0  0  0  0  0  0  0
   13.5464   21.0725   -0.7919 H   0  0  0  0  0  0  0  0  0  0  0  0
   14.6979   21.9372   -1.8656 H   0  0  0  0  0  0  0  0  0  0  0  0
   12.9590   22.3873   -1.8656 H   0  0  0  0  0  0  0  0  0  0  0  0
   17.6157   23.0269   -0.6349 H   0  0  0  0  0  0  0  0  0  0  0  0
   18.1207   20.2203    0.6084 H   0  0  0  0  0  0  0  0  0  0  0  0
   18.4906   21.8319    1.3756 H   0  0  0  0  0  0  0  0  0  0  0  0
   15.6782   21.3651    0.6187 H   0  0  0  0  0  0  0  0  0  0  0  0
   16.3359   22.1136    3.3938 H   0  0  0  0  0  0  0  0  0  0  0  0
   17.1135   23.1751    2.1711 H   0  0  0  0  0  0  0  0  0  0  0  0
   15.3300   22.9619    2.1711 H   0  0  0  0  0  0  0  0  0  0  0  0
   16.2388   20.1865    3.2594 H   0  0  0  0  0  0  0  0  0  0  0  0
   15.2152   19.5740    1.9163 H   0  0  0  0  0  0  0  0  0  0  0  0
   16.9828   19.2541    1.9163 H   0  0  0  0  0  0  0  0  0  0  0  0
   15.8295   21.7087   -0.9195 H   0  0  0  0  0  0  0  0  0  0  0  0
   20.0011   22.7044    0.3773 H   0  0  0  0  0  0  0  0  0  0  0  0
   21.7606   20.9975   -1.1741 H   0  0  0  0  0  0  0  0  0  0  0  0
   22.7856   22.6992   -2.6018 H   0  0  0  0  0  0  0  0  0  0  0  0
   20.9832   22.7628   -2.8570 H   0  0  0  0  0  0  0  0  0  0  0  0
   22.5047   24.8035   -0.0447 H   0  0  0  0  0  0  0  0  0  0  0  0
   24.1266   21.8799   -1.0708 H   0  0  0  0  0  0  0  0  0  0  0  0
   24.5313   23.0911    1.6651 H   0  0  0  0  0  0  0  0  0  0  0  0
   26.1242   20.8234    0.3630 H   0  0  0  0  0  0  0  0  0  0  0  0
   26.9387   20.3524    2.6208 H   0  0  0  0  0  0  0  0  0  0  0  0
   27.1793   22.1048    2.2304 H   0  0  0  0  0  0  0  0  0  0  0  0
   26.3354   21.7526    4.5428 H   0  0  0  0  0  0  0  0  0  0  0  0
   25.1944   22.6971    3.5100 H   0  0  0  0  0  0  0  0  0  0  0  0
   25.0019   19.7263    4.2016 H   0  0  0  0  0  0  0  0  0  0  0  0
   23.9497   21.0584    4.8156 H   0  0  0  0  0  0  0  0  0  0  0  0
   22.8914   19.7632    2.9609 H   0  0  0  0  0  0  0  0  0  0  0  0
   23.1384   21.5084    2.5638 H   0  0  0  0  0  0  0  0  0  0  0  0
   23.7582   20.0998    0.6522 H   0  0  0  0  0  0  0  0  0  0  0  0
   24.9151   19.1846    1.7018 H   0  0  0  0  0  0  0  0  0  0  0  0
   25.2661   23.1989   -1.6505 H   0  0  0  0  0  0  0  0  0  0  0  0
   28.0224   24.3114   -1.4399 H   0  0  0  0  0  0  0  0  0  0  0  0
   27.7956   24.5500   -3.7456 H   0  0  0  0  0  0  0  0  0  0  0  0
   26.7085   23.1505   -3.4004 H   0  0  0  0  0  0  0  0  0  0  0  0
   26.0712   26.8938   -3.8506 H   0  0  0  0  0  0  0  0  0  0  0  0
   25.2832   25.0149   -0.2551 H   0  0  0  0  0  0  0  0  0  0  0  0
   24.3325   27.7183   -0.3969 H   0  0  0  0  0  0  0  0  0  0  0  0
   27.2113   27.1874    2.1890 H   0  0  0  0  0  0  0  0  0  0  0  0
   23.2099   26.1840    0.8232 H   0  0  0  0  0  0  0  0  0  0  0  0
   24.9637   25.3824    1.2492 H   0  0  0  0  0  0  0  0  0  0  0  0
   25.1458   28.2698    2.8157 H   0  0  0  0  0  0  0  0  0  0  0  0
   24.7926   28.4538    5.2712 H   0  0  0  0  0  0  0  0  0  0  0  0
   23.5251   26.6953    6.4823 H   0  0  0  0  0  0  0  0  0  0  0  0
   22.6104   24.7346    5.2479 H   0  0  0  0  0  0  0  0  0  0  0  0
   22.9723   24.5491    2.7921 H   0  0  0  0  0  0  0  0  0  0  0  0
  1 17  2  0
  2  3  1  0
  2 17  1  0
  3  4  1  0
  4  5  1  0
  4  9  1  0
  5  6  2  0
  5 15  1  0
  6  7  1  0
  7  8  2  0
  8 16  1  0
  9 10  1  0
  9 14  2  0
 10 11  2  0
 11 12  1  0
 12 13  2  0
 13 14  1  0
 14 15  1  0
 15 16  2  0
 17 28  1  0
 18 19  1  0
 18 37  1  0
 19 20  2  0
 19 21  1  0
 21 22  1  0
 21 28  1  0
 22 23  2  0
 22 27  1  0
 23 24  1  0
 24 25  2  0
 25 26  1  0
 26 27  2  0
 28 29  1  0
 30 31  2  0
 31 32  1  0
 31 38  1  0
 32 33  1  0
 32 37  1  0
 33 34  1  0
 34 35  1  0
 34 36  1  0
 38 39  1  0
 39 40  1  0
 39 44  1  0
 40 41  1  0
 41 42  1  0
 41 43  2  0
 44 45  2  0
 44 46  1  0
 46 47  1  0
 47 48  1  0
 47 54  1  0
 48 49  1  0
 48 53  1  0
 49 50  1  0
 50 51  1  0
 51 52  1  0
 52 53  1  0
 54 55  2  0
 54 56  1  0
 56 57  1  0
 57 58  1  0
 57 62  1  0
 58 59  1  0
 59 60  1  0
 59 61  2  0
 62 63  2  0
 62 64  1  0
 64 65  1  0
 65 66  1  0
 65 69  1  0
 66 67  2  0
 66 68  1  0
 69 70  1  0
 70 71  2  0
 70 75  1  0
 71 72  1  0
 72 73  2  0
 73 74  1  0
 74 75  2  0
  3 76  1  0
  3 77  1  0
  4 78  1  0
  6 79  1  0
  7 80  1  0
  8 81  1  0
 10 82  1  0
 11 83  1  0
 12 84  1  0
 13 85  1  0
 16 86  1  0
 18 87  1  0
 18 88  1  0
 21 89  1  0
 23 90  1  0
 24 91  1  0
 25 92  1  0
 26 93  1  0
 27 94  1  0
 29 95  1  0
 29 96  1  0
 29 97  1  0
 32 98  1  0
 33 99  1  0
 33100  1  0
 34101  1  0
 35102  1  0
 35103  1  0
 35104  1  0
 36105  1  0
 36106  1  0
 36107  1  0
 37108  1  0
 38109  1  0
 39110  1  0
 40111  1  0
 40112  1  0
 42113  1  0
 46114  1  0
 47115  1  0
 48116  1  0
 49117  1  0
 49118  1  0
 50119  1  0
 50120  1  0
 51121  1  0
 51122  1  0
 52123  1  0
 52124  1  0
 53125  1  0
 53126  1  0
 56127  1  0
 57128  1  0
 58129  1  0
 58130  1  0
 60131  1  0
 64132  1  0
 65133  1  0
 68134  1  0
 69135  1  0
 69136  1  0
 71137  1  0
 72138  1  0
 73139  1  0
 74140  1  0
 75141  1  0
A    1
O1
A    2
O2
A    3
C3
A    4
C4
A    5
C5
A    6
C6
A    7
C7
A    8
C8
A    9
C9
A   10
C10
A   11
C11
A   12
C12
A   13
C13
A   14
C14
A   15
C15
A   16
C16
A   17
C17
A   18
C18
A   19
C19
A   20
O20
A   21
C21
A   22
C22
A   23
C23
A   24
C24
A   25
C25
A   26
C26
A   27
C27
A   28
N28
A   29
C29
A   30
O30
A   31
C31
A   32
C32
A   33
C33
A   34
C34
A   35
C35
A   36
C36
A   37
N37
A   38
N38
A   39
C39
A   40
C40
A   41
C41
A   42
O42
A   43
O43
A   44
C44
A   45
O45
A   46
N46
A   47
C47
A   48
C48
A   49
C49
A   50
C50
A   51
C51
A   52
C52
A   53
C53
A   54
C54
A   55
O55
A   56
N56
A   57
C57
A   58
C58
A   59
C59
A   60
O60
A   61
O61
A   62
C62
A   63
O63
A   64
N64
A   65
C65
A   66
C66
A   67
O67
A   68
O68
A   69
C69
A   70
C70
A   71
C71
A   72
C72
A   73
C73
A   74
C74
A   75
C75
M  END
