2ZMI_TT2_A_1
     RDKit          3D

 90 95  0  0  0  0  0  0  0  0999 V2000
   15.8680    2.7500   26.5630 C   0  0  0  0  0  0  0  0  0  0  0  0
   16.2610    5.9630   18.8380 C   0  0  0  0  0  0  0  0  0  0  0  0
   15.4810    8.4780   20.3600 C   0  0  0  0  0  0  0  0  0  0  0  0
   15.1010    1.4200   26.8160 C   0  0  0  0  0  0  0  0  0  0  0  0
   14.3500    4.9310   26.7470 C   0  0  0  0  0  0  0  0  0  0  0  0
   14.2950    3.4810   24.6210 C   0  0  0  0  0  0  0  0  0  0  0  0
   15.7640    7.2570   18.2570 C   0  0  0  0  0  0  0  0  0  0  0  0
   16.1690    8.4970   18.9880 C   0  0  0  0  0  0  0  0  0  0  0  0
   17.1930    2.5070   25.7780 C   0  0  0  0  0  0  0  0  0  0  0  0
   14.2070    6.3840   26.1540 C   0  0  0  0  0  0  0  0  0  0  0  0
   14.9750    7.3380   17.1730 C   0  0  0  0  0  0  0  0  0  0  0  0
   13.7610    1.5620   27.4890 C   0  0  0  0  0  0  0  0  0  0  0  0
   12.6330    1.1970   26.8700 C   0  0  0  0  0  0  0  0  0  0  0  0
   15.9260    0.4340   27.6630 C   0  0  0  0  0  0  0  0  0  0  0  0
    6.6000    1.0110   29.0510 C   0  0  0  0  0  0  0  0  0  0  0  0
   11.2630    1.2800   27.4660 C   0  0  0  0  0  0  0  0  0  0  0  0
    6.7200    1.1920   27.5040 C   0  0  0  0  0  0  0  0  0  0  0  0
    7.3130   -0.3010   29.5040 C   0  0  0  0  0  0  0  0  0  0  0  0
   16.0810    5.9460   24.6180 C   0  0  0  0  0  0  0  0  0  0  0  0
   16.1850    6.0550   23.2760 C   0  0  0  0  0  0  0  0  0  0  0  0
   16.4500    4.7070   25.3790 C   0  0  0  0  0  0  0  0  0  0  0  0
   15.5020    6.9760   25.5310 C   0  0  0  0  0  0  0  0  0  0  0  0
   15.8380    7.2460   22.4820 C   0  0  0  0  0  0  0  0  0  0  0  0
   17.3940    3.6640   24.8130 C   0  0  0  0  0  0  0  0  0  0  0  0
   15.8130    7.2000   21.1350 C   0  0  0  0  0  0  0  0  0  0  0  0
   15.1690    3.9440   25.8290 C   0  0  0  0  0  0  0  0  0  0  0  0
   16.0440    5.8570   20.3630 C   0  0  0  0  0  0  0  0  0  0  0  0
    8.8250   -0.1980   29.1280 C   0  0  0  0  0  0  0  0  0  0  0  0
    8.9910   -0.0140   27.5720 C   0  0  0  0  0  0  0  0  0  0  0  0
    6.6750   -1.5240   28.7690 C   0  0  0  0  0  0  0  0  0  0  0  0
    8.3280   -1.2460   26.8610 C   0  0  0  0  0  0  0  0  0  0  0  0
    6.8080   -1.3500   27.2230 C   0  0  0  0  0  0  0  0  0  0  0  0
    8.2340    1.2820   27.1200 C   0  0  0  0  0  0  0  0  0  0  0  0
   10.4660    0.0230   27.1370 C   0  0  0  0  0  0  0  0  0  0  0  0
    6.0800   -0.0380   26.7870 C   0  0  0  0  0  0  0  0  0  0  0  0
   17.5860    8.5260   19.1860 O   0  0  0  0  0  0  0  0  0  0  0  0
   11.1670   -1.0880   27.6880 O   0  0  0  0  0  0  0  0  0  0  0  0
   15.6120    4.8380   18.2500 O   0  0  0  0  0  0  0  0  0  0  0  0
   15.9835    3.0707   27.6089 H   0  0  0  0  0  0  0  0  0  0  0  0
   17.3389    5.9593   18.6185 H   0  0  0  0  0  0  0  0  0  0  0  0
   15.8199    9.3476   20.9422 H   0  0  0  0  0  0  0  0  0  0  0  0
   14.3930    8.5135   20.2017 H   0  0  0  0  0  0  0  0  0  0  0  0
   14.9310    1.0430   25.7967 H   0  0  0  0  0  0  0  0  0  0  0  0
   14.8590    5.0023   27.7195 H   0  0  0  0  0  0  0  0  0  0  0  0
   13.3335    4.5191   26.8317 H   0  0  0  0  0  0  0  0  0  0  0  0
   13.3807    2.9966   24.9943 H   0  0  0  0  0  0  0  0  0  0  0  0
   14.0238    4.3537   24.0088 H   0  0  0  0  0  0  0  0  0  0  0  0
   14.8647    2.7664   24.0088 H   0  0  0  0  0  0  0  0  0  0  0  0
   15.8770    9.3815   18.4029 H   0  0  0  0  0  0  0  0  0  0  0  0
   18.0380    2.4573   26.4805 H   0  0  0  0  0  0  0  0  0  0  0  0
   17.1379    1.5574   25.2255 H   0  0  0  0  0  0  0  0  0  0  0  0
   13.4345    6.3574   25.3714 H   0  0  0  0  0  0  0  0  0  0  0  0
   13.9515    7.0357   27.0025 H   0  0  0  0  0  0  0  0  0  0  0  0
   14.6487    8.3210   16.8025 H   0  0  0  0  0  0  0  0  0  0  0  0
   14.6552    6.4214   16.6558 H   0  0  0  0  0  0  0  0  0  0  0  0
   13.7092    1.9733   28.5079 H   0  0  0  0  0  0  0  0  0  0  0  0
   12.7189    0.8063   25.8453 H   0  0  0  0  0  0  0  0  0  0  0  0
   15.7563    0.6368   28.7308 H   0  0  0  0  0  0  0  0  0  0  0  0
   15.6167   -0.5960   27.4317 H   0  0  0  0  0  0  0  0  0  0  0  0
   16.9944    0.5567   27.4317 H   0  0  0  0  0  0  0  0  0  0  0  0
    7.0688    1.8699   29.5535 H   0  0  0  0  0  0  0  0  0  0  0  0
    5.5354    0.9490   29.3207 H   0  0  0  0  0  0  0  0  0  0  0  0
   11.3478    1.3804   28.5581 H   0  0  0  0  0  0  0  0  0  0  0  0
   10.7426    2.1537   27.0466 H   0  0  0  0  0  0  0  0  0  0  0  0
    6.1985    2.1097   27.1944 H   0  0  0  0  0  0  0  0  0  0  0  0
    7.2011   -0.4358   30.5900 H   0  0  0  0  0  0  0  0  0  0  0  0
   16.5615    5.1784   22.7284 H   0  0  0  0  0  0  0  0  0  0  0  0
   17.0481    5.1789   26.1725 H   0  0  0  0  0  0  0  0  0  0  0  0
   15.2616    7.8868   24.9631 H   0  0  0  0  0  0  0  0  0  0  0  0
   16.2224    7.2392   26.3195 H   0  0  0  0  0  0  0  0  0  0  0  0
   15.5955    8.1877   22.9962 H   0  0  0  0  0  0  0  0  0  0  0  0
   18.4353    4.0183   24.8237 H   0  0  0  0  0  0  0  0  0  0  0  0
   17.1959    3.4072   23.7619 H   0  0  0  0  0  0  0  0  0  0  0  0
   15.1630    5.2201   20.5310 H   0  0  0  0  0  0  0  0  0  0  0  0
   16.9859    5.4523   20.7619 H   0  0  0  0  0  0  0  0  0  0  0  0
    9.2693    0.6654   29.6448 H   0  0  0  0  0  0  0  0  0  0  0  0
    9.3336   -1.1239   29.4348 H   0  0  0  0  0  0  0  0  0  0  0  0
    7.1926   -2.4443   29.0774 H   0  0  0  0  0  0  0  0  0  0  0  0
    5.6092   -1.5873   29.0338 H   0  0  0  0  0  0  0  0  0  0  0  0
    8.4317   -1.1318   25.7719 H   0  0  0  0  0  0  0  0  0  0  0  0
    8.8334   -2.1617   27.2016 H   0  0  0  0  0  0  0  0  0  0  0  0
    6.3550   -2.2080   26.7048 H   0  0  0  0  0  0  0  0  0  0  0  0
    8.3252    1.3932   26.0294 H   0  0  0  0  0  0  0  0  0  0  0  0
    8.6795    2.1504   27.6273 H   0  0  0  0  0  0  0  0  0  0  0  0
   10.3965   -0.0026   26.0395 H   0  0  0  0  0  0  0  0  0  0  0  0
    5.0160   -0.1046   27.0582 H   0  0  0  0  0  0  0  0  0  0  0  0
    6.1809    0.0860   25.6987 H   0  0  0  0  0  0  0  0  0  0  0  0
   17.7836    8.5300   20.1561 H   0  0  0  0  0  0  0  0  0  0  0  0
   11.1367   -1.0400   28.6764 H   0  0  0  0  0  0  0  0  0  0  0  0
   15.2694    4.2442   18.9642 H   0  0  0  0  0  0  0  0  0  0  0  0
  1  4  1  0
  1  9  1  0
  1 26  1  0
  2  7  1  0
  2 27  1  0
  2 38  1  0
  3  8  1  0
  3 25  1  0
  4 12  1  0
  4 14  1  0
  5 10  1  0
  5 26  1  0
  6 26  1  0
  7  8  1  0
  7 11  2  3
  8 36  1  0
  9 24  1  0
 10 22  1  0
 12 13  2  0
 13 16  1  0
 15 17  1  0
 15 18  1  0
 16 34  1  0
 17 33  1  0
 17 35  1  0
 18 28  1  0
 18 30  1  0
 19 20  2  0
 19 21  1  0
 19 22  1  0
 20 23  1  0
 21 24  1  0
 21 26  1  0
 23 25  2  0
 25 27  1  0
 28 29  1  0
 29 31  1  0
 29 33  1  0
 29 34  1  0
 30 32  1  0
 31 32  1  0
 32 35  1  0
 34 37  1  0
  1 39  1  0
  2 40  1  0
  3 41  1  0
  3 42  1  0
  4 43  1  0
  5 44  1  0
  5 45  1  0
  6 46  1  0
  6 47  1  0
  6 48  1  0
  8 49  1  0
  9 50  1  0
  9 51  1  0
 10 52  1  0
 10 53  1  0
 11 54  1  0
 11 55  1  0
 12 56  1  0
 13 57  1  0
 14 58  1  0
 14 59  1  0
 14 60  1  0
 15 61  1  0
 15 62  1  0
 16 63  1  0
 16 64  1  0
 17 65  1  0
 18 66  1  0
 20 67  1  0
 21 68  1  0
 22 69  1  0
 22 70  1  0
 23 71  1  0
 24 72  1  0
 24 73  1  0
 27 74  1  0
 27 75  1  0
 28 76  1  0
 28 77  1  0
 30 78  1  0
 30 79  1  0
 31 80  1  0
 31 81  1  0
 32 82  1  0
 33 83  1  0
 33 84  1  0
 34 85  1  0
 35 86  1  0
 35 87  1  0
 36 88  1  0
 37 89  1  0
 38 90  1  0
A    1
C17
A    2
C1
A    3
C4
A    4
C20
A    5
C12
A    6
C18
A    7
C2
A    8
C3
A    9
C16
A   10
C11
A   11
C28
A   12
C22
A   13
C23
A   14
C21
A   15
C36
A   16
C24
A   17
C35
A   18
C31
A   19
C8
A   20
C7
A   21
C14
A   22
C9
A   23
C6
A   24
C15
A   25
C5
A   26
C13
A   27
C10
A   28
C30
A   29
C29
A   30
C32
A   31
C34
A   32
C33
A   33
C37
A   34
C25
A   35
C38
A   36
O2
A   37
O3
A   38
O1
M  END
