2ZN7_410_A_300
     RDKit          3D

 59 62  0  0  0  0  0  0  0  0999 V2000
   48.5590   12.4160   -3.3400 C   0  0  0  0  0  0  0  0  0  0  0  0
   47.9770   11.1460   -3.3450 C   0  0  0  0  0  0  0  0  0  0  0  0
   48.3050   10.2140   -2.3520 C   0  0  0  0  0  0  0  0  0  0  0  0
   49.2250   10.5420   -1.3410 C   0  0  0  0  0  0  0  0  0  0  0  0
   49.8070   11.8160   -1.3410 C   0  0  0  0  0  0  0  0  0  0  0  0
   49.4750   12.7430   -2.3360 C   0  0  0  0  0  0  0  0  0  0  0  0
   49.5540    9.5190   -0.2990 C   0  0  0  0  0  0  0  0  0  0  0  0
   50.6980    9.0630   -0.2960 O   0  0  0  0  0  0  0  0  0  0  0  0
   48.5540    9.1150    0.6020 N   0  0  0  0  0  0  0  0  0  0  0  0
   47.2420    9.6990    0.5700 C   0  0  0  0  0  0  0  0  0  0  0  0
   46.1240    9.0360    0.0560 C   0  0  0  0  0  0  0  0  0  0  0  0
   44.8780    9.6670    0.0570 C   0  0  0  0  0  0  0  0  0  0  0  0
   44.7280   10.9630    0.5670 C   0  0  0  0  0  0  0  0  0  0  0  0
   45.8380   11.6510    1.0870 C   0  0  0  0  0  0  0  0  0  0  0  0
   47.0870   11.0050    1.0800 C   0  0  0  0  0  0  0  0  0  0  0  0
   45.7120   13.0190    1.6060 C   0  0  0  0  0  0  0  0  0  0  0  0
   46.2970   13.6400    2.6970 C   0  0  0  0  0  0  0  0  0  0  0  0
   45.9190   15.0020    2.8620 C   0  0  0  0  0  0  0  0  0  0  0  0
   45.0220   15.3700    1.8740 C   0  0  0  0  0  0  0  0  0  0  0  0
   44.6830   14.1060    0.7680 S   0  0  0  0  0  0  0  0  0  0  0  0
   44.3410   16.7580    1.6490 C   0  0  0  0  0  0  0  0  0  0  0  0
   43.8310   16.8970    0.4990 O   0  0  0  0  0  0  0  0  0  0  0  0
   44.3330   17.5910    2.5970 O   0  0  0  0  0  0  0  0  0  0  0  0
   46.3510   15.8080    3.8840 O   0  0  0  0  0  0  0  0  0  0  0  0
   47.5490   16.5590    3.6400 C   0  0  0  0  0  0  0  0  0  0  0  0
   47.8720   17.2790    4.9650 C   0  0  0  0  0  0  0  0  0  0  0  0
   48.9770   17.8700    5.0200 O   0  0  0  0  0  0  0  0  0  0  0  0
   47.0020   17.1990    5.8780 O   0  0  0  0  0  0  0  0  0  0  0  0
   47.5090   12.8180    3.9060 Br  0  0  0  0  0  0  0  0  0  0  0  0
   48.8730    8.0870    1.6430 C   0  0  0  0  0  0  0  0  0  0  0  0
   48.1310    6.7610    1.4280 C   0  0  0  0  0  0  0  0  0  0  0  0
   48.6100    5.7150    2.4250 C   0  0  0  0  0  0  0  0  0  0  0  0
   48.3070    6.1910    3.8420 C   0  0  0  0  0  0  0  0  0  0  0  0
   49.0250    7.5090    4.1340 C   0  0  0  0  0  0  0  0  0  0  0  0
   48.7350    8.5940    3.0870 C   0  0  0  0  0  0  0  0  0  0  0  0
   48.2995   13.1501   -4.1170 H   0  0  0  0  0  0  0  0  0  0  0  0
   47.2577   10.8766   -4.1325 H   0  0  0  0  0  0  0  0  0  0  0  0
   47.8390    9.2176   -2.3634 H   0  0  0  0  0  0  0  0  0  0  0  0
   50.5277   12.0891   -0.5562 H   0  0  0  0  0  0  0  0  0  0  0  0
   49.9401   13.7398   -2.3277 H   0  0  0  0  0  0  0  0  0  0  0  0
   46.2254    8.0183   -0.3489 H   0  0  0  0  0  0  0  0  0  0  0  0
   44.0023    9.1389   -0.3483 H   0  0  0  0  0  0  0  0  0  0  0  0
   43.7386   11.4437    0.5605 H   0  0  0  0  0  0  0  0  0  0  0  0
   47.9652   11.5313    1.4823 H   0  0  0  0  0  0  0  0  0  0  0  0
   44.3360   17.2737    3.5348 H   0  0  0  0  0  0  0  0  0  0  0  0
   48.3724   15.8858    3.3595 H   0  0  0  0  0  0  0  0  0  0  0  0
   47.4176   17.2728    2.8134 H   0  0  0  0  0  0  0  0  0  0  0  0
   47.2780   17.2244    6.8284 H   0  0  0  0  0  0  0  0  0  0  0  0
   49.9438    7.8795    1.5008 H   0  0  0  0  0  0  0  0  0  0  0  0
   47.0517    6.9238    1.5644 H   0  0  0  0  0  0  0  0  0  0  0  0
   48.3340    6.4006    0.4087 H   0  0  0  0  0  0  0  0  0  0  0  0
   48.0897    4.7641    2.2380 H   0  0  0  0  0  0  0  0  0  0  0  0
   49.6940    5.5670    2.3106 H   0  0  0  0  0  0  0  0  0  0  0  0
   47.2223    6.3392    3.9490 H   0  0  0  0  0  0  0  0  0  0  0  0
   48.6601    5.4304    4.5539 H   0  0  0  0  0  0  0  0  0  0  0  0
   48.6987    7.8755    5.1185 H   0  0  0  0  0  0  0  0  0  0  0  0
   50.1061    7.3077    4.1090 H   0  0  0  0  0  0  0  0  0  0  0  0
   49.4421    9.4233    3.2364 H   0  0  0  0  0  0  0  0  0  0  0  0
   47.6917    8.9141    3.2251 H   0  0  0  0  0  0  0  0  0  0  0  0
  2  1  2  0
  1  6  1  0
  2  3  1  0
  3  4  2  0
  4  5  1  0
  4  7  1  0
  6  5  2  0
  7  8  2  0
  7  9  1  0
 10  9  1  0
  9 30  1  0
 11 10  2  0
 10 15  1  0
 11 12  1  0
 12 13  2  0
 13 14  1  0
 15 14  2  0
 14 16  1  0
 20 16  1  0
 16 17  2  0
 17 18  1  0
 17 29  1  0
 19 18  2  0
 18 24  1  0
 20 19  1  0
 21 19  1  0
 22 21  2  0
 21 23  1  0
 25 24  1  0
 25 26  1  0
 26 27  2  0
 26 28  1  0
 31 30  1  0
 30 35  1  0
 31 32  1  0
 32 33  1  0
 33 34  1  0
 35 34  1  0
  1 36  1  0
  2 37  1  0
  3 38  1  0
  5 39  1  0
  6 40  1  0
 11 41  1  0
 12 42  1  0
 13 43  1  0
 15 44  1  0
 23 45  1  0
 25 46  1  0
 25 47  1  0
 28 48  1  0
 30 49  1  0
 31 50  1  0
 31 51  1  0
 32 52  1  0
 32 53  1  0
 33 54  1  0
 33 55  1  0
 34 56  1  0
 34 57  1  0
 35 58  1  0
 35 59  1  0
A    1
C1
A    2
C2
A    3
C3
A    4
C4
A    5
C5
A    6
C6
A    7
C7
A    8
O1
A    9
N1
A   10
C8
A   11
C9
A   12
C10
A   13
C11
A   14
C12
A   15
C13
A   16
C14
A   17
C15
A   18
C16
A   19
C17
A   20
S1
A   21
C18
A   22
O2
A   23
O3
A   24
O4
A   25
C19
A   26
C20
A   27
O5
A   28
O6
A   29
BR1
A   30
C21
A   31
C22
A   32
C23
A   33
C24
A   34
C25
A   35
C26
M  END
