2ZNN_S44_A_901
     RDKit          3D

 78 82  0  0  0  0  0  0  0  0999 V2000
   14.4920    3.1990   -0.7210 O   0  0  0  0  0  0  0  0  0  0  0  0
   15.2880    1.1210   -0.9400 O   0  0  0  0  0  0  0  0  0  0  0  0
   14.6200    2.0500   -1.3840 C   0  0  0  0  0  0  0  0  0  0  0  0
   13.9170    2.0790   -2.5780 C   0  0  0  0  0  0  0  0  0  0  0  0
   14.7770    1.5120   -3.7240 C   0  0  0  0  0  0  0  0  0  0  0  0
   16.0350    2.3260   -3.9330 C   0  0  0  0  0  0  0  0  0  0  0  0
   12.6280    1.2700   -2.3900 C   0  0  0  0  0  0  0  0  0  0  0  0
   11.7380    1.2930   -3.6090 C   0  0  0  0  0  0  0  0  0  0  0  0
   10.9370    2.4520   -3.9210 C   0  0  0  0  0  0  0  0  0  0  0  0
   10.0830    2.4680   -5.0880 C   0  0  0  0  0  0  0  0  0  0  0  0
   10.0310    1.3030   -5.9620 C   0  0  0  0  0  0  0  0  0  0  0  0
   10.8470    0.1360   -5.6360 C   0  0  0  0  0  0  0  0  0  0  0  0
   11.6860    0.1350   -4.4720 C   0  0  0  0  0  0  0  0  0  0  0  0
    9.2060    1.3080   -7.0960 O   0  0  0  0  0  0  0  0  0  0  0  0
    8.3930    0.1290   -7.1720 C   0  0  0  0  0  0  0  0  0  0  0  0
    8.7440   -0.6460   -8.4140 C   0  0  0  0  0  0  0  0  0  0  0  0
    7.9250   -1.9090   -8.4430 C   0  0  0  0  0  0  0  0  0  0  0  0
    9.2800    3.6520   -5.3640 C   0  0  0  0  0  0  0  0  0  0  0  0
    9.6870    4.3510   -6.5650 N   0  0  0  0  0  0  0  0  0  0  0  0
    9.0420    5.5400   -6.8320 C   0  0  0  0  0  0  0  0  0  0  0  0
    8.1550    6.0060   -6.0980 O   0  0  0  0  0  0  0  0  0  0  0  0
    9.4310    6.1920   -7.9920 C   0  0  0  0  0  0  0  0  0  0  0  0
    9.5500    7.6280   -7.9710 C   0  0  0  0  0  0  0  0  0  0  0  0
    9.9170    8.3600   -9.1490 C   0  0  0  0  0  0  0  0  0  0  0  0
   10.1760    7.6690  -10.3980 C   0  0  0  0  0  0  0  0  0  0  0  0
   10.0640    6.2070  -10.4230 C   0  0  0  0  0  0  0  0  0  0  0  0
    9.6930    5.4750   -9.2250 C   0  0  0  0  0  0  0  0  0  0  0  0
   10.5400    8.4590  -11.6600 C   0  0  0  0  0  0  0  0  0  0  0  0
    9.4270    8.2430  -12.7210 C   0  0  0  0  0  0  0  0  0  0  0  0
    9.7520    9.0340  -14.0130 C   0  0  0  0  0  0  0  0  0  0  0  0
   11.1050    8.5530  -14.5840 C   0  0  0  0  0  0  0  0  0  0  0  0
   12.2220    8.7800  -13.5380 C   0  0  0  0  0  0  0  0  0  0  0  0
   11.8910    7.9790  -12.2510 C   0  0  0  0  0  0  0  0  0  0  0  0
   10.6070    9.9910  -11.3620 C   0  0  0  0  0  0  0  0  0  0  0  0
   10.9490   10.7790  -12.6440 C   0  0  0  0  0  0  0  0  0  0  0  0
   12.3070   10.2930  -13.2090 C   0  0  0  0  0  0  0  0  0  0  0  0
    9.8310   10.5410  -13.6800 C   0  0  0  0  0  0  0  0  0  0  0  0
   14.4917    3.2019    0.2690 H   0  0  0  0  0  0  0  0  0  0  0  0
   13.6631    3.1143   -2.8496 H   0  0  0  0  0  0  0  0  0  0  0  0
   15.0582    0.4768   -3.4805 H   0  0  0  0  0  0  0  0  0  0  0  0
   14.1846    1.5513   -4.6500 H   0  0  0  0  0  0  0  0  0  0  0  0
   16.4602    2.6011   -2.9565 H   0  0  0  0  0  0  0  0  0  0  0  0
   16.7677    1.7303   -4.4972 H   0  0  0  0  0  0  0  0  0  0  0  0
   15.7918    3.2384   -4.4972 H   0  0  0  0  0  0  0  0  0  0  0  0
   12.8973    0.2261   -2.1715 H   0  0  0  0  0  0  0  0  0  0  0  0
   12.0672    1.7294   -1.5627 H   0  0  0  0  0  0  0  0  0  0  0  0
   10.9764    3.3332   -3.2638 H   0  0  0  0  0  0  0  0  0  0  0  0
   10.8180   -0.7493   -6.2883 H   0  0  0  0  0  0  0  0  0  0  0  0
   12.2926   -0.7516   -4.2354 H   0  0  0  0  0  0  0  0  0  0  0  0
    8.5729   -0.4977   -6.2861 H   0  0  0  0  0  0  0  0  0  0  0  0
    7.3323    0.4179   -7.2087 H   0  0  0  0  0  0  0  0  0  0  0  0
    8.5206   -0.0396   -9.3041 H   0  0  0  0  0  0  0  0  0  0  0  0
    9.8156   -0.8944   -8.4102 H   0  0  0  0  0  0  0  0  0  0  0  0
    7.7147   -2.2333   -7.4132 H   0  0  0  0  0  0  0  0  0  0  0  0
    6.9774   -1.7196   -8.9685 H   0  0  0  0  0  0  0  0  0  0  0  0
    8.4846   -2.6969   -8.9685 H   0  0  0  0  0  0  0  0  0  0  0  0
    8.2303    3.3435   -5.4780 H   0  0  0  0  0  0  0  0  0  0  0  0
    9.4185    4.3443   -4.5205 H   0  0  0  0  0  0  0  0  0  0  0  0
   10.4194    3.9797   -7.1868 H   0  0  0  0  0  0  0  0  0  0  0  0
    9.3560    8.1725   -7.0351 H   0  0  0  0  0  0  0  0  0  0  0  0
   10.0028    9.4558   -9.1047 H   0  0  0  0  0  0  0  0  0  0  0  0
   10.2626    5.6605  -11.3567 H   0  0  0  0  0  0  0  0  0  0  0  0
    9.6108    4.3784   -9.2527 H   0  0  0  0  0  0  0  0  0  0  0  0
    9.3569    7.1715  -12.9599 H   0  0  0  0  0  0  0  0  0  0  0  0
    8.4707    8.6026  -12.3134 H   0  0  0  0  0  0  0  0  0  0  0  0
    8.9633    8.8653  -14.7610 H   0  0  0  0  0  0  0  0  0  0  0  0
   11.0406    7.4814  -14.8236 H   0  0  0  0  0  0  0  0  0  0  0  0
   11.3386    9.1218  -15.4961 H   0  0  0  0  0  0  0  0  0  0  0  0
   13.1873    8.4371  -13.9387 H   0  0  0  0  0  0  0  0  0  0  0  0
   12.6887    8.1348  -11.5098 H   0  0  0  0  0  0  0  0  0  0  0  0
   11.8166    6.9102  -12.5001 H   0  0  0  0  0  0  0  0  0  0  0  0
    9.6321   10.3279  -10.9797 H   0  0  0  0  0  0  0  0  0  0  0  0
   11.3925   10.1728  -10.6137 H   0  0  0  0  0  0  0  0  0  0  0  0
   11.0255   11.8529  -12.4184 H   0  0  0  0  0  0  0  0  0  0  0  0
   13.0959   10.4613  -12.4612 H   0  0  0  0  0  0  0  0  0  0  0  0
   12.5429   10.8535  -14.1256 H   0  0  0  0  0  0  0  0  0  0  0  0
   10.0528   11.1081  -14.5961 H   0  0  0  0  0  0  0  0  0  0  0  0
    8.8688   10.8767  -13.2658 H   0  0  0  0  0  0  0  0  0  0  0  0
  1  3  1  0
  2  3  2  0
  3  4  1  0
  4  5  1  0
  4  7  1  0
  5  6  1  0
  7  8  1  0
  8  9  2  0
  8 13  1  0
  9 10  1  0
 10 11  2  0
 10 18  1  0
 11 12  1  0
 11 14  1  0
 12 13  2  0
 14 15  1  0
 15 16  1  0
 16 17  1  0
 18 19  1  0
 19 20  1  0
 20 21  2  0
 20 22  1  0
 22 23  2  0
 22 27  1  0
 23 24  1  0
 24 25  2  0
 25 26  1  0
 25 28  1  0
 26 27  2  0
 28 29  1  0
 28 33  1  0
 28 34  1  0
 29 30  1  0
 30 31  1  0
 30 37  1  0
 31 32  1  0
 32 33  1  0
 32 36  1  0
 34 35  1  0
 35 36  1  0
 35 37  1  0
  1 38  1  0
  4 39  1  0
  5 40  1  0
  5 41  1  0
  6 42  1  0
  6 43  1  0
  6 44  1  0
  7 45  1  0
  7 46  1  0
  9 47  1  0
 12 48  1  0
 13 49  1  0
 15 50  1  0
 15 51  1  0
 16 52  1  0
 16 53  1  0
 17 54  1  0
 17 55  1  0
 17 56  1  0
 18 57  1  0
 18 58  1  0
 19 59  1  0
 23 60  1  0
 24 61  1  0
 26 62  1  0
 27 63  1  0
 29 64  1  0
 29 65  1  0
 30 66  1  0
 31 67  1  0
 31 68  1  0
 32 69  1  0
 33 70  1  0
 33 71  1  0
 34 72  1  0
 34 73  1  0
 35 74  1  0
 36 75  1  0
 36 76  1  0
 37 77  1  0
 37 78  1  0
A    1
O33
A    2
O34
A    3
C1
A    4
C2
A    5
C3
A    6
C4
A    7
C5
A    8
C6
A    9
C7
A   10
C8
A   11
C9
A   12
C10
A   13
C11
A   14
O37
A   15
C30
A   16
C31
A   17
C32
A   18
C12
A   19
N35
A   20
C13
A   21
O36
A   22
C14
A   23
C15
A   24
C16
A   25
C17
A   26
C18
A   27
C19
A   28
C20
A   29
C21
A   30
C22
A   31
C23
A   32
C24
A   33
C25
A   34
C26
A   35
C27
A   36
C28
A   37
C29
M  END
