1VAL_PNG_A_240
     RDKit          3D

 36 37  0  0  0  0  0  0  0  0999 V2000
   37.4550    5.3910   30.2050 C   0  0  0  0  0  0  0  0  0  0  0  0
   37.5170    6.4280   31.3100 C   0  0  0  0  0  0  0  0  0  0  0  0
   36.1480    7.0550   31.5170 C   0  0  0  0  0  0  0  0  0  0  0  0
   35.5530    7.5700   30.2140 C   0  0  0  0  0  0  0  0  0  0  0  0
   35.6210    6.5010   29.1270 C   0  0  0  0  0  0  0  0  0  0  0  0
   35.1940    7.0120   27.7520 C   0  0  0  0  0  0  0  0  0  0  0  0
   36.5160    3.1510   29.8410 C   0  0  0  0  0  0  0  0  0  0  0  0
   35.9270    2.0250   30.4070 C   0  0  0  0  0  0  0  0  0  0  0  0
   35.7640    0.8540   29.6730 C   0  0  0  0  0  0  0  0  0  0  0  0
   36.2000    0.8060   28.3500 C   0  0  0  0  0  0  0  0  0  0  0  0
   36.7940    1.9380   27.7770 C   0  0  0  0  0  0  0  0  0  0  0  0
   36.9480    3.0960   28.5210 C   0  0  0  0  0  0  0  0  0  0  0  0
   36.0620   -0.3500   27.6000 N   0  0  0  0  0  0  0  0  0  0  0  0
   36.6330    4.3410   30.6330 O   0  0  0  0  0  0  0  0  0  0  0  0
   37.9170    5.8040   32.5180 O   0  0  0  0  0  0  0  0  0  0  0  0
   36.2600    8.1310   32.4370 O   0  0  0  0  0  0  0  0  0  0  0  0
   34.2000    7.9240   30.4460 O   0  0  0  0  0  0  0  0  0  0  0  0
   36.9700    5.9990   29.0150 O   0  0  0  0  0  0  0  0  0  0  0  0
   36.0740    8.0170   27.2560 O   0  0  0  0  0  0  0  0  0  0  0  0
   36.1500   -0.3630   26.3990 O   0  0  0  0  0  0  0  0  0  0  0  0
   35.8480   -1.4000   28.1410 O   0  0  0  0  0  0  0  0  0  0  0  0
   38.4527    4.9843   29.9833 H   0  0  0  0  0  0  0  0  0  0  0  0
   38.2392    7.2073   31.0253 H   0  0  0  0  0  0  0  0  0  0  0  0
   35.4773    6.2763   31.9093 H   0  0  0  0  0  0  0  0  0  0  0  0
   36.1277    8.4439   29.8736 H   0  0  0  0  0  0  0  0  0  0  0  0
   34.9192    5.7108   29.4321 H   0  0  0  0  0  0  0  0  0  0  0  0
   35.1863    6.1679   27.0467 H   0  0  0  0  0  0  0  0  0  0  0  0
   34.1934    7.4578   27.8523 H   0  0  0  0  0  0  0  0  0  0  0  0
   35.5845    2.0608   31.4517 H   0  0  0  0  0  0  0  0  0  0  0  0
   35.2943   -0.0276   30.1337 H   0  0  0  0  0  0  0  0  0  0  0  0
   37.1391    1.9070   26.7330 H   0  0  0  0  0  0  0  0  0  0  0  0
   37.4163    3.9799   28.0633 H   0  0  0  0  0  0  0  0  0  0  0  0
   37.5808    6.3285   33.2874 H   0  0  0  0  0  0  0  0  0  0  0  0
   36.2234    7.7796   33.3618 H   0  0  0  0  0  0  0  0  0  0  0  0
   34.0328    7.9677   31.4208 H   0  0  0  0  0  0  0  0  0  0  0  0
   36.4918    8.4942   28.0161 H   0  0  0  0  0  0  0  0  0  0  0  0
  1  2  1  0
  1 14  1  0
  1 18  1  0
  2  3  1  0
  2 15  1  0
  3  4  1  0
  3 16  1  0
  4  5  1  0
  4 17  1  0
  5  6  1  0
  5 18  1  0
  6 19  1  0
  7  8  2  0
  7 12  1  0
  7 14  1  0
  8  9  1  0
  9 10  2  0
 10 11  1  0
 10 13  1  0
 11 12  2  0
 13 20  2  0
 13 21  1  0
  1 22  1  0
  2 23  1  0
  3 24  1  0
  4 25  1  0
  5 26  1  0
  6 27  1  0
  6 28  1  0
  8 29  1  0
  9 30  1  0
 11 31  1  0
 12 32  1  0
 15 33  1  0
 16 34  1  0
 17 35  1  0
 19 36  1  0
M  CHG  2  13   1  21  -1
A    1
C1
A    2
C2
A    3
C3
A    4
C4
A    5
C5
A    6
C6
A    7
C7
A    8
C8
A    9
C9
A   10
C10
A   11
C11
A   12
C12
A   13
N1
A   14
O1
A   15
O2
A   16
O3
A   17
O4
A   18
O5
A   19
O6
A   20
O7
A   21
O8
M  END
