2ZV2_609_A_501
     RDKit          3D

 34 38  0  0  0  0  0  0  0  0999 V2000
    1.1000   -8.2610  -26.3270 C   0  0  0  0  0  0  0  0  0  0  0  0
    1.0630   -9.6440  -26.4790 C   0  0  0  0  0  0  0  0  0  0  0  0
   -0.0810  -10.2480  -26.9900 C   0  0  0  0  0  0  0  0  0  0  0  0
   -1.1830   -9.4780  -27.3430 C   0  0  0  0  0  0  0  0  0  0  0  0
   -1.1470   -8.0970  -27.1910 C   0  0  0  0  0  0  0  0  0  0  0  0
   -0.0030   -7.4900  -26.6830 C   0  0  0  0  0  0  0  0  0  0  0  0
    0.0240   -6.1090  -26.5180 C   0  0  0  0  0  0  0  0  0  0  0  0
   -0.9380   -5.4210  -26.8560 O   0  0  0  0  0  0  0  0  0  0  0  0
    1.1650   -5.5030  -25.9810 N   0  0  0  0  0  0  0  0  0  0  0  0
    1.4630   -4.1890  -25.6090 C   0  0  0  0  0  0  0  0  0  0  0  0
    0.7390   -3.0040  -25.6640 C   0  0  0  0  0  0  0  0  0  0  0  0
    1.2930   -1.8360  -25.1530 C   0  0  0  0  0  0  0  0  0  0  0  0
    2.5660   -1.8600  -24.5930 C   0  0  0  0  0  0  0  0  0  0  0  0
    3.2880   -3.0470  -24.5430 C   0  0  0  0  0  0  0  0  0  0  0  0
    2.7360   -4.2180  -25.0510 C   0  0  0  0  0  0  0  0  0  0  0  0
    3.1890   -5.4700  -25.0840 N   0  0  0  0  0  0  0  0  0  0  0  0
    2.2760   -6.2750  -25.6250 C   0  0  0  0  0  0  0  0  0  0  0  0
    2.2370   -7.6530  -25.8030 C   0  0  0  0  0  0  0  0  0  0  0  0
    3.3340   -8.4250  -25.4370 C   0  0  0  0  0  0  0  0  0  0  0  0
    3.2940   -9.8060  -25.5940 C   0  0  0  0  0  0  0  0  0  0  0  0
    2.1590  -10.4190  -26.1130 C   0  0  0  0  0  0  0  0  0  0  0  0
    2.1340  -11.9460  -26.2390 C   0  0  0  0  0  0  0  0  0  0  0  0
    1.0460  -12.5440  -26.0990 O   0  0  0  0  0  0  0  0  0  0  0  0
    3.2220  -12.5280  -26.4370 O   0  0  0  0  0  0  0  0  0  0  0  0
   -0.1138  -11.3403  -27.1154 H   0  0  0  0  0  0  0  0  0  0  0  0
   -2.0856   -9.9627  -27.7435 H   0  0  0  0  0  0  0  0  0  0  0  0
   -2.0186   -7.4871  -27.4709 H   0  0  0  0  0  0  0  0  0  0  0  0
   -0.2667   -2.9904  -26.1094 H   0  0  0  0  0  0  0  0  0  0  0  0
    0.7257   -0.8944  -25.1914 H   0  0  0  0  0  0  0  0  0  0  0  0
    3.0034   -0.9356  -24.1879 H   0  0  0  0  0  0  0  0  0  0  0  0
    4.2955   -3.0600  -24.1018 H   0  0  0  0  0  0  0  0  0  0  0  0
    4.2326   -7.9437  -25.0237 H   0  0  0  0  0  0  0  0  0  0  0  0
    4.1633  -10.4157  -25.3066 H   0  0  0  0  0  0  0  0  0  0  0  0
    0.6991  -12.7347  -25.1916 H   0  0  0  0  0  0  0  0  0  0  0  0
  6  1  2  0
  2  1  1  0
  1 18  1  0
  3  2  2  0
  2 21  1  0
  4  3  1  0
  4  5  2  0
  5  6  1  0
  6  7  1  0
  8  7  2  0
  7  9  1  0
  9 17  1  0
  9 10  1  0
 11 10  2  0
 10 15  1  0
 11 12  1  0
 12 13  2  0
 13 14  1  0
 15 14  2  0
 16 15  1  0
 17 16  2  0
 18 17  1  0
 18 19  2  0
 20 19  1  0
 21 20  2  0
 22 21  1  0
 24 22  2  0
 22 23  1  0
  3 25  1  0
  4 26  1  0
  5 27  1  0
 11 28  1  0
 12 29  1  0
 13 30  1  0
 14 31  1  0
 19 32  1  0
 20 33  1  0
 23 34  1  0
A    1
CAW
A    2
CAR
A    3
CAI
A    4
CAF
A    5
CAJ
A    6
CAS
A    7
CAP
A    8
OAB
A    9
NAX
A   10
CAU
A   11
CAK
A   12
CAE
A   13
CAD
A   14
CAH
A   15
CAQ
A   16
NAM
A   17
CAV
A   18
CAT
A   19
CAL
A   20
CAG
A   21
CAO
A   22
CAN
A   23
OAC
A   24
OAA
M  END
