2ZWL_567_H_1
     RDKit          3D

 72 74  0  0  0  0  0  0  0  0999 V2000
   40.2390    5.7180   12.0780 C   0  0  0  0  0  0  0  0  0  0  0  0
   35.8730    7.0210   10.0510 C   0  0  0  0  0  0  0  0  0  0  0  0
   37.1710    6.1920   10.3810 C   0  0  0  0  0  0  0  0  0  0  0  0
   40.6270    4.8460   14.3780 C   0  0  0  0  0  0  0  0  0  0  0  0
   39.8170    5.5210   13.4060 C   0  0  0  0  0  0  0  0  0  0  0  0
   42.3310    4.5600   12.6250 C   0  0  0  0  0  0  0  0  0  0  0  0
   33.7210    2.5200   10.3360 C   0  0  0  0  0  0  0  0  0  0  0  0
   40.5850    6.2120    9.8880 C   0  0  0  0  0  0  0  0  0  0  0  0
   30.8570    5.8610   15.8200 N   0  0  0  0  0  0  0  0  0  0  0  0
   29.4330    7.6150   15.7700 N   0  0  0  0  0  0  0  0  0  0  0  0
   35.8510   11.0640    4.8010 N   0  0  0  0  0  0  0  0  0  0  0  0
   35.0300    7.2740   10.9060 O   0  0  0  0  0  0  0  0  0  0  0  0
   35.7550    7.4120    8.7780 N   0  0  0  0  0  0  0  0  0  0  0  0
   34.5830    8.1900    8.3820 C   0  0  0  0  0  0  0  0  0  0  0  0
   34.6310    8.5290    6.8950 C   0  0  0  0  0  0  0  0  0  0  0  0
   35.8450    9.3760    6.5220 C   0  0  0  0  0  0  0  0  0  0  0  0
   33.2960    7.4190    8.7150 C   0  0  0  0  0  0  0  0  0  0  0  0
   33.2190    6.2000    8.5780 O   0  0  0  0  0  0  0  0  0  0  0  0
   32.2930    8.2060    9.1710 N   0  0  0  0  0  0  0  0  0  0  0  0
   31.0280    7.5710    9.4300 C   0  0  0  0  0  0  0  0  0  0  0  0
   31.5610    6.3440   11.5790 C   0  0  0  0  0  0  0  0  0  0  0  0
   31.3650    6.1630   12.9550 C   0  0  0  0  0  0  0  0  0  0  0  0
   30.4160    6.9410   13.6460 C   0  0  0  0  0  0  0  0  0  0  0  0
   29.6210    7.8670   12.9160 C   0  0  0  0  0  0  0  0  0  0  0  0
   29.8200    8.0530   11.5560 C   0  0  0  0  0  0  0  0  0  0  0  0
   30.7980    7.3060   10.8820 C   0  0  0  0  0  0  0  0  0  0  0  0
   30.2410    6.8050   15.1090 C   0  0  0  0  0  0  0  0  0  0  0  0
   35.7180    9.7580    5.0510 C   0  0  0  0  0  0  0  0  0  0  0  0
   35.4730    8.9160    4.1920 O   0  0  0  0  0  0  0  0  0  0  0  0
   38.3330    7.1040   10.8430 C   0  0  0  0  0  0  0  0  0  0  0  0
   36.8940    5.1890   11.3910 N   0  0  0  0  0  0  0  0  0  0  0  0
   36.1480    3.7080   10.9470 S   0  0  0  0  0  0  0  0  0  0  0  0
   36.2730    2.9190   12.1120 O   0  0  0  0  0  0  0  0  0  0  0  0
   36.8740    3.3150    9.7870 O   0  0  0  0  0  0  0  0  0  0  0  0
   34.4110    3.9170   10.5990 C   0  0  0  0  0  0  0  0  0  0  0  0
   32.7190    2.2280   10.9880 O   0  0  0  0  0  0  0  0  0  0  0  0
   34.2050    1.7730    9.4860 O   0  0  0  0  0  0  0  0  0  0  0  0
   41.9100    4.3590   13.9820 C   0  0  0  0  0  0  0  0  0  0  0  0
   41.5300    5.2180   11.6730 C   0  0  0  0  0  0  0  0  0  0  0  0
   41.6830    5.5450   10.3320 N   0  0  0  0  0  0  0  0  0  0  0  0
   39.6550    6.3590   10.9240 C   0  0  0  0  0  0  0  0  0  0  0  0
   37.4833    5.6911    9.4528 H   0  0  0  0  0  0  0  0  0  0  0  0
   40.2674    4.7061   15.4081 H   0  0  0  0  0  0  0  0  0  0  0  0
   38.8295    5.8987   13.7096 H   0  0  0  0  0  0  0  0  0  0  0  0
   43.3182    4.1852   12.3168 H   0  0  0  0  0  0  0  0  0  0  0  0
   40.4470    6.5831    8.8617 H   0  0  0  0  0  0  0  0  0  0  0  0
   30.8350    5.8947   16.8492 H   0  0  0  0  0  0  0  0  0  0  0  0
   31.3551    5.0977   15.3403 H   0  0  0  0  0  0  0  0  0  0  0  0
   29.3193    7.5106   16.7884 H   0  0  0  0  0  0  0  0  0  0  0  0
   35.9192   11.7333    5.5809 H   0  0  0  0  0  0  0  0  0  0  0  0
   35.8853   11.4013    3.8284 H   0  0  0  0  0  0  0  0  0  0  0  0
   36.4790    7.1686    8.0870 H   0  0  0  0  0  0  0  0  0  0  0  0
   34.5877    9.1334    8.9477 H   0  0  0  0  0  0  0  0  0  0  0  0
   33.7195    9.0854    6.6315 H   0  0  0  0  0  0  0  0  0  0  0  0
   34.7043    7.5817    6.3408 H   0  0  0  0  0  0  0  0  0  0  0  0
   36.7669    8.7969    6.6792 H   0  0  0  0  0  0  0  0  0  0  0  0
   35.8889   10.2786    7.1492 H   0  0  0  0  0  0  0  0  0  0  0  0
   32.4295    9.2151    9.3257 H   0  0  0  0  0  0  0  0  0  0  0  0
   30.2245    8.2254    9.0609 H   0  0  0  0  0  0  0  0  0  0  0  0
   31.0340    6.5997    8.9137 H   0  0  0  0  0  0  0  0  0  0  0  0
   32.3071    5.7383   11.0437 H   0  0  0  0  0  0  0  0  0  0  0  0
   31.9551    5.4098   13.4977 H   0  0  0  0  0  0  0  0  0  0  0  0
   28.8401    8.4418   13.4354 H   0  0  0  0  0  0  0  0  0  0  0  0
   29.2113    8.7858   11.0060 H   0  0  0  0  0  0  0  0  0  0  0  0
   38.4376    7.9331   10.1277 H   0  0  0  0  0  0  0  0  0  0  0  0
   38.0917    7.4709   11.8515 H   0  0  0  0  0  0  0  0  0  0  0  0
   37.7958    4.9489   11.8269 H   0  0  0  0  0  0  0  0  0  0  0  0
   34.2953    4.5503    9.7071 H   0  0  0  0  0  0  0  0  0  0  0  0
   33.9310    4.3900   11.4684 H   0  0  0  0  0  0  0  0  0  0  0  0
   32.7521    2.2376   11.9774 H   0  0  0  0  0  0  0  0  0  0  0  0
   42.5612    3.8411   14.7016 H   0  0  0  0  0  0  0  0  0  0  0  0
   42.5072    5.3158    9.7583 H   0  0  0  0  0  0  0  0  0  0  0  0
 29 28  2  0
 11 28  1  0
 28 16  1  0
 16 15  1  0
 15 14  1  0
 14 17  1  0
 14 13  1  0
 18 17  2  0
 17 19  1  0
 13  2  1  0
 19 20  1  0
 20 26  1  0
 37  7  2  0
 34 32  2  0
  8 40  1  0
  8 41  2  0
  2  3  1  0
  2 12  2  0
 40 39  1  0
  7 35  1  0
  7 36  1  0
  3 30  1  0
  3 31  1  0
 35 32  1  0
 30 41  1  0
 26 25  1  0
 26 21  2  0
 41  1  1  0
 32 31  1  0
 32 33  2  0
 25 24  2  0
 21 22  1  0
 39  1  2  0
 39  6  1  0
  1  5  1  0
  6 38  2  0
 24 23  1  0
 22 23  2  0
  5  4  2  0
 23 27  1  0
 38  4  1  0
 27 10  2  3
 27  9  1  0
  3 42  1  0
  4 43  1  0
  5 44  1  0
  6 45  1  0
  8 46  1  0
  9 47  1  0
  9 48  1  0
 10 49  1  0
 11 50  1  0
 11 51  1  0
 13 52  1  0
 14 53  1  0
 15 54  1  0
 15 55  1  0
 16 56  1  0
 16 57  1  0
 19 58  1  0
 20 59  1  0
 20 60  1  0
 21 61  1  0
 22 62  1  0
 24 63  1  0
 25 64  1  0
 30 65  1  0
 30 66  1  0
 31 67  1  0
 35 68  1  0
 35 69  1  0
 36 70  1  0
 38 71  1  0
 40 72  1  0
A    1
C4
A    2
C14
A    3
C5
A    4
C6
A    5
C11
A    6
C7
A    7
C8
A    8
C13
A    9
N1
A   10
N2
A   11
N3
A   12
O1
A   13
N5
A   14
C15
A   15
C18
A   16
C19
A   17
C20
A   18
O5
A   19
N6
A   20
C21
A   21
C16
A   22
C17
A   23
C22
A   24
C23
A   25
C24
A   26
C25
A   27
C26
A   28
C2
A   29
O2
A   30
C1
A   31
N4
A   32
S1
A   33
O4
A   34
O3
A   35
C9
A   36
O7
A   37
O6
A   38
C10
A   39
C3
A   40
N7
A   41
C12
M  END
