2ZXC_2ED_A_701
     RDKit          3D

 30 29  0  0  0  0  0  0  0  0999 V2000
    5.1710   -4.9380   51.5510 O   0  0  0  0  0  0  0  0  0  0  0  0
    5.4470   -1.9130   48.1180 O   0  0  0  0  0  0  0  0  0  0  0  0
    5.2750   -6.2770   48.5570 O   0  0  0  0  0  0  0  0  0  0  0  0
    4.6430   -3.9970   49.0350 C   0  0  0  0  0  0  0  0  0  0  0  0
    4.3840   -5.2250   48.1700 C   0  0  0  0  0  0  0  0  0  0  0  0
    4.6160   -4.8760   46.7190 C   0  0  0  0  0  0  0  0  0  0  0  0
    5.0810   -5.7970   45.8800 C   0  0  0  0  0  0  0  0  0  0  0  0
    5.3750   -7.1920   46.3780 C   0  0  0  0  0  0  0  0  0  0  0  0
    5.9580   -8.0180   45.2520 C   0  0  0  0  0  0  0  0  0  0  0  0
    4.0340   -4.5650   51.3130 C   0  0  0  0  0  0  0  0  0  0  0  0
    2.9450   -4.6100   52.3440 C   0  0  0  0  0  0  0  0  0  0  0  0
    3.6790   -4.0920   50.1210 N   0  0  0  0  0  0  0  0  0  0  0  0
    4.2750   -2.7180   48.2930 C   0  0  0  0  0  0  0  0  0  0  0  0
    5.8110   -1.6630   49.0041 H   0  0  0  0  0  0  0  0  0  0  0  0
    5.3173   -6.3269   49.5448 H   0  0  0  0  0  0  0  0  0  0  0  0
    5.6999   -3.9659   49.3383 H   0  0  0  0  0  0  0  0  0  0  0  0
    3.3441   -5.5571   48.3052 H   0  0  0  0  0  0  0  0  0  0  0  0
    4.4004   -3.8602   46.3563 H   0  0  0  0  0  0  0  0  0  0  0  0
    5.2515   -5.5427   44.8234 H   0  0  0  0  0  0  0  0  0  0  0  0
    6.0966   -7.1409   47.2067 H   0  0  0  0  0  0  0  0  0  0  0  0
    4.4436   -7.6590   46.7306 H   0  0  0  0  0  0  0  0  0  0  0  0
    6.5442   -8.8486   45.6721 H   0  0  0  0  0  0  0  0  0  0  0  0
    5.1430   -8.4208   44.6327 H   0  0  0  0  0  0  0  0  0  0  0  0
    6.6106   -7.3850   44.6327 H   0  0  0  0  0  0  0  0  0  0  0  0
    3.3909   -4.5916   53.3494 H   0  0  0  0  0  0  0  0  0  0  0  0
    2.2857   -3.7383   52.2193 H   0  0  0  0  0  0  0  0  0  0  0  0
    2.3599   -5.5331   52.2193 H   0  0  0  0  0  0  0  0  0  0  0  0
    2.7072   -3.7885   49.9646 H   0  0  0  0  0  0  0  0  0  0  0  0
    3.5291   -2.1577   48.8759 H   0  0  0  0  0  0  0  0  0  0  0  0
    3.8553   -2.9731   47.3088 H   0  0  0  0  0  0  0  0  0  0  0  0
  1 10  2  0
  2 13  1  0
  3  5  1  0
  4  5  1  0
  4 12  1  0
  4 13  1  0
  5  6  1  0
  6  7  2  0
  7  8  1  0
  8  9  1  0
 10 11  1  0
 10 12  1  0
  2 14  1  0
  3 15  1  0
  4 16  1  0
  5 17  1  0
  6 18  1  0
  7 19  1  0
  8 20  1  0
  8 21  1  0
  9 22  1  0
  9 23  1  0
  9 24  1  0
 11 25  1  0
 11 26  1  0
 11 27  1  0
 12 28  1  0
 13 29  1  0
 13 30  1  0
A    1
O2
A    2
O3
A    3
O1
A    4
C1
A    5
C2
A    6
C3
A    7
C4
A    8
C5
A    9
C6
A   10
C18
A   11
C19
A   12
N
A   13
C
M  END
