2ZXG_S23_A_901
     RDKit          3D

 56 57  0  0  0  0  0  0  0  0999 V2000
   71.8700   45.1120    6.4610 O   0  0  0  0  0  0  0  0  0  0  0  0
   72.1010   46.1770    7.3850 P   0  0  0  0  0  0  0  0  0  0  0  0
   73.4930   46.0300    7.7980 O   0  0  0  0  0  0  0  0  0  0  0  0
   71.1580   45.9650    8.6670 C   0  0  0  0  0  0  0  0  0  0  0  0
   71.4820   44.7800    9.4690 N   0  0  0  0  0  0  0  0  0  0  0  0
   71.1840   47.1000    9.7020 C   0  0  0  0  0  0  0  0  0  0  0  0
   71.8480   47.6150    6.7410 C   0  0  0  0  0  0  0  0  0  0  0  0
   72.8780   48.1790    5.7160 C   0  0  0  0  0  0  0  0  0  0  0  0
   72.5780   47.7440    4.2590 C   0  0  0  0  0  0  0  0  0  0  0  0
   73.6690   48.2390    3.3160 C   0  0  0  0  0  0  0  0  0  0  0  0
   74.7960   47.4400    3.0910 C   0  0  0  0  0  0  0  0  0  0  0  0
   75.8130   47.8810    2.2430 C   0  0  0  0  0  0  0  0  0  0  0  0
   75.7010   49.1300    1.6350 C   0  0  0  0  0  0  0  0  0  0  0  0
   74.5930   49.9470    1.8610 C   0  0  0  0  0  0  0  0  0  0  0  0
   73.5650   49.4970    2.7000 C   0  0  0  0  0  0  0  0  0  0  0  0
   73.0180   49.6960    5.7370 C   0  0  0  0  0  0  0  0  0  0  0  0
   72.0740   50.4400    5.5170 O   0  0  0  0  0  0  0  0  0  0  0  0
   74.2500   50.1710    5.9820 N   0  0  0  0  0  0  0  0  0  0  0  0
   74.6180   51.5710    5.8030 C   0  0  0  0  0  0  0  0  0  0  0  0
   75.9130   51.6740    5.0440 C   0  0  0  0  0  0  0  0  0  0  0  0
   76.0940   52.6740    4.3060 O   0  0  0  0  0  0  0  0  0  0  0  0
   76.7570   50.7600    5.1650 O   0  0  0  0  0  0  0  0  0  0  0  0
   74.7830   52.2830    7.1470 C   0  0  0  0  0  0  0  0  0  0  0  0
   73.5060   52.2970    7.9640 C   0  0  0  0  0  0  0  0  0  0  0  0
   72.5770   53.3280    7.7840 C   0  0  0  0  0  0  0  0  0  0  0  0
   71.4000   53.3550    8.5390 C   0  0  0  0  0  0  0  0  0  0  0  0
   71.1520   52.3490    9.4760 C   0  0  0  0  0  0  0  0  0  0  0  0
   72.0710   51.3010    9.6360 C   0  0  0  0  0  0  0  0  0  0  0  0
   73.2580   51.2820    8.8930 C   0  0  0  0  0  0  0  0  0  0  0  0
   73.5451   46.0245    8.7866 H   0  0  0  0  0  0  0  0  0  0  0  0
   70.1809   45.8902    8.1674 H   0  0  0  0  0  0  0  0  0  0  0  0
   71.4178   45.0147   10.4698 H   0  0  0  0  0  0  0  0  0  0  0  0
   70.8166   44.0249    9.2501 H   0  0  0  0  0  0  0  0  0  0  0  0
   71.1742   46.6724   10.7154 H   0  0  0  0  0  0  0  0  0  0  0  0
   72.0961   47.6996    9.5658 H   0  0  0  0  0  0  0  0  0  0  0  0
   70.3003   47.7407    9.5658 H   0  0  0  0  0  0  0  0  0  0  0  0
   70.8754   47.5717    6.2291 H   0  0  0  0  0  0  0  0  0  0  0  0
   71.9251   48.3027    7.5960 H   0  0  0  0  0  0  0  0  0  0  0  0
   73.8287   47.7386    6.0510 H   0  0  0  0  0  0  0  0  0  0  0  0
   72.5303   46.6460    4.2120 H   0  0  0  0  0  0  0  0  0  0  0  0
   71.6168   48.1801    3.9494 H   0  0  0  0  0  0  0  0  0  0  0  0
   74.8805   46.4606    3.5845 H   0  0  0  0  0  0  0  0  0  0  0  0
   76.6939   47.2492    2.0565 H   0  0  0  0  0  0  0  0  0  0  0  0
   76.5008   49.4780    0.9647 H   0  0  0  0  0  0  0  0  0  0  0  0
   74.5270   50.9362    1.3845 H   0  0  0  0  0  0  0  0  0  0  0  0
   72.6801   50.1264    2.8755 H   0  0  0  0  0  0  0  0  0  0  0  0
   74.9710   49.5140    6.3128 H   0  0  0  0  0  0  0  0  0  0  0  0
   73.8059   52.0540    5.2398 H   0  0  0  0  0  0  0  0  0  0  0  0
   77.0349   50.4590    6.0663 H   0  0  0  0  0  0  0  0  0  0  0  0
   75.5643   51.7673    7.7246 H   0  0  0  0  0  0  0  0  0  0  0  0
   75.0541   53.3283    6.9374 H   0  0  0  0  0  0  0  0  0  0  0  0
   72.7732   54.1199    7.0462 H   0  0  0  0  0  0  0  0  0  0  0  0
   70.6713   54.1664    8.3953 H   0  0  0  0  0  0  0  0  0  0  0  0
   70.2379   52.3785   10.0872 H   0  0  0  0  0  0  0  0  0  0  0  0
   71.8582   50.4904   10.3484 H   0  0  0  0  0  0  0  0  0  0  0  0
   73.9901   50.4741    9.0393 H   0  0  0  0  0  0  0  0  0  0  0  0
  1  2  2  0
  7  2  1  0
  2  3  1  0
  2  4  1  0
  4  5  1  0
  4  6  1  0
  8  7  1  0
  9  8  1  0
  8 16  1  0
 10  9  1  0
 15 10  1  0
 11 10  2  0
 12 11  1  0
 13 12  2  0
 13 14  1  0
 14 15  2  0
 17 16  2  0
 16 18  1  0
 19 18  1  0
 20 19  1  0
 19 23  1  0
 21 20  2  0
 20 22  1  0
 23 24  1  0
 25 24  2  0
 24 29  1  0
 25 26  1  0
 26 27  2  0
 27 28  1  0
 29 28  2  0
  3 30  1  0
  4 31  1  0
  5 32  1  0
  5 33  1  0
  6 34  1  0
  6 35  1  0
  6 36  1  0
  7 37  1  0
  7 38  1  0
  8 39  1  0
  9 40  1  0
  9 41  1  0
 11 42  1  0
 12 43  1  0
 13 44  1  0
 14 45  1  0
 15 46  1  0
 18 47  1  0
 19 48  1  0
 22 49  1  0
 23 50  1  0
 23 51  1  0
 25 52  1  0
 26 53  1  0
 27 54  1  0
 28 55  1  0
 29 56  1  0
A    1
O2
A    2
P
A    3
O1
A    4
C1
A    5
N1
A    6
C2
A    7
C3
A    8
C4
A    9
C6
A   10
C7
A   11
C8
A   12
C10
A   13
C12
A   14
C11
A   15
C9
A   16
C5
A   17
O3
A   18
N2
A   19
C13
A   20
C14
A   21
O4
A   22
O5
A   23
C15
A   24
C16
A   25
C17
A   26
C19
A   27
C21
A   28
C20
A   29
C18
M  END
