2ZXM_JB1_A_1
     RDKit          3D

 77 79  0  0  0  0  0  0  0  0999 V2000
   16.7630   -6.6740   29.2720 C   0  0  0  0  0  0  0  0  0  0  0  0
   15.9410   -5.5160   29.8350 C   0  0  0  0  0  0  0  0  0  0  0  0
   14.4690   -5.9080   29.9930 C   0  0  0  0  0  0  0  0  0  0  0  0
   13.5390   -4.7250   29.7130 C   0  0  0  0  0  0  0  0  0  0  0  0
   13.2060   -4.4960   28.2060 C   0  0  0  0  0  0  0  0  0  0  0  0
   12.4810   -5.7270   27.5660 C   0  0  0  0  0  0  0  0  0  0  0  0
   11.0340   -6.1310   27.9280 C   0  0  0  0  0  0  0  0  0  0  0  0
   10.4880   -7.0950   27.0290 O   0  0  0  0  0  0  0  0  0  0  0  0
   12.3800   -3.1760   27.8960 C   0  0  0  0  0  0  0  0  0  0  0  0
   11.5700   -2.6040   29.0920 C   0  0  0  0  0  0  0  0  0  0  0  0
   13.3900   -2.1230   27.2580 C   0  0  0  0  0  0  0  0  0  0  0  0
   14.3320   -2.8210   26.2040 C   0  0  0  0  0  0  0  0  0  0  0  0
   14.7850   -1.7630   25.2010 C   0  0  0  0  0  0  0  0  0  0  0  0
   14.3230   -0.5170   25.9380 C   0  0  0  0  0  0  0  0  0  0  0  0
   12.8990   -0.8400   26.4770 C   0  0  0  0  0  0  0  0  0  0  0  0
   11.7360   -1.1760   25.4500 C   0  0  0  0  0  0  0  0  0  0  0  0
   12.4680    0.3750   27.3760 C   0  0  0  0  0  0  0  0  0  0  0  0
   12.4030    1.7480   26.6240 C   0  0  0  0  0  0  0  0  0  0  0  0
   13.6880    2.0570   25.8020 C   0  0  0  0  0  0  0  0  0  0  0  0
   14.2780    0.8040   25.0740 C   0  0  0  0  0  0  0  0  0  0  0  0
   14.7060    0.8710   23.7360 C   0  0  0  0  0  0  0  0  0  0  0  0
   14.6720    2.0130   22.8870 C   0  0  0  0  0  0  0  0  0  0  0  0
   14.3660    2.0260   21.4840 C   0  0  0  0  0  0  0  0  0  0  0  0
   14.3840    3.3820   20.7010 C   0  0  0  0  0  0  0  0  0  0  0  0
   15.1830    3.2980   19.3660 C   0  0  0  0  0  0  0  0  0  0  0  0
   16.5810    3.1950   19.6630 O   0  0  0  0  0  0  0  0  0  0  0  0
   14.7310    2.0680   18.5150 C   0  0  0  0  0  0  0  0  0  0  0  0
   14.8020    0.7300   19.3240 C   0  0  0  0  0  0  0  0  0  0  0  0
   14.2290   -0.3170   18.5370 O   0  0  0  0  0  0  0  0  0  0  0  0
   14.0460    0.8710   20.6910 C   0  0  0  0  0  0  0  0  0  0  0  0
   13.0820   -0.1050   21.0210 C   0  0  0  0  0  0  0  0  0  0  0  0
   17.1815   -7.2636   30.1010 H   0  0  0  0  0  0  0  0  0  0  0  0
   16.1173   -7.3160   28.6548 H   0  0  0  0  0  0  0  0  0  0  0  0
   17.5821   -6.2762   28.6548 H   0  0  0  0  0  0  0  0  0  0  0  0
   16.3449   -5.2340   30.8185 H   0  0  0  0  0  0  0  0  0  0  0  0
   16.0034   -4.6709   29.1337 H   0  0  0  0  0  0  0  0  0  0  0  0
   14.2376   -6.7192   29.2870 H   0  0  0  0  0  0  0  0  0  0  0  0
   14.3088   -6.2341   31.0313 H   0  0  0  0  0  0  0  0  0  0  0  0
   12.5945   -4.8980   30.2496 H   0  0  0  0  0  0  0  0  0  0  0  0
   14.0727   -3.8249   30.0521 H   0  0  0  0  0  0  0  0  0  0  0  0
   14.1945   -4.3654   27.7415 H   0  0  0  0  0  0  0  0  0  0  0  0
   12.4841   -5.5502   26.4803 H   0  0  0  0  0  0  0  0  0  0  0  0
   13.0561   -6.5652   27.9864 H   0  0  0  0  0  0  0  0  0  0  0  0
   11.0310   -6.5555   28.9428 H   0  0  0  0  0  0  0  0  0  0  0  0
   10.4113   -5.2266   27.8622 H   0  0  0  0  0  0  0  0  0  0  0  0
   10.0719   -7.8297   27.5458 H   0  0  0  0  0  0  0  0  0  0  0  0
   11.5804   -3.4261   27.1832 H   0  0  0  0  0  0  0  0  0  0  0  0
   12.0310   -2.9295   30.0362 H   0  0  0  0  0  0  0  0  0  0  0  0
   11.5708   -1.5051   29.0433 H   0  0  0  0  0  0  0  0  0  0  0  0
   10.5347   -2.9724   29.0433 H   0  0  0  0  0  0  0  0  0  0  0  0
   13.8208   -1.7608   28.2031 H   0  0  0  0  0  0  0  0  0  0  0  0
   15.2070   -3.2515   26.7130 H   0  0  0  0  0  0  0  0  0  0  0  0
   13.7942   -3.6303   25.6884 H   0  0  0  0  0  0  0  0  0  0  0  0
   15.8752   -1.7744   25.0547 H   0  0  0  0  0  0  0  0  0  0  0  0
   14.3904   -1.8809   24.1810 H   0  0  0  0  0  0  0  0  0  0  0  0
   15.0580   -0.2975   26.7264 H   0  0  0  0  0  0  0  0  0  0  0  0
   10.8228   -1.4398   26.0036 H   0  0  0  0  0  0  0  0  0  0  0  0
   11.5404   -0.2976   24.8174 H   0  0  0  0  0  0  0  0  0  0  0  0
   12.0389   -2.0234   24.8174 H   0  0  0  0  0  0  0  0  0  0  0  0
   11.4707    0.1611   27.7878 H   0  0  0  0  0  0  0  0  0  0  0  0
   13.2402    0.4795   28.1524 H   0  0  0  0  0  0  0  0  0  0  0  0
   11.5441    1.7303   25.9370 H   0  0  0  0  0  0  0  0  0  0  0  0
   12.3052    2.5346   27.3866 H   0  0  0  0  0  0  0  0  0  0  0  0
   13.4431    2.8166   25.0450 H   0  0  0  0  0  0  0  0  0  0  0  0
   14.4508    2.4080   26.5127 H   0  0  0  0  0  0  0  0  0  0  0  0
   15.1088   -0.0553   23.3004 H   0  0  0  0  0  0  0  0  0  0  0  0
   14.9033    2.9826   23.3522 H   0  0  0  0  0  0  0  0  0  0  0  0
   13.3472    3.6696   20.4725 H   0  0  0  0  0  0  0  0  0  0  0  0
   14.8828    4.1262   21.3392 H   0  0  0  0  0  0  0  0  0  0  0  0
   14.9869    4.2075   18.7792 H   0  0  0  0  0  0  0  0  0  0  0  0
   16.7100    3.1855   20.6445 H   0  0  0  0  0  0  0  0  0  0  0  0
   13.6939    2.2276   18.1850 H   0  0  0  0  0  0  0  0  0  0  0  0
   15.4153    1.9808   17.6582 H   0  0  0  0  0  0  0  0  0  0  0  0
   15.8523    0.4896   19.5456 H   0  0  0  0  0  0  0  0  0  0  0  0
   13.8501   -1.0094   19.1346 H   0  0  0  0  0  0  0  0  0  0  0  0
   12.9083   -0.9565   20.3467 H   0  0  0  0  0  0  0  0  0  0  0  0
   12.5042   -0.0144   21.9526 H   0  0  0  0  0  0  0  0  0  0  0  0
  1  2  1  0
  2  3  1  0
  3  4  1  0
  4  5  1  0
  5  6  1  0
  5  9  1  0
  6  7  1  0
  7  8  1  0
  9 10  1  0
  9 11  1  0
 11 12  1  0
 11 15  1  0
 12 13  1  0
 13 14  1  0
 14 15  1  0
 14 20  1  0
 15 16  1  0
 15 17  1  0
 17 18  1  0
 18 19  1  0
 19 20  1  0
 20 21  2  0
 21 22  1  0
 22 23  2  0
 23 24  1  0
 23 30  1  0
 24 25  1  0
 25 26  1  0
 25 27  1  0
 27 28  1  0
 28 29  1  0
 28 30  1  0
 30 31  2  0
  1 32  1  0
  1 33  1  0
  1 34  1  0
  2 35  1  0
  2 36  1  0
  3 37  1  0
  3 38  1  0
  4 39  1  0
  4 40  1  0
  5 41  1  0
  6 42  1  0
  6 43  1  0
  7 44  1  0
  7 45  1  0
  8 46  1  0
  9 47  1  0
 10 48  1  0
 10 49  1  0
 10 50  1  0
 11 51  1  0
 12 52  1  0
 12 53  1  0
 13 54  1  0
 13 55  1  0
 14 56  1  0
 16 57  1  0
 16 58  1  0
 16 59  1  0
 17 60  1  0
 17 61  1  0
 18 62  1  0
 18 63  1  0
 19 64  1  0
 19 65  1  0
 21 66  1  0
 22 67  1  0
 24 68  1  0
 24 69  1  0
 25 70  1  0
 26 71  1  0
 27 72  1  0
 27 73  1  0
 28 74  1  0
 29 75  1  0
 31 76  1  0
 31 77  1  0
A    1
C31
A    2
C30
A    3
C29
A    4
C28
A    5
C22
A    6
C23
A    7
C24
A    8
O03
A    9
C20
A   10
C21
A   11
C17
A   12
C16
A   13
C15
A   14
C14
A   15
C13
A   16
C18
A   17
C12
A   18
C11
A   19
C09
A   20
C08
A   21
C07
A   22
C06
A   23
C05
A   24
C04
A   25
C03
A   26
O02
A   27
C02
A   28
C01
A   29
O01
A   30
C10
A   31
C19
M  END
