2ZXN_JC1_A_1
     RDKit          3D

 77 79  0  0  0  0  0  0  0  0999 V2000
    7.5610   -5.7270   26.2860 C   0  0  0  0  0  0  0  0  0  0  0  0
    8.2590   -5.3740   27.5860 C   0  0  0  0  0  0  0  0  0  0  0  0
    9.5040   -4.5350   27.3330 C   0  0  0  0  0  0  0  0  0  0  0  0
   10.7460   -5.2200   27.9180 C   0  0  0  0  0  0  0  0  0  0  0  0
   12.0140   -4.3280   27.9030 C   0  0  0  0  0  0  0  0  0  0  0  0
   12.6560   -4.3320   29.3250 C   0  0  0  0  0  0  0  0  0  0  0  0
   11.8080   -3.7100   30.4510 C   0  0  0  0  0  0  0  0  0  0  0  0
   11.0630   -2.5660   30.0300 O   0  0  0  0  0  0  0  0  0  0  0  0
   13.1090   -4.7010   26.8140 C   0  0  0  0  0  0  0  0  0  0  0  0
   13.8390   -6.0170   27.1520 C   0  0  0  0  0  0  0  0  0  0  0  0
   14.1270   -3.4950   26.5370 C   0  0  0  0  0  0  0  0  0  0  0  0
   15.2900   -3.8220   25.5340 C   0  0  0  0  0  0  0  0  0  0  0  0
   15.7190   -2.5250   24.8310 C   0  0  0  0  0  0  0  0  0  0  0  0
   14.9260   -1.4780   25.6240 C   0  0  0  0  0  0  0  0  0  0  0  0
   13.5500   -2.1560   25.9440 C   0  0  0  0  0  0  0  0  0  0  0  0
   12.5610   -2.4210   24.7280 C   0  0  0  0  0  0  0  0  0  0  0  0
   12.8420   -1.2140   26.9940 C   0  0  0  0  0  0  0  0  0  0  0  0
   12.6170    0.2560   26.5030 C   0  0  0  0  0  0  0  0  0  0  0  0
   13.8760    0.8840   25.8600 C   0  0  0  0  0  0  0  0  0  0  0  0
   14.5940   -0.1140   24.9080 C   0  0  0  0  0  0  0  0  0  0  0  0
   14.8830    0.1240   23.5530 C   0  0  0  0  0  0  0  0  0  0  0  0
   14.6770    1.1870   22.6520 C   0  0  0  0  0  0  0  0  0  0  0  0
   14.3010    1.1710   21.2870 C   0  0  0  0  0  0  0  0  0  0  0  0
   14.1760    2.5850   20.6600 C   0  0  0  0  0  0  0  0  0  0  0  0
   14.9030    2.6590   19.2930 C   0  0  0  0  0  0  0  0  0  0  0  0
   16.3150    2.5440   19.5130 O   0  0  0  0  0  0  0  0  0  0  0  0
   14.4430    1.5110   18.3460 C   0  0  0  0  0  0  0  0  0  0  0  0
   14.6710    0.1060   18.9930 C   0  0  0  0  0  0  0  0  0  0  0  0
   14.1170   -0.9010   18.1500 O   0  0  0  0  0  0  0  0  0  0  0  0
   14.0320    0.0600   20.4320 C   0  0  0  0  0  0  0  0  0  0  0  0
   13.2370   -1.0410   20.8010 C   0  0  0  0  0  0  0  0  0  0  0  0
    6.5993   -6.2134   26.5065 H   0  0  0  0  0  0  0  0  0  0  0  0
    7.3835   -4.8103   25.7045 H   0  0  0  0  0  0  0  0  0  0  0  0
    8.1941   -6.4133   25.7045 H   0  0  0  0  0  0  0  0  0  0  0  0
    7.5657   -4.8042   28.2221 H   0  0  0  0  0  0  0  0  0  0  0  0
    8.5632   -6.3074   28.0823 H   0  0  0  0  0  0  0  0  0  0  0  0
    9.6391   -4.4066   26.2489 H   0  0  0  0  0  0  0  0  0  0  0  0
    9.3768   -3.5567   27.8196 H   0  0  0  0  0  0  0  0  0  0  0  0
   10.5303   -5.4996   28.9598 H   0  0  0  0  0  0  0  0  0  0  0  0
   10.9598   -6.0938   27.2849 H   0  0  0  0  0  0  0  0  0  0  0  0
   11.6653   -3.3260   27.6125 H   0  0  0  0  0  0  0  0  0  0  0  0
   12.8629   -5.3773   29.5978 H   0  0  0  0  0  0  0  0  0  0  0  0
   13.5536   -3.7009   29.2468 H   0  0  0  0  0  0  0  0  0  0  0  0
   11.1029   -4.4704   30.8180 H   0  0  0  0  0  0  0  0  0  0  0  0
   12.5025   -3.3762   31.2360 H   0  0  0  0  0  0  0  0  0  0  0  0
   10.7408   -2.0713   30.8247 H   0  0  0  0  0  0  0  0  0  0  0  0
   12.5688   -4.8739   25.8715 H   0  0  0  0  0  0  0  0  0  0  0  0
   13.9023   -6.1311   28.2442 H   0  0  0  0  0  0  0  0  0  0  0  0
   13.2823   -6.8649   26.7264 H   0  0  0  0  0  0  0  0  0  0  0  0
   14.8531   -5.9935   26.7264 H   0  0  0  0  0  0  0  0  0  0  0  0
   14.4502   -3.3586   27.5796 H   0  0  0  0  0  0  0  0  0  0  0  0
   16.1442   -4.2442   26.0837 H   0  0  0  0  0  0  0  0  0  0  0  0
   14.9452   -4.5539   24.7887 H   0  0  0  0  0  0  0  0  0  0  0  0
   16.8031   -2.3596   24.9173 H   0  0  0  0  0  0  0  0  0  0  0  0
   15.5242   -2.5133   23.7484 H   0  0  0  0  0  0  0  0  0  0  0  0
   15.5623   -1.2004   26.4773 H   0  0  0  0  0  0  0  0  0  0  0  0
   11.5666   -2.6874   25.1155 H   0  0  0  0  0  0  0  0  0  0  0  0
   12.4836   -1.5119   24.1135 H   0  0  0  0  0  0  0  0  0  0  0  0
   12.9485   -3.2470   24.1135 H   0  0  0  0  0  0  0  0  0  0  0  0
   11.8612   -1.6482   27.2380 H   0  0  0  0  0  0  0  0  0  0  0  0
   13.5149   -1.1533   27.8621 H   0  0  0  0  0  0  0  0  0  0  0  0
   11.8075    0.2556   25.7583 H   0  0  0  0  0  0  0  0  0  0  0  0
   12.3656    0.8606   27.3869 H   0  0  0  0  0  0  0  0  0  0  0  0
   13.5770    1.7728   25.2850 H   0  0  0  0  0  0  0  0  0  0  0  0
   14.5750    1.1526   26.6658 H   0  0  0  0  0  0  0  0  0  0  0  0
   15.3949   -0.7277   23.0812 H   0  0  0  0  0  0  0  0  0  0  0  0
   14.8332    2.1896   23.0766 H   0  0  0  0  0  0  0  0  0  0  0  0
   13.1113    2.8194   20.5132 H   0  0  0  0  0  0  0  0  0  0  0  0
   14.6428    3.3107   21.3422 H   0  0  0  0  0  0  0  0  0  0  0  0
   14.6578    3.6204   18.8180 H   0  0  0  0  0  0  0  0  0  0  0  0
   16.4973    2.5292   20.4860 H   0  0  0  0  0  0  0  0  0  0  0  0
   13.3717    1.6347   18.1291 H   0  0  0  0  0  0  0  0  0  0  0  0
   15.0392    1.5660   17.4232 H   0  0  0  0  0  0  0  0  0  0  0  0
   15.7499   -0.0809   19.0982 H   0  0  0  0  0  0  0  0  0  0  0  0
   13.7226   -1.6178   18.7075 H   0  0  0  0  0  0  0  0  0  0  0  0
   13.0721   -1.8634   20.0894 H   0  0  0  0  0  0  0  0  0  0  0  0
   12.7805   -1.0792   21.8011 H   0  0  0  0  0  0  0  0  0  0  0  0
  1  2  1  0
  2  3  1  0
  3  4  1  0
  4  5  1  0
  5  6  1  0
  5  9  1  0
  6  7  1  0
  7  8  1  0
  9 10  1  0
  9 11  1  0
 11 12  1  0
 11 15  1  0
 12 13  1  0
 13 14  1  0
 14 15  1  0
 14 20  1  0
 15 16  1  0
 15 17  1  0
 17 18  1  0
 18 19  1  0
 19 20  1  0
 20 21  2  0
 21 22  1  0
 22 23  2  0
 23 24  1  0
 23 30  1  0
 24 25  1  0
 25 26  1  0
 25 27  1  0
 27 28  1  0
 28 29  1  0
 28 30  1  0
 30 31  2  0
  1 32  1  0
  1 33  1  0
  1 34  1  0
  2 35  1  0
  2 36  1  0
  3 37  1  0
  3 38  1  0
  4 39  1  0
  4 40  1  0
  5 41  1  0
  6 42  1  0
  6 43  1  0
  7 44  1  0
  7 45  1  0
  8 46  1  0
  9 47  1  0
 10 48  1  0
 10 49  1  0
 10 50  1  0
 11 51  1  0
 12 52  1  0
 12 53  1  0
 13 54  1  0
 13 55  1  0
 14 56  1  0
 16 57  1  0
 16 58  1  0
 16 59  1  0
 17 60  1  0
 17 61  1  0
 18 62  1  0
 18 63  1  0
 19 64  1  0
 19 65  1  0
 21 66  1  0
 22 67  1  0
 24 68  1  0
 24 69  1  0
 25 70  1  0
 26 71  1  0
 27 72  1  0
 27 73  1  0
 28 74  1  0
 29 75  1  0
 31 76  1  0
 31 77  1  0
A    1
C31
A    2
C30
A    3
C29
A    4
C28
A    5
C22
A    6
C23
A    7
C24
A    8
O03
A    9
C20
A   10
C21
A   11
C17
A   12
C16
A   13
C15
A   14
C14
A   15
C13
A   16
C18
A   17
C12
A   18
C11
A   19
C09
A   20
C08
A   21
C07
A   22
C06
A   23
C05
A   24
C04
A   25
C03
A   26
O02
A   27
C02
A   28
C01
A   29
O01
A   30
C10
A   31
C19
M  END
