2ZY1_830_A_808
     RDKit          3D

 44 45  0  0  0  0  0  0  0  0999 V2000
   13.0250   57.9300   36.9900 C   0  0  0  0  0  0  0  0  0  0  0  0
   11.9720   58.6310   36.4120 C   0  0  0  0  0  0  0  0  0  0  0  0
   11.5460   59.8370   36.9550 C   0  0  0  0  0  0  0  0  0  0  0  0
   12.1690   60.3470   38.0910 C   0  0  0  0  0  0  0  0  0  0  0  0
   13.2170   59.6440   38.6680 C   0  0  0  0  0  0  0  0  0  0  0  0
   13.6540   58.4400   38.1200 C   0  0  0  0  0  0  0  0  0  0  0  0
   14.7730   57.8650   38.6400 O   0  0  0  0  0  0  0  0  0  0  0  0
   15.1870   56.7080   38.0480 C   0  0  0  0  0  0  0  0  0  0  0  0
   16.0440   56.7590   36.9540 C   0  0  0  0  0  0  0  0  0  0  0  0
   14.8530   55.4800   38.6050 C   0  0  0  0  0  0  0  0  0  0  0  0
   15.3850   54.3100   38.0680 C   0  0  0  0  0  0  0  0  0  0  0  0
   16.2450   54.3650   36.9770 C   0  0  0  0  0  0  0  0  0  0  0  0
   16.5800   55.5930   36.4190 C   0  0  0  0  0  0  0  0  0  0  0  0
   17.5640   55.6720   35.2490 C   0  0  0  0  0  0  0  0  0  0  0  0
   18.9900   56.0180   35.6930 C   0  0  0  0  0  0  0  0  0  0  0  0
   19.6100   54.9210   36.5620 C   0  0  0  0  0  0  0  0  0  0  0  0
   19.3850   53.6280   35.8970 N   0  0  0  0  0  0  0  0  0  0  0  0
   19.3900   52.4720   36.5520 C   0  0  0  0  0  0  0  0  0  0  0  0
   19.5620   52.3680   37.7680 O   0  0  0  0  0  0  0  0  0  0  0  0
   19.0890   51.2510   35.6820 C   0  0  0  0  0  0  0  0  0  0  0  0
   20.5540   50.2720   35.2740 P   0  0  0  0  0  0  0  0  0  0  0  0
   21.2780   51.0530   34.0650 O   0  0  0  0  0  0  0  0  0  0  0  0
   21.4880   50.3020   36.5840 O   0  0  0  0  0  0  0  0  0  0  0  0
   20.1230   48.9070   34.8850 O   0  0  0  0  0  0  0  0  0  0  0  0
   13.3586   56.9763   36.5550 H   0  0  0  0  0  0  0  0  0  0  0  0
   11.4728   58.2278   35.5186 H   0  0  0  0  0  0  0  0  0  0  0  0
   10.7170   60.3886   36.4876 H   0  0  0  0  0  0  0  0  0  0  0  0
   11.8332   61.2993   38.5274 H   0  0  0  0  0  0  0  0  0  0  0  0
   13.7083   60.0418   39.5682 H   0  0  0  0  0  0  0  0  0  0  0  0
   16.3003   57.7312   36.5076 H   0  0  0  0  0  0  0  0  0  0  0  0
   14.1711   55.4318   39.4668 H   0  0  0  0  0  0  0  0  0  0  0  0
   15.1232   53.3371   38.5096 H   0  0  0  0  0  0  0  0  0  0  0  0
   16.6599   53.4374   36.5558 H   0  0  0  0  0  0  0  0  0  0  0  0
   17.5817   54.6978   34.7385 H   0  0  0  0  0  0  0  0  0  0  0  0
   17.2209   56.4766   34.5820 H   0  0  0  0  0  0  0  0  0  0  0  0
   19.6152   56.1565   34.7986 H   0  0  0  0  0  0  0  0  0  0  0  0
   18.9413   56.9372   36.2953 H   0  0  0  0  0  0  0  0  0  0  0  0
   20.6896   55.0997   36.6738 H   0  0  0  0  0  0  0  0  0  0  0  0
   19.1493   54.9206   37.5609 H   0  0  0  0  0  0  0  0  0  0  0  0
   19.2165   53.6186   34.8809 H   0  0  0  0  0  0  0  0  0  0  0  0
   18.3794   50.6064   36.2214 H   0  0  0  0  0  0  0  0  0  0  0  0
   18.6773   51.6253   34.7331 H   0  0  0  0  0  0  0  0  0  0  0  0
   21.9025   51.7266   34.4343 H   0  0  0  0  0  0  0  0  0  0  0  0
   20.9201   50.2838   37.3947 H   0  0  0  0  0  0  0  0  0  0  0  0
  1  2  2  0
  1  6  1  0
  2  3  1  0
  3  4  2  0
  4  5  1  0
  5  6  2  0
  6  7  1  0
  7  8  1  0
  8  9  2  0
  8 10  1  0
  9 13  1  0
 10 11  2  0
 11 12  1  0
 12 13  2  0
 13 14  1  0
 14 15  1  0
 15 16  1  0
 16 17  1  0
 17 18  1  0
 18 19  2  0
 18 20  1  0
 20 21  1  0
 21 22  1  0
 21 23  1  0
 21 24  2  0
  1 25  1  0
  2 26  1  0
  3 27  1  0
  4 28  1  0
  5 29  1  0
  9 30  1  0
 10 31  1  0
 11 32  1  0
 12 33  1  0
 14 34  1  0
 14 35  1  0
 15 36  1  0
 15 37  1  0
 16 38  1  0
 16 39  1  0
 17 40  1  0
 20 41  1  0
 20 42  1  0
 22 43  1  0
 23 44  1  0
A    1
CAJ
A    2
CAF
A    3
CAE
A    4
CAG
A    5
CAK
A    6
CAV
A    7
OAS
A    8
CAW
A    9
CAM
A   10
CAL
A   11
CAH
A   12
CAI
A   13
CAU
A   14
CAP
A   15
CAN
A   16
CAO
A   17
NAR
A   18
CAT
A   19
OAA
A   20
CAQ
A   21
PAX
A   22
OAC
A   23
OAD
A   24
OAB
M  END
