1DQX_BMP_A_601
     RDKit          3D

 35 36  0  0  0  0  0  0  0  0999 V2000
   80.0490   64.3350   91.8040 P   0  0  0  0  0  0  0  0  0  0  0  0
   80.9250   65.1530   92.7730 O   0  0  0  0  0  0  0  0  0  0  0  0
   80.0860   62.8370   92.0660 O   0  0  0  0  0  0  0  0  0  0  0  0
   80.4560   64.5890   90.3250 O   0  0  0  0  0  0  0  0  0  0  0  0
   78.5760   64.8470   92.1690 O   0  0  0  0  0  0  0  0  0  0  0  0
   77.3980   64.5600   91.3820 C   0  0  0  0  0  0  0  0  0  0  0  0
   76.3050   65.6320   91.5710 C   0  0  0  0  0  0  0  0  0  0  0  0
   75.7520   65.6260   92.8890 O   0  0  0  0  0  0  0  0  0  0  0  0
   76.5440   67.0730   91.0870 C   0  0  0  0  0  0  0  0  0  0  0  0
   75.8260   67.3200   89.9260 O   0  0  0  0  0  0  0  0  0  0  0  0
   75.9240   67.8750   92.1710 C   0  0  0  0  0  0  0  0  0  0  0  0
   75.4550   69.1580   91.9150 O   0  0  0  0  0  0  0  0  0  0  0  0
   75.1580   66.9050   93.0770 C   0  0  0  0  0  0  0  0  0  0  0  0
   74.9960   67.2140   94.5290 N   0  0  0  0  0  0  0  0  0  0  0  0
   76.1070   67.1640   95.5290 C   0  0  0  0  0  0  0  0  0  0  0  0
   77.2840   66.8750   95.3030 O   0  0  0  0  0  0  0  0  0  0  0  0
   75.8970   67.4190   96.8840 N   0  0  0  0  0  0  0  0  0  0  0  0
   74.6130   67.6670   97.3720 C   0  0  0  0  0  0  0  0  0  0  0  0
   74.4740   67.6100   98.5820 O   0  0  0  0  0  0  0  0  0  0  0  0
   73.3680   67.7500   96.3480 C   0  0  0  0  0  0  0  0  0  0  0  0
   73.5920   67.5190   95.0030 C   0  0  0  0  0  0  0  0  0  0  0  0
   72.5210   67.5800   94.1770 O   0  0  0  0  0  0  0  0  0  0  0  0
   80.0901   62.6727   93.0423 H   0  0  0  0  0  0  0  0  0  0  0  0
   81.2956   65.1130   90.2991 H   0  0  0  0  0  0  0  0  0  0  0  0
   77.6803   64.5234   90.3195 H   0  0  0  0  0  0  0  0  0  0  0  0
   76.9906   63.5948   91.7174 H   0  0  0  0  0  0  0  0  0  0  0  0
   75.5768   65.2697   90.8304 H   0  0  0  0  0  0  0  0  0  0  0  0
   77.6043   67.2850   90.8848 H   0  0  0  0  0  0  0  0  0  0  0  0
   74.9165   67.6329   90.1607 H   0  0  0  0  0  0  0  0  0  0  0  0
   76.7118   68.3448   92.7782 H   0  0  0  0  0  0  0  0  0  0  0  0
   75.2846   69.6241   92.7716 H   0  0  0  0  0  0  0  0  0  0  0  0
   74.1092   66.9817   92.7542 H   0  0  0  0  0  0  0  0  0  0  0  0
   76.6980   67.4244   97.5315 H   0  0  0  0  0  0  0  0  0  0  0  0
   72.3580   67.9864   96.7140 H   0  0  0  0  0  0  0  0  0  0  0  0
   71.6072   67.6320   94.5543 H   0  0  0  0  0  0  0  0  0  0  0  0
  1  2  2  0
  1  3  1  0
  1  4  1  0
  1  5  1  0
  5  6  1  0
  6  7  1  0
  7  8  1  0
  7  9  1  0
  8 13  1  0
  9 10  1  0
  9 11  1  0
 11 12  1  0
 11 13  1  0
 13 14  1  0
 14 15  1  0
 14 21  1  0
 15 16  2  0
 15 17  1  0
 17 18  1  0
 18 19  2  0
 18 20  1  0
 20 21  2  0
 21 22  1  0
  3 23  1  0
  4 24  1  0
  6 25  1  0
  6 26  1  0
  7 27  1  0
  9 28  1  0
 10 29  1  0
 11 30  1  0
 12 31  1  0
 13 32  1  0
 17 33  1  0
 20 34  1  0
 22 35  1  0
A    1
P
A    2
OP1
A    3
OP2
A    4
OP3
A    5
O5'
A    6
C5'
A    7
C4'
A    8
O4'
A    9
C3'
A   10
O3'
A   11
C2'
A   12
O2'
A   13
C1'
A   14
N1
A   15
C2
A   16
O2
A   17
N3
A   18
C4
A   19
O4
A   20
C5
A   21
C6
A   22
O1
M  END
