3A2C_PDY_A_1
     RDKit          3D

 53 56  0  0  0  0  0  0  0  0999 V2000
   95.5350  107.9660   96.2340 C   0  0  0  0  0  0  0  0  0  0  0  0
   94.1760  107.2690   96.1970 C   0  0  0  0  0  0  0  0  0  0  0  0
   93.8840  106.7100   97.5920 C   0  0  0  0  0  0  0  0  0  0  0  0
   93.8390  107.7970   98.5850 N   0  0  0  0  0  0  0  0  0  0  0  0
   95.1190  108.5270   98.6420 C   0  0  0  0  0  0  0  0  0  0  0  0
   95.5290  109.0870   97.2730 C   0  0  0  0  0  0  0  0  0  0  0  0
   96.9100  109.6020   97.2730 N   0  0  0  0  0  0  0  0  0  0  0  0
   97.1620  110.8930   97.4520 C   0  0  0  0  0  0  0  0  0  0  0  0
   98.4800  111.3080   97.6290 C   0  0  0  0  0  0  0  0  0  0  0  0
   99.6050  110.2790   97.4730 C   0  0  0  0  0  0  0  0  0  0  0  0
   96.1320  111.7330   97.6510 N   0  0  0  0  0  0  0  0  0  0  0  0
   96.3240  112.9990   98.0390 C   0  0  0  0  0  0  0  0  0  0  0  0
   95.4570  113.9990   98.1960 C   0  0  0  0  0  0  0  0  0  0  0  0
   96.2930  115.2500   98.4600 C   0  0  0  0  0  0  0  0  0  0  0  0
   97.6480  114.6880   98.3640 N   0  0  0  0  0  0  0  0  0  0  0  0
   97.6340  113.4620   98.2450 N   0  0  0  0  0  0  0  0  0  0  0  0
   98.7280  112.5970   98.0830 C   0  0  0  0  0  0  0  0  0  0  0  0
   99.9160  113.2020   98.0940 N   0  0  0  0  0  0  0  0  0  0  0  0
  101.0390  112.9950   97.4200 C   0  0  0  0  0  0  0  0  0  0  0  0
  102.2430  113.2850   98.0500 C   0  0  0  0  0  0  0  0  0  0  0  0
  103.4420  112.8970   97.4630 C   0  0  0  0  0  0  0  0  0  0  0  0
  101.0280  112.2960   96.2220 C   0  0  0  0  0  0  0  0  0  0  0  0
  102.2240  111.9500   95.6090 C   0  0  0  0  0  0  0  0  0  0  0  0
  103.4240  112.2440   96.2380 C   0  0  0  0  0  0  0  0  0  0  0  0
  104.5670  111.9090   95.5870 O   0  0  0  0  0  0  0  0  0  0  0  0
  105.5580  112.9410   95.5380 C   0  0  0  0  0  0  0  0  0  0  0  0
  106.6030  112.3460   94.5920 C   0  0  0  0  0  0  0  0  0  0  0  0
   96.3118  107.2326   96.4962 H   0  0  0  0  0  0  0  0  0  0  0  0
   95.7425  108.3976   95.2437 H   0  0  0  0  0  0  0  0  0  0  0  0
   93.3954  107.9908   95.9147 H   0  0  0  0  0  0  0  0  0  0  0  0
   94.1878  106.4548   95.4574 H   0  0  0  0  0  0  0  0  0  0  0  0
   92.9138  106.1919   97.5784 H   0  0  0  0  0  0  0  0  0  0  0  0
   94.6850  106.0087   97.8687 H   0  0  0  0  0  0  0  0  0  0  0  0
   93.0892  108.4548   98.3281 H   0  0  0  0  0  0  0  0  0  0  0  0
   95.0191  109.3622   99.3508 H   0  0  0  0  0  0  0  0  0  0  0  0
   95.8971  107.8193   98.9640 H   0  0  0  0  0  0  0  0  0  0  0  0
   94.8091  109.8872   97.0463 H   0  0  0  0  0  0  0  0  0  0  0  0
   97.6935  108.9486   97.1316 H   0  0  0  0  0  0  0  0  0  0  0  0
   99.9520  109.9616   98.4674 H   0  0  0  0  0  0  0  0  0  0  0  0
   99.2290  109.4057   96.9198 H   0  0  0  0  0  0  0  0  0  0  0  0
  100.4414  110.7312   96.9198 H   0  0  0  0  0  0  0  0  0  0  0  0
   94.3600  113.9361   98.1456 H   0  0  0  0  0  0  0  0  0  0  0  0
   95.9713  116.2818   98.6645 H   0  0  0  0  0  0  0  0  0  0  0  0
   99.9728  113.9868   98.7587 H   0  0  0  0  0  0  0  0  0  0  0  0
  102.2475  113.8203   99.0109 H   0  0  0  0  0  0  0  0  0  0  0  0
  104.3980  113.1059   97.9655 H   0  0  0  0  0  0  0  0  0  0  0  0
  100.0710  112.0158   95.7577 H   0  0  0  0  0  0  0  0  0  0  0  0
  102.2199  111.4462   94.6312 H   0  0  0  0  0  0  0  0  0  0  0  0
  105.1407  113.8750   95.1336 H   0  0  0  0  0  0  0  0  0  0  0  0
  105.9611  113.2114   96.5251 H   0  0  0  0  0  0  0  0  0  0  0  0
  107.4107  111.8861   95.1804 H   0  0  0  0  0  0  0  0  0  0  0  0
  106.1304  111.5815   93.9577 H   0  0  0  0  0  0  0  0  0  0  0  0
  107.0192  113.1425   93.9577 H   0  0  0  0  0  0  0  0  0  0  0  0
  1  2  1  0
  1  6  1  0
  2  3  1  0
  3  4  1  0
  4  5  1  0
  5  6  1  0
  6  7  1  0
  7  8  1  0
  8  9  1  0
  8 11  2  0
  9 10  1  0
  9 17  2  0
 11 12  1  0
 12 13  2  0
 12 16  1  0
 13 14  1  0
 14 15  2  0
 15 16  1  0
 16 17  1  0
 17 18  1  0
 18 19  1  0
 19 20  2  0
 19 22  1  0
 20 21  1  0
 21 24  2  0
 22 23  2  0
 23 24  1  0
 24 25  1  0
 25 26  1  0
 26 27  1  0
  1 28  1  0
  1 29  1  0
  2 30  1  0
  2 31  1  0
  3 32  1  0
  3 33  1  0
  4 34  1  0
  5 35  1  0
  5 36  1  0
  6 37  1  0
  7 38  1  0
 10 39  1  0
 10 40  1  0
 10 41  1  0
 13 42  1  0
 14 43  1  0
 18 44  1  0
 20 45  1  0
 21 46  1  0
 22 47  1  0
 23 48  1  0
 26 49  1  0
 26 50  1  0
 27 51  1  0
 27 52  1  0
 27 53  1  0
A    1
C25
A    2
C26
A    3
C23
A    4
N12
A    5
C22
A    6
C15
A    7
N10
A    8
C4
A    9
C3
A   10
C14
A   11
N6
A   12
C5
A   13
C8
A   14
C11
A   15
N7
A   16
N2
A   17
C1
A   18
N9
A   19
C13
A   20
C17
A   21
C20
A   22
C18
A   23
C19
A   24
C16
A   25
O21
A   26
C24
A   27
C27
M  END
