3A2H_TEJ_A_1
     RDKit          3D

 69 72  0  0  0  0  0  0  0  0999 V2000
    5.7660   -0.9820   11.5000 O   0  0  0  0  0  0  0  0  0  0  0  0
    5.8400    0.1210   12.0330 C   0  0  0  0  0  0  0  0  0  0  0  0
    5.0490    1.1860   11.8160 C   0  0  0  0  0  0  0  0  0  0  0  0
    4.0400    1.2800   10.9540 C   0  0  0  0  0  0  0  0  0  0  0  0
    5.4620    2.3330   12.7040 C   0  0  0  0  0  0  0  0  0  0  0  0
    6.5880    1.7150   13.5470 C   0  0  0  0  0  0  0  0  0  0  0  0
    6.8770    0.4040   13.0150 O   0  0  0  0  0  0  0  0  0  0  0  0
    7.7980    2.6280   13.4600 C   0  0  0  0  0  0  0  0  0  0  0  0
    8.6230    2.7760   14.7470 C   0  0  0  0  0  0  0  0  0  0  0  0
    7.8170    2.9890   16.0270 C   0  0  0  0  0  0  0  0  0  0  0  0
    9.7270    3.8570   14.6960 C   0  0  0  0  0  0  0  0  0  0  0  0
   11.1060    3.2350   14.4200 C   0  0  0  0  0  0  0  0  0  0  0  0
   11.9880    4.3870   13.9440 C   0  0  0  0  0  0  0  0  0  0  0  0
   11.0570    5.6010   14.0580 C   0  0  0  0  0  0  0  0  0  0  0  0
    9.6470    5.0950   13.7780 C   0  0  0  0  0  0  0  0  0  0  0  0
    9.4260    4.7720   12.2830 C   0  0  0  0  0  0  0  0  0  0  0  0
   11.3370    6.8030   13.2050 C   0  0  0  0  0  0  0  0  0  0  0  0
   10.4080    7.9850   13.4560 C   0  0  0  0  0  0  0  0  0  0  0  0
    8.9290    7.5450   13.4860 C   0  0  0  0  0  0  0  0  0  0  0  0
    8.6340    6.1850   14.1660 C   0  0  0  0  0  0  0  0  0  0  0  0
   12.3210    6.7940   12.2710 C   0  0  0  0  0  0  0  0  0  0  0  0
   12.6360    7.9360   11.4040 C   0  0  0  0  0  0  0  0  0  0  0  0
   13.1500    7.8550   10.1610 C   0  0  0  0  0  0  0  0  0  0  0  0
   13.4270    9.1270    9.4120 C   0  0  0  0  0  0  0  0  0  0  0  0
   14.8390    9.0880    8.8080 C   0  0  0  0  0  0  0  0  0  0  0  0
   15.8260    9.1640    9.8360 O   0  0  0  0  0  0  0  0  0  0  0  0
   15.1080    7.8120    8.0150 C   0  0  0  0  0  0  0  0  0  0  0  0
   14.8430    6.5300    8.8020 C   0  0  0  0  0  0  0  0  0  0  0  0
   14.9020    5.4500    7.8680 O   0  0  0  0  0  0  0  0  0  0  0  0
   13.4930    6.6070    9.4680 C   0  0  0  0  0  0  0  0  0  0  0  0
   12.6270    5.5980    9.3820 C   0  0  0  0  0  0  0  0  0  0  0  0
    3.4692    2.2170   10.8754 H   0  0  0  0  0  0  0  0  0  0  0  0
    3.7765    0.4207   10.3199 H   0  0  0  0  0  0  0  0  0  0  0  0
    5.8308    3.1822   12.1101 H   0  0  0  0  0  0  0  0  0  0  0  0
    4.6364    2.7391   13.3068 H   0  0  0  0  0  0  0  0  0  0  0  0
    6.3014    1.6112   14.6039 H   0  0  0  0  0  0  0  0  0  0  0  0
    8.4626    2.2325   12.6777 H   0  0  0  0  0  0  0  0  0  0  0  0
    7.3987    3.6305   13.2465 H   0  0  0  0  0  0  0  0  0  0  0  0
    9.0925    1.7822   14.7912 H   0  0  0  0  0  0  0  0  0  0  0  0
    8.4637    2.8181   16.9002 H   0  0  0  0  0  0  0  0  0  0  0  0
    7.4329    4.0195   16.0512 H   0  0  0  0  0  0  0  0  0  0  0  0
    6.9740    2.2828   16.0512 H   0  0  0  0  0  0  0  0  0  0  0  0
    9.5496    4.2660   15.7016 H   0  0  0  0  0  0  0  0  0  0  0  0
   11.5174    2.7904   15.3382 H   0  0  0  0  0  0  0  0  0  0  0  0
   11.0475    2.4309   13.6716 H   0  0  0  0  0  0  0  0  0  0  0  0
   12.8705    4.5030   14.5903 H   0  0  0  0  0  0  0  0  0  0  0  0
   12.3863    4.2387   12.9294 H   0  0  0  0  0  0  0  0  0  0  0  0
   11.2185    5.9961   15.0718 H   0  0  0  0  0  0  0  0  0  0  0  0
    8.8070    3.8673   12.1909 H   0  0  0  0  0  0  0  0  0  0  0  0
    8.9156    5.6165   11.7970 H   0  0  0  0  0  0  0  0  0  0  0  0
   10.3981    4.6022   11.7970 H   0  0  0  0  0  0  0  0  0  0  0  0
   10.6646    8.4424   14.4229 H   0  0  0  0  0  0  0  0  0  0  0  0
   10.5372    8.7061   12.6354 H   0  0  0  0  0  0  0  0  0  0  0  0
    8.3595    8.3187   14.0218 H   0  0  0  0  0  0  0  0  0  0  0  0
    8.6385    7.4168   12.4328 H   0  0  0  0  0  0  0  0  0  0  0  0
    7.6286    5.8532   13.8676 H   0  0  0  0  0  0  0  0  0  0  0  0
    8.7072    6.3346   15.2533 H   0  0  0  0  0  0  0  0  0  0  0  0
   12.9179    5.8771   12.1567 H   0  0  0  0  0  0  0  0  0  0  0  0
   12.4358    8.9416   11.8022 H   0  0  0  0  0  0  0  0  0  0  0  0
   12.6890    9.2416    8.6044 H   0  0  0  0  0  0  0  0  0  0  0  0
   13.3565    9.9765   10.1072 H   0  0  0  0  0  0  0  0  0  0  0  0
   14.8975    9.9524    8.1302 H   0  0  0  0  0  0  0  0  0  0  0  0
   15.3839    9.1300   10.7211 H   0  0  0  0  0  0  0  0  0  0  0  0
   14.4605    7.8132    7.1258 H   0  0  0  0  0  0  0  0  0  0  0  0
   16.1773    7.8144    7.7570 H   0  0  0  0  0  0  0  0  0  0  0  0
   15.5882    6.3826    9.5976 H   0  0  0  0  0  0  0  0  0  0  0  0
   14.9489    4.5915    8.3588 H   0  0  0  0  0  0  0  0  0  0  0  0
   11.6461    5.6716    9.8744 H   0  0  0  0  0  0  0  0  0  0  0  0
   12.8929    4.6915    8.8186 H   0  0  0  0  0  0  0  0  0  0  0  0
  1  2  2  0
  2  7  1  0
  3  2  1  0
  3  5  1  0
  4  3  2  3
  5  6  1  0
  7  6  1  0
  8  6  1  0
  8  9  1  0
  9 10  1  0
 11  9  1  0
 12 11  1  0
 13 12  1  0
 13 14  1  0
 15 11  1  0
 15 14  1  0
 15 20  1  0
 16 15  1  0
 17 14  1  0
 17 18  1  0
 18 19  1  0
 19 20  1  0
 21 17  2  0
 22 21  1  0
 23 22  2  0
 24 23  1  0
 25 24  1  0
 25 26  1  0
 27 25  1  0
 27 28  1  0
 28 30  1  0
 29 28  1  0
 30 23  1  0
 31 30  2  0
  4 32  1  0
  4 33  1  0
  5 34  1  0
  5 35  1  0
  6 36  1  0
  8 37  1  0
  8 38  1  0
  9 39  1  0
 10 40  1  0
 10 41  1  0
 10 42  1  0
 11 43  1  0
 12 44  1  0
 12 45  1  0
 13 46  1  0
 13 47  1  0
 14 48  1  0
 16 49  1  0
 16 50  1  0
 16 51  1  0
 18 52  1  0
 18 53  1  0
 19 54  1  0
 19 55  1  0
 20 56  1  0
 20 57  1  0
 21 58  1  0
 22 59  1  0
 24 60  1  0
 24 61  1  0
 25 62  1  0
 26 63  1  0
 27 64  1  0
 27 65  1  0
 28 66  1  0
 29 67  1  0
 31 68  1  0
 31 69  1  0
A    1
O21
A    2
C17
A    3
C18
A    4
C20
A    5
C19
A    6
C15
A    7
O16
A    8
C12
A    9
C10
A   10
C11
A   11
C7
A   12
C8
A   13
C9
A   14
C5
A   15
C6
A   16
C22
A   17
C4
A   18
C3
A   19
C2
A   20
C1
A   21
C23
A   22
C24
A   23
C25
A   24
C26
A   25
C27
A   26
O34
A   27
C73
A   28
C29
A   29
O32
A   30
C30
A   31
C31
M  END
