3A3Z_2MV_X_1
     RDKit          3D

 79 82  0  0  0  0  0  0  0  0999 V2000
    4.7790   26.5970   34.8970 O   0  0  0  0  0  0  0  0  0  0  0  0
    5.1170   25.5470   33.9760 C   0  0  0  0  0  0  0  0  0  0  0  0
    4.0670   24.4560   34.1200 C   0  0  0  0  0  0  0  0  0  0  0  0
    5.0230   26.1370   32.5720 C   0  0  0  0  0  0  0  0  0  0  0  0
    6.5030   24.9680   34.2950 C   0  0  0  0  0  0  0  0  0  0  0  0
    7.6540   25.9820   34.3200 C   0  0  0  0  0  0  0  0  0  0  0  0
    8.8040   25.5810   35.2400 C   0  0  0  0  0  0  0  0  0  0  0  0
    8.3570   26.0970   32.9720 C   0  0  0  0  0  0  0  0  0  0  0  0
    9.7060   26.4860   33.2520 O   0  0  0  0  0  0  0  0  0  0  0  0
   10.0220   26.2970   34.6430 C   0  0  0  0  0  0  0  0  0  0  0  0
   10.1060   27.6880   35.2820 C   0  0  0  0  0  0  0  0  0  0  0  0
   11.4080   25.6110   34.7940 C   0  0  0  0  0  0  0  0  0  0  0  0
   11.8300   24.4890   33.8350 C   0  0  0  0  0  0  0  0  0  0  0  0
   10.8240   23.3370   33.7860 C   0  0  0  0  0  0  0  0  0  0  0  0
   12.1630   24.9170   32.4060 C   0  0  0  0  0  0  0  0  0  0  0  0
   12.9500   23.8610   31.6020 C   0  0  0  0  0  0  0  0  0  0  0  0
   14.1550   23.2350   32.3300 C   0  0  0  0  0  0  0  0  0  0  0  0
   11.7420   25.0730   36.2010 C   0  0  0  0  0  0  0  0  0  0  0  0
   12.8400   24.0140   36.0050 C   0  0  0  0  0  0  0  0  0  0  0  0
   13.1390   24.0930   34.5040 C   0  0  0  0  0  0  0  0  0  0  0  0
   13.8110   22.9470   33.7820 C   0  0  0  0  0  0  0  0  0  0  0  0
   14.0740   21.7620   34.3730 C   0  0  0  0  0  0  0  0  0  0  0  0
   14.7440   20.6410   33.6970 C   0  0  0  0  0  0  0  0  0  0  0  0
   14.5750   19.3300   33.9810 C   0  0  0  0  0  0  0  0  0  0  0  0
   13.6540   18.8010   34.9950 C   0  0  0  0  0  0  0  0  0  0  0  0
   12.4020   19.2340   35.0670 C   0  0  0  0  0  0  0  0  0  0  0  0
   14.1720   17.7090   35.9070 C   0  0  0  0  0  0  0  0  0  0  0  0
   13.1440   17.1310   36.7220 O   0  0  0  0  0  0  0  0  0  0  0  0
   15.3760   18.3090   33.1980 C   0  0  0  0  0  0  0  0  0  0  0  0
   15.9330   17.2260   34.1370 C   0  0  0  0  0  0  0  0  0  0  0  0
   17.0010   17.7780   34.9220 O   0  0  0  0  0  0  0  0  0  0  0  0
   14.8890   16.6210   35.0880 C   0  0  0  0  0  0  0  0  0  0  0  0
   13.9390   15.6570   34.3620 C   0  0  0  0  0  0  0  0  0  0  0  0
    4.8847   26.2687   35.8250 H   0  0  0  0  0  0  0  0  0  0  0  0
    3.8820   24.2637   35.1871 H   0  0  0  0  0  0  0  0  0  0  0  0
    3.1327   24.7804   33.6385 H   0  0  0  0  0  0  0  0  0  0  0  0
    4.4270   23.5348   33.6385 H   0  0  0  0  0  0  0  0  0  0  0  0
    4.8503   27.2212   32.6407 H   0  0  0  0  0  0  0  0  0  0  0  0
    5.9624   25.9489   32.0316 H   0  0  0  0  0  0  0  0  0  0  0  0
    4.1885   25.6663   32.0316 H   0  0  0  0  0  0  0  0  0  0  0  0
    6.4509   24.4904   35.2845 H   0  0  0  0  0  0  0  0  0  0  0  0
    6.7338   24.2702   33.4766 H   0  0  0  0  0  0  0  0  0  0  0  0
    7.1492   26.9042   34.6436 H   0  0  0  0  0  0  0  0  0  0  0  0
    8.6173   25.9193   36.2699 H   0  0  0  0  0  0  0  0  0  0  0  0
    8.9397   24.4910   35.2985 H   0  0  0  0  0  0  0  0  0  0  0  0
    8.3407   25.1286   32.4505 H   0  0  0  0  0  0  0  0  0  0  0  0
    7.8569   26.8306   32.3225 H   0  0  0  0  0  0  0  0  0  0  0  0
   10.1000   27.5892   36.3775 H   0  0  0  0  0  0  0  0  0  0  0  0
   11.0356   28.1823   34.9635 H   0  0  0  0  0  0  0  0  0  0  0  0
    9.2426   28.2906   34.9635 H   0  0  0  0  0  0  0  0  0  0  0  0
   11.9752   26.5143   34.5250 H   0  0  0  0  0  0  0  0  0  0  0  0
   10.5611   23.0359   34.8108 H   0  0  0  0  0  0  0  0  0  0  0  0
    9.9174   23.6642   33.2560 H   0  0  0  0  0  0  0  0  0  0  0  0
   11.2704   22.4827   33.2560 H   0  0  0  0  0  0  0  0  0  0  0  0
   11.2202   25.1220   31.8777 H   0  0  0  0  0  0  0  0  0  0  0  0
   12.8078   25.8050   32.4818 H   0  0  0  0  0  0  0  0  0  0  0  0
   12.2556   23.0501   31.3371 H   0  0  0  0  0  0  0  0  0  0  0  0
   13.3651   24.3915   30.7323 H   0  0  0  0  0  0  0  0  0  0  0  0
   14.4308   22.2947   31.8303 H   0  0  0  0  0  0  0  0  0  0  0  0
   14.9961   23.9432   32.2982 H   0  0  0  0  0  0  0  0  0  0  0  0
   12.1077   25.8872   36.8439 H   0  0  0  0  0  0  0  0  0  0  0  0
   10.8536   24.6444   36.6880 H   0  0  0  0  0  0  0  0  0  0  0  0
   13.7335   24.2577   36.5985 H   0  0  0  0  0  0  0  0  0  0  0  0
   12.5334   23.0093   36.3314 H   0  0  0  0  0  0  0  0  0  0  0  0
   13.9543   24.8267   34.4205 H   0  0  0  0  0  0  0  0  0  0  0  0
   13.7693   21.6272   35.4213 H   0  0  0  0  0  0  0  0  0  0  0  0
   15.4456   20.8916   32.8877 H   0  0  0  0  0  0  0  0  0  0  0  0
   11.7230   18.8288   35.8317 H   0  0  0  0  0  0  0  0  0  0  0  0
   12.0429   19.9982   34.3619 H   0  0  0  0  0  0  0  0  0  0  0  0
   14.8912   18.1804   36.5930 H   0  0  0  0  0  0  0  0  0  0  0  0
   13.3699   17.2580   37.6775 H   0  0  0  0  0  0  0  0  0  0  0  0
   14.7253   17.8372   32.4470 H   0  0  0  0  0  0  0  0  0  0  0  0
   16.2168   18.8188   32.7048 H   0  0  0  0  0  0  0  0  0  0  0  0
   16.2824   16.4111   33.4860 H   0  0  0  0  0  0  0  0  0  0  0  0
   16.7931   17.6706   35.8839 H   0  0  0  0  0  0  0  0  0  0  0  0
   15.4210   15.9994   35.8232 H   0  0  0  0  0  0  0  0  0  0  0  0
   13.3681   15.0777   35.1026 H   0  0  0  0  0  0  0  0  0  0  0  0
   13.2445   16.2319   33.7317 H   0  0  0  0  0  0  0  0  0  0  0  0
   14.5240   14.9710   33.7317 H   0  0  0  0  0  0  0  0  0  0  0  0
  1  2  1  0
  2  3  1  0
  2  4  1  0
  2  5  1  0
  5  6  1  0
  6  7  1  0
  6  8  1  0
  7 10  1  0
  8  9  1  0
  9 10  1  0
 10 11  1  0
 10 12  1  0
 12 13  1  0
 12 18  1  0
 13 14  1  0
 13 15  1  0
 13 20  1  0
 15 16  1  0
 16 17  1  0
 17 21  1  0
 18 19  1  0
 19 20  1  0
 20 21  1  0
 21 22  2  0
 22 23  1  0
 23 24  2  0
 24 25  1  0
 24 29  1  0
 25 26  2  0
 25 27  1  0
 27 28  1  0
 27 32  1  0
 29 30  1  0
 30 31  1  0
 30 32  1  0
 32 33  1  0
  1 34  1  0
  3 35  1  0
  3 36  1  0
  3 37  1  0
  4 38  1  0
  4 39  1  0
  4 40  1  0
  5 41  1  0
  5 42  1  0
  6 43  1  0
  7 44  1  0
  7 45  1  0
  8 46  1  0
  8 47  1  0
 11 48  1  0
 11 49  1  0
 11 50  1  0
 12 51  1  0
 14 52  1  0
 14 53  1  0
 14 54  1  0
 15 55  1  0
 15 56  1  0
 16 57  1  0
 16 58  1  0
 17 59  1  0
 17 60  1  0
 18 61  1  0
 18 62  1  0
 19 63  1  0
 19 64  1  0
 20 65  1  0
 22 66  1  0
 23 67  1  0
 26 68  1  0
 26 69  1  0
 27 70  1  0
 28 71  1  0
 29 72  1  0
 29 73  1  0
 30 74  1  0
 31 75  1  0
 32 76  1  0
 33 77  1  0
 33 78  1  0
 33 79  1  0
A    1
O26
A    2
C26
A    3
C27
A    4
C28
A    5
C25
A    6
C23
A    7
C22
A    8
C24
A    9
O20
A   10
C20
A   11
C21
A   12
C17
A   13
C13
A   14
C18
A   15
C12
A   16
C11
A   17
C9
A   18
C16
A   19
C15
A   20
C14
A   21
C8
A   22
C7
A   23
C6
A   24
C5
A   25
C10
A   26
C19
A   27
C1
A   28
O1
A   29
C4
A   30
C3
A   31
O3
A   32
C2
A   33
C29
M  END
