3A4P_DFQ_A_1362
     RDKit          3D

 45 47  0  0  0  0  0  0  0  0999 V2000
  -26.4880  -19.7530   -2.5780 C   0  0  0  0  0  0  0  0  0  0  0  0
  -25.5060  -20.3830   -1.6950 N   0  0  0  0  0  0  0  0  0  0  0  0
  -24.3700  -19.7870   -1.2970 C   0  0  0  0  0  0  0  0  0  0  0  0
  -23.9990  -18.6600   -1.6490 O   0  0  0  0  0  0  0  0  0  0  0  0
  -23.5800  -20.5570   -0.4260 C   0  0  0  0  0  0  0  0  0  0  0  0
  -22.3230  -20.1790    0.0650 C   0  0  0  0  0  0  0  0  0  0  0  0
  -21.7330  -20.9370    1.1060 C   0  0  0  0  0  0  0  0  0  0  0  0
  -20.9730  -20.2930    2.0910 C   0  0  0  0  0  0  0  0  0  0  0  0
  -20.4290  -21.0120    3.1350 C   0  0  0  0  0  0  0  0  0  0  0  0
  -19.6360  -20.3770    4.0830 C   0  0  0  0  0  0  0  0  0  0  0  0
  -21.9490  -22.2980    1.3090 C   0  0  0  0  0  0  0  0  0  0  0  0
  -21.4330  -22.9740    2.3300 N   0  0  0  0  0  0  0  0  0  0  0  0
  -20.6780  -22.3830    3.2490 C   0  0  0  0  0  0  0  0  0  0  0  0
  -20.1370  -23.1410    4.2900 C   0  0  0  0  0  0  0  0  0  0  0  0
  -19.3700  -22.5020    5.2560 C   0  0  0  0  0  0  0  0  0  0  0  0
  -19.1010  -21.1400    5.1550 C   0  0  0  0  0  0  0  0  0  0  0  0
  -18.3020  -20.5960    6.1210 O   0  0  0  0  0  0  0  0  0  0  0  0
  -17.8120  -19.1660    6.1240 C   0  0  0  0  0  0  0  0  0  0  0  0
  -16.4480  -19.0800    6.8660 C   0  0  0  0  0  0  0  0  0  0  0  0
  -18.9650  -18.3240    6.7330 C   0  0  0  0  0  0  0  0  0  0  0  0
  -19.6940  -18.6780    7.8930 C   0  0  0  0  0  0  0  0  0  0  0  0
  -19.3510  -20.0890    8.8320 Cl  0  0  0  0  0  0  0  0  0  0  0  0
  -20.7350  -17.8510    8.3660 C   0  0  0  0  0  0  0  0  0  0  0  0
  -21.4380  -18.1690    9.4760 F   0  0  0  0  0  0  0  0  0  0  0  0
  -21.0700  -16.6850    7.6920 C   0  0  0  0  0  0  0  0  0  0  0  0
  -20.3740  -16.3540    6.5420 C   0  0  0  0  0  0  0  0  0  0  0  0
  -19.3480  -17.1660    6.0850 C   0  0  0  0  0  0  0  0  0  0  0  0
  -18.5320  -16.6870    4.6710 Cl  0  0  0  0  0  0  0  0  0  0  0  0
  -27.2609  -19.2572   -1.9723 H   0  0  0  0  0  0  0  0  0  0  0  0
  -25.9857  -19.0081   -3.2128 H   0  0  0  0  0  0  0  0  0  0  0  0
  -26.9557  -20.5201   -3.2128 H   0  0  0  0  0  0  0  0  0  0  0  0
  -25.6967  -21.3380   -1.3595 H   0  0  0  0  0  0  0  0  0  0  0  0
  -23.9788  -21.5307   -0.1052 H   0  0  0  0  0  0  0  0  0  0  0  0
  -21.8014  -19.3052   -0.3525 H   0  0  0  0  0  0  0  0  0  0  0  0
  -20.8090  -19.2069    2.0315 H   0  0  0  0  0  0  0  0  0  0  0  0
  -19.4258  -19.3001    4.0045 H   0  0  0  0  0  0  0  0  0  0  0  0
  -22.5783  -22.8404    0.5880 H   0  0  0  0  0  0  0  0  0  0  0  0
  -20.3152  -24.2251    4.3440 H   0  0  0  0  0  0  0  0  0  0  0  0
  -18.9727  -23.0760    6.1061 H   0  0  0  0  0  0  0  0  0  0  0  0
  -17.5930  -18.7644    5.1236 H   0  0  0  0  0  0  0  0  0  0  0  0
  -16.6202  -19.0909    7.9524 H   0  0  0  0  0  0  0  0  0  0  0  0
  -15.8230  -19.9405    6.5852 H   0  0  0  0  0  0  0  0  0  0  0  0
  -15.9360  -18.1478    6.5852 H   0  0  0  0  0  0  0  0  0  0  0  0
  -21.8750  -16.0348    8.0652 H   0  0  0  0  0  0  0  0  0  0  0  0
  -20.6369  -15.4410    5.9876 H   0  0  0  0  0  0  0  0  0  0  0  0
  1  2  1  0
  2  3  1  0
  3  4  2  0
  3  5  1  0
  5  6  2  0
  6  7  1  0
  7  8  2  0
  7 11  1  0
  8  9  1  0
  9 10  2  0
  9 13  1  0
 10 16  1  0
 11 12  2  0
 12 13  1  0
 13 14  2  0
 14 15  1  0
 15 16  2  0
 16 17  1  0
 17 18  1  0
 18 19  1  0
 18 20  1  0
 20 21  2  0
 20 27  1  0
 21 22  1  0
 21 23  1  0
 23 24  1  0
 23 25  2  0
 25 26  1  0
 26 27  2  0
 27 28  1  0
  1 29  1  0
  1 30  1  0
  1 31  1  0
  2 32  1  0
  5 33  1  0
  6 34  1  0
  8 35  1  0
 10 36  1  0
 11 37  1  0
 14 38  1  0
 15 39  1  0
 18 40  1  0
 19 41  1  0
 19 42  1  0
 19 43  1  0
 25 44  1  0
 26 45  1  0
A    1
C1
A    2
N2
A    3
C4
A    4
O5
A    5
C6
A    6
C7
A    7
C8
A    8
C9
A    9
C10
A   10
C11
A   11
C12
A   12
N13
A   13
C14
A   14
C15
A   15
C16
A   16
C17
A   17
O18
A   18
C19
A   19
C20
A   20
C21
A   21
C22
A   22
CL23
A   23
C24
A   24
F25
A   25
C26
A   26
C27
A   27
C28
A   28
CL29
M  END
