2GJ5_VD3_A_163
     RDKit          3D

 72 74  0  0  0  0  0  0  0  0999 V2000
   -0.3760    0.1720   24.5870 O   0  0  0  0  0  0  0  0  0  0  0  0
    0.7100    1.3280   21.4030 C   0  0  0  0  0  0  0  0  0  0  0  0
    0.4350    1.6960   22.8140 C   0  0  0  0  0  0  0  0  0  0  0  0
   -0.8320    1.0150   23.5110 C   0  0  0  0  0  0  0  0  0  0  0  0
   -1.6350    0.1660   22.4900 C   0  0  0  0  0  0  0  0  0  0  0  0
   -1.8270    0.8320   21.0410 C   0  0  0  0  0  0  0  0  0  0  0  0
   -3.0170    0.7230   20.3760 C   0  0  0  0  0  0  0  0  0  0  0  0
   -4.4060    1.3320   20.3160 C   0  0  0  0  0  0  0  0  0  0  0  0
   -4.6770    2.6370   19.8890 C   0  0  0  0  0  0  0  0  0  0  0  0
   -4.6590    2.1750   18.3350 C   0  0  0  0  0  0  0  0  0  0  0  0
   -0.5570    1.5740   20.5560 C   0  0  0  0  0  0  0  0  0  0  0  0
   -4.3550    3.2200   17.3230 C   0  0  0  0  0  0  0  0  0  0  0  0
   -4.6900    4.7220   17.6710 C   0  0  0  0  0  0  0  0  0  0  0  0
   -4.3770    5.1520   19.1110 C   0  0  0  0  0  0  0  0  0  0  0  0
   -3.7620    3.9740   19.9600 C   0  0  0  0  0  0  0  0  0  0  0  0
   -3.5680    4.7120   21.3800 C   0  0  0  0  0  0  0  0  0  0  0  0
   -3.2280    6.2690   21.0100 C   0  0  0  0  0  0  0  0  0  0  0  0
   -3.2090    6.2670   19.4350 C   0  0  0  0  0  0  0  0  0  0  0  0
   -5.8170    5.6360   19.6230 C   0  0  0  0  0  0  0  0  0  0  0  0
   -0.5150    2.3310   19.5340 C   0  0  0  0  0  0  0  0  0  0  0  0
   -3.5620    7.7220   18.7240 C   0  0  0  0  0  0  0  0  0  0  0  0
   -2.8980    7.7440   17.3660 C   0  0  0  0  0  0  0  0  0  0  0  0
   -3.0400    9.0810   19.3210 C   0  0  0  0  0  0  0  0  0  0  0  0
   -4.1810   10.2680   18.9580 C   0  0  0  0  0  0  0  0  0  0  0  0
   -3.2030   11.4000   18.5670 C   0  0  0  0  0  0  0  0  0  0  0  0
   -3.4180   12.8640   19.0180 C   0  0  0  0  0  0  0  0  0  0  0  0
   -2.1790   12.8600   19.7030 C   0  0  0  0  0  0  0  0  0  0  0  0
   -3.0820   14.1050   18.3630 C   0  0  0  0  0  0  0  0  0  0  0  0
   -0.6032    0.5920   25.4542 H   0  0  0  0  0  0  0  0  0  0  0  0
    1.5356    1.9438   21.0168 H   0  0  0  0  0  0  0  0  0  0  0  0
    0.9906    0.2659   21.3469 H   0  0  0  0  0  0  0  0  0  0  0  0
    1.3227    1.4273   23.4055 H   0  0  0  0  0  0  0  0  0  0  0  0
    0.2014    2.7706   22.7872 H   0  0  0  0  0  0  0  0  0  0  0  0
   -1.4931    1.8039   23.8990 H   0  0  0  0  0  0  0  0  0  0  0  0
   -1.1096   -0.7912   22.3568 H   0  0  0  0  0  0  0  0  0  0  0  0
   -2.6455    0.0603   22.9116 H   0  0  0  0  0  0  0  0  0  0  0  0
   -2.9418   -0.0811   19.6291 H   0  0  0  0  0  0  0  0  0  0  0  0
   -5.2553    0.7067   20.6286 H   0  0  0  0  0  0  0  0  0  0  0  0
   -3.9014    1.3841   18.2329 H   0  0  0  0  0  0  0  0  0  0  0  0
   -5.6907    1.8603   18.1190 H   0  0  0  0  0  0  0  0  0  0  0  0
   -3.2761    3.1672   17.1151 H   0  0  0  0  0  0  0  0  0  0  0  0
   -5.0215    2.9826   16.4808 H   0  0  0  0  0  0  0  0  0  0  0  0
   -4.1106    5.3646   16.9918 H   0  0  0  0  0  0  0  0  0  0  0  0
   -5.7792    4.8232   17.5554 H   0  0  0  0  0  0  0  0  0  0  0  0
   -2.8105    3.5400   19.6192 H   0  0  0  0  0  0  0  0  0  0  0  0
   -4.4901    4.6496   21.9765 H   0  0  0  0  0  0  0  0  0  0  0  0
   -2.7710    4.2480   21.9795 H   0  0  0  0  0  0  0  0  0  0  0  0
   -4.0059    6.9450   21.3945 H   0  0  0  0  0  0  0  0  0  0  0  0
   -2.2852    6.6223   21.4530 H   0  0  0  0  0  0  0  0  0  0  0  0
   -2.2079    6.0504   19.0340 H   0  0  0  0  0  0  0  0  0  0  0  0
   -5.8324    5.6412   20.7229 H   0  0  0  0  0  0  0  0  0  0  0  0
   -6.0172    6.6508   19.2487 H   0  0  0  0  0  0  0  0  0  0  0  0
   -6.5895    4.9481   19.2487 H   0  0  0  0  0  0  0  0  0  0  0  0
   -1.4233    2.4999   18.9370 H   0  0  0  0  0  0  0  0  0  0  0  0
    0.4296    2.8164   19.2476 H   0  0  0  0  0  0  0  0  0  0  0  0
   -4.6574    7.7216   18.8241 H   0  0  0  0  0  0  0  0  0  0  0  0
   -1.8059    7.7802   17.4924 H   0  0  0  0  0  0  0  0  0  0  0  0
   -3.1728    6.8363   16.8088 H   0  0  0  0  0  0  0  0  0  0  0  0
   -3.2322    8.6316   16.8088 H   0  0  0  0  0  0  0  0  0  0  0  0
   -2.9248    8.9922   20.4113 H   0  0  0  0  0  0  0  0  0  0  0  0
   -2.0613    9.3413   18.8916 H   0  0  0  0  0  0  0  0  0  0  0  0
   -4.8342    9.9756   18.1226 H   0  0  0  0  0  0  0  0  0  0  0  0
   -4.8983   10.5064   19.7571 H   0  0  0  0  0  0  0  0  0  0  0  0
   -2.2170   11.1012   18.9524 H   0  0  0  0  0  0  0  0  0  0  0  0
   -3.3547   11.4697   17.4797 H   0  0  0  0  0  0  0  0  0  0  0  0
   -4.4919   12.9408   19.2433 H   0  0  0  0  0  0  0  0  0  0  0  0
   -2.3599   12.8606   20.7880 H   0  0  0  0  0  0  0  0  0  0  0  0
   -1.6101   11.9600   19.4266 H   0  0  0  0  0  0  0  0  0  0  0  0
   -1.6043   13.7563   19.4266 H   0  0  0  0  0  0  0  0  0  0  0  0
   -2.8736   14.8748   19.1206 H   0  0  0  0  0  0  0  0  0  0  0  0
   -2.1912   13.9584   17.7345 H   0  0  0  0  0  0  0  0  0  0  0  0
   -3.9251   14.4279   17.7345 H   0  0  0  0  0  0  0  0  0  0  0  0
  1  4  1  0
  2  3  1  0
  2 11  1  0
  3  4  1  0
  4  5  1  0
  5  6  1  0
  6  7  2  0
  6 11  1  0
  7  8  1  0
  8  9  2  0
  9 10  1  0
  9 15  1  0
 10 12  1  0
 11 20  2  0
 12 13  1  0
 13 14  1  0
 14 15  1  0
 14 18  1  0
 14 19  1  0
 15 16  1  0
 16 17  1  0
 17 18  1  0
 18 21  1  0
 21 22  1  0
 21 23  1  0
 23 24  1  0
 24 25  1  0
 25 26  1  0
 26 27  1  0
 26 28  1  0
  1 29  1  0
  2 30  1  0
  2 31  1  0
  3 32  1  0
  3 33  1  0
  4 34  1  0
  5 35  1  0
  5 36  1  0
  7 37  1  0
  8 38  1  0
 10 39  1  0
 10 40  1  0
 12 41  1  0
 12 42  1  0
 13 43  1  0
 13 44  1  0
 15 45  1  0
 16 46  1  0
 16 47  1  0
 17 48  1  0
 17 49  1  0
 18 50  1  0
 19 51  1  0
 19 52  1  0
 19 53  1  0
 20 54  1  0
 20 55  1  0
 21 56  1  0
 22 57  1  0
 22 58  1  0
 22 59  1  0
 23 60  1  0
 23 61  1  0
 24 62  1  0
 24 63  1  0
 25 64  1  0
 25 65  1  0
 26 66  1  0
 27 67  1  0
 27 68  1  0
 27 69  1  0
 28 70  1  0
 28 71  1  0
 28 72  1  0
A    1
O
A    2
C1
A    3
C2
A    4
C3
A    5
C4
A    6
C5
A    7
C7
A    8
C8
A    9
C9
A   10
C10
A   11
C6
A   12
C11
A   13
C12
A   14
C13
A   15
C14
A   16
C15
A   17
C16
A   18
C17
A   19
C18
A   20
C19
A   21
C20
A   22
C21
A   23
C22
A   24
C23
A   25
C24
A   26
C25
A   27
C26
A   28
C27
M  END
