3A74_LYN_A_495
     RDKit          3D

 26 25  0  0  0  0  0  0  0  0999 V2000
   62.8770  -70.1540   22.3400 N   0  0  0  0  0  0  0  0  0  0  0  0
   61.8960  -70.8930   21.5320 C   0  0  0  0  0  0  0  0  0  0  0  0
   62.5590  -72.1450   20.9510 C   0  0  0  0  0  0  0  0  0  0  0  0
   63.6200  -71.8060   19.9000 C   0  0  0  0  0  0  0  0  0  0  0  0
   62.9880  -71.2570   18.6190 C   0  0  0  0  0  0  0  0  0  0  0  0
   64.0470  -70.8960   17.5750 C   0  0  0  0  0  0  0  0  0  0  0  0
   64.8730  -69.7810   18.0620 N   0  0  0  0  0  0  0  0  0  0  0  0
   60.7320  -71.3090   22.4330 C   0  0  0  0  0  0  0  0  0  0  0  0
   60.9330  -71.7590   23.5600 O   0  0  0  0  0  0  0  0  0  0  0  0
   59.5250  -71.1360   21.9020 N   0  0  0  0  0  0  0  0  0  0  0  0
   62.6798  -70.3026   23.3400 H   0  0  0  0  0  0  0  0  0  0  0  0
   63.8253  -70.4926   22.1231 H   0  0  0  0  0  0  0  0  0  0  0  0
   61.5293  -70.2587   20.7115 H   0  0  0  0  0  0  0  0  0  0  0  0
   63.0371  -72.7040   21.7689 H   0  0  0  0  0  0  0  0  0  0  0  0
   61.7772  -72.7426   20.4594 H   0  0  0  0  0  0  0  0  0  0  0  0
   64.3034  -71.0497   20.3135 H   0  0  0  0  0  0  0  0  0  0  0  0
   64.1623  -72.7293   19.6480 H   0  0  0  0  0  0  0  0  0  0  0  0
   62.3171  -72.0199   18.1972 H   0  0  0  0  0  0  0  0  0  0  0  0
   62.4332  -70.3423   18.8751 H   0  0  0  0  0  0  0  0  0  0  0  0
   64.6881  -71.7703   17.3889 H   0  0  0  0  0  0  0  0  0  0  0  0
   63.5472  -70.5950   16.6425 H   0  0  0  0  0  0  0  0  0  0  0  0
   64.8744  -69.7791   19.0920 H   0  0  0  0  0  0  0  0  0  0  0  0
   65.8373  -69.8921   17.7175 H   0  0  0  0  0  0  0  0  0  0  0  0
   64.4858  -68.8909   17.7175 H   0  0  0  0  0  0  0  0  0  0  0  0
   58.7051  -71.0185   22.5142 H   0  0  0  0  0  0  0  0  0  0  0  0
   59.4102  -71.1195   20.8786 H   0  0  0  0  0  0  0  0  0  0  0  0
  1  2  1  0
  2  3  1  0
  2  8  1  0
  3  4  1  0
  4  5  1  0
  5  6  1  0
  6  7  1  0
  8  9  2  0
  8 10  1  0
  1 11  1  0
  1 12  1  0
  2 13  1  0
  3 14  1  0
  3 15  1  0
  4 16  1  0
  4 17  1  0
  5 18  1  0
  5 19  1  0
  6 20  1  0
  6 21  1  0
  7 22  1  0
  7 23  1  0
  7 24  1  0
 10 25  1  0
 10 26  1  0
M  CHG  1   7   1
A    1
N
A    2
CA
A    3
CB
A    4
CG
A    5
CD
A    6
CE
A    7
NZ
A    8
C
A    9
O
A   10
NT
M  END
