3ABT_2PF_A_1
     RDKit          3D

106113  0  0  0  0  0  0  0  0999 V2000
  -21.6820   38.2340   22.6930 C   0  0  0  0  0  0  0  0  0  0  0  0
  -21.8400   39.7390   22.4860 C   0  0  0  0  0  0  0  0  0  0  0  0
  -21.0300   40.4380   23.4350 O   0  0  0  0  0  0  0  0  0  0  0  0
  -23.3080   39.8260   22.8990 C   0  0  0  0  0  0  0  0  0  0  0  0
  -23.4310   39.6510   24.3130 O   0  0  0  0  0  0  0  0  0  0  0  0
  -23.8890   38.6080   22.1750 C   0  0  0  0  0  0  0  0  0  0  0  0
  -22.7860   37.7140   21.9350 O   0  0  0  0  0  0  0  0  0  0  0  0
  -24.4480   39.0710   20.8290 C   0  0  0  0  0  0  0  0  0  0  0  0
  -25.5520   39.9540   21.0370 O   0  0  0  0  0  0  0  0  0  0  0  0
  -31.5560   49.9520   12.9970 C   0  0  0  0  0  0  0  0  0  0  0  0
  -30.5240   49.0890   13.0890 F   0  0  0  0  0  0  0  0  0  0  0  0
  -25.8090   41.1880   20.0360 P   0  0  0  0  0  0  0  0  0  0  0  0
  -31.6020   51.0490   13.8530 C   0  0  0  0  0  0  0  0  0  0  0  0
  -32.7500   53.0530   14.5070 F   0  0  0  0  0  0  0  0  0  0  0  0
  -26.6860   42.1720   20.7080 O   0  0  0  0  0  0  0  0  0  0  0  0
  -32.5440   49.7480   12.0400 C   0  0  0  0  0  0  0  0  0  0  0  0
  -32.4710   48.6930   11.2010 F   0  0  0  0  0  0  0  0  0  0  0  0
  -24.5110   41.6530   19.4990 O   0  0  0  0  0  0  0  0  0  0  0  0
  -32.6610   51.9490   13.7370 C   0  0  0  0  0  0  0  0  0  0  0  0
  -34.6750   52.6230   12.6760 F   0  0  0  0  0  0  0  0  0  0  0  0
  -33.6000   50.6470   11.9320 C   0  0  0  0  0  0  0  0  0  0  0  0
  -34.5650   50.4530   11.0090 F   0  0  0  0  0  0  0  0  0  0  0  0
  -33.6540   51.7460   12.7820 C   0  0  0  0  0  0  0  0  0  0  0  0
  -20.3920   37.7230   22.1760 N   0  0  0  0  0  0  0  0  0  0  0  0
  -19.7300   36.6760   22.6590 C   0  0  0  0  0  0  0  0  0  0  0  0
  -19.9960   35.8130   23.7290 N   0  0  0  0  0  0  0  0  0  0  0  0
  -19.0980   34.6930   24.0910 C   0  0  0  0  0  0  0  0  0  0  0  0
  -17.9340   34.5810   23.1830 N   0  0  0  0  0  0  0  0  0  0  0  0
  -17.7080   35.4750   22.1280 C   0  0  0  0  0  0  0  0  0  0  0  0
  -16.6410   35.3170   21.3510 N   0  0  0  0  0  0  0  0  0  0  0  0
  -18.5910   36.5190   21.8800 C   0  0  0  0  0  0  0  0  0  0  0  0
  -18.6070   37.4830   20.9640 N   0  0  0  0  0  0  0  0  0  0  0  0
  -19.7050   38.2130   21.1460 C   0  0  0  0  0  0  0  0  0  0  0  0
  -26.6230   40.5160   18.8200 O   0  0  0  0  0  0  0  0  0  0  0  0
  -28.2020   40.2270   18.9520 P   0  0  0  0  0  0  0  0  0  0  0  0
  -28.6680   39.5290   17.7340 O   0  0  0  0  0  0  0  0  0  0  0  0
  -28.4720   39.6060   20.2690 O   0  0  0  0  0  0  0  0  0  0  0  0
  -28.8440   41.7030   18.9720 O   0  0  0  0  0  0  0  0  0  0  0  0
  -28.8820   42.4820   17.7730 C   0  0  0  0  0  0  0  0  0  0  0  0
  -29.3640   43.9060   18.0540 C   0  0  0  0  0  0  0  0  0  0  0  0
  -28.5910   44.4710   19.1160 O   0  0  0  0  0  0  0  0  0  0  0  0
  -29.2380   44.7710   16.7990 C   0  0  0  0  0  0  0  0  0  0  0  0
  -30.1370   44.2850   15.7990 O   0  0  0  0  0  0  0  0  0  0  0  0
  -29.5510   46.2410   17.0900 C   0  0  0  0  0  0  0  0  0  0  0  0
  -28.6960   46.7190   18.1320 O   0  0  0  0  0  0  0  0  0  0  0  0
  -29.3440   47.0840   15.8310 C   0  0  0  0  0  0  0  0  0  0  0  0
  -29.4250   48.5320   16.1270 N   0  0  0  0  0  0  0  0  0  0  0  0
  -30.6570   49.1720   16.2780 C   0  0  0  0  0  0  0  0  0  0  0  0
  -31.8510   48.4470   16.2020 N   0  0  0  0  0  0  0  0  0  0  0  0
  -33.0810   49.0780   16.4260 C   0  0  0  0  0  0  0  0  0  0  0  0
  -34.1180   48.4200   16.3530 O   0  0  0  0  0  0  0  0  0  0  0  0
  -33.1380   50.4400   16.7460 N   0  0  0  0  0  0  0  0  0  0  0  0
  -31.9820   51.2300   16.8130 C   0  0  0  0  0  0  0  0  0  0  0  0
  -32.0770   52.4090   17.1480 O   0  0  0  0  0  0  0  0  0  0  0  0
  -30.6650   50.7020   16.2370 C   0  0  0  0  0  0  0  0  0  0  0  0
  -29.4960   51.2580   16.9400 N   0  0  0  0  0  0  0  0  0  0  0  0
  -28.2680   49.2700   16.4000 C   0  0  0  0  0  0  0  0  0  0  0  0
  -28.3460   50.6270   16.6990 C   0  0  0  0  0  0  0  0  0  0  0  0
  -27.0320   48.6360   16.3390 C   0  0  0  0  0  0  0  0  0  0  0  0
  -27.1670   51.3360   16.9080 C   0  0  0  0  0  0  0  0  0  0  0  0
  -25.9290   50.7080   16.8450 C   0  0  0  0  0  0  0  0  0  0  0  0
  -24.6510   51.5170   17.0740 C   0  0  0  0  0  0  0  0  0  0  0  0
  -30.4220   51.2300   14.8200 C   0  0  0  0  0  0  0  0  0  0  0  0
  -30.1460   52.7030   15.1200 C   0  0  0  0  0  0  0  0  0  0  0  0
  -29.3150   52.6180   16.4020 C   0  0  0  0  0  0  0  0  0  0  0  0
  -29.7860   53.5820   17.3470 O   0  0  0  0  0  0  0  0  0  0  0  0
  -24.6360   48.6930   16.5650 C   0  0  0  0  0  0  0  0  0  0  0  0
  -25.8620   49.3480   16.5670 C   0  0  0  0  0  0  0  0  0  0  0  0
  -21.6812   37.9424   23.7537 H   0  0  0  0  0  0  0  0  0  0  0  0
  -21.5713   40.1446   21.4994 H   0  0  0  0  0  0  0  0  0  0  0  0
  -21.3120   40.1946   24.3523 H   0  0  0  0  0  0  0  0  0  0  0  0
  -23.7945   40.7827   22.6579 H   0  0  0  0  0  0  0  0  0  0  0  0
  -22.9287   40.3657   24.7789 H   0  0  0  0  0  0  0  0  0  0  0  0
  -24.6836   38.1217   22.7599 H   0  0  0  0  0  0  0  0  0  0  0  0
  -23.6609   39.5973   20.2691 H   0  0  0  0  0  0  0  0  0  0  0  0
  -24.7887   38.1945   20.2583 H   0  0  0  0  0  0  0  0  0  0  0  0
  -26.5995   42.0750   21.6894 H   0  0  0  0  0  0  0  0  0  0  0  0
  -19.2761   34.0182   24.9412 H   0  0  0  0  0  0  0  0  0  0  0  0
  -15.7119   35.1794   21.7738 H   0  0  0  0  0  0  0  0  0  0  0  0
  -16.7434   35.3322   20.3262 H   0  0  0  0  0  0  0  0  0  0  0  0
  -19.9985   39.0836   20.5411 H   0  0  0  0  0  0  0  0  0  0  0  0
  -28.2012   40.2289   20.9893 H   0  0  0  0  0  0  0  0  0  0  0  0
  -27.8716   42.5240   17.3402 H   0  0  0  0  0  0  0  0  0  0  0  0
  -29.5848   42.0083   17.0718 H   0  0  0  0  0  0  0  0  0  0  0  0
  -30.4231   43.8726   18.3493 H   0  0  0  0  0  0  0  0  0  0  0  0
  -28.9723   44.1923   19.9861 H   0  0  0  0  0  0  0  0  0  0  0  0
  -28.1982   44.7088   16.4455 H   0  0  0  0  0  0  0  0  0  0  0  0
  -30.9187   43.8624   16.2353 H   0  0  0  0  0  0  0  0  0  0  0  0
  -30.6005   46.3247   17.4087 H   0  0  0  0  0  0  0  0  0  0  0  0
  -29.0923   46.4974   19.0117 H   0  0  0  0  0  0  0  0  0  0  0  0
  -28.3525   46.8603   15.4103 H   0  0  0  0  0  0  0  0  0  0  0  0
  -30.1398   46.8338   15.1140 H   0  0  0  0  0  0  0  0  0  0  0  0
  -34.0530   50.8726   16.9371 H   0  0  0  0  0  0  0  0  0  0  0  0
  -26.9807   47.5617   16.1083 H   0  0  0  0  0  0  0  0  0  0  0  0
  -27.2159   52.4129   17.1270 H   0  0  0  0  0  0  0  0  0  0  0  0
  -24.4759   51.6279   18.1543 H   0  0  0  0  0  0  0  0  0  0  0  0
  -23.7987   50.9935   16.6162 H   0  0  0  0  0  0  0  0  0  0  0  0
  -24.7595   52.5113   16.6162 H   0  0  0  0  0  0  0  0  0  0  0  0
  -29.6210   50.6920   14.2918 H   0  0  0  0  0  0  0  0  0  0  0  0
  -29.5774   53.1766   14.3061 H   0  0  0  0  0  0  0  0  0  0  0  0
  -31.0561   53.3123   15.2218 H   0  0  0  0  0  0  0  0  0  0  0  0
  -28.2533   52.8239   16.2013 H   0  0  0  0  0  0  0  0  0  0  0  0
  -29.6239   53.2502   18.2655 H   0  0  0  0  0  0  0  0  0  0  0  0
  -24.3113   48.5195   17.6016 H   0  0  0  0  0  0  0  0  0  0  0  0
  -24.7365   47.7284   16.0459 H   0  0  0  0  0  0  0  0  0  0  0  0
  -23.8900   49.3127   16.0459 H   0  0  0  0  0  0  0  0  0  0  0  0
  7  1  1  0
 24  1  1  0
  2  1  1  0
  2  4  1  0
  2  3  1  0
  6  4  1  0
  4  5  1  0
  8  6  1  0
  7  6  1  0
  8  9  1  0
 12  9  1  0
 16 10  2  0
 10 11  1  0
 10 13  1  0
 34 12  1  0
 18 12  2  0
 12 15  1  0
 19 13  2  0
 13 63  1  0
 19 14  1  0
 17 16  1  0
 21 16  1  0
 23 19  1  0
 20 23  1  0
 22 21  1  0
 21 23  2  0
 33 24  1  0
 24 25  1  0
 31 25  1  0
 25 26  2  0
 26 27  1  0
 28 27  2  0
 29 28  1  0
 30 29  1  0
 31 29  2  0
 32 31  1  0
 32 33  2  0
 34 35  1  0
 36 35  2  0
 35 38  1  0
 35 37  1  0
 39 38  1  0
 39 40  1  0
 42 40  1  0
 40 41  1  0
 43 42  1  0
 42 44  1  0
 46 44  1  0
 44 45  1  0
 46 47  1  0
 47 48  1  0
 47 57  1  0
 49 48  2  0
 55 48  1  0
 49 50  1  0
 51 50  2  0
 50 52  1  0
 52 53  1  0
 55 53  1  0
 53 54  2  0
 63 55  1  0
 55 56  1  0
 65 56  1  0
 58 56  1  0
 59 57  2  0
 57 58  1  0
 58 60  2  0
 59 68  1  0
 61 60  1  0
 68 61  2  0
 61 62  1  0
 63 64  1  0
 64 65  1  0
 65 66  1  0
 67 68  1  0
  1 69  1  0
  2 70  1  0
  3 71  1  0
  4 72  1  0
  5 73  1  0
  6 74  1  0
  8 75  1  0
  8 76  1  0
 15 77  1  0
 27 78  1  0
 30 79  1  0
 30 80  1  0
 33 81  1  0
 37 82  1  0
 39 83  1  0
 39 84  1  0
 40 85  1  0
 41 86  1  0
 42 87  1  0
 43 88  1  0
 44 89  1  0
 45 90  1  0
 46 91  1  0
 46 92  1  0
 52 93  1  0
 59 94  1  0
 60 95  1  0
 62 96  1  0
 62 97  1  0
 62 98  1  0
 63 99  1  0
 64100  1  0
 64101  1  0
 65102  1  0
 66103  1  0
 67104  1  0
 67105  1  0
 67106  1  0
A    1
C1'
A    2
C2'
A    3
O2'
A    4
C3'
A    5
O3'
A    6
C4'
A    7
O4'
A    8
C5'
A    9
O5'
A   10
CAA
A   11
FAA
A   12
PAA
A   13
CAB
A   14
FAB
A   15
OAB
A   16
CAC
A   17
FAC
A   18
OAC
A   19
CAD
A   20
FAD
A   21
CAE
A   22
FAE
A   23
CAF
A   24
NAI
A   25
CAJ
A   26
NAK
A   27
CAL
A   28
NAM
A   29
CAN
A   30
NAO
A   31
CAP
A   32
NAQ
A   33
CAR
A   34
OAW
A   35
PAX
A   36
OAY
A   37
OAZ
A   38
OBA
A   39
CBB
A   40
CBC
A   41
OBD
A   42
CBE
A   43
OBF
A   44
CBG
A   45
OBH
A   46
CBI
A   47
NBJ
A   48
CBK
A   49
NBL
A   50
CBM
A   51
OBN
A   52
NBO
A   53
CBP
A   54
OBQ
A   55
CBR
A   56
NBS
A   57
CBT
A   58
CBU
A   59
CBV
A   60
CBW
A   61
CBX
A   62
CBY
A   63
CBZ
A   64
CCA
A   65
CCB
A   66
OCC
A   67
CCD
A   68
CCE
M  END
