3AC2_KSE_A_514
     RDKit          3D

 57 59  0  0  0  0  0  0  0  0999 V2000
   26.4570   37.0210    8.7410 C   0  0  0  0  0  0  0  0  0  0  0  0
   26.6890   36.0220    7.8560 N   0  0  0  0  0  0  0  0  0  0  0  0
   25.4110   35.8020    7.2890 N   0  0  0  0  0  0  0  0  0  0  0  0
   24.4060   36.5720    7.7160 C   0  0  0  0  0  0  0  0  0  0  0  0
   25.0520   37.4440    8.7020 C   0  0  0  0  0  0  0  0  0  0  0  0
   25.1730   34.8930    6.3410 C   0  0  0  0  0  0  0  0  0  0  0  0
   23.8700   34.7860    5.8380 C   0  0  0  0  0  0  0  0  0  0  0  0
   22.8460   35.6180    6.3220 C   0  0  0  0  0  0  0  0  0  0  0  0
   23.1300   36.5350    7.2720 N   0  0  0  0  0  0  0  0  0  0  0  0
   21.4400   35.4860    5.7910 C   0  0  0  0  0  0  0  0  0  0  0  0
   26.1710   34.0960    5.8840 N   0  0  0  0  0  0  0  0  0  0  0  0
   26.5060   32.8580    6.5720 C   0  0  0  0  0  0  0  0  0  0  0  0
   27.8430   32.3380    6.0490 C   0  0  0  0  0  0  0  0  0  0  0  0
   28.3720   31.3760    7.0250 N   0  0  0  0  0  0  0  0  0  0  0  0
   28.8580   33.4790    5.8880 C   0  0  0  0  0  0  0  0  0  0  0  0
   27.5970   31.6280    4.7140 C   0  0  0  0  0  0  0  0  0  0  0  0
   27.3660   37.6070    9.5440 N   0  0  0  0  0  0  0  0  0  0  0  0
   28.6830   37.2710    9.5170 C   0  0  0  0  0  0  0  0  0  0  0  0
   29.5160   37.8760   10.4510 C   0  0  0  0  0  0  0  0  0  0  0  0
   30.8740   37.5470   10.4750 C   0  0  0  0  0  0  0  0  0  0  0  0
   31.4050   36.6270    9.5650 C   0  0  0  0  0  0  0  0  0  0  0  0
   30.5800   36.0120    8.6280 C   0  0  0  0  0  0  0  0  0  0  0  0
   29.2140   36.3460    8.5980 C   0  0  0  0  0  0  0  0  0  0  0  0
   24.3830   38.4730    9.5140 C   0  0  0  0  0  0  0  0  0  0  0  0
   25.1740   39.2030   10.0780 O   0  0  0  0  0  0  0  0  0  0  0  0
   23.0340   38.5510    9.5970 N   0  0  0  0  0  0  0  0  0  0  0  0
   31.6940   38.1020   11.4220 O   0  0  0  0  0  0  0  0  0  0  0  0
   31.1170   35.0830    7.7600 O   0  0  0  0  0  0  0  0  0  0  0  0
   32.4390   35.2140    7.2180 C   0  0  0  0  0  0  0  0  0  0  0  0
   32.6980   37.2710   12.0260 C   0  0  0  0  0  0  0  0  0  0  0  0
   23.6463   34.0441    5.0572 H   0  0  0  0  0  0  0  0  0  0  0  0
   20.7349   35.4198    6.6327 H   0  0  0  0  0  0  0  0  0  0  0  0
   21.1960   36.3652    5.1766 H   0  0  0  0  0  0  0  0  0  0  0  0
   21.3640   34.5768    5.1766 H   0  0  0  0  0  0  0  0  0  0  0  0
   26.6969   34.3697    5.0417 H   0  0  0  0  0  0  0  0  0  0  0  0
   26.5823   33.0470    7.6529 H   0  0  0  0  0  0  0  0  0  0  0  0
   25.7213   32.1094    6.3882 H   0  0  0  0  0  0  0  0  0  0  0  0
   28.1847   31.7165    7.9789 H   0  0  0  0  0  0  0  0  0  0  0  0
   27.9142   30.4632    6.8902 H   0  0  0  0  0  0  0  0  0  0  0  0
   29.1726   33.8327    6.8809 H   0  0  0  0  0  0  0  0  0  0  0  0
   29.7353   33.1139    5.3339 H   0  0  0  0  0  0  0  0  0  0  0  0
   28.3932   34.3078    5.3339 H   0  0  0  0  0  0  0  0  0  0  0  0
   27.2422   30.6041    4.9032 H   0  0  0  0  0  0  0  0  0  0  0  0
   26.8374   32.1791    4.1401 H   0  0  0  0  0  0  0  0  0  0  0  0
   28.5347   31.5910    4.1401 H   0  0  0  0  0  0  0  0  0  0  0  0
   27.0522   38.3351   10.2015 H   0  0  0  0  0  0  0  0  0  0  0  0
   29.1097   38.6075   11.1651 H   0  0  0  0  0  0  0  0  0  0  0  0
   32.4786   36.3887    9.5901 H   0  0  0  0  0  0  0  0  0  0  0  0
   28.5551   35.8806    7.8502 H   0  0  0  0  0  0  0  0  0  0  0  0
   22.5754   38.5775   10.5189 H   0  0  0  0  0  0  0  0  0  0  0  0
   22.4662   38.5838    8.7382 H   0  0  0  0  0  0  0  0  0  0  0  0
   33.1667   35.2861    8.0397 H   0  0  0  0  0  0  0  0  0  0  0  0
   32.6705   34.3344    6.5994 H   0  0  0  0  0  0  0  0  0  0  0  0
   32.4934   36.1219    6.5994 H   0  0  0  0  0  0  0  0  0  0  0  0
   32.6183   37.3369   13.1211 H   0  0  0  0  0  0  0  0  0  0  0  0
   32.5496   36.2280   11.7097 H   0  0  0  0  0  0  0  0  0  0  0  0
   33.6949   37.6117   11.7097 H   0  0  0  0  0  0  0  0  0  0  0  0
  1  2  2  0
  1  5  1  0
  1 17  1  0
  2  3  1  0
  3  4  1  0
  3  6  1  0
  4  5  2  0
  4  9  1  0
  5 24  1  0
  6  7  2  0
  6 11  1  0
  7  8  1  0
  8  9  2  0
  8 10  1  0
 11 12  1  0
 12 13  1  0
 13 14  1  0
 13 15  1  0
 13 16  1  0
 17 18  1  0
 18 19  2  0
 18 23  1  0
 19 20  1  0
 20 21  2  0
 20 27  1  0
 21 22  1  0
 22 23  2  0
 22 28  1  0
 24 25  2  0
 24 26  1  0
 27 30  1  0
 28 29  1  0
  7 31  1  0
 10 32  1  0
 10 33  1  0
 10 34  1  0
 11 35  1  0
 12 36  1  0
 12 37  1  0
 14 38  1  0
 14 39  1  0
 15 40  1  0
 15 41  1  0
 15 42  1  0
 16 43  1  0
 16 44  1  0
 16 45  1  0
 17 46  1  0
 19 47  1  0
 21 48  1  0
 23 49  1  0
 26 50  1  0
 26 51  1  0
 29 52  1  0
 29 53  1  0
 29 54  1  0
 30 55  1  0
 30 56  1  0
 30 57  1  0
A    1
C1
A    2
N2
A    3
N3
A    4
C4
A    5
C5
A    6
C6
A    7
C7
A    8
C8
A    9
N9
A   10
C11
A   11
N15
A   12
C16
A   13
C17
A   14
N20
A   15
C21
A   16
C25
A   17
N32
A   18
C33
A   19
C34
A   20
C35
A   21
C36
A   22
C37
A   23
C38
A   24
C42
A   25
O43
A   26
N44
A   27
O48
A   28
O49
A   29
C50
A   30
C54
M  END
