3AC3_KSH_A_511
     RDKit          3D

 60 63  0  0  0  0  0  0  0  0999 V2000
    5.5560    1.4500   -7.7850 N   0  0  0  0  0  0  0  0  0  0  0  0
    5.2420    2.4160   -6.9070 C   0  0  0  0  0  0  0  0  0  0  0  0
    3.9100    2.5320   -6.5030 C   0  0  0  0  0  0  0  0  0  0  0  0
    2.9320    1.6670   -7.0020 C   0  0  0  0  0  0  0  0  0  0  0  0
    3.2810    0.7090   -7.8860 N   0  0  0  0  0  0  0  0  0  0  0  0
    4.5840    0.6470   -8.2360 C   0  0  0  0  0  0  0  0  0  0  0  0
    5.2670   -0.2750   -9.1630 C   0  0  0  0  0  0  0  0  0  0  0  0
    6.6850    0.1510   -9.1340 C   0  0  0  0  0  0  0  0  0  0  0  0
    6.8610    1.2040   -8.2910 N   0  0  0  0  0  0  0  0  0  0  0  0
    4.5410   -1.3480   -9.8990 C   0  0  0  0  0  0  0  0  0  0  0  0
    5.1680   -2.1370  -10.5810 O   0  0  0  0  0  0  0  0  0  0  0  0
    3.2160   -1.4150   -9.7910 N   0  0  0  0  0  0  0  0  0  0  0  0
    7.6690   -0.4420   -9.8510 N   0  0  0  0  0  0  0  0  0  0  0  0
    8.9610   -0.0500   -9.7540 C   0  0  0  0  0  0  0  0  0  0  0  0
    9.3780    0.7680   -8.7060 C   0  0  0  0  0  0  0  0  0  0  0  0
   10.7100    1.1670   -8.6120 C   0  0  0  0  0  0  0  0  0  0  0  0
   11.6280    0.7480   -9.5700 C   0  0  0  0  0  0  0  0  0  0  0  0
   11.2190   -0.0700  -10.6180 C   0  0  0  0  0  0  0  0  0  0  0  0
    9.8860   -0.4690  -10.7090 C   0  0  0  0  0  0  0  0  0  0  0  0
   12.1320   -0.4780  -11.5580 O   0  0  0  0  0  0  0  0  0  0  0  0
   13.2970   -1.2030  -11.1630 C   0  0  0  0  0  0  0  0  0  0  0  0
   11.1190    1.9720   -7.5780 O   0  0  0  0  0  0  0  0  0  0  0  0
   12.1810    1.5600   -6.7160 C   0  0  0  0  0  0  0  0  0  0  0  0
    1.4910    1.8040   -6.5610 C   0  0  0  0  0  0  0  0  0  0  0  0
    0.8180    0.4470   -6.5190 C   0  0  0  0  0  0  0  0  0  0  0  0
    6.2060    3.2950   -6.3810 N   0  0  0  0  0  0  0  0  0  0  0  0
    6.1540    3.7600   -4.9980 C   0  0  0  0  0  0  0  0  0  0  0  0
    7.5180    4.3960   -4.7620 C   0  0  0  0  0  0  0  0  0  0  0  0
    8.2780    4.3660   -6.0780 C   0  0  0  0  0  0  0  0  0  0  0  0
    7.3370    3.8180   -7.1450 C   0  0  0  0  0  0  0  0  0  0  0  0
    6.7770    4.9720   -7.9720 C   0  0  0  0  0  0  0  0  0  0  0  0
    7.5450    6.1620   -7.7440 O   0  0  0  0  0  0  0  0  0  0  0  0
    3.6271    3.3140   -5.7830 H   0  0  0  0  0  0  0  0  0  0  0  0
    2.7756   -1.4373   -8.8601 H   0  0  0  0  0  0  0  0  0  0  0  0
    2.6311   -1.4446  -10.6383 H   0  0  0  0  0  0  0  0  0  0  0  0
    7.4272   -1.2138  -10.4888 H   0  0  0  0  0  0  0  0  0  0  0  0
    8.6523    1.1005   -7.9491 H   0  0  0  0  0  0  0  0  0  0  0  0
   12.6791    1.0642   -9.4984 H   0  0  0  0  0  0  0  0  0  0  0  0
    9.5632   -1.1167  -11.5374 H   0  0  0  0  0  0  0  0  0  0  0  0
   13.3526   -1.2376  -10.0649 H   0  0  0  0  0  0  0  0  0  0  0  0
   13.2434   -2.2275  -11.5599 H   0  0  0  0  0  0  0  0  0  0  0  0
   14.1925   -0.7024  -11.5599 H   0  0  0  0  0  0  0  0  0  0  0  0
   11.8701    1.6806   -5.6678 H   0  0  0  0  0  0  0  0  0  0  0  0
   12.4205    0.5037   -6.9082 H   0  0  0  0  0  0  0  0  0  0  0  0
   13.0702    2.1784   -6.9082 H   0  0  0  0  0  0  0  0  0  0  0  0
    1.4606    2.2544   -5.5579 H   0  0  0  0  0  0  0  0  0  0  0  0
    0.9580    2.4435   -7.2800 H   0  0  0  0  0  0  0  0  0  0  0  0
    0.6679    0.1444   -5.4721 H   0  0  0  0  0  0  0  0  0  0  0  0
   -0.1559    0.5048   -7.0272 H   0  0  0  0  0  0  0  0  0  0  0  0
    1.4534   -0.2933   -7.0272 H   0  0  0  0  0  0  0  0  0  0  0  0
    5.3510    4.5001   -4.8659 H   0  0  0  0  0  0  0  0  0  0  0  0
    5.9420    2.9460   -4.2891 H   0  0  0  0  0  0  0  0  0  0  0  0
    7.3930    5.4358   -4.4256 H   0  0  0  0  0  0  0  0  0  0  0  0
    8.0702    3.8449   -3.9865 H   0  0  0  0  0  0  0  0  0  0  0  0
    8.5992    5.3828   -6.3483 H   0  0  0  0  0  0  0  0  0  0  0  0
    9.1728    3.7321   -5.9915 H   0  0  0  0  0  0  0  0  0  0  0  0
    7.8398    3.0902   -7.7988 H   0  0  0  0  0  0  0  0  0  0  0  0
    6.8215    4.7095   -9.0393 H   0  0  0  0  0  0  0  0  0  0  0  0
    5.7341    5.1548   -7.6739 H   0  0  0  0  0  0  0  0  0  0  0  0
    7.6412    6.3111   -6.7700 H   0  0  0  0  0  0  0  0  0  0  0  0
  1  2  1  0
  1  6  1  0
  1  9  1  0
  2  3  2  0
  2 26  1  0
  3  4  1  0
  4  5  2  0
  4 24  1  0
  5  6  1  0
  6  7  2  0
  7  8  1  0
  7 10  1  0
  8  9  2  0
  8 13  1  0
 10 11  2  0
 10 12  1  0
 13 14  1  0
 14 15  2  0
 14 19  1  0
 15 16  1  0
 16 17  2  0
 16 22  1  0
 17 18  1  0
 18 19  2  0
 18 20  1  0
 20 21  1  0
 22 23  1  0
 24 25  1  0
 26 27  1  0
 26 30  1  0
 27 28  1  0
 28 29  1  0
 29 30  1  0
 30 31  1  0
 31 32  1  0
  3 33  1  0
 12 34  1  0
 12 35  1  0
 13 36  1  0
 15 37  1  0
 17 38  1  0
 19 39  1  0
 21 40  1  0
 21 41  1  0
 21 42  1  0
 23 43  1  0
 23 44  1  0
 23 45  1  0
 24 46  1  0
 24 47  1  0
 25 48  1  0
 25 49  1  0
 25 50  1  0
 27 51  1  0
 27 52  1  0
 28 53  1  0
 28 54  1  0
 29 55  1  0
 29 56  1  0
 30 57  1  0
 31 58  1  0
 31 59  1  0
 32 60  1  0
A    1
N1
A    2
C2
A    3
C3
A    4
C4
A    5
N5
A    6
C6
A    7
C7
A    8
C8
A    9
N9
A   10
C10
A   11
O11
A   12
N12
A   13
N16
A   14
C17
A   15
C18
A   16
C19
A   17
C20
A   18
C21
A   19
C22
A   20
O26
A   21
C27
A   22
O31
A   23
C32
A   24
C37
A   25
C38
A   26
N42
A   27
C43
A   28
C44
A   29
C45
A   30
C46
A   31
C53
A   32
O55
M  END
