3ACJ_KSS_A_513
     RDKit          3D

 39 41  0  0  0  0  0  0  0  0999 V2000
   25.9130   38.0460    9.7430 C   0  0  0  0  0  0  0  0  0  0  0  0
   25.3470   37.2080    8.8670 N   0  0  0  0  0  0  0  0  0  0  0  0
   23.9360   37.4160    8.6400 C   0  0  0  0  0  0  0  0  0  0  0  0
   23.7440   38.5530    9.6060 C   0  0  0  0  0  0  0  0  0  0  0  0
   24.9430   38.8630   10.1910 N   0  0  0  0  0  0  0  0  0  0  0  0
   27.2570   37.9530   10.0310 C   0  0  0  0  0  0  0  0  0  0  0  0
   27.9770   36.9680    9.3830 C   0  0  0  0  0  0  0  0  0  0  0  0
   27.3470   36.1400    8.5130 N   0  0  0  0  0  0  0  0  0  0  0  0
   26.0320   36.2590    8.2430 C   0  0  0  0  0  0  0  0  0  0  0  0
   25.2640   35.2390    7.1130 S   0  0  0  0  0  0  0  0  0  0  0  0
   26.4560   34.0540    6.5660 C   0  0  0  0  0  0  0  0  0  0  0  0
   27.6140   34.7510    5.8830 C   0  0  0  0  0  0  0  0  0  0  0  0
   29.4340   36.7960    9.6220 C   0  0  0  0  0  0  0  0  0  0  0  0
   30.1270   37.5900   10.5410 C   0  0  0  0  0  0  0  0  0  0  0  0
   31.5000   37.4090   10.7400 C   0  0  0  0  0  0  0  0  0  0  0  0
   32.2110   36.4460   10.0090 C   0  0  0  0  0  0  0  0  0  0  0  0
   31.4590   35.6310    8.9940 C   0  0  0  0  0  0  0  0  0  0  0  0
   30.0910   35.8380    8.8520 C   0  0  0  0  0  0  0  0  0  0  0  0
   33.5710   36.2830   10.2420 O   0  0  0  0  0  0  0  0  0  0  0  0
   32.0610   34.6510    8.2390 O   0  0  0  0  0  0  0  0  0  0  0  0
   34.3670   35.2620    9.6210 C   0  0  0  0  0  0  0  0  0  0  0  0
   32.1780   34.7450    6.8170 C   0  0  0  0  0  0  0  0  0  0  0  0
   23.2266   36.9050    7.9724 H   0  0  0  0  0  0  0  0  0  0  0  0
   22.7883   39.0575    9.8109 H   0  0  0  0  0  0  0  0  0  0  0  0
   27.7373   38.6353   10.7478 H   0  0  0  0  0  0  0  0  0  0  0  0
   26.8317   33.4904    7.4327 H   0  0  0  0  0  0  0  0  0  0  0  0
   25.9777   33.3692    5.8502 H   0  0  0  0  0  0  0  0  0  0  0  0
   28.2951   35.1610    6.6432 H   0  0  0  0  0  0  0  0  0  0  0  0
   28.1572   34.0297    5.2548 H   0  0  0  0  0  0  0  0  0  0  0  0
   27.2308   35.5687    5.2548 H   0  0  0  0  0  0  0  0  0  0  0  0
   29.5892   38.3619   11.1111 H   0  0  0  0  0  0  0  0  0  0  0  0
   32.0283   38.0295   11.4788 H   0  0  0  0  0  0  0  0  0  0  0  0
   29.5222   35.2398    8.1250 H   0  0  0  0  0  0  0  0  0  0  0  0
   34.8460   34.6475   10.3975 H   0  0  0  0  0  0  0  0  0  0  0  0
   33.7241   34.6259    8.9949 H   0  0  0  0  0  0  0  0  0  0  0  0
   35.1407   35.7304    8.9949 H   0  0  0  0  0  0  0  0  0  0  0  0
   33.0120   35.4151    6.5612 H   0  0  0  0  0  0  0  0  0  0  0  0
   32.3685   33.7460    6.3979 H   0  0  0  0  0  0  0  0  0  0  0  0
   31.2435   35.1463    6.3979 H   0  0  0  0  0  0  0  0  0  0  0  0
  1  2  1  0
  1  5  2  0
  1  6  1  0
  2  3  1  0
  2  9  1  0
  3  4  2  0
  4  5  1  0
  6  7  2  0
  7  8  1  0
  7 13  1  0
  8  9  2  0
  9 10  1  0
 10 11  1  0
 11 12  1  0
 13 14  2  0
 13 18  1  0
 14 15  1  0
 15 16  2  0
 16 17  1  0
 16 19  1  0
 17 18  2  0
 17 20  1  0
 19 21  1  0
 20 22  1  0
  3 23  1  0
  4 24  1  0
  6 25  1  0
 11 26  1  0
 11 27  1  0
 12 28  1  0
 12 29  1  0
 12 30  1  0
 14 31  1  0
 15 32  1  0
 18 33  1  0
 21 34  1  0
 21 35  1  0
 21 36  1  0
 22 37  1  0
 22 38  1  0
 22 39  1  0
A    1
C1
A    2
N2
A    3
C3
A    4
C4
A    5
N5
A    6
C6
A    7
C7
A    8
N8
A    9
C9
A   10
S12
A   11
C13
A   12
C14
A   13
C21
A   14
C22
A   15
C23
A   16
C24
A   17
C25
A   18
C26
A   19
O30
A   20
O31
A   21
C32
A   22
C36
M  END
