3ACK_KSR_A_1
     RDKit          3D

 35 38  0  0  0  0  0  0  0  0999 V2000
   22.9390   37.3980    8.2780 C   0  0  0  0  0  0  0  0  0  0  0  0
   24.0370   36.7580    7.8400 N   0  0  0  0  0  0  0  0  0  0  0  0
   25.1870   36.9600    8.5200 C   0  0  0  0  0  0  0  0  0  0  0  0
   25.2370   37.8620    9.6830 C   0  0  0  0  0  0  0  0  0  0  0  0
   24.0990   38.4660   10.0900 N   0  0  0  0  0  0  0  0  0  0  0  0
   22.9700   38.2440    9.3960 C   0  0  0  0  0  0  0  0  0  0  0  0
   26.4550   36.3850    8.2310 C   0  0  0  0  0  0  0  0  0  0  0  0
   27.1900   37.0040    9.1940 C   0  0  0  0  0  0  0  0  0  0  0  0
   26.5180   37.8010   10.0940 N   0  0  0  0  0  0  0  0  0  0  0  0
   28.5920   36.7820    9.1750 C   0  0  0  0  0  0  0  0  0  0  0  0
   29.2660   35.7520    8.5010 C   0  0  0  0  0  0  0  0  0  0  0  0
   30.6710   35.8900    8.9420 C   0  0  0  0  0  0  0  0  0  0  0  0
   30.7520   36.9820    9.7420 N   0  0  0  0  0  0  0  0  0  0  0  0
   29.5220   37.5030    9.8710 C   0  0  0  0  0  0  0  0  0  0  0  0
   28.8340   34.6290    7.8060 C   0  0  0  0  0  0  0  0  0  0  0  0
   29.8000   33.7540    7.3100 C   0  0  0  0  0  0  0  0  0  0  0  0
   31.1480   33.9160    7.6510 C   0  0  0  0  0  0  0  0  0  0  0  0
   31.5910   34.9650    8.4620 C   0  0  0  0  0  0  0  0  0  0  0  0
   32.0110   37.5140   10.3260 C   0  0  0  0  0  0  0  0  0  0  0  0
   29.4160   32.6950    6.5210 O   0  0  0  0  0  0  0  0  0  0  0  0
   29.5880   32.7370    5.1040 C   0  0  0  0  0  0  0  0  0  0  0  0
   21.9883   37.2539    7.7438 H   0  0  0  0  0  0  0  0  0  0  0  0
   22.0418   38.7410    9.7145 H   0  0  0  0  0  0  0  0  0  0  0  0
   26.7522   35.6583    7.4606 H   0  0  0  0  0  0  0  0  0  0  0  0
   26.9187   38.2623   10.9232 H   0  0  0  0  0  0  0  0  0  0  0  0
   29.2905   38.4001   10.4640 H   0  0  0  0  0  0  0  0  0  0  0  0
   27.7621   34.4359    7.6517 H   0  0  0  0  0  0  0  0  0  0  0  0
   31.8836   33.1934    7.2678 H   0  0  0  0  0  0  0  0  0  0  0  0
   32.6569   35.0575    8.7177 H   0  0  0  0  0  0  0  0  0  0  0  0
   31.9462   37.4866   11.4238 H   0  0  0  0  0  0  0  0  0  0  0  0
   32.8589   36.8972    9.9932 H   0  0  0  0  0  0  0  0  0  0  0  0
   32.1597   38.5519    9.9932 H   0  0  0  0  0  0  0  0  0  0  0  0
   30.6319   32.9919    4.8688 H   0  0  0  0  0  0  0  0  0  0  0  0
   29.3454   31.7532    4.6759 H   0  0  0  0  0  0  0  0  0  0  0  0
   28.9193   33.4982    4.6759 H   0  0  0  0  0  0  0  0  0  0  0  0
  1  2  2  0
  1  6  1  0
  2  3  1  0
  3  4  2  0
  3  7  1  0
  4  5  1  0
  4  9  1  0
  5  6  2  0
  7  8  2  0
  8  9  1  0
  8 10  1  0
 10 11  1  0
 10 14  2  0
 11 12  2  0
 11 15  1  0
 12 13  1  0
 12 18  1  0
 13 14  1  0
 13 19  1  0
 15 16  2  0
 16 17  1  0
 16 20  1  0
 17 18  2  0
 20 21  1  0
  1 22  1  0
  6 23  1  0
  7 24  1  0
  9 25  1  0
 14 26  1  0
 15 27  1  0
 17 28  1  0
 18 29  1  0
 19 30  1  0
 19 31  1  0
 19 32  1  0
 21 33  1  0
 21 34  1  0
 21 35  1  0
A    1
C1
A    2
N2
A    3
C3
A    4
C4
A    5
N5
A    6
C6
A    7
C9
A    8
C10
A    9
N11
A   10
C14
A   11
C15
A   12
C16
A   13
N17
A   14
C18
A   15
C20
A   16
C21
A   17
C22
A   18
C23
A   19
C27
A   20
O31
A   21
C32
M  END
