3ACY_702_A_1001
     RDKit          3D

 57 59  0  0  0  0  0  0  0  0999 V2000
   55.2230    7.1910   53.6830 O   0  0  0  0  0  0  0  0  0  0  0  0
   56.1440    5.8310   52.1080 O   0  0  0  0  0  0  0  0  0  0  0  0
   54.1830    5.0470   53.2970 O   0  0  0  0  0  0  0  0  0  0  0  0
   51.6250    5.2660   51.5180 O   0  0  0  0  0  0  0  0  0  0  0  0
   51.9790    6.7390   49.5300 O   0  0  0  0  0  0  0  0  0  0  0  0
   53.4760    4.7790   49.8300 O   0  0  0  0  0  0  0  0  0  0  0  0
   54.1410   16.1270   58.1480 C   0  0  0  0  0  0  0  0  0  0  0  0
   53.6030   15.4680   57.0460 C   0  0  0  0  0  0  0  0  0  0  0  0
   55.4970   16.4200   58.2330 C   0  0  0  0  0  0  0  0  0  0  0  0
   57.1680   18.2490   53.0320 C   0  0  0  0  0  0  0  0  0  0  0  0
   56.3520   18.0460   51.9250 C   0  0  0  0  0  0  0  0  0  0  0  0
   57.2170   12.1530   51.0470 C   0  0  0  0  0  0  0  0  0  0  0  0
   54.4620   15.0910   56.0210 C   0  0  0  0  0  0  0  0  0  0  0  0
   56.3500   16.0640   57.1940 C   0  0  0  0  0  0  0  0  0  0  0  0
   56.2550   11.1810   50.7800 C   0  0  0  0  0  0  0  0  0  0  0  0
   56.8360   13.3380   51.6680 C   0  0  0  0  0  0  0  0  0  0  0  0
   57.2660   17.2700   54.0090 C   0  0  0  0  0  0  0  0  0  0  0  0
   55.6540   16.8480   51.7850 C   0  0  0  0  0  0  0  0  0  0  0  0
   54.5430   12.5660   51.7280 C   0  0  0  0  0  0  0  0  0  0  0  0
   53.9720    9.3340   51.9760 C   0  0  0  0  0  0  0  0  0  0  0  0
   53.8890   10.3080   50.8000 C   0  0  0  0  0  0  0  0  0  0  0  0
   53.0870    8.0960   51.8780 C   0  0  0  0  0  0  0  0  0  0  0  0
   56.7200   15.0190   54.9410 C   0  0  0  0  0  0  0  0  0  0  0  0
   55.0720   14.6770   52.6260 O   0  0  0  0  0  0  0  0  0  0  0  0
   54.9150   11.3800   51.1060 C   0  0  0  0  0  0  0  0  0  0  0  0
   55.8180   15.4050   56.0890 C   0  0  0  0  0  0  0  0  0  0  0  0
   55.5010   13.5320   52.0120 C   0  0  0  0  0  0  0  0  0  0  0  0
   56.5820   16.0650   53.8640 C   0  0  0  0  0  0  0  0  0  0  0  0
   55.7810   15.8450   52.7520 C   0  0  0  0  0  0  0  0  0  0  0  0
   53.8600    6.8570   51.4220 C   0  0  0  0  0  0  0  0  0  0  0  0
   52.6370    5.8190   50.5370 P   0  0  0  0  0  0  0  0  0  0  0  0
   54.8230    6.2150   52.6470 S   0  0  0  0  0  0  0  0  0  0  0  0
   54.2372    5.1459   54.2806 H   0  0  0  0  0  0  0  0  0  0  0  0
   51.9351    5.4355   52.4428 H   0  0  0  0  0  0  0  0  0  0  0  0
   51.4746    7.4443   50.0077 H   0  0  0  0  0  0  0  0  0  0  0  0
   53.4759   16.4234   58.9725 H   0  0  0  0  0  0  0  0  0  0  0  0
   52.5261   15.2514   56.9882 H   0  0  0  0  0  0  0  0  0  0  0  0
   55.8950   16.9329   59.1210 H   0  0  0  0  0  0  0  0  0  0  0  0
   57.7356   19.1858   53.1328 H   0  0  0  0  0  0  0  0  0  0  0  0
   56.2573   18.8306   51.1599 H   0  0  0  0  0  0  0  0  0  0  0  0
   58.2680   11.9848   50.7693 H   0  0  0  0  0  0  0  0  0  0  0  0
   54.0699   14.5422   55.1520 H   0  0  0  0  0  0  0  0  0  0  0  0
   57.4236   16.2984   57.2442 H   0  0  0  0  0  0  0  0  0  0  0  0
   56.5594   10.2380   50.3025 H   0  0  0  0  0  0  0  0  0  0  0  0
   57.5833   14.1153   51.8855 H   0  0  0  0  0  0  0  0  0  0  0  0
   57.8855   17.4452   54.9009 H   0  0  0  0  0  0  0  0  0  0  0  0
   55.0023   16.6908   50.9129 H   0  0  0  0  0  0  0  0  0  0  0  0
   53.4903   12.7401   51.9955 H   0  0  0  0  0  0  0  0  0  0  0  0
   55.0155    8.9966   52.0614 H   0  0  0  0  0  0  0  0  0  0  0  0
   53.6082    9.8919   52.8514 H   0  0  0  0  0  0  0  0  0  0  0  0
   54.1330    9.7972   49.8569 H   0  0  0  0  0  0  0  0  0  0  0  0
   52.8784   10.7254   50.6796 H   0  0  0  0  0  0  0  0  0  0  0  0
   52.6508    7.8951   52.8676 H   0  0  0  0  0  0  0  0  0  0  0  0
   52.3097    8.2998   51.1269 H   0  0  0  0  0  0  0  0  0  0  0  0
   57.7636   14.9743   55.2857 H   0  0  0  0  0  0  0  0  0  0  0  0
   56.4372   14.0304   54.5502 H   0  0  0  0  0  0  0  0  0  0  0  0
   54.6656    7.0414   50.6961 H   0  0  0  0  0  0  0  0  0  0  0  0
  1 32  2  0
  2 32  2  0
  3 32  1  0
  4 31  1  0
  5 31  1  0
  6 31  2  0
  7  8  2  0
  7  9  1  0
  8 13  1  0
  9 14  2  0
 10 11  2  0
 10 17  1  0
 11 18  1  0
 12 15  2  0
 12 16  1  0
 13 26  2  0
 14 26  1  0
 15 25  1  0
 16 27  2  0
 17 28  2  0
 18 29  2  0
 19 25  2  0
 19 27  1  0
 20 21  1  0
 20 22  1  0
 21 25  1  0
 22 30  1  0
 23 26  1  0
 23 28  1  0
 24 27  1  0
 24 29  1  0
 28 29  1  0
 30 31  1  0
 30 32  1  0
  3 33  1  0
  4 34  1  0
  5 35  1  0
  7 36  1  0
  8 37  1  0
  9 38  1  0
 10 39  1  0
 11 40  1  0
 12 41  1  0
 13 42  1  0
 14 43  1  0
 15 44  1  0
 16 45  1  0
 17 46  1  0
 18 47  1  0
 19 48  1  0
 20 49  1  0
 20 50  1  0
 21 51  1  0
 21 52  1  0
 22 53  1  0
 22 54  1  0
 23 55  1  0
 23 56  1  0
 30 57  1  0
A    1
OAA
A    2
OAB
A    3
OAC
A    4
OAD
A    5
OAE
A    6
OAF
A    7
CAG
A    8
CAH
A    9
CAI
A   10
CAJ
A   11
CAK
A   12
CAL
A   13
CAM
A   14
CAN
A   15
CAO
A   16
CAP
A   17
CAQ
A   18
CAR
A   19
CAS
A   20
CAT
A   21
CAU
A   22
CAV
A   23
CAW
A   24
OAX
A   25
CAY
A   26
CAZ
A   27
CBA
A   28
CBB
A   29
CBC
A   30
CBD
A   31
PBE
A   32
SBF
M  END
