3AD6_KSC_A_513
     RDKit          3D

 49 52  0  0  0  0  0  0  0  0999 V2000
   27.3930   36.3230    9.0430 C   0  0  0  0  0  0  0  0  0  0  0  0
   27.2960   35.2880    8.1710 N   0  0  0  0  0  0  0  0  0  0  0  0
   25.9880   35.4300    7.6410 N   0  0  0  0  0  0  0  0  0  0  0  0
   25.2580   36.4590    8.0930 C   0  0  0  0  0  0  0  0  0  0  0  0
   26.1600   37.1340    9.0510 C   0  0  0  0  0  0  0  0  0  0  0  0
   25.4700   34.5910    6.7330 C   0  0  0  0  0  0  0  0  0  0  0  0
   24.1720   34.8300    6.2770 C   0  0  0  0  0  0  0  0  0  0  0  0
   23.4450   35.9160    6.7720 C   0  0  0  0  0  0  0  0  0  0  0  0
   23.9950   36.7450    7.6960 N   0  0  0  0  0  0  0  0  0  0  0  0
   22.0520   36.1590    6.2630 C   0  0  0  0  0  0  0  0  0  0  0  0
   26.2030   33.5480    6.2690 N   0  0  0  0  0  0  0  0  0  0  0  0
   25.7320   32.1750    6.3740 C   0  0  0  0  0  0  0  0  0  0  0  0
   25.7290   31.6990    7.8240 C   0  0  0  0  0  0  0  0  0  0  0  0
   25.3310   30.2280    7.8810 C   0  0  0  0  0  0  0  0  0  0  0  0
   24.3100   31.3110    8.2230 C   0  0  0  0  0  0  0  0  0  0  0  0
   28.4980   36.6030    9.7730 N   0  0  0  0  0  0  0  0  0  0  0  0
   29.7330   36.3230    9.2770 C   0  0  0  0  0  0  0  0  0  0  0  0
   30.8140   37.1380    9.6210 C   0  0  0  0  0  0  0  0  0  0  0  0
   32.0840   36.8560    9.1170 C   0  0  0  0  0  0  0  0  0  0  0  0
   32.2810   35.7560    8.2780 C   0  0  0  0  0  0  0  0  0  0  0  0
   31.2020   34.9410    7.9310 C   0  0  0  0  0  0  0  0  0  0  0  0
   29.9340   35.2210    8.4330 C   0  0  0  0  0  0  0  0  0  0  0  0
   25.8000   38.3390    9.8330 C   0  0  0  0  0  0  0  0  0  0  0  0
   26.6910   39.0530   10.2420 O   0  0  0  0  0  0  0  0  0  0  0  0
   24.5230   38.5860   10.0920 N   0  0  0  0  0  0  0  0  0  0  0  0
   33.5340   35.4810    7.7860 O   0  0  0  0  0  0  0  0  0  0  0  0
   34.5850   35.0590    8.6590 C   0  0  0  0  0  0  0  0  0  0  0  0
   23.7213   34.1628    5.5275 H   0  0  0  0  0  0  0  0  0  0  0  0
   21.3661   36.2786    7.1146 H   0  0  0  0  0  0  0  0  0  0  0  0
   22.0395   37.0729    5.6509 H   0  0  0  0  0  0  0  0  0  0  0  0
   21.7308   35.3033    5.6509 H   0  0  0  0  0  0  0  0  0  0  0  0
   27.1167   33.7327    5.8310 H   0  0  0  0  0  0  0  0  0  0  0  0
   24.7085   32.1158    5.9754 H   0  0  0  0  0  0  0  0  0  0  0  0
   26.4119   31.5298    5.7982 H   0  0  0  0  0  0  0  0  0  0  0  0
   26.5311   32.3106    8.2628 H   0  0  0  0  0  0  0  0  0  0  0  0
   25.2287   29.6493    6.9512 H   0  0  0  0  0  0  0  0  0  0  0  0
   25.7202   29.3357    8.3932 H   0  0  0  0  0  0  0  0  0  0  0  0
   23.9753   31.4429    9.2625 H   0  0  0  0  0  0  0  0  0  0  0  0
   23.3027   31.5713    7.8658 H   0  0  0  0  0  0  0  0  0  0  0  0
   28.4033   37.0290   10.7060 H   0  0  0  0  0  0  0  0  0  0  0  0
   30.6643   38.0001   10.2877 H   0  0  0  0  0  0  0  0  0  0  0  0
   32.9339   37.5024    9.3812 H   0  0  0  0  0  0  0  0  0  0  0  0
   31.3532   34.0802    7.2630 H   0  0  0  0  0  0  0  0  0  0  0  0
   29.0851   34.5744    8.1662 H   0  0  0  0  0  0  0  0  0  0  0  0
   24.1981   38.6488   11.0674 H   0  0  0  0  0  0  0  0  0  0  0  0
   23.8561   38.7150    9.3177 H   0  0  0  0  0  0  0  0  0  0  0  0
   34.2669   35.1867    9.7042 H   0  0  0  0  0  0  0  0  0  0  0  0
   34.8136   33.9994    8.4722 H   0  0  0  0  0  0  0  0  0  0  0  0
   35.4829   35.6663    8.4722 H   0  0  0  0  0  0  0  0  0  0  0  0
  2  1  2  0
  1  5  1  0
  1 16  1  0
  3  2  1  0
  6  3  1  0
  3  4  1  0
  9  4  1  0
  4  5  2  0
  5 23  1  0
 11  6  1  0
  7  6  2  0
  7  8  1  0
 10  8  1  0
  8  9  2  0
 11 12  1  0
 12 13  1  0
 13 14  1  0
 13 15  1  0
 14 15  1  0
 17 16  1  0
 22 17  1  0
 17 18  2  0
 19 18  1  0
 20 19  2  0
 26 20  1  0
 21 20  1  0
 21 22  2  0
 23 25  1  0
 23 24  2  0
 26 27  1  0
  7 28  1  0
 10 29  1  0
 10 30  1  0
 10 31  1  0
 11 32  1  0
 12 33  1  0
 12 34  1  0
 13 35  1  0
 14 36  1  0
 14 37  1  0
 15 38  1  0
 15 39  1  0
 16 40  1  0
 18 41  1  0
 19 42  1  0
 21 43  1  0
 22 44  1  0
 25 45  1  0
 25 46  1  0
 27 47  1  0
 27 48  1  0
 27 49  1  0
A    1
C1
A    2
N2
A    3
N3
A    4
C4
A    5
C5
A    6
C6
A    7
C7
A    8
C8
A    9
N9
A   10
C10
A   11
N11
A   12
C12
A   13
C13
A   14
C14
A   15
C15
A   16
N16
A   17
C17
A   18
C18
A   19
C19
A   20
C20
A   21
C21
A   22
C22
A   23
C23
A   24
O24
A   25
N25
A   26
O26
A   27
C27
M  END
