3AFR_ICJ_A_1
     RDKit          3D

 86 88  0  0  0  0  0  0  0  0999 V2000
   58.5110    3.3540   23.7420 O   0  0  0  0  0  0  0  0  0  0  0  0
   56.0260    6.6710   22.3990 O   0  0  0  0  0  0  0  0  0  0  0  0
   62.2390   -3.8810   14.0310 O   0  0  0  0  0  0  0  0  0  0  0  0
   57.9100    4.3040   22.8560 C   0  0  0  0  0  0  0  0  0  0  0  0
   58.0280    5.7370   23.4610 C   0  0  0  0  0  0  0  0  0  0  0  0
   57.4300    6.8320   22.4900 C   0  0  0  0  0  0  0  0  0  0  0  0
   58.0180    6.7120   21.0620 C   0  0  0  0  0  0  0  0  0  0  0  0
   58.1720    5.2600   20.5410 C   0  0  0  0  0  0  0  0  0  0  0  0
   57.8770    5.1380   19.1690 C   0  0  0  0  0  0  0  0  0  0  0  0
   57.9460    3.9860   18.3900 C   0  0  0  0  0  0  0  0  0  0  0  0
   58.1200    3.9390   17.0130 C   0  0  0  0  0  0  0  0  0  0  0  0
   58.2540    5.2060   16.1020 C   0  0  0  0  0  0  0  0  0  0  0  0
   58.5820    4.2530   21.4610 C   0  0  0  0  0  0  0  0  0  0  0  0
   59.5750    5.2000   15.3030 C   0  0  0  0  0  0  0  0  0  0  0  0
   59.9180    3.7820   14.7260 C   0  0  0  0  0  0  0  0  0  0  0  0
   59.8000    2.6070   15.7780 C   0  0  0  0  0  0  0  0  0  0  0  0
   58.2930    2.6110   16.2050 C   0  0  0  0  0  0  0  0  0  0  0  0
   58.0710    1.2740   16.9570 C   0  0  0  0  0  0  0  0  0  0  0  0
   59.0760    0.3490   16.2510 C   0  0  0  0  0  0  0  0  0  0  0  0
   59.8690    1.1750   15.1720 C   0  0  0  0  0  0  0  0  0  0  0  0
   60.9000    2.7650   16.9200 C   0  0  0  0  0  0  0  0  0  0  0  0
   59.5590    3.2560   21.2300 C   0  0  0  0  0  0  0  0  0  0  0  0
   61.2690    0.5260   14.8110 C   0  0  0  0  0  0  0  0  0  0  0  0
   62.0410    1.3700   13.7470 C   0  0  0  0  0  0  0  0  0  0  0  0
   61.1280   -0.9650   14.3230 C   0  0  0  0  0  0  0  0  0  0  0  0
   62.5490   -1.5340   14.0850 C   0  0  0  0  0  0  0  0  0  0  0  0
   62.8450   -2.8650   14.8120 C   0  0  0  0  0  0  0  0  0  0  0  0
   64.3720   -3.1580   14.9900 C   0  0  0  0  0  0  0  0  0  0  0  0
   65.1440   -3.0250   13.6530 C   0  0  0  0  0  0  0  0  0  0  0  0
   65.0020   -2.1680   15.9830 C   0  0  0  0  0  0  0  0  0  0  0  0
   60.3300   -1.0870   12.9990 C   0  0  0  0  0  0  0  0  0  0  0  0
   58.8700   -1.5260   13.1300 C   0  0  0  0  0  0  0  0  0  0  0  0
   58.2780   -1.8390   11.7530 C   0  0  0  0  0  0  0  0  0  0  0  0
   58.0860   -0.5670   10.8980 C   0  0  0  0  0  0  0  0  0  0  0  0
   58.3407    3.6232   24.6793 H   0  0  0  0  0  0  0  0  0  0  0  0
   55.6392    6.6266   23.3092 H   0  0  0  0  0  0  0  0  0  0  0  0
   61.8345   -4.5592   14.6281 H   0  0  0  0  0  0  0  0  0  0  0  0
   56.8467    4.0500   22.7342 H   0  0  0  0  0  0  0  0  0  0  0  0
   57.4798    5.7679   24.4141 H   0  0  0  0  0  0  0  0  0  0  0  0
   59.0947    5.9587   23.6128 H   0  0  0  0  0  0  0  0  0  0  0  0
   57.6903    7.8170   22.9046 H   0  0  0  0  0  0  0  0  0  0  0  0
   57.3545    7.2542   20.3723 H   0  0  0  0  0  0  0  0  0  0  0  0
   59.0332    7.1328   21.1093 H   0  0  0  0  0  0  0  0  0  0  0  0
   57.5560    6.0562   18.6552 H   0  0  0  0  0  0  0  0  0  0  0  0
   57.8541    3.0233   18.9142 H   0  0  0  0  0  0  0  0  0  0  0  0
   57.4108    5.2277   15.3959 H   0  0  0  0  0  0  0  0  0  0  0  0
   58.2500    6.0951   16.7497 H   0  0  0  0  0  0  0  0  0  0  0  0
   59.4856    5.9094   14.4671 H   0  0  0  0  0  0  0  0  0  0  0  0
   60.3843    5.4873   15.9904 H   0  0  0  0  0  0  0  0  0  0  0  0
   59.2282    3.5717   13.8954 H   0  0  0  0  0  0  0  0  0  0  0  0
   60.9705    3.8167   14.4082 H   0  0  0  0  0  0  0  0  0  0  0  0
   57.5267    2.6284   15.4161 H   0  0  0  0  0  0  0  0  0  0  0  0
   58.3012    1.3733   18.0280 H   0  0  0  0  0  0  0  0  0  0  0  0
   57.0329    0.9116   16.9267 H   0  0  0  0  0  0  0  0  0  0  0  0
   59.7796   -0.0622   16.9899 H   0  0  0  0  0  0  0  0  0  0  0  0
   58.5383   -0.4771   15.7626 H   0  0  0  0  0  0  0  0  0  0  0  0
   59.4646    1.1925   14.1492 H   0  0  0  0  0  0  0  0  0  0  0  0
   60.4174    2.6957   17.9061 H   0  0  0  0  0  0  0  0  0  0  0  0
   61.6487    1.9652   16.8211 H   0  0  0  0  0  0  0  0  0  0  0  0
   61.3933    3.7432   16.8211 H   0  0  0  0  0  0  0  0  0  0  0  0
   60.0568    3.1901   20.2513 H   0  0  0  0  0  0  0  0  0  0  0  0
   59.8207    2.5468   22.0291 H   0  0  0  0  0  0  0  0  0  0  0  0
   61.8536    0.5221   15.7428 H   0  0  0  0  0  0  0  0  0  0  0  0
   62.6989    2.0893   14.2566 H   0  0  0  0  0  0  0  0  0  0  0  0
   62.6466    0.7013   13.1176 H   0  0  0  0  0  0  0  0  0  0  0  0
   61.3211    1.9137   13.1176 H   0  0  0  0  0  0  0  0  0  0  0  0
   60.5809   -1.5214   15.0984 H   0  0  0  0  0  0  0  0  0  0  0  0
   62.6749   -1.6989   13.0047 H   0  0  0  0  0  0  0  0  0  0  0  0
   63.2514   -0.7941   14.4963 H   0  0  0  0  0  0  0  0  0  0  0  0
   62.4431   -2.8170   15.8348 H   0  0  0  0  0  0  0  0  0  0  0  0
   64.4482   -4.1903   15.3621 H   0  0  0  0  0  0  0  0  0  0  0  0
   66.2085   -2.8416   13.8609 H   0  0  0  0  0  0  0  0  0  0  0  0
   65.0382   -3.9546   13.0745 H   0  0  0  0  0  0  0  0  0  0  0  0
   64.7333   -2.1844   13.0745 H   0  0  0  0  0  0  0  0  0  0  0  0
   64.7926   -2.4971   17.0115 H   0  0  0  0  0  0  0  0  0  0  0  0
   66.0898   -2.1315   15.8240 H   0  0  0  0  0  0  0  0  0  0  0  0
   64.5744   -1.1671   15.8240 H   0  0  0  0  0  0  0  0  0  0  0  0
   60.3421   -0.1029   12.5076 H   0  0  0  0  0  0  0  0  0  0  0  0
   60.8276   -1.8840   12.4269 H   0  0  0  0  0  0  0  0  0  0  0  0
   58.8180   -2.4266   13.7595 H   0  0  0  0  0  0  0  0  0  0  0  0
   58.2928   -0.7091   13.5878 H   0  0  0  0  0  0  0  0  0  0  0  0
   58.9567   -2.5232   11.2227 H   0  0  0  0  0  0  0  0  0  0  0  0
   57.2890   -2.2955   11.9063 H   0  0  0  0  0  0  0  0  0  0  0  0
   57.9547    0.3026   11.5588 H   0  0  0  0  0  0  0  0  0  0  0  0
   58.9713   -0.4148   10.2632 H   0  0  0  0  0  0  0  0  0  0  0  0
   57.1952   -0.6829   10.2632 H   0  0  0  0  0  0  0  0  0  0  0  0
  1  4  1  0
  2  6  1  0
  3 27  1  0
  4  5  1  0
  4 13  1  0
  5  6  1  0
  6  7  1  0
  7  8  1  0
  8  9  2  0
  8 13  1  0
  9 10  1  0
 10 11  2  0
 11 12  1  0
 11 17  1  0
 12 14  1  0
 13 22  2  0
 14 15  1  0
 15 16  1  0
 16 17  1  0
 16 20  1  0
 16 21  1  0
 17 18  1  0
 18 19  1  0
 19 20  1  0
 20 23  1  0
 23 24  1  0
 23 25  1  0
 25 26  1  0
 25 31  1  0
 26 27  1  0
 27 28  1  0
 28 29  1  0
 28 30  1  0
 31 32  1  0
 32 33  1  0
 33 34  1  0
  1 35  1  0
  2 36  1  0
  3 37  1  0
  4 38  1  0
  5 39  1  0
  5 40  1  0
  6 41  1  0
  7 42  1  0
  7 43  1  0
  9 44  1  0
 10 45  1  0
 12 46  1  0
 12 47  1  0
 14 48  1  0
 14 49  1  0
 15 50  1  0
 15 51  1  0
 17 52  1  0
 18 53  1  0
 18 54  1  0
 19 55  1  0
 19 56  1  0
 20 57  1  0
 21 58  1  0
 21 59  1  0
 21 60  1  0
 22 61  1  0
 22 62  1  0
 23 63  1  0
 24 64  1  0
 24 65  1  0
 24 66  1  0
 25 67  1  0
 26 68  1  0
 26 69  1  0
 27 70  1  0
 28 71  1  0
 29 72  1  0
 29 73  1  0
 29 74  1  0
 30 75  1  0
 30 76  1  0
 30 77  1  0
 31 78  1  0
 31 79  1  0
 32 80  1  0
 32 81  1  0
 33 82  1  0
 33 83  1  0
 34 84  1  0
 34 85  1  0
 34 86  1  0
A    1
O1
A    2
O2
A    3
O3
A    4
C01
A    5
C02
A    6
C03
A    7
C04
A    8
C05
A    9
C06
A   10
C07
A   11
C08
A   12
C09
A   13
C10
A   14
C11
A   15
C12
A   16
C13
A   17
C14
A   18
C15
A   19
C16
A   20
C17
A   21
C18
A   22
C19
A   23
C20
A   24
C21
A   25
C22
A   26
C23
A   27
C24
A   28
C25
A   29
C26
A   30
C27
A   31
C28
A   32
C29
A   33
C30
A   34
C31
M  END
