3AGA_RCC_A_1000
     RDKit          3D

 84 88  0  0  0  0  0  0  0  0999 V2000
  -12.0210    8.4060  -14.7680 N   0  0  0  0  0  0  0  0  0  0  0  0
   -9.1830    8.8770  -14.8280 N   0  0  0  0  0  0  0  0  0  0  0  0
   -7.6230   10.5810  -14.7940 O   0  0  0  0  0  0  0  0  0  0  0  0
   -9.7540   12.1900  -16.5670 N   0  0  0  0  0  0  0  0  0  0  0  0
   -7.4550   10.9770  -19.1030 O   0  0  0  0  0  0  0  0  0  0  0  0
  -11.9570   11.4290  -14.6850 N   0  0  0  0  0  0  0  0  0  0  0  0
  -13.4390    8.5300  -14.7130 C   0  0  0  0  0  0  0  0  0  0  0  0
  -17.6250    6.2480  -14.1080 O   0  0  0  0  0  0  0  0  0  0  0  0
   -9.1960    7.4780  -14.9110 C   0  0  0  0  0  0  0  0  0  0  0  0
   -8.6020   12.1090  -17.3520 C   0  0  0  0  0  0  0  0  0  0  0  0
  -11.9290   12.8300  -14.6630 C   0  0  0  0  0  0  0  0  0  0  0  0
  -15.7640    8.9780  -12.4620 O   0  0  0  0  0  0  0  0  0  0  0  0
  -14.0820    7.1380  -14.7280 C   0  0  0  0  0  0  0  0  0  0  0  0
  -16.2210    4.5970  -13.6790 O   0  0  0  0  0  0  0  0  0  0  0  0
   -7.7520    7.0410  -15.0100 C   0  0  0  0  0  0  0  0  0  0  0  0
   -7.7120   13.1490  -16.9420 C   0  0  0  0  0  0  0  0  0  0  0  0
  -13.2610   13.3290  -14.6240 C   0  0  0  0  0  0  0  0  0  0  0  0
  -17.6190    9.9170  -13.3860 O   0  0  0  0  0  0  0  0  0  0  0  0
  -12.8620    6.1770  -14.8000 C   0  0  0  0  0  0  0  0  0  0  0  0
   -6.9380    8.1800  -14.9770 C   0  0  0  0  0  0  0  0  0  0  0  0
   -8.3650   13.8680  -15.8760 C   0  0  0  0  0  0  0  0  0  0  0  0
  -14.1170   12.1890  -14.6190 C   0  0  0  0  0  0  0  0  0  0  0  0
  -11.6710    7.1470  -14.8210 C   0  0  0  0  0  0  0  0  0  0  0  0
   -7.8680    9.3710  -14.8580 C   0  0  0  0  0  0  0  0  0  0  0  0
   -9.6310   13.2460  -15.6700 C   0  0  0  0  0  0  0  0  0  0  0  0
  -13.2720   11.0330  -14.6580 C   0  0  0  0  0  0  0  0  0  0  0  0
  -15.0350    6.9110  -15.9060 C   0  0  0  0  0  0  0  0  0  0  0  0
   -5.4790    8.3270  -15.0370 C   0  0  0  0  0  0  0  0  0  0  0  0
   -7.8180   15.0370  -15.1400 C   0  0  0  0  0  0  0  0  0  0  0  0
  -15.5120   11.7780  -14.5880 C   0  0  0  0  0  0  0  0  0  0  0  0
  -15.9230    5.6660  -15.8160 C   0  0  0  0  0  0  0  0  0  0  0  0
   -4.5450    7.3620  -15.1410 C   0  0  0  0  0  0  0  0  0  0  0  0
   -7.1120   14.6610  -13.8560 C   0  0  0  0  0  0  0  0  0  0  0  0
  -15.5100   10.2090  -14.6120 C   0  0  0  0  0  0  0  0  0  0  0  0
  -16.5350   12.4650  -14.5530 O   0  0  0  0  0  0  0  0  0  0  0  0
  -18.4310    9.4330  -12.2890 C   0  0  0  0  0  0  0  0  0  0  0  0
  -16.6760    5.5740  -14.5150 C   0  0  0  0  0  0  0  0  0  0  0  0
  -16.2560    9.6380  -13.3920 C   0  0  0  0  0  0  0  0  0  0  0  0
  -14.0230    9.7830  -14.6630 C   0  0  0  0  0  0  0  0  0  0  0  0
  -10.2980    6.6670  -14.9020 C   0  0  0  0  0  0  0  0  0  0  0  0
   -8.4490   11.0890  -18.3860 C   0  0  0  0  0  0  0  0  0  0  0  0
  -10.6750   13.6340  -14.6760 C   0  0  0  0  0  0  0  0  0  0  0  0
  -12.8340    5.2730  -13.5900 C   0  0  0  0  0  0  0  0  0  0  0  0
   -7.4040    5.6190  -15.1200 C   0  0  0  0  0  0  0  0  0  0  0  0
   -6.3840   13.4410  -17.4930 C   0  0  0  0  0  0  0  0  0  0  0  0
  -13.6640   14.7410  -14.5950 C   0  0  0  0  0  0  0  0  0  0  0  0
  -10.0255    9.4649  -14.7547 H   0  0  0  0  0  0  0  0  0  0  0  0
  -10.5689   11.5644  -16.6408 H   0  0  0  0  0  0  0  0  0  0  0  0
  -11.1369   10.8066  -14.7159 H   0  0  0  0  0  0  0  0  0  0  0  0
  -14.7199    6.9829  -13.8453 H   0  0  0  0  0  0  0  0  0  0  0  0
  -16.2777    4.7188  -12.6982 H   0  0  0  0  0  0  0  0  0  0  0  0
  -12.8715    5.4999  -15.6669 H   0  0  0  0  0  0  0  0  0  0  0  0
  -15.6926    7.7895  -15.9820 H   0  0  0  0  0  0  0  0  0  0  0  0
  -14.3916    6.7557  -16.7846 H   0  0  0  0  0  0  0  0  0  0  0  0
   -5.0992    9.3583  -14.9911 H   0  0  0  0  0  0  0  0  0  0  0  0
   -7.1011   15.5561  -15.7931 H   0  0  0  0  0  0  0  0  0  0  0  0
   -8.6701   15.6769  -14.8670 H   0  0  0  0  0  0  0  0  0  0  0  0
  -16.6502    5.6936  -16.6409 H   0  0  0  0  0  0  0  0  0  0  0  0
  -15.2649    4.7868  -15.8785 H   0  0  0  0  0  0  0  0  0  0  0  0
   -3.4787    7.6300  -15.1749 H   0  0  0  0  0  0  0  0  0  0  0  0
   -4.8486    6.3060  -15.1920 H   0  0  0  0  0  0  0  0  0  0  0  0
   -7.7178   14.9836  -12.9964 H   0  0  0  0  0  0  0  0  0  0  0  0
   -6.9746   13.5702  -13.8190 H   0  0  0  0  0  0  0  0  0  0  0  0
   -6.1302   15.1557  -13.8190 H   0  0  0  0  0  0  0  0  0  0  0  0
  -16.0459    9.8099  -15.4858 H   0  0  0  0  0  0  0  0  0  0  0  0
  -17.9617    9.7127  -11.3342 H   0  0  0  0  0  0  0  0  0  0  0  0
  -19.4339    9.8808  -12.3497 H   0  0  0  0  0  0  0  0  0  0  0  0
  -18.5142    8.3378  -12.3497 H   0  0  0  0  0  0  0  0  0  0  0  0
  -10.1364    5.5805  -14.9598 H   0  0  0  0  0  0  0  0  0  0  0  0
   -9.2738   10.3762  -18.5332 H   0  0  0  0  0  0  0  0  0  0  0  0
  -10.9530   14.6790  -14.8777 H   0  0  0  0  0  0  0  0  0  0  0  0
  -10.2130   13.4582  -13.6933 H   0  0  0  0  0  0  0  0  0  0  0  0
  -12.8529    5.8839  -12.6754 H   0  0  0  0  0  0  0  0  0  0  0  0
  -13.7121    4.6106  -13.6068 H   0  0  0  0  0  0  0  0  0  0  0  0
  -11.9166    4.6662  -13.6068 H   0  0  0  0  0  0  0  0  0  0  0  0
   -7.2986    5.1884  -14.1133 H   0  0  0  0  0  0  0  0  0  0  0  0
   -8.1987    5.0881  -15.6646 H   0  0  0  0  0  0  0  0  0  0  0  0
   -6.4539    5.5151  -15.6646 H   0  0  0  0  0  0  0  0  0  0  0  0
   -5.6717   13.5976  -16.6695 H   0  0  0  0  0  0  0  0  0  0  0  0
   -6.0494   12.5950  -18.1113 H   0  0  0  0  0  0  0  0  0  0  0  0
   -6.4352   14.3493  -18.1113 H   0  0  0  0  0  0  0  0  0  0  0  0
  -13.7590   15.0738  -13.5509 H   0  0  0  0  0  0  0  0  0  0  0  0
  -12.9038   15.3499  -15.1062 H   0  0  0  0  0  0  0  0  0  0  0  0
  -14.6311   14.8569  -15.1062 H   0  0  0  0  0  0  0  0  0  0  0  0
  1  7  1  0
  1 23  2  0
  2  9  1  0
  2 24  1  0
  3 24  2  0
  4 10  1  0
  4 25  1  0
  5 41  2  0
  6 11  1  0
  6 26  1  0
  7 13  1  0
  7 39  2  0
  8 37  2  0
  9 15  1  0
  9 40  2  0
 10 16  2  0
 10 41  1  0
 11 17  2  0
 11 42  1  0
 12 38  2  0
 13 19  1  0
 13 27  1  0
 14 37  1  0
 15 20  2  0
 15 44  1  0
 16 21  1  0
 16 45  1  0
 17 22  1  0
 17 46  1  0
 18 36  1  0
 18 38  1  0
 19 23  1  0
 19 43  1  0
 20 24  1  0
 20 28  1  0
 21 25  2  0
 21 29  1  0
 22 26  2  0
 22 30  1  0
 23 40  1  0
 25 42  1  0
 26 39  1  0
 27 31  1  0
 28 32  2  3
 29 33  1  0
 30 34  1  0
 30 35  2  0
 31 37  1  0
 34 38  1  0
 34 39  1  0
  2 47  1  0
  4 48  1  0
  6 49  1  0
 13 50  1  0
 14 51  1  0
 19 52  1  0
 27 53  1  0
 27 54  1  0
 28 55  1  0
 29 56  1  0
 29 57  1  0
 31 58  1  0
 31 59  1  0
 32 60  1  0
 32 61  1  0
 33 62  1  0
 33 63  1  0
 33 64  1  0
 34 65  1  0
 36 66  1  0
 36 67  1  0
 36 68  1  0
 40 69  1  0
 41 70  1  0
 42 71  1  0
 42 72  1  0
 43 73  1  0
 43 74  1  0
 43 75  1  0
 44 76  1  0
 44 77  1  0
 44 78  1  0
 45 79  1  0
 45 80  1  0
 45 81  1  0
 46 82  1  0
 46 83  1  0
 46 84  1  0
A    1
NA
A    2
NB
A    3
OB
A    4
NC
A    5
OC
A    6
ND
A    7
C1A
A    8
O1A
A    9
C1B
A   10
C1C
A   11
C1D
A   12
O1D
A   13
C2A
A   14
O2A
A   15
C2B
A   16
C2C
A   17
C2D
A   18
O2D
A   19
C3A
A   20
C3B
A   21
C3C
A   22
C3D
A   23
C4A
A   24
C4B
A   25
C4C
A   26
C4D
A   27
CAA
A   28
CAB
A   29
CAC
A   30
CAD
A   31
CBA
A   32
CBB
A   33
CBC
A   34
CBD
A   35
OBD
A   36
CED
A   37
CGA
A   38
CGD
A   39
CHA
A   40
CHB
A   41
CHC
A   42
CHD
A   43
CMA
A   44
CMB
A   45
CMC
A   46
CMD
M  END
