3AI8_HNQ_B_255
     RDKit          3D

 20 21  0  0  0  0  0  0  0  0999 V2000
  -35.2770  -12.1250  -47.1160 C   0  0  0  0  0  0  0  0  0  0  0  0
  -35.9260  -13.1970  -47.4940 N   0  0  0  0  0  0  0  0  0  0  0  0
  -35.7410  -14.2060  -46.9770 O   0  0  0  0  0  0  0  0  0  0  0  0
  -34.5660  -11.5700  -47.9520 C   0  0  0  0  0  0  0  0  0  0  0  0
  -34.6930  -10.2250  -44.2450 N   0  0  0  0  0  0  0  0  0  0  0  0
  -36.5930  -13.0610  -48.2110 O   0  0  0  0  0  0  0  0  0  0  0  0
  -33.8090  -10.5030  -47.6160 C   0  0  0  0  0  0  0  0  0  0  0  0
  -33.1100   -8.9350  -45.9840 O   0  0  0  0  0  0  0  0  0  0  0  0
  -33.8550  -10.0430  -46.3770 C   0  0  0  0  0  0  0  0  0  0  0  0
  -34.6490  -10.6740  -45.5070 C   0  0  0  0  0  0  0  0  0  0  0  0
  -35.4620  -10.8200  -43.4390 C   0  0  0  0  0  0  0  0  0  0  0  0
  -36.2170  -11.8780  -43.7940 C   0  0  0  0  0  0  0  0  0  0  0  0
  -36.1640  -12.3110  -44.9660 C   0  0  0  0  0  0  0  0  0  0  0  0
  -35.3530  -11.7010  -45.8820 C   0  0  0  0  0  0  0  0  0  0  0  0
  -34.5463  -11.9469  -48.9852 H   0  0  0  0  0  0  0  0  0  0  0  0
  -33.1617  -10.0223  -48.3643 H   0  0  0  0  0  0  0  0  0  0  0  0
  -32.9801   -8.7418  -45.0218 H   0  0  0  0  0  0  0  0  0  0  0  0
  -35.5179  -10.4586  -42.4016 H   0  0  0  0  0  0  0  0  0  0  0  0
  -36.8768  -12.3585  -43.0566 H   0  0  0  0  0  0  0  0  0  0  0  0
  -36.7691  -13.1815  -45.2594 H   0  0  0  0  0  0  0  0  0  0  0  0
  1  2  1  0
  1  4  2  0
  1 14  1  0
  2  3  1  0
  2  6  2  0
  4  7  1  0
  5 10  1  0
  5 11  2  0
  7  9  2  0
  8  9  1  0
  9 10  1  0
 10 14  2  0
 11 12  1  0
 12 13  2  0
 13 14  1  0
  4 15  1  0
  7 16  1  0
  8 17  1  0
 11 18  1  0
 12 19  1  0
 13 20  1  0
M  CHG  2   2   1   3  -1
A    1
C1
A    2
N1
A    3
O1
A    4
C2
A    5
N2
A    6
O2
A    7
C3
A    8
O3
A    9
C4
A   10
C5
A   11
C6
A   12
C7
A   13
C8
A   14
C9
M  END
