3AM9_FYO_A_1335
     RDKit          3D

 30 32  0  0  0  0  0  0  0  0999 V2000
  -68.1440  -25.7150  -41.6660 N   0  0  0  0  0  0  0  0  0  0  0  0
  -72.3460  -26.4520  -30.2690 O   0  0  0  0  0  0  0  0  0  0  0  0
  -70.3990  -22.0590  -29.7810 O   0  0  0  0  0  0  0  0  0  0  0  0
  -72.6420  -27.9350  -39.2490 O   0  0  0  0  0  0  0  0  0  0  0  0
  -68.0870  -25.8230  -40.6120 C   0  0  0  0  0  0  0  0  0  0  0  0
  -71.2690  -25.4280  -32.0990 C   0  0  0  0  0  0  0  0  0  0  0  0
  -70.2620  -23.2450  -31.9050 C   0  0  0  0  0  0  0  0  0  0  0  0
  -71.4160  -26.6030  -37.7650 C   0  0  0  0  0  0  0  0  0  0  0  0
  -69.2800  -25.6380  -38.3560 C   0  0  0  0  0  0  0  0  0  0  0  0
  -69.1580  -23.8080  -34.6330 N   0  0  0  0  0  0  0  0  0  0  0  0
  -71.3690  -24.2480  -30.0170 N   0  0  0  0  0  0  0  0  0  0  0  0
  -70.4930  -27.0470  -40.0040 N   0  0  0  0  0  0  0  0  0  0  0  0
  -70.7340  -25.3550  -34.9900 N   0  0  0  0  0  0  0  0  0  0  0  0
  -69.1290  -24.2520  -35.9910 N   0  0  0  0  0  0  0  0  0  0  0  0
  -71.6640  -25.3630  -30.7680 C   0  0  0  0  0  0  0  0  0  0  0  0
  -70.6860  -23.1820  -30.5510 C   0  0  0  0  0  0  0  0  0  0  0  0
  -71.4910  -27.2020  -39.0380 C   0  0  0  0  0  0  0  0  0  0  0  0
  -69.2470  -26.3330  -39.6190 C   0  0  0  0  0  0  0  0  0  0  0  0
  -70.5670  -24.3790  -32.6580 C   0  0  0  0  0  0  0  0  0  0  0  0
  -70.3060  -25.8340  -37.4490 C   0  0  0  0  0  0  0  0  0  0  0  0
  -70.1680  -24.5090  -34.0700 C   0  0  0  0  0  0  0  0  0  0  0  0
  -70.1040  -25.1700  -36.1710 C   0  0  0  0  0  0  0  0  0  0  0  0
  -71.5150  -26.3125  -32.7050 H   0  0  0  0  0  0  0  0  0  0  0  0
  -70.7098  -22.3842  -32.4232 H   0  0  0  0  0  0  0  0  0  0  0  0
  -69.1642  -23.2616  -31.8367 H   0  0  0  0  0  0  0  0  0  0  0  0
  -72.2252  -26.7431  -37.0332 H   0  0  0  0  0  0  0  0  0  0  0  0
  -68.4706  -24.9357  -38.1080 H   0  0  0  0  0  0  0  0  0  0  0  0
  -68.5470  -23.1108  -34.1840 H   0  0  0  0  0  0  0  0  0  0  0  0
  -71.6671  -24.2118  -29.0318 H   0  0  0  0  0  0  0  0  0  0  0  0
  -70.6173  -27.4174  -40.9570 H   0  0  0  0  0  0  0  0  0  0  0  0
  5  1  3  0
  2 15  2  0
  3 16  2  0
 17  4  2  0
 18  5  1  0
 15  6  1  0
  6 19  2  0
 16  7  1  0
  7 19  1  0
 20  8  2  0
  8 17  1  0
 20  9  1  0
  9 18  2  0
 21 10  1  0
 10 14  1  0
 11 15  1  0
 11 16  1  0
 17 12  1  0
 18 12  1  0
 21 13  2  0
 13 22  1  0
 14 22  2  0
 19 21  1  0
 22 20  1  0
  6 23  1  0
  7 24  1  0
  7 25  1  0
  8 26  1  0
  9 27  1  0
 10 28  1  0
 11 29  1  0
 12 30  1  0
A    1
NAA
A    2
OAB
A    3
OAC
A    4
OAD
A    5
CAE
A    6
CAF
A    7
CAG
A    8
CAH
A    9
CAI
A   10
NAJ
A   11
NAK
A   12
NAL
A   13
NAM
A   14
NAN
A   15
CAO
A   16
CAP
A   17
CAQ
A   18
CAR
A   19
CAS
A   20
CAT
A   21
CAU
A   22
CAV
M  END
