3ANT_S82_A_601
     RDKit          3D

 52 55  0  0  0  0  0  0  0  0999 V2000
   24.2230   25.1070  116.2560 N   0  0  0  0  0  0  0  0  0  0  0  0
   25.4360   24.5360  116.5590 C   0  0  0  0  0  0  0  0  0  0  0  0
   26.0590   23.8900  115.5220 N   0  0  0  0  0  0  0  0  0  0  0  0
   26.8300   22.7310  115.8000 C   0  0  0  0  0  0  0  0  0  0  0  0
   28.3280   22.7740  115.8050 C   0  0  0  0  0  0  0  0  0  0  0  0
   27.6020   22.0100  114.7430 C   0  0  0  0  0  0  0  0  0  0  0  0
   29.1500   22.0800  116.8130 C   0  0  0  0  0  0  0  0  0  0  0  0
   28.6150   21.4890  117.9390 C   0  0  0  0  0  0  0  0  0  0  0  0
   29.4000   20.8490  118.8740 C   0  0  0  0  0  0  0  0  0  0  0  0
   30.7630   20.7910  118.6970 C   0  0  0  0  0  0  0  0  0  0  0  0
   31.3180   21.3790  117.5820 C   0  0  0  0  0  0  0  0  0  0  0  0
   30.5160   22.0100  116.6570 C   0  0  0  0  0  0  0  0  0  0  0  0
   25.9190   24.5870  117.6800 O   0  0  0  0  0  0  0  0  0  0  0  0
   23.4080   25.5590  117.3480 C   0  0  0  0  0  0  0  0  0  0  0  0
   23.5170   27.0600  117.4660 C   0  0  0  0  0  0  0  0  0  0  0  0
   23.0590   27.6900  116.1690 C   0  0  0  0  0  0  0  0  0  0  0  0
   23.8150   27.1600  114.9660 C   0  0  0  0  0  0  0  0  0  0  0  0
   23.9220   25.6490  114.9540 C   0  0  0  0  0  0  0  0  0  0  0  0
   21.5950   27.6060  116.0080 C   0  0  0  0  0  0  0  0  0  0  0  0
   20.6590   27.6240  116.9280 N   0  0  0  0  0  0  0  0  0  0  0  0
   19.5230   27.5190  116.1700 C   0  0  0  0  0  0  0  0  0  0  0  0
   19.7290   27.4420  114.8490 N   0  0  0  0  0  0  0  0  0  0  0  0
   21.1150   27.5020  114.7400 O   0  0  0  0  0  0  0  0  0  0  0  0
   18.1790   27.4960  116.7840 C   0  0  0  0  0  0  0  0  0  0  0  0
   17.7000   26.0870  117.0460 C   0  0  0  0  0  0  0  0  0  0  0  0
   17.1570   28.2870  115.9980 C   0  0  0  0  0  0  0  0  0  0  0  0
   25.9690   24.2400  114.5575 H   0  0  0  0  0  0  0  0  0  0  0  0
   26.0510   22.4407  116.5204 H   0  0  0  0  0  0  0  0  0  0  0  0
   29.0717   23.5841  115.8286 H   0  0  0  0  0  0  0  0  0  0  0  0
   27.6329   20.9104  114.7386 H   0  0  0  0  0  0  0  0  0  0  0  0
   27.6046   22.0150  113.6430 H   0  0  0  0  0  0  0  0  0  0  0  0
   27.5270   21.5298  118.0957 H   0  0  0  0  0  0  0  0  0  0  0  0
   28.9382   20.3862  119.7586 H   0  0  0  0  0  0  0  0  0  0  0  0
   31.4004   20.2824  119.4353 H   0  0  0  0  0  0  0  0  0  0  0  0
   32.4068   21.3445  117.4295 H   0  0  0  0  0  0  0  0  0  0  0  0
   30.9787   22.4696  115.7712 H   0  0  0  0  0  0  0  0  0  0  0  0
   22.3599   25.2803  117.1638 H   0  0  0  0  0  0  0  0  0  0  0  0
   23.7519   25.0907  118.2820 H   0  0  0  0  0  0  0  0  0  0  0  0
   22.8814   27.4122  118.2918 H   0  0  0  0  0  0  0  0  0  0  0  0
   24.5607   27.3423  117.6683 H   0  0  0  0  0  0  0  0  0  0  0  0
   23.3075   28.7599  116.2277 H   0  0  0  0  0  0  0  0  0  0  0  0
   23.2919   27.4818  114.0534 H   0  0  0  0  0  0  0  0  0  0  0  0
   24.8376   27.5623  115.0161 H   0  0  0  0  0  0  0  0  0  0  0  0
   24.7214   25.3574  114.2569 H   0  0  0  0  0  0  0  0  0  0  0  0
   22.9469   25.2470  114.6416 H   0  0  0  0  0  0  0  0  0  0  0  0
   18.2852   27.9989  117.7565 H   0  0  0  0  0  0  0  0  0  0  0  0
   17.6416   25.9154  118.1310 H   0  0  0  0  0  0  0  0  0  0  0  0
   16.7045   25.9491  116.5989 H   0  0  0  0  0  0  0  0  0  0  0  0
   18.4052   25.3709  116.5989 H   0  0  0  0  0  0  0  0  0  0  0  0
   16.4831   28.8086  116.6935 H   0  0  0  0  0  0  0  0  0  0  0  0
   17.6721   29.0241  115.3644 H   0  0  0  0  0  0  0  0  0  0  0  0
   16.5726   27.6036  115.3644 H   0  0  0  0  0  0  0  0  0  0  0  0
  1  2  1  0
  1 14  1  0
  1 18  1  0
  2  3  1  0
  2 13  2  0
  3  4  1  0
  4  5  1  0
  4  6  1  0
  5  6  1  0
  5  7  1  0
  7  8  2  0
  7 12  1  0
  8  9  1  0
  9 10  2  0
 10 11  1  0
 11 12  2  0
 14 15  1  0
 15 16  1  0
 16 17  1  0
 16 19  1  0
 17 18  1  0
 19 20  2  0
 19 23  1  0
 20 21  1  0
 21 22  2  0
 21 24  1  0
 22 23  1  0
 24 25  1  0
 24 26  1  0
  3 27  1  0
  4 28  1  0
  5 29  1  0
  6 30  1  0
  6 31  1  0
  8 32  1  0
  9 33  1  0
 10 34  1  0
 11 35  1  0
 12 36  1  0
 14 37  1  0
 14 38  1  0
 15 39  1  0
 15 40  1  0
 16 41  1  0
 17 42  1  0
 17 43  1  0
 18 44  1  0
 18 45  1  0
 24 46  1  0
 25 47  1  0
 25 48  1  0
 25 49  1  0
 26 50  1  0
 26 51  1  0
 26 52  1  0
A    1
N1
A    2
C2
A    3
N3
A    4
C4
A    5
C5
A    6
C6
A    7
C7
A    8
C8
A    9
C9
A   10
C10
A   11
C11
A   12
C12
A   13
O13
A   14
C14
A   15
C15
A   16
C16
A   17
C17
A   18
C18
A   19
C19
A   20
N20
A   21
C21
A   22
N22
A   23
O23
A   24
C24
A   25
C25
A   26
C26
M  END
