3AO2_AVX_A_1
     RDKit          3D

 27 29  0  0  0  0  0  0  0  0999 V2000
    8.5180  -22.2800   -5.6960 C   0  0  0  0  0  0  0  0  0  0  0  0
    9.6330  -22.2010   -6.5780 C   0  0  0  0  0  0  0  0  0  0  0  0
   10.6110  -21.2110   -6.4820 C   0  0  0  0  0  0  0  0  0  0  0  0
   10.5430  -20.2270   -5.5330 C   0  0  0  0  0  0  0  0  0  0  0  0
    9.4210  -20.2350   -4.6000 C   0  0  0  0  0  0  0  0  0  0  0  0
    8.4270  -21.2810   -4.7080 C   0  0  0  0  0  0  0  0  0  0  0  0
    7.5400  -21.0060   -3.7100 O   0  0  0  0  0  0  0  0  0  0  0  0
    7.9950  -19.9210   -2.8750 C   0  0  0  0  0  0  0  0  0  0  0  0
    9.1330  -19.3870   -3.5670 O   0  0  0  0  0  0  0  0  0  0  0  0
    9.9500  -23.1890   -7.6470 C   0  0  0  0  0  0  0  0  0  0  0  0
   11.2490  -23.6360   -7.7740 N   0  0  0  0  0  0  0  0  0  0  0  0
   11.2570  -24.5530   -8.8270 N   0  0  0  0  0  0  0  0  0  0  0  0
   10.0070  -24.6320   -9.2800 C   0  0  0  0  0  0  0  0  0  0  0  0
    9.1160  -23.8120   -8.5900 C   0  0  0  0  0  0  0  0  0  0  0  0
   11.8100  -18.8850   -5.3540 Br  0  0  0  0  0  0  0  0  0  0  0  0
   12.5700  -25.1820   -9.1680 C   0  0  0  0  0  0  0  0  0  0  0  0
    9.6610  -25.4450  -10.3170 N   0  0  0  0  0  0  0  0  0  0  0  0
    7.7673  -23.0794   -5.7820 H   0  0  0  0  0  0  0  0  0  0  0  0
   11.4566  -21.2213   -7.1854 H   0  0  0  0  0  0  0  0  0  0  0  0
    7.2108  -19.1569   -2.7690 H   0  0  0  0  0  0  0  0  0  0  0  0
    8.2434  -20.2534   -1.8563 H   0  0  0  0  0  0  0  0  0  0  0  0
    8.0344  -23.6850   -8.7446 H   0  0  0  0  0  0  0  0  0  0  0  0
   13.1053  -25.4384   -8.2419 H   0  0  0  0  0  0  0  0  0  0  0  0
   12.3973  -26.0951   -9.7565 H   0  0  0  0  0  0  0  0  0  0  0  0
   13.1734  -24.4752   -9.7565 H   0  0  0  0  0  0  0  0  0  0  0  0
    9.2643  -26.3771  -10.1305 H   0  0  0  0  0  0  0  0  0  0  0  0
    9.7961  -25.1276  -11.2875 H   0  0  0  0  0  0  0  0  0  0  0  0
  1  2  2  0
  1  6  1  0
  2  3  1  0
  2 10  1  0
  3  4  2  0
  4  5  1  0
  4 15  1  0
  5  6  2  0
  5  9  1  0
  6  7  1  0
  7  8  1  0
  8  9  1  0
 10 11  2  0
 10 14  1  0
 11 12  1  0
 12 13  1  0
 12 16  1  0
 13 14  2  0
 13 17  1  0
  1 18  1  0
  3 19  1  0
  8 20  1  0
  8 21  1  0
 14 22  1  0
 16 23  1  0
 16 24  1  0
 16 25  1  0
 17 26  1  0
 17 27  1  0
A    1
C1
A    2
C2
A    3
C3
A    4
C4
A    5
C5
A    6
C6
A    7
O7
A    8
C8
A    9
O9
A   10
C10
A   11
N11
A   12
N12
A   13
C13
A   14
C14
A   15
BR15
A   16
C16
A   17
N17
M  END
