3AO3_BMC_A_1
     RDKit          3D

 28 30  0  0  0  0  0  0  0  0999 V2000
   -1.3540   12.5510   -5.9100 C   0  0  0  0  0  0  0  0  0  0  0  0
   -0.6300   11.5350   -6.5540 C   0  0  0  0  0  0  0  0  0  0  0  0
   -0.6520   10.1890   -6.1350 C   0  0  0  0  0  0  0  0  0  0  0  0
   -1.3920    9.7730   -5.0370 C   0  0  0  0  0  0  0  0  0  0  0  0
   -2.1100   10.7560   -4.3820 C   0  0  0  0  0  0  0  0  0  0  0  0
   -2.0880   12.1380   -4.8030 C   0  0  0  0  0  0  0  0  0  0  0  0
   -2.8860   12.8340   -3.9350 O   0  0  0  0  0  0  0  0  0  0  0  0
   -3.4330   11.9550   -2.9310 C   0  0  0  0  0  0  0  0  0  0  0  0
   -2.9130   10.6770   -3.2920 O   0  0  0  0  0  0  0  0  0  0  0  0
    0.1780   11.9020   -7.7480 C   0  0  0  0  0  0  0  0  0  0  0  0
   -0.2820   11.8510   -9.0660 C   0  0  0  0  0  0  0  0  0  0  0  0
    0.7490   12.2760   -9.8890 C   0  0  0  0  0  0  0  0  0  0  0  0
    1.7620   12.5710   -9.0750 N   0  0  0  0  0  0  0  0  0  0  0  0
    1.4490   12.3660   -7.7370 N   0  0  0  0  0  0  0  0  0  0  0  0
    0.7350   12.3990  -11.3730 C   0  0  0  0  0  0  0  0  0  0  0  0
    0.7070   11.3630  -12.0790 O   0  0  0  0  0  0  0  0  0  0  0  0
    0.7320   13.5610  -11.8580 O   0  0  0  0  0  0  0  0  0  0  0  0
    3.1230   13.0770   -9.3280 C   0  0  0  0  0  0  0  0  0  0  0  0
   -1.3417   13.5954   -6.2550 H   0  0  0  0  0  0  0  0  0  0  0  0
   -0.0650    9.4462   -6.6952 H   0  0  0  0  0  0  0  0  0  0  0  0
   -1.4063    8.7236   -4.7076 H   0  0  0  0  0  0  0  0  0  0  0  0
   -3.0957   12.2475   -1.9257 H   0  0  0  0  0  0  0  0  0  0  0  0
   -4.5322   11.9766   -2.8940 H   0  0  0  0  0  0  0  0  0  0  0  0
   -1.2826   11.5310   -9.3921 H   0  0  0  0  0  0  0  0  0  0  0  0
    0.6829   10.4715  -11.6491 H   0  0  0  0  0  0  0  0  0  0  0  0
    3.6284   13.2649   -8.3692 H   0  0  0  0  0  0  0  0  0  0  0  0
    3.6911   12.3300   -9.9018 H   0  0  0  0  0  0  0  0  0  0  0  0
    3.0652   14.0137   -9.9018 H   0  0  0  0  0  0  0  0  0  0  0  0
  1  2  2  0
  1  6  1  0
  2  3  1  0
  2 10  1  0
  3  4  2  0
  4  5  1  0
  5  6  2  0
  5  9  1  0
  6  7  1  0
  7  8  1  0
  8  9  1  0
 10 11  1  0
 10 14  2  0
 11 12  2  0
 12 13  1  0
 12 15  1  0
 13 14  1  0
 13 18  1  0
 15 16  1  0
 15 17  2  0
  1 19  1  0
  3 20  1  0
  4 21  1  0
  8 22  1  0
  8 23  1  0
 11 24  1  0
 16 25  1  0
 18 26  1  0
 18 27  1  0
 18 28  1  0
A    1
C1
A    2
C2
A    3
C3
A    4
C4
A    5
C5
A    6
C6
A    7
O7
A    8
C8
A    9
O9
A   10
C10
A   11
C11
A   12
C12
A   13
N13
A   14
N14
A   15
C15
A   16
O16
A   17
O17
A   18
C18
M  END
