3APD_MMY_A_1
     RDKit          3D

 48 52  0  0  0  0  0  0  0  0999 V2000
   47.6540   17.9480   31.7430 C   0  0  0  0  0  0  0  0  0  0  0  0
   48.8060   18.6980   31.5510 C   0  0  0  0  0  0  0  0  0  0  0  0
   48.7020   20.0630   31.3100 C   0  0  0  0  0  0  0  0  0  0  0  0
   47.5140   20.6490   31.2670 N   0  0  0  0  0  0  0  0  0  0  0  0
   46.3930   19.9640   31.4410 C   0  0  0  0  0  0  0  0  0  0  0  0
   46.4180   18.5890   31.6880 C   0  0  0  0  0  0  0  0  0  0  0  0
   45.2680   17.9170   31.8680 N   0  0  0  0  0  0  0  0  0  0  0  0
   44.0470   18.5600   32.4030 C   0  0  0  0  0  0  0  0  0  0  0  0
   43.0160   17.4480   32.4770 C   0  0  0  0  0  0  0  0  0  0  0  0
   43.7470   16.2810   31.8430 C   0  0  0  0  0  0  0  0  0  0  0  0
   45.0570   16.6410   31.5230 C   0  0  0  0  0  0  0  0  0  0  0  0
   45.8600   15.7240   30.9510 N   0  0  0  0  0  0  0  0  0  0  0  0
   45.4080   14.4860   30.6820 C   0  0  0  0  0  0  0  0  0  0  0  0
   46.2400   13.5370   30.0770 N   0  0  0  0  0  0  0  0  0  0  0  0
   45.6510   12.3240   29.4760 C   0  0  0  0  0  0  0  0  0  0  0  0
   46.3290   11.9750   28.1530 C   0  0  0  0  0  0  0  0  0  0  0  0
   47.7640   12.0190   28.3020 O   0  0  0  0  0  0  0  0  0  0  0  0
   48.1750   13.3770   28.5880 C   0  0  0  0  0  0  0  0  0  0  0  0
   47.6980   13.7330   30.0000 C   0  0  0  0  0  0  0  0  0  0  0  0
   44.1470   14.1400   30.9800 N   0  0  0  0  0  0  0  0  0  0  0  0
   43.2940   14.9940   31.5750 C   0  0  0  0  0  0  0  0  0  0  0  0
   41.9840   14.5760   31.8570 C   0  0  0  0  0  0  0  0  0  0  0  0
   41.4590   13.4760   31.1830 C   0  0  0  0  0  0  0  0  0  0  0  0
   40.2280   13.0750   31.4230 N   0  0  0  0  0  0  0  0  0  0  0  0
   39.4570   13.7230   32.3160 C   0  0  0  0  0  0  0  0  0  0  0  0
   38.2090   13.3120   32.5330 N   0  0  0  0  0  0  0  0  0  0  0  0
   39.9340   14.7940   32.9780 N   0  0  0  0  0  0  0  0  0  0  0  0
   41.1690   15.2290   32.7800 C   0  0  0  0  0  0  0  0  0  0  0  0
   47.7157   16.8667   31.9352 H   0  0  0  0  0  0  0  0  0  0  0  0
   49.7939   18.2158   31.5893 H   0  0  0  0  0  0  0  0  0  0  0  0
   49.6120   20.6610   31.1539 H   0  0  0  0  0  0  0  0  0  0  0  0
   45.4265   20.4867   31.3901 H   0  0  0  0  0  0  0  0  0  0  0  0
   44.2368   18.9781   33.4026 H   0  0  0  0  0  0  0  0  0  0  0  0
   43.7093   19.3945   31.7709 H   0  0  0  0  0  0  0  0  0  0  0  0
   42.7433   17.2273   33.5196 H   0  0  0  0  0  0  0  0  0  0  0  0
   42.0675   17.6951   31.9777 H   0  0  0  0  0  0  0  0  0  0  0  0
   45.7731   11.4827   30.1741 H   0  0  0  0  0  0  0  0  0  0  0  0
   44.5857   12.5157   29.2802 H   0  0  0  0  0  0  0  0  0  0  0  0
   46.0264   10.9632   27.8454 H   0  0  0  0  0  0  0  0  0  0  0  0
   46.0246   12.7062   27.3896 H   0  0  0  0  0  0  0  0  0  0  0  0
   49.2710   13.4536   28.5346 H   0  0  0  0  0  0  0  0  0  0  0  0
   47.7385   14.0694   27.8531 H   0  0  0  0  0  0  0  0  0  0  0  0
   47.9409   14.7836   30.2175 H   0  0  0  0  0  0  0  0  0  0  0  0
   48.1993   13.0869   30.7357 H   0  0  0  0  0  0  0  0  0  0  0  0
   42.0757   12.9397   30.4467 H   0  0  0  0  0  0  0  0  0  0  0  0
   37.8644   13.1985   33.4970 H   0  0  0  0  0  0  0  0  0  0  0  0
   37.5883   13.1076   31.7368 H   0  0  0  0  0  0  0  0  0  0  0  0
   41.5480   16.0975   33.3387 H   0  0  0  0  0  0  0  0  0  0  0  0
  1  2  2  0
  1  6  1  0
  2  3  1  0
  3  4  2  0
  4  5  1  0
  5  6  2  0
  6  7  1  0
  7  8  1  0
  7 11  1  0
  8  9  1  0
  9 10  1  0
 10 11  2  0
 10 21  1  0
 11 12  1  0
 12 13  2  0
 13 14  1  0
 13 20  1  0
 14 15  1  0
 14 19  1  0
 15 16  1  0
 16 17  1  0
 17 18  1  0
 18 19  1  0
 20 21  2  0
 21 22  1  0
 22 23  2  0
 22 28  1  0
 23 24  1  0
 24 25  2  0
 25 26  1  0
 25 27  1  0
 27 28  2  0
  1 29  1  0
  2 30  1  0
  3 31  1  0
  5 32  1  0
  8 33  1  0
  8 34  1  0
  9 35  1  0
  9 36  1  0
 15 37  1  0
 15 38  1  0
 16 39  1  0
 16 40  1  0
 18 41  1  0
 18 42  1  0
 19 43  1  0
 19 44  1  0
 23 45  1  0
 26 46  1  0
 26 47  1  0
 28 48  1  0
A    1
C1
A    2
C2
A    3
C3
A    4
N4
A    5
C5
A    6
C6
A    7
N7
A    8
C8
A    9
C9
A   10
C10
A   11
C11
A   12
N12
A   13
C13
A   14
N14
A   15
C15
A   16
C16
A   17
O17
A   18
C18
A   19
C19
A   20
N20
A   21
C21
A   22
C22
A   23
C23
A   24
N24
A   25
C25
A   26
N26
A   27
N29
A   28
C30
M  END
