3APF_BMW_A_1103
     RDKit          3D

 53 58  0  0  0  0  0  0  0  0999 V2000
   46.1840   17.4010   32.1770 C   0  0  0  0  0  0  0  0  0  0  0  0
   47.0590   18.4770   32.0050 C   0  0  0  0  0  0  0  0  0  0  0  0
   48.3540   18.5450   31.7040 N   0  0  0  0  0  0  0  0  0  0  0  0
   48.7190   19.8280   31.6720 C   0  0  0  0  0  0  0  0  0  0  0  0
   47.6560   20.5860   31.9530 N   0  0  0  0  0  0  0  0  0  0  0  0
   46.6200   19.7840   32.1680 C   0  0  0  0  0  0  0  0  0  0  0  0
   45.2940   20.0310   32.4970 C   0  0  0  0  0  0  0  0  0  0  0  0
   44.4120   18.9610   32.6540 C   0  0  0  0  0  0  0  0  0  0  0  0
   44.8500   17.6400   32.5020 C   0  0  0  0  0  0  0  0  0  0  0  0
   43.9740   16.6500   32.6500 N   0  0  0  0  0  0  0  0  0  0  0  0
   42.7390   16.8280   33.4350 C   0  0  0  0  0  0  0  0  0  0  0  0
   41.8560   15.6410   33.0670 C   0  0  0  0  0  0  0  0  0  0  0  0
   42.8070   14.7900   32.2340 C   0  0  0  0  0  0  0  0  0  0  0  0
   44.0210   15.4560   32.0370 C   0  0  0  0  0  0  0  0  0  0  0  0
   44.9680   14.8310   31.3090 N   0  0  0  0  0  0  0  0  0  0  0  0
   44.7470   13.6060   30.7920 C   0  0  0  0  0  0  0  0  0  0  0  0
   45.7020   12.9250   30.0500 N   0  0  0  0  0  0  0  0  0  0  0  0
   45.3460   11.6640   29.4100 C   0  0  0  0  0  0  0  0  0  0  0  0
   46.2790   11.3580   28.2330 C   0  0  0  0  0  0  0  0  0  0  0  0
   47.6240   11.7470   28.4100 O   0  0  0  0  0  0  0  0  0  0  0  0
   47.6120   13.1430   28.5110 C   0  0  0  0  0  0  0  0  0  0  0  0
   47.0860   13.3960   29.9290 C   0  0  0  0  0  0  0  0  0  0  0  0
   43.5880   12.9770   30.9830 N   0  0  0  0  0  0  0  0  0  0  0  0
   42.6000   13.5230   31.6970 C   0  0  0  0  0  0  0  0  0  0  0  0
   41.3940   12.8220   31.8290 C   0  0  0  0  0  0  0  0  0  0  0  0
   40.9510   12.0580   30.7460 C   0  0  0  0  0  0  0  0  0  0  0  0
   40.6080   12.8770   32.9800 C   0  0  0  0  0  0  0  0  0  0  0  0
   39.4090   12.1660   33.0410 C   0  0  0  0  0  0  0  0  0  0  0  0
   38.9850   11.3980   31.9610 C   0  0  0  0  0  0  0  0  0  0  0  0
   39.7620   11.3350   30.8010 C   0  0  0  0  0  0  0  0  0  0  0  0
   39.3630   10.5980   29.7110 O   0  0  0  0  0  0  0  0  0  0  0  0
   46.5467   16.3696   32.0564 H   0  0  0  0  0  0  0  0  0  0  0  0
   49.7300   20.2004   31.4504 H   0  0  0  0  0  0  0  0  0  0  0  0
   47.6422   21.6150   31.9956 H   0  0  0  0  0  0  0  0  0  0  0  0
   44.9408   21.0638   32.6331 H   0  0  0  0  0  0  0  0  0  0  0  0
   43.3583   19.1582   32.9005 H   0  0  0  0  0  0  0  0  0  0  0  0
   42.9626   16.8230   34.5120 H   0  0  0  0  0  0  0  0  0  0  0  0
   42.2484   17.7881   33.2170 H   0  0  0  0  0  0  0  0  0  0  0  0
   41.5167   15.1013   33.9634 H   0  0  0  0  0  0  0  0  0  0  0  0
   40.9316   15.9204   32.5404 H   0  0  0  0  0  0  0  0  0  0  0  0
   45.4220   10.8525   30.1487 H   0  0  0  0  0  0  0  0  0  0  0  0
   44.3177   11.7450   29.0279 H   0  0  0  0  0  0  0  0  0  0  0  0
   46.2599   10.2721   28.0582 H   0  0  0  0  0  0  0  0  0  0  0  0
   45.9016   11.9488   27.3854 H   0  0  0  0  0  0  0  0  0  0  0  0
   48.6247   13.5546   28.3882 H   0  0  0  0  0  0  0  0  0  0  0  0
   46.9979   13.6230   27.7348 H   0  0  0  0  0  0  0  0  0  0  0  0
   47.1223   14.4745   30.1425 H   0  0  0  0  0  0  0  0  0  0  0  0
   47.7144   12.8485   30.6468 H   0  0  0  0  0  0  0  0  0  0  0  0
   41.5561   12.0269   29.8279 H   0  0  0  0  0  0  0  0  0  0  0  0
   40.9335   13.4810   33.8398 H   0  0  0  0  0  0  0  0  0  0  0  0
   38.7933   12.2131   33.9513 H   0  0  0  0  0  0  0  0  0  0  0  0
   38.0385   10.8406   32.0202 H   0  0  0  0  0  0  0  0  0  0  0  0
   38.8958    9.7350   29.8412 H   0  0  0  0  0  0  0  0  0  0  0  0
  1  2  2  0
  1  9  1  0
  2  3  1  0
  2  6  1  0
  3  4  2  0
  4  5  1  0
  5  6  1  0
  6  7  2  0
  7  8  1  0
  8  9  2  0
  9 10  1  0
 10 11  1  0
 10 14  1  0
 11 12  1  0
 12 13  1  0
 13 14  2  0
 13 24  1  0
 14 15  1  0
 15 16  2  0
 16 17  1  0
 16 23  1  0
 17 18  1  0
 17 22  1  0
 18 19  1  0
 19 20  1  0
 20 21  1  0
 21 22  1  0
 23 24  2  0
 24 25  1  0
 25 26  2  0
 25 27  1  0
 26 30  1  0
 27 28  2  0
 28 29  1  0
 29 30  2  0
 30 31  1  0
  1 32  1  0
  4 33  1  0
  5 34  1  0
  7 35  1  0
  8 36  1  0
 11 37  1  0
 11 38  1  0
 12 39  1  0
 12 40  1  0
 18 41  1  0
 18 42  1  0
 19 43  1  0
 19 44  1  0
 21 45  1  0
 21 46  1  0
 22 47  1  0
 22 48  1  0
 26 49  1  0
 27 50  1  0
 28 51  1  0
 29 52  1  0
 31 53  1  0
A    1
C1
A    2
C2
A    3
N3
A    4
C5
A    5
N6
A    6
C7
A    7
C8
A    8
C9
A    9
C10
A   10
N11
A   11
C12
A   12
C13
A   13
C14
A   14
C15
A   15
N16
A   16
C17
A   17
N18
A   18
C19
A   19
C20
A   20
O21
A   21
C22
A   22
C23
A   23
N24
A   24
C25
A   25
C26
A   26
C27
A   27
C28
A   28
C29
A   29
C30
A   30
C31
A   31
O32
M  END
