3AQ0_ISY_A_1003
     RDKit          3D

 26 25  0  0  0  0  0  0  0  0999 V2000
  -39.0990   35.5070    1.6470 P   0  0  0  0  0  0  0  0  0  0  0  0
  -40.5190   35.7220    0.9340 O   0  0  0  0  0  0  0  0  0  0  0  0
  -41.6000   34.5770    0.7090 P   0  0  0  0  0  0  0  0  0  0  0  0
  -38.3270   36.7380    1.0100 O   0  0  0  0  0  0  0  0  0  0  0  0
  -39.1720   35.5960    3.1220 O   0  0  0  0  0  0  0  0  0  0  0  0
  -38.3380   34.2230    1.0240 O   0  0  0  0  0  0  0  0  0  0  0  0
  -41.0360   33.2240    0.8550 O   0  0  0  0  0  0  0  0  0  0  0  0
  -42.3710   34.9370   -0.5040 O   0  0  0  0  0  0  0  0  0  0  0  0
  -42.5920   34.8720    2.0500 S   0  0  0  0  0  0  0  0  0  0  0  0
  -44.0140   35.8180    1.3350 C   0  0  0  0  0  0  0  0  0  0  0  0
  -45.2210   35.2140    1.7250 C   0  0  0  0  0  0  0  0  0  0  0  0
  -46.3630   35.7850    2.2930 C   0  0  0  0  0  0  0  0  0  0  0  0
  -46.5360   37.2920    2.5510 C   0  0  0  0  0  0  0  0  0  0  0  0
  -47.5120   34.8740    2.6450 C   0  0  0  0  0  0  0  0  0  0  0  0
  -37.9673   37.3115    1.7324 H   0  0  0  0  0  0  0  0  0  0  0  0
  -37.9994   33.6517    1.7582 H   0  0  0  0  0  0  0  0  0  0  0  0
  -43.2351   35.3405   -0.2381 H   0  0  0  0  0  0  0  0  0  0  0  0
  -43.9869   36.8544    1.7026 H   0  0  0  0  0  0  0  0  0  0  0  0
  -43.9408   35.8165    0.2374 H   0  0  0  0  0  0  0  0  0  0  0  0
  -45.5889   34.7299    0.8083 H   0  0  0  0  0  0  0  0  0  0  0  0
  -44.8471   34.7047    2.6254 H   0  0  0  0  0  0  0  0  0  0  0  0
  -46.5574   37.4784    3.6349 H   0  0  0  0  0  0  0  0  0  0  0  0
  -45.6949   37.8399    2.1013 H   0  0  0  0  0  0  0  0  0  0  0  0
  -47.4794   37.6351    2.1013 H   0  0  0  0  0  0  0  0  0  0  0  0
  -48.4262   35.2899    3.0936 H   0  0  0  0  0  0  0  0  0  0  0  0
  -47.4359   33.7935    2.4532 H   0  0  0  0  0  0  0  0  0  0  0  0
  1  2  1  0
  1  4  1  0
  1  5  2  0
  1  6  1  0
  2  3  1  0
  3  7  2  0
  3  8  1  0
  3  9  1  0
  9 10  1  0
 10 11  1  0
 11 12  1  0
 12 13  1  0
 12 14  2  3
  4 15  1  0
  6 16  1  0
  8 17  1  0
 10 18  1  0
 10 19  1  0
 11 20  1  0
 11 21  1  0
 13 22  1  0
 13 23  1  0
 13 24  1  0
 14 25  1  0
 14 26  1  0
A    1
P1
A    2
O2
A    3
P3
A    4
O4
A    5
O5
A    6
O6
A    7
O7
A    8
O8
A    9
S9
A   10
C10
A   11
C11
A   12
C12
A   13
C13
A   14
C14
M  END
