1XSP_PPV_A_579
     RDKit          3D

 13 12  0  0  0  0  0  0  0  0999 V2000
   21.0570   23.5520   14.5390 O   0  0  0  0  0  0  0  0  0  0  0  0
   20.6120   22.2140   15.2240 P   0  0  0  0  0  0  0  0  0  0  0  0
   21.8520   21.4870   15.8330 O   0  0  0  0  0  0  0  0  0  0  0  0
   19.8290   21.4370   14.1960 O   0  0  0  0  0  0  0  0  0  0  0  0
   19.7690   22.7570   16.3990 O   0  0  0  0  0  0  0  0  0  0  0  0
   18.4190   23.5820   16.4600 P   0  0  0  0  0  0  0  0  0  0  0  0
   18.7960   24.9830   16.2740 O   0  0  0  0  0  0  0  0  0  0  0  0
   17.4970   23.0200   15.4480 O   0  0  0  0  0  0  0  0  0  0  0  0
   18.0940   23.1950   17.9410 O   0  0  0  0  0  0  0  0  0  0  0  0
   21.2794   24.2207   15.2344 H   0  0  0  0  0  0  0  0  0  0  0  0
   21.8000   21.5175   16.8212 H   0  0  0  0  0  0  0  0  0  0  0  0
   18.9119   25.4137   17.1578 H   0  0  0  0  0  0  0  0  0  0  0  0
   18.5936   23.7899   18.5547 H   0  0  0  0  0  0  0  0  0  0  0  0
  1  2  1  0
  2  3  1  0
  2  4  2  0
  2  5  1  0
  5  6  1  0
  6  7  1  0
  6  8  2  0
  6  9  1  0
  1 10  1  0
  3 11  1  0
  7 12  1  0
  9 13  1  0
A    1
O11
A    2
P1
A    3
O21
A    4
O31
A    5
OPP
A    6
P2
A    7
O12
A    8
O22
A    9
O32
M  END
