3AQA_BYH_A_201
     RDKit          3D

 39 42  0  0  0  0  0  0  0  0999 V2000
   11.2490   -8.4980   36.0140 C   0  0  0  0  0  0  0  0  0  0  0  0
    9.5090   -6.4700   34.3110 S   0  0  0  0  0  0  0  0  0  0  0  0
   15.5250   -4.0930   32.8810 C   0  0  0  0  0  0  0  0  0  0  0  0
   14.7150   -4.3790   34.0270 C   0  0  0  0  0  0  0  0  0  0  0  0
   12.3160  -12.0270   33.2810 C   0  0  0  0  0  0  0  0  0  0  0  0
   11.7890  -11.8860   31.9640 C   0  0  0  0  0  0  0  0  0  0  0  0
   15.0270   -4.2890   31.5520 C   0  0  0  0  0  0  0  0  0  0  0  0
   13.3980   -4.8760   33.8680 C   0  0  0  0  0  0  0  0  0  0  0  0
   12.0890  -11.0350   34.2630 C   0  0  0  0  0  0  0  0  0  0  0  0
   11.0190  -10.7450   31.6060 C   0  0  0  0  0  0  0  0  0  0  0  0
    9.1770   -6.6050   30.9020 C   0  0  0  0  0  0  0  0  0  0  0  0
    9.3830   -8.1120   31.2330 C   0  0  0  0  0  0  0  0  0  0  0  0
   12.9560   -5.0730   30.3290 N   0  0  0  0  0  0  0  0  0  0  0  0
   11.7390   -5.5300   32.1180 N   0  0  0  0  0  0  0  0  0  0  0  0
   10.4850   -6.0480   29.7380 S   0  0  0  0  0  0  0  0  0  0  0  0
   11.7820   -5.5240   30.7860 C   0  0  0  0  0  0  0  0  0  0  0  0
   10.1860   -7.9870   33.7540 C   0  0  0  0  0  0  0  0  0  0  0  0
   13.6990   -4.7850   31.4040 C   0  0  0  0  0  0  0  0  0  0  0  0
   12.8960   -5.0820   32.5530 C   0  0  0  0  0  0  0  0  0  0  0  0
   11.3030   -9.8670   33.8990 C   0  0  0  0  0  0  0  0  0  0  0  0
   10.7680   -9.7250   32.5650 C   0  0  0  0  0  0  0  0  0  0  0  0
   10.9200   -8.7890   34.5660 N   0  0  0  0  0  0  0  0  0  0  0  0
   10.0870   -8.5660   32.5100 N   0  0  0  0  0  0  0  0  0  0  0  0
   10.5853   -9.0850   36.6659 H   0  0  0  0  0  0  0  0  0  0  0  0
   12.2955   -8.7715   36.2144 H   0  0  0  0  0  0  0  0  0  0  0  0
   11.1054   -7.4260   36.2144 H   0  0  0  0  0  0  0  0  0  0  0  0
   16.5484   -3.7159   33.0238 H   0  0  0  0  0  0  0  0  0  0  0  0
   15.1180   -4.2117   35.0368 H   0  0  0  0  0  0  0  0  0  0  0  0
   12.9068  -12.9189   33.5367 H   0  0  0  0  0  0  0  0  0  0  0  0
   11.9802  -12.6691   31.2156 H   0  0  0  0  0  0  0  0  0  0  0  0
   15.6498   -4.0638   30.6737 H   0  0  0  0  0  0  0  0  0  0  0  0
   12.7743   -5.0988   34.7462 H   0  0  0  0  0  0  0  0  0  0  0  0
   12.4975  -11.1444   35.2785 H   0  0  0  0  0  0  0  0  0  0  0  0
   10.6172  -10.6513   30.5863 H   0  0  0  0  0  0  0  0  0  0  0  0
    8.1895   -6.4632   30.4387 H   0  0  0  0  0  0  0  0  0  0  0  0
    9.2359   -6.0151   31.8286 H   0  0  0  0  0  0  0  0  0  0  0  0
    8.3801   -8.5632   31.2560 H   0  0  0  0  0  0  0  0  0  0  0  0
   10.0900   -8.4280   30.4518 H   0  0  0  0  0  0  0  0  0  0  0  0
   13.2335   -4.9680   29.3427 H   0  0  0  0  0  0  0  0  0  0  0  0
  1 22  1  0
  2 17  2  0
  3  4  2  0
  3  7  1  0
  4  8  1  0
  5  6  2  0
  5  9  1  0
  6 10  1  0
  7 18  2  0
  8 19  2  0
  9 20  2  0
 10 21  2  0
 11 12  1  0
 11 15  1  0
 12 23  1  0
 13 16  1  0
 13 18  1  0
 14 16  2  0
 14 19  1  0
 15 16  1  0
 17 22  1  0
 17 23  1  0
 18 19  1  0
 20 21  1  0
 20 22  1  0
 21 23  1  0
  1 24  1  0
  1 25  1  0
  1 26  1  0
  3 27  1  0
  4 28  1  0
  5 29  1  0
  6 30  1  0
  7 31  1  0
  8 32  1  0
  9 33  1  0
 10 34  1  0
 11 35  1  0
 11 36  1  0
 12 37  1  0
 12 38  1  0
 13 39  1  0
A    1
CAA
A    2
SAB
A    3
CAC
A    4
CAD
A    5
CAE
A    6
CAF
A    7
CAG
A    8
CAH
A    9
CAI
A   10
CAJ
A   11
CAK
A   12
CAL
A   13
NAM
A   14
NAN
A   15
SAO
A   16
CAP
A   17
CAQ
A   18
CAR
A   19
CAS
A   20
CAT
A   21
CAU
A   22
NAV
A   23
NAW
M  END
