3ARN_MSJ_A_165
     RDKit          3D

 49 50  0  0  0  0  0  0  0  0999 V2000
   -3.5960   31.7470   32.6610 O   0  0  0  0  0  0  0  0  0  0  0  0
   -4.6950   32.1620   32.1900 C   0  0  0  0  0  0  0  0  0  0  0  0
   -5.7710   31.3220   32.1430 N   0  0  0  0  0  0  0  0  0  0  0  0
   -6.9330   31.6750   31.5900 C   0  0  0  0  0  0  0  0  0  0  0  0
   -7.0690   32.9470   31.0670 N   0  0  0  0  0  0  0  0  0  0  0  0
   -5.9960   33.7610   31.1140 C   0  0  0  0  0  0  0  0  0  0  0  0
   -4.7660   33.4630   31.6820 C   0  0  0  0  0  0  0  0  0  0  0  0
   -7.9030   30.8900   31.5670 O   0  0  0  0  0  0  0  0  0  0  0  0
   -8.3610   33.3590   30.4630 C   0  0  0  0  0  0  0  0  0  0  0  0
   -6.4710   33.0180   24.8770 C   0  0  0  0  0  0  0  0  0  0  0  0
   -8.1460   33.4560   29.0180 O   0  0  0  0  0  0  0  0  0  0  0  0
   -8.0110   32.1370   28.3850 C   0  0  0  0  0  0  0  0  0  0  0  0
   -8.0160   32.3500   26.8720 C   0  0  0  0  0  0  0  0  0  0  0  0
   -5.0550   30.6790   24.8250 S   0  0  0  0  0  0  0  0  0  0  0  0
   -6.7630   33.1990   26.4010 C   0  0  0  0  0  0  0  0  0  0  0  0
   -5.0780   29.4730   24.1320 O   0  0  0  0  0  0  0  0  0  0  0  0
   -4.8230   30.4180   26.4010 C   0  0  0  0  0  0  0  0  0  0  0  0
   -5.7570   29.5600   27.0010 C   0  0  0  0  0  0  0  0  0  0  0  0
   -5.7300   29.2090   28.3720 C   0  0  0  0  0  0  0  0  0  0  0  0
   -4.7740   29.7850   29.1870 C   0  0  0  0  0  0  0  0  0  0  0  0
   -6.1930   31.6530   24.4080 N   0  0  0  0  0  0  0  0  0  0  0  0
   -3.8520   30.6800   28.5810 C   0  0  0  0  0  0  0  0  0  0  0  0
   -3.9180   31.3580   24.4530 O   0  0  0  0  0  0  0  0  0  0  0  0
   -3.8530   30.9910   27.2150 C   0  0  0  0  0  0  0  0  0  0  0  0
   -5.3010   33.9730   24.5600 C   0  0  0  0  0  0  0  0  0  0  0  0
   -7.7030   33.5400   24.0860 C   0  0  0  0  0  0  0  0  0  0  0  0
   -5.6821   30.3800   32.5500 H   0  0  0  0  0  0  0  0  0  0  0  0
   -6.1060   34.7563   30.6587 H   0  0  0  0  0  0  0  0  0  0  0  0
   -3.9311   34.1777   31.7281 H   0  0  0  0  0  0  0  0  0  0  0  0
   -9.1358   32.6090   30.6802 H   0  0  0  0  0  0  0  0  0  0  0  0
   -8.6981   34.3215   30.8754 H   0  0  0  0  0  0  0  0  0  0  0  0
   -7.0660   31.6669   28.6948 H   0  0  0  0  0  0  0  0  0  0  0  0
   -8.8380   31.4769   28.6857 H   0  0  0  0  0  0  0  0  0  0  0  0
   -7.9918   31.3700   26.3729 H   0  0  0  0  0  0  0  0  0  0  0  0
   -8.9283   32.9032   26.6043 H   0  0  0  0  0  0  0  0  0  0  0  0
   -5.8803   32.8758   26.9723 H   0  0  0  0  0  0  0  0  0  0  0  0
   -6.9865   34.2611   26.5797 H   0  0  0  0  0  0  0  0  0  0  0  0
   -6.5538   29.1370   26.3716 H   0  0  0  0  0  0  0  0  0  0  0  0
   -6.4563   28.4912   28.7811 H   0  0  0  0  0  0  0  0  0  0  0  0
   -4.7287   29.5594   30.2627 H   0  0  0  0  0  0  0  0  0  0  0  0
   -7.0591   31.1334   24.6102 H   0  0  0  0  0  0  0  0  0  0  0  0
   -3.0942   31.1559   29.2208 H   0  0  0  0  0  0  0  0  0  0  0  0
   -3.1010   31.6751   26.7950 H   0  0  0  0  0  0  0  0  0  0  0  0
   -4.8580   34.3346   25.4997 H   0  0  0  0  0  0  0  0  0  0  0  0
   -4.5376   33.4368   23.9772 H   0  0  0  0  0  0  0  0  0  0  0  0
   -5.6735   34.8283   23.9772 H   0  0  0  0  0  0  0  0  0  0  0  0
   -8.4796   33.8690   24.7922 H   0  0  0  0  0  0  0  0  0  0  0  0
   -7.4003   34.3872   23.4530 H   0  0  0  0  0  0  0  0  0  0  0  0
   -8.1010   32.7332   23.4530 H   0  0  0  0  0  0  0  0  0  0  0  0
  1  2  2  0
  2  3  1  0
  2  7  1  0
  3  4  1  0
  4  5  1  0
  4  8  2  0
  5  6  1  0
  5  9  1  0
  6  7  2  0
  9 11  1  0
 10 15  1  0
 10 21  1  0
 10 25  1  0
 10 26  1  0
 11 12  1  0
 12 13  1  0
 13 15  1  0
 14 16  2  0
 14 17  1  0
 14 21  1  0
 14 23  2  0
 17 18  2  0
 17 24  1  0
 18 19  1  0
 19 20  2  0
 20 22  1  0
 22 24  2  0
  3 27  1  0
  6 28  1  0
  7 29  1  0
  9 30  1  0
  9 31  1  0
 12 32  1  0
 12 33  1  0
 13 34  1  0
 13 35  1  0
 15 36  1  0
 15 37  1  0
 18 38  1  0
 19 39  1  0
 20 40  1  0
 21 41  1  0
 22 42  1  0
 24 43  1  0
 25 44  1  0
 25 45  1  0
 25 46  1  0
 26 47  1  0
 26 48  1  0
 26 49  1  0
A    1
O1
A    2
C2
A    3
N3
A    4
C4
A    5
N5
A    6
C6
A    7
C7
A    8
O8
A    9
C9
A   10
C10
A   11
O10
A   12
C11
A   13
C12
A   14
S12
A   15
C13
A   16
O13
A   17
C14
A   18
C15
A   19
C16
A   20
C17
A   21
N17
A   22
C18
A   23
O19
A   24
C20
A   25
C25
A   26
C26
M  END
