3ASX_D99_A_1
     RDKit          3D

 71 73  0  0  0  0  0  0  0  0999 V2000
   17.1720   -3.6090   55.0720 C   0  0  0  0  0  0  0  0  0  0  0  0
   17.7110   -4.4110   56.1220 N   0  0  0  0  0  0  0  0  0  0  0  0
   18.2250   -0.9550   56.5470 O   0  0  0  0  0  0  0  0  0  0  0  0
   20.8020   -3.0400   53.5230 Cl  0  0  0  0  0  0  0  0  0  0  0  0
   16.0590   -4.1290   54.3920 C   0  0  0  0  0  0  0  0  0  0  0  0
   16.6720   -2.1020   60.8980 N   0  0  0  0  0  0  0  0  0  0  0  0
   17.3800   -5.0240   58.2240 O   0  0  0  0  0  0  0  0  0  0  0  0
   15.2160   -1.1440   51.7320 Cl  0  0  0  0  0  0  0  0  0  0  0  0
   15.4900   -3.3920   53.3120 C   0  0  0  0  0  0  0  0  0  0  0  0
   17.6730   -2.0720   58.8660 O   0  0  0  0  0  0  0  0  0  0  0  0
   15.9900   -2.1250   53.0290 C   0  0  0  0  0  0  0  0  0  0  0  0
   13.3240   -2.0530   63.5300 O   0  0  0  0  0  0  0  0  0  0  0  0
   17.1170   -1.6100   53.7100 C   0  0  0  0  0  0  0  0  0  0  0  0
   13.8630   -0.0160   64.1890 O   0  0  0  0  0  0  0  0  0  0  0  0
   17.6860   -2.3480   54.7330 C   0  0  0  0  0  0  0  0  0  0  0  0
   18.8270   -1.7400   55.4850 C   0  0  0  0  0  0  0  0  0  0  0  0
   19.7400   -0.8120   54.7180 C   0  0  0  0  0  0  0  0  0  0  0  0
   20.6910   -1.2910   53.8320 C   0  0  0  0  0  0  0  0  0  0  0  0
   21.5820   -0.4420   53.1940 C   0  0  0  0  0  0  0  0  0  0  0  0
   21.4820    0.9240   53.4140 C   0  0  0  0  0  0  0  0  0  0  0  0
   20.5160    1.4400   54.2820 C   0  0  0  0  0  0  0  0  0  0  0  0
   19.6330    0.5850   54.9270 C   0  0  0  0  0  0  0  0  0  0  0  0
   17.0270   -4.3600   57.2880 C   0  0  0  0  0  0  0  0  0  0  0  0
   15.7980   -3.4450   57.4440 C   0  0  0  0  0  0  0  0  0  0  0  0
   15.5750   -3.1990   58.9680 C   0  0  0  0  0  0  0  0  0  0  0  0
   16.7170   -2.4000   59.5700 C   0  0  0  0  0  0  0  0  0  0  0  0
   15.4230   -2.1920   61.6970 C   0  0  0  0  0  0  0  0  0  0  0  0
   15.5800   -1.4330   63.0240 C   0  0  0  0  0  0  0  0  0  0  0  0
   16.3650   -0.1270   62.7840 C   0  0  0  0  0  0  0  0  0  0  0  0
   17.7540   -0.3790   62.1790 C   0  0  0  0  0  0  0  0  0  0  0  0
   17.9060   -1.8010   61.6380 C   0  0  0  0  0  0  0  0  0  0  0  0
   14.1910   -1.1810   63.5930 C   0  0  0  0  0  0  0  0  0  0  0  0
   18.9500   -5.2230   55.9130 C   0  0  0  0  0  0  0  0  0  0  0  0
   18.7830   -6.6130   55.3220 C   0  0  0  0  0  0  0  0  0  0  0  0
   17.6280   -7.4140   55.9390 C   0  0  0  0  0  0  0  0  0  0  0  0
   20.0960   -7.2870   55.6750 C   0  0  0  0  0  0  0  0  0  0  0  0
   18.6620   -6.5330   53.7790 C   0  0  0  0  0  0  0  0  0  0  0  0
   18.5037   -1.3185   57.4247 H   0  0  0  0  0  0  0  0  0  0  0  0
   15.6296   -5.0969   54.6899 H   0  0  0  0  0  0  0  0  0  0  0  0
   14.6708   -3.8174   52.7137 H   0  0  0  0  0  0  0  0  0  0  0  0
   17.5371   -0.6328   53.4295 H   0  0  0  0  0  0  0  0  0  0  0  0
   13.8453    0.0469   65.1768 H   0  0  0  0  0  0  0  0  0  0  0  0
   19.4685   -2.5774   55.7968 H   0  0  0  0  0  0  0  0  0  0  0  0
   22.3558   -0.8450   52.5241 H   0  0  0  0  0  0  0  0  0  0  0  0
   22.1714    1.6092   52.8990 H   0  0  0  0  0  0  0  0  0  0  0  0
   20.4553    2.5247   54.4543 H   0  0  0  0  0  0  0  0  0  0  0  0
   18.8572    0.9885   55.5943 H   0  0  0  0  0  0  0  0  0  0  0  0
   15.9774   -2.4875   56.9330 H   0  0  0  0  0  0  0  0  0  0  0  0
   14.9099   -3.9161   56.9976 H   0  0  0  0  0  0  0  0  0  0  0  0
   14.6360   -2.6433   59.1078 H   0  0  0  0  0  0  0  0  0  0  0  0
   15.5286   -4.1744   59.4743 H   0  0  0  0  0  0  0  0  0  0  0  0
   14.5936   -1.7521   61.1238 H   0  0  0  0  0  0  0  0  0  0  0  0
   15.2135   -3.2499   61.9137 H   0  0  0  0  0  0  0  0  0  0  0  0
   16.1537   -2.0208   63.7557 H   0  0  0  0  0  0  0  0  0  0  0  0
   15.7899    0.5087   62.0947 H   0  0  0  0  0  0  0  0  0  0  0  0
   16.5085    0.3610   63.7593 H   0  0  0  0  0  0  0  0  0  0  0  0
   17.9142    0.3314   61.3546 H   0  0  0  0  0  0  0  0  0  0  0  0
   18.4972   -0.2436   62.9786 H   0  0  0  0  0  0  0  0  0  0  0  0
   18.0338   -2.5114   62.4681 H   0  0  0  0  0  0  0  0  0  0  0  0
   18.7895   -1.8863   60.9882 H   0  0  0  0  0  0  0  0  0  0  0  0
   19.6074   -4.6545   55.2388 H   0  0  0  0  0  0  0  0  0  0  0  0
   19.3492   -5.3929   56.9238 H   0  0  0  0  0  0  0  0  0  0  0  0
   17.6947   -7.3678   57.0360 H   0  0  0  0  0  0  0  0  0  0  0  0
   16.6690   -6.9861   55.6116 H   0  0  0  0  0  0  0  0  0  0  0  0
   17.6927   -8.4621   55.6116 H   0  0  0  0  0  0  0  0  0  0  0  0
   20.1986   -7.3397   56.7689 H   0  0  0  0  0  0  0  0  0  0  0  0
   20.1104   -8.3040   55.2560 H   0  0  0  0  0  0  0  0  0  0  0  0
   20.9307   -6.7059   55.2560 H   0  0  0  0  0  0  0  0  0  0  0  0
   17.7721   -5.9446   53.5110 H   0  0  0  0  0  0  0  0  0  0  0  0
   19.5594   -6.0496   53.3654 H   0  0  0  0  0  0  0  0  0  0  0  0
   18.5687   -7.5480   53.3654 H   0  0  0  0  0  0  0  0  0  0  0  0
  1  2  1  0
  1  5  2  0
  1 15  1  0
  2 23  1  0
  2 33  1  0
  3 16  1  0
  4 18  1  0
  5  9  1  0
  6 26  1  0
  6 27  1  0
  6 31  1  0
  7 23  2  0
  8 11  1  0
  9 11  2  0
 10 26  2  0
 11 13  1  0
 12 32  2  0
 13 15  2  0
 14 32  1  0
 15 16  1  0
 16 17  1  0
 17 18  2  0
 17 22  1  0
 18 19  1  0
 19 20  2  0
 20 21  1  0
 21 22  2  0
 23 24  1  0
 24 25  1  0
 25 26  1  0
 27 28  1  0
 28 29  1  0
 28 32  1  0
 29 30  1  0
 30 31  1  0
 33 34  1  0
 34 35  1  0
 34 36  1  0
 34 37  1  0
  3 38  1  0
  5 39  1  0
  9 40  1  0
 13 41  1  0
 14 42  1  0
 16 43  1  0
 19 44  1  0
 20 45  1  0
 21 46  1  0
 22 47  1  0
 24 48  1  0
 24 49  1  0
 25 50  1  0
 25 51  1  0
 27 52  1  0
 27 53  1  0
 28 54  1  0
 29 55  1  0
 29 56  1  0
 30 57  1  0
 30 58  1  0
 31 59  1  0
 31 60  1  0
 33 61  1  0
 33 62  1  0
 35 63  1  0
 35 64  1  0
 35 65  1  0
 36 66  1  0
 36 67  1  0
 36 68  1  0
 37 69  1  0
 37 70  1  0
 37 71  1  0
A    1
C1
A    2
N1
A    3
O1
A    4
CL1
A    5
C2
A    6
N2
A    7
O2
A    8
CL2
A    9
C3
A   10
O3
A   11
C4
A   12
O4
A   13
C5
A   14
O5
A   15
C6
A   16
C7
A   17
C8
A   18
C9
A   19
C10
A   20
C11
A   21
C12
A   22
C13
A   23
C14
A   24
C15
A   25
C16
A   26
C17
A   27
C18
A   28
C19
A   29
C20
A   30
C21
A   31
C22
A   32
C23
A   33
C24
A   34
C25
A   35
C26
A   36
C27
A   37
C28
M  END
