3AT3_ATK_A_336
     RDKit          3D

 52 56  0  0  0  0  0  0  0  0999 V2000
   50.7070    9.0770   10.3080 N   0  0  0  0  0  0  0  0  0  0  0  0
   51.1820   10.5950   12.5270 N   0  0  0  0  0  0  0  0  0  0  0  0
   50.9090   10.3790   10.1850 C   0  0  0  0  0  0  0  0  0  0  0  0
   51.1610   11.1710   11.3370 C   0  0  0  0  0  0  0  0  0  0  0  0
   51.3890   12.5240   11.2580 N   0  0  0  0  0  0  0  0  0  0  0  0
   50.9650    9.2950   12.6540 C   0  0  0  0  0  0  0  0  0  0  0  0
   50.7220    8.5000   11.4980 C   0  0  0  0  0  0  0  0  0  0  0  0
   50.9800    8.7840   13.9160 N   0  0  0  0  0  0  0  0  0  0  0  0
   51.4410   13.4500   12.2460 C   0  0  0  0  0  0  0  0  0  0  0  0
   51.6370   14.7150   11.6760 C   0  0  0  0  0  0  0  0  0  0  0  0
   51.5590   13.0890   10.1690 N   0  0  0  0  0  0  0  0  0  0  0  0
   51.7030   14.4100   10.3080 C   0  0  0  0  0  0  0  0  0  0  0  0
   51.4110    9.2640   15.2110 C   0  0  0  0  0  0  0  0  0  0  0  0
   51.5350    8.2860   16.2000 C   0  0  0  0  0  0  0  0  0  0  0  0
   51.1450    7.0800   15.6130 C   0  0  0  0  0  0  0  0  0  0  0  0
   50.5860    7.4710   14.4010 C   0  0  0  0  0  0  0  0  0  0  0  0
   51.7280   15.9160   12.3670 C   0  0  0  0  0  0  0  0  0  0  0  0
   51.3810   14.5970   15.7500 N   0  0  0  0  0  0  0  0  0  0  0  0
   51.6270   15.8270   13.7670 C   0  0  0  0  0  0  0  0  0  0  0  0
   51.4500   14.5700   14.4040 C   0  0  0  0  0  0  0  0  0  0  0  0
   51.3440   13.3550   13.6510 C   0  0  0  0  0  0  0  0  0  0  0  0
   51.6300   13.3940   16.5550 C   0  0  0  0  0  0  0  0  0  0  0  0
   50.3000   12.9860   17.1940 C   0  0  0  0  0  0  0  0  0  0  0  0
   50.3650   13.6850   18.5530 C   0  0  0  0  0  0  0  0  0  0  0  0
   51.6650   14.5020   18.6430 C   0  0  0  0  0  0  0  0  0  0  0  0
   52.5760   13.7260   17.7250 C   0  0  0  0  0  0  0  0  0  0  0  0
   50.8260    8.6910   19.6960 O   0  0  0  0  0  0  0  0  0  0  0  0
   50.1080    7.1470   18.3800 O   0  0  0  0  0  0  0  0  0  0  0  0
   51.9820    8.4470   17.6220 C   0  0  0  0  0  0  0  0  0  0  0  0
   50.8880    8.0680   18.6450 C   0  0  0  0  0  0  0  0  0  0  0  0
   50.8818   10.8481    9.1904 H   0  0  0  0  0  0  0  0  0  0  0  0
   50.5487    7.4180   11.5936 H   0  0  0  0  0  0  0  0  0  0  0  0
   51.8481   15.1329    9.4917 H   0  0  0  0  0  0  0  0  0  0  0  0
   51.6261   10.3255   15.4032 H   0  0  0  0  0  0  0  0  0  0  0  0
   51.2542    6.0617   16.0144 H   0  0  0  0  0  0  0  0  0  0  0  0
   49.8893    6.8272   13.8441 H   0  0  0  0  0  0  0  0  0  0  0  0
   51.8702   16.8773   11.8515 H   0  0  0  0  0  0  0  0  0  0  0  0
   51.1484   15.4811   16.2246 H   0  0  0  0  0  0  0  0  0  0  0  0
   51.6858   16.7414   14.3756 H   0  0  0  0  0  0  0  0  0  0  0  0
   51.1929   12.3858   14.1489 H   0  0  0  0  0  0  0  0  0  0  0  0
   52.0624   12.6113   15.9143 H   0  0  0  0  0  0  0  0  0  0  0  0
   49.4460   13.3457   16.6012 H   0  0  0  0  0  0  0  0  0  0  0  0
   50.1601   11.8972   17.2643 H   0  0  0  0  0  0  0  0  0  0  0  0
   49.5007   14.3566   18.6625 H   0  0  0  0  0  0  0  0  0  0  0  0
   50.3463   12.9328   19.3554 H   0  0  0  0  0  0  0  0  0  0  0  0
   51.5174   15.5317   18.2853 H   0  0  0  0  0  0  0  0  0  0  0  0
   52.0522   14.6150   19.6664 H   0  0  0  0  0  0  0  0  0  0  0  0
   52.9503   12.8123   18.2098 H   0  0  0  0  0  0  0  0  0  0  0  0
   53.4814   14.2744   17.4258 H   0  0  0  0  0  0  0  0  0  0  0  0
   49.6767    6.6377   19.1113 H   0  0  0  0  0  0  0  0  0  0  0  0
   52.8572    7.8021   17.7895 H   0  0  0  0  0  0  0  0  0  0  0  0
   52.2204    9.5101   17.7737 H   0  0  0  0  0  0  0  0  0  0  0  0
  1  3  2  0
  1  7  1  0
  2  4  2  0
  2  6  1  0
  3  4  1  0
  4  5  1  0
  5  9  1  0
  5 11  1  0
  6  7  2  0
  6  8  1  0
  8 13  1  0
  8 16  1  0
  9 10  2  0
  9 21  1  0
 10 12  1  0
 10 17  1  0
 11 12  2  0
 13 14  2  0
 14 15  1  0
 14 29  1  0
 15 16  2  0
 17 19  2  0
 18 20  1  0
 18 22  1  0
 19 20  1  0
 20 21  2  0
 22 23  1  0
 22 26  1  0
 23 24  1  0
 24 25  1  0
 25 26  1  0
 27 30  2  0
 28 30  1  0
 29 30  1  0
  3 31  1  0
  7 32  1  0
 12 33  1  0
 13 34  1  0
 15 35  1  0
 16 36  1  0
 17 37  1  0
 18 38  1  0
 19 39  1  0
 21 40  1  0
 22 41  1  0
 23 42  1  0
 23 43  1  0
 24 44  1  0
 24 45  1  0
 25 46  1  0
 25 47  1  0
 26 48  1  0
 26 49  1  0
 28 50  1  0
 29 51  1  0
 29 52  1  0
A    1
N1
A    2
N4
A    3
C11
A    4
C12
A    5
N13
A    6
C14
A    7
C15
A    8
N15
A    9
C17
A   10
C18
A   11
N20
A   12
C28
A   13
C35
A   14
C36
A   15
C37
A   16
C38
A   17
C44
A   18
N44
A   19
C45
A   20
C46
A   21
C47
A   22
C48
A   23
C57
A   24
C58
A   25
C59
A   26
C60
A   27
O61
A   28
O63
A   29
C66
A   30
C68
M  END
