3AUN_YR4_A_1
     RDKit          3D

 78 79  0  0  0  0  0  0  0  0999 V2000
  -11.1230   11.2190   -9.5060 C   0  0  0  0  0  0  0  0  0  0  0  0
   -9.9970   11.7650  -10.1350 C   0  0  0  0  0  0  0  0  0  0  0  0
   -9.4020   11.0520  -11.1770 C   0  0  0  0  0  0  0  0  0  0  0  0
  -10.0220    9.7670  -11.6310 C   0  0  0  0  0  0  0  0  0  0  0  0
  -11.1310    9.2920  -10.9730 C   0  0  0  0  0  0  0  0  0  0  0  0
  -11.7010    9.9800   -9.8860 C   0  0  0  0  0  0  0  0  0  0  0  0
  -12.9580    9.4110   -9.2440 C   0  0  0  0  0  0  0  0  0  0  0  0
  -13.1970    9.7720   -7.7670 C   0  0  0  0  0  0  0  0  0  0  0  0
  -12.1000    9.8520   -6.8870 C   0  0  0  0  0  0  0  0  0  0  0  0
  -14.4990   10.0190   -7.2610 C   0  0  0  0  0  0  0  0  0  0  0  0
  -14.7050   10.3430   -5.9200 C   0  0  0  0  0  0  0  0  0  0  0  0
  -13.5300   10.4030   -5.0240 C   0  0  0  0  0  0  0  0  0  0  0  0
  -12.2500   10.1620   -5.5420 C   0  0  0  0  0  0  0  0  0  0  0  0
  -13.0570    7.8720   -9.3620 C   0  0  0  0  0  0  0  0  0  0  0  0
  -12.0210    7.0290   -8.6240 C   0  0  0  0  0  0  0  0  0  0  0  0
  -14.1090    9.9330  -10.1330 C   0  0  0  0  0  0  0  0  0  0  0  0
  -14.2460   11.4540  -10.1670 C   0  0  0  0  0  0  0  0  0  0  0  0
   -9.4160    8.9660  -12.7720 C   0  0  0  0  0  0  0  0  0  0  0  0
  -16.0820   10.6190   -5.3540 C   0  0  0  0  0  0  0  0  0  0  0  0
  -13.7010   10.7170   -3.7020 O   0  0  0  0  0  0  0  0  0  0  0  0
   -8.3210   11.5550  -11.8400 O   0  0  0  0  0  0  0  0  0  0  0  0
  -12.5800   11.0480   -2.8860 C   0  0  0  0  0  0  0  0  0  0  0  0
  -13.0580   11.2910   -1.4490 C   0  0  0  0  0  0  0  0  0  0  0  0
  -11.9120   11.7370   -0.5360 C   0  0  0  0  0  0  0  0  0  0  0  0
  -14.1720   12.2220   -1.4250 O   0  0  0  0  0  0  0  0  0  0  0  0
  -12.4480   11.5930    0.8800 C   0  0  0  0  0  0  0  0  0  0  0  0
  -11.4930   13.1830   -0.7970 C   0  0  0  0  0  0  0  0  0  0  0  0
  -10.6750   10.8500   -0.6630 C   0  0  0  0  0  0  0  0  0  0  0  0
   -8.6690   12.1540  -13.1060 C   0  0  0  0  0  0  0  0  0  0  0  0
   -7.4620   12.2870  -14.0180 C   0  0  0  0  0  0  0  0  0  0  0  0
   -9.4440   13.4790  -12.9130 C   0  0  0  0  0  0  0  0  0  0  0  0
   -7.3570   11.0330  -14.9070 C   0  0  0  0  0  0  0  0  0  0  0  0
   -8.5690   14.4440  -12.3610 O   0  0  0  0  0  0  0  0  0  0  0  0
   -8.4980   10.8940  -15.7820 O   0  0  0  0  0  0  0  0  0  0  0  0
  -11.5817   11.7779   -8.6770 H   0  0  0  0  0  0  0  0  0  0  0  0
   -9.5901   12.7354   -9.8145 H   0  0  0  0  0  0  0  0  0  0  0  0
  -11.5859    8.3473  -11.3055 H   0  0  0  0  0  0  0  0  0  0  0  0
  -11.0898    9.6624   -7.2789 H   0  0  0  0  0  0  0  0  0  0  0  0
  -15.3627    9.9538   -7.9391 H   0  0  0  0  0  0  0  0  0  0  0  0
  -11.3687   10.2182   -4.8861 H   0  0  0  0  0  0  0  0  0  0  0  0
  -14.0473    7.5780   -8.9841 H   0  0  0  0  0  0  0  0  0  0  0  0
  -12.8716    7.6655  -10.4264 H   0  0  0  0  0  0  0  0  0  0  0  0
  -12.1611    7.1430   -7.5389 H   0  0  0  0  0  0  0  0  0  0  0  0
  -12.1444    5.9715   -8.9005 H   0  0  0  0  0  0  0  0  0  0  0  0
  -11.0107    7.3648   -8.9005 H   0  0  0  0  0  0  0  0  0  0  0  0
  -13.9356    9.5810  -11.1606 H   0  0  0  0  0  0  0  0  0  0  0  0
  -15.0411    9.5455   -9.6959 H   0  0  0  0  0  0  0  0  0  0  0  0
  -14.2810   11.8421   -9.1383 H   0  0  0  0  0  0  0  0  0  0  0  0
  -13.3833   11.8882  -10.6936 H   0  0  0  0  0  0  0  0  0  0  0  0
  -15.1724   11.7270  -10.6936 H   0  0  0  0  0  0  0  0  0  0  0  0
   -8.8002    8.1520  -12.3620 H   0  0  0  0  0  0  0  0  0  0  0  0
  -10.2209    8.5413  -13.3899 H   0  0  0  0  0  0  0  0  0  0  0  0
   -8.7884    9.6251  -13.3899 H   0  0  0  0  0  0  0  0  0  0  0  0
  -16.0353   10.6096   -4.2550 H   0  0  0  0  0  0  0  0  0  0  0  0
  -16.4290   11.6046   -5.6979 H   0  0  0  0  0  0  0  0  0  0  0  0
  -16.7820    9.8433   -5.6979 H   0  0  0  0  0  0  0  0  0  0  0  0
  -11.8579   10.2183   -2.8984 H   0  0  0  0  0  0  0  0  0  0  0  0
  -12.0956   11.9564   -3.2735 H   0  0  0  0  0  0  0  0  0  0  0  0
  -13.4203   10.3330   -1.0476 H   0  0  0  0  0  0  0  0  0  0  0  0
  -14.4133   12.4237   -0.4863 H   0  0  0  0  0  0  0  0  0  0  0  0
  -11.6447   11.8088    1.5998 H   0  0  0  0  0  0  0  0  0  0  0  0
  -13.2765   12.3004    1.0322 H   0  0  0  0  0  0  0  0  0  0  0  0
  -12.8104   10.5656    1.0322 H   0  0  0  0  0  0  0  0  0  0  0  0
  -11.3431   13.7002    0.1622 H   0  0  0  0  0  0  0  0  0  0  0  0
  -10.5544   13.1950   -1.3706 H   0  0  0  0  0  0  0  0  0  0  0  0
  -12.2798   13.6949   -1.3706 H   0  0  0  0  0  0  0  0  0  0  0  0
  -10.3080   10.5868    0.3400 H   0  0  0  0  0  0  0  0  0  0  0  0
  -10.9365    9.9323   -1.2102 H   0  0  0  0  0  0  0  0  0  0  0  0
   -9.8897   11.3921   -1.2102 H   0  0  0  0  0  0  0  0  0  0  0  0
   -9.3591   11.4717  -13.6239 H   0  0  0  0  0  0  0  0  0  0  0  0
   -7.5765   13.1786  -14.6519 H   0  0  0  0  0  0  0  0  0  0  0  0
   -6.5500   12.3868  -13.4112 H   0  0  0  0  0  0  0  0  0  0  0  0
   -9.8186   13.8329  -13.8848 H   0  0  0  0  0  0  0  0  0  0  0  0
  -10.2964   13.3177  -12.2366 H   0  0  0  0  0  0  0  0  0  0  0  0
   -6.4464   11.1070  -15.5196 H   0  0  0  0  0  0  0  0  0  0  0  0
   -7.3231   10.1518  -14.2495 H   0  0  0  0  0  0  0  0  0  0  0  0
   -8.6095   14.3993  -11.3728 H   0  0  0  0  0  0  0  0  0  0  0  0
   -9.3199   10.7939  -15.2392 H   0  0  0  0  0  0  0  0  0  0  0  0
  1  2  2  0
  1  6  1  0
  2  3  1  0
  3  4  2  0
  3 21  1  0
  4  5  1  0
  4 18  1  0
  5  6  2  0
  6  7  1  0
  7  8  1  0
  7 14  1  0
  7 16  1  0
  8  9  2  0
  8 10  1  0
  9 13  1  0
 10 11  2  0
 11 12  1  0
 11 19  1  0
 12 13  2  0
 12 20  1  0
 14 15  1  0
 16 17  1  0
 20 22  1  0
 21 29  1  0
 22 23  1  0
 23 24  1  0
 23 25  1  0
 24 26  1  0
 24 27  1  0
 24 28  1  0
 29 30  1  0
 29 31  1  0
 30 32  1  0
 31 33  1  0
 32 34  1  0
  1 35  1  0
  2 36  1  0
  5 37  1  0
  9 38  1  0
 10 39  1  0
 13 40  1  0
 14 41  1  0
 14 42  1  0
 15 43  1  0
 15 44  1  0
 15 45  1  0
 16 46  1  0
 16 47  1  0
 17 48  1  0
 17 49  1  0
 17 50  1  0
 18 51  1  0
 18 52  1  0
 18 53  1  0
 19 54  1  0
 19 55  1  0
 19 56  1  0
 22 57  1  0
 22 58  1  0
 23 59  1  0
 25 60  1  0
 26 61  1  0
 26 62  1  0
 26 63  1  0
 27 64  1  0
 27 65  1  0
 27 66  1  0
 28 67  1  0
 28 68  1  0
 28 69  1  0
 29 70  1  0
 30 71  1  0
 30 72  1  0
 31 73  1  0
 31 74  1  0
 32 75  1  0
 32 76  1  0
 33 77  1  0
 34 78  1  0
A    1
C1
A    2
C2
A    3
C3
A    4
C4
A    5
C5
A    6
C6
A    7
C7
A    8
C8
A    9
C9
A   10
C10
A   11
C11
A   12
C12
A   13
C13
A   14
C14
A   15
C15
A   16
C16
A   17
C17
A   18
C18
A   19
C19
A   20
O20
A   21
O21
A   22
C22
A   23
C23
A   24
C24
A   25
O25
A   26
C26
A   27
C27
A   28
C28
A   29
C29
A   30
C30
A   31
C31
A   32
C32
A   33
O33
A   34
O34
M  END
