3AUQ_CA9_A_1
     RDKit          3D

 72 74  0  0  0  0  0  0  0  0999 V2000
  -13.1120   -3.3470   32.9570 C   0  0  0  0  0  0  0  0  0  0  0  0
  -12.5430   -0.5620   33.3090 C   0  0  0  0  0  0  0  0  0  0  0  0
  -13.2680   -1.3110   34.4270 C   0  0  0  0  0  0  0  0  0  0  0  0
  -13.7100   -2.6830   33.9640 C   0  0  0  0  0  0  0  0  0  0  0  0
  -11.4540   -1.3800   32.6230 C   0  0  0  0  0  0  0  0  0  0  0  0
  -11.9220   -2.7820   32.1990 C   0  0  0  0  0  0  0  0  0  0  0  0
  -12.1850   -2.7340   30.6950 C   0  0  0  0  0  0  0  0  0  0  0  0
  -11.3340   -1.5920   30.1510 C   0  0  0  0  0  0  0  0  0  0  0  0
  -11.0600   -0.6470   31.3280 C   0  0  0  0  0  0  0  0  0  0  0  0
  -10.2870   -1.5460   33.5990 C   0  0  0  0  0  0  0  0  0  0  0  0
   -9.6800    0.0520   31.2850 C   0  0  0  0  0  0  0  0  0  0  0  0
   -9.7140    1.2440   30.3270 C   0  0  0  0  0  0  0  0  0  0  0  0
   -8.4760   -0.8400   30.9650 C   0  0  0  0  0  0  0  0  0  0  0  0
   -7.2300   -0.3630   31.7160 C   0  0  0  0  0  0  0  0  0  0  0  0
   -6.0330   -1.2840   31.4830 C   0  0  0  0  0  0  0  0  0  0  0  0
   -4.7280   -0.7990   32.1130 C   0  0  0  0  0  0  0  0  0  0  0  0
   -4.8760   -0.5300   33.6040 C   0  0  0  0  0  0  0  0  0  0  0  0
   -3.6350   -1.8340   31.8930 C   0  0  0  0  0  0  0  0  0  0  0  0
   -4.3150    0.4150   31.4760 O   0  0  0  0  0  0  0  0  0  0  0  0
  -13.5510   -4.4940   32.6670 C   0  0  0  0  0  0  0  0  0  0  0  0
  -13.9080   -5.5870   32.3730 C   0  0  0  0  0  0  0  0  0  0  0  0
  -14.2840   -6.7510   32.0620 C   0  0  0  0  0  0  0  0  0  0  0  0
  -15.2460   -7.4740   32.9890 C   0  0  0  0  0  0  0  0  0  0  0  0
  -15.8800   -8.7200   32.3620 C   0  0  0  0  0  0  0  0  0  0  0  0
  -14.9190   -9.5490   31.4980 C   0  0  0  0  0  0  0  0  0  0  0  0
  -14.2010   -8.6970   30.4350 C   0  0  0  0  0  0  0  0  0  0  0  0
  -13.8140   -7.3130   30.9310 C   0  0  0  0  0  0  0  0  0  0  0  0
  -17.0060   -8.3240   31.5640 O   0  0  0  0  0  0  0  0  0  0  0  0
  -13.0540   -9.3800   29.9070 O   0  0  0  0  0  0  0  0  0  0  0  0
  -13.9720  -10.3990   32.3490 C   0  0  0  0  0  0  0  0  0  0  0  0
  -13.2845   -0.2680   32.5515 H   0  0  0  0  0  0  0  0  0  0  0  0
  -12.0478    0.3036   33.7732 H   0  0  0  0  0  0  0  0  0  0  0  0
  -12.5883   -1.4226   35.2846 H   0  0  0  0  0  0  0  0  0  0  0  0
  -14.1596   -0.7342   34.7139 H   0  0  0  0  0  0  0  0  0  0  0  0
  -14.5598   -3.1598   34.4744 H   0  0  0  0  0  0  0  0  0  0  0  0
  -11.1187   -3.4873   32.4583 H   0  0  0  0  0  0  0  0  0  0  0  0
  -11.8920   -3.6849   30.2260 H   0  0  0  0  0  0  0  0  0  0  0  0
  -13.2521   -2.5768   30.4794 H   0  0  0  0  0  0  0  0  0  0  0  0
  -10.3871   -1.9826   29.7500 H   0  0  0  0  0  0  0  0  0  0  0  0
  -11.8514   -1.0672   29.3344 H   0  0  0  0  0  0  0  0  0  0  0  0
  -11.6980    0.2468   31.2635 H   0  0  0  0  0  0  0  0  0  0  0  0
  -10.6622   -1.4926   34.6316 H   0  0  0  0  0  0  0  0  0  0  0  0
   -9.8065   -2.5215   33.4334 H   0  0  0  0  0  0  0  0  0  0  0  0
   -9.5535   -0.7432   33.4334 H   0  0  0  0  0  0  0  0  0  0  0  0
   -9.5153    0.3791   32.3223 H   0  0  0  0  0  0  0  0  0  0  0  0
   -9.7407    2.1790   30.9059 H   0  0  0  0  0  0  0  0  0  0  0  0
   -8.8151    1.2307   29.6931 H   0  0  0  0  0  0  0  0  0  0  0  0
  -10.6107    1.1795   29.6931 H   0  0  0  0  0  0  0  0  0  0  0  0
   -8.7036   -1.8737   31.2643 H   0  0  0  0  0  0  0  0  0  0  0  0
   -8.2770   -0.7888   29.8844 H   0  0  0  0  0  0  0  0  0  0  0  0
   -6.9723    0.6487   31.3696 H   0  0  0  0  0  0  0  0  0  0  0  0
   -7.4589   -0.3692   32.7919 H   0  0  0  0  0  0  0  0  0  0  0  0
   -6.2720   -2.2714   31.9049 H   0  0  0  0  0  0  0  0  0  0  0  0
   -5.8650   -1.3097   30.3962 H   0  0  0  0  0  0  0  0  0  0  0  0
   -4.4220   -1.3552   34.1723 H   0  0  0  0  0  0  0  0  0  0  0  0
   -4.3696    0.4127   33.8585 H   0  0  0  0  0  0  0  0  0  0  0  0
   -5.9434   -0.4532   33.8585 H   0  0  0  0  0  0  0  0  0  0  0  0
   -3.2627   -2.1866   32.8662 H   0  0  0  0  0  0  0  0  0  0  0  0
   -4.0436   -2.6841   31.3269 H   0  0  0  0  0  0  0  0  0  0  0  0
   -2.8085   -1.3798   31.3269 H   0  0  0  0  0  0  0  0  0  0  0  0
   -4.0861    1.0879   32.1651 H   0  0  0  0  0  0  0  0  0  0  0  0
  -14.6962   -7.7798   33.8913 H   0  0  0  0  0  0  0  0  0  0  0  0
  -16.0640   -6.7743   33.2155 H   0  0  0  0  0  0  0  0  0  0  0  0
  -16.1813   -9.3676   33.1986 H   0  0  0  0  0  0  0  0  0  0  0  0
  -15.5296  -10.2648   30.9281 H   0  0  0  0  0  0  0  0  0  0  0  0
  -14.9325   -8.5492   29.6269 H   0  0  0  0  0  0  0  0  0  0  0  0
  -13.1027   -6.7314   30.3262 H   0  0  0  0  0  0  0  0  0  0  0  0
  -17.7542   -8.0609   32.1565 H   0  0  0  0  0  0  0  0  0  0  0  0
  -12.4954   -9.7126   30.6536 H   0  0  0  0  0  0  0  0  0  0  0  0
  -14.1742  -10.2175   33.4149 H   0  0  0  0  0  0  0  0  0  0  0  0
  -14.1306  -11.4635   32.1218 H   0  0  0  0  0  0  0  0  0  0  0  0
  -12.9307  -10.1267   32.1218 H   0  0  0  0  0  0  0  0  0  0  0  0
  1  4  2  0
  1  6  1  0
  1 20  1  0
  2  3  1  0
  2  5  1  0
  3  4  1  0
  5  6  1  0
  5  9  1  0
  5 10  1  0
  6  7  1  0
  7  8  1  0
  8  9  1  0
  9 11  1  0
 11 12  1  0
 11 13  1  0
 13 14  1  0
 14 15  1  0
 15 16  1  0
 16 17  1  0
 16 18  1  0
 16 19  1  0
 20 21  3  0
 21 22  1  0
 22 23  1  0
 22 27  2  0
 23 24  1  0
 24 25  1  0
 24 28  1  0
 25 26  1  0
 25 30  1  0
 26 27  1  0
 26 29  1  0
  2 31  1  0
  2 32  1  0
  3 33  1  0
  3 34  1  0
  4 35  1  0
  6 36  1  0
  7 37  1  0
  7 38  1  0
  8 39  1  0
  8 40  1  0
  9 41  1  0
 10 42  1  0
 10 43  1  0
 10 44  1  0
 11 45  1  0
 12 46  1  0
 12 47  1  0
 12 48  1  0
 13 49  1  0
 13 50  1  0
 14 51  1  0
 14 52  1  0
 15 53  1  0
 15 54  1  0
 17 55  1  0
 17 56  1  0
 17 57  1  0
 18 58  1  0
 18 59  1  0
 18 60  1  0
 19 61  1  0
 23 62  1  0
 23 63  1  0
 24 64  1  0
 25 65  1  0
 26 66  1  0
 27 67  1  0
 28 68  1  0
 29 69  1  0
 30 70  1  0
 30 71  1  0
 30 72  1  0
A    1
C1
A    2
C2
A    3
C3
A    4
C4
A    5
C5
A    6
C6
A    7
C7
A    8
C8
A    9
C9
A   10
C10
A   11
C12
A   12
C13
A   13
C14
A   14
C15
A   15
C16
A   16
C17
A   17
C18
A   18
C19
A   19
O20
A   20
C21
A   21
C22
A   22
C23
A   23
C24
A   24
C25
A   25
C26
A   26
C27
A   27
C28
A   28
O29
A   29
O30
A   30
C31
M  END
