3AVQ_MV1_A_313
     RDKit          3D

 60 59  0  0  0  0  0  0  0  0999 V2000
   59.7010   38.4080   -1.0740 C   0  0  0  0  0  0  0  0  0  0  0  0
   58.7890   38.1860    1.7800 N   0  0  0  0  0  0  0  0  0  0  0  0
   61.2100   35.6260    2.6980 C   0  0  0  0  0  0  0  0  0  0  0  0
   61.4700   34.6360    3.8410 C   0  0  0  0  0  0  0  0  0  0  0  0
   62.7200   33.9680    3.6510 O   0  0  0  0  0  0  0  0  0  0  0  0
   62.4550   36.4860    2.4680 C   0  0  0  0  0  0  0  0  0  0  0  0
   60.8830   34.8390    1.4260 C   0  0  0  0  0  0  0  0  0  0  0  0
   59.9890   36.4920    3.0350 C   0  0  0  0  0  0  0  0  0  0  0  0
   59.9710   37.8540    2.3150 C   0  0  0  0  0  0  0  0  0  0  0  0
   58.6460   39.4510    1.0480 C   0  0  0  0  0  0  0  0  0  0  0  0
   58.5230   39.1670   -0.4520 C   0  0  0  0  0  0  0  0  0  0  0  0
   59.6620   37.0760   -1.0560 N   0  0  0  0  0  0  0  0  0  0  0  0
   60.7590   36.3200   -1.6740 C   0  0  0  0  0  0  0  0  0  0  0  0
   60.2470   34.9710   -2.1940 C   0  0  0  0  0  0  0  0  0  0  0  0
   61.0170   34.5860   -3.4590 C   0  0  0  0  0  0  0  0  0  0  0  0
   60.9900   35.6660   -4.5470 C   0  0  0  0  0  0  0  0  0  0  0  0
   59.6810   35.7440   -5.3420 C   0  0  0  0  0  0  0  0  0  0  0  0
   58.4870   35.7160   -4.3870 C   0  0  0  0  0  0  0  0  0  0  0  0
   57.5650   36.9360   -4.4420 C   0  0  0  0  0  0  0  0  0  0  0  0
   56.5550   36.7860   -3.3010 C   0  0  0  0  0  0  0  0  0  0  0  0
   56.0680   38.1230   -2.7380 C   0  0  0  0  0  0  0  0  0  0  0  0
   60.5970   39.0280   -1.6430 O   0  0  0  0  0  0  0  0  0  0  0  0
   58.8040   35.7800    2.6710 O   0  0  0  0  0  0  0  0  0  0  0  0
   60.9560   38.5660    2.2520 O   0  0  0  0  0  0  0  0  0  0  0  0
   57.9813   37.5549    1.8818 H   0  0  0  0  0  0  0  0  0  0  0  0
   61.4933   35.1828    4.7952 H   0  0  0  0  0  0  0  0  0  0  0  0
   60.6647   33.8868    3.8525 H   0  0  0  0  0  0  0  0  0  0  0  0
   63.1178   33.7554    4.5323 H   0  0  0  0  0  0  0  0  0  0  0  0
   62.8815   36.7806    3.4382 H   0  0  0  0  0  0  0  0  0  0  0  0
   63.1996   35.9088    1.9002 H   0  0  0  0  0  0  0  0  0  0  0  0
   62.1787   37.3867    1.9002 H   0  0  0  0  0  0  0  0  0  0  0  0
   60.4741   33.8549    1.6986 H   0  0  0  0  0  0  0  0  0  0  0  0
   60.1406   35.3930    0.8328 H   0  0  0  0  0  0  0  0  0  0  0  0
   61.7994   34.7037    0.8328 H   0  0  0  0  0  0  0  0  0  0  0  0
   60.0404   36.6966    4.1146 H   0  0  0  0  0  0  0  0  0  0  0  0
   57.7439   39.9753    1.3963 H   0  0  0  0  0  0  0  0  0  0  0  0
   59.5307   40.0792    1.2290 H   0  0  0  0  0  0  0  0  0  0  0  0
   58.4263   40.1307   -0.9735 H   0  0  0  0  0  0  0  0  0  0  0  0
   57.6456   38.5136   -0.5669 H   0  0  0  0  0  0  0  0  0  0  0  0
   58.8727   36.5831   -0.6144 H   0  0  0  0  0  0  0  0  0  0  0  0
   61.1720   36.8995   -2.5128 H   0  0  0  0  0  0  0  0  0  0  0  0
   61.5399   36.1406   -0.9203 H   0  0  0  0  0  0  0  0  0  0  0  0
   60.3980   34.2001   -1.4240 H   0  0  0  0  0  0  0  0  0  0  0  0
   59.1751   35.0512   -2.4276 H   0  0  0  0  0  0  0  0  0  0  0  0
   62.0649   34.3958   -3.1838 H   0  0  0  0  0  0  0  0  0  0  0  0
   60.5257   33.6950   -3.8769 H   0  0  0  0  0  0  0  0  0  0  0  0
   61.1570   36.6410   -4.0658 H   0  0  0  0  0  0  0  0  0  0  0  0
   61.7757   35.3986   -5.2689 H   0  0  0  0  0  0  0  0  0  0  0  0
   59.6620   36.6786   -5.9218 H   0  0  0  0  0  0  0  0  0  0  0  0
   59.6197   34.8818   -6.0224 H   0  0  0  0  0  0  0  0  0  0  0  0
   57.8851   34.8264   -4.6244 H   0  0  0  0  0  0  0  0  0  0  0  0
   58.9138   35.7080   -3.3732 H   0  0  0  0  0  0  0  0  0  0  0  0
   58.1502   37.8580   -4.3097 H   0  0  0  0  0  0  0  0  0  0  0  0
   57.0531   36.9975   -5.4137 H   0  0  0  0  0  0  0  0  0  0  0  0
   55.6845   36.2288   -3.6774 H   0  0  0  0  0  0  0  0  0  0  0  0
   57.0665   36.2573   -2.4832 H   0  0  0  0  0  0  0  0  0  0  0  0
   56.0819   38.0848   -1.6387 H   0  0  0  0  0  0  0  0  0  0  0  0
   56.7299   38.9300   -3.0853 H   0  0  0  0  0  0  0  0  0  0  0  0
   55.0421   38.3152   -3.0853 H   0  0  0  0  0  0  0  0  0  0  0  0
   58.3267   35.4932    3.4896 H   0  0  0  0  0  0  0  0  0  0  0  0
  1 11  1  0
  1 12  1  0
  1 22  2  0
  2  9  1  0
  2 10  1  0
  3  4  1  0
  3  6  1  0
  3  7  1  0
  3  8  1  0
  4  5  1  0
  8  9  1  0
  8 23  1  0
  9 24  2  0
 10 11  1  0
 12 13  1  0
 13 14  1  0
 14 15  1  0
 15 16  1  0
 16 17  1  0
 17 18  1  0
 18 19  1  0
 19 20  1  0
 20 21  1  0
  2 25  1  0
  4 26  1  0
  4 27  1  0
  5 28  1  0
  6 29  1  0
  6 30  1  0
  6 31  1  0
  7 32  1  0
  7 33  1  0
  7 34  1  0
  8 35  1  0
 10 36  1  0
 10 37  1  0
 11 38  1  0
 11 39  1  0
 12 40  1  0
 13 41  1  0
 13 42  1  0
 14 43  1  0
 14 44  1  0
 15 45  1  0
 15 46  1  0
 16 47  1  0
 16 48  1  0
 17 49  1  0
 17 50  1  0
 18 51  1  0
 18 52  1  0
 19 53  1  0
 19 54  1  0
 20 55  1  0
 20 56  1  0
 21 57  1  0
 21 58  1  0
 21 59  1  0
 23 60  1  0
A    1
C
A    2
N
A    3
C1
A    4
C2
A    5
O2
A    6
C3
A    7
C4
A    8
C5
A    9
C6
A   10
C8
A   11
C9
A   12
N15
A   13
C16
A   14
C17
A   15
C18
A   16
C19
A   17
C20
A   18
C21
A   19
C22
A   20
C23
A   21
C24
A   22
O25
A   23
O5'
A   24
O6'
M  END
