2W54_XAX_B_1778
     RDKit          3D

 41 44  0  0  0  0  0  0  0  0999 V2000
   21.7220    9.3910   14.2530 P   0  0  0  0  0  0  0  0  0  0  0  0
   17.7580   13.3520   18.6190 Mo  0  0  0  0  0  7  0  0  0  0  0  0
   19.9700   15.7900   10.4710 N   0  0  0  0  0  0  0  0  0  0  0  0
   18.0890   12.2480   20.3270 O   0  0  0  0  0  0  0  0  0  0  0  0
   18.9340   16.1190    9.6570 C   0  0  0  0  0  0  0  0  0  0  0  0
   19.1960   16.4100    8.3620 N   0  0  0  0  0  0  0  0  0  0  0  0
   16.1690   12.7390   18.5560 O   0  0  0  0  0  0  0  0  0  0  0  0
   17.6490   16.1660   10.1030 N   0  0  0  0  0  0  0  0  0  0  0  0
   17.1210   14.7850   19.9400 S   0  0  0  0  0  0  0  0  0  0  0  0
   17.3260   15.8820   11.3870 C   0  0  0  0  0  0  0  0  0  0  0  0
   16.1400   15.9310   11.7700 O   0  0  0  0  0  0  0  0  0  0  0  0
   18.2060   15.1970   13.7150 N   0  0  0  0  0  0  0  0  0  0  0  0
   19.2080   14.7980   14.5050 C   0  0  0  0  0  0  0  0  0  0  0  0
   20.6010   14.6090   13.9240 C   0  0  0  0  0  0  0  0  0  0  0  0
   20.8040   15.1620   12.5880 N   0  0  0  0  0  0  0  0  0  0  0  0
   18.4110   15.5200   12.3200 C   0  0  0  0  0  0  0  0  0  0  0  0
   18.9140   14.1580   15.6370 C   0  0  0  0  0  0  0  0  0  0  0  0
   18.0260   14.8660   16.8640 S   0  0  0  0  0  0  0  0  0  0  0  0
   19.7740   15.4870   11.7760 C   0  0  0  0  0  0  0  0  0  0  0  0
   22.0180    8.3030   13.2490 O   0  0  0  0  0  0  0  0  0  0  0  0
   19.3590   12.9160   15.7650 C   0  0  0  0  0  0  0  0  0  0  0  0
   19.0290   12.0690   17.1530 S   0  0  0  0  0  0  0  0  0  0  0  0
   22.8680   10.3240   14.5730 O   0  0  0  0  0  0  0  0  0  0  0  0
   20.1040   12.3670   14.6490 C   0  0  0  0  0  0  0  0  0  0  0  0
   21.0080   13.2300   13.9140 O   0  0  0  0  0  0  0  0  0  0  0  0
   20.9480    8.9300   15.4660 O   0  0  0  0  0  0  0  0  0  0  0  0
   19.7670   11.1610   14.1850 C   0  0  0  0  0  0  0  0  0  0  0  0
   20.7150   10.3470   13.4520 O   0  0  0  0  0  0  0  0  0  0  0  0
   19.8670   17.1553    8.1272 H   0  0  0  0  0  0  0  0  0  0  0  0
   18.7244   15.8862    7.6109 H   0  0  0  0  0  0  0  0  0  0  0  0
   15.8291   12.6079   19.4765 H   0  0  0  0  0  0  0  0  0  0  0  0
   16.9004   16.4251    9.4447 H   0  0  0  0  0  0  0  0  0  0  0  0
   17.2589   15.2769   14.1119 H   0  0  0  0  0  0  0  0  0  0  0  0
   19.3864   15.8041   14.9123 H   0  0  0  0  0  0  0  0  0  0  0  0
   21.2309   15.1909   14.6130 H   0  0  0  0  0  0  0  0  0  0  0  0
   21.7666   15.3096   12.2526 H   0  0  0  0  0  0  0  0  0  0  0  0
   22.2456    7.4663   13.7266 H   0  0  0  0  0  0  0  0  0  0  0  0
   20.9743   11.9354   15.1650 H   0  0  0  0  0  0  0  0  0  0  0  0
   21.4227    9.2128   16.2874 H   0  0  0  0  0  0  0  0  0  0  0  0
   19.4552   10.5674   15.0570 H   0  0  0  0  0  0  0  0  0  0  0  0
   19.0145   11.4005   13.4193 H   0  0  0  0  0  0  0  0  0  0  0  0
 23  1  2  0
 26  1  1  0
  1 20  1  0
  1 28  1  0
 22  2  1  0
  4  2  2  0
 18  2  1  0
  2  9  2  0
  2  7  1  0
  3 19  1  0
  3  5  2  0
  6  5  1  0
  5  8  1  0
  8 10  1  0
 16 10  1  0
 10 11  2  0
 13 12  1  0
 16 12  1  0
 14 13  1  0
 13 17  1  0
 15 14  1  0
 25 14  1  0
 15 19  1  0
 19 16  2  0
 21 17  2  0
 17 18  1  0
 24 21  1  0
 21 22  1  0
 25 24  1  0
 24 27  1  0
 28 27  1  0
  6 29  1  0
  6 30  1  0
  7 31  1  0
  8 32  1  0
 12 33  1  0
 13 34  1  0
 14 35  1  0
 15 36  1  0
 20 37  1  0
 24 38  1  0
 26 39  1  0
 27 40  1  0
 27 41  1  0
A    1
P
A    2
MO
A    3
N1
A    4
O1
A    5
C2
A    6
N2
A    7
O2
A    8
N3
A    9
S3
A   10
C4
A   11
O4
A   12
N5
A   13
C6
A   14
C7
A   15
N8
A   16
C9
A   17
C1'
A   18
S1'
A   19
C10
A   20
O1P
A   21
C2'
A   22
S2'
A   23
O2P
A   24
C3'
A   25
O3'
A   26
O3P
A   27
C4'
A   28
O4'
M  END
