3AXW_TID_A_336
     RDKit          3D

 22 23  0  0  0  0  0  0  0  0999 V2000
   37.1080    4.2780  -12.3300 C   0  0  0  0  0  0  0  0  0  0  0  0
   36.4720    5.2300  -13.1740 C   0  0  0  0  0  0  0  0  0  0  0  0
   35.8300    4.8170  -14.3570 C   0  0  0  0  0  0  0  0  0  0  0  0
   35.7670    3.4450  -14.6810 C   0  0  0  0  0  0  0  0  0  0  0  0
   36.3680    2.4930  -13.8270 C   0  0  0  0  0  0  0  0  0  0  0  0
   37.0490    2.9070  -12.6500 C   0  0  0  0  0  0  0  0  0  0  0  0
   36.2730    1.0640  -14.1790 C   0  0  0  0  0  0  0  0  0  0  0  0
   36.8860    0.2370  -13.4930 O   0  0  0  0  0  0  0  0  0  0  0  0
   35.5560    0.7340  -15.1390 O   0  0  0  0  0  0  0  0  0  0  0  0
   36.5400    6.5830  -12.8350 C   0  0  0  0  0  0  0  0  0  0  0  0
   36.2640    7.6610  -13.6090 N   0  0  0  0  0  0  0  0  0  0  0  0
   36.4530    8.8730  -13.0180 N   0  0  0  0  0  0  0  0  0  0  0  0
   36.8950    8.8080  -11.7150 C   0  0  0  0  0  0  0  0  0  0  0  0
   37.0440    7.1710  -11.2800 S   0  0  0  0  0  0  0  0  0  0  0  0
   37.2440    9.8290  -10.7090 N   0  0  0  0  0  0  0  0  0  0  0  0
   37.6447    4.6113  -11.4295 H   0  0  0  0  0  0  0  0  0  0  0  0
   35.3782    5.5627  -15.0277 H   0  0  0  0  0  0  0  0  0  0  0  0
   35.2515    3.1175  -15.5958 H   0  0  0  0  0  0  0  0  0  0  0  0
   37.5259    2.1634  -11.9945 H   0  0  0  0  0  0  0  0  0  0  0  0
   34.6688    0.3257  -14.9769 H   0  0  0  0  0  0  0  0  0  0  0  0
   37.1691    9.6098   -9.7054 H   0  0  0  0  0  0  0  0  0  0  0  0
   37.5626   10.7610  -11.0102 H   0  0  0  0  0  0  0  0  0  0  0  0
  1  2  2  0
  1  6  1  0
  2  3  1  0
  2 10  1  0
  3  4  2  0
  4  5  1  0
  5  6  2  0
  5  7  1  0
  7  8  2  0
  7  9  1  0
 10 11  2  0
 10 14  1  0
 11 12  1  0
 12 13  2  0
 13 14  1  0
 13 15  1  0
  1 16  1  0
  3 17  1  0
  4 18  1  0
  6 19  1  0
  9 20  1  0
 15 21  1  0
 15 22  1  0
A    1
C1
A    2
C2
A    3
C3
A    4
C4
A    5
C5
A    6
C6
A    7
C13
A    8
O15
A    9
O17
A   10
C19
A   11
N21
A   12
N22
A   13
C23
A   14
S24
A   15
N30
M  END
