3AZ3_DS6_A_1
     RDKit          3D

 82 83  0  0  0  0  0  0  0  0999 V2000
   13.5690   19.5360   33.5250 C   0  0  0  0  0  0  0  0  0  0  0  0
   15.2310   16.4590   35.4690 O   0  0  0  0  0  0  0  0  0  0  0  0
   14.4860   20.4110   32.8470 C   0  0  0  0  0  0  0  0  0  0  0  0
   13.3870   12.7610   36.3920 O   0  0  0  0  0  0  0  0  0  0  0  0
   14.2660   21.7690   32.7950 C   0  0  0  0  0  0  0  0  0  0  0  0
   13.1340   22.3130   33.4170 C   0  0  0  0  0  0  0  0  0  0  0  0
   12.2210   21.4020   34.0650 C   0  0  0  0  0  0  0  0  0  0  0  0
   12.4140   20.0350   34.1350 C   0  0  0  0  0  0  0  0  0  0  0  0
    7.4370   25.8900   33.0850 C   0  0  0  0  0  0  0  0  0  0  0  0
    2.4450   25.0800   33.4760 C   0  0  0  0  0  0  0  0  0  0  0  0
    9.4460   27.2500   35.0150 C   0  0  0  0  0  0  0  0  0  0  0  0
   12.9350   23.8460   33.4810 C   0  0  0  0  0  0  0  0  0  0  0  0
   11.4590   24.3570   33.4710 C   0  0  0  0  0  0  0  0  0  0  0  0
   13.5430   24.6190   32.2780 C   0  0  0  0  0  0  0  0  0  0  0  0
   13.7580   24.2360   34.7620 C   0  0  0  0  0  0  0  0  0  0  0  0
   13.2040   23.8230   36.1360 C   0  0  0  0  0  0  0  0  0  0  0  0
    3.7680   23.9480   35.3380 C   0  0  0  0  0  0  0  0  0  0  0  0
   13.4680   13.8990   35.8920 C   0  0  0  0  0  0  0  0  0  0  0  0
   13.7800   13.9470   34.4020 C   0  0  0  0  0  0  0  0  0  0  0  0
    3.9630   23.2460   33.0020 C   0  0  0  0  0  0  0  0  0  0  0  0
   13.1480   24.2260   30.8490 C   0  0  0  0  0  0  0  0  0  0  0  0
   11.0670   25.4940   34.2250 C   0  0  0  0  0  0  0  0  0  0  0  0
    9.7610   26.0310   34.1410 C   0  0  0  0  0  0  0  0  0  0  0  0
    8.8060   25.3770   33.2850 C   0  0  0  0  0  0  0  0  0  0  0  0
    9.1830   24.2470   32.5430 C   0  0  0  0  0  0  0  0  0  0  0  0
   10.4540   23.7330   32.6510 C   0  0  0  0  0  0  0  0  0  0  0  0
   11.4190   19.2680   34.8120 C   0  0  0  0  0  0  0  0  0  0  0  0
    6.4390   24.9220   33.7350 C   0  0  0  0  0  0  0  0  0  0  0  0
    4.9720   25.4500   33.6240 C   0  0  0  0  0  0  0  0  0  0  0  0
    4.7960   26.5710   34.4750 O   0  0  0  0  0  0  0  0  0  0  0  0
    3.7900   24.4710   33.8840 C   0  0  0  0  0  0  0  0  0  0  0  0
   13.6260   18.1630   33.6550 O   0  0  0  0  0  0  0  0  0  0  0  0
   14.8090   17.4740   33.2120 C   0  0  0  0  0  0  0  0  0  0  0  0
   15.0040   16.2010   34.0760 C   0  0  0  0  0  0  0  0  0  0  0  0
   13.7470   15.3230   33.7750 C   0  0  0  0  0  0  0  0  0  0  0  0
   13.3300   14.9740   36.5280 O   0  0  0  0  0  0  0  0  0  0  0  0
   14.6846   15.8380   36.0129 H   0  0  0  0  0  0  0  0  0  0  0  0
   15.3782   19.9886   32.3617 H   0  0  0  0  0  0  0  0  0  0  0  0
   14.9753   22.4240   32.2678 H   0  0  0  0  0  0  0  0  0  0  0  0
   11.3170   21.8208   34.5313 H   0  0  0  0  0  0  0  0  0  0  0  0
    7.3438   26.8825   33.5499 H   0  0  0  0  0  0  0  0  0  0  0  0
    7.2256   25.9734   32.0087 H   0  0  0  0  0  0  0  0  0  0  0  0
    1.8714   25.3397   34.3780 H   0  0  0  0  0  0  0  0  0  0  0  0
    2.6193   25.9870   32.8785 H   0  0  0  0  0  0  0  0  0  0  0  0
    1.8784   24.3506   32.8785 H   0  0  0  0  0  0  0  0  0  0  0  0
    9.5186   26.9690   36.0760 H   0  0  0  0  0  0  0  0  0  0  0  0
   10.1662   28.0526   34.7981 H   0  0  0  0  0  0  0  0  0  0  0  0
    8.4271   27.6032   34.7981 H   0  0  0  0  0  0  0  0  0  0  0  0
   13.2689   25.6766   32.4061 H   0  0  0  0  0  0  0  0  0  0  0  0
   14.6136   24.3713   32.3269 H   0  0  0  0  0  0  0  0  0  0  0  0
   14.7537   23.7795   34.6613 H   0  0  0  0  0  0  0  0  0  0  0  0
   13.7328   25.3356   34.7775 H   0  0  0  0  0  0  0  0  0  0  0  0
   13.8147   24.2783   36.9295 H   0  0  0  0  0  0  0  0  0  0  0  0
   12.1637   24.1677   36.2306 H   0  0  0  0  0  0  0  0  0  0  0  0
   13.2373   22.7276   36.2306 H   0  0  0  0  0  0  0  0  0  0  0  0
    3.8038   24.7988   36.0343 H   0  0  0  0  0  0  0  0  0  0  0  0
    2.8449   23.3742   35.5073 H   0  0  0  0  0  0  0  0  0  0  0  0
    4.6396   23.2987   35.5073 H   0  0  0  0  0  0  0  0  0  0  0  0
   14.7871   13.5304   34.2528 H   0  0  0  0  0  0  0  0  0  0  0  0
   12.9845   13.3701   33.9076 H   0  0  0  0  0  0  0  0  0  0  0  0
    4.0889   22.3543   33.6336 H   0  0  0  0  0  0  0  0  0  0  0  0
    3.0733   23.1228   32.3669 H   0  0  0  0  0  0  0  0  0  0  0  0
    4.8520   23.3740   32.3669 H   0  0  0  0  0  0  0  0  0  0  0  0
   12.3686   23.4506   30.8841 H   0  0  0  0  0  0  0  0  0  0  0  0
   12.7626   25.1095   30.3190 H   0  0  0  0  0  0  0  0  0  0  0  0
   14.0295   23.8361   30.3190 H   0  0  0  0  0  0  0  0  0  0  0  0
   11.7992   25.9708   34.8932 H   0  0  0  0  0  0  0  0  0  0  0  0
    8.4563   23.7687   31.8698 H   0  0  0  0  0  0  0  0  0  0  0  0
   10.7098   22.8190   32.0949 H   0  0  0  0  0  0  0  0  0  0  0  0
   11.5530   19.3713   35.8989 H   0  0  0  0  0  0  0  0  0  0  0  0
   10.4202   19.6321   34.5295 H   0  0  0  0  0  0  0  0  0  0  0  0
   11.5169   18.2094   34.5295 H   0  0  0  0  0  0  0  0  0  0  0  0
    6.5068   23.9469   33.2305 H   0  0  0  0  0  0  0  0  0  0  0  0
    6.6925   24.8302   34.8014 H   0  0  0  0  0  0  0  0  0  0  0  0
    4.9013   25.6761   32.5498 H   0  0  0  0  0  0  0  0  0  0  0  0
    4.8419   26.2786   35.4197 H   0  0  0  0  0  0  0  0  0  0  0  0
   14.6963   17.1892   32.1555 H   0  0  0  0  0  0  0  0  0  0  0  0
   15.6841   18.1323   33.3166 H   0  0  0  0  0  0  0  0  0  0  0  0
   15.9320   15.6736   33.8102 H   0  0  0  0  0  0  0  0  0  0  0  0
   13.6651   15.2022   32.6847 H   0  0  0  0  0  0  0  0  0  0  0  0
   12.8858   15.8473   34.2148 H   0  0  0  0  0  0  0  0  0  0  0  0
   13.3309   14.9671   37.5180 H   0  0  0  0  0  0  0  0  0  0  0  0
  1  3  2  0
  1  8  1  0
  1 32  1  0
  2 34  1  0
  3  5  1  0
  4 18  2  0
  5  6  2  0
  6  7  1  0
  6 12  1  0
  7  8  2  0
  8 27  1  0
  9 24  1  0
  9 28  1  0
 10 31  1  0
 11 23  1  0
 12 13  1  0
 12 14  1  0
 12 15  1  0
 13 22  2  0
 13 26  1  0
 14 21  1  0
 15 16  1  0
 17 31  1  0
 18 19  1  0
 18 36  1  0
 19 35  1  0
 20 31  1  0
 22 23  1  0
 23 24  2  0
 24 25  1  0
 25 26  2  0
 28 29  1  0
 29 30  1  0
 29 31  1  0
 32 33  1  0
 33 34  1  0
 34 35  1  0
  2 37  1  0
  3 38  1  0
  5 39  1  0
  7 40  1  0
  9 41  1  0
  9 42  1  0
 10 43  1  0
 10 44  1  0
 10 45  1  0
 11 46  1  0
 11 47  1  0
 11 48  1  0
 14 49  1  0
 14 50  1  0
 15 51  1  0
 15 52  1  0
 16 53  1  0
 16 54  1  0
 16 55  1  0
 17 56  1  0
 17 57  1  0
 17 58  1  0
 19 59  1  0
 19 60  1  0
 20 61  1  0
 20 62  1  0
 20 63  1  0
 21 64  1  0
 21 65  1  0
 21 66  1  0
 22 67  1  0
 25 68  1  0
 26 69  1  0
 27 70  1  0
 27 71  1  0
 27 72  1  0
 28 73  1  0
 28 74  1  0
 29 75  1  0
 30 76  1  0
 33 77  1  0
 33 78  1  0
 34 79  1  0
 35 80  1  0
 35 81  1  0
 36 82  1  0
A    1
C1
A    2
O1
A    3
C2
A    4
O2
A    5
C3
A    6
C4
A    7
C5
A    8
C6
A    9
C7
A   10
C8
A   11
C9
A   12
C10
A   13
C11
A   14
C12
A   15
C13
A   16
C14
A   17
C15
A   18
C16
A   19
C17
A   20
C18
A   21
C20
A   22
C26
A   23
C27
A   24
C28
A   25
C29
A   26
C30
A   27
C34
A   28
C43
A   29
C44
A   30
O47
A   31
C48
A   32
O62
A   33
C63
A   34
C64
A   35
C67
A   36
O71
M  END
