3B29_LSM_A_203
     RDKit          3D

 23 22  0  0  0  0  0  0  0  0999 V2000
   96.2770   72.3650   14.6720 C   0  0  0  0  0  0  0  0  0  0  0  0
   96.5590   71.8740   16.0960 C   0  0  0  0  0  0  0  0  0  0  0  0
   97.7250   70.8820   16.1230 C   0  0  0  0  0  0  0  0  0  0  0  0
   97.7370   70.0980   17.4390 C   0  0  0  0  0  0  0  0  0  0  0  0
   99.1520   69.6290   17.7960 C   0  0  0  0  0  0  0  0  0  0  0  0
   99.1450   68.8260   19.1010 C   0  0  0  0  0  0  0  0  0  0  0  0
  100.2760   67.7940   19.1230 C   0  0  0  0  0  0  0  0  0  0  0  0
   95.7296   73.3182   14.7145 H   0  0  0  0  0  0  0  0  0  0  0  0
   97.2283   72.5120   14.1397 H   0  0  0  0  0  0  0  0  0  0  0  0
   95.6707   71.6173   14.1397 H   0  0  0  0  0  0  0  0  0  0  0  0
   96.8089   72.7377   16.7297 H   0  0  0  0  0  0  0  0  0  0  0  0
   95.6601   71.3627   16.4708 H   0  0  0  0  0  0  0  0  0  0  0  0
   97.6201   70.1782   15.2841 H   0  0  0  0  0  0  0  0  0  0  0  0
   98.6680   71.4415   16.0354 H   0  0  0  0  0  0  0  0  0  0  0  0
   97.3602   70.7450   18.2448 H   0  0  0  0  0  0  0  0  0  0  0  0
   97.0973   69.2111   17.3202 H   0  0  0  0  0  0  0  0  0  0  0  0
   99.5375   68.9947   16.9841 H   0  0  0  0  0  0  0  0  0  0  0  0
   99.7938   70.5125   17.9286 H   0  0  0  0  0  0  0  0  0  0  0  0
   99.2729   69.5165   19.9477 H   0  0  0  0  0  0  0  0  0  0  0  0
   98.1858   68.2928   19.1764 H   0  0  0  0  0  0  0  0  0  0  0  0
  100.5358   67.5569   20.1653 H   0  0  0  0  0  0  0  0  0  0  0  0
   99.9469   66.8784   18.6098 H   0  0  0  0  0  0  0  0  0  0  0  0
  101.1577   68.2053   18.6098 H   0  0  0  0  0  0  0  0  0  0  0  0
  1  2  1  0
  2  3  1  0
  3  4  1  0
  4  5  1  0
  5  6  1  0
  6  7  1  0
  1  8  1  0
  1  9  1  0
  1 10  1  0
  2 11  1  0
  2 12  1  0
  3 13  1  0
  3 14  1  0
  4 15  1  0
  4 16  1  0
  5 17  1  0
  5 18  1  0
  6 19  1  0
  6 20  1  0
  7 21  1  0
  7 22  1  0
  7 23  1  0
A    1
C6
A    2
C7
A    3
C8
A    4
C9
A    5
C10
A    6
C11
A    7
C12
M  END
