3B5R_B5R_A_1
     RDKit          3D

 41 42  0  0  0  0  0  0  0  0999 V2000
   29.5630   -0.6500    8.0000 C   0  0  0  0  0  0  0  0  0  0  0  0
   29.5860   -0.8310    9.3790 C   0  0  0  0  0  0  0  0  0  0  0  0
   29.7060   -2.0930    9.8420 F   0  0  0  0  0  0  0  0  0  0  0  0
   29.4810    0.2740   10.2230 C   0  0  0  0  0  0  0  0  0  0  0  0
   29.4480    0.1230   11.9470 Cl  0  0  0  0  0  0  0  0  0  0  0  0
   29.3670    1.5500    9.6770 C   0  0  0  0  0  0  0  0  0  0  0  0
   29.3430    1.7330    8.2980 C   0  0  0  0  0  0  0  0  0  0  0  0
   29.4300    0.6260    7.4590 C   0  0  0  0  0  0  0  0  0  0  0  0
   29.1890    0.7630    6.1290 O   0  0  0  0  0  0  0  0  0  0  0  0
   30.3680    0.9100    5.3260 C   0  0  0  0  0  0  0  0  0  0  0  0
   29.8990    0.8780    3.8800 C   0  0  0  0  0  0  0  0  0  0  0  0
   30.8690    1.5460    3.0700 O   0  0  0  0  0  0  0  0  0  0  0  0
   29.7260   -0.5710    3.4190 C   0  0  0  0  0  0  0  0  0  0  0  0
   28.5650    1.6230    3.7980 C   0  0  0  0  0  0  0  0  0  0  0  0
   27.5010    1.0160    3.9160 O   0  0  0  0  0  0  0  0  0  0  0  0
   28.6810    2.9400    3.6410 N   0  0  0  0  0  0  0  0  0  0  0  0
   27.6780    3.8130    3.5630 C   0  0  0  0  0  0  0  0  0  0  0  0
   26.3380    3.4700    3.7330 C   0  0  0  0  0  0  0  0  0  0  0  0
   28.0190    5.1500    3.3910 C   0  0  0  0  0  0  0  0  0  0  0  0
   27.0230    6.1190    3.3990 C   0  0  0  0  0  0  0  0  0  0  0  0
   25.6890    5.7640    3.5760 C   0  0  0  0  0  0  0  0  0  0  0  0
   24.7430    6.8380    3.5720 C   0  0  0  0  0  0  0  0  0  0  0  0
   24.0010    7.7010    3.5600 N   0  0  0  0  0  0  0  0  0  0  0  0
   25.3200    4.4270    3.7470 C   0  0  0  0  0  0  0  0  0  0  0  0
   23.8660    3.9940    4.0180 C   0  0  0  0  0  0  0  0  0  0  0  0
   22.9710    4.6510    3.2850 F   0  0  0  0  0  0  0  0  0  0  0  0
   23.6550    2.7090    3.7480 F   0  0  0  0  0  0  0  0  0  0  0  0
   23.5610    4.1870    5.2970 F   0  0  0  0  0  0  0  0  0  0  0  0
   29.6504   -1.5202    7.3329 H   0  0  0  0  0  0  0  0  0  0  0  0
   29.2952    2.4225   10.3431 H   0  0  0  0  0  0  0  0  0  0  0  0
   29.2560    2.7444    7.8743 H   0  0  0  0  0  0  0  0  0  0  0  0
   30.8629    1.8675    5.5459 H   0  0  0  0  0  0  0  0  0  0  0  0
   31.0961    0.1112    5.5305 H   0  0  0  0  0  0  0  0  0  0  0  0
   31.5285    2.0002    3.6521 H   0  0  0  0  0  0  0  0  0  0  0  0
   29.6475   -1.2284    4.2975 H   0  0  0  0  0  0  0  0  0  0  0  0
   28.8113   -0.6566    2.8141 H   0  0  0  0  0  0  0  0  0  0  0  0
   30.5949   -0.8695    2.8141 H   0  0  0  0  0  0  0  0  0  0  0  0
   29.6362    3.3195    3.5735 H   0  0  0  0  0  0  0  0  0  0  0  0
   26.0728    2.4101    3.8605 H   0  0  0  0  0  0  0  0  0  0  0  0
   29.0709    5.4389    3.2494 H   0  0  0  0  0  0  0  0  0  0  0  0
   27.2916    7.1771    3.2641 H   0  0  0  0  0  0  0  0  0  0  0  0
  1  2  2  0
  1  8  1  0
  2  3  1  0
  2  4  1  0
  4  5  1  0
  4  6  2  0
  6  7  1  0
  7  8  2  0
  8  9  1  0
  9 10  1  0
 10 11  1  0
 11 12  1  0
 11 13  1  0
 11 14  1  0
 14 15  2  0
 14 16  1  0
 16 17  1  0
 17 18  2  0
 17 19  1  0
 18 24  1  0
 19 20  2  0
 20 21  1  0
 21 22  1  0
 21 24  2  0
 22 23  3  0
 24 25  1  0
 25 26  1  0
 25 27  1  0
 25 28  1  0
  1 29  1  0
  6 30  1  0
  7 31  1  0
 10 32  1  0
 10 33  1  0
 12 34  1  0
 13 35  1  0
 13 36  1  0
 13 37  1  0
 16 38  1  0
 18 39  1  0
 19 40  1  0
 20 41  1  0
A    1
C21
A    2
C20
A    3
F20
A    4
C19
A    5
CL19
A    6
C18
A    7
C17
A    8
C16
A    9
O14
A   10
C13
A   11
C11
A   12
O11
A   13
C12
A   14
C10
A   15
O10
A   16
N9
A   17
C6
A   18
C5
A   19
C1
A   20
C2
A   21
C3
A   22
C8
A   23
N8
A   24
C4
A   25
C7
A   26
F2
A   27
F1
A   28
F3
M  END
