3B66_B66_A_1
     RDKit          3D

 45 46  0  0  0  0  0  0  0  0999 V2000
   28.9970    2.0250    8.0780 C   0  0  0  0  0  0  0  0  0  0  0  0
   28.7690    1.8740    9.4420 C   0  0  0  0  0  0  0  0  0  0  0  0
   29.4310    0.8790   10.1560 C   0  0  0  0  0  0  0  0  0  0  0  0
   29.1910    0.7140   11.4540 N   0  0  0  0  0  0  0  0  0  0  0  0
   29.9060   -0.2640   12.1960 O   0  0  0  0  0  0  0  0  0  0  0  0
   28.2450    1.5410   12.1200 O   0  0  0  0  0  0  0  0  0  0  0  0
   30.3220    0.0360    9.4960 C   0  0  0  0  0  0  0  0  0  0  0  0
   30.5480    0.1870    8.1310 C   0  0  0  0  0  0  0  0  0  0  0  0
   29.8860    1.1820    7.4160 C   0  0  0  0  0  0  0  0  0  0  0  0
   30.1260    1.3920    6.0930 O   0  0  0  0  0  0  0  0  0  0  0  0
   30.1390    0.1900    5.3060 C   0  0  0  0  0  0  0  0  0  0  0  0
   29.7610    0.5660    3.8830 C   0  0  0  0  0  0  0  0  0  0  0  0
   30.7790    1.4060    3.3330 O   0  0  0  0  0  0  0  0  0  0  0  0
   29.6010   -0.7010    3.0400 C   0  0  0  0  0  0  0  0  0  0  0  0
   28.4450    1.3450    3.9240 C   0  0  0  0  0  0  0  0  0  0  0  0
   27.3800    0.7850    4.1810 O   0  0  0  0  0  0  0  0  0  0  0  0
   28.5940    2.6500    3.7080 N   0  0  0  0  0  0  0  0  0  0  0  0
   27.6250    3.5650    3.6920 C   0  0  0  0  0  0  0  0  0  0  0  0
   26.2820    3.2660    3.9120 C   0  0  0  0  0  0  0  0  0  0  0  0
   27.9940    4.8830    3.4500 C   0  0  0  0  0  0  0  0  0  0  0  0
   27.0230    5.8770    3.4310 C   0  0  0  0  0  0  0  0  0  0  0  0
   25.6850    5.5650    3.6540 C   0  0  0  0  0  0  0  0  0  0  0  0
   24.7650    6.6620    3.6250 C   0  0  0  0  0  0  0  0  0  0  0  0
   24.0390    7.5380    3.5940 N   0  0  0  0  0  0  0  0  0  0  0  0
   25.2890    4.2470    3.8990 C   0  0  0  0  0  0  0  0  0  0  0  0
   23.8300    3.8490    4.1950 C   0  0  0  0  0  0  0  0  0  0  0  0
   23.5590    4.0570    5.4800 F   0  0  0  0  0  0  0  0  0  0  0  0
   22.9440    4.5270    3.4710 F   0  0  0  0  0  0  0  0  0  0  0  0
   23.5910    2.5650    3.9400 F   0  0  0  0  0  0  0  0  0  0  0  0
   28.4724    2.8143    7.5196 H   0  0  0  0  0  0  0  0  0  0  0  0
   28.0639    2.5425    9.9577 H   0  0  0  0  0  0  0  0  0  0  0  0
   30.8486   -0.7514   10.0552 H   0  0  0  0  0  0  0  0  0  0  0  0
   31.2522   -0.4821    7.6149 H   0  0  0  0  0  0  0  0  0  0  0  0
   31.1440   -0.2570    5.3211 H   0  0  0  0  0  0  0  0  0  0  0  0
   29.4282   -0.5445    5.7124 H   0  0  0  0  0  0  0  0  0  0  0  0
   31.2909    1.8284    4.0676 H   0  0  0  0  0  0  0  0  0  0  0  0
   29.4911   -1.5714    3.7035 H   0  0  0  0  0  0  0  0  0  0  0  0
   28.7074   -0.6087    2.4052 H   0  0  0  0  0  0  0  0  0  0  0  0
   30.4895   -0.8337    2.4052 H   0  0  0  0  0  0  0  0  0  0  0  0
   28.2925    1.1437    2.8534 H   0  0  0  0  0  0  0  0  0  0  0  0
   27.2669    0.7255    5.1627 H   0  0  0  0  0  0  0  0  0  0  0  0
   29.5525    2.9857    3.5363 H   0  0  0  0  0  0  0  0  0  0  0  0
   25.9945    2.2214    4.1024 H   0  0  0  0  0  0  0  0  0  0  0  0
   29.0495    5.1381    3.2744 H   0  0  0  0  0  0  0  0  0  0  0  0
   27.3145    6.9200    3.2379 H   0  0  0  0  0  0  0  0  0  0  0  0
  1  2  2  0
  1  9  1  0
  2  3  1  0
  3  4  1  0
  3  7  2  0
  4  5  1  0
  4  6  2  0
  7  8  1  0
  8  9  2  0
  9 10  1  0
 10 11  1  0
 11 12  1  0
 12 13  1  0
 12 14  1  0
 12 15  1  0
 15 16  1  0
 15 17  1  0
 17 18  1  0
 18 19  2  0
 18 20  1  0
 19 25  1  0
 20 21  2  0
 21 22  1  0
 22 23  1  0
 22 25  2  0
 23 24  3  0
 25 26  1  0
 26 27  1  0
 26 28  1  0
 26 29  1  0
  1 30  1  0
  2 31  1  0
  7 32  1  0
  8 33  1  0
 11 34  1  0
 11 35  1  0
 13 36  1  0
 14 37  1  0
 14 38  1  0
 14 39  1  0
 15 40  1  0
 16 41  1  0
 17 42  1  0
 19 43  1  0
 20 44  1  0
 21 45  1  0
M  CHG  2   4   1   5  -1
A    1
C17
A    2
C18
A    3
C21
A    4
N19
A    5
O20
A    6
O19
A    7
C20
A    8
C19
A    9
C16
A   10
O14
A   11
C13
A   12
C11
A   13
O11
A   14
C12
A   15
C10
A   16
O10
A   17
N9
A   18
C6
A   19
C5
A   20
C1
A   21
C2
A   22
C3
A   23
C8
A   24
N8
A   25
C4
A   26
C7
A   27
F2
A   28
F3
A   29
F1
M  END
