1A4G_ZMR_A_466
     RDKit          3D

 43 43  0  0  0  0  0  0  0  0999 V2000
   -2.2500   58.2420   -5.5910 C   0  0  0  0  0  0  0  0  0  0  0  0
   -3.1720   59.1980   -5.4520 O   0  0  0  0  0  0  0  0  0  0  0  0
   -1.3720   58.0410   -4.8130 O   0  0  0  0  0  0  0  0  0  0  0  0
   -2.3300   57.4010   -6.7980 C   0  0  0  0  0  0  0  0  0  0  0  0
   -1.4680   56.3850   -6.9670 C   0  0  0  0  0  0  0  0  0  0  0  0
   -1.5020   55.5410   -8.2050 C   0  0  0  0  0  0  0  0  0  0  0  0
   -2.2900   56.1690   -9.2970 C   0  0  0  0  0  0  0  0  0  0  0  0
   -2.6540   55.1780  -10.2990 N   0  0  0  0  0  0  0  0  0  0  0  0
   -2.1140   55.1230  -11.5200 C   0  0  0  0  0  0  0  0  0  0  0  0
   -1.3800   55.9770  -11.9750 O   0  0  0  0  0  0  0  0  0  0  0  0
   -2.4680   53.8830  -12.3160 C   0  0  0  0  0  0  0  0  0  0  0  0
   -3.5940   56.7640   -8.6860 C   0  0  0  0  0  0  0  0  0  0  0  0
   -3.2710   57.7090   -7.6700 O   0  0  0  0  0  0  0  0  0  0  0  0
   -4.6460   57.3120   -9.6380 C   0  0  0  0  0  0  0  0  0  0  0  0
   -3.8180   57.8920  -10.0820 O   0  0  0  0  0  0  0  0  0  0  0  0
   -5.8270   57.8570   -9.0220 C   0  0  0  0  0  0  0  0  0  0  0  0
   -6.4010   56.6980   -8.4110 O   0  0  0  0  0  0  0  0  0  0  0  0
   -6.8360   58.4830   -9.9830 C   0  0  0  0  0  0  0  0  0  0  0  0
   -7.4390   57.4730  -10.7910 O   0  0  0  0  0  0  0  0  0  0  0  0
   -0.1890   55.1810   -8.6950 N   0  0  0  0  0  0  0  0  0  0  0  0
    0.0430   54.0300   -9.3200 C   0  0  0  0  0  0  0  0  0  0  0  0
   -0.8960   53.0810   -9.4020 N   0  0  0  0  0  0  0  0  0  0  0  0
    1.2160   53.8670   -9.9260 N   0  0  0  0  0  0  0  0  0  0  0  0
   -3.4518   59.4881   -4.5478 H   0  0  0  0  0  0  0  0  0  0  0  0
   -0.7255   56.1690   -6.1846 H   0  0  0  0  0  0  0  0  0  0  0  0
   -2.0050   54.6137   -7.8935 H   0  0  0  0  0  0  0  0  0  0  0  0
   -1.6846   56.9538   -9.7741 H   0  0  0  0  0  0  0  0  0  0  0  0
   -3.3691   54.4788  -10.0527 H   0  0  0  0  0  0  0  0  0  0  0  0
   -2.7032   53.0592  -11.6261 H   0  0  0  0  0  0  0  0  0  0  0  0
   -3.3425   54.0914  -12.9498 H   0  0  0  0  0  0  0  0  0  0  0  0
   -1.6152   53.5983  -12.9498 H   0  0  0  0  0  0  0  0  0  0  0  0
   -4.1042   55.8838   -8.2678 H   0  0  0  0  0  0  0  0  0  0  0  0
   -5.2955   56.7433  -10.3198 H   0  0  0  0  0  0  0  0  0  0  0  0
   -3.2631   58.2807   -9.3601 H   0  0  0  0  0  0  0  0  0  0  0  0
   -5.5696   58.6886   -8.3496 H   0  0  0  0  0  0  0  0  0  0  0  0
   -6.3565   56.7879   -7.4261 H   0  0  0  0  0  0  0  0  0  0  0  0
   -7.6162   58.9997   -9.4048 H   0  0  0  0  0  0  0  0  0  0  0  0
   -6.3145   59.1998  -10.6342 H   0  0  0  0  0  0  0  0  0  0  0  0
   -7.8493   56.7857  -10.2085 H   0  0  0  0  0  0  0  0  0  0  0  0
   -1.2960   52.6767   -8.5432 H   0  0  0  0  0  0  0  0  0  0  0  0
   -1.2191   52.7545  -10.3239 H   0  0  0  0  0  0  0  0  0  0  0  0
    2.0726   53.7480   -9.3665 H   0  0  0  0  0  0  0  0  0  0  0  0
    1.2676   53.8598  -10.9547 H   0  0  0  0  0  0  0  0  0  0  0  0
  1  2  1  0
  1  3  2  0
  1  4  1  0
  4  5  2  0
  4 13  1  0
  5  6  1  0
  6  7  1  0
  6 20  1  0
  7  8  1  0
  7 12  1  0
  8  9  1  0
  9 10  2  0
  9 11  1  0
 12 13  1  0
 12 14  1  0
 14 15  1  0
 14 16  1  0
 16 17  1  0
 16 18  1  0
 18 19  1  0
 20 21  2  0
 21 22  1  0
 21 23  1  0
  2 24  1  0
  5 25  1  0
  6 26  1  0
  7 27  1  0
  8 28  1  0
 11 29  1  0
 11 30  1  0
 11 31  1  0
 12 32  1  0
 14 33  1  0
 15 34  1  0
 16 35  1  0
 17 36  1  0
 18 37  1  0
 18 38  1  0
 19 39  1  0
 22 40  1  0
 22 41  1  0
 23 42  1  0
 23 43  1  0
A    1
C1
A    2
O1A
A    3
O1B
A    4
C2
A    5
C3
A    6
C4
A    7
C5
A    8
N5
A    9
C10
A   10
O10
A   11
C11
A   12
C6
A   13
O6
A   14
C7
A   15
O7
A   16
C8
A   17
O8
A   18
C9
A   19
O9
A   20
NE
A   21
CZ
A   22
NH1
A   23
NH2
M  END
