2E92_M0N_A_901
     RDKit          3D

 32 33  0  0  0  0  0  0  0  0999 V2000
   29.1470   47.3490    5.5090 O   0  0  0  0  0  0  0  0  0  0  0  0
   28.8910   45.9840    5.8550 C   0  0  0  0  0  0  0  0  0  0  0  0
   29.4250   45.6760    7.2530 C   0  0  0  0  0  0  0  0  0  0  0  0
   28.9430   46.6950    8.2960 C   0  0  0  0  0  0  0  0  0  0  0  0
   28.4220   47.8990    8.1110 C   0  0  0  0  0  0  0  0  0  0  0  0
   28.1220   48.4370    9.2960 N   0  0  0  0  0  0  0  0  0  0  0  0
   28.4510   47.5920   10.2700 C   0  0  0  0  0  0  0  0  0  0  0  0
   28.3720   47.6690   11.6540 C   0  0  0  0  0  0  0  0  0  0  0  0
   28.8280   46.6130   12.4360 C   0  0  0  0  0  0  0  0  0  0  0  0
   29.3630   45.4740   11.8370 C   0  0  0  0  0  0  0  0  0  0  0  0
   29.4500   45.3820   10.4560 C   0  0  0  0  0  0  0  0  0  0  0  0
   28.9910   46.4490    9.6680 N   0  0  0  0  0  0  0  0  0  0  0  0
   29.8040   44.9070    4.6450 P   0  0  0  0  0  0  0  0  0  0  0  0
   29.4080   45.1920    3.2500 O   0  0  0  0  0  0  0  0  0  0  0  0
   31.3750   45.1480    4.9070 O   0  0  0  0  0  0  0  0  0  0  0  0
   29.5030   43.4110    5.1490 O   0  0  0  0  0  0  0  0  0  0  0  0
   27.0700   45.6020    5.7100 P   0  0  0  0  0  0  0  0  0  0  0  0
   26.9010   44.0580    6.1380 O   0  0  0  0  0  0  0  0  0  0  0  0
   26.7440   45.6520    4.1380 O   0  0  0  0  0  0  0  0  0  0  0  0
   26.2220   46.5380    6.4800 O   0  0  0  0  0  0  0  0  0  0  0  0
   29.2476   47.8855    6.3349 H   0  0  0  0  0  0  0  0  0  0  0  0
   29.0809   44.6746    7.5509 H   0  0  0  0  0  0  0  0  0  0  0  0
   30.5231   45.7270    7.2137 H   0  0  0  0  0  0  0  0  0  0  0  0
   28.2617   48.3800    7.1348 H   0  0  0  0  0  0  0  0  0  0  0  0
   27.9489   48.5649   12.1319 H   0  0  0  0  0  0  0  0  0  0  0  0
   28.7661   46.6771   13.5324 H   0  0  0  0  0  0  0  0  0  0  0  0
   29.7185   44.6427   12.4636 H   0  0  0  0  0  0  0  0  0  0  0  0
   29.8737   44.4834    9.9837 H   0  0  0  0  0  0  0  0  0  0  0  0
   28.6045   45.7703    3.2466 H   0  0  0  0  0  0  0  0  0  0  0  0
   29.4989   43.3908    6.1388 H   0  0  0  0  0  0  0  0  0  0  0  0
   26.8934   43.9882    7.1255 H   0  0  0  0  0  0  0  0  0  0  0  0
   26.3590   46.3867    7.4487 H   0  0  0  0  0  0  0  0  0  0  0  0
  1  2  1  0
  2 17  1  0
  2  3  1  0
  2 13  1  0
  3  4  1  0
  4  5  2  0
  4 12  1  0
  5  6  1  0
  6  7  2  0
  7 12  1  0
  7  8  1  0
  8  9  2  0
  9 10  1  0
 10 11  2  0
 11 12  1  0
 13 15  2  0
 13 16  1  0
 13 14  1  0
 17 19  2  0
 17 18  1  0
 17 20  1  0
  1 21  1  0
  3 22  1  0
  3 23  1  0
  5 24  1  0
  8 25  1  0
  9 26  1  0
 10 27  1  0
 11 28  1  0
 14 29  1  0
 16 30  1  0
 18 31  1  0
 20 32  1  0
A    1
O
A    2
C9
A    3
C8
A    4
C2
A    5
C1
A    6
N1
A    7
C7
A    8
C6
A    9
C5
A   10
C4
A   11
C3
A   12
N2
A   13
P1
A   14
O2
A   15
O3
A   16
O1
A   17
P2
A   18
O5
A   19
O6
A   20
O4
M  END
