3BA9_3B9_A_501
     RDKit          3D

 56 59  0  0  0  0  0  0  0  0999 V2000
   22.9720   43.6620   54.8110 C   0  0  0  0  0  0  0  0  0  0  0  0
   17.8870   33.4150   51.3530 C   0  0  0  0  0  0  0  0  0  0  0  0
   20.0550   32.6660   50.7850 C   0  0  0  0  0  0  0  0  0  0  0  0
   19.7320   34.6910   52.0810 C   0  0  0  0  0  0  0  0  0  0  0  0
   21.9950   37.3150   53.6150 C   0  0  0  0  0  0  0  0  0  0  0  0
   20.6380   33.7750   51.4600 C   0  0  0  0  0  0  0  0  0  0  0  0
   22.0370   34.0510   51.5720 C   0  0  0  0  0  0  0  0  0  0  0  0
   22.5040   35.1820   52.2640 C   0  0  0  0  0  0  0  0  0  0  0  0
   21.5490   36.0470   52.8570 C   0  0  0  0  0  0  0  0  0  0  0  0
   21.9350   38.4960   52.6100 C   0  0  0  0  0  0  0  0  0  0  0  0
   18.6910   32.5000   50.7390 N   0  0  0  0  0  0  0  0  0  0  0  0
   18.3880   34.5030   52.0200 N   0  0  0  0  0  0  0  0  0  0  0  0
   20.1900   35.7810   52.7480 N   0  0  0  0  0  0  0  0  0  0  0  0
   16.5210   33.2410   51.3000 N   0  0  0  0  0  0  0  0  0  0  0  0
   20.8430   31.7150   50.1490 N   0  0  0  0  0  0  0  0  0  0  0  0
   21.0500   37.6020   54.8160 C   0  0  0  0  0  0  0  0  0  0  0  0
   23.4340   37.2080   54.2100 C   0  0  0  0  0  0  0  0  0  0  0  0
   22.3090   39.8100   53.1280 N   0  0  0  0  0  0  0  0  0  0  0  0
   23.4980   40.4360   52.8530 C   0  0  0  0  0  0  0  0  0  0  0  0
   24.3800   39.9300   52.1410 O   0  0  0  0  0  0  0  0  0  0  0  0
   23.7370   41.7760   53.4270 C   0  0  0  0  0  0  0  0  0  0  0  0
   22.7420   42.3760   54.2550 C   0  0  0  0  0  0  0  0  0  0  0  0
   24.1920   44.3500   54.5400 C   0  0  0  0  0  0  0  0  0  0  0  0
   25.1820   43.7350   53.6990 C   0  0  0  0  0  0  0  0  0  0  0  0
   24.9530   42.4550   53.1480 C   0  0  0  0  0  0  0  0  0  0  0  0
   24.3920   45.6230   55.1140 O   0  0  0  0  0  0  0  0  0  0  0  0
   25.5730   46.3510   54.9100 C   0  0  0  0  0  0  0  0  0  0  0  0
   26.8080   46.0630   55.5880 C   0  0  0  0  0  0  0  0  0  0  0  0
   27.9550   46.8530   55.3230 C   0  0  0  0  0  0  0  0  0  0  0  0
   27.8870   47.9270   54.3950 C   0  0  0  0  0  0  0  0  0  0  0  0
   26.6670   48.2180   53.7250 C   0  0  0  0  0  0  0  0  0  0  0  0
   25.5080   47.4320   53.9800 C   0  0  0  0  0  0  0  0  0  0  0  0
   22.2088   44.1283   55.4513 H   0  0  0  0  0  0  0  0  0  0  0  0
   22.7611   33.3653   51.1079 H   0  0  0  0  0  0  0  0  0  0  0  0
   23.5811   35.3906   52.3435 H   0  0  0  0  0  0  0  0  0  0  0  0
   22.6120   38.2601   51.7758 H   0  0  0  0  0  0  0  0  0  0  0  0
   20.8759   38.5846   52.3264 H   0  0  0  0  0  0  0  0  0  0  0  0
   15.9765   33.1716   52.1715 H   0  0  0  0  0  0  0  0  0  0  0  0
   16.0445   33.1803   50.3888 H   0  0  0  0  0  0  0  0  0  0  0  0
   21.3957   31.0480   50.7063 H   0  0  0  0  0  0  0  0  0  0  0  0
   20.8746   31.6769   49.1202 H   0  0  0  0  0  0  0  0  0  0  0  0
   21.5936   37.4369   55.7579 H   0  0  0  0  0  0  0  0  0  0  0  0
   20.7049   38.6455   54.7699 H   0  0  0  0  0  0  0  0  0  0  0  0
   20.1829   36.9267   54.7699 H   0  0  0  0  0  0  0  0  0  0  0  0
   23.3778   37.2122   55.3086 H   0  0  0  0  0  0  0  0  0  0  0  0
   23.9026   36.2725   53.8704 H   0  0  0  0  0  0  0  0  0  0  0  0
   24.0358   38.0639   53.8704 H   0  0  0  0  0  0  0  0  0  0  0  0
   21.6373   40.2970   53.7383 H   0  0  0  0  0  0  0  0  0  0  0  0
   21.8012   41.8448   54.4616 H   0  0  0  0  0  0  0  0  0  0  0  0
   26.1223   44.2636   53.4835 H   0  0  0  0  0  0  0  0  0  0  0  0
   25.7129   41.9860   52.5057 H   0  0  0  0  0  0  0  0  0  0  0  0
   26.8625   45.2338   56.3087 H   0  0  0  0  0  0  0  0  0  0  0  0
   28.9019   46.6336   55.8381 H   0  0  0  0  0  0  0  0  0  0  0  0
   28.7812   48.5354   54.1942 H   0  0  0  0  0  0  0  0  0  0  0  0
   26.6188   49.0515   53.0088 H   0  0  0  0  0  0  0  0  0  0  0  0
   24.5643   47.6571   53.4615 H   0  0  0  0  0  0  0  0  0  0  0  0
  1 22  2  0
  1 23  1  0
  2 11  2  0
  2 12  1  0
  2 14  1  0
  3  6  2  0
  3 11  1  0
  3 15  1  0
  4  6  1  0
  4 12  2  0
  4 13  1  0
  5  9  1  0
  5 10  1  0
  5 16  1  0
  5 17  1  0
  6  7  1  0
  7  8  2  0
  8  9  1  0
  9 13  2  0
 10 18  1  0
 18 19  1  0
 19 20  2  0
 19 21  1  0
 21 22  1  0
 21 25  2  0
 23 24  2  0
 23 26  1  0
 24 25  1  0
 26 27  1  0
 27 28  2  0
 27 32  1  0
 28 29  1  0
 29 30  2  0
 30 31  1  0
 31 32  2  0
  1 33  1  0
  7 34  1  0
  8 35  1  0
 10 36  1  0
 10 37  1  0
 14 38  1  0
 14 39  1  0
 15 40  1  0
 15 41  1  0
 16 42  1  0
 16 43  1  0
 16 44  1  0
 17 45  1  0
 17 46  1  0
 17 47  1  0
 18 48  1  0
 22 49  1  0
 24 50  1  0
 25 51  1  0
 28 52  1  0
 29 53  1  0
 30 54  1  0
 31 55  1  0
 32 56  1  0
A    1
C15
A    2
C1
A    3
C2
A    4
C3
A    5
C8
A    6
C4
A    7
C5
A    8
C6
A    9
C7
A   10
C9
A   11
N1
A   12
N2
A   13
N3
A   14
N4
A   15
N5
A   16
C10
A   17
C11
A   18
N6
A   19
C12
A   20
O1
A   21
C13
A   22
C14
A   23
C16
A   24
C17
A   25
C18
A   26
O2
A   27
C19
A   28
C20
A   29
C21
A   30
C22
A   31
C23
A   32
C24
M  END
