3BAA_3BA_A_501
     RDKit          3D

 48 50  0  0  0  0  0  0  0  0999 V2000
   18.3810   34.1990   51.4720 N   0  0  0  0  0  0  0  0  0  0  0  0
   20.2690   32.6730   50.1120 C   0  0  0  0  0  0  0  0  0  0  0  0
   22.3360   35.2360   51.9630 N   0  0  0  0  0  0  0  0  0  0  0  0
   19.6980   34.5050   51.6090 C   0  0  0  0  0  0  0  0  0  0  0  0
   21.3240   38.3940   52.6680 C   0  0  0  0  0  0  0  0  0  0  0  0
   21.6360   37.1110   53.4610 C   0  0  0  0  0  0  0  0  0  0  0  0
   21.3180   35.9050   52.5660 C   0  0  0  0  0  0  0  0  0  0  0  0
   22.0580   34.1660   51.1510 C   0  0  0  0  0  0  0  0  0  0  0  0
   20.7050   33.7550   50.9370 C   0  0  0  0  0  0  0  0  0  0  0  0
   20.7690   37.0790   54.7380 C   0  0  0  0  0  0  0  0  0  0  0  0
   18.4950   31.2300   49.0650 C   0  0  0  0  0  0  0  0  0  0  0  0
   24.5390   33.8280   50.6130 C   0  0  0  0  0  0  0  0  0  0  0  0
   24.8830   34.9930   49.6690 C   0  0  0  0  0  0  0  0  0  0  0  0
   24.2860   36.3380   49.3950 C   0  0  0  0  0  0  0  0  0  0  0  0
   22.8930   37.7770   48.6090 C   0  0  0  0  0  0  0  0  0  0  0  0
   24.7390   37.5700   49.8070 C   0  0  0  0  0  0  0  0  0  0  0  0
   17.9530   33.1530   50.6750 C   0  0  0  0  0  0  0  0  0  0  0  0
   18.8960   32.3590   49.9640 C   0  0  0  0  0  0  0  0  0  0  0  0
   20.0110   35.5540   52.4020 N   0  0  0  0  0  0  0  0  0  0  0  0
   16.5730   32.9220   50.5920 N   0  0  0  0  0  0  0  0  0  0  0  0
   23.1160   37.1500   53.8960 C   0  0  0  0  0  0  0  0  0  0  0  0
   17.3370   31.1610   48.6500 O   0  0  0  0  0  0  0  0  0  0  0  0
   19.4960   30.3530   48.7230 N   0  0  0  0  0  0  0  0  0  0  0  0
   23.1150   33.4810   50.5250 N   0  0  0  0  0  0  0  0  0  0  0  0
   23.1230   36.4770   48.6430 N   0  0  0  0  0  0  0  0  0  0  0  0
   23.8440   38.4800   49.2990 N   0  0  0  0  0  0  0  0  0  0  0  0
   21.0180   32.0692   49.5788 H   0  0  0  0  0  0  0  0  0  0  0  0
   21.1236   39.2183   53.3683 H   0  0  0  0  0  0  0  0  0  0  0  0
   22.1855   38.6522   52.0347 H   0  0  0  0  0  0  0  0  0  0  0  0
   20.4401   38.2278   52.0347 H   0  0  0  0  0  0  0  0  0  0  0  0
   21.4203   37.1030   55.6241 H   0  0  0  0  0  0  0  0  0  0  0  0
   20.1013   37.9531   54.7499 H   0  0  0  0  0  0  0  0  0  0  0  0
   20.1676   36.1580   54.7499 H   0  0  0  0  0  0  0  0  0  0  0  0
   25.1408   32.9502   50.3349 H   0  0  0  0  0  0  0  0  0  0  0  0
   24.7609   34.1367   51.6452 H   0  0  0  0  0  0  0  0  0  0  0  0
   25.9181   35.2375   49.9495 H   0  0  0  0  0  0  0  0  0  0  0  0
   24.4653   34.5163   48.7700 H   0  0  0  0  0  0  0  0  0  0  0  0
   22.0407   38.2390   48.0893 H   0  0  0  0  0  0  0  0  0  0  0  0
   25.6306   37.7819   50.4154 H   0  0  0  0  0  0  0  0  0  0  0  0
   16.0139   32.8284   51.4519 H   0  0  0  0  0  0  0  0  0  0  0  0
   16.1181   32.8458   49.6711 H   0  0  0  0  0  0  0  0  0  0  0  0
   23.1754   37.1516   54.9944 H   0  0  0  0  0  0  0  0  0  0  0  0
   23.6375   36.2653   53.5018 H   0  0  0  0  0  0  0  0  0  0  0  0
   23.5901   38.0610   53.5018 H   0  0  0  0  0  0  0  0  0  0  0  0
   20.0382   29.8780   49.4588 H   0  0  0  0  0  0  0  0  0  0  0  0
   19.7042   30.1706   47.7309 H   0  0  0  0  0  0  0  0  0  0  0  0
   22.8675   32.6612   49.9527 H   0  0  0  0  0  0  0  0  0  0  0  0
   23.8815   39.5027   49.4157 H   0  0  0  0  0  0  0  0  0  0  0  0
  1  4  2  0
  1 17  1  0
  2  9  2  0
  2 18  1  0
  3  7  1  0
  3  8  2  0
  4  9  1  0
  4 19  1  0
  5  6  1  0
  6  7  1  0
  6 10  1  0
  6 21  1  0
  7 19  2  0
  8  9  1  0
  8 24  1  0
 11 18  1  0
 11 22  2  0
 11 23  1  0
 12 13  1  0
 12 24  1  0
 13 14  1  0
 14 16  2  0
 14 25  1  0
 15 25  2  0
 15 26  1  0
 16 26  1  0
 17 18  2  0
 17 20  1  0
  2 27  1  0
  5 28  1  0
  5 29  1  0
  5 30  1  0
 10 31  1  0
 10 32  1  0
 10 33  1  0
 12 34  1  0
 12 35  1  0
 13 36  1  0
 13 37  1  0
 15 38  1  0
 16 39  1  0
 20 40  1  0
 20 41  1  0
 21 42  1  0
 21 43  1  0
 21 44  1  0
 23 45  1  0
 23 46  1  0
 24 47  1  0
 26 48  1  0
A    1
N1
A    2
C3
A    3
N2
A    4
C4
A    5
C9
A    6
C8
A    7
C7
A    8
C6
A    9
C5
A   10
C10
A   11
C12
A   12
C13
A   13
C14
A   14
C15
A   15
C16
A   16
C17
A   17
C1
A   18
C2
A   19
N3
A   20
N4
A   21
C11
A   22
O1
A   23
N5
A   24
N6
A   25
N7
A   26
N8
M  END
