1XKK_FMM_A_91
     RDKit          3D

 66 70  0  0  0  0  0  0  0  0999 V2000
   22.6040   34.4870   31.1410 C   0  0  0  0  0  0  0  0  0  0  0  0
   24.0360   33.4650   31.3500 S   0  0  0  0  0  0  0  0  0  0  0  0
   25.0530   34.2040   32.0670 O   0  0  0  0  0  0  0  0  0  0  0  0
   24.5430   33.0770   30.0530 O   0  0  0  0  0  0  0  0  0  0  0  0
   23.5870   31.9800   32.2910 C   0  0  0  0  0  0  0  0  0  0  0  0
   22.0610   31.8360   32.3240 C   0  0  0  0  0  0  0  0  0  0  0  0
   21.5690   32.1840   33.6650 N   0  0  0  0  0  0  0  0  0  0  0  0
   20.9140   31.0190   34.2650 C   0  0  0  0  0  0  0  0  0  0  0  0
   19.4160   31.2080   34.2230 C   0  0  0  0  0  0  0  0  0  0  0  0
   18.6740   30.9770   33.1210 C   0  0  0  0  0  0  0  0  0  0  0  0
   17.4450   31.2370   33.4210 C   0  0  0  0  0  0  0  0  0  0  0  0
   17.4090   31.6450   34.7310 C   0  0  0  0  0  0  0  0  0  0  0  0
   18.6550   31.6530   35.3630 O   0  0  0  0  0  0  0  0  0  0  0  0
   16.1760   32.0580   35.4070 C   0  0  0  0  0  0  0  0  0  0  0  0
   14.9580   31.9860   34.7350 C   0  0  0  0  0  0  0  0  0  0  0  0
   13.8070   32.4020   35.3590 C   0  0  0  0  0  0  0  0  0  0  0  0
   13.8490   32.8900   36.6640 C   0  0  0  0  0  0  0  0  0  0  0  0
   12.6830   33.3050   37.2760 N   0  0  0  0  0  0  0  0  0  0  0  0
   12.7080   33.7900   38.5680 C   0  0  0  0  0  0  0  0  0  0  0  0
   13.8990   33.8630   39.2600 N   0  0  0  0  0  0  0  0  0  0  0  0
   15.0770   33.4520   38.6680 C   0  0  0  0  0  0  0  0  0  0  0  0
   16.2820   33.5270   39.3660 N   0  0  0  0  0  0  0  0  0  0  0  0
   16.3320   33.8430   40.7350 C   0  0  0  0  0  0  0  0  0  0  0  0
   17.1180   34.9090   41.1780 C   0  0  0  0  0  0  0  0  0  0  0  0
   17.1640   35.2150   42.5350 C   0  0  0  0  0  0  0  0  0  0  0  0
   16.4280   34.4570   43.4380 C   0  0  0  0  0  0  0  0  0  0  0  0
   16.4460   34.7470   44.8280 O   0  0  0  0  0  0  0  0  0  0  0  0
   17.0650   36.0020   45.1430 C   0  0  0  0  0  0  0  0  0  0  0  0
   16.0850   37.1810   44.9840 C   0  0  0  0  0  0  0  0  0  0  0  0
   16.5190   38.4620   45.2460 C   0  0  0  0  0  0  0  0  0  0  0  0
   15.6530   39.5270   45.1020 C   0  0  0  0  0  0  0  0  0  0  0  0
   14.3540   39.3120   44.6930 C   0  0  0  0  0  0  0  0  0  0  0  0
   13.9160   38.0360   44.4290 C   0  0  0  0  0  0  0  0  0  0  0  0
   12.6790   37.8370   44.0350 F   0  0  0  0  0  0  0  0  0  0  0  0
   14.7720   36.9660   44.5730 C   0  0  0  0  0  0  0  0  0  0  0  0
   15.6650   33.4150   42.9990 C   0  0  0  0  0  0  0  0  0  0  0  0
   14.7840   32.5140   44.1280 Cl  0  0  0  0  0  0  0  0  0  0  0  0
   15.6070   33.0980   41.6600 C   0  0  0  0  0  0  0  0  0  0  0  0
   15.0530   32.9590   37.3490 C   0  0  0  0  0  0  0  0  0  0  0  0
   16.2200   32.5450   36.7310 C   0  0  0  0  0  0  0  0  0  0  0  0
   22.2081   34.7696   32.1276 H   0  0  0  0  0  0  0  0  0  0  0  0
   22.8792   35.3940   30.5828 H   0  0  0  0  0  0  0  0  0  0  0  0
   21.8357   33.9319   30.5828 H   0  0  0  0  0  0  0  0  0  0  0  0
   24.0283   31.0944   31.8104 H   0  0  0  0  0  0  0  0  0  0  0  0
   23.9686   32.0687   33.3189 H   0  0  0  0  0  0  0  0  0  0  0  0
   21.6120   32.5116   31.5811 H   0  0  0  0  0  0  0  0  0  0  0  0
   21.7836   30.7981   32.0876 H   0  0  0  0  0  0  0  0  0  0  0  0
   22.3609   32.4744   34.2561 H   0  0  0  0  0  0  0  0  0  0  0  0
   21.1856   30.1145   33.7011 H   0  0  0  0  0  0  0  0  0  0  0  0
   21.2414   30.9112   35.3096 H   0  0  0  0  0  0  0  0  0  0  0  0
   19.0469   30.6308   32.1458 H   0  0  0  0  0  0  0  0  0  0  0  0
   16.5807   31.1474   32.7465 H   0  0  0  0  0  0  0  0  0  0  0  0
   14.9179   31.5969   33.7069 H   0  0  0  0  0  0  0  0  0  0  0  0
   12.8464   32.3497   34.8256 H   0  0  0  0  0  0  0  0  0  0  0  0
   11.7746   34.1196   39.0477 H   0  0  0  0  0  0  0  0  0  0  0  0
   17.1623   33.3453   38.8631 H   0  0  0  0  0  0  0  0  0  0  0  0
   17.6982   35.5042   40.4576 H   0  0  0  0  0  0  0  0  0  0  0  0
   17.7804   36.0535   42.8914 H   0  0  0  0  0  0  0  0  0  0  0  0
   17.4201   35.9723   46.1837 H   0  0  0  0  0  0  0  0  0  0  0  0
   17.9002   36.1557   44.4438 H   0  0  0  0  0  0  0  0  0  0  0  0
   17.5557   38.6360   45.5700 H   0  0  0  0  0  0  0  0  0  0  0  0
   15.9998   40.5492   45.3139 H   0  0  0  0  0  0  0  0  0  0  0  0
   13.6668   40.1631   44.5777 H   0  0  0  0  0  0  0  0  0  0  0  0
   14.4194   35.9452   44.3640 H   0  0  0  0  0  0  0  0  0  0  0  0
   14.9869   32.2549   41.3214 H   0  0  0  0  0  0  0  0  0  0  0  0
   17.1779   32.5953   37.2694 H   0  0  0  0  0  0  0  0  0  0  0  0
  1  2  1  0
  2  3  2  0
  2  4  2  0
  2  5  1  0
  5  6  1  0
  6  7  1  0
  7  8  1  0
  8  9  1  0
  9 10  2  0
  9 13  1  0
 10 11  1  0
 11 12  2  0
 12 13  1  0
 12 14  1  0
 14 15  2  0
 14 40  1  0
 15 16  1  0
 16 17  2  0
 17 18  1  0
 17 39  1  0
 18 19  2  0
 19 20  1  0
 20 21  2  0
 21 22  1  0
 21 39  1  0
 22 23  1  0
 23 24  2  0
 23 38  1  0
 24 25  1  0
 25 26  2  0
 26 27  1  0
 26 36  1  0
 27 28  1  0
 28 29  1  0
 29 30  2  0
 29 35  1  0
 30 31  1  0
 31 32  2  0
 32 33  1  0
 33 34  1  0
 33 35  2  0
 36 37  1  0
 36 38  2  0
 39 40  2  0
  1 41  1  0
  1 42  1  0
  1 43  1  0
  5 44  1  0
  5 45  1  0
  6 46  1  0
  6 47  1  0
  7 48  1  0
  8 49  1  0
  8 50  1  0
 10 51  1  0
 11 52  1  0
 15 53  1  0
 16 54  1  0
 19 55  1  0
 22 56  1  0
 24 57  1  0
 25 58  1  0
 28 59  1  0
 28 60  1  0
 30 61  1  0
 31 62  1  0
 32 63  1  0
 35 64  1  0
 38 65  1  0
 40 66  1  0
A    1
C1
A    2
S2
A    3
O3
A    4
O4
A    5
C5
A    6
C6
A    7
N7
A    8
C8
A    9
C9
A   10
C10
A   11
C11
A   12
C12
A   13
O13
A   14
C14
A   15
C15
A   16
C16
A   17
C17
A   18
N18
A   19
C19
A   20
N20
A   21
C21
A   22
N22
A   23
C23
A   24
C24
A   25
C25
A   26
C26
A   27
O27
A   28
C28
A   29
C29
A   30
C30
A   31
C31
A   32
C32
A   33
C33
A   34
F34
A   35
C35
A   36
C36
A   37
CL3
A   38
C38
A   39
C39
A   40
C40
M  END
