3BEA_IXH_A_923
     RDKit          3D

 69 74  0  0  0  0  0  0  0  0999 V2000
   -0.5690   33.6610    5.6790 C   0  0  0  0  0  0  0  0  0  0  0  0
    0.3430   33.7460    6.8970 C   0  0  0  0  0  0  0  0  0  0  0  0
    1.4550   32.6540    6.8310 C   0  0  0  0  0  0  0  0  0  0  0  0
    2.9600   34.1300    8.1160 C   0  0  0  0  0  0  0  0  0  0  0  0
    1.8420   35.2100    8.1720 C   0  0  0  0  0  0  0  0  0  0  0  0
    2.4490   36.6100    8.2460 C   0  0  0  0  0  0  0  0  0  0  0  0
    3.2600   31.7420    8.2360 C   0  0  0  0  0  0  0  0  0  0  0  0
    3.7950   30.9080    7.1950 C   0  0  0  0  0  0  0  0  0  0  0  0
    4.7320   29.8660    7.4770 C   0  0  0  0  0  0  0  0  0  0  0  0
    5.1830   29.6120    8.8070 C   0  0  0  0  0  0  0  0  0  0  0  0
    4.6570   30.4290    9.8370 C   0  0  0  0  0  0  0  0  0  0  0  0
    3.7230   31.4650    9.5610 C   0  0  0  0  0  0  0  0  0  0  0  0
    6.6290   27.4980    8.5580 C   0  0  0  0  0  0  0  0  0  0  0  0
    7.8760   25.5360    8.5080 C   0  0  0  0  0  0  0  0  0  0  0  0
    7.5860   25.3150    7.1600 C   0  0  0  0  0  0  0  0  0  0  0  0
    8.0990   24.1450    6.4060 C   0  0  0  0  0  0  0  0  0  0  0  0
    7.7150   24.0200    4.9530 C   0  0  0  0  0  0  0  0  0  0  0  0
    6.9250   25.0020    4.4450 C   0  0  0  0  0  0  0  0  0  0  0  0
    5.6200   27.0930    4.4410 C   0  0  0  0  0  0  0  0  0  0  0  0
    4.2130   27.2460    4.6980 C   0  0  0  0  0  0  0  0  0  0  0  0
    3.4350   28.2240    3.9970 C   0  0  0  0  0  0  0  0  0  0  0  0
    4.0690   29.0400    3.0390 C   0  0  0  0  0  0  0  0  0  0  0  0
    3.4660   30.1210    2.1920 C   0  0  0  0  0  0  0  0  0  0  0  0
    4.5360   30.2890    1.0980 C   0  0  0  0  0  0  0  0  0  0  0  0
    5.8870   29.8780    1.7150 C   0  0  0  0  0  0  0  0  0  0  0  0
    5.4500   28.9040    2.7670 C   0  0  0  0  0  0  0  0  0  0  0  0
    6.2340   27.9480    3.4500 C   0  0  0  0  0  0  0  0  0  0  0  0
    6.7710   26.2820    6.5430 C   0  0  0  0  0  0  0  0  0  0  0  0
    8.1400   22.9190    4.0410 C   0  0  0  0  0  0  0  0  0  0  0  0
    2.3280   32.7860    8.0300 N   0  0  0  0  0  0  0  0  0  0  0  0
    7.4100   26.6090    9.2130 N   0  0  0  0  0  0  0  0  0  0  0  0
    6.4280   26.1280    5.1340 N   0  0  0  0  0  0  0  0  0  0  0  0
    6.3090   27.3510    7.2530 N   0  0  0  0  0  0  0  0  0  0  0  0
    6.0860   28.6030    9.1810 N   0  0  0  0  0  0  0  0  0  0  0  0
    0.9400   35.1250    6.9740 N   0  0  0  0  0  0  0  0  0  0  0  0
    8.9490   21.9600    4.5810 N   0  0  0  0  0  0  0  0  0  0  0  0
    8.8120   23.3170    6.9720 O   0  0  0  0  0  0  0  0  0  0  0  0
    7.8000   22.8600    2.8600 O   0  0  0  0  0  0  0  0  0  0  0  0
   -1.6137   33.5636    6.0093 H   0  0  0  0  0  0  0  0  0  0  0  0
   -0.4591   34.5733    5.0743 H   0  0  0  0  0  0  0  0  0  0  0  0
   -0.2924   32.7847    5.0743 H   0  0  0  0  0  0  0  0  0  0  0  0
   -0.2459   33.5609    7.8075 H   0  0  0  0  0  0  0  0  0  0  0  0
    0.9929   31.6559    6.8181 H   0  0  0  0  0  0  0  0  0  0  0  0
    2.0529   32.7838    5.9169 H   0  0  0  0  0  0  0  0  0  0  0  0
    3.5918   34.2982    7.2314 H   0  0  0  0  0  0  0  0  0  0  0  0
    3.5832   34.1915    9.0204 H   0  0  0  0  0  0  0  0  0  0  0  0
    1.2474   35.0191    9.0776 H   0  0  0  0  0  0  0  0  0  0  0  0
    2.5747   36.8999    9.2996 H   0  0  0  0  0  0  0  0  0  0  0  0
    3.4287   36.6118    7.7458 H   0  0  0  0  0  0  0  0  0  0  0  0
    1.7807   37.3263    7.7458 H   0  0  0  0  0  0  0  0  0  0  0  0
    3.4756   31.0756    6.1558 H   0  0  0  0  0  0  0  0  0  0  0  0
    5.1134   29.2469    6.6516 H   0  0  0  0  0  0  0  0  0  0  0  0
    4.9785   30.2582   10.8750 H   0  0  0  0  0  0  0  0  0  0  0  0
    3.3435   32.0742   10.3946 H   0  0  0  0  0  0  0  0  0  0  0  0
    8.5136   24.8072    9.0298 H   0  0  0  0  0  0  0  0  0  0  0  0
    6.6436   24.9091    3.3857 H   0  0  0  0  0  0  0  0  0  0  0  0
    3.7263   26.6016    5.4449 H   0  0  0  0  0  0  0  0  0  0  0  0
    2.3603   28.3360    4.2033 H   0  0  0  0  0  0  0  0  0  0  0  0
    2.5019   29.8064    1.7658 H   0  0  0  0  0  0  0  0  0  0  0  0
    3.2385   31.0462    2.7418 H   0  0  0  0  0  0  0  0  0  0  0  0
    4.3017   29.6427    0.2393 H   0  0  0  0  0  0  0  0  0  0  0  0
    4.5699   31.3290    0.7414 H   0  0  0  0  0  0  0  0  0  0  0  0
    6.5400   29.3993    0.9704 H   0  0  0  0  0  0  0  0  0  0  0  0
    6.4788   30.7208    2.1016 H   0  0  0  0  0  0  0  0  0  0  0  0
    7.3075   27.8544    3.2288 H   0  0  0  0  0  0  0  0  0  0  0  0
    6.4220   28.7142   10.1483 H   0  0  0  0  0  0  0  0  0  0  0  0
    1.4841   35.3124    6.1198 H   0  0  0  0  0  0  0  0  0  0  0  0
    9.0266   21.8680    5.6039 H   0  0  0  0  0  0  0  0  0  0  0  0
    9.4814   21.3289    3.9653 H   0  0  0  0  0  0  0  0  0  0  0  0
  1  2  1  0
  2  3  1  0
  2 35  1  0
  3 30  1  0
  4  5  1  0
 30  4  1  0
  5  6  1  0
 35  5  1  0
  8  7  2  0
 30  7  1  0
  7 12  1  0
  8  9  1  0
  9 10  2  0
 10 34  1  0
 10 11  1  0
 12 11  2  0
 33 13  1  0
 13 34  1  0
 13 31  2  0
 15 14  2  0
 14 31  1  0
 16 15  1  0
 28 15  1  0
 17 16  1  0
 16 37  2  0
 29 17  1  0
 18 17  2  0
 18 32  1  0
 27 19  1  0
 19 20  2  0
 19 32  1  0
 21 20  1  0
 22 21  2  0
 23 22  1  0
 26 22  1  0
 24 23  1  0
 24 25  1  0
 25 26  1  0
 26 27  2  0
 32 28  1  0
 28 33  2  0
 38 29  2  0
 29 36  1  0
  1 39  1  0
  1 40  1  0
  1 41  1  0
  2 42  1  0
  3 43  1  0
  3 44  1  0
  4 45  1  0
  4 46  1  0
  5 47  1  0
  6 48  1  0
  6 49  1  0
  6 50  1  0
  8 51  1  0
  9 52  1  0
 11 53  1  0
 12 54  1  0
 14 55  1  0
 18 56  1  0
 20 57  1  0
 21 58  1  0
 23 59  1  0
 23 60  1  0
 24 61  1  0
 24 62  1  0
 25 63  1  0
 25 64  1  0
 27 65  1  0
 34 66  1  0
 35 67  1  0
 36 68  1  0
 36 69  1  0
A    1
C1
A    2
C2
A    3
C3
A    4
C4
A    5
C5
A    6
C6
A    7
C7
A    8
C8
A    9
C9
A   10
C10
A   11
C11
A   12
C12
A   13
C13
A   14
C14
A   15
C15
A   16
C16
A   17
C17
A   18
C18
A   19
C19
A   20
C20
A   21
C21
A   22
C22
A   23
C23
A   24
C24
A   25
C25
A   26
C26
A   27
C27
A   28
C28
A   29
C29
A   30
N1
A   31
N2
A   32
N3
A   33
N4
A   34
N5
A   35
N6
A   36
N7
A   37
O1
A   38
O2
M  END
