3BEJ_MUF_A_473
     RDKit          3D

 63 67  0  0  0  0  0  0  0  0999 V2000
   22.2900   -9.4740    6.1950 C   0  0  0  0  0  0  0  0  0  0  0  0
   21.8420   -9.9470    4.7820 C   0  0  0  0  0  0  0  0  0  0  0  0
   21.1850  -11.3190    4.8900 C   0  0  0  0  0  0  0  0  0  0  0  0
   20.6410  -11.7950    6.0460 C   0  0  0  0  0  0  0  0  0  0  0  0
   20.6320  -11.0300    7.2930 C   0  0  0  0  0  0  0  0  0  0  0  0
   20.2290  -11.6210    8.4540 C   0  0  0  0  0  0  0  0  0  0  0  0
   20.1590  -10.8810    9.7720 C   0  0  0  0  0  0  0  0  0  0  0  0
   20.5120   -9.3430    9.7630 C   0  0  0  0  0  0  0  0  0  0  0  0
   21.6100   -9.0680    8.6850 C   0  0  0  0  0  0  0  0  0  0  0  0
   21.0990   -9.5420    7.2460 C   0  0  0  0  0  0  0  0  0  0  0  0
   22.0070   -7.5610    8.6590 C   0  0  0  0  0  0  0  0  0  0  0  0
   22.4590   -7.0870   10.0610 C   0  0  0  0  0  0  0  0  0  0  0  0
   21.3560   -7.3440   11.1680 C   0  0  0  0  0  0  0  0  0  0  0  0
   21.0110   -8.8670   11.1360 C   0  0  0  0  0  0  0  0  0  0  0  0
   20.0080   -8.9940   12.3020 C   0  0  0  0  0  0  0  0  0  0  0  0
   20.5310   -7.9400   13.3230 C   0  0  0  0  0  0  0  0  0  0  0  0
   21.7760   -7.2720   12.6610 C   0  0  0  0  0  0  0  0  0  0  0  0
   20.1310   -6.4030   10.8190 C   0  0  0  0  0  0  0  0  0  0  0  0
   19.8870   -8.6300    6.7660 C   0  0  0  0  0  0  0  0  0  0  0  0
   22.1100   -5.7930   12.9620 C   0  0  0  0  0  0  0  0  0  0  0  0
   21.2020   -4.9670   13.0830 O   0  0  0  0  0  0  0  0  0  0  0  0
   21.1160  -12.2400    3.7600 C   0  0  0  0  0  0  0  0  0  0  0  0
   21.3200  -11.6060    2.5960 O   0  0  0  0  0  0  0  0  0  0  0  0
   20.9290  -13.4410    3.8530 O   0  0  0  0  0  0  0  0  0  0  0  0
   23.5130   -5.2940   13.0660 C   0  0  0  0  0  0  0  0  0  0  0  0
   24.6070   -6.1380   13.4260 C   0  0  0  0  0  0  0  0  0  0  0  0
   25.9110   -5.5880   13.5060 C   0  0  0  0  0  0  0  0  0  0  0  0
   26.1230   -4.2250   13.2390 C   0  0  0  0  0  0  0  0  0  0  0  0
   25.0510   -3.3700   12.8910 C   0  0  0  0  0  0  0  0  0  0  0  0
   23.7430   -3.9140   12.8010 C   0  0  0  0  0  0  0  0  0  0  0  0
   27.3970   -3.7510   13.3440 O   0  0  0  0  0  0  0  0  0  0  0  0
   22.6455   -8.4353    6.1266 H   0  0  0  0  0  0  0  0  0  0  0  0
   23.0905  -10.1440    6.5418 H   0  0  0  0  0  0  0  0  0  0  0  0
   21.1218   -9.2273    4.3656 H   0  0  0  0  0  0  0  0  0  0  0  0
   22.7193  -10.0115    4.1216 H   0  0  0  0  0  0  0  0  0  0  0  0
   20.1892  -12.7979    6.0408 H   0  0  0  0  0  0  0  0  0  0  0  0
   19.9421  -12.6827    8.4314 H   0  0  0  0  0  0  0  0  0  0  0  0
   19.1316  -10.9811   10.1521 H   0  0  0  0  0  0  0  0  0  0  0  0
   20.9382  -11.3440   10.3953 H   0  0  0  0  0  0  0  0  0  0  0  0
   19.5948   -8.7849    9.5237 H   0  0  0  0  0  0  0  0  0  0  0  0
   22.5073   -9.6463    8.9505 H   0  0  0  0  0  0  0  0  0  0  0  0
   22.8327   -7.4179    7.9465 H   0  0  0  0  0  0  0  0  0  0  0  0
   21.1305   -6.9709    8.3532 H   0  0  0  0  0  0  0  0  0  0  0  0
   23.3736   -7.6307   10.3402 H   0  0  0  0  0  0  0  0  0  0  0  0
   22.6360   -6.0026   10.0083 H   0  0  0  0  0  0  0  0  0  0  0  0
   21.8746   -9.5349   11.2707 H   0  0  0  0  0  0  0  0  0  0  0  0
   18.9860   -8.7543   11.9734 H   0  0  0  0  0  0  0  0  0  0  0  0
   19.9492  -10.0109   12.7172 H   0  0  0  0  0  0  0  0  0  0  0  0
   19.7555   -7.1861   13.5236 H   0  0  0  0  0  0  0  0  0  0  0  0
   20.7910   -8.4079   14.2840 H   0  0  0  0  0  0  0  0  0  0  0  0
   22.6797   -7.7833   13.0242 H   0  0  0  0  0  0  0  0  0  0  0  0
   19.6661   -6.0459   11.7498 H   0  0  0  0  0  0  0  0  0  0  0  0
   20.4851   -5.5425   10.2324 H   0  0  0  0  0  0  0  0  0  0  0  0
   19.3909   -6.9670   10.2324 H   0  0  0  0  0  0  0  0  0  0  0  0
   19.3576   -8.2317    7.6441 H   0  0  0  0  0  0  0  0  0  0  0  0
   20.2727   -7.7962    6.1610 H   0  0  0  0  0  0  0  0  0  0  0  0
   19.1927   -9.2315    6.1610 H   0  0  0  0  0  0  0  0  0  0  0  0
   20.8631  -13.8641    4.7456 H   0  0  0  0  0  0  0  0  0  0  0  0
   24.4396   -7.2041   13.6391 H   0  0  0  0  0  0  0  0  0  0  0  0
   26.7608   -6.2312   13.7783 H   0  0  0  0  0  0  0  0  0  0  0  0
   25.2280   -2.3024   12.6936 H   0  0  0  0  0  0  0  0  0  0  0  0
   22.8999   -3.2640   12.5242 H   0  0  0  0  0  0  0  0  0  0  0  0
   27.7977   -3.6019   14.2369 H   0  0  0  0  0  0  0  0  0  0  0  0
 10  1  1  0
  1  2  1  0
  2  3  1  0
  3  4  2  0
  3 22  1  0
  5  4  1  0
 10  5  1  0
  5  6  2  0
  7  6  1  0
  8  7  1  0
 14  8  1  0
  9  8  1  0
 11  9  1  0
  9 10  1  0
 19 10  1  0
 12 11  1  0
 12 13  1  0
 18 13  1  0
 17 13  1  0
 13 14  1  0
 14 15  1  0
 16 15  1  0
 17 16  1  0
 20 17  1  0
 21 20  2  0
 25 20  1  0
 23 22  2  0
 22 24  1  0
 30 25  1  0
 25 26  2  0
 27 26  1  0
 28 27  2  0
 29 28  1  0
 31 28  1  0
 29 30  2  0
  1 32  1  0
  1 33  1  0
  2 34  1  0
  2 35  1  0
  4 36  1  0
  6 37  1  0
  7 38  1  0
  7 39  1  0
  8 40  1  0
  9 41  1  0
 11 42  1  0
 11 43  1  0
 12 44  1  0
 12 45  1  0
 14 46  1  0
 15 47  1  0
 15 48  1  0
 16 49  1  0
 16 50  1  0
 17 51  1  0
 18 52  1  0
 18 53  1  0
 18 54  1  0
 19 55  1  0
 19 56  1  0
 19 57  1  0
 24 58  1  0
 26 59  1  0
 27 60  1  0
 29 61  1  0
 30 62  1  0
 31 63  1  0
A    1
C1
A    2
C2
A    3
C3
A    4
C4
A    5
C5
A    6
C6
A    7
C7
A    8
C8
A    9
C9
A   10
C10
A   11
C11
A   12
C12
A   13
C13
A   14
C14
A   15
C15
A   16
C16
A   17
C17
A   18
C18
A   19
C19
A   20
C20
A   21
O52
A   22
C28
A   23
O76
A   24
O82
A   25
C52
A   26
C53
A   27
C54
A   28
C55
A   29
C56
A   30
C57
A   31
O57
M  END
