1SLN_INH_A_256
     RDKit          3D

 70 71  0  0  0  0  0  0  0  0999 V2000
  -20.8810   92.7570   80.0450 C   0  0  0  0  0  0  0  0  0  0  0  0
  -20.6740   91.7610   81.2030 C   0  0  0  0  0  0  0  0  0  0  0  0
  -21.4490   92.1930   82.4460 C   0  0  0  0  0  0  0  0  0  0  0  0
  -22.5710   92.6880   82.2780 O   0  0  0  0  0  0  0  0  0  0  0  0
  -20.9680   92.0520   83.6000 O   0  0  0  0  0  0  0  0  0  0  0  0
  -19.2180   91.5520   81.4010 N   0  0  0  0  0  0  0  0  0  0  0  0
  -18.4830   92.7610   81.7960 C   0  0  0  0  0  0  0  0  0  0  0  0
  -17.6010   92.4470   83.0160 C   0  0  0  0  0  0  0  0  0  0  0  0
  -16.6970   93.5990   83.4310 C   0  0  0  0  0  0  0  0  0  0  0  0
  -15.9460   93.4590   84.7170 C   0  0  0  0  0  0  0  0  0  0  0  0
  -16.1080   94.3990   85.7320 C   0  0  0  0  0  0  0  0  0  0  0  0
  -15.4040   94.2980   86.9130 C   0  0  0  0  0  0  0  0  0  0  0  0
  -14.5200   93.2530   87.1000 C   0  0  0  0  0  0  0  0  0  0  0  0
  -14.3430   92.3040   86.0990 C   0  0  0  0  0  0  0  0  0  0  0  0
  -15.0570   92.4120   84.9130 C   0  0  0  0  0  0  0  0  0  0  0  0
  -17.6120   93.1920   80.6250 C   0  0  0  0  0  0  0  0  0  0  0  0
  -17.0520   92.3480   79.9240 O   0  0  0  0  0  0  0  0  0  0  0  0
  -17.5090   94.4990   80.4140 N   0  0  0  0  0  0  0  0  0  0  0  0
  -16.6880   95.0260   79.3340 C   0  0  0  0  0  0  0  0  0  0  0  0
  -17.3250   96.2500   78.7240 C   0  0  0  0  0  0  0  0  0  0  0  0
  -18.7080   96.0660   78.2300 C   0  0  0  0  0  0  0  0  0  0  0  0
  -19.1180   97.3930   77.7240 C   0  0  0  0  0  0  0  0  0  0  0  0
  -20.4800   97.4260   77.2320 N   0  0  0  0  0  0  0  0  0  0  0  0
  -21.2060   98.5430   77.2000 C   0  0  0  0  0  0  0  0  0  0  0  0
  -22.4510   98.5220   76.7260 N   0  0  0  0  0  0  0  0  0  0  0  0
  -20.6810   99.6840   77.6540 N   0  0  0  0  0  0  0  0  0  0  0  0
  -15.3180   95.4410   79.8410 C   0  0  0  0  0  0  0  0  0  0  0  0
  -15.1850   95.8800   80.9810 O   0  0  0  0  0  0  0  0  0  0  0  0
  -14.3380   95.4060   78.9360 N   0  0  0  0  0  0  0  0  0  0  0  0
  -13.0100   95.7090   79.0520 C   0  0  0  0  0  0  0  0  0  0  0  0
  -12.1430   95.2530   78.0650 C   0  0  0  0  0  0  0  0  0  0  0  0
  -10.7660   95.4940   78.1530 C   0  0  0  0  0  0  0  0  0  0  0  0
  -10.2570   96.1960   79.2290 C   0  0  0  0  0  0  0  0  0  0  0  0
  -11.1100   96.6600   80.2160 C   0  0  0  0  0  0  0  0  0  0  0  0
  -12.4840   96.4150   80.1230 C   0  0  0  0  0  0  0  0  0  0  0  0
  -21.0888   93.7568   80.4540 H   0  0  0  0  0  0  0  0  0  0  0  0
  -19.9716   92.7953   79.4273 H   0  0  0  0  0  0  0  0  0  0  0  0
  -21.7303   92.4298   79.4273 H   0  0  0  0  0  0  0  0  0  0  0  0
  -21.0979   90.7760   80.9580 H   0  0  0  0  0  0  0  0  0  0  0  0
  -21.5334   92.2177   84.3956 H   0  0  0  0  0  0  0  0  0  0  0  0
  -19.0909   90.8422   82.1365 H   0  0  0  0  0  0  0  0  0  0  0  0
  -19.1826   93.5672   82.0616 H   0  0  0  0  0  0  0  0  0  0  0  0
  -18.2566   92.1975   83.8633 H   0  0  0  0  0  0  0  0  0  0  0  0
  -16.9455   91.6107   82.7317 H   0  0  0  0  0  0  0  0  0  0  0  0
  -15.9560   93.7412   82.6305 H   0  0  0  0  0  0  0  0  0  0  0  0
  -17.3798   94.4455   83.5960 H   0  0  0  0  0  0  0  0  0  0  0  0
  -16.8086   95.2349   85.5890 H   0  0  0  0  0  0  0  0  0  0  0  0
  -15.5459   95.0481   87.7050 H   0  0  0  0  0  0  0  0  0  0  0  0
  -13.9560   93.1715   88.0409 H   0  0  0  0  0  0  0  0  0  0  0  0
  -13.6400   91.4709   86.2462 H   0  0  0  0  0  0  0  0  0  0  0  0
  -14.9166   91.6608   84.1218 H   0  0  0  0  0  0  0  0  0  0  0  0
  -18.0194   95.1517   81.0258 H   0  0  0  0  0  0  0  0  0  0  0  0
  -16.5944   94.2232   78.5878 H   0  0  0  0  0  0  0  0  0  0  0  0
  -17.3399   97.0414   79.4879 H   0  0  0  0  0  0  0  0  0  0  0  0
  -16.7183   96.4996   77.8411 H   0  0  0  0  0  0  0  0  0  0  0  0
  -18.7330   95.3203   77.4217 H   0  0  0  0  0  0  0  0  0  0  0  0
  -19.3815   95.7006   79.0192 H   0  0  0  0  0  0  0  0  0  0  0  0
  -19.0253   98.1220   78.5425 H   0  0  0  0  0  0  0  0  0  0  0  0
  -18.4606   97.6341   76.8756 H   0  0  0  0  0  0  0  0  0  0  0  0
  -20.9045   96.5508   76.8932 H   0  0  0  0  0  0  0  0  0  0  0  0
  -23.2495   98.5085   77.3764 H   0  0  0  0  0  0  0  0  0  0  0  0
  -22.6149   98.5192   75.7091 H   0  0  0  0  0  0  0  0  0  0  0  0
  -21.2365  100.5511   77.6322 H   0  0  0  0  0  0  0  0  0  0  0  0
  -19.7206   99.6969   78.0259 H   0  0  0  0  0  0  0  0  0  0  0  0
  -14.6298   95.1008   77.9965 H   0  0  0  0  0  0  0  0  0  0  0  0
  -12.5434   94.6964   77.2048 H   0  0  0  0  0  0  0  0  0  0  0  0
  -10.0908   95.1251   77.3668 H   0  0  0  0  0  0  0  0  0  0  0  0
   -9.1759   96.3859   79.3012 H   0  0  0  0  0  0  0  0  0  0  0  0
  -10.7075   97.2208   81.0725 H   0  0  0  0  0  0  0  0  0  0  0  0
  -13.1561   96.7874   80.9101 H   0  0  0  0  0  0  0  0  0  0  0  0
  1  2  1  0
  2  3  1  0
  2  6  1  0
  3  4  2  0
  3  5  1  0
  6  7  1  0
  7  8  1  0
  7 16  1  0
  8  9  1  0
  9 10  1  0
 10 11  2  0
 10 15  1  0
 11 12  1  0
 12 13  2  0
 13 14  1  0
 14 15  2  0
 16 17  2  0
 16 18  1  0
 18 19  1  0
 19 20  1  0
 19 27  1  0
 20 21  1  0
 21 22  1  0
 22 23  1  0
 23 24  1  0
 24 25  1  0
 24 26  2  3
 27 28  2  0
 27 29  1  0
 29 30  1  0
 30 31  2  0
 30 35  1  0
 31 32  1  0
 32 33  2  0
 33 34  1  0
 34 35  2  0
  1 36  1  0
  1 37  1  0
  1 38  1  0
  2 39  1  0
  5 40  1  0
  6 41  1  0
  7 42  1  0
  8 43  1  0
  8 44  1  0
  9 45  1  0
  9 46  1  0
 11 47  1  0
 12 48  1  0
 13 49  1  0
 14 50  1  0
 15 51  1  0
 18 52  1  0
 19 53  1  0
 20 54  1  0
 20 55  1  0
 21 56  1  0
 21 57  1  0
 22 58  1  0
 22 59  1  0
 23 60  1  0
 25 61  1  0
 25 62  1  0
 26 63  1  0
 26 64  1  0
 29 65  1  0
 31 66  1  0
 32 67  1  0
 33 68  1  0
 34 69  1  0
 35 70  1  0
M  CHG  1  26   1
A    1
C1
A    2
C2
A    3
C3
A    4
O4
A    5
O5
A    6
N6
A    7
C7
A    8
C8
A    9
C9
A   10
C10
A   11
C11
A   12
C12
A   13
C13
A   14
C14
A   15
C15
A   16
C16
A   17
O17
A   18
N18
A   19
C19
A   20
C20
A   21
C21
A   22
C22
A   23
N23
A   24
C24
A   25
N25
A   26
N26
A   27
C27
A   28
O28
A   29
N29
A   30
C30
A   31
C31
A   32
C32
A   33
C33
A   34
C34
A   35
C35
M  END
