3BGP_VX1_A_314
     RDKit          3D

 34 37  0  0  0  0  0  0  0  0999 V2000
   20.1800   30.8870   -1.0710 N   0  0  0  0  0  0  0  0  0  0  0  0
   20.7840   31.5580   -0.0210 C   0  0  0  0  0  0  0  0  0  0  0  0
   20.9980   30.9140    1.1410 N   0  0  0  0  0  0  0  0  0  0  0  0
   21.5830   31.5320    2.1850 C   0  0  0  0  0  0  0  0  0  0  0  0
   21.9800   32.8730    2.0710 C   0  0  0  0  0  0  0  0  0  0  0  0
   21.7410   33.5360    0.8290 C   0  0  0  0  0  0  0  0  0  0  0  0
   21.1440   32.8410   -0.1750 N   0  0  0  0  0  0  0  0  0  0  0  0
   22.1290   34.9740    0.6120 C   0  0  0  0  0  0  0  0  0  0  0  0
   22.3240   35.8590    1.7310 C   0  0  0  0  0  0  0  0  0  0  0  0
   22.6790   37.1840    1.5580 C   0  0  0  0  0  0  0  0  0  0  0  0
   22.8630   37.7150    0.2330 C   0  0  0  0  0  0  0  0  0  0  0  0
   23.1850   38.8750   -0.2820 N   0  0  0  0  0  0  0  0  0  0  0  0
   23.2210   38.8600   -1.4880 O   0  0  0  0  0  0  0  0  0  0  0  0
   22.9240   37.6680   -2.0420 C   0  0  0  0  0  0  0  0  0  0  0  0
   22.8980   37.3920   -3.5140 C   0  0  0  0  0  0  0  0  0  0  0  0
   22.6760   36.0790   -4.0550 C   0  0  0  0  0  0  0  0  0  0  0  0
   22.6630   35.8870   -5.4520 C   0  0  0  0  0  0  0  0  0  0  0  0
   22.8700   36.9850   -6.3200 C   0  0  0  0  0  0  0  0  0  0  0  0
   22.8530   36.7450   -8.0380 Cl  0  0  0  0  0  0  0  0  0  0  0  0
   23.0880   38.2740   -5.7990 C   0  0  0  0  0  0  0  0  0  0  0  0
   23.1040   38.4840   -4.4140 C   0  0  0  0  0  0  0  0  0  0  0  0
   22.6630   36.8070   -0.9450 C   0  0  0  0  0  0  0  0  0  0  0  0
   22.2970   35.4470   -0.7110 C   0  0  0  0  0  0  0  0  0  0  0  0
   19.5029   30.1347   -0.8800 H   0  0  0  0  0  0  0  0  0  0  0  0
   20.4079   31.1402   -2.0431 H   0  0  0  0  0  0  0  0  0  0  0  0
   21.7493   30.9863    3.1255 H   0  0  0  0  0  0  0  0  0  0  0  0
   22.4598   33.3966    2.9111 H   0  0  0  0  0  0  0  0  0  0  0  0
   22.1868   35.4704    2.7509 H   0  0  0  0  0  0  0  0  0  0  0  0
   22.8210   37.8334    2.4344 H   0  0  0  0  0  0  0  0  0  0  0  0
   22.5165   35.2251   -3.3802 H   0  0  0  0  0  0  0  0  0  0  0  0
   22.4918   34.8829   -5.8672 H   0  0  0  0  0  0  0  0  0  0  0  0
   23.2466   39.1210   -6.4827 H   0  0  0  0  0  0  0  0  0  0  0  0
   23.2761   39.4951   -4.0164 H   0  0  0  0  0  0  0  0  0  0  0  0
   22.1453   34.7654   -1.5610 H   0  0  0  0  0  0  0  0  0  0  0  0
  1  2  1  0
  2  3  2  0
  2  7  1  0
  3  4  1  0
  4  5  2  0
  5  6  1  0
  6  7  2  0
  6  8  1  0
  8  9  1  0
  8 23  2  0
  9 10  2  0
 10 11  1  0
 11 12  2  0
 11 22  1  0
 12 13  1  0
 13 14  1  0
 14 15  1  0
 14 22  2  0
 15 16  2  0
 15 21  1  0
 16 17  1  0
 17 18  2  0
 18 19  1  0
 18 20  1  0
 20 21  2  0
 22 23  1  0
  1 24  1  0
  1 25  1  0
  4 26  1  0
  5 27  1  0
  9 28  1  0
 10 29  1  0
 16 30  1  0
 17 31  1  0
 20 32  1  0
 21 33  1  0
 23 34  1  0
A    1
N1
A    2
C2
A    3
N3
A    4
C4
A    5
C5
A    6
C6
A    7
N7
A    8
C8
A    9
C9
A   10
C10
A   11
C11
A   12
N12
A   13
O13
A   14
C14
A   15
C15
A   16
C16
A   17
C17
A   18
C18
A   19
CL19
A   20
C20
A   21
C21
A   22
C22
A   23
C23
M  END
