3BGQ_VX2_A_314
     RDKit          3D

 44 47  0  0  0  0  0  0  0  0999 V2000
  -21.5640   39.2750   -0.8230 C   0  0  0  0  0  0  0  0  0  0  0  0
  -16.2310   34.6350    0.9100 N   0  0  0  0  0  0  0  0  0  0  0  0
  -20.6710   39.3180    1.6790 C   0  0  0  0  0  0  0  0  0  0  0  0
  -19.7840   38.8080    2.7170 C   0  0  0  0  0  0  0  0  0  0  0  0
  -18.8380   37.7400    2.4120 C   0  0  0  0  0  0  0  0  0  0  0  0
  -16.3130   34.7450   -0.4160 C   0  0  0  0  0  0  0  0  0  0  0  0
  -15.6650   34.1930   -1.5590 C   0  0  0  0  0  0  0  0  0  0  0  0
  -17.1340   35.6220   -3.0730 C   0  0  0  0  0  0  0  0  0  0  0  0
  -18.7260   36.7960   -4.5320 C   0  0  0  0  0  0  0  0  0  0  0  0
  -20.6350   38.7610    0.3000 C   0  0  0  0  0  0  0  0  0  0  0  0
  -19.6690   37.6890    0.0450 C   0  0  0  0  0  0  0  0  0  0  0  0
  -16.0860   34.6410   -2.8710 C   0  0  0  0  0  0  0  0  0  0  0  0
  -19.4950   39.1950   -4.7490 C   0  0  0  0  0  0  0  0  0  0  0  0
  -17.0520   35.4020    1.6060 N   0  0  0  0  0  0  0  0  0  0  0  0
  -22.8460   39.1240   -0.4020 F   0  0  0  0  0  0  0  0  0  0  0  0
  -21.4520   38.5530   -1.9700 F   0  0  0  0  0  0  0  0  0  0  0  0
  -21.2250   40.5650   -1.0910 F   0  0  0  0  0  0  0  0  0  0  0  0
  -18.7630   37.1610    1.0590 C   0  0  0  0  0  0  0  0  0  0  0  0
  -17.7620   36.1100    0.6880 C   0  0  0  0  0  0  0  0  0  0  0  0
  -17.5350   36.0030   -4.3410 N   0  0  0  0  0  0  0  0  0  0  0  0
  -18.3410   38.2660   -4.4010 C   0  0  0  0  0  0  0  0  0  0  0  0
  -20.1000   38.8660   -6.1070 C   0  0  0  0  0  0  0  0  0  0  0  0
  -20.5320   37.4090   -6.2070 C   0  0  0  0  0  0  0  0  0  0  0  0
  -19.3900   36.4560   -5.8840 C   0  0  0  0  0  0  0  0  0  0  0  0
  -17.7050   36.1100   -1.9040 N   0  0  0  0  0  0  0  0  0  0  0  0
  -17.3310   35.7150   -0.5950 N   0  0  0  0  0  0  0  0  0  0  0  0
  -21.3773   40.1265    1.9187 H   0  0  0  0  0  0  0  0  0  0  0  0
  -19.8279   39.2291    3.7323 H   0  0  0  0  0  0  0  0  0  0  0  0
  -18.1723   37.3622    3.2020 H   0  0  0  0  0  0  0  0  0  0  0  0
  -14.8655   33.4457   -1.4480 H   0  0  0  0  0  0  0  0  0  0  0  0
  -19.4813   36.5694   -3.7651 H   0  0  0  0  0  0  0  0  0  0  0  0
  -19.6246   37.2589   -0.9665 H   0  0  0  0  0  0  0  0  0  0  0  0
  -15.5872   34.2170   -3.7550 H   0  0  0  0  0  0  0  0  0  0  0  0
  -19.1248   40.2307   -4.7662 H   0  0  0  0  0  0  0  0  0  0  0  0
  -20.2778   39.0659   -3.9871 H   0  0  0  0  0  0  0  0  0  0  0  0
  -16.9772   35.7175   -5.1584 H   0  0  0  0  0  0  0  0  0  0  0  0
  -18.0304   38.4599   -3.3637 H   0  0  0  0  0  0  0  0  0  0  0  0
  -17.5219   38.4651   -5.1077 H   0  0  0  0  0  0  0  0  0  0  0  0
  -20.9787   39.5078   -6.2681 H   0  0  0  0  0  0  0  0  0  0  0  0
  -19.3293   39.0428   -6.8717 H   0  0  0  0  0  0  0  0  0  0  0  0
  -21.3543   37.2322   -5.4980 H   0  0  0  0  0  0  0  0  0  0  0  0
  -20.8533   37.2185   -7.2416 H   0  0  0  0  0  0  0  0  0  0  0  0
  -18.6334   36.5240   -6.6796 H   0  0  0  0  0  0  0  0  0  0  0  0
  -19.8019   35.4382   -5.8169 H   0  0  0  0  0  0  0  0  0  0  0  0
 16  1  1  0
 17  1  1  0
  1 15  1  0
  1 10  1  0
  6  2  2  0
  2 14  1  0
 10  3  2  0
  3  4  1  0
  5  4  2  0
 18  5  1  0
  7  6  1  0
 26  6  1  0
 12  7  2  0
 20  8  1  0
  8 12  1  0
  8 25  2  0
 24  9  1  0
  9 21  1  0
  9 20  1  0
 11 10  1  0
 11 18  2  0
 22 13  1  0
 13 21  1  0
 19 14  2  0
 19 18  1  0
 26 19  1  0
 23 22  1  0
 23 24  1  0
 25 26  1  0
  3 27  1  0
  4 28  1  0
  5 29  1  0
  7 30  1  0
  9 31  1  0
 11 32  1  0
 12 33  1  0
 13 34  1  0
 13 35  1  0
 20 36  1  0
 21 37  1  0
 21 38  1  0
 22 39  1  0
 22 40  1  0
 23 41  1  0
 23 42  1  0
 24 43  1  0
 24 44  1  0
A    1
C1
A    2
N2
A    3
C3
A    4
C4
A    5
C5
A    6
C9
A    7
C10
A    8
C12
A    9
C13
A   10
C2
A   11
C7
A   12
C11
A   13
C15
A   14
N1
A   15
F1
A   16
F2
A   17
F3
A   18
C6
A   19
C8
A   20
N3
A   21
C14
A   22
C16
A   23
C17
A   24
C18
A   25
N4
A   26
N5
M  END
