3BGZ_VX3_A_314
     RDKit          3D

 39 42  0  0  0  0  0  0  0  0999 V2000
  -16.3530   34.6390    1.3060 O   0  0  0  0  0  0  0  0  0  0  0  0
  -19.4690   37.5860   -1.0230 C   0  0  0  0  0  0  0  0  0  0  0  0
  -22.3520   39.8790   -1.9770 C   0  0  0  0  0  0  0  0  0  0  0  0
  -16.6360   35.5370    2.2610 C   0  0  0  0  0  0  0  0  0  0  0  0
  -15.9970   35.5420    3.3100 O   0  0  0  0  0  0  0  0  0  0  0  0
  -17.6710   36.5480    1.9860 C   0  0  0  0  0  0  0  0  0  0  0  0
  -18.1840   36.6870    0.6720 C   0  0  0  0  0  0  0  0  0  0  0  0
  -17.9570   36.0140   -0.5040 N   0  0  0  0  0  0  0  0  0  0  0  0
  -18.7050   36.5490   -1.5230 C   0  0  0  0  0  0  0  0  0  0  0  0
  -18.6940   36.0300   -2.9150 C   0  0  0  0  0  0  0  0  0  0  0  0
  -19.8780   36.0240   -3.6840 C   0  0  0  0  0  0  0  0  0  0  0  0
  -19.8540   35.5270   -4.9790 C   0  0  0  0  0  0  0  0  0  0  0  0
  -18.6690   35.0290   -5.5120 C   0  0  0  0  0  0  0  0  0  0  0  0
  -17.5040   35.0110   -4.7480 C   0  0  0  0  0  0  0  0  0  0  0  0
  -17.5090   35.5010   -3.4590 C   0  0  0  0  0  0  0  0  0  0  0  0
  -20.3690   38.5260   -1.7500 C   0  0  0  0  0  0  0  0  0  0  0  0
  -21.6090   38.9520   -1.2530 C   0  0  0  0  0  0  0  0  0  0  0  0
  -21.8720   40.4050   -3.1770 C   0  0  0  0  0  0  0  0  0  0  0  0
  -20.6330   40.0140   -3.6680 C   0  0  0  0  0  0  0  0  0  0  0  0
  -19.8850   39.0960   -2.9540 C   0  0  0  0  0  0  0  0  0  0  0  0
  -19.1250   37.6950    0.4060 C   0  0  0  0  0  0  0  0  0  0  0  0
  -19.5470   38.5420    1.4370 C   0  0  0  0  0  0  0  0  0  0  0  0
  -19.0540   38.4060    2.7160 C   0  0  0  0  0  0  0  0  0  0  0  0
  -18.1020   37.4260    2.9930 C   0  0  0  0  0  0  0  0  0  0  0  0
  -23.3327   40.2022   -1.5977 H   0  0  0  0  0  0  0  0  0  0  0  0
  -16.4717   35.5383    4.1788 H   0  0  0  0  0  0  0  0  0  0  0  0
  -17.3132   35.2166   -0.6070 H   0  0  0  0  0  0  0  0  0  0  0  0
  -20.8153   36.4116   -3.2583 H   0  0  0  0  0  0  0  0  0  0  0  0
  -20.7722   35.5266   -5.5848 H   0  0  0  0  0  0  0  0  0  0  0  0
  -18.6519   34.6470   -6.5434 H   0  0  0  0  0  0  0  0  0  0  0  0
  -16.5757   34.6039   -5.1751 H   0  0  0  0  0  0  0  0  0  0  0  0
  -16.5885   35.4784   -2.8573 H   0  0  0  0  0  0  0  0  0  0  0  0
  -21.9906   38.5571   -0.2999 H   0  0  0  0  0  0  0  0  0  0  0  0
  -22.4778   41.1328   -3.7368 H   0  0  0  0  0  0  0  0  0  0  0  0
  -20.2517   40.4292   -4.6126 H   0  0  0  0  0  0  0  0  0  0  0  0
  -18.8934   38.8019   -3.3284 H   0  0  0  0  0  0  0  0  0  0  0  0
  -20.2846   39.3294    1.2225 H   0  0  0  0  0  0  0  0  0  0  0  0
  -19.4109   39.0696    3.5175 H   0  0  0  0  0  0  0  0  0  0  0  0
  -17.6857   37.3401    4.0076 H   0  0  0  0  0  0  0  0  0  0  0  0
  1  4  2  0
 16  2  1  0
  9  2  2  0
  2 21  1  0
 18  3  2  0
  3 17  1  0
  6  4  1  0
  4  5  1  0
  7  6  2  0
  6 24  1  0
  8  7  1  0
 21  7  1  0
  9  8  1  0
 10  9  1  0
 11 10  2  0
 15 10  1  0
 12 11  1  0
 13 12  2  0
 13 14  1  0
 14 15  2  0
 20 16  1  0
 16 17  2  0
 19 18  1  0
 19 20  2  0
 21 22  2  0
 22 23  1  0
 23 24  2  0
  3 25  1  0
  5 26  1  0
  8 27  1  0
 11 28  1  0
 12 29  1  0
 13 30  1  0
 14 31  1  0
 15 32  1  0
 17 33  1  0
 18 34  1  0
 19 35  1  0
 20 36  1  0
 22 37  1  0
 23 38  1  0
 24 39  1  0
A    1
O2
A    2
C16
A    3
C19
A    4
C3
A    5
O4
A    6
C5
A    7
C6
A    8
N7
A    9
C9
A   10
C10
A   11
C11
A   12
C12
A   13
C13
A   14
C14
A   15
C15
A   16
C17
A   17
C18
A   18
C20
A   19
C21
A   20
C22
A   21
C23
A   22
C24
A   23
C25
A   24
C26
M  END
