3BHH_5CP_A_600
     RDKit          3D

 47 50  0  0  0  0  0  0  0  0999 V2000
   20.1700   67.7260   31.4790 C   0  0  0  0  0  0  0  0  0  0  0  0
   19.1010   68.4340   30.9780 C   0  0  0  0  0  0  0  0  0  0  0  0
   17.9100   67.7990   30.7050 C   0  0  0  0  0  0  0  0  0  0  0  0
   17.8080   66.4690   30.9130 N   0  0  0  0  0  0  0  0  0  0  0  0
   19.9780   66.4170   31.6880 N   0  0  0  0  0  0  0  0  0  0  0  0
   24.2330   64.0200   32.7110 C   0  0  0  0  0  0  0  0  0  0  0  0
   24.7120   64.6700   34.0220 C   0  0  0  0  0  0  0  0  0  0  0  0
   25.0260   65.3160   32.6790 C   0  0  0  0  0  0  0  0  0  0  0  0
   24.2010   66.5180   32.2650 C   0  0  0  0  0  0  0  0  0  0  0  0
   22.8710   66.6000   32.3420 C   0  0  0  0  0  0  0  0  0  0  0  0
   24.7150   67.6370   31.7320 N   0  0  0  0  0  0  0  0  0  0  0  0
   23.7520   68.3910   31.4980 N   0  0  0  0  0  0  0  0  0  0  0  0
   22.5830   67.8060   31.8030 C   0  0  0  0  0  0  0  0  0  0  0  0
   21.3540   68.3860   31.7270 N   0  0  0  0  0  0  0  0  0  0  0  0
   16.8780   68.4980   30.2140 N   0  0  0  0  0  0  0  0  0  0  0  0
   16.8340   69.9860   30.2340 C   0  0  0  0  0  0  0  0  0  0  0  0
   18.8350   65.7800   31.4020 C   0  0  0  0  0  0  0  0  0  0  0  0
   18.7210   64.4460   31.5870 N   0  0  0  0  0  0  0  0  0  0  0  0
   19.5340   63.6530   32.3410 C   0  0  0  0  0  0  0  0  0  0  0  0
   19.8650   63.9690   33.6740 C   0  0  0  0  0  0  0  0  0  0  0  0
   20.6600   63.1370   34.4650 C   0  0  0  0  0  0  0  0  0  0  0  0
   20.0290   62.4630   31.7980 C   0  0  0  0  0  0  0  0  0  0  0  0
   20.8420   61.6350   32.5800 C   0  0  0  0  0  0  0  0  0  0  0  0
   21.1420   61.9560   33.9090 C   0  0  0  0  0  0  0  0  0  0  0  0
   22.0130   61.0360   34.7380 C   0  0  0  0  0  0  0  0  0  0  0  0
   23.4090   61.0700   34.2750 C   0  0  0  0  0  0  0  0  0  0  0  0
   24.5020   61.0720   33.9640 N   0  0  0  0  0  0  0  0  0  0  0  0
   19.1988   69.5142   30.7945 H   0  0  0  0  0  0  0  0  0  0  0  0
   24.6926   63.0842   32.3601 H   0  0  0  0  0  0  0  0  0  0  0  0
   23.2616   63.6905   32.3138 H   0  0  0  0  0  0  0  0  0  0  0  0
   23.9858   65.1382   34.7028 H   0  0  0  0  0  0  0  0  0  0  0  0
   25.3056   64.3382   34.8866 H   0  0  0  0  0  0  0  0  0  0  0  0
   25.9592   65.6709   32.2172 H   0  0  0  0  0  0  0  0  0  0  0  0
   22.1701   65.8570   32.7503 H   0  0  0  0  0  0  0  0  0  0  0  0
   25.7099   67.8335   31.5519 H   0  0  0  0  0  0  0  0  0  0  0  0
   21.3047   69.4053   31.8668 H   0  0  0  0  0  0  0  0  0  0  0  0
   16.0831   67.9854   29.8063 H   0  0  0  0  0  0  0  0  0  0  0  0
   16.8236   70.3385   31.2759 H   0  0  0  0  0  0  0  0  0  0  0  0
   17.7207   70.3860   29.7204 H   0  0  0  0  0  0  0  0  0  0  0  0
   15.9252   70.3329   29.7204 H   0  0  0  0  0  0  0  0  0  0  0  0
   17.9375   63.9796   31.1079 H   0  0  0  0  0  0  0  0  0  0  0  0
   19.4831   64.9053   34.1071 H   0  0  0  0  0  0  0  0  0  0  0  0
   20.8997   63.4089   35.5036 H   0  0  0  0  0  0  0  0  0  0  0  0
   19.7812   62.1801   30.7643 H   0  0  0  0  0  0  0  0  0  0  0  0
   21.2534   60.7138   32.1417 H   0  0  0  0  0  0  0  0  0  0  0  0
   21.9752   61.3564   35.7896 H   0  0  0  0  0  0  0  0  0  0  0  0
   21.6348   60.0083   34.6335 H   0  0  0  0  0  0  0  0  0  0  0  0
  1  2  2  0
  1  5  1  0
  1 14  1  0
  2  3  1  0
  3  4  2  0
  3 15  1  0
  4 17  1  0
  5 17  2  0
  6  7  1  0
  6  8  1  0
  7  8  1  0
  8  9  1  0
  9 10  2  0
  9 11  1  0
 10 13  1  0
 11 12  1  0
 12 13  2  0
 13 14  1  0
 15 16  1  0
 17 18  1  0
 18 19  1  0
 19 20  2  0
 19 22  1  0
 20 21  1  0
 21 24  2  0
 22 23  2  0
 23 24  1  0
 24 25  1  0
 25 26  1  0
 26 27  3  0
  2 28  1  0
  6 29  1  0
  6 30  1  0
  7 31  1  0
  7 32  1  0
  8 33  1  0
 10 34  1  0
 11 35  1  0
 14 36  1  0
 15 37  1  0
 16 38  1  0
 16 39  1  0
 16 40  1  0
 18 41  1  0
 20 42  1  0
 21 43  1  0
 22 44  1  0
 23 45  1  0
 25 46  1  0
 25 47  1  0
A    1
C4
A    2
C5
A    3
C6
A    4
N1
A    5
N3
A    6
C1U
A    7
C1W
A    8
C1T
A    9
C1R
A   10
C1S
A   11
N1Q
A   12
N1P
A   13
C1H
A   14
N1G
A   15
N1X
A   16
C1Y
A   17
C2
A   18
N1I
A   19
C1J
A   20
C1O
A   21
C1N
A   22
C1K
A   23
C1L
A   24
C1M
A   25
C1V
A   26
C1Z
A   27
N1A
M  END
