3BI0_BIX_A_1
     RDKit          3D

 38 37  0  0  0  0  0  0  0  0999 V2000
   20.6530   46.6800   44.2620 C   0  0  0  0  0  0  0  0  0  0  0  0
   18.8110   44.9500   44.6870 C   0  0  0  0  0  0  0  0  0  0  0  0
   20.4040   47.0840   45.6850 C   0  0  0  0  0  0  0  0  0  0  0  0
   19.5020   45.8290   43.6730 C   0  0  0  0  0  0  0  0  0  0  0  0
   16.3820   45.1160   42.9370 C   0  0  0  0  0  0  0  0  0  0  0  0
   20.9880   46.4780   46.5960 O   0  0  0  0  0  0  0  0  0  0  0  0
   13.0800   47.1290   39.5810 O   0  0  0  0  0  0  0  0  0  0  0  0
   13.9210   47.6830   40.3260 C   0  0  0  0  0  0  0  0  0  0  0  0
   13.8880   48.9150   40.5370 O   0  0  0  0  0  0  0  0  0  0  0  0
   15.0220   46.8980   41.0680 C   0  0  0  0  0  0  0  0  0  0  0  0
   14.7730   45.3950   40.9220 C   0  0  0  0  0  0  0  0  0  0  0  0
   15.9580   44.5710   41.5140 C   0  0  0  0  0  0  0  0  0  0  0  0
   17.0890   44.6320   40.4990 C   0  0  0  0  0  0  0  0  0  0  0  0
   17.0920   43.8530   39.4850 O   0  0  0  0  0  0  0  0  0  0  0  0
   17.9720   45.4820   40.6520 O   0  0  0  0  0  0  0  0  0  0  0  0
   17.5820   43.9970   43.7870 P   0  0  0  0  0  0  0  0  0  0  0  0
   18.2850   43.1170   42.6950 O   0  0  0  0  0  0  0  0  0  0  0  0
   16.7770   43.2200   44.7730 O   0  0  0  0  0  0  0  0  0  0  0  0
   21.8660   45.8660   44.3100 N   0  0  0  0  0  0  0  0  0  0  0  0
   19.6350   47.9720   45.9510 O   0  0  0  0  0  0  0  0  0  0  0  0
   20.7378   47.5710   43.6226 H   0  0  0  0  0  0  0  0  0  0  0  0
   19.5384   44.2769   45.1643 H   0  0  0  0  0  0  0  0  0  0  0  0
   18.3436   45.5515   45.4806 H   0  0  0  0  0  0  0  0  0  0  0  0
   18.7551   46.5098   43.2385 H   0  0  0  0  0  0  0  0  0  0  0  0
   19.9503   45.1604   42.9234 H   0  0  0  0  0  0  0  0  0  0  0  0
   16.8473   46.1050   42.8128 H   0  0  0  0  0  0  0  0  0  0  0  0
   15.4766   45.1735   43.5590 H   0  0  0  0  0  0  0  0  0  0  0  0
   20.7841   46.6896   47.5414 H   0  0  0  0  0  0  0  0  0  0  0  0
   12.3219   46.6296   39.9759 H   0  0  0  0  0  0  0  0  0  0  0  0
   16.0028   47.1494   40.6382 H   0  0  0  0  0  0  0  0  0  0  0  0
   15.0053   47.1676   42.1343 H   0  0  0  0  0  0  0  0  0  0  0  0
   13.8486   45.1301   41.4562 H   0  0  0  0  0  0  0  0  0  0  0  0
   14.6817   45.1576   39.8518 H   0  0  0  0  0  0  0  0  0  0  0  0
   15.6687   43.5233   41.6829 H   0  0  0  0  0  0  0  0  0  0  0  0
   17.0958   42.8716   39.6148 H   0  0  0  0  0  0  0  0  0  0  0  0
   18.8384   42.4243   43.1354 H   0  0  0  0  0  0  0  0  0  0  0  0
   22.1245   45.6926   45.2918 H   0  0  0  0  0  0  0  0  0  0  0  0
   21.6956   44.9676   43.8360 H   0  0  0  0  0  0  0  0  0  0  0  0
  1  3  1  0
  1  4  1  0
  1 19  1  0
  2  4  1  0
  2 16  1  0
  3  6  1  0
  3 20  2  0
  5 12  1  0
  5 16  1  0
  7  8  1  0
  8  9  2  0
  8 10  1  0
 10 11  1  0
 11 12  1  0
 12 13  1  0
 13 14  1  0
 13 15  2  0
 16 17  1  0
 16 18  2  0
  1 21  1  0
  2 22  1  0
  2 23  1  0
  4 24  1  0
  4 25  1  0
  5 26  1  0
  5 27  1  0
  6 28  1  0
  7 29  1  0
 10 30  1  0
 10 31  1  0
 11 32  1  0
 11 33  1  0
 12 34  1  0
 14 35  1  0
 17 36  1  0
 19 37  1  0
 19 38  1  0
A    1
C2
A    2
C5
A    3
C3
A    4
C4
A    5
C1
A    6
O1
A    7
OE2
A    8
CD
A    9
OE1
A   10
CG
A   11
CB
A   12
CA
A   13
C
A   14
OC
A   15
O
A   16
P6
A   17
O61
A   18
O6
A   19
N
A   20
O3
M  END
