3BI4_298_A_1001
     RDKit          3D

 34 33  0  0  0  0  0  0  0  0999 V2000
   18.7340   30.8420   16.9070 C   0  0  0  0  0  0  0  0  0  0  0  0
   18.9100   29.5080   16.5550 C   0  0  0  0  0  0  0  0  0  0  0  0
   19.6250   28.6590   17.3920 C   0  0  0  0  0  0  0  0  0  0  0  0
   19.8130   27.3230   17.0560 C   0  0  0  0  0  0  0  0  0  0  0  0
   19.3150   26.8190   15.9300 N   0  0  0  0  0  0  0  0  0  0  0  0
   17.9030   26.4570   16.1190 C   0  0  0  0  0  0  0  0  0  0  0  0
   17.3800   25.7400   14.8720 C   0  0  0  0  0  0  0  0  0  0  0  0
   18.1930   24.4770   14.5750 C   0  0  0  0  0  0  0  0  0  0  0  0
   17.6050   23.7090   13.3900 C   0  0  0  0  0  0  0  0  0  0  0  0
   18.4000   22.5030   13.1190 N   0  0  0  0  0  0  0  0  0  0  0  0
   19.3860   22.7960   12.2740 C   0  0  0  0  0  0  0  0  0  0  0  0
   20.3220   21.8460   11.8840 C   0  0  0  0  0  0  0  0  0  0  0  0
   20.3020   20.5320   12.3440 C   0  0  0  0  0  0  0  0  0  0  0  0
   19.3310   20.0910   13.2340 C   0  0  0  0  0  0  0  0  0  0  0  0
   18.7219   30.9335   18.0031 H   0  0  0  0  0  0  0  0  0  0  0  0
   19.5609   31.4413   16.4981 H   0  0  0  0  0  0  0  0  0  0  0  0
   17.7800   31.2063   16.4981 H   0  0  0  0  0  0  0  0  0  0  0  0
   18.4841   29.1253   15.6158 H   0  0  0  0  0  0  0  0  0  0  0  0
   20.0466   29.0485   18.3304 H   0  0  0  0  0  0  0  0  0  0  0  0
   20.3838   26.6709   17.7335 H   0  0  0  0  0  0  0  0  0  0  0  0
   17.8102   25.7906   16.9892 H   0  0  0  0  0  0  0  0  0  0  0  0
   17.3133   27.3703   16.2869 H   0  0  0  0  0  0  0  0  0  0  0  0
   16.3288   25.4597   15.0342 H   0  0  0  0  0  0  0  0  0  0  0  0
   17.4727   26.4225   14.0143 H   0  0  0  0  0  0  0  0  0  0  0  0
   19.2285   24.7636   14.3391 H   0  0  0  0  0  0  0  0  0  0  0  0
   18.1641   23.8266   15.4616 H   0  0  0  0  0  0  0  0  0  0  0  0
   16.5707   23.4168   13.6241 H   0  0  0  0  0  0  0  0  0  0  0  0
   17.6215   24.3559   12.5005 H   0  0  0  0  0  0  0  0  0  0  0  0
   19.4618   23.8178   11.8737 H   0  0  0  0  0  0  0  0  0  0  0  0
   21.1134   22.1451   11.1811 H   0  0  0  0  0  0  0  0  0  0  0  0
   21.0718   19.8279   11.9951 H   0  0  0  0  0  0  0  0  0  0  0  0
   19.6797   20.2494   14.2652 H   0  0  0  0  0  0  0  0  0  0  0  0
   18.4008   20.6550   13.0708 H   0  0  0  0  0  0  0  0  0  0  0  0
   19.1436   19.0194   13.0708 H   0  0  0  0  0  0  0  0  0  0  0  0
  1  2  1  0
  2  3  2  0
  3  4  1  0
  4  5  2  0
  5  6  1  0
  6  7  1  0
  7  8  1  0
  8  9  1  0
  9 10  1  0
 10 11  2  0
 11 12  1  0
 12 13  2  0
 13 14  1  0
  1 15  1  0
  1 16  1  0
  1 17  1  0
  2 18  1  0
  3 19  1  0
  4 20  1  0
  6 21  1  0
  6 22  1  0
  7 23  1  0
  7 24  1  0
  8 25  1  0
  8 26  1  0
  9 27  1  0
  9 28  1  0
 11 29  1  0
 12 30  1  0
 13 31  1  0
 14 32  1  0
 14 33  1  0
 14 34  1  0
A    1
C1
A    2
C2
A    3
C3
A    4
C4
A    5
N5
A    6
C6
A    7
C7
A    8
C8
A    9
C9
A   10
N10
A   11
C11
A   12
C12
A   13
C13
A   14
C14
M  END
