3BI6_396_A_901
     RDKit          3D

 62 67  0  0  0  0  0  0  0  0999 V2000
    9.2390   55.1870   16.1260 C   0  0  0  0  0  0  0  0  0  0  0  0
   10.0350   53.8930   16.1360 C   0  0  0  0  0  0  0  0  0  0  0  0
   10.2710   53.8660   17.6270 C   0  0  0  0  0  0  0  0  0  0  0  0
    8.8180   54.1060   18.1520 C   0  0  0  0  0  0  0  0  0  0  0  0
    8.1880   54.9940   17.1540 N   0  0  0  0  0  0  0  0  0  0  0  0
    7.8490   56.3400   17.6940 C   0  0  0  0  0  0  0  0  0  0  0  0
    6.4920   56.3350   18.3560 C   0  0  0  0  0  0  0  0  0  0  0  0
    6.4820   55.8060   19.7640 N   0  0  0  0  0  0  0  0  0  0  0  0
    5.7830   54.7200   20.0250 C   0  0  0  0  0  0  0  0  0  0  0  0
    5.1090   54.1820   19.1670 O   0  0  0  0  0  0  0  0  0  0  0  0
    5.5670   54.4700   21.5220 C   0  0  0  0  0  0  0  0  0  0  0  0
    4.2680   54.0990   21.8720 C   0  0  0  0  0  0  0  0  0  0  0  0
    6.5760   54.6950   22.4680 C   0  0  0  0  0  0  0  0  0  0  0  0
    7.8770   55.0460   22.1050 O   0  0  0  0  0  0  0  0  0  0  0  0
    6.2730   54.4770   23.8150 C   0  0  0  0  0  0  0  0  0  0  0  0
    4.9770   54.1120   24.2190 C   0  0  0  0  0  0  0  0  0  0  0  0
    3.9860   53.8990   23.2380 C   0  0  0  0  0  0  0  0  0  0  0  0
    2.8740   53.5520   23.8590 N   0  0  0  0  0  0  0  0  0  0  0  0
    1.6110   53.2530   23.1430 C   0  0  0  0  0  0  0  0  0  0  0  0
    3.0630   53.5730   25.1990 C   0  0  0  0  0  0  0  0  0  0  0  0
    2.2070   53.2390   26.2690 C   0  0  0  0  0  0  0  0  0  0  0  0
    4.4070   53.8820   25.4720 C   0  0  0  0  0  0  0  0  0  0  0  0
    4.8480   53.9420   26.8300 C   0  0  0  0  0  0  0  0  0  0  0  0
    6.0590   54.2060   27.5050 C   0  0  0  0  0  0  0  0  0  0  0  0
    7.0940   54.6210   26.9820 O   0  0  0  0  0  0  0  0  0  0  0  0
    5.9220   54.1090   28.8470 N   0  0  0  0  0  0  0  0  0  0  0  0
    4.6770   53.7350   29.0600 C   0  0  0  0  0  0  0  0  0  0  0  0
    4.2240   53.5150   30.1690 O   0  0  0  0  0  0  0  0  0  0  0  0
    3.9400   53.6360   27.8620 C   0  0  0  0  0  0  0  0  0  0  0  0
    2.6030   53.2880   27.5900 C   0  0  0  0  0  0  0  0  0  0  0  0
    1.6330   53.0010   28.6100 C   0  0  0  0  0  0  0  0  0  0  0  0
    0.9820   51.7630   28.6500 C   0  0  0  0  0  0  0  0  0  0  0  0
    0.0110   51.5480   29.6430 C   0  0  0  0  0  0  0  0  0  0  0  0
   -0.3350   52.4840   30.6170 C   0  0  0  0  0  0  0  0  0  0  0  0
    0.2630   53.7550   30.5640 C   0  0  0  0  0  0  0  0  0  0  0  0
    1.2410   53.9970   29.5670 C   0  0  0  0  0  0  0  0  0  0  0  0
    1.8480   55.6100   29.6150 Cl  0  0  0  0  0  0  0  0  0  0  0  0
    9.8831   56.0400   16.3859 H   0  0  0  0  0  0  0  0  0  0  0  0
    8.8148   55.4056   15.1349 H   0  0  0  0  0  0  0  0  0  0  0  0
    9.4499   53.0312   15.7825 H   0  0  0  0  0  0  0  0  0  0  0  0
   10.9212   53.8434   15.4862 H   0  0  0  0  0  0  0  0  0  0  0  0
   10.6666   52.8943   17.9577 H   0  0  0  0  0  0  0  0  0  0  0  0
   11.0134   54.5940   17.9861 H   0  0  0  0  0  0  0  0  0  0  0  0
    8.2708   53.1543   18.2216 H   0  0  0  0  0  0  0  0  0  0  0  0
    8.8123   54.5492   19.1587 H   0  0  0  0  0  0  0  0  0  0  0  0
    8.6086   56.6317   18.4342 H   0  0  0  0  0  0  0  0  0  0  0  0
    7.8274   57.0558   16.8590 H   0  0  0  0  0  0  0  0  0  0  0  0
    6.1164   57.3687   18.3756 H   0  0  0  0  0  0  0  0  0  0  0  0
    5.8600   55.6563   17.7644 H   0  0  0  0  0  0  0  0  0  0  0  0
    7.0105   56.2827   20.5085 H   0  0  0  0  0  0  0  0  0  0  0  0
    3.4894   53.9670   21.1063 H   0  0  0  0  0  0  0  0  0  0  0  0
    8.5538   55.2286   22.8041 H   0  0  0  0  0  0  0  0  0  0  0  0
    7.0625   54.5931   24.5721 H   0  0  0  0  0  0  0  0  0  0  0  0
    0.8111   53.0636   23.8740 H   0  0  0  0  0  0  0  0  0  0  0  0
    1.3354   54.1107   22.5118 H   0  0  0  0  0  0  0  0  0  0  0  0
    1.7492   52.3628   22.5118 H   0  0  0  0  0  0  0  0  0  0  0  0
    1.1777   52.9254   26.0403 H   0  0  0  0  0  0  0  0  0  0  0  0
    6.6445   54.2907   29.5582 H   0  0  0  0  0  0  0  0  0  0  0  0
    1.2247   50.9760   27.9208 H   0  0  0  0  0  0  0  0  0  0  0  0
   -0.5096   50.5790   29.6525 H   0  0  0  0  0  0  0  0  0  0  0  0
   -1.0581   52.2339   31.4073 H   0  0  0  0  0  0  0  0  0  0  0  0
   -0.0209   54.5420   31.2782 H   0  0  0  0  0  0  0  0  0  0  0  0
  1  2  1  0
  1  5  1  0
  2  3  1  0
  3  4  1  0
  4  5  1  0
  5  6  1  0
  6  7  1  0
  7  8  1  0
  8  9  1  0
  9 10  2  0
  9 11  1  0
 11 12  2  0
 11 13  1  0
 12 17  1  0
 13 14  1  0
 13 15  2  0
 15 16  1  0
 16 17  2  0
 16 22  1  0
 17 18  1  0
 18 19  1  0
 18 20  1  0
 20 21  1  0
 20 22  2  0
 21 30  2  0
 22 23  1  0
 23 24  1  0
 23 29  2  0
 24 25  2  0
 24 26  1  0
 26 27  1  0
 27 28  2  0
 27 29  1  0
 29 30  1  0
 30 31  1  0
 31 32  2  0
 31 36  1  0
 32 33  1  0
 33 34  2  0
 34 35  1  0
 35 36  2  0
 36 37  1  0
  1 38  1  0
  1 39  1  0
  2 40  1  0
  2 41  1  0
  3 42  1  0
  3 43  1  0
  4 44  1  0
  4 45  1  0
  6 46  1  0
  6 47  1  0
  7 48  1  0
  7 49  1  0
  8 50  1  0
 12 51  1  0
 14 52  1  0
 15 53  1  0
 19 54  1  0
 19 55  1  0
 19 56  1  0
 21 57  1  0
 26 58  1  0
 32 59  1  0
 33 60  1  0
 34 61  1  0
 35 62  1  0
A    1
C26
A    2
C27
A    3
C29
A    4
C25
A    5
N4
A    6
C24
A    7
C23
A    8
N3
A    9
C22
A   10
O4
A   11
C20
A   12
C18
A   13
C19
A   14
O3
A   15
C17
A   16
C15
A   17
C16
A   18
N2
A   19
C21
A   20
C14
A   21
C1
A   22
C13
A   23
C4
A   24
C5
A   25
O1
A   26
N1
A   27
C6
A   28
O2
A   29
C3
A   30
C2
A   31
C7
A   32
C12
A   33
C11
A   34
C10
A   35
C9
A   36
C8
A   37
CL5
M  END
