1DSY_PSF_A_401
     RDKit          3D

 49 48  0  0  0  0  0  0  0  0999 V2000
   16.3680   27.0650    9.6720 O   0  0  0  0  0  0  0  0  0  0  0  0
   17.2130   28.4750    7.9340 O   0  0  0  0  0  0  0  0  0  0  0  0
   16.1590   28.2880    8.9190 P   0  0  0  0  0  0  0  0  0  0  0  0
   14.8790   28.2180    8.2220 O   0  0  0  0  0  0  0  0  0  0  0  0
   16.1310   29.4280    9.8870 O   0  0  0  0  0  0  0  0  0  0  0  0
   15.2530   26.3970   10.3070 C   0  0  0  0  0  0  0  0  0  0  0  0
   16.1280   25.3690   10.9150 C   0  0  0  0  0  0  0  0  0  0  0  0
   16.4400   26.1820   12.2190 O   0  0  0  0  0  0  0  0  0  0  0  0
   17.4640   28.1540   12.9020 O   0  0  0  0  0  0  0  0  0  0  0  0
   17.4920   26.9220   12.3860 C   0  0  0  0  0  0  0  0  0  0  0  0
   16.8070   24.0350   10.2680 C   0  0  0  0  0  0  0  0  0  0  0  0
   16.8020   22.0980    8.4940 C   0  0  0  0  0  0  0  0  0  0  0  0
   16.4180   22.0160    7.2620 O   0  0  0  0  0  0  0  0  0  0  0  0
   16.6260   23.4610    8.8030 O   0  0  0  0  0  0  0  0  0  0  0  0
   17.6750   21.1310    9.4430 C   0  0  0  0  0  0  0  0  0  0  0  0
   17.6500   19.5040    9.4970 C   0  0  0  0  0  0  0  0  0  0  0  0
   18.6940   26.3150   12.0460 C   0  0  0  0  0  0  0  0  0  0  0  0
   18.7590   26.4170   10.6100 C   0  0  0  0  0  0  0  0  0  0  0  0
   19.9030   25.8130   10.0440 C   0  0  0  0  0  0  0  0  0  0  0  0
   20.0350   28.6230    9.2570 N   0  0  0  0  0  0  0  0  0  0  0  0
   19.4890   28.5690    7.8740 C   0  0  0  0  0  0  0  0  0  0  0  0
   18.3670   27.5810    7.7010 C   0  0  0  0  0  0  0  0  0  0  0  0
   19.4640   29.6890    6.8750 C   0  0  0  0  0  0  0  0  0  0  0  0
   18.7940   29.5040    5.8450 O   0  0  0  0  0  0  0  0  0  0  0  0
   20.1020   30.7170    7.1230 O   0  0  0  0  0  0  0  0  0  0  0  0
   16.1397   29.0756   10.8121 H   0  0  0  0  0  0  0  0  0  0  0  0
   14.7306   27.0217   11.0465 H   0  0  0  0  0  0  0  0  0  0  0  0
   14.4019   26.0752    9.6890 H   0  0  0  0  0  0  0  0  0  0  0  0
   16.0604   24.2731   10.8478 H   0  0  0  0  0  0  0  0  0  0  0  0
   17.8902   24.1956   10.3721 H   0  0  0  0  0  0  0  0  0  0  0  0
   16.2326   23.2739   10.8165 H   0  0  0  0  0  0  0  0  0  0  0  0
   18.7208   21.3878    9.2185 H   0  0  0  0  0  0  0  0  0  0  0  0
   17.1781   21.3404   10.4018 H   0  0  0  0  0  0  0  0  0  0  0  0
   17.6449   19.1720   10.5457 H   0  0  0  0  0  0  0  0  0  0  0  0
   16.7461   19.1342    8.9909 H   0  0  0  0  0  0  0  0  0  0  0  0
   18.5421   19.1066    8.9909 H   0  0  0  0  0  0  0  0  0  0  0  0
   19.5403   26.8415   12.5115 H   0  0  0  0  0  0  0  0  0  0  0  0
   18.7479   25.2726   12.3931 H   0  0  0  0  0  0  0  0  0  0  0  0
   17.8666   25.9319   10.1877 H   0  0  0  0  0  0  0  0  0  0  0  0
   18.8117   27.4889   10.3684 H   0  0  0  0  0  0  0  0  0  0  0  0
   20.5677   25.4621   10.8472 H   0  0  0  0  0  0  0  0  0  0  0  0
   19.5969   24.9590    9.4220 H   0  0  0  0  0  0  0  0  0  0  0  0
   20.4356   26.5474    9.4220 H   0  0  0  0  0  0  0  0  0  0  0  0
   19.2627   28.5466    9.9342 H   0  0  0  0  0  0  0  0  0  0  0  0
   20.6929   27.8430    9.3971 H   0  0  0  0  0  0  0  0  0  0  0  0
   20.4753   28.2546    7.5021 H   0  0  0  0  0  0  0  0  0  0  0  0
   18.4152   26.7717    8.4444 H   0  0  0  0  0  0  0  0  0  0  0  0
   18.3582   27.0479    6.7389 H   0  0  0  0  0  0  0  0  0  0  0  0
   20.2669   30.9827    8.0623 H   0  0  0  0  0  0  0  0  0  0  0  0
  1  3  1  0
  1  6  1  0
  2  3  1  0
  2 22  1  0
  3  4  2  0
  3  5  1  0
  6  7  1  0
  7  8  1  0
  7 11  1  0
  8 10  1  0
  9 10  2  0
 10 17  1  0
 11 14  1  0
 12 13  2  0
 12 14  1  0
 12 15  1  0
 15 16  1  0
 17 18  1  0
 18 19  1  0
 20 21  1  0
 21 22  1  0
 21 23  1  0
 23 24  2  0
 23 25  1  0
  5 26  1  0
  6 27  1  0
  6 28  1  0
  7 29  1  0
 11 30  1  0
 11 31  1  0
 15 32  1  0
 15 33  1  0
 16 34  1  0
 16 35  1  0
 16 36  1  0
 17 37  1  0
 17 38  1  0
 18 39  1  0
 18 40  1  0
 19 41  1  0
 19 42  1  0
 19 43  1  0
 20 44  1  0
 20 45  1  0
 21 46  1  0
 22 47  1  0
 22 48  1  0
 25 49  1  0
A    1
O2
A    2
O1
A    3
P
A    4
O4
A    5
O3
A    6
C2
A    7
C3
A    8
O11
A    9
O12
A   10
C1
A   11
C4
A   12
C5
A   13
O51
A   14
O52
A   15
C6
A   16
C7
A   17
C13
A   18
C14
A   19
C15
A   20
N
A   21
CA
A   22
CB
A   23
C
A   24
OT1
A   25
OT2
M  END
