3BK0_CNU_A_1000
     RDKit          3D

 35 36  0  0  0  0  0  0  0  0999 V2000
    2.7800   12.8820   31.2770 O   0  0  0  0  0  0  0  0  0  0  0  0
    4.1630   13.1910   30.7830 P   0  0  0  0  0  0  0  0  0  0  0  0
    4.1660   13.8270   29.4200 O   0  0  0  0  0  0  0  0  0  0  0  0
    5.0210   13.9220   31.7980 O   0  0  0  0  0  0  0  0  0  0  0  0
    4.9330   11.7850   30.6140 O   0  0  0  0  0  0  0  0  0  0  0  0
    4.6380   10.8520   29.5510 C   0  0  0  0  0  0  0  0  0  0  0  0
    5.4820    9.5980   29.8240 C   0  0  0  0  0  0  0  0  0  0  0  0
    5.1950    8.5560   28.8960 O   0  0  0  0  0  0  0  0  0  0  0  0
    6.9440    9.9370   29.5640 C   0  0  0  0  0  0  0  0  0  0  0  0
    7.7520    9.0940   30.4090 O   0  0  0  0  0  0  0  0  0  0  0  0
    7.1540    9.5290   28.1160 C   0  0  0  0  0  0  0  0  0  0  0  0
    8.5080    9.1200   27.8600 O   0  0  0  0  0  0  0  0  0  0  0  0
    6.2320    8.3280   27.9410 C   0  0  0  0  0  0  0  0  0  0  0  0
    5.6900    8.1180   26.5810 N   0  0  0  0  0  0  0  0  0  0  0  0
    4.9150    9.0900   25.9320 C   0  0  0  0  0  0  0  0  0  0  0  0
    4.7620   10.2000   26.4770 O   0  0  0  0  0  0  0  0  0  0  0  0
    4.4310    8.8410   24.7120 N   0  0  0  0  0  0  0  0  0  0  0  0
    4.5780    7.6660   24.0730 C   0  0  0  0  0  0  0  0  0  0  0  0
    4.0900    7.4890   22.9420 O   0  0  0  0  0  0  0  0  0  0  0  0
    5.8740    6.9260   25.9870 C   0  0  0  0  0  0  0  0  0  0  0  0
    5.3700    6.6040   24.7230 C   0  0  0  0  0  0  0  0  0  0  0  0
    5.5990    5.4280   24.2090 C   0  0  0  0  0  0  0  0  0  0  0  0
    5.8560    4.3740   23.7750 N   0  0  0  0  0  0  0  0  0  0  0  0
    4.1706   14.8124   29.5156 H   0  0  0  0  0  0  0  0  0  0  0  0
    4.7322   13.6760   32.7124 H   0  0  0  0  0  0  0  0  0  0  0  0
    3.5678   10.5979   29.5547 H   0  0  0  0  0  0  0  0  0  0  0  0
    4.8734   11.2832   28.5668 H   0  0  0  0  0  0  0  0  0  0  0  0
    5.2666    9.2809   30.8550 H   0  0  0  0  0  0  0  0  0  0  0  0
    7.1993   10.9896   29.7560 H   0  0  0  0  0  0  0  0  0  0  0  0
    7.5584    9.2960   31.3586 H   0  0  0  0  0  0  0  0  0  0  0  0
    6.9475   10.3639   27.4302 H   0  0  0  0  0  0  0  0  0  0  0  0
    8.9780    8.9780   28.7197 H   0  0  0  0  0  0  0  0  0  0  0  0
    6.7958    7.3966   28.0982 H   0  0  0  0  0  0  0  0  0  0  0  0
    3.9151    9.5925   24.2324 H   0  0  0  0  0  0  0  0  0  0  0  0
    6.4533    6.1614   26.5253 H   0  0  0  0  0  0  0  0  0  0  0  0
  1  2  2  0
  3  2  1  0
  2  5  1  0
  2  4  1  0
  6  5  1  0
  6  7  1  0
  8  7  1  0
  7  9  1  0
  8 13  1  0
 11  9  1  0
  9 10  1  0
 13 11  1  0
 11 12  1  0
 14 13  1  0
 15 14  1  0
 14 20  1  0
 17 15  1  0
 16 15  2  0
 17 18  1  0
 19 18  2  0
 18 21  1  0
 21 20  2  0
 21 22  1  0
 22 23  3  0
  3 24  1  0
  4 25  1  0
  6 26  1  0
  6 27  1  0
  7 28  1  0
  9 29  1  0
 10 30  1  0
 11 31  1  0
 12 32  1  0
 13 33  1  0
 17 34  1  0
 20 35  1  0
A    1
O1P
A    2
P
A    3
O2P
A    4
O3P
A    5
O5'
A    6
C5'
A    7
C4'
A    8
O4'
A    9
C3'
A   10
O3'
A   11
C2'
A   12
O2'
A   13
C1'
A   14
N1
A   15
C2
A   16
O2
A   17
N3
A   18
C4
A   19
O4
A   20
C6
A   21
C5
A   22
C52
A   23
N53
M  END
