3BKI_FQX_P_264
     RDKit          3D

 20 22  0  0  0  0  0  0  0  0999 V2000
    2.8330   -1.5850    5.6640 O   0  0  0  0  0  0  0  0  0  0  0  0
    2.2500   -2.4660    6.2830 C   0  0  0  0  0  0  0  0  0  0  0  0
    1.1390   -3.1940    5.8100 C   0  0  0  0  0  0  0  0  0  0  0  0
    0.6040   -3.0340    4.7220 O   0  0  0  0  0  0  0  0  0  0  0  0
    0.5550   -4.1890    6.6180 N   0  0  0  0  0  0  0  0  0  0  0  0
    1.0590   -4.4810    7.9060 C   0  0  0  0  0  0  0  0  0  0  0  0
    0.4720   -5.4820    8.6980 C   0  0  0  0  0  0  0  0  0  0  0  0
    1.0220   -5.7400    9.9730 C   0  0  0  0  0  0  0  0  0  0  0  0
    0.6820   -6.6080   10.9060 N   0  0  0  0  0  0  0  0  0  0  0  0
   -0.4100   -7.5080   10.7260 O   0  0  0  0  0  0  0  0  0  0  0  0
    1.5550   -6.4730   12.0230 O   0  0  0  0  0  0  0  0  0  0  0  0
    2.4510   -5.4400   11.6630 N   0  0  0  0  0  0  0  0  0  0  0  0
    2.1250   -5.0170   10.4430 C   0  0  0  0  0  0  0  0  0  0  0  0
    2.7190   -4.0110    9.6540 C   0  0  0  0  0  0  0  0  0  0  0  0
    2.1780   -3.7480    8.3830 C   0  0  0  0  0  0  0  0  0  0  0  0
    2.7540   -2.7590    7.5720 N   0  0  0  0  0  0  0  0  0  0  0  0
   -0.2563   -4.7149    6.2629 H   0  0  0  0  0  0  0  0  0  0  0  0
   -0.3957   -6.0515    8.3336 H   0  0  0  0  0  0  0  0  0  0  0  0
    3.5862   -3.4445   10.0243 H   0  0  0  0  0  0  0  0  0  0  0  0
    3.5657   -2.2319    7.9244 H   0  0  0  0  0  0  0  0  0  0  0  0
  4  3  2  0
  1  2  2  0
  3  2  1  0
  3  5  1  0
  2 16  1  0
  5  6  1  0
 16 15  1  0
  6 15  1  0
  6  7  2  0
 15 14  2  0
  7  8  1  0
 14 13  1  0
  8 13  1  0
  8  9  2  0
 13 12  2  0
 10  9  1  0
  9 11  1  0
 12 11  1  0
  5 17  1  0
  7 18  1  0
 14 19  1  0
 16 20  1  0
M  CHG  2   9   1  10  -1
A    1
OAA
A    2
CAJ
A    3
CAK
A    4
OAB
A    5
NAH
A    6
CAN
A    7
CAE
A    8
CAO
A    9
NAP
A   10
OAC
A   11
OAI
A   12
NAF
A   13
CAL
A   14
CAD
A   15
CAM
A   16
NAG
M  END
