3BKL_KAW_A_800
     RDKit          3D

 70 73  0  0  0  0  0  0  0  0999 V2000
   44.0270   47.3280   39.3110 C   0  0  0  0  0  0  0  0  0  0  0  0
   43.0900   46.3710   39.7150 C   0  0  0  0  0  0  0  0  0  0  0  0
   41.7690   46.5420   39.3440 C   0  0  0  0  0  0  0  0  0  0  0  0
   41.3680   47.6450   38.5800 C   0  0  0  0  0  0  0  0  0  0  0  0
   42.2600   48.5980   38.1680 C   0  0  0  0  0  0  0  0  0  0  0  0
   43.5930   48.4270   38.5420 C   0  0  0  0  0  0  0  0  0  0  0  0
   44.6900   49.2040   38.2820 N   0  0  0  0  0  0  0  0  0  0  0  0
   45.7960   48.6270   38.8600 C   0  0  0  0  0  0  0  0  0  0  0  0
   45.4400   47.4740   39.4980 C   0  0  0  0  0  0  0  0  0  0  0  0
   46.3430   46.5210   40.2200 C   0  0  0  0  0  0  0  0  0  0  0  0
   46.8120   47.0180   41.5880 C   0  0  0  0  0  0  0  0  0  0  0  0
   47.5730   48.3370   41.4420 C   0  0  0  0  0  0  0  0  0  0  0  0
   48.7380   48.3000   40.9940 O   0  0  0  0  0  0  0  0  0  0  0  0
   46.9890   49.3890   41.7800 O   0  0  0  0  0  0  0  0  0  0  0  0
   45.6760   47.1780   42.4880 N   0  0  0  0  0  0  0  0  0  0  0  0
   45.8720   47.2920   43.7970 C   0  0  0  0  0  0  0  0  0  0  0  0
   46.9960   47.2770   44.2980 O   0  0  0  0  0  0  0  0  0  0  0  0
   44.6390   47.4650   44.6780 C   0  0  0  0  0  0  0  0  0  0  0  0
   45.0680   47.2310   46.1390 C   0  0  0  0  0  0  0  0  0  0  0  0
   44.7160   45.8110   46.5900 C   0  0  0  0  0  0  0  0  0  0  0  0
   45.1310   44.8520   45.6130 O   0  0  0  0  0  0  0  0  0  0  0  0
   43.2970   45.7300   46.7390 O   0  0  0  0  0  0  0  0  0  0  0  0
   45.3540   45.5030   47.9470 C   0  0  0  0  0  0  0  0  0  0  0  0
   46.8750   45.6680   47.9210 C   0  0  0  0  0  0  0  0  0  0  0  0
   47.4990   45.4480   49.2710 C   0  0  0  0  0  0  0  0  0  0  0  0
   47.7080   46.5100   50.1360 C   0  0  0  0  0  0  0  0  0  0  0  0
   48.2660   46.3090   51.3850 C   0  0  0  0  0  0  0  0  0  0  0  0
   48.6220   45.0350   51.7870 C   0  0  0  0  0  0  0  0  0  0  0  0
   48.4170   43.9670   50.9330 C   0  0  0  0  0  0  0  0  0  0  0  0
   47.8590   44.1770   49.6860 C   0  0  0  0  0  0  0  0  0  0  0  0
   45.0470   44.1520   48.4000 N   0  0  0  0  0  0  0  0  0  0  0  0
   44.0130   43.9120   49.1980 C   0  0  0  0  0  0  0  0  0  0  0  0
   43.2210   44.7820   49.5600 O   0  0  0  0  0  0  0  0  0  0  0  0
   43.8360   42.4450   49.5920 C   0  0  0  0  0  0  0  0  0  0  0  0
   43.0610   42.1030   50.6870 C   0  0  0  0  0  0  0  0  0  0  0  0
   42.8970   40.7720   51.0230 C   0  0  0  0  0  0  0  0  0  0  0  0
   43.5040   39.7850   50.2690 C   0  0  0  0  0  0  0  0  0  0  0  0
   44.2790   40.1280   49.1770 C   0  0  0  0  0  0  0  0  0  0  0  0
   44.4470   41.4580   48.8390 C   0  0  0  0  0  0  0  0  0  0  0  0
   43.3974   45.5016   40.3146 H   0  0  0  0  0  0  0  0  0  0  0  0
   41.0200   45.7986   39.6544 H   0  0  0  0  0  0  0  0  0  0  0  0
   40.3083   47.7483   38.3037 H   0  0  0  0  0  0  0  0  0  0  0  0
   41.9393   49.4620   37.5675 H   0  0  0  0  0  0  0  0  0  0  0  0
   44.6871   50.0801   37.7404 H   0  0  0  0  0  0  0  0  0  0  0  0
   46.8168   49.0343   38.8150 H   0  0  0  0  0  0  0  0  0  0  0  0
   45.8017   45.5743   40.3637 H   0  0  0  0  0  0  0  0  0  0  0  0
   47.2437   46.4063   39.5990 H   0  0  0  0  0  0  0  0  0  0  0  0
   47.4928   46.2694   42.0194 H   0  0  0  0  0  0  0  0  0  0  0  0
   46.8702   49.6029   42.7393 H   0  0  0  0  0  0  0  0  0  0  0  0
   44.7190   47.2027   42.1079 H   0  0  0  0  0  0  0  0  0  0  0  0
   44.2376   48.4828   44.5643 H   0  0  0  0  0  0  0  0  0  0  0  0
   43.8558   46.7491   44.3880 H   0  0  0  0  0  0  0  0  0  0  0  0
   46.1551   47.3767   46.2231 H   0  0  0  0  0  0  0  0  0  0  0  0
   44.5341   47.9467   46.7814 H   0  0  0  0  0  0  0  0  0  0  0  0
   45.4799   44.0457   46.0694 H   0  0  0  0  0  0  0  0  0  0  0  0
   43.0665   45.7168   47.7017 H   0  0  0  0  0  0  0  0  0  0  0  0
   44.9210   46.2327   48.6470 H   0  0  0  0  0  0  0  0  0  0  0  0
   47.2973   44.9390   47.2137 H   0  0  0  0  0  0  0  0  0  0  0  0
   47.0949   46.7013   47.6145 H   0  0  0  0  0  0  0  0  0  0  0  0
   47.4262   47.5268   49.8249 H   0  0  0  0  0  0  0  0  0  0  0  0
   48.4268   47.1632   52.0592 H   0  0  0  0  0  0  0  0  0  0  0  0
   49.0657   44.8720   52.7803 H   0  0  0  0  0  0  0  0  0  0  0  0
   48.6979   42.9506   51.2459 H   0  0  0  0  0  0  0  0  0  0  0  0
   47.6985   43.3216   49.0132 H   0  0  0  0  0  0  0  0  0  0  0  0
   45.6430   43.3691   48.0956 H   0  0  0  0  0  0  0  0  0  0  0  0
   42.5774   42.8875   51.2876 H   0  0  0  0  0  0  0  0  0  0  0  0
   42.2819   40.4976   51.8927 H   0  0  0  0  0  0  0  0  0  0  0  0
   43.3703   38.7268   50.5380 H   0  0  0  0  0  0  0  0  0  0  0  0
   44.7620   39.3428   48.5770 H   0  0  0  0  0  0  0  0  0  0  0  0
   45.0661   41.7314   47.9719 H   0  0  0  0  0  0  0  0  0  0  0  0
  1  2  2  0
  1  6  1  0
  1  9  1  0
  2  3  1  0
  3  4  2  0
  4  5  1  0
  5  6  2  0
  6  7  1  0
  7  8  1  0
  8  9  2  0
  9 10  1  0
 10 11  1  0
 11 12  1  0
 11 15  1  0
 12 13  2  0
 12 14  1  0
 15 16  1  0
 16 17  2  0
 16 18  1  0
 18 19  1  0
 19 20  1  0
 20 21  1  0
 20 22  1  0
 20 23  1  0
 23 24  1  0
 23 31  1  0
 24 25  1  0
 25 26  2  0
 25 30  1  0
 26 27  1  0
 27 28  2  0
 28 29  1  0
 29 30  2  0
 31 32  1  0
 32 33  2  0
 32 34  1  0
 34 35  2  0
 34 39  1  0
 35 36  1  0
 36 37  2  0
 37 38  1  0
 38 39  2  0
  2 40  1  0
  3 41  1  0
  4 42  1  0
  5 43  1  0
  7 44  1  0
  8 45  1  0
 10 46  1  0
 10 47  1  0
 11 48  1  0
 14 49  1  0
 15 50  1  0
 18 51  1  0
 18 52  1  0
 19 53  1  0
 19 54  1  0
 21 55  1  0
 22 56  1  0
 23 57  1  0
 24 58  1  0
 24 59  1  0
 26 60  1  0
 27 61  1  0
 28 62  1  0
 29 63  1  0
 30 64  1  0
 31 65  1  0
 35 66  1  0
 36 67  1  0
 37 68  1  0
 38 69  1  0
 39 70  1  0
A    1
CD2
A    2
CE3
A    3
CZ3
A    4
CH2
A    5
CZ2
A    6
CE2
A    7
NE1
A    8
CD1
A    9
CG
A   10
CB
A   11
CA
A   12
C
A   13
OXT
A   14
O
A   15
N
A   16
CBC
A   17
OAA
A   18
CAV
A   19
CAW
A   20
CBM
A   21
OAE
A   22
OAF
A   23
CBL
A   24
CAX
A   25
CBF
A   26
CAO
A   27
CAI
A   28
CAG
A   29
CAJ
A   30
CAP
A   31
NBA
A   32
CBE
A   33
OAC
A   34
CBG
A   35
CAQ
A   36
CAK
A   37
CAH
A   38
CAL
A   39
CAR
M  END
