3BL1_BL1_A_300
     RDKit          3D

 40 42  0  0  0  0  0  0  0  0999 V2000
   -7.4680    0.9160   16.9850 O   0  0  0  0  0  0  0  0  0  0  0  0
   -6.0510    1.1250   16.9110 S   0  0  0  0  0  0  0  0  0  0  0  0
   -5.4540   -0.0630   16.3530 N   0  0  0  0  0  0  0  0  0  0  0  0
   -5.5830    1.3070   18.4150 O   0  0  0  0  0  0  0  0  0  0  0  0
   -5.7000    2.3410   15.8520 C   0  0  0  0  0  0  0  0  0  0  0  0
   -5.1880    2.1110   14.5560 C   0  0  0  0  0  0  0  0  0  0  0  0
   -5.9060    3.6720   16.1680 C   0  0  0  0  0  0  0  0  0  0  0  0
   -6.5720    4.0520   17.7680 Cl  0  0  0  0  0  0  0  0  0  0  0  0
   -5.6290    4.7030   15.2590 C   0  0  0  0  0  0  0  0  0  0  0  0
   -5.1040    4.4400   13.9930 C   0  0  0  0  0  0  0  0  0  0  0  0
   -4.8610    3.1260   13.6170 C   0  0  0  0  0  0  0  0  0  0  0  0
   -4.3490    2.7160   12.2300 C   0  0  0  0  0  0  0  0  0  0  0  0
   -4.5670    1.5470   11.9120 O   0  0  0  0  0  0  0  0  0  0  0  0
   -3.7590    3.3710   11.2130 N   0  0  0  0  0  0  0  0  0  0  0  0
   -3.2420    4.6440   10.8640 N   0  0  0  0  0  0  0  0  0  0  0  0
   -2.0030    4.7160   10.0830 C   0  0  0  0  0  0  0  0  0  0  0  0
   -2.1770    4.0750    8.7110 C   0  0  0  0  0  0  0  0  0  0  0  0
   -3.7830    5.9120   11.1120 C   0  0  0  0  0  0  0  0  0  0  0  0
   -2.9520    6.8640   10.5830 C   0  0  0  0  0  0  0  0  0  0  0  0
   -1.7470    6.2290    9.9230 C   0  0  0  0  0  0  0  0  0  0  0  0
   -4.9710    6.2670   11.7600 C   0  0  0  0  0  0  0  0  0  0  0  0
   -5.2920    7.6300   11.8680 C   0  0  0  0  0  0  0  0  0  0  0  0
   -4.4250    8.5990   11.3250 C   0  0  0  0  0  0  0  0  0  0  0  0
   -3.2340    8.2310   10.6730 C   0  0  0  0  0  0  0  0  0  0  0  0
   -5.1431   -0.6817   17.1156 H   0  0  0  0  0  0  0  0  0  0  0  0
   -6.1477   -0.5556   15.7724 H   0  0  0  0  0  0  0  0  0  0  0  0
   -5.0303    1.0662   14.2502 H   0  0  0  0  0  0  0  0  0  0  0  0
   -5.8304    5.7443   15.5508 H   0  0  0  0  0  0  0  0  0  0  0  0
   -4.8849    5.2657   13.3000 H   0  0  0  0  0  0  0  0  0  0  0  0
   -3.6438    2.7280   10.4166 H   0  0  0  0  0  0  0  0  0  0  0  0
   -1.1757    4.1830   10.5744 H   0  0  0  0  0  0  0  0  0  0  0  0
   -2.4634    3.0200    8.8329 H   0  0  0  0  0  0  0  0  0  0  0  0
   -2.9634    4.6065    8.1550 H   0  0  0  0  0  0  0  0  0  0  0  0
   -1.2298    4.1360    8.1550 H   0  0  0  0  0  0  0  0  0  0  0  0
   -0.8181    6.5264   10.4316 H   0  0  0  0  0  0  0  0  0  0  0  0
   -1.6238    6.5336    8.8732 H   0  0  0  0  0  0  0  0  0  0  0  0
   -5.6378    5.4969   12.1750 H   0  0  0  0  0  0  0  0  0  0  0  0
   -6.2176    7.9402   12.3750 H   0  0  0  0  0  0  0  0  0  0  0  0
   -4.6846    9.6643   11.4127 H   0  0  0  0  0  0  0  0  0  0  0  0
   -2.5537    8.9859   10.2520 H   0  0  0  0  0  0  0  0  0  0  0  0
 17 16  1  0
 20 16  1  0
 20 19  1  0
 16 15  1  0
 19 24  2  0
 19 18  1  0
 24 23  1  0
 15 18  1  0
 15 14  1  0
 18 21  2  0
 14 12  1  0
 23 22  2  0
 21 22  1  0
 13 12  2  0
 12 11  1  0
 11 10  2  0
 11  6  1  0
 10  9  1  0
  6  5  2  0
  9  7  2  0
  5  7  1  0
  5  2  1  0
  7  8  1  0
  3  2  1  0
  2  1  2  0
  2  4  2  0
  3 25  1  0
  3 26  1  0
  6 27  1  0
  9 28  1  0
 10 29  1  0
 14 30  1  0
 16 31  1  0
 17 32  1  0
 17 33  1  0
 17 34  1  0
 20 35  1  0
 20 36  1  0
 21 37  1  0
 22 38  1  0
 23 39  1  0
 24 40  1  0
A    1
OAW
A    2
SAX
A    3
NAS
A    4
OAV
A    5
CAO
A    6
CAM
A    7
CAJ
A    8
CLAQ
A    9
CAC
A   10
CAN
A   11
CAL
A   12
CAK
A   13
OAU
A   14
NAR
A   15
NAT
A   16
CAI
A   17
CAP
A   18
CAA
A   19
CAB
A   20
CAF
A   21
CAD
A   22
CAH
A   23
CAG
A   24
CAE
M  END
