3BL7_DD1_A_901
     RDKit          3D

 52 55  0  0  0  0  0  0  0  0999 V2000
    7.8920   -3.6710   17.4080 F   0  0  0  0  0  0  0  0  0  0  0  0
    8.8480   -2.7290   17.4260 C   0  0  0  0  0  0  0  0  0  0  0  0
   10.1800   -3.1080   17.2790 C   0  0  0  0  0  0  0  0  0  0  0  0
   11.1830   -2.1440   17.2910 C   0  0  0  0  0  0  0  0  0  0  0  0
   10.8730   -0.7920   17.4470 C   0  0  0  0  0  0  0  0  0  0  0  0
    9.5500   -0.3640   17.6020 C   0  0  0  0  0  0  0  0  0  0  0  0
    8.5040   -1.2860   17.6170 C   0  0  0  0  0  0  0  0  0  0  0  0
    7.0700   -0.7960   17.7580 C   0  0  0  0  0  0  0  0  0  0  0  0
    6.3590   -1.0270   19.0270 N   0  0  0  0  0  0  0  0  0  0  0  0
    6.7170   -2.0790   19.9790 C   0  0  0  0  0  0  0  0  0  0  0  0
    5.7510   -2.0080   21.1740 C   0  0  0  0  0  0  0  0  0  0  0  0
    5.6670   -0.6070   21.7940 C   0  0  0  0  0  0  0  0  0  0  0  0
    5.3660    0.4310   20.7050 C   0  0  0  0  0  0  0  0  0  0  0  0
    5.2050   -0.1730   19.3120 C   0  0  0  0  0  0  0  0  0  0  0  0
    4.6790   -0.5730   22.9800 C   0  0  0  0  0  0  0  0  0  0  0  0
    3.5770    0.3710   22.9480 O   0  0  0  0  0  0  0  0  0  0  0  0
    3.0010    0.8600   24.1070 C   0  0  0  0  0  0  0  0  0  0  0  0
    1.9820    1.9480   24.0660 C   0  0  0  0  0  0  0  0  0  0  0  0
    1.5010    2.5870   22.8130 C   0  0  0  0  0  0  0  0  0  0  0  0
    1.9620    2.2250   21.5980 N   0  0  0  0  0  0  0  0  0  0  0  0
    0.5870    3.5620   22.9030 N   0  0  0  0  0  0  0  0  0  0  0  0
    0.0860    3.9740   24.0990 C   0  0  0  0  0  0  0  0  0  0  0  0
   -0.8390    4.9540   24.0940 N   0  0  0  0  0  0  0  0  0  0  0  0
    0.4580    3.4310   25.2880 N   0  0  0  0  0  0  0  0  0  0  0  0
    1.3810    2.4480   25.3400 C   0  0  0  0  0  0  0  0  0  0  0  0
    1.7720    1.8950   26.5440 C   0  0  0  0  0  0  0  0  0  0  0  0
    2.7330    0.8840   26.5450 C   0  0  0  0  0  0  0  0  0  0  0  0
    3.3300    0.3840   25.3720 C   0  0  0  0  0  0  0  0  0  0  0  0
   10.4391   -4.1697   17.1534 H   0  0  0  0  0  0  0  0  0  0  0  0
   12.2330   -2.4510   17.1762 H   0  0  0  0  0  0  0  0  0  0  0  0
   11.6842   -0.0490   17.4481 H   0  0  0  0  0  0  0  0  0  0  0  0
    9.3332    0.7087   17.7129 H   0  0  0  0  0  0  0  0  0  0  0  0
    7.0824    0.2908   17.5884 H   0  0  0  0  0  0  0  0  0  0  0  0
    6.5113   -1.4004   17.0282 H   0  0  0  0  0  0  0  0  0  0  0  0
    6.6341   -3.0624   19.4932 H   0  0  0  0  0  0  0  0  0  0  0  0
    7.7522   -1.9382   20.3233 H   0  0  0  0  0  0  0  0  0  0  0  0
    4.7475   -2.3006   20.8315 H   0  0  0  0  0  0  0  0  0  0  0  0
    6.1348   -2.6883   21.9485 H   0  0  0  0  0  0  0  0  0  0  0  0
    6.6426   -0.3391   22.2257 H   0  0  0  0  0  0  0  0  0  0  0  0
    4.4331    0.9508   20.9685 H   0  0  0  0  0  0  0  0  0  0  0  0
    6.2278    1.1133   20.6629 H   0  0  0  0  0  0  0  0  0  0  0  0
    5.1487    0.6325   18.5650 H   0  0  0  0  0  0  0  0  0  0  0  0
    4.2817   -0.7694   19.2698 H   0  0  0  0  0  0  0  0  0  0  0  0
    4.2405   -1.5783   23.0638 H   0  0  0  0  0  0  0  0  0  0  0  0
    5.2935   -0.2342   23.8271 H   0  0  0  0  0  0  0  0  0  0  0  0
    2.7699    1.5906   21.5217 H   0  0  0  0  0  0  0  0  0  0  0  0
    1.5061    2.5830   20.7466 H   0  0  0  0  0  0  0  0  0  0  0  0
   -1.1948    5.3309   24.9841 H   0  0  0  0  0  0  0  0  0  0  0  0
   -1.1902    5.3261   23.2001 H   0  0  0  0  0  0  0  0  0  0  0  0
    1.3317    2.2470   27.4886 H   0  0  0  0  0  0  0  0  0  0  0  0
    3.0398    0.4559   27.5107 H   0  0  0  0  0  0  0  0  0  0  0  0
    4.0841   -0.4121   25.4591 H   0  0  0  0  0  0  0  0  0  0  0  0
  1  2  1  0
  2  3  2  0
  2  7  1  0
  3  4  1  0
  4  5  2  0
  5  6  1  0
  6  7  2  0
  7  8  1  0
  8  9  1  0
  9 10  1  0
  9 14  1  0
 10 11  1  0
 11 12  1  0
 12 13  1  0
 12 15  1  0
 13 14  1  0
 15 16  1  0
 16 17  1  0
 17 18  1  0
 17 28  2  0
 18 19  2  0
 18 25  1  0
 19 20  1  0
 19 21  1  0
 21 22  2  0
 22 23  1  0
 22 24  1  0
 24 25  2  0
 25 26  1  0
 26 27  2  0
 27 28  1  0
  3 29  1  0
  4 30  1  0
  5 31  1  0
  6 32  1  0
  8 33  1  0
  8 34  1  0
 10 35  1  0
 10 36  1  0
 11 37  1  0
 11 38  1  0
 12 39  1  0
 13 40  1  0
 13 41  1  0
 14 42  1  0
 14 43  1  0
 15 44  1  0
 15 45  1  0
 20 46  1  0
 20 47  1  0
 23 48  1  0
 23 49  1  0
 26 50  1  0
 27 51  1  0
 28 52  1  0
A    1
F58
A    2
C1
A    3
C6
A    4
C5
A    5
C4
A    6
C3
A    7
C2
A    8
C13
A    9
N15
A   10
C21
A   11
C20
A   12
C19
A   13
C18
A   14
C17
A   15
C28
A   16
O30
A   17
C32
A   18
C38
A   19
C45
A   20
N54
A   21
N46
A   22
C47
A   23
N56
A   24
N48
A   25
C37
A   26
C36
A   27
C35
A   28
C34
M  END
