1HWW_SWA_A_1103
     RDKit          3D

 27 28  0  0  0  0  0  0  0  0999 V2000
   31.0850   66.8500    6.1040 C   0  0  0  0  0  0  0  0  0  0  0  0
   31.6160   67.9930    5.4120 O   0  0  0  0  0  0  0  0  0  0  0  0
   31.2910   67.0030    7.6490 C   0  0  0  0  0  0  0  0  0  0  0  0
   30.7310   65.8070    8.3070 N   0  0  0  0  0  0  0  0  0  0  0  0
   29.2560   65.6700    8.1360 C   0  0  0  0  0  0  0  0  0  0  0  0
   28.9520   65.4970    6.6230 C   0  0  0  0  0  0  0  0  0  0  0  0
   29.5540   66.6860    5.8180 C   0  0  0  0  0  0  0  0  0  0  0  0
   31.2840   65.7130    9.6520 C   0  0  0  0  0  0  0  0  0  0  0  0
   32.6480   66.4480    9.5970 C   0  0  0  0  0  0  0  0  0  0  0  0
   33.7150   65.5340    9.8330 O   0  0  0  0  0  0  0  0  0  0  0  0
   32.7550   67.0820    8.1610 C   0  0  0  0  0  0  0  0  0  0  0  0
   33.6410   66.3140    7.3190 O   0  0  0  0  0  0  0  0  0  0  0  0
   31.6224   65.9618    5.7404 H   0  0  0  0  0  0  0  0  0  0  0  0
   31.9271   68.6627    6.0713 H   0  0  0  0  0  0  0  0  0  0  0  0
   30.8079   67.9626    7.8850 H   0  0  0  0  0  0  0  0  0  0  0  0
   28.8980   64.7897    8.6899 H   0  0  0  0  0  0  0  0  0  0  0  0
   28.7458   66.5639    8.5242 H   0  0  0  0  0  0  0  0  0  0  0  0
   29.3958   64.5552    6.2679 H   0  0  0  0  0  0  0  0  0  0  0  0
   27.8623   65.4761    6.4744 H   0  0  0  0  0  0  0  0  0  0  0  0
   29.0347   67.6123    6.1049 H   0  0  0  0  0  0  0  0  0  0  0  0
   29.4213   66.4815    4.7454 H   0  0  0  0  0  0  0  0  0  0  0  0
   30.6149   66.1999   10.3767 H   0  0  0  0  0  0  0  0  0  0  0  0
   31.3991   64.6667    9.9715 H   0  0  0  0  0  0  0  0  0  0  0  0
   32.7165   67.2249   10.3727 H   0  0  0  0  0  0  0  0  0  0  0  0
   33.8447   65.4229   10.8082 H   0  0  0  0  0  0  0  0  0  0  0  0
   33.1659   68.1024    8.1613 H   0  0  0  0  0  0  0  0  0  0  0  0
   34.2549   65.7818    7.8847 H   0  0  0  0  0  0  0  0  0  0  0  0
  1  2  1  0
  1  3  1  0
  1  7  1  0
  3  4  1  0
  3 11  1  0
  4  5  1  0
  4  8  1  0
  5  6  1  0
  6  7  1  0
  8  9  1  0
  9 10  1  0
  9 11  1  0
 11 12  1  0
  1 13  1  0
  2 14  1  0
  3 15  1  0
  5 16  1  0
  5 17  1  0
  6 18  1  0
  6 19  1  0
  7 20  1  0
  7 21  1  0
  8 22  1  0
  8 23  1  0
  9 24  1  0
 10 25  1  0
 11 26  1  0
 12 27  1  0
A    1
C1
A    2
O1
A    3
C3
A    4
N4
A    5
C5
A    6
C6
A    7
C2
A    8
C9
A    9
C8
A   10
O13
A   11
C7
A   12
O11
M  END
