1C8K_CPB_A_940
     RDKit          3D

 48 51  0  0  0  0  0  0  0  0999 V2000
   43.6080   40.0770   27.8640 C   0  0  0  0  0  0  0  0  0  0  0  0
   42.6230   39.6510   28.8790 N   0  0  0  0  0  0  0  0  0  0  0  0
   41.2240   39.6490   28.3510 C   0  0  0  0  0  0  0  0  0  0  0  0
   40.1800   39.2250   29.4250 C   0  0  0  0  0  0  0  0  0  0  0  0
   40.6120   37.8860   30.0840 C   0  0  0  0  0  0  0  0  0  0  0  0
   42.0980   37.9350   30.6030 C   0  0  0  0  0  0  0  0  0  0  0  0
   43.0260   38.3180   29.4190 C   0  0  0  0  0  0  0  0  0  0  0  0
   39.5350   37.5130   31.1380 C   0  0  0  0  0  0  0  0  0  0  0  0
   38.6990   36.4150   30.8150 C   0  0  0  0  0  0  0  0  0  0  0  0
   38.8860   35.7310   29.5890 O   0  0  0  0  0  0  0  0  0  0  0  0
   38.1580   34.6600   29.1780 C   0  0  0  0  0  0  0  0  0  0  0  0
   37.1540   34.1700   29.9490 C   0  0  0  0  0  0  0  0  0  0  0  0
   36.8480   34.7840   31.2610 C   0  0  0  0  0  0  0  0  0  0  0  0
   35.9610   34.3380   31.9540 O   0  0  0  0  0  0  0  0  0  0  0  0
   37.6840   35.9780   31.7160 C   0  0  0  0  0  0  0  0  0  0  0  0
   37.4860   36.6450   32.9650 C   0  0  0  0  0  0  0  0  0  0  0  0
   36.5010   36.2430   33.8840 O   0  0  0  0  0  0  0  0  0  0  0  0
   38.3120   37.7460   33.2850 C   0  0  0  0  0  0  0  0  0  0  0  0
   39.3360   38.1830   32.3920 C   0  0  0  0  0  0  0  0  0  0  0  0
   40.1330   39.2620   32.7390 O   0  0  0  0  0  0  0  0  0  0  0  0
   38.4970   34.0180   27.8170 C   0  0  0  0  0  0  0  0  0  0  0  0
   38.9230   34.8060   26.6740 C   0  0  0  0  0  0  0  0  0  0  0  0
   39.0800   36.5310   26.7370 Cl  0  0  0  0  0  0  0  0  0  0  0  0
   39.2310   34.1870   25.4410 C   0  0  0  0  0  0  0  0  0  0  0  0
   39.1330   32.7750   25.2970 C   0  0  0  0  0  0  0  0  0  0  0  0
   38.7090   31.9770   26.4170 C   0  0  0  0  0  0  0  0  0  0  0  0
   38.4000   32.5920   27.6640 C   0  0  0  0  0  0  0  0  0  0  0  0
   42.3800   38.9180   31.6090 O   0  0  0  0  0  0  0  0  0  0  0  0
   44.5066   40.4656   28.3655 H   0  0  0  0  0  0  0  0  0  0  0  0
   43.8820   39.2170   27.2353 H   0  0  0  0  0  0  0  0  0  0  0  0
   43.1689   40.8657   27.2353 H   0  0  0  0  0  0  0  0  0  0  0  0
   40.9779   40.6624   28.0011 H   0  0  0  0  0  0  0  0  0  0  0  0
   41.1775   38.9152   27.5329 H   0  0  0  0  0  0  0  0  0  0  0  0
   40.1129   40.0061   30.1966 H   0  0  0  0  0  0  0  0  0  0  0  0
   39.1998   39.0918   28.9439 H   0  0  0  0  0  0  0  0  0  0  0  0
   40.6474   37.0669   29.3506 H   0  0  0  0  0  0  0  0  0  0  0  0
   42.2633   36.9374   31.0360 H   0  0  0  0  0  0  0  0  0  0  0  0
   42.9399   37.5604   28.6262 H   0  0  0  0  0  0  0  0  0  0  0  0
   44.0672   38.3654   29.7707 H   0  0  0  0  0  0  0  0  0  0  0  0
   36.5639   33.3111   29.5967 H   0  0  0  0  0  0  0  0  0  0  0  0
   36.6731   36.3132   34.8564 H   0  0  0  0  0  0  0  0  0  0  0  0
   38.1633   38.2749   34.2380 H   0  0  0  0  0  0  0  0  0  0  0  0
   40.2902   39.4748   33.6930 H   0  0  0  0  0  0  0  0  0  0  0  0
   39.5490   34.8019   24.5861 H   0  0  0  0  0  0  0  0  0  0  0  0
   39.3793   32.2971   24.3373 H   0  0  0  0  0  0  0  0  0  0  0  0
   38.6230   30.8857   26.3094 H   0  0  0  0  0  0  0  0  0  0  0  0
   38.0850   31.9714   28.5159 H   0  0  0  0  0  0  0  0  0  0  0  0
   42.2644   38.5149   32.5058 H   0  0  0  0  0  0  0  0  0  0  0  0
  1  2  1  0
  2  3  1  0
  2  7  1  0
  3  4  1  0
  4  5  1  0
  5  6  1  0
  5  8  1  0
  6  7  1  0
  6 28  1  0
  8  9  2  0
  8 19  1  0
  9 10  1  0
  9 15  1  0
 10 11  1  0
 11 12  2  0
 11 21  1  0
 12 13  1  0
 13 14  2  0
 13 15  1  0
 15 16  2  0
 16 17  1  0
 16 18  1  0
 18 19  2  0
 19 20  1  0
 21 22  2  0
 21 27  1  0
 22 23  1  0
 22 24  1  0
 24 25  2  0
 25 26  1  0
 26 27  2  0
  1 29  1  0
  1 30  1  0
  1 31  1  0
  3 32  1  0
  3 33  1  0
  4 34  1  0
  4 35  1  0
  5 36  1  0
  6 37  1  0
  7 38  1  0
  7 39  1  0
 12 40  1  0
 17 41  1  0
 18 42  1  0
 20 43  1  0
 24 44  1  0
 25 45  1  0
 26 46  1  0
 27 47  1  0
 28 48  1  0
A    1
C1
A    2
N1
A    3
C16
A    4
C15
A    5
C14
A    6
C13
A    7
C12
A    8
C8
A    9
C9
A   10
O1
A   11
C2
A   12
C3
A   13
C4
A   14
O4
A   15
C10
A   16
C5
A   17
O5
A   18
C6
A   19
C7
A   20
O7
A   21
C21
A   22
C22
A   23
CL1
A   24
C23
A   25
C24
A   26
C25
A   27
C26
A   28
O3
M  END
