3BNM_SPJ_B_803
     RDKit          3D

 46 45  0  0  0  0  0  0  0  0999 V2000
  117.4510   29.7480   74.4220 N   0  0  0  0  0  0  0  0  0  0  0  0
  118.5220   30.2640   75.2860 C   0  0  0  0  0  0  0  0  0  0  0  0
  119.7690   30.5560   74.4500 C   0  0  0  0  0  0  0  0  0  0  0  0
  118.8240   29.2450   76.3880 C   0  0  0  0  0  0  0  0  0  0  0  0
  119.1340   27.8660   75.8020 C   0  0  0  0  0  0  0  0  0  0  0  0
  119.5390   26.9600   76.8870 N   0  0  0  0  0  0  0  0  0  0  0  0
  119.6620   25.5850   76.3820 C   0  0  0  0  0  0  0  0  0  0  0  0
  120.3700   24.7240   77.4310 C   0  0  0  0  0  0  0  0  0  0  0  0
  120.4710   23.2630   76.9890 C   0  0  0  0  0  0  0  0  0  0  0  0
  121.1140   23.1540   75.6040 C   0  0  0  0  0  0  0  0  0  0  0  0
  121.3180   21.7400   75.2600 N   0  0  0  0  0  0  0  0  0  0  0  0
  122.5670   21.2670   75.8750 C   0  0  0  0  0  0  0  0  0  0  0  0
  122.8150   19.8090   75.4850 C   0  0  0  0  0  0  0  0  0  0  0  0
  122.8410   19.6380   73.9650 C   0  0  0  0  0  0  0  0  0  0  0  0
  123.2250   18.2080   73.5800 C   0  0  0  0  0  0  0  0  0  0  0  0
  121.5130   19.9510   73.4170 N   0  0  0  0  0  0  0  0  0  0  0  0
  116.6865   29.3797   75.0057 H   0  0  0  0  0  0  0  0  0  0  0  0
  117.0929   30.5090   73.8274 H   0  0  0  0  0  0  0  0  0  0  0  0
  118.1990   31.2037   75.7579 H   0  0  0  0  0  0  0  0  0  0  0  0
  120.6199   30.7552   75.1180 H   0  0  0  0  0  0  0  0  0  0  0  0
  119.9968   29.6869   73.8154 H   0  0  0  0  0  0  0  0  0  0  0  0
  119.5872   31.4359   73.8154 H   0  0  0  0  0  0  0  0  0  0  0  0
  119.6924   29.5912   76.9677 H   0  0  0  0  0  0  0  0  0  0  0  0
  117.9361   29.1567   77.0313 H   0  0  0  0  0  0  0  0  0  0  0  0
  118.2373   27.4673   75.3051 H   0  0  0  0  0  0  0  0  0  0  0  0
  119.9486   27.9509   75.0677 H   0  0  0  0  0  0  0  0  0  0  0  0
  120.4471   27.2661   77.2646 H   0  0  0  0  0  0  0  0  0  0  0  0
  118.6606   25.1748   76.1846 H   0  0  0  0  0  0  0  0  0  0  0  0
  120.2455   25.5850   75.4495 H   0  0  0  0  0  0  0  0  0  0  0  0
  121.3841   25.1190   77.5910 H   0  0  0  0  0  0  0  0  0  0  0  0
  119.7814   24.7615   78.3595 H   0  0  0  0  0  0  0  0  0  0  0  0
  121.0838   22.7087   77.7151 H   0  0  0  0  0  0  0  0  0  0  0  0
  119.4568   22.8400   76.9397 H   0  0  0  0  0  0  0  0  0  0  0  0
  120.4542   23.6200   74.8573 H   0  0  0  0  0  0  0  0  0  0  0  0
  122.0857   23.6695   75.6130 H   0  0  0  0  0  0  0  0  0  0  0  0
  120.5275   21.1822   75.6133 H   0  0  0  0  0  0  0  0  0  0  0  0
  123.4050   21.8869   75.5236 H   0  0  0  0  0  0  0  0  0  0  0  0
  122.4849   21.3420   76.9694 H   0  0  0  0  0  0  0  0  0  0  0  0
  123.7820   19.4867   75.8986 H   0  0  0  0  0  0  0  0  0  0  0  0
  121.9957   19.1967   75.8898 H   0  0  0  0  0  0  0  0  0  0  0  0
  123.5937   20.3242   73.5497 H   0  0  0  0  0  0  0  0  0  0  0  0
  123.3847   17.6132   74.4914 H   0  0  0  0  0  0  0  0  0  0  0  0
  122.4158   17.7584   72.9859 H   0  0  0  0  0  0  0  0  0  0  0  0
  124.1506   18.2242   72.9859 H   0  0  0  0  0  0  0  0  0  0  0  0
  120.8506   20.1071   74.1902 H   0  0  0  0  0  0  0  0  0  0  0  0
  121.5720   20.8011   72.8385 H   0  0  0  0  0  0  0  0  0  0  0  0
  1  2  1  0
  2  3  1  0
  2  4  1  0
  4  5  1  0
  5  6  1  0
  6  7  1  0
  7  8  1  0
  8  9  1  0
  9 10  1  0
 10 11  1  0
 11 12  1  0
 12 13  1  0
 13 14  1  0
 14 15  1  0
 14 16  1  0
  1 17  1  0
  1 18  1  0
  2 19  1  0
  3 20  1  0
  3 21  1  0
  3 22  1  0
  4 23  1  0
  4 24  1  0
  5 25  1  0
  5 26  1  0
  6 27  1  0
  7 28  1  0
  7 29  1  0
  8 30  1  0
  8 31  1  0
  9 32  1  0
  9 33  1  0
 10 34  1  0
 10 35  1  0
 11 36  1  0
 12 37  1  0
 12 38  1  0
 13 39  1  0
 13 40  1  0
 14 41  1  0
 15 42  1  0
 15 43  1  0
 15 44  1  0
 16 45  1  0
 16 46  1  0
A    1
N1B
A    2
C1C
A    3
C1A
A    4
C1D
A    5
C1E
A    6
N1F
A    7
C1G
A    8
C1H
A    9
C1I
A   10
C1J
A   11
N1K
A   12
C1L
A   13
C1M
A   14
C1N
A   15
C1P
A   16
N1O
M  END
