1F0Q_EMO_A_400
     RDKit          3D

 30 32  0  0  0  0  0  0  0  0999 V2000
   44.4380    8.6260    2.8160 C   0  0  0  0  0  0  0  0  0  0  0  0
   45.2150    9.7220    2.4500 O   0  0  0  0  0  0  0  0  0  0  0  0
   44.1340    7.7130    1.7570 C   0  0  0  0  0  0  0  0  0  0  0  0
   43.3440    6.5560    2.0280 C   0  0  0  0  0  0  0  0  0  0  0  0
   43.0370    5.6540    1.0140 O   0  0  0  0  0  0  0  0  0  0  0  0
   42.8410    6.2870    3.3480 C   0  0  0  0  0  0  0  0  0  0  0  0
   43.1290    7.1810    4.4340 C   0  0  0  0  0  0  0  0  0  0  0  0
   42.5980    6.8860    5.8540 C   0  0  0  0  0  0  0  0  0  0  0  0
   41.9180    5.8870    6.0690 O   0  0  0  0  0  0  0  0  0  0  0  0
   42.9280    7.8720    7.0010 C   0  0  0  0  0  0  0  0  0  0  0  0
   42.4560    7.6230    8.3570 C   0  0  0  0  0  0  0  0  0  0  0  0
   42.7810    8.5510    9.4250 C   0  0  0  0  0  0  0  0  0  0  0  0
   42.3340    8.3970   10.8460 C   0  0  0  0  0  0  0  0  0  0  0  0
   43.5810    9.7040    9.1550 C   0  0  0  0  0  0  0  0  0  0  0  0
   44.0450    9.9480    7.8270 C   0  0  0  0  0  0  0  0  0  0  0  0
   44.8310   11.1160    7.6330 O   0  0  0  0  0  0  0  0  0  0  0  0
   43.7500    9.0500    6.7400 C   0  0  0  0  0  0  0  0  0  0  0  0
   44.2690    9.3490    5.3210 C   0  0  0  0  0  0  0  0  0  0  0  0
   44.9520   10.3400    5.0970 O   0  0  0  0  0  0  0  0  0  0  0  0
   43.9400    8.3710    4.1730 C   0  0  0  0  0  0  0  0  0  0  0  0
   45.6215   10.2955    3.1471 H   0  0  0  0  0  0  0  0  0  0  0  0
   44.5072    7.9020    0.7397 H   0  0  0  0  0  0  0  0  0  0  0  0
   42.7265    4.7416    1.2404 H   0  0  0  0  0  0  0  0  0  0  0  0
   42.2309    5.3894    3.5271 H   0  0  0  0  0  0  0  0  0  0  0  0
   41.8517    6.7293    8.5719 H   0  0  0  0  0  0  0  0  0  0  0  0
   43.1549    8.6798   11.5213 H   0  0  0  0  0  0  0  0  0  0  0  0
   41.4668    9.0482   11.0302 H   0  0  0  0  0  0  0  0  0  0  0  0
   42.0519    7.3499   11.0302 H   0  0  0  0  0  0  0  0  0  0  0  0
   43.8381   10.4004    9.9667 H   0  0  0  0  0  0  0  0  0  0  0  0
   45.1701   11.6199    8.4148 H   0  0  0  0  0  0  0  0  0  0  0  0
  1  2  1  0
  1  3  2  0
  1 20  1  0
  3  4  1  0
  4  5  1  0
  4  6  2  0
  6  7  1  0
  7  8  1  0
  7 20  2  0
  8  9  2  0
  8 10  1  0
 10 11  2  0
 10 17  1  0
 11 12  1  0
 12 13  1  0
 12 14  2  0
 14 15  1  0
 15 16  1  0
 15 17  2  0
 17 18  1  0
 18 19  2  0
 18 20  1  0
  2 21  1  0
  3 22  1  0
  5 23  1  0
  6 24  1  0
 11 25  1  0
 13 26  1  0
 13 27  1  0
 13 28  1  0
 14 29  1  0
 16 30  1  0
A    1
C1
A    2
O1
A    3
C2
A    4
C3
A    5
O3
A    6
C4
A    7
C5
A    8
C6
A    9
O6
A   10
C7
A   11
C8
A   12
C9
A   13
C10
A   14
C16
A   15
C17
A   16
O17
A   17
C18
A   18
C19
A   19
O19
A   20
C20
M  END
