3BQD_DAY_A_301
     RDKit          3D

 72 77  0  0  0  0  0  0  0  0999 V2000
   38.1420   31.6110    9.9440 C   0  0  0  0  0  0  0  0  0  0  0  0
   38.3530   28.4230   11.2960 O   0  0  0  0  0  0  0  0  0  0  0  0
   37.8450   32.8480    9.5150 C   0  0  0  0  0  0  0  0  0  0  0  0
   38.2240   33.2600    8.1260 C   0  0  0  0  0  0  0  0  0  0  0  0
   39.0030   32.2150    7.2770 C   0  0  0  0  0  0  0  0  0  0  0  0
   39.3060   30.9660    7.7730 C   0  0  0  0  0  0  0  0  0  0  0  0
   40.4680   30.2300    6.9850 C   0  0  0  0  0  0  0  0  0  0  0  0
   41.1150   29.0380    7.6490 C   0  0  0  0  0  0  0  0  0  0  0  0
   40.6080   28.5240    9.0420 C   0  0  0  0  0  0  0  0  0  0  0  0
   40.0170   29.7340    9.9410 C   0  0  0  0  0  0  0  0  0  0  0  0
   38.8500   30.4950    9.1820 C   0  0  0  0  0  0  0  0  0  0  0  0
   39.5070   29.2590   11.3730 C   0  0  0  0  0  0  0  0  0  0  0  0
   40.5510   28.4780   12.1480 C   0  0  0  0  0  0  0  0  0  0  0  0
   41.1880   27.2840   11.3080 C   0  0  0  0  0  0  0  0  0  0  0  0
   41.7200   27.8560    9.9030 C   0  0  0  0  0  0  0  0  0  0  0  0
   42.5320   26.6100    9.3350 C   0  0  0  0  0  0  0  0  0  0  0  0
   43.0420   25.9020   10.5710 C   0  0  0  0  0  0  0  0  0  0  0  0
   42.5010   26.7130   11.8330 C   0  0  0  0  0  0  0  0  0  0  0  0
   40.0960   26.1200   10.9890 C   0  0  0  0  0  0  0  0  0  0  0  0
   37.5760   29.6320    8.7720 C   0  0  0  0  0  0  0  0  0  0  0  0
   42.2520   25.7520   13.0780 C   0  0  0  0  0  0  0  0  0  0  0  0
   41.7310   26.2440   14.4560 C   0  0  0  0  0  0  0  0  0  0  0  0
   37.5740   34.5120    7.7400 N   0  0  0  0  0  0  0  0  0  0  0  0
   43.4710   27.7710   12.1700 O   0  0  0  0  0  0  0  0  0  0  0  0
   42.4750   24.5520   12.9800 O   0  0  0  0  0  0  0  0  0  0  0  0
   41.2720   25.1960   15.2950 O   0  0  0  0  0  0  0  0  0  0  0  0
   37.1130   34.0970   10.2160 C   0  0  0  0  0  0  0  0  0  0  0  0
   37.2200   34.9760    8.9150 N   0  0  0  0  0  0  0  0  0  0  0  0
   37.7090   34.5830    5.4750 C   0  0  0  0  0  0  0  0  0  0  0  0
   37.5950   35.2410    6.7120 C   0  0  0  0  0  0  0  0  0  0  0  0
   37.6920   35.1850    4.2520 C   0  0  0  0  0  0  0  0  0  0  0  0
   37.5650   36.6330    3.9300 C   0  0  0  0  0  0  0  0  0  0  0  0
   37.4310   36.6720    6.5250 C   0  0  0  0  0  0  0  0  0  0  0  0
   37.4230   37.4170    5.1480 C   0  0  0  0  0  0  0  0  0  0  0  0
   40.9330   30.6630    5.7050 C   0  0  0  0  0  0  0  0  0  0  0  0
   44.5620   25.9160   10.4890 C   0  0  0  0  0  0  0  0  0  0  0  0
   37.1737   31.1778   10.2350 H   0  0  0  0  0  0  0  0  0  0  0  0
   38.9488   31.8691   10.6458 H   0  0  0  0  0  0  0  0  0  0  0  0
   38.0454   28.2001   12.2102 H   0  0  0  0  0  0  0  0  0  0  0  0
   39.3192   32.4794    6.2571 H   0  0  0  0  0  0  0  0  0  0  0  0
   41.9506   28.5246    7.1508 H   0  0  0  0  0  0  0  0  0  0  0  0
   39.8360   27.7824    8.7889 H   0  0  0  0  0  0  0  0  0  0  0  0
   40.8584   30.4233   10.1048 H   0  0  0  0  0  0  0  0  0  0  0  0
   39.2725   30.2003   11.8916 H   0  0  0  0  0  0  0  0  0  0  0  0
   41.3561   29.1670   12.4432 H   0  0  0  0  0  0  0  0  0  0  0  0
   40.0486   28.0343   13.0202 H   0  0  0  0  0  0  0  0  0  0  0  0
   42.3819   28.7335    9.9473 H   0  0  0  0  0  0  0  0  0  0  0  0
   41.8742   25.9495    8.7510 H   0  0  0  0  0  0  0  0  0  0  0  0
   43.3446   26.9111    8.6575 H   0  0  0  0  0  0  0  0  0  0  0  0
   42.7013   24.8595   10.6550 H   0  0  0  0  0  0  0  0  0  0  0  0
   39.7109   25.7095   11.9341 H   0  0  0  0  0  0  0  0  0  0  0  0
   39.2645   26.5464   10.4086 H   0  0  0  0  0  0  0  0  0  0  0  0
   40.5745   25.3174   10.4086 H   0  0  0  0  0  0  0  0  0  0  0  0
   37.0616   29.2835    9.6797 H   0  0  0  0  0  0  0  0  0  0  0  0
   36.8895   30.2518    8.1765 H   0  0  0  0  0  0  0  0  0  0  0  0
   37.8969   28.7646    8.1765 H   0  0  0  0  0  0  0  0  0  0  0  0
   42.5496   26.7686   14.9705 H   0  0  0  0  0  0  0  0  0  0  0  0
   40.8713   26.9018   14.2606 H   0  0  0  0  0  0  0  0  0  0  0  0
   43.5439   27.8505   13.1541 H   0  0  0  0  0  0  0  0  0  0  0  0
   41.3867   25.4578   16.2428 H   0  0  0  0  0  0  0  0  0  0  0  0
   36.6972   34.2703   11.2195 H   0  0  0  0  0  0  0  0  0  0  0  0
   37.8215   33.4890    5.4956 H   0  0  0  0  0  0  0  0  0  0  0  0
   37.7845   34.5109    3.3877 H   0  0  0  0  0  0  0  0  0  0  0  0
   37.5768   37.0520    2.9130 H   0  0  0  0  0  0  0  0  0  0  0  0
   37.3012   37.2853    7.4289 H   0  0  0  0  0  0  0  0  0  0  0  0
   37.3123   38.5105    5.1020 H   0  0  0  0  0  0  0  0  0  0  0  0
   41.7321   31.4072    5.8377 H   0  0  0  0  0  0  0  0  0  0  0  0
   41.3245   29.8003    5.1460 H   0  0  0  0  0  0  0  0  0  0  0  0
   40.1003   31.1149    5.1460 H   0  0  0  0  0  0  0  0  0  0  0  0
   44.9840   25.9199   11.5048 H   0  0  0  0  0  0  0  0  0  0  0  0
   44.9085   25.0210    9.9515 H   0  0  0  0  0  0  0  0  0  0  0  0
   44.8919   26.8172    9.9515 H   0  0  0  0  0  0  0  0  0  0  0  0
 11  1  1  0
  3  1  1  0
  2 12  1  0
  4  3  2  0
  3 27  1  0
  5  4  1  0
 23  4  1  0
  5  6  2  0
  7  6  1  0
  6 11  1  0
 35  7  1  0
  7  8  2  0
  8  9  1  0
  9 15  1  0
  9 10  1  0
 11 10  1  0
 10 12  1  0
 20 11  1  0
 12 13  1  0
 14 13  1  0
 15 14  1  0
 19 14  1  0
 14 18  1  0
 16 15  1  0
 16 17  1  0
 36 17  1  0
 17 18  1  0
 18 24  1  0
 18 21  1  0
 25 21  2  0
 21 22  1  0
 22 26  1  0
 30 23  1  0
 23 28  1  0
 28 27  2  0
 31 29  2  0
 29 30  1  0
 33 30  2  0
 32 31  1  0
 32 34  2  0
 34 33  1  0
  1 37  1  0
  1 38  1  0
  2 39  1  0
  5 40  1  0
  8 41  1  0
  9 42  1  0
 10 43  1  0
 12 44  1  0
 13 45  1  0
 13 46  1  0
 15 47  1  0
 16 48  1  0
 16 49  1  0
 17 50  1  0
 19 51  1  0
 19 52  1  0
 19 53  1  0
 20 54  1  0
 20 55  1  0
 20 56  1  0
 22 57  1  0
 22 58  1  0
 24 59  1  0
 26 60  1  0
 27 61  1  0
 29 62  1  0
 31 63  1  0
 32 64  1  0
 33 65  1  0
 34 66  1  0
 35 67  1  0
 35 68  1  0
 35 69  1  0
 36 70  1  0
 36 71  1  0
 36 72  1  0
A    1
C1
A    2
O1
A    3
C2
A    4
C3
A    5
C4
A    6
C5
A    7
C6
A    8
C7
A    9
C8
A   10
C9
A   11
C10
A   12
C11
A   13
C12
A   14
C13
A   15
C14
A   16
C15
A   17
C16
A   18
C17
A   19
C18
A   20
C19
A   21
C20
A   22
C21
A   23
N1
A   24
O2
A   25
O3
A   26
O4
A   27
C22
A   28
N2
A   29
C23
A   30
C24
A   31
C25
A   32
C26
A   33
C27
A   34
C29
A   35
C28
A   36
C30
M  END
