3BQF_SSM_A_400
     RDKit          3D

 30 29  0  0  0  0  0  0  0  0999 V2000
  -30.9840   18.7550   -0.8580 C   0  0  0  0  0  0  0  0  0  0  0  0
  -29.7110   18.5040   -0.0820 C   0  0  0  0  0  0  0  0  0  0  0  0
  -29.7220   17.7530    0.9130 O   0  0  0  0  0  0  0  0  0  0  0  0
  -28.5800   19.1360   -0.4740 N   0  0  0  0  0  0  0  0  0  0  0  0
  -27.2860   18.9550    0.2200 C   0  0  0  0  0  0  0  0  0  0  0  0
  -26.5760   20.3280    0.3140 C   0  0  0  0  0  0  0  0  0  0  0  0
  -25.1230   20.2580    0.1990 C   0  0  0  0  0  0  0  0  0  0  0  0
  -24.6450   21.7140   -0.8060 S   0  0  0  0  0  0  0  0  0  0  0  0
  -25.2770   22.8920   -0.2820 O   0  0  0  0  0  0  0  0  0  0  0  0
  -22.8690   21.7580   -0.7100 C   0  0  0  0  0  0  0  0  0  0  0  0
  -27.5190   18.4120    1.5600 C   0  0  0  0  0  0  0  0  0  0  0  0
  -27.5270   19.1510    2.5180 O   0  0  0  0  0  0  0  0  0  0  0  0
  -27.7540   17.1360    1.6870 N   0  0  0  0  0  0  0  0  0  0  0  0
  -28.0270   16.5780    3.0110 C   0  0  0  0  0  0  0  0  0  0  0  0
  -31.8150   18.9188   -0.1561 H   0  0  0  0  0  0  0  0  0  0  0  0
  -30.8579   19.6456   -1.4912 H   0  0  0  0  0  0  0  0  0  0  0  0
  -31.2054   17.8832   -1.4912 H   0  0  0  0  0  0  0  0  0  0  0  0
  -28.6219   19.7673   -1.2868 H   0  0  0  0  0  0  0  0  0  0  0  0
  -26.6516   18.2512   -0.3387 H   0  0  0  0  0  0  0  0  0  0  0  0
  -26.9558   20.9691   -0.4952 H   0  0  0  0  0  0  0  0  0  0  0  0
  -26.7954   20.7300    1.3141 H   0  0  0  0  0  0  0  0  0  0  0  0
  -24.6553   20.3062    1.1934 H   0  0  0  0  0  0  0  0  0  0  0  0
  -24.7937   19.3156   -0.2630 H   0  0  0  0  0  0  0  0  0  0  0  0
  -22.5589   21.7657    0.3454 H   0  0  0  0  0  0  0  0  0  0  0  0
  -22.4528   20.8699   -1.2080 H   0  0  0  0  0  0  0  0  0  0  0  0
  -22.4973   22.6656   -1.2080 H   0  0  0  0  0  0  0  0  0  0  0  0
  -27.7474   16.5237    0.8588 H   0  0  0  0  0  0  0  0  0  0  0  0
  -27.6828   17.2815    3.7835 H   0  0  0  0  0  0  0  0  0  0  0  0
  -29.1085   16.4111    3.1227 H   0  0  0  0  0  0  0  0  0  0  0  0
  -27.4950   15.6217    3.1227 H   0  0  0  0  0  0  0  0  0  0  0  0
  1  2  1  0
  2  3  2  0
  2  4  1  0
  4  5  1  0
  5  6  1  0
  5 11  1  0
  6  7  1  0
  7  8  1  0
  8  9  2  0
  8 10  1  0
 11 12  2  0
 11 13  1  0
 13 14  1  0
  1 15  1  0
  1 16  1  0
  1 17  1  0
  4 18  1  0
  5 19  1  0
  6 20  1  0
  6 21  1  0
  7 22  1  0
  7 23  1  0
 10 24  1  0
 10 25  1  0
 10 26  1  0
 13 27  1  0
 14 28  1  0
 14 29  1  0
 14 30  1  0
A    1
C2
A    2
C
A    3
O
A    4
N
A    5
CA
A    6
CB
A    7
CG
A    8
SD
A    9
OD1
A   10
CE
A   11
C3
A   12
O3
A   13
N2
A   14
C1
M  END
