3BR9_DEY_A_579
     RDKit          3D

 61 64  0  0  0  0  0  0  0  0999 V2000
   94.4020    5.4100   58.5470 O   0  0  0  0  0  0  0  0  0  0  0  0
   95.2020    6.5870   58.2800 S   0  0  0  0  0  0  0  0  0  0  0  0
   96.6290    6.4960   58.3980 O   0  0  0  0  0  0  0  0  0  0  0  0
   94.5310    7.9480   59.2110 C   0  0  0  0  0  0  0  0  0  0  0  0
   94.8060    8.0820   60.5810 C   0  0  0  0  0  0  0  0  0  0  0  0
   94.2640    9.1510   61.3300 C   0  0  0  0  0  0  0  0  0  0  0  0
   94.5280    9.3080   62.6730 O   0  0  0  0  0  0  0  0  0  0  0  0
   95.1580    8.2370   63.3750 C   0  0  0  0  0  0  0  0  0  0  0  0
   94.1310    7.1910   63.7660 C   0  0  0  0  0  0  0  0  0  0  0  0
   95.7710    8.8160   64.6140 C   0  0  0  0  0  0  0  0  0  0  0  0
   96.4700    8.1810   65.3810 O   0  0  0  0  0  0  0  0  0  0  0  0
   95.4740   10.1300   64.7960 N   0  0  0  0  0  0  0  0  0  0  0  0
   93.4340   10.0700   60.7060 C   0  0  0  0  0  0  0  0  0  0  0  0
   94.8500    7.0570   56.7300 N   0  0  0  0  0  0  0  0  0  0  0  0
   93.9850    8.1080   56.4160 C   0  0  0  0  0  0  0  0  0  0  0  0
   93.3280    8.8380   57.2670 N   0  0  0  0  0  0  0  0  0  0  0  0
   93.6750    8.8600   58.5970 C   0  0  0  0  0  0  0  0  0  0  0  0
   93.1400    9.9160   59.3460 C   0  0  0  0  0  0  0  0  0  0  0  0
   93.8360    8.3230   54.9800 C   0  0  0  0  0  0  0  0  0  0  0  0
   94.4790    7.5590   54.0710 C   0  0  0  0  0  0  0  0  0  0  0  0
   94.9820    6.3080   54.3270 O   0  0  0  0  0  0  0  0  0  0  0  0
   92.9690    9.4320   54.5220 C   0  0  0  0  0  0  0  0  0  0  0  0
   92.2860   10.0590   55.3480 O   0  0  0  0  0  0  0  0  0  0  0  0
   93.0890    9.7690   53.1810 N   0  0  0  0  0  0  0  0  0  0  0  0
   92.3550   10.9110   52.6930 C   0  0  0  0  0  0  0  0  0  0  0  0
   90.8970   10.4690   52.6070 C   0  0  0  0  0  0  0  0  0  0  0  0
   90.6870    9.3370   51.5840 C   0  0  0  0  0  0  0  0  0  0  0  0
   89.2500    8.8300   51.5400 C   0  0  0  0  0  0  0  0  0  0  0  0
   91.1220    9.7990   50.1860 C   0  0  0  0  0  0  0  0  0  0  0  0
   93.8710    9.0960   52.2760 N   0  0  0  0  0  0  0  0  0  0  0  0
   94.5340    8.0590   52.6900 C   0  0  0  0  0  0  0  0  0  0  0  0
   95.4000    7.3120   51.7840 C   0  0  0  0  0  0  0  0  0  0  0  0
   95.9370    6.0630   51.9410 C   0  0  0  0  0  0  0  0  0  0  0  0
   95.8850    8.0600   50.3240 S   0  0  0  0  0  0  0  0  0  0  0  0
   96.8290    6.7110   49.9040 C   0  0  0  0  0  0  0  0  0  0  0  0
   96.7430    5.7490   50.8690 C   0  0  0  0  0  0  0  0  0  0  0  0
   95.4526    7.3444   61.0788 H   0  0  0  0  0  0  0  0  0  0  0  0
   95.9179    7.7578   62.7402 H   0  0  0  0  0  0  0  0  0  0  0  0
   94.0701    7.1289   64.8626 H   0  0  0  0  0  0  0  0  0  0  0  0
   93.1483    7.4721   63.3595 H   0  0  0  0  0  0  0  0  0  0  0  0
   94.4300    6.2136   63.3595 H   0  0  0  0  0  0  0  0  0  0  0  0
   95.3878   10.5113   65.7489 H   0  0  0  0  0  0  0  0  0  0  0  0
   95.3352   10.7443   63.9810 H   0  0  0  0  0  0  0  0  0  0  0  0
   93.0108   10.9116   61.2740 H   0  0  0  0  0  0  0  0  0  0  0  0
   95.2942    6.5451   55.9544 H   0  0  0  0  0  0  0  0  0  0  0  0
   92.4740   10.6404   58.8545 H   0  0  0  0  0  0  0  0  0  0  0  0
   95.1038    6.0052   55.2617 H   0  0  0  0  0  0  0  0  0  0  0  0
   92.4575   11.7569   53.3887 H   0  0  0  0  0  0  0  0  0  0  0  0
   92.7329   11.2449   51.7154 H   0  0  0  0  0  0  0  0  0  0  0  0
   90.5762   10.1142   53.5976 H   0  0  0  0  0  0  0  0  0  0  0  0
   90.3028   11.3340   52.2773 H   0  0  0  0  0  0  0  0  0  0  0  0
   91.3132    8.4948   51.9136 H   0  0  0  0  0  0  0  0  0  0  0  0
   88.8761    8.6981   52.5661 H   0  0  0  0  0  0  0  0  0  0  0  0
   88.6197    9.5600   51.0111 H   0  0  0  0  0  0  0  0  0  0  0  0
   89.2173    7.8661   51.0111 H   0  0  0  0  0  0  0  0  0  0  0  0
   91.8733   10.5969   50.2808 H   0  0  0  0  0  0  0  0  0  0  0  0
   91.5561    8.9499   49.6378 H   0  0  0  0  0  0  0  0  0  0  0  0
   90.2483   10.1813   49.6378 H   0  0  0  0  0  0  0  0  0  0  0  0
   95.7513    5.4033   52.8014 H   0  0  0  0  0  0  0  0  0  0  0  0
   97.4256    6.6249   48.9839 H   0  0  0  0  0  0  0  0  0  0  0  0
   97.2792    4.7913   50.7956 H   0  0  0  0  0  0  0  0  0  0  0  0
  1  2  2  0
  2  3  2  0
  2  4  1  0
  2 14  1  0
  4  5  1  0
  4 17  2  0
  5  6  2  0
  6  7  1  0
  6 13  1  0
  7  8  1  0
  8  9  1  0
  8 10  1  0
 10 11  2  0
 10 12  1  0
 13 18  2  0
 14 15  1  0
 15 16  2  0
 15 19  1  0
 16 17  1  0
 17 18  1  0
 19 20  2  0
 19 22  1  0
 20 21  1  0
 20 31  1  0
 22 23  2  0
 22 24  1  0
 24 25  1  0
 24 30  1  0
 25 26  1  0
 26 27  1  0
 27 28  1  0
 27 29  1  0
 30 31  2  0
 31 32  1  0
 32 33  2  0
 32 34  1  0
 33 36  1  0
 34 35  1  0
 35 36  2  0
  5 37  1  0
  8 38  1  0
  9 39  1  0
  9 40  1  0
  9 41  1  0
 12 42  1  0
 12 43  1  0
 13 44  1  0
 14 45  1  0
 18 46  1  0
 21 47  1  0
 25 48  1  0
 25 49  1  0
 26 50  1  0
 26 51  1  0
 27 52  1  0
 28 53  1  0
 28 54  1  0
 28 55  1  0
 29 56  1  0
 29 57  1  0
 29 58  1  0
 33 59  1  0
 35 60  1  0
 36 61  1  0
A    1
O32
A    2
S36
A    3
O31
A    4
C9
A    5
C5
A    6
C8
A    7
O34
A    8
C22
A    9
C17
A   10
C16
A   11
O30
A   12
N28
A   13
C3
A   14
N26
A   15
C14
A   16
N24
A   17
C7
A   18
C2
A   19
C12
A   20
C13
A   21
O33
A   22
C15
A   23
O29
A   24
N27
A   25
C21
A   26
C20
A   27
C23
A   28
C19
A   29
C18
A   30
N25
A   31
C11
A   32
C10
A   33
C4
A   34
S35
A   35
C6
A   36
C1
M  END
