3BSC_2PD_A_579
     RDKit          3D

 57 60  0  0  0  0  0  0  0  0999 V2000
   95.4380    5.6880   59.2740 O   0  0  0  0  0  0  0  0  0  0  0  0
   96.1770    6.8860   58.9730 S   0  0  0  0  0  0  0  0  0  0  0  0
   97.6190    6.8960   59.0780 O   0  0  0  0  0  0  0  0  0  0  0  0
   95.5770    8.1840   59.9980 C   0  0  0  0  0  0  0  0  0  0  0  0
   95.7690    8.0720   61.3900 C   0  0  0  0  0  0  0  0  0  0  0  0
   95.3260    9.0850   62.2440 C   0  0  0  0  0  0  0  0  0  0  0  0
   95.4950    8.9880   63.6040 O   0  0  0  0  0  0  0  0  0  0  0  0
   96.7880    9.2010   64.1730 C   0  0  0  0  0  0  0  0  0  0  0  0
   94.6850   10.1950   61.6850 C   0  0  0  0  0  0  0  0  0  0  0  0
   95.7390    7.4020   57.4290 N   0  0  0  0  0  0  0  0  0  0  0  0
   95.0410    8.6010   57.1500 C   0  0  0  0  0  0  0  0  0  0  0  0
   94.7070    9.4800   58.0480 N   0  0  0  0  0  0  0  0  0  0  0  0
   94.9380    9.2900   59.4240 C   0  0  0  0  0  0  0  0  0  0  0  0
   94.4940   10.2970   60.2970 C   0  0  0  0  0  0  0  0  0  0  0  0
   94.8680    8.8500   55.7000 C   0  0  0  0  0  0  0  0  0  0  0  0
   95.7230    8.2840   54.8090 C   0  0  0  0  0  0  0  0  0  0  0  0
   96.6970    7.3850   55.1870 O   0  0  0  0  0  0  0  0  0  0  0  0
   93.8700    9.8430   55.1790 C   0  0  0  0  0  0  0  0  0  0  0  0
   93.0860   10.4120   55.9440 O   0  0  0  0  0  0  0  0  0  0  0  0
   93.8510   10.0620   53.8060 N   0  0  0  0  0  0  0  0  0  0  0  0
   92.9100   10.9690   53.1840 C   0  0  0  0  0  0  0  0  0  0  0  0
   91.9370   10.2190   52.2880 C   0  0  0  0  0  0  0  0  0  0  0  0
   90.8340    9.5250   53.0970 C   0  0  0  0  0  0  0  0  0  0  0  0
   90.3680   10.4040   54.2570 C   0  0  0  0  0  0  0  0  0  0  0  0
   89.6560    9.1740   52.1870 C   0  0  0  0  0  0  0  0  0  0  0  0
   94.6900    9.4590   52.9140 N   0  0  0  0  0  0  0  0  0  0  0  0
   95.5620    8.6180   53.3660 C   0  0  0  0  0  0  0  0  0  0  0  0
   96.5220    7.9760   52.4230 C   0  0  0  0  0  0  0  0  0  0  0  0
   96.7600    6.6040   52.4010 C   0  0  0  0  0  0  0  0  0  0  0  0
   97.7030    6.0800   51.5140 C   0  0  0  0  0  0  0  0  0  0  0  0
   97.2550    8.8090   51.5800 C   0  0  0  0  0  0  0  0  0  0  0  0
   98.1960    8.2850   50.6930 C   0  0  0  0  0  0  0  0  0  0  0  0
   98.4260    6.9120   50.6630 C   0  0  0  0  0  0  0  0  0  0  0  0
   96.2691    7.1845   61.8050 H   0  0  0  0  0  0  0  0  0  0  0  0
   96.7123    9.1885   65.2703 H   0  0  0  0  0  0  0  0  0  0  0  0
   97.4696    8.4030   63.8434 H   0  0  0  0  0  0  0  0  0  0  0  0
   97.1777   10.1754   63.8434 H   0  0  0  0  0  0  0  0  0  0  0  0
   94.3249   11.0004   62.3420 H   0  0  0  0  0  0  0  0  0  0  0  0
   95.9977    6.8023   56.6325 H   0  0  0  0  0  0  0  0  0  0  0  0
   93.9870   11.1824   59.8859 H   0  0  0  0  0  0  0  0  0  0  0  0
   96.8740    7.2216   56.1472 H   0  0  0  0  0  0  0  0  0  0  0  0
   92.3447   11.4936   53.9683 H   0  0  0  0  0  0  0  0  0  0  0  0
   93.4716   11.6858   52.5669 H   0  0  0  0  0  0  0  0  0  0  0  0
   91.4721   10.9326   51.5919 H   0  0  0  0  0  0  0  0  0  0  0  0
   92.5000    9.4454   51.7452 H   0  0  0  0  0  0  0  0  0  0  0  0
   91.2478    8.5974   53.5193 H   0  0  0  0  0  0  0  0  0  0  0  0
   90.6249    9.9194   55.2105 H   0  0  0  0  0  0  0  0  0  0  0  0
   90.8654   11.3834   54.1977 H   0  0  0  0  0  0  0  0  0  0  0  0
   89.2783   10.5420   54.1977 H   0  0  0  0  0  0  0  0  0  0  0  0
   88.7822    8.9136   52.8024 H   0  0  0  0  0  0  0  0  0  0  0  0
   89.4128   10.0387   51.5521 H   0  0  0  0  0  0  0  0  0  0  0  0
   89.9257    8.3172   51.5521 H   0  0  0  0  0  0  0  0  0  0  0  0
   96.2080    5.9363   53.0789 H   0  0  0  0  0  0  0  0  0  0  0  0
   97.8771    4.9942   51.4872 H   0  0  0  0  0  0  0  0  0  0  0  0
   97.0893    9.8959   51.6143 H   0  0  0  0  0  0  0  0  0  0  0  0
   98.7536    8.9535   50.0205 H   0  0  0  0  0  0  0  0  0  0  0  0
   99.1715    6.4887   49.9738 H   0  0  0  0  0  0  0  0  0  0  0  0
  1  2  2  0
  2  3  2  0
  2  4  1  0
  2 10  1  0
  4  5  1  0
  4 13  2  0
  5  6  2  0
  6  7  1  0
  6  9  1  0
  7  8  1  0
  9 14  2  0
 10 11  1  0
 11 12  2  0
 11 15  1  0
 12 13  1  0
 13 14  1  0
 15 16  2  0
 15 18  1  0
 16 17  1  0
 16 27  1  0
 18 19  2  0
 18 20  1  0
 20 21  1  0
 20 26  1  0
 21 22  1  0
 22 23  1  0
 23 24  1  0
 23 25  1  0
 26 27  2  0
 27 28  1  0
 28 29  2  0
 28 31  1  0
 29 30  1  0
 30 33  2  0
 31 32  2  0
 32 33  1  0
  5 34  1  0
  8 35  1  0
  8 36  1  0
  8 37  1  0
  9 38  1  0
 10 39  1  0
 14 40  1  0
 17 41  1  0
 21 42  1  0
 21 43  1  0
 22 44  1  0
 22 45  1  0
 23 46  1  0
 24 47  1  0
 24 48  1  0
 24 49  1  0
 25 50  1  0
 25 51  1  0
 25 52  1  0
 29 53  1  0
 30 54  1  0
 31 55  1  0
 32 56  1  0
 33 57  1  0
A    1
O30
A    2
S33
A    3
O29
A    4
C12
A    5
C8
A    6
C11
A    7
O32
A    8
C20
A    9
C7
A   10
N26
A   11
C16
A   12
N24
A   13
C10
A   14
C6
A   15
C14
A   16
C15
A   17
O31
A   18
C17
A   19
O28
A   20
N27
A   21
C22
A   22
C21
A   23
C23
A   24
C19
A   25
C18
A   26
N25
A   27
C13
A   28
C9
A   29
C4
A   30
C2
A   31
C5
A   32
C3
A   33
C1
M  END
