3BVT_WZ1_A_1050
     RDKit          3D

 48 49  0  0  0  0  0  0  0  0999 V2000
   28.5880   63.7460   11.2490 O   0  0  0  0  0  0  0  0  0  0  0  0
   28.2010   65.0380   11.7790 C   0  0  0  0  0  0  0  0  0  0  0  0
   26.7090   64.9210   12.1710 C   0  0  0  0  0  0  0  0  0  0  0  0
   26.4100   63.9160   13.3080 C   0  0  0  0  0  0  0  0  0  0  0  0
   25.2870   63.0850   12.9570 O   0  0  0  0  0  0  0  0  0  0  0  0
   26.2260   66.2380   12.5700 O   0  0  0  0  0  0  0  0  0  0  0  0
   26.2510   67.2390   11.5080 C   0  0  0  0  0  0  0  0  0  0  0  0
   25.5990   66.7860   10.3180 O   0  0  0  0  0  0  0  0  0  0  0  0
   24.3690   67.5120   10.0630 C   0  0  0  0  0  0  0  0  0  0  0  0
   27.6900   67.4920   11.0360 C   0  0  0  0  0  0  0  0  0  0  0  0
   28.4140   68.2540   12.0090 O   0  0  0  0  0  0  0  0  0  0  0  0
   28.4380   66.1740   10.7290 C   0  0  0  0  0  0  0  0  0  0  0  0
   30.2130   66.5840   10.4890 S   0  0  0  0  0  0  0  0  0  0  0  0
   30.7440   65.2860    9.3440 C   0  0  0  0  0  0  0  0  0  0  0  0
   29.9470   65.2990    8.1340 O   0  0  0  0  0  0  0  0  0  0  0  0
   30.0930   66.4900    7.3260 C   0  0  0  0  0  0  0  0  0  0  0  0
   29.0010   66.4470    6.2660 C   0  0  0  0  0  0  0  0  0  0  0  0
   27.7240   66.6200    6.9550 O   0  0  0  0  0  0  0  0  0  0  0  0
   31.5030   66.4440    6.7330 C   0  0  0  0  0  0  0  0  0  0  0  0
   31.7000   67.6090    5.9230 O   0  0  0  0  0  0  0  0  0  0  0  0
   32.5190   66.4390    7.8840 C   0  0  0  0  0  0  0  0  0  0  0  0
   33.7950   66.0690    7.3050 O   0  0  0  0  0  0  0  0  0  0  0  0
   32.2400   65.3890    8.9800 C   0  0  0  0  0  0  0  0  0  0  0  0
   32.7190   64.0860    8.5730 O   0  0  0  0  0  0  0  0  0  0  0  0
   28.7741   63.1248   11.9970 H   0  0  0  0  0  0  0  0  0  0  0  0
   28.8108   65.3076   12.6539 H   0  0  0  0  0  0  0  0  0  0  0  0
   26.1909   64.5336   11.2813 H   0  0  0  0  0  0  0  0  0  0  0  0
   27.2933   63.2817   13.4735 H   0  0  0  0  0  0  0  0  0  0  0  0
   26.1700   64.4738   14.2252 H   0  0  0  0  0  0  0  0  0  0  0  0
   24.8469   62.7593   13.7818 H   0  0  0  0  0  0  0  0  0  0  0  0
   25.7611   68.1229   11.9424 H   0  0  0  0  0  0  0  0  0  0  0  0
   23.9012   67.7881   11.0195 H   0  0  0  0  0  0  0  0  0  0  0  0
   24.5932   68.4226    9.4881 H   0  0  0  0  0  0  0  0  0  0  0  0
   23.6801   66.8757    9.4881 H   0  0  0  0  0  0  0  0  0  0  0  0
   27.6283   68.0677   10.1007 H   0  0  0  0  0  0  0  0  0  0  0  0
   28.1441   67.9699   12.9181 H   0  0  0  0  0  0  0  0  0  0  0  0
   28.0253   65.7379    9.8073 H   0  0  0  0  0  0  0  0  0  0  0  0
   30.5923   64.3327    9.8714 H   0  0  0  0  0  0  0  0  0  0  0  0
   29.9829   67.4303    7.8861 H   0  0  0  0  0  0  0  0  0  0  0  0
   29.1497   67.2584    5.5383 H   0  0  0  0  0  0  0  0  0  0  0  0
   29.0241   65.4926    5.7196 H   0  0  0  0  0  0  0  0  0  0  0  0
   27.8717   66.6000    7.9337 H   0  0  0  0  0  0  0  0  0  0  0  0
   31.6342   65.5411    6.1185 H   0  0  0  0  0  0  0  0  0  0  0  0
   31.8334   68.3977    6.5063 H   0  0  0  0  0  0  0  0  0  0  0  0
   32.4786   67.4335    8.3523 H   0  0  0  0  0  0  0  0  0  0  0  0
   34.4437   65.8809    8.0288 H   0  0  0  0  0  0  0  0  0  0  0  0
   32.7819   65.7289    9.8749 H   0  0  0  0  0  0  0  0  0  0  0  0
   32.9189   63.5423    9.3758 H   0  0  0  0  0  0  0  0  0  0  0  0
  1  2  1  0
  2  3  1  0
  2 12  1  0
  3  4  1  0
  3  6  1  0
  4  5  1  0
  6  7  1  0
  7  8  1  0
  7 10  1  0
  8  9  1  0
 10 11  1  0
 10 12  1  0
 12 13  1  0
 13 14  1  0
 14 15  1  0
 14 23  1  0
 15 16  1  0
 16 17  1  0
 16 19  1  0
 17 18  1  0
 19 20  1  0
 19 21  1  0
 21 22  1  0
 21 23  1  0
 23 24  1  0
  1 25  1  0
  2 26  1  0
  3 27  1  0
  4 28  1  0
  4 29  1  0
  5 30  1  0
  7 31  1  0
  9 32  1  0
  9 33  1  0
  9 34  1  0
 10 35  1  0
 11 36  1  0
 12 37  1  0
 14 38  1  0
 16 39  1  0
 17 40  1  0
 17 41  1  0
 18 42  1  0
 19 43  1  0
 20 44  1  0
 21 45  1  0
 22 46  1  0
 23 47  1  0
 24 48  1  0
A    1
O41
A    2
C41
A    3
C51
A    4
C61
A    5
O61
A    6
O01
A    7
C11
A    8
O11
A    9
C71
A   10
C21
A   11
O21
A   12
C31
A   13
S12
A   14
C12
A   15
O02
A   16
C52
A   17
C62
A   18
O62
A   19
C42
A   20
O42
A   21
C32
A   22
O32
A   23
C22
A   24
O22
M  END
