3BVU_WZ2_A_1050
     RDKit          3D

 69 71  0  0  0  0  0  0  0  0999 V2000
   30.0880   66.6380    7.2560 C   0  0  0  0  0  0  0  0  0  0  0  0
   29.9180   65.4940    8.1550 O   0  0  0  0  0  0  0  0  0  0  0  0
   30.7380   65.6320    9.3030 C   0  0  0  0  0  0  0  0  0  0  0  0
   30.3670   66.7820   10.0650 O   0  0  0  0  0  0  0  0  0  0  0  0
   32.2080   65.6890    8.9350 C   0  0  0  0  0  0  0  0  0  0  0  0
   32.5870   64.2840    8.5600 O   0  0  0  0  0  0  0  0  0  0  0  0
   32.5290   66.5750    7.7190 C   0  0  0  0  0  0  0  0  0  0  0  0
   33.8060   66.1030    7.1880 O   0  0  0  0  0  0  0  0  0  0  0  0
   31.4790   66.4650    6.6200 C   0  0  0  0  0  0  0  0  0  0  0  0
   31.6420   67.5700    5.6950 O   0  0  0  0  0  0  0  0  0  0  0  0
   28.9560   66.5230    6.2050 C   0  0  0  0  0  0  0  0  0  0  0  0
   27.7000   66.7500    6.8740 O   0  0  0  0  0  0  0  0  0  0  0  0
   28.6930   67.6720   11.5140 C   0  0  0  0  0  0  0  0  0  0  0  0
   27.2920   67.5220   11.7620 O   0  0  0  0  0  0  0  0  0  0  0  0
   26.7700   68.1640   12.9380 C   0  0  0  0  0  0  0  0  0  0  0  0
   27.0780   69.5670   12.9260 O   0  0  0  0  0  0  0  0  0  0  0  0
   26.2150   70.1450   11.8850 C   0  0  0  0  0  0  0  0  0  0  0  0
   27.3720   67.4920   14.1500 C   0  0  0  0  0  0  0  0  0  0  0  0
   27.0340   66.0810   14.1040 O   0  0  0  0  0  0  0  0  0  0  0  0
   28.8920   67.6750   14.0820 C   0  0  0  0  0  0  0  0  0  0  0  0
   29.4820   67.2350   12.7540 C   0  0  0  0  0  0  0  0  0  0  0  0
   30.8120   67.7840   12.7040 O   0  0  0  0  0  0  0  0  0  0  0  0
   28.9520   66.7390   10.3500 C   0  0  0  0  0  0  0  0  0  0  0  0
   28.3150   66.7300   18.1650 C   0  0  0  0  0  0  0  0  0  0  0  0
   28.6450   67.9760   17.5090 O   0  0  0  0  0  0  0  0  0  0  0  0
   29.8530   67.9270   16.7170 C   0  0  0  0  0  0  0  0  0  0  0  0
   29.7570   66.7150   15.4040 S   0  0  0  0  0  0  0  0  0  0  0  0
   31.0160   67.5650   17.6040 C   0  0  0  0  0  0  0  0  0  0  0  0
   31.2730   68.5700   18.5820 O   0  0  0  0  0  0  0  0  0  0  0  0
   30.8040   66.2030   18.2390 C   0  0  0  0  0  0  0  0  0  0  0  0
   31.9060   65.7830   19.0490 O   0  0  0  0  0  0  0  0  0  0  0  0
   29.5080   66.2800   19.0450 C   0  0  0  0  0  0  0  0  0  0  0  0
   29.1430   65.0410   19.6150 O   0  0  0  0  0  0  0  0  0  0  0  0
   27.0410   66.8750   18.9650 C   0  0  0  0  0  0  0  0  0  0  0  0
   27.0640   67.7160   19.9760 O   0  0  0  0  0  0  0  0  0  0  0  0
   30.0302   67.6229    7.7425 H   0  0  0  0  0  0  0  0  0  0  0  0
   30.5807   64.7387    9.9253 H   0  0  0  0  0  0  0  0  0  0  0  0
   32.7535   66.1144    9.7902 H   0  0  0  0  0  0  0  0  0  0  0  0
   32.7309   63.7506    9.3815 H   0  0  0  0  0  0  0  0  0  0  0  0
   32.5548   67.6275    8.0377 H   0  0  0  0  0  0  0  0  0  0  0  0
   34.4125   65.8788    7.9377 H   0  0  0  0  0  0  0  0  0  0  0  0
   31.5838   65.4953    6.1113 H   0  0  0  0  0  0  0  0  0  0  0  0
   31.7660   68.4104    6.2034 H   0  0  0  0  0  0  0  0  0  0  0  0
   29.1005   67.2769    5.4172 H   0  0  0  0  0  0  0  0  0  0  0  0
   28.9662   65.5256    5.7411 H   0  0  0  0  0  0  0  0  0  0  0  0
   27.8388   66.7249    7.8539 H   0  0  0  0  0  0  0  0  0  0  0  0
   28.9950   68.7067   11.2947 H   0  0  0  0  0  0  0  0  0  0  0  0
   25.6745   68.0681   12.9650 H   0  0  0  0  0  0  0  0  0  0  0  0
   25.3898   70.6977   12.3580 H   0  0  0  0  0  0  0  0  0  0  0  0
   26.8046   70.8311   11.2592 H   0  0  0  0  0  0  0  0  0  0  0  0
   25.8050   69.3386   11.2592 H   0  0  0  0  0  0  0  0  0  0  0  0
   26.9881   67.9262   15.0849 H   0  0  0  0  0  0  0  0  0  0  0  0
   26.9503   65.7315   15.0265 H   0  0  0  0  0  0  0  0  0  0  0  0
   29.0495   68.7554   14.2160 H   0  0  0  0  0  0  0  0  0  0  0  0
   29.4583   66.1358   12.7181 H   0  0  0  0  0  0  0  0  0  0  0  0
   31.1468   67.9222   13.6254 H   0  0  0  0  0  0  0  0  0  0  0  0
   28.3815   67.0697    9.4696 H   0  0  0  0  0  0  0  0  0  0  0  0
   28.6379   65.7143   10.5978 H   0  0  0  0  0  0  0  0  0  0  0  0
   28.1333   65.9494   17.4116 H   0  0  0  0  0  0  0  0  0  0  0  0
   29.9852   68.9206   16.2640 H   0  0  0  0  0  0  0  0  0  0  0  0
   31.9137   67.5064   16.9709 H   0  0  0  0  0  0  0  0  0  0  0  0
   31.1739   68.1823   19.4875 H   0  0  0  0  0  0  0  0  0  0  0  0
   30.7318   65.4392   17.4508 H   0  0  0  0  0  0  0  0  0  0  0  0
   31.6664   65.8743   20.0052 H   0  0  0  0  0  0  0  0  0  0  0  0
   29.7153   67.0121   19.8394 H   0  0  0  0  0  0  0  0  0  0  0  0
   29.1642   65.1129   20.6022 H   0  0  0  0  0  0  0  0  0  0  0  0
   26.2515   67.2072   18.2748 H   0  0  0  0  0  0  0  0  0  0  0  0
   26.8741   65.8869   19.4187 H   0  0  0  0  0  0  0  0  0  0  0  0
   27.0502   67.2098   20.8267 H   0  0  0  0  0  0  0  0  0  0  0  0
  1  2  1  0
  1  9  1  0
  1 11  1  0
  2  3  1  0
  3  4  1  0
  3  5  1  0
  4 23  1  0
  5  6  1  0
  5  7  1  0
  7  8  1  0
  7  9  1  0
  9 10  1  0
 11 12  1  0
 13 14  1  0
 13 21  1  0
 13 23  1  0
 14 15  1  0
 15 16  1  0
 15 18  1  0
 16 17  1  0
 18 19  1  0
 18 20  1  0
 20 21  1  0
 20 27  1  0
 21 22  1  0
 24 25  1  0
 24 32  1  0
 24 34  1  0
 25 26  1  0
 26 27  1  0
 26 28  1  0
 28 29  1  0
 28 30  1  0
 30 31  1  0
 30 32  1  0
 32 33  1  0
 34 35  1  0
  1 36  1  0
  3 37  1  0
  5 38  1  0
  6 39  1  0
  7 40  1  0
  8 41  1  0
  9 42  1  0
 10 43  1  0
 11 44  1  0
 11 45  1  0
 12 46  1  0
 13 47  1  0
 15 48  1  0
 17 49  1  0
 17 50  1  0
 17 51  1  0
 18 52  1  0
 19 53  1  0
 20 54  1  0
 21 55  1  0
 22 56  1  0
 23 57  1  0
 23 58  1  0
 24 59  1  0
 26 60  1  0
 28 61  1  0
 29 62  1  0
 30 63  1  0
 31 64  1  0
 32 65  1  0
 33 66  1  0
 34 67  1  0
 34 68  1  0
 35 69  1  0
A    1
C51
A    2
O01
A    3
C11
A    4
O11
A    5
C21
A    6
O21
A    7
C31
A    8
O31
A    9
C41
A   10
O41
A   11
C61
A   12
O61
A   13
C52
A   14
O02
A   15
C12
A   16
O12
A   17
C22
A   18
C01
A   19
O22
A   20
C32
A   21
C42
A   22
O42
A   23
C62
A   24
C53
A   25
O03
A   26
C13
A   27
S13
A   28
C23
A   29
O23
A   30
C33
A   31
O33
A   32
C43
A   33
O43
A   34
C63
A   35
O63
M  END
