3BVV_WZ3_A_1049
     RDKit          3D

 69 71  0  0  0  0  0  0  0  0999 V2000
   32.6920   64.1210    8.6080 O   0  0  0  0  0  0  0  0  0  0  0  0
   32.3670   65.4830    9.0190 C   0  0  0  0  0  0  0  0  0  0  0  0
   32.6620   66.4830    7.8570 C   0  0  0  0  0  0  0  0  0  0  0  0
   33.9130   66.0710    7.2380 O   0  0  0  0  0  0  0  0  0  0  0  0
   31.5570   66.5060    6.7850 C   0  0  0  0  0  0  0  0  0  0  0  0
   31.7150   67.6080    5.8800 O   0  0  0  0  0  0  0  0  0  0  0  0
   30.1810   66.5780    7.4770 C   0  0  0  0  0  0  0  0  0  0  0  0
   29.0210   66.5100    6.4910 C   0  0  0  0  0  0  0  0  0  0  0  0
   27.7730   66.6730    7.2020 O   0  0  0  0  0  0  0  0  0  0  0  0
   30.0140   65.4590    8.3950 O   0  0  0  0  0  0  0  0  0  0  0  0
   30.9040   65.5310    9.5350 C   0  0  0  0  0  0  0  0  0  0  0  0
   30.6440   66.6940   10.3570 O   0  0  0  0  0  0  0  0  0  0  0  0
   29.6670   66.6130   11.3870 C   0  0  0  0  0  0  0  0  0  0  0  0
   29.8300   67.6900   12.4790 C   0  0  0  0  0  0  0  0  0  0  0  0
   31.1690   67.8090   12.9570 O   0  0  0  0  0  0  0  0  0  0  0  0
   28.2560   66.8590   10.8470 C   0  0  0  0  0  0  0  0  0  0  0  0
   28.1330   68.2060   10.3910 O   0  0  0  0  0  0  0  0  0  0  0  0
   27.2440   66.6430   11.9790 C   0  0  0  0  0  0  0  0  0  0  0  0
   25.9650   66.9730   11.4460 O   0  0  0  0  0  0  0  0  0  0  0  0
   25.3910   65.7940   10.8920 C   0  0  0  0  0  0  0  0  0  0  0  0
   27.5420   67.5020   13.1160 O   0  0  0  0  0  0  0  0  0  0  0  0
   28.8690   67.3560   13.6320 C   0  0  0  0  0  0  0  0  0  0  0  0
   29.0210   68.2960   14.8040 C   0  0  0  0  0  0  0  0  0  0  0  0
   29.9200   67.5960   15.6790 O   0  0  0  0  0  0  0  0  0  0  0  0
   30.1910   68.3400   16.8710 C   0  0  0  0  0  0  0  0  0  0  0  0
   28.9590   68.3550   17.6620 O   0  0  0  0  0  0  0  0  0  0  0  0
   28.5270   67.0000   18.0170 C   0  0  0  0  0  0  0  0  0  0  0  0
   27.0270   66.9450   18.3750 C   0  0  0  0  0  0  0  0  0  0  0  0
   26.6470   67.4410   20.0720 S   0  0  0  0  0  0  0  0  0  0  0  0
   29.5620   66.4140   18.9990 C   0  0  0  0  0  0  0  0  0  0  0  0
   29.0010   65.2150   19.5930 O   0  0  0  0  0  0  0  0  0  0  0  0
   30.8930   66.2680   18.1950 C   0  0  0  0  0  0  0  0  0  0  0  0
   31.9560   65.6150   18.9220 O   0  0  0  0  0  0  0  0  0  0  0  0
   31.3370   67.6620   17.6590 C   0  0  0  0  0  0  0  0  0  0  0  0
   31.7790   68.5300   18.7230 O   0  0  0  0  0  0  0  0  0  0  0  0
   32.8265   63.5573    9.4107 H   0  0  0  0  0  0  0  0  0  0  0  0
   33.0075   65.7989    9.8556 H   0  0  0  0  0  0  0  0  0  0  0  0
   32.7145   67.4978    8.2783 H   0  0  0  0  0  0  0  0  0  0  0  0
   34.5738   65.8534    7.9424 H   0  0  0  0  0  0  0  0  0  0  0  0
   31.6316   65.5829    6.1915 H   0  0  0  0  0  0  0  0  0  0  0  0
   31.8349   68.4443    6.3961 H   0  0  0  0  0  0  0  0  0  0  0  0
   30.1623   67.5450    8.0011 H   0  0  0  0  0  0  0  0  0  0  0  0
   29.1258   67.3124    5.7459 H   0  0  0  0  0  0  0  0  0  0  0  0
   29.0286   65.5342    5.9832 H   0  0  0  0  0  0  0  0  0  0  0  0
   27.9433   66.6508    8.1770 H   0  0  0  0  0  0  0  0  0  0  0  0
   30.7268   64.6682   10.1939 H   0  0  0  0  0  0  0  0  0  0  0  0
   29.8095   65.6013   11.7947 H   0  0  0  0  0  0  0  0  0  0  0  0
   29.5859   68.6670   12.0365 H   0  0  0  0  0  0  0  0  0  0  0  0
   31.1672   67.8088   13.9470 H   0  0  0  0  0  0  0  0  0  0  0  0
   28.0662   66.1658   10.0142 H   0  0  0  0  0  0  0  0  0  0  0  0
   28.0774   68.8144   11.1701 H   0  0  0  0  0  0  0  0  0  0  0  0
   27.2801   65.6034   12.3368 H   0  0  0  0  0  0  0  0  0  0  0  0
   25.0665   65.1274   11.7046 H   0  0  0  0  0  0  0  0  0  0  0  0
   24.5240   66.0649   10.2716 H   0  0  0  0  0  0  0  0  0  0  0  0
   26.1390   65.2786   10.2716 H   0  0  0  0  0  0  0  0  0  0  0  0
   29.0865   66.3398   13.9927 H   0  0  0  0  0  0  0  0  0  0  0  0
   29.4512   69.2567   14.4846 H   0  0  0  0  0  0  0  0  0  0  0  0
   28.0620   68.5434   15.2827 H   0  0  0  0  0  0  0  0  0  0  0  0
   30.5055   69.3676   16.6362 H   0  0  0  0  0  0  0  0  0  0  0  0
   28.5356   66.3065   17.1632 H   0  0  0  0  0  0  0  0  0  0  0  0
   26.4850   67.6146   17.6910 H   0  0  0  0  0  0  0  0  0  0  0  0
   26.7189   65.8935   18.2782 H   0  0  0  0  0  0  0  0  0  0  0  0
   27.2882   66.6041   20.9468 H   0  0  0  0  0  0  0  0  0  0  0  0
   29.8024   67.0455   19.8670 H   0  0  0  0  0  0  0  0  0  0  0  0
   29.0353   65.2884   20.5797 H   0  0  0  0  0  0  0  0  0  0  0  0
   30.6813   65.5964   17.3500 H   0  0  0  0  0  0  0  0  0  0  0  0
   31.7985   65.7117   19.8946 H   0  0  0  0  0  0  0  0  0  0  0  0
   32.1872   67.4903   16.9825 H   0  0  0  0  0  0  0  0  0  0  0  0
   31.5677   68.1151   19.5967 H   0  0  0  0  0  0  0  0  0  0  0  0
  1  2  1  0
  2  3  1  0
  2 11  1  0
  3  4  1  0
  3  5  1  0
  5  6  1  0
  5  7  1  0
  7  8  1  0
  7 10  1  0
  8  9  1  0
 10 11  1  0
 11 12  1  0
 12 13  1  0
 13 14  1  0
 13 16  1  0
 14 15  1  0
 14 22  1  0
 16 17  1  0
 16 18  1  0
 18 19  1  0
 18 21  1  0
 19 20  1  0
 21 22  1  0
 22 23  1  0
 23 24  1  0
 24 25  1  0
 25 26  1  0
 25 34  1  0
 26 27  1  0
 27 28  1  0
 27 30  1  0
 28 29  1  0
 30 31  1  0
 30 32  1  0
 32 33  1  0
 32 34  1  0
 34 35  1  0
  1 36  1  0
  2 37  1  0
  3 38  1  0
  4 39  1  0
  5 40  1  0
  6 41  1  0
  7 42  1  0
  8 43  1  0
  8 44  1  0
  9 45  1  0
 11 46  1  0
 13 47  1  0
 14 48  1  0
 15 49  1  0
 16 50  1  0
 17 51  1  0
 18 52  1  0
 20 53  1  0
 20 54  1  0
 20 55  1  0
 22 56  1  0
 23 57  1  0
 23 58  1  0
 25 59  1  0
 27 60  1  0
 28 61  1  0
 28 62  1  0
 29 63  1  0
 30 64  1  0
 31 65  1  0
 32 66  1  0
 33 67  1  0
 34 68  1  0
 35 69  1  0
A    1
O21
A    2
C21
A    3
C31
A    4
O31
A    5
C41
A    6
O41
A    7
C51
A    8
C61
A    9
O61
A   10
O51
A   11
C11
A   12
O11
A   13
C32
A   14
C42
A   15
O42
A   16
C22
A   17
O22
A   18
C12
A   19
O12
A   20
C72
A   21
O52
A   22
C52
A   23
C62
A   24
O62
A   25
C13
A   26
O53
A   27
C53
A   28
C63
A   29
S63
A   30
C43
A   31
O43
A   32
C33
A   33
O33
A   34
C23
A   35
O23
M  END
