3BVX_WZ5_A_1047
     RDKit          3D

117121  0  0  0  0  0  0  0  0999 V2000
   32.6200   63.8650    8.6030 O   0  0  0  0  0  0  0  0  0  0  0  0
   32.1560   65.1490    8.9650 C   0  0  0  0  0  0  0  0  0  0  0  0
   32.4790   66.1250    7.8250 C   0  0  0  0  0  0  0  0  0  0  0  0
   33.7210   65.7280    7.2580 O   0  0  0  0  0  0  0  0  0  0  0  0
   31.4080   66.1070    6.7260 C   0  0  0  0  0  0  0  0  0  0  0  0
   31.5520   67.2140    5.8170 O   0  0  0  0  0  0  0  0  0  0  0  0
   30.0070   66.1570    7.3460 C   0  0  0  0  0  0  0  0  0  0  0  0
   28.8760   66.1190    6.3120 C   0  0  0  0  0  0  0  0  0  0  0  0
   27.6210   66.3180    6.9990 O   0  0  0  0  0  0  0  0  0  0  0  0
   29.8380   64.9880    8.1320 O   0  0  0  0  0  0  0  0  0  0  0  0
   30.6530   65.0330    9.2730 C   0  0  0  0  0  0  0  0  0  0  0  0
   30.2340   66.0540   10.1340 O   0  0  0  0  0  0  0  0  0  0  0  0
   28.8840   65.8380   10.5250 C   0  0  0  0  0  0  0  0  0  0  0  0
   28.4070   66.7490   11.6440 C   0  0  0  0  0  0  0  0  0  0  0  0
   27.2150   66.0430   12.0090 O   0  0  0  0  0  0  0  0  0  0  0  0
   29.2810   66.7890   12.9120 C   0  0  0  0  0  0  0  0  0  0  0  0
   30.5270   67.4380   12.6950 O   0  0  0  0  0  0  0  0  0  0  0  0
   28.5700   67.5310   14.0310 C   0  0  0  0  0  0  0  0  0  0  0  0
   29.2770   67.2580   15.2360 O   0  0  0  0  0  0  0  0  0  0  0  0
   27.1290   67.0560   14.1830 C   0  0  0  0  0  0  0  0  0  0  0  0
   27.1570   65.7940   14.8370 O   0  0  0  0  0  0  0  0  0  0  0  0
   26.4130   66.8510   12.8520 C   0  0  0  0  0  0  0  0  0  0  0  0
   26.0310   68.0100   12.1520 O   0  0  0  0  0  0  0  0  0  0  0  0
   25.0120   67.6590   11.1900 C   0  0  0  0  0  0  0  0  0  0  0  0
   23.6770   67.5770   11.9120 C   0  0  0  0  0  0  0  0  0  0  0  0
   22.5430   66.8470   11.1540 C   0  0  0  0  0  0  0  0  0  0  0  0
   22.8580   65.4670   11.0030 O   0  0  0  0  0  0  0  0  0  0  0  0
   23.3300   68.9070   12.2630 O   0  0  0  0  0  0  0  0  0  0  0  0
   22.2310   68.9120   13.1640 C   0  0  0  0  0  0  0  0  0  0  0  0
   22.0410   70.3100   13.4850 O   0  0  0  0  0  0  0  0  0  0  0  0
   22.9830   70.7330   14.4550 C   0  0  0  0  0  0  0  0  0  0  0  0
   21.0390   68.3650   12.3630 C   0  0  0  0  0  0  0  0  0  0  0  0
   20.8710   69.1090   11.1640 O   0  0  0  0  0  0  0  0  0  0  0  0
   21.2470   66.9130   11.9570 C   0  0  0  0  0  0  0  0  0  0  0  0
   20.1380   66.5050   11.1370 O   0  0  0  0  0  0  0  0  0  0  0  0
   19.2500   65.7010   11.8760 C   0  0  0  0  0  0  0  0  0  0  0  0
   18.6710   66.4280   12.9650 O   0  0  0  0  0  0  0  0  0  0  0  0
   17.8180   67.4850   12.5420 C   0  0  0  0  0  0  0  0  0  0  0  0
   17.1590   68.0960   13.7640 C   0  0  0  0  0  0  0  0  0  0  0  0
   18.1700   68.6370   14.5950 O   0  0  0  0  0  0  0  0  0  0  0  0
   16.6840   66.9070   11.7120 C   0  0  0  0  0  0  0  0  0  0  0  0
   15.8280   67.9630   11.2730 O   0  0  0  0  0  0  0  0  0  0  0  0
   17.2390   66.1620   10.5010 C   0  0  0  0  0  0  0  0  0  0  0  0
   16.1810   65.5890    9.7570 O   0  0  0  0  0  0  0  0  0  0  0  0
   18.2110   65.0820   10.9600 C   0  0  0  0  0  0  0  0  0  0  0  0
   17.4590   64.1960   11.7970 O   0  0  0  0  0  0  0  0  0  0  0  0
   17.8950   62.8360   11.6880 C   0  0  0  0  0  0  0  0  0  0  0  0
   17.1660   62.1750   10.6440 O   0  0  0  0  0  0  0  0  0  0  0  0
   17.4880   60.7850   10.5200 C   0  0  0  0  0  0  0  0  0  0  0  0
   16.5720   60.2370    9.4600 C   0  0  0  0  0  0  0  0  0  0  0  0
   15.2230   60.6030    9.7830 O   0  0  0  0  0  0  0  0  0  0  0  0
   17.1440   60.0970   11.8400 C   0  0  0  0  0  0  0  0  0  0  0  0
   17.4520   58.7150   11.7450 O   0  0  0  0  0  0  0  0  0  0  0  0
   17.9490   60.6940   12.9560 C   0  0  0  0  0  0  0  0  0  0  0  0
   17.6910   59.9520   14.1530 O   0  0  0  0  0  0  0  0  0  0  0  0
   17.6040   62.1740   13.0410 C   0  0  0  0  0  0  0  0  0  0  0  0
   18.3600   62.8720   14.0760 N   0  0  0  0  0  0  0  0  0  0  0  0
   17.7660   63.7820   14.8500 C   0  0  0  0  0  0  0  0  0  0  0  0
   18.6620   64.4750   15.8720 C   0  0  0  0  0  0  0  0  0  0  0  0
   16.5700   64.0570   14.7850 O   0  0  0  0  0  0  0  0  0  0  0  0
   32.8097   63.3400    9.4206 H   0  0  0  0  0  0  0  0  0  0  0  0
   32.6499   65.5422    9.8658 H   0  0  0  0  0  0  0  0  0  0  0  0
   32.5173   67.1451    8.2348 H   0  0  0  0  0  0  0  0  0  0  0  0
   34.3638   65.5225    7.9824 H   0  0  0  0  0  0  0  0  0  0  0  0
   31.5415   65.1713    6.1632 H   0  0  0  0  0  0  0  0  0  0  0  0
   31.6610   68.0522    6.3324 H   0  0  0  0  0  0  0  0  0  0  0  0
   29.9459   67.1006    7.9081 H   0  0  0  0  0  0  0  0  0  0  0  0
   29.0240   66.9179    5.5705 H   0  0  0  0  0  0  0  0  0  0  0  0
   28.8721   65.1493    5.7927 H   0  0  0  0  0  0  0  0  0  0  0  0
   27.7727   66.2939    7.9770 H   0  0  0  0  0  0  0  0  0  0  0  0
   30.5316   64.0613    9.7740 H   0  0  0  0  0  0  0  0  0  0  0  0
   28.2403   66.0021    9.6483 H   0  0  0  0  0  0  0  0  0  0  0  0
   28.8265   64.8087   10.9087 H   0  0  0  0  0  0  0  0  0  0  0  0
   28.3587   67.7956   11.3088 H   0  0  0  0  0  0  0  0  0  0  0  0
   29.4624   65.7391   13.1853 H   0  0  0  0  0  0  0  0  0  0  0  0
   30.9426   67.6545   13.5671 H   0  0  0  0  0  0  0  0  0  0  0  0
   28.5487   68.6070   13.8035 H   0  0  0  0  0  0  0  0  0  0  0  0
   28.7038   67.4793   16.0123 H   0  0  0  0  0  0  0  0  0  0  0  0
   26.5876   67.8327   14.7430 H   0  0  0  0  0  0  0  0  0  0  0  0
   27.1540   65.9303   15.8176 H   0  0  0  0  0  0  0  0  0  0  0  0
   25.4629   66.3687   13.1255 H   0  0  0  0  0  0  0  0  0  0  0  0
   24.9627   68.4273   10.4043 H   0  0  0  0  0  0  0  0  0  0  0  0
   25.2496   66.6910   10.7246 H   0  0  0  0  0  0  0  0  0  0  0  0
   23.7995   66.9358   12.7974 H   0  0  0  0  0  0  0  0  0  0  0  0
   22.4300   67.3357   10.1750 H   0  0  0  0  0  0  0  0  0  0  0  0
   22.9531   65.0506   11.8961 H   0  0  0  0  0  0  0  0  0  0  0  0
   22.3621   68.3168   14.0797 H   0  0  0  0  0  0  0  0  0  0  0  0
   22.5790   70.5516   15.4619 H   0  0  0  0  0  0  0  0  0  0  0  0
   23.9186   70.1686   14.3281 H   0  0  0  0  0  0  0  0  0  0  0  0
   23.1828   71.8072   14.3281 H   0  0  0  0  0  0  0  0  0  0  0  0
   20.1582   68.4477   13.0167 H   0  0  0  0  0  0  0  0  0  0  0  0
   20.6585   70.0500   11.3866 H   0  0  0  0  0  0  0  0  0  0  0  0
   21.3087   66.2507   12.8331 H   0  0  0  0  0  0  0  0  0  0  0  0
   19.8152   64.8736   12.3299 H   0  0  0  0  0  0  0  0  0  0  0  0
   18.4098   68.2188   11.9751 H   0  0  0  0  0  0  0  0  0  0  0  0
   16.4676   68.8932   13.4534 H   0  0  0  0  0  0  0  0  0  0  0  0
   16.5919   67.3281   14.3106 H   0  0  0  0  0  0  0  0  0  0  0  0
   17.9227   68.5046   15.5444 H   0  0  0  0  0  0  0  0  0  0  0  0
   16.1128   66.2006   12.3323 H   0  0  0  0  0  0  0  0  0  0  0  0
   15.4496   68.4298   12.0598 H   0  0  0  0  0  0  0  0  0  0  0  0
   17.7766   66.8722    9.8555 H   0  0  0  0  0  0  0  0  0  0  0  0
   15.5025   65.2216   10.3773 H   0  0  0  0  0  0  0  0  0  0  0  0
   18.6789   64.5945   10.0920 H   0  0  0  0  0  0  0  0  0  0  0  0
   18.9654   62.7749   11.4420 H   0  0  0  0  0  0  0  0  0  0  0  0
   18.5486   60.6288   10.2737 H   0  0  0  0  0  0  0  0  0  0  0  0
   16.8453   60.6578    8.4811 H   0  0  0  0  0  0  0  0  0  0  0  0
   16.6627   59.1416    9.4164 H   0  0  0  0  0  0  0  0  0  0  0  0
   15.1155   60.6322   10.7667 H   0  0  0  0  0  0  0  0  0  0  0  0
   16.0720   60.2345   12.0447 H   0  0  0  0  0  0  0  0  0  0  0  0
   17.5372   58.3326   12.6542 H   0  0  0  0  0  0  0  0  0  0  0  0
   19.0339   60.6295   12.7860 H   0  0  0  0  0  0  0  0  0  0  0  0
   17.8878   60.5180   14.9410 H   0  0  0  0  0  0  0  0  0  0  0  0
   16.5378   62.2454   13.3019 H   0  0  0  0  0  0  0  0  0  0  0  0
   19.3591   62.6606   14.2099 H   0  0  0  0  0  0  0  0  0  0  0  0
   18.3278   64.2165   16.8876 H   0  0  0  0  0  0  0  0  0  0  0  0
   19.7016   64.1436   15.7326 H   0  0  0  0  0  0  0  0  0  0  0  0
   18.6026   65.5645   15.7326 H   0  0  0  0  0  0  0  0  0  0  0  0
  1  2  1  0
  2  3  1  0
  2 11  1  0
  3  4  1  0
  3  5  1  0
  5  6  1  0
  5  7  1  0
  7  8  1  0
  7 10  1  0
  8  9  1  0
 10 11  1  0
 11 12  1  0
 12 13  1  0
 13 14  1  0
 14 15  1  0
 14 16  1  0
 15 22  1  0
 16 17  1  0
 16 18  1  0
 18 19  1  0
 18 20  1  0
 20 21  1  0
 20 22  1  0
 22 23  1  0
 23 24  1  0
 24 25  1  0
 25 26  1  0
 25 28  1  0
 26 27  1  0
 26 34  1  0
 28 29  1  0
 29 30  1  0
 29 32  1  0
 30 31  1  0
 32 33  1  0
 32 34  1  0
 34 35  1  0
 35 36  1  0
 36 37  1  0
 36 45  1  0
 37 38  1  0
 38 39  1  0
 38 41  1  0
 39 40  1  0
 41 42  1  0
 41 43  1  0
 43 44  1  0
 43 45  1  0
 45 46  1  0
 46 47  1  0
 47 48  1  0
 47 56  1  0
 48 49  1  0
 49 50  1  0
 49 52  1  0
 50 51  1  0
 52 53  1  0
 52 54  1  0
 54 55  1  0
 54 56  1  0
 56 57  1  0
 57 58  1  0
 58 59  1  0
 58 60  2  0
  1 61  1  0
  2 62  1  0
  3 63  1  0
  4 64  1  0
  5 65  1  0
  6 66  1  0
  7 67  1  0
  8 68  1  0
  8 69  1  0
  9 70  1  0
 11 71  1  0
 13 72  1  0
 13 73  1  0
 14 74  1  0
 16 75  1  0
 17 76  1  0
 18 77  1  0
 19 78  1  0
 20 79  1  0
 21 80  1  0
 22 81  1  0
 24 82  1  0
 24 83  1  0
 25 84  1  0
 26 85  1  0
 27 86  1  0
 29 87  1  0
 31 88  1  0
 31 89  1  0
 31 90  1  0
 32 91  1  0
 33 92  1  0
 34 93  1  0
 36 94  1  0
 38 95  1  0
 39 96  1  0
 39 97  1  0
 40 98  1  0
 41 99  1  0
 42100  1  0
 43101  1  0
 44102  1  0
 45103  1  0
 47104  1  0
 49105  1  0
 50106  1  0
 50107  1  0
 51108  1  0
 52109  1  0
 53110  1  0
 54111  1  0
 55112  1  0
 56113  1  0
 57114  1  0
 59115  1  0
 59116  1  0
 59117  1  0
A    1
O21
A    2
C21
A    3
C31
A    4
O31
A    5
C41
A    6
O41
A    7
C51
A    8
C61
A    9
O61
A   10
O01
A   11
C11
A   12
O62
A   13
C62
A   14
C52
A   15
O02
A   16
C42
A   17
O42
A   18
C32
A   19
O32
A   20
C22
A   21
O22
A   22
C12
A   23
O63
A   24
C63
A   25
C53
A   26
C43
A   27
O43
A   28
O53
A   29
C13
A   30
O13
A   31
C73
A   32
C23
A   33
O23
A   34
C33
A   35
O14
A   36
C14
A   37
O04
A   38
C54
A   39
C64
A   40
O64
A   41
C44
A   42
O44
A   43
C34
A   44
O34
A   45
C24
A   46
O15
A   47
C15
A   48
O55
A   49
C55
A   50
C65
A   51
O65
A   52
C45
A   53
O45
A   54
C35
A   55
O35
A   56
C25
A   57
N25
A   58
C75
A   59
C85
A   60
O75
M  END
