1L6M_DBS_A_203
     RDKit          3D

 28 28  0  0  0  0  0  0  0  0999 V2000
   26.9310   77.5550   61.1050 O   0  0  0  0  0  0  0  0  0  0  0  0
   27.0010   78.7700   60.5510 C   0  0  0  0  0  0  0  0  0  0  0  0
   26.1780   79.2950   59.5470 C   0  0  0  0  0  0  0  0  0  0  0  0
   28.1000   79.5840   61.0980 C   0  0  0  0  0  0  0  0  0  0  0  0
   28.8210   78.9880   62.0550 O   0  0  0  0  0  0  0  0  0  0  0  0
   28.2950   80.9130   60.6030 C   0  0  0  0  0  0  0  0  0  0  0  0
   27.4390   81.4000   59.5680 C   0  0  0  0  0  0  0  0  0  0  0  0
   26.3960   80.5940   59.0680 C   0  0  0  0  0  0  0  0  0  0  0  0
   29.3620   81.8270   61.1030 C   0  0  0  0  0  0  0  0  0  0  0  0
   29.4440   82.9310   60.6130 O   0  0  0  0  0  0  0  0  0  0  0  0
   30.2150   81.4630   62.1070 N   0  0  0  0  0  0  0  0  0  0  0  0
   31.2620   82.3950   62.6190 C   0  0  0  0  0  0  0  0  0  0  0  0
   30.6550   83.4670   63.5570 C   0  0  0  0  0  0  0  0  0  0  0  0
   29.5800   83.0440   64.4500 O   0  0  0  0  0  0  0  0  0  0  0  0
   32.4810   81.6290   63.1830 C   0  0  0  0  0  0  0  0  0  0  0  0
   33.4880   82.2240   63.5410 O   0  0  0  0  0  0  0  0  0  0  0  0
   32.3290   80.2740   63.2200 O   0  0  0  0  0  0  0  0  0  0  0  0
   26.9255   77.4599   62.0904 H   0  0  0  0  0  0  0  0  0  0  0  0
   25.3595   78.6872   59.1338 H   0  0  0  0  0  0  0  0  0  0  0  0
   28.6151   79.1582   63.0083 H   0  0  0  0  0  0  0  0  0  0  0  0
   27.5946   82.4092   59.1591 H   0  0  0  0  0  0  0  0  0  0  0  0
   25.7375   80.9942   58.2831 H   0  0  0  0  0  0  0  0  0  0  0  0
   30.1332   80.5230   62.5201 H   0  0  0  0  0  0  0  0  0  0  0  0
   31.6723   82.9698   61.7756 H   0  0  0  0  0  0  0  0  0  0  0  0
   31.4704   83.8579   64.1834 H   0  0  0  0  0  0  0  0  0  0  0  0
   30.1898   84.2013   62.8830 H   0  0  0  0  0  0  0  0  0  0  0  0
   29.8682   83.1574   65.3903 H   0  0  0  0  0  0  0  0  0  0  0  0
   32.2764   79.8054   64.0905 H   0  0  0  0  0  0  0  0  0  0  0  0
  1  2  1  0
  2  3  2  0
  2  4  1  0
  3  8  1  0
  4  5  1  0
  4  6  2  0
  6  7  1  0
  6  9  1  0
  7  8  2  0
  9 10  2  0
  9 11  1  0
 11 12  1  0
 12 13  1  0
 12 15  1  0
 13 14  1  0
 15 16  2  0
 15 17  1  0
  1 18  1  0
  3 19  1  0
  5 20  1  0
  7 21  1  0
  8 22  1  0
 11 23  1  0
 12 24  1  0
 13 25  1  0
 13 26  1  0
 14 27  1  0
 17 28  1  0
A    1
O4
A    2
C4
A    3
C7
A    4
C1
A    5
O1
A    6
C16
A    7
C13
A    8
C10
A    9
C19
A   10
O7
A   11
N1
A   12
C22
A   13
C28
A   14
O13
A   15
C25
A   16
O10
A   17
O15
M  END
