3BYX_C00_A_318
     RDKit          3D

 40 43  0  0  0  0  0  0  0  0999 V2000
  -32.1740   38.2600  -10.0490 C   0  0  0  0  0  0  0  0  0  0  0  0
  -31.7390   39.4700   -9.5220 C   0  0  0  0  0  0  0  0  0  0  0  0
  -29.7090   38.4540   -8.8180 C   0  0  0  0  0  0  0  0  0  0  0  0
  -30.1430   37.2310   -9.3310 C   0  0  0  0  0  0  0  0  0  0  0  0
  -31.8990   35.8250  -10.5220 C   0  0  0  0  0  0  0  0  0  0  0  0
  -29.0130   36.3250   -9.0200 C   0  0  0  0  0  0  0  0  0  0  0  0
  -26.8540   36.4730   -7.9660 C   0  0  0  0  0  0  0  0  0  0  0  0
  -25.8460   37.2650   -7.3750 C   0  0  0  0  0  0  0  0  0  0  0  0
  -24.6050   36.7640   -6.9670 C   0  0  0  0  0  0  0  0  0  0  0  0
  -24.3450   35.4260   -7.1450 C   0  0  0  0  0  0  0  0  0  0  0  0
  -25.2940   34.6160   -7.7250 C   0  0  0  0  0  0  0  0  0  0  0  0
  -26.5090   35.1220   -8.1240 C   0  0  0  0  0  0  0  0  0  0  0  0
  -21.1480   37.9440   -5.9740 C   0  0  0  0  0  0  0  0  0  0  0  0
  -27.7720   39.2110   -7.6990 O   0  0  0  0  0  0  0  0  0  0  0  0
  -28.4400   38.2590   -8.2640 C   0  0  0  0  0  0  0  0  0  0  0  0
  -30.4980   39.5880   -8.9150 C   0  0  0  0  0  0  0  0  0  0  0  0
  -28.0390   36.9830   -8.3750 N   0  0  0  0  0  0  0  0  0  0  0  0
  -29.0210   35.0800   -9.3360 O   0  0  0  0  0  0  0  0  0  0  0  0
  -31.3860   37.1220   -9.9510 C   0  0  0  0  0  0  0  0  0  0  0  0
  -27.3550   34.2080   -8.6810 O   0  0  0  0  0  0  0  0  0  0  0  0
  -23.5220   37.5640   -6.3190 C   0  0  0  0  0  0  0  0  0  0  0  0
  -22.1850   37.2360   -6.5780 C   0  0  0  0  0  0  0  0  0  0  0  0
  -23.8170   38.5960   -5.4230 C   0  0  0  0  0  0  0  0  0  0  0  0
  -22.7780   39.3070   -4.8190 C   0  0  0  0  0  0  0  0  0  0  0  0
  -21.4480   38.9830   -5.0940 C   0  0  0  0  0  0  0  0  0  0  0  0
  -33.1524   38.2037  -10.5486 H   0  0  0  0  0  0  0  0  0  0  0  0
  -32.3926   40.3523   -9.5877 H   0  0  0  0  0  0  0  0  0  0  0  0
  -32.1683   35.1441   -9.7011 H   0  0  0  0  0  0  0  0  0  0  0  0
  -32.7867   36.0225  -11.1408 H   0  0  0  0  0  0  0  0  0  0  0  0
  -31.1164   35.3618  -11.1408 H   0  0  0  0  0  0  0  0  0  0  0  0
  -26.0475   38.3362   -7.2269 H   0  0  0  0  0  0  0  0  0  0  0  0
  -23.3810   35.0041   -6.8247 H   0  0  0  0  0  0  0  0  0  0  0  0
  -25.0776   33.5475   -7.8718 H   0  0  0  0  0  0  0  0  0  0  0  0
  -20.1009   37.6852   -6.1898 H   0  0  0  0  0  0  0  0  0  0  0  0
  -30.1501   40.5546   -8.5218 H   0  0  0  0  0  0  0  0  0  0  0  0
  -27.8997   33.6195   -8.1004 H   0  0  0  0  0  0  0  0  0  0  0  0
  -21.9511   36.4102   -7.2660 H   0  0  0  0  0  0  0  0  0  0  0  0
  -24.8634   38.8468   -5.1948 H   0  0  0  0  0  0  0  0  0  0  0  0
  -23.0086   40.1268   -4.1228 H   0  0  0  0  0  0  0  0  0  0  0  0
  -20.6351   39.5487   -4.6153 H   0  0  0  0  0  0  0  0  0  0  0  0
  1  2  2  0
  1 19  1  0
  2 16  1  0
  3  4  1  0
  3 15  1  0
  3 16  2  0
  4  6  1  0
  4 19  2  0
  5 19  1  0
  6 17  1  0
  6 18  2  0
  7  8  2  0
  7 12  1  0
  7 17  1  0
  8  9  1  0
  9 10  2  0
  9 21  1  0
 10 11  1  0
 11 12  2  0
 12 20  1  0
 13 22  2  0
 13 25  1  0
 14 15  2  0
 15 17  1  0
 21 22  1  0
 21 23  2  0
 23 24  1  0
 24 25  2  0
  1 26  1  0
  2 27  1  0
  5 28  1  0
  5 29  1  0
  5 30  1  0
  8 31  1  0
 10 32  1  0
 11 33  1  0
 13 34  1  0
 16 35  1  0
 20 36  1  0
 22 37  1  0
 23 38  1  0
 24 39  1  0
 25 40  1  0
A    1
C1
A    2
C2
A    3
C6
A    4
C8
A    5
C13
A    6
C15
A    7
C26
A    8
C28
A    9
C30
A   10
C32
A   11
C34
A   12
C36
A   13
C41
A   14
O23
A   15
C21
A   16
C4
A   17
N19
A   18
O17
A   19
C10
A   20
O39
A   21
C45
A   22
C46
A   23
C44
A   24
C43
A   25
C42
M  END
