3BZ9_BL7_A_800
     RDKit          3D

 35 38  0  0  0  0  0  0  0  0999 V2000
   23.5380   37.2960   40.6970 O   0  0  0  0  0  0  0  0  0  0  0  0
   23.5960   37.5320   39.4920 C   0  0  0  0  0  0  0  0  0  0  0  0
   22.8420   38.6820   38.8930 C   0  0  0  0  0  0  0  0  0  0  0  0
   23.7690   39.7860   38.6700 O   0  0  0  0  0  0  0  0  0  0  0  0
   21.5460   39.0920   39.6130 C   0  0  0  0  0  0  0  0  0  0  0  0
   20.6200   39.6690   38.5110 C   0  0  0  0  0  0  0  0  0  0  0  0
   21.1140   38.9630   37.3010 N   0  0  0  0  0  0  0  0  0  0  0  0
   20.5140   39.1470   36.0400 C   0  0  0  0  0  0  0  0  0  0  0  0
   19.8180   40.3160   35.7400 C   0  0  0  0  0  0  0  0  0  0  0  0
   19.1870   40.4800   34.5220 C   0  0  0  0  0  0  0  0  0  0  0  0
   19.2370   39.4590   33.5600 C   0  0  0  0  0  0  0  0  0  0  0  0
   19.9240   38.2740   33.8570 C   0  0  0  0  0  0  0  0  0  0  0  0
   20.5610   38.1070   35.0790 C   0  0  0  0  0  0  0  0  0  0  0  0
   22.2650   38.2300   37.5800 C   0  0  0  0  0  0  0  0  0  0  0  0
   23.0350   37.5400   36.7310 N   0  0  0  0  0  0  0  0  0  0  0  0
   24.1560   36.8770   37.1590 C   0  0  0  0  0  0  0  0  0  0  0  0
   24.4600   36.7770   38.5320 C   0  0  0  0  0  0  0  0  0  0  0  0
   24.9870   36.2190   36.2270 C   0  0  0  0  0  0  0  0  0  0  0  0
   26.1090   35.4840   36.6220 C   0  0  0  0  0  0  0  0  0  0  0  0
   26.4090   35.4150   37.9900 C   0  0  0  0  0  0  0  0  0  0  0  0
   25.6110   36.0660   38.9450 C   0  0  0  0  0  0  0  0  0  0  0  0
   24.0705   40.1450   39.5420 H   0  0  0  0  0  0  0  0  0  0  0  0
   21.0779   38.2174   40.0884 H   0  0  0  0  0  0  0  0  0  0  0  0
   21.7380   39.8269   40.4086 H   0  0  0  0  0  0  0  0  0  0  0  0
   19.5644   39.4324   38.7101 H   0  0  0  0  0  0  0  0  0  0  0  0
   20.6509   40.7657   38.4314 H   0  0  0  0  0  0  0  0  0  0  0  0
   19.7700   41.1228   36.4862 H   0  0  0  0  0  0  0  0  0  0  0  0
   18.6445   41.4122   34.3057 H   0  0  0  0  0  0  0  0  0  0  0  0
   18.7433   39.5873   32.5854 H   0  0  0  0  0  0  0  0  0  0  0  0
   19.9589   37.4656   33.1119 H   0  0  0  0  0  0  0  0  0  0  0  0
   21.0988   37.1732   35.2998 H   0  0  0  0  0  0  0  0  0  0  0  0
   24.7443   36.2865   35.1562 H   0  0  0  0  0  0  0  0  0  0  0  0
   26.7396   34.9734   35.8793 H   0  0  0  0  0  0  0  0  0  0  0  0
   27.2862   34.8400   38.3216 H   0  0  0  0  0  0  0  0  0  0  0  0
   25.8802   36.0231   40.0107 H   0  0  0  0  0  0  0  0  0  0  0  0
  1  2  2  0
  2  3  1  0
  2 17  1  0
  3  4  1  0
  3  5  1  0
  3 14  1  0
  5  6  1  0
  6  7  1  0
  7  8  1  0
  7 14  1  0
  8  9  2  0
  8 13  1  0
  9 10  1  0
 10 11  2  0
 11 12  1  0
 12 13  2  0
 14 15  2  0
 15 16  1  0
 16 17  2  0
 16 18  1  0
 17 21  1  0
 18 19  2  0
 19 20  1  0
 20 21  2  0
  4 22  1  0
  5 23  1  0
  5 24  1  0
  6 25  1  0
  6 26  1  0
  9 27  1  0
 10 28  1  0
 11 29  1  0
 12 30  1  0
 13 31  1  0
 18 32  1  0
 19 33  1  0
 20 34  1  0
 21 35  1  0
A    1
O2
A    2
C4
A    3
C3
A    4
O1
A    5
C2
A    6
C1
A    7
N1
A    8
C12
A    9
C17
A   10
C16
A   11
C15
A   12
C14
A   13
C13
A   14
C11
A   15
N2
A   16
C10
A   17
C5
A   18
C9
A   19
C8
A   20
C7
A   21
C6
M  END
