3C06_14C_A_318
     RDKit          3D

 28 30  0  0  0  0  0  0  0  0999 V2000
   24.1350  -38.8590   -5.6110 C   0  0  0  0  0  0  0  0  0  0  0  0
   24.7640  -39.9380   -4.7600 C   0  0  0  0  0  0  0  0  0  0  0  0
   30.6320  -37.5970  -10.2050 Cl  0  0  0  0  0  0  0  0  0  0  0  0
   29.8590  -36.5360   -8.9630 C   0  0  0  0  0  0  0  0  0  0  0  0
   28.5600  -36.8380   -8.5920 C   0  0  0  0  0  0  0  0  0  0  0  0
   30.4820  -35.4620   -8.3960 N   0  0  0  0  0  0  0  0  0  0  0  0
   29.8470  -34.7160   -7.4840 C   0  0  0  0  0  0  0  0  0  0  0  0
   28.5340  -35.0230   -7.1100 C   0  0  0  0  0  0  0  0  0  0  0  0
   27.8370  -36.0990   -7.6630 C   0  0  0  0  0  0  0  0  0  0  0  0
   26.6000  -36.4920   -7.3490 N   0  0  0  0  0  0  0  0  0  0  0  0
   25.4350  -36.0310   -7.7820 C   0  0  0  0  0  0  0  0  0  0  0  0
   25.3140  -35.0290   -8.5660 O   0  0  0  0  0  0  0  0  0  0  0  0
   24.3050  -36.8280   -7.1940 C   0  0  0  0  0  0  0  0  0  0  0  0
   22.9120  -36.7980   -7.2590 C   0  0  0  0  0  0  0  0  0  0  0  0
   22.1600  -37.7570   -6.5380 C   0  0  0  0  0  0  0  0  0  0  0  0
   26.3980  -37.5440   -6.5650 C   0  0  0  0  0  0  0  0  0  0  0  0
   27.3470  -38.2040   -6.0250 O   0  0  0  0  0  0  0  0  0  0  0  0
   24.9660  -37.8680   -6.3620 C   0  0  0  0  0  0  0  0  0  0  0  0
   22.7390  -38.7570   -5.7350 C   0  0  0  0  0  0  0  0  0  0  0  0
   24.6225  -39.6953   -3.6965 H   0  0  0  0  0  0  0  0  0  0  0  0
   24.2877  -40.9044   -4.9821 H   0  0  0  0  0  0  0  0  0  0  0  0
   25.8396  -39.9997   -4.9821 H   0  0  0  0  0  0  0  0  0  0  0  0
   28.0744  -37.7087   -9.0569 H   0  0  0  0  0  0  0  0  0  0  0  0
   30.3598  -33.8573   -7.0262 H   0  0  0  0  0  0  0  0  0  0  0  0
   28.0349  -34.3965   -6.3561 H   0  0  0  0  0  0  0  0  0  0  0  0
   22.4017  -36.0354   -7.8656 H   0  0  0  0  0  0  0  0  0  0  0  0
   21.0630  -37.7181   -6.6095 H   0  0  0  0  0  0  0  0  0  0  0  0
   22.0918  -39.4665   -5.1986 H   0  0  0  0  0  0  0  0  0  0  0  0
  1  2  1  0
  1 18  2  0
  1 19  1  0
  3  4  1  0
  4  5  2  0
  4  6  1  0
  5  9  1  0
  6  7  2  0
  7  8  1  0
  8  9  2  0
  9 10  1  0
 10 11  1  0
 10 16  1  0
 11 12  2  0
 11 13  1  0
 13 14  2  0
 13 18  1  0
 14 15  1  0
 15 19  2  0
 16 17  2  0
 16 18  1  0
  2 20  1  0
  2 21  1  0
  2 22  1  0
  5 23  1  0
  7 24  1  0
  8 25  1  0
 14 26  1  0
 15 27  1  0
 19 28  1  0
A    1
C10
A    2
C13
A    3
CL39
A    4
C30
A    5
C28
A    6
N32
A    7
C34
A    8
C36
A    9
C26
A   10
N19
A   11
C21
A   12
O23
A   13
C6
A   14
C4
A   15
C2
A   16
C15
A   17
O17
A   18
C8
A   19
C1
M  END
