3C1K_T15_A_403
     RDKit          3D

 72 74  0  0  0  0  0  0  0  0999 V2000
   22.0550  -15.9300   25.2250 C   0  0  0  0  0  0  0  0  0  0  0  0
   20.9050  -16.6570   25.5380 C   0  0  0  0  0  0  0  0  0  0  0  0
   19.7870  -16.0110   26.0790 C   0  0  0  0  0  0  0  0  0  0  0  0
   19.8140  -14.6410   26.3070 C   0  0  0  0  0  0  0  0  0  0  0  0
   20.9650  -13.9140   25.9970 C   0  0  0  0  0  0  0  0  0  0  0  0
   22.0830  -14.5580   25.4550 C   0  0  0  0  0  0  0  0  0  0  0  0
   18.5680  -16.8090   26.4500 C   0  0  0  0  0  0  0  0  0  0  0  0
   17.6640  -17.4340   25.0350 S   0  0  0  0  0  0  0  0  0  0  0  0
   17.0810  -16.1830   24.1820 N   0  0  0  0  0  0  0  0  0  0  0  0
   17.2530  -14.3100   22.6990 C   0  0  0  0  0  0  0  0  0  0  0  0
   18.0610  -13.6730   21.7500 N   0  0  0  0  0  0  0  0  0  0  0  0
   19.2830  -14.0830   21.3950 C   0  0  0  0  0  0  0  0  0  0  0  0
   19.8440  -15.2090   21.9830 C   0  0  0  0  0  0  0  0  0  0  0  0
   19.1220  -15.9120   22.9400 C   0  0  0  0  0  0  0  0  0  0  0  0
   16.1300  -13.8740   22.9590 O   0  0  0  0  0  0  0  0  0  0  0  0
   20.0230  -13.3520   20.3450 C   0  0  0  0  0  0  0  0  0  0  0  0
   17.5590  -12.4570   21.0970 C   0  0  0  0  0  0  0  0  0  0  0  0
   16.2630  -12.7260   20.4460 C   0  0  0  0  0  0  0  0  0  0  0  0
   17.8450  -15.4900   23.3030 C   0  0  0  0  0  0  0  0  0  0  0  0
   15.2740  -11.9350   20.8680 N   0  0  0  0  0  0  0  0  0  0  0  0
   12.8980  -12.2040   21.3910 C   0  0  0  0  0  0  0  0  0  0  0  0
   12.5000  -13.2800   22.0890 N   0  0  0  0  0  0  0  0  0  0  0  0
   11.5410  -12.8860   23.0000 C   0  0  0  0  0  0  0  0  0  0  0  0
   11.3760  -11.5340   22.8490 N   0  0  0  0  0  0  0  0  0  0  0  0
   12.1970  -11.1180   21.8500 C   0  0  0  0  0  0  0  0  0  0  0  0
   12.9950  -14.6520   21.9140 C   0  0  0  0  0  0  0  0  0  0  0  0
   12.3030  -15.3840   20.7710 C   0  0  0  0  0  0  0  0  0  0  0  0
   12.4130  -16.7130   20.8780 N   0  0  0  0  0  0  0  0  0  0  0  0
   11.8650  -17.5720   19.8440 C   0  0  0  0  0  0  0  0  0  0  0  0
   12.4320  -17.1660   18.4560 C   0  0  0  0  0  0  0  0  0  0  0  0
   10.3270  -17.4480   19.9020 C   0  0  0  0  0  0  0  0  0  0  0  0
   12.2480  -19.0410   20.0940 C   0  0  0  0  0  0  0  0  0  0  0  0
   11.7760  -14.8150   19.8290 O   0  0  0  0  0  0  0  0  0  0  0  0
   16.1320  -13.6700   19.6920 O   0  0  0  0  0  0  0  0  0  0  0  0
   16.5180  -18.1240   25.5420 O   0  0  0  0  0  0  0  0  0  0  0  0
   18.5610  -18.1490   24.1700 O   0  0  0  0  0  0  0  0  0  0  0  0
   12.2880   -9.7380   21.3810 C   0  0  0  0  0  0  0  0  0  0  0  0
   13.9330  -12.1840   20.3020 C   0  0  0  0  0  0  0  0  0  0  0  0
   22.9329  -16.4383   24.7995 H   0  0  0  0  0  0  0  0  0  0  0  0
   20.8772  -17.7419   25.3588 H   0  0  0  0  0  0  0  0  0  0  0  0
   18.9346  -14.1324   26.7289 H   0  0  0  0  0  0  0  0  0  0  0  0
   20.9932  -12.8296   26.1797 H   0  0  0  0  0  0  0  0  0  0  0  0
   22.9855  -13.9786   25.2104 H   0  0  0  0  0  0  0  0  0  0  0  0
   18.8855  -17.6637   27.0653 H   0  0  0  0  0  0  0  0  0  0  0  0
   17.8915  -16.1323   26.9926 H   0  0  0  0  0  0  0  0  0  0  0  0
   16.0975  -15.9063   24.3129 H   0  0  0  0  0  0  0  0  0  0  0  0
   20.8517  -15.5418   21.6936 H   0  0  0  0  0  0  0  0  0  0  0  0
   19.5600  -16.8039   23.4120 H   0  0  0  0  0  0  0  0  0  0  0  0
   20.7307  -12.6529   20.8144 H   0  0  0  0  0  0  0  0  0  0  0  0
   20.5757  -14.0685   19.7196 H   0  0  0  0  0  0  0  0  0  0  0  0
   19.3133  -12.7906   19.7196 H   0  0  0  0  0  0  0  0  0  0  0  0
   17.4297  -11.6667   21.8511 H   0  0  0  0  0  0  0  0  0  0  0  0
   18.2833  -12.1340   20.3347 H   0  0  0  0  0  0  0  0  0  0  0  0
   15.4385  -11.1863   21.5560 H   0  0  0  0  0  0  0  0  0  0  0  0
   11.0098  -13.5344   23.7123 H   0  0  0  0  0  0  0  0  0  0  0  0
   14.0743  -14.6130   21.7050 H   0  0  0  0  0  0  0  0  0  0  0  0
   12.7805  -15.2040   22.8410 H   0  0  0  0  0  0  0  0  0  0  0  0
   12.8864  -17.1266   21.6939 H   0  0  0  0  0  0  0  0  0  0  0  0
   13.3193  -16.5307   18.5940 H   0  0  0  0  0  0  0  0  0  0  0  0
   12.7120  -18.0702   17.8956 H   0  0  0  0  0  0  0  0  0  0  0  0
   11.6662  -16.6097   17.8956 H   0  0  0  0  0  0  0  0  0  0  0  0
   10.0006  -17.4217   20.9521 H   0  0  0  0  0  0  0  0  0  0  0  0
   10.0145  -16.5217   19.3976 H   0  0  0  0  0  0  0  0  0  0  0  0
    9.8702  -18.3122   19.3976 H   0  0  0  0  0  0  0  0  0  0  0  0
   12.2968  -19.2280   21.1769 H   0  0  0  0  0  0  0  0  0  0  0  0
   11.4914  -19.6992   19.6419 H   0  0  0  0  0  0  0  0  0  0  0  0
   13.2296  -19.2460   19.6419 H   0  0  0  0  0  0  0  0  0  0  0  0
   12.3328   -9.0592   22.2454 H   0  0  0  0  0  0  0  0  0  0  0  0
   13.1961   -9.6168   20.7722 H   0  0  0  0  0  0  0  0  0  0  0  0
   11.4037   -9.4986   20.7722 H   0  0  0  0  0  0  0  0  0  0  0  0
   13.6888  -11.3863   19.5850 H   0  0  0  0  0  0  0  0  0  0  0  0
   13.9360  -13.1606   19.7959 H   0  0  0  0  0  0  0  0  0  0  0  0
  1  2  2  0
  1  6  1  0
  2  3  1  0
  3  4  2  0
  3  7  1  0
  4  5  1  0
  5  6  2  0
  7  8  1  0
  8  9  1  0
  8 35  2  0
  8 36  2  0
  9 19  1  0
 10 11  1  0
 10 15  2  0
 10 19  1  0
 11 12  1  0
 11 17  1  0
 12 13  2  0
 12 16  1  0
 13 14  1  0
 14 19  2  0
 17 18  1  0
 18 20  1  0
 18 34  2  0
 20 38  1  0
 21 22  1  0
 21 25  2  0
 21 38  1  0
 22 23  1  0
 22 26  1  0
 23 24  2  0
 24 25  1  0
 25 37  1  0
 26 27  1  0
 27 28  1  0
 27 33  2  0
 28 29  1  0
 29 30  1  0
 29 31  1  0
 29 32  1  0
  1 39  1  0
  2 40  1  0
  4 41  1  0
  5 42  1  0
  6 43  1  0
  7 44  1  0
  7 45  1  0
  9 46  1  0
 13 47  1  0
 14 48  1  0
 16 49  1  0
 16 50  1  0
 16 51  1  0
 17 52  1  0
 17 53  1  0
 20 54  1  0
 23 55  1  0
 26 56  1  0
 26 57  1  0
 28 58  1  0
 30 59  1  0
 30 60  1  0
 30 61  1  0
 31 62  1  0
 31 63  1  0
 31 64  1  0
 32 65  1  0
 32 66  1  0
 32 67  1  0
 37 68  1  0
 37 69  1  0
 37 70  1  0
 38 71  1  0
 38 72  1  0
A    1
C1
A    2
C2
A    3
C3
A    4
C4
A    5
C5
A    6
C6
A    7
C7
A    8
S8
A    9
N9
A   10
C10
A   11
N11
A   12
C12
A   13
C13
A   14
C14
A   15
O15
A   16
C16
A   17
C17
A   18
C18
A   19
C19
A   20
N20
A   21
C22
A   22
N23
A   23
C24
A   24
N25
A   25
C26
A   26
C28
A   27
C29
A   28
N30
A   29
C31
A   30
C32
A   31
C33
A   32
C34
A   33
O35
A   34
O36
A   35
O37
A   36
O38
A   37
C8
A   38
C9
M  END
