3C1X_CKK_A_1500
     RDKit          3D

 66 70  0  0  0  0  0  0  0  0999 V2000
   -0.3370    6.2240   52.3960 N   0  0  0  0  0  0  0  0  0  0  0  0
   -0.1970    9.8880   52.7960 C   0  0  0  0  0  0  0  0  0  0  0  0
   -0.3340    8.6370   52.2520 C   0  0  0  0  0  0  0  0  0  0  0  0
   -0.1760    7.4850   53.0140 C   0  0  0  0  0  0  0  0  0  0  0  0
    0.1460    7.6040   54.3940 C   0  0  0  0  0  0  0  0  0  0  0  0
    0.2930    8.8940   54.9560 C   0  0  0  0  0  0  0  0  0  0  0  0
    0.1090   10.0230   54.1320 C   0  0  0  0  0  0  0  0  0  0  0  0
   -0.8400   11.6800   55.3780 C   0  0  0  0  0  0  0  0  0  0  0  0
   -0.6790    6.0220   51.1150 C   0  0  0  0  0  0  0  0  0  0  0  0
   -0.4750   12.6030   56.3860 C   0  0  0  0  0  0  0  0  0  0  0  0
    2.9000   11.1190   56.7100 C   0  0  0  0  0  0  0  0  0  0  0  0
   -1.3010   -1.4800   54.8740 F   0  0  0  0  0  0  0  0  0  0  0  0
   -1.3200   -0.5210   53.9730 C   0  0  0  0  0  0  0  0  0  0  0  0
   -0.2420   -0.4560   53.1420 C   0  0  0  0  0  0  0  0  0  0  0  0
   -0.1690    0.5370   52.1600 C   0  0  0  0  0  0  0  0  0  0  0  0
   -2.4030    0.3500   53.9310 C   0  0  0  0  0  0  0  0  0  0  0  0
   -2.3470    1.3370   52.9470 C   0  0  0  0  0  0  0  0  0  0  0  0
   -1.2400    1.4180   52.0620 C   0  0  0  0  0  0  0  0  0  0  0  0
   -1.1830    2.4440   51.0350 C   0  0  0  0  0  0  0  0  0  0  0  0
   -0.9900    3.7690   51.6900 C   0  0  0  0  0  0  0  0  0  0  0  0
   -0.8150    3.9800   52.8940 O   0  0  0  0  0  0  0  0  0  0  0  0
   -0.9530    4.7710   50.7900 N   0  0  0  0  0  0  0  0  0  0  0  0
   -0.7710    6.8260   50.2270 O   0  0  0  0  0  0  0  0  0  0  0  0
   -0.3680   10.9600   52.0170 F   0  0  0  0  0  0  0  0  0  0  0  0
    0.2170   11.3310   54.5870 O   0  0  0  0  0  0  0  0  0  0  0  0
   -2.0240   11.2190   55.2410 N   0  0  0  0  0  0  0  0  0  0  0  0
   -2.9440   11.6500   56.1400 C   0  0  0  0  0  0  0  0  0  0  0  0
   -2.7460   12.4990   57.0980 N   0  0  0  0  0  0  0  0  0  0  0  0
   -1.5020   12.9730   57.2050 N   0  0  0  0  0  0  0  0  0  0  0  0
   -1.0630   13.8580   58.1250 C   0  0  0  0  0  0  0  0  0  0  0  0
    0.2920   14.0430   57.9310 C   0  0  0  0  0  0  0  0  0  0  0  0
    0.6920   13.2620   56.7790 C   0  0  0  0  0  0  0  0  0  0  0  0
    2.0690   13.2420   56.1810 C   0  0  0  0  0  0  0  0  0  0  0  0
    3.0260   12.5470   57.0480 N   0  0  0  0  0  0  0  0  0  0  0  0
    4.4170   13.0480   56.8310 C   0  0  0  0  0  0  0  0  0  0  0  0
    5.5070   12.1850   57.4940 C   0  0  0  0  0  0  0  0  0  0  0  0
    5.2760   10.6960   57.1810 C   0  0  0  0  0  0  0  0  0  0  0  0
    3.8620   10.2750   57.5090 C   0  0  0  0  0  0  0  0  0  0  0  0
    6.1510    9.8070   57.9820 N   0  0  0  0  0  0  0  0  0  0  0  0
   -0.1782    5.3897   52.9788 H   0  0  0  0  0  0  0  0  0  0  0  0
   -0.5756    8.5422   51.1831 H   0  0  0  0  0  0  0  0  0  0  0  0
    0.2788    6.7061   55.0154 H   0  0  0  0  0  0  0  0  0  0  0  0
    0.5469    9.0142   56.0195 H   0  0  0  0  0  0  0  0  0  0  0  0
    1.8725   10.7901   56.9247 H   0  0  0  0  0  0  0  0  0  0  0  0
    3.1359   10.9947   55.6428 H   0  0  0  0  0  0  0  0  0  0  0  0
    0.5736   -1.1871   53.2439 H   0  0  0  0  0  0  0  0  0  0  0  0
    0.7011    0.6178   51.4918 H   0  0  0  0  0  0  0  0  0  0  0  0
   -3.2493    0.2661   54.6287 H   0  0  0  0  0  0  0  0  0  0  0  0
   -3.1701    2.0610   52.8557 H   0  0  0  0  0  0  0  0  0  0  0  0
   -0.3416    2.2412   50.3560 H   0  0  0  0  0  0  0  0  0  0  0  0
   -2.1184    2.4459   50.4562 H   0  0  0  0  0  0  0  0  0  0  0  0
   -1.1474    4.5515   49.8026 H   0  0  0  0  0  0  0  0  0  0  0  0
   -3.9593   11.2374   56.0460 H   0  0  0  0  0  0  0  0  0  0  0  0
   -1.6776   14.3469   58.8953 H   0  0  0  0  0  0  0  0  0  0  0  0
    0.9522   14.6736   58.5446 H   0  0  0  0  0  0  0  0  0  0  0  0
    2.0286   12.7272   55.2097 H   0  0  0  0  0  0  0  0  0  0  0  0
    2.4065   14.2821   56.0617 H   0  0  0  0  0  0  0  0  0  0  0  0
    4.6093   13.0755   55.7483 H   0  0  0  0  0  0  0  0  0  0  0  0
    4.4723   14.0425   57.2978 H   0  0  0  0  0  0  0  0  0  0  0  0
    6.4924   12.4875   57.1100 H   0  0  0  0  0  0  0  0  0  0  0  0
    5.4648   12.3315   58.5834 H   0  0  0  0  0  0  0  0  0  0  0  0
    5.4941   10.5962   56.1075 H   0  0  0  0  0  0  0  0  0  0  0  0
    3.6742   10.4188   58.5833 H   0  0  0  0  0  0  0  0  0  0  0  0
    3.7225    9.2134   57.2570 H   0  0  0  0  0  0  0  0  0  0  0  0
    5.9856    9.9751   58.9846 H   0  0  0  0  0  0  0  0  0  0  0  0
    5.9383    8.8242   57.7590 H   0  0  0  0  0  0  0  0  0  0  0  0
  1  4  1  0
  1  9  1  0
  2  3  2  0
  2  7  1  0
  2 24  1  0
  3  4  1  0
  4  5  2  0
  5  6  1  0
  6  7  2  0
  7 25  1  0
  8 10  1  0
  8 25  1  0
  8 26  2  0
  9 22  1  0
  9 23  2  0
 10 29  1  0
 10 32  2  0
 11 34  1  0
 11 38  1  0
 12 13  1  0
 13 14  2  0
 13 16  1  0
 14 15  1  0
 15 18  2  0
 16 17  2  0
 17 18  1  0
 18 19  1  0
 19 20  1  0
 20 21  2  0
 20 22  1  0
 26 27  1  0
 27 28  2  0
 28 29  1  0
 29 30  1  0
 30 31  2  0
 31 32  1  0
 32 33  1  0
 33 34  1  0
 34 35  1  0
 35 36  1  0
 36 37  1  0
 37 38  1  0
 37 39  1  0
  1 40  1  0
  3 41  1  0
  5 42  1  0
  6 43  1  0
 11 44  1  0
 11 45  1  0
 14 46  1  0
 15 47  1  0
 16 48  1  0
 17 49  1  0
 19 50  1  0
 19 51  1  0
 22 52  1  0
 27 53  1  0
 30 54  1  0
 31 55  1  0
 33 56  1  0
 33 57  1  0
 35 58  1  0
 35 59  1  0
 36 60  1  0
 36 61  1  0
 37 62  1  0
 38 63  1  0
 38 64  1  0
 39 65  1  0
 39 66  1  0
A    1
N14
A    2
C17
A    3
C16
A    4
C15
A    5
C19
A    6
C20
A    7
C21
A    8
C23
A    9
C12
A   10
C27
A   11
C33
A   12
F1
A   13
C2
A   14
C3
A   15
C4
A   16
C5
A   17
C6
A   18
C7
A   19
C8
A   20
C9
A   21
O10
A   22
N11
A   23
O13
A   24
F18
A   25
O22
A   26
N24
A   27
C25
A   28
N26
A   29
N28
A   30
C29
A   31
C30
A   32
C31
A   33
C32
A   34
N34
A   35
C35
A   36
C36
A   37
C37
A   38
C38
A   39
N39
M  END
