3C2L_F2A_A_338
     RDKit          3D

 48 50  0  0  0  0  0  0  0  0999 V2000
   -3.8420   -3.8800   34.3880 P   0  0  0  0  0  0  0  0  0  0  0  0
   -5.0630   -3.6230   35.2000 O   0  0  0  0  0  0  0  0  0  0  0  0
   -2.5330   -3.3600   34.8530 O   0  0  0  0  0  0  0  0  0  0  0  0
   -3.6730   -5.7490   34.4350 C   0  0  0  0  0  0  0  0  0  0  0  0
   -4.0670   -3.2890   32.9250 O   0  0  0  0  0  0  0  0  0  0  0  0
   -4.7680   -7.0730   33.6880 P   0  0  0  0  0  0  0  0  0  0  0  0
   -4.3150   -7.2320   32.2810 O   0  0  0  0  0  0  0  0  0  0  0  0
   -6.1750   -6.6760   33.9700 O   0  0  0  0  0  0  0  0  0  0  0  0
   -4.4650   -8.3420   34.4230 O   0  0  0  0  0  0  0  0  0  0  0  0
   -4.4320   -8.3570   35.9150 P   0  0  0  0  0  0  0  0  0  0  0  0
   -2.9910   -8.4440   36.2600 O   0  0  0  0  0  0  0  0  0  0  0  0
   -5.3750   -9.3850   36.4290 O   0  0  0  0  0  0  0  0  0  0  0  0
   -4.9460   -7.0530   36.4090 O   0  0  0  0  0  0  0  0  0  0  0  0
   -5.2060   -3.6420   32.1460 C   0  0  0  0  0  0  0  0  0  0  0  0
   -4.9600   -3.3380   30.6870 C   0  0  0  0  0  0  0  0  0  0  0  0
   -4.2230   -2.0970   30.5480 O   0  0  0  0  0  0  0  0  0  0  0  0
   -3.4020   -2.1610   29.3880 C   0  0  0  0  0  0  0  0  0  0  0  0
   -2.0060   -1.9320   29.7760 N   0  0  0  0  0  0  0  0  0  0  0  0
   -1.0020   -1.4760   28.9520 C   0  0  0  0  0  0  0  0  0  0  0  0
   -1.1010   -1.1350   27.6580 N   0  0  0  0  0  0  0  0  0  0  0  0
    0.0810   -0.7540   27.1810 C   0  0  0  0  0  0  0  0  0  0  0  0
    1.2620   -0.6800   27.8030 N   0  0  0  0  0  0  0  0  0  0  0  0
    1.3290   -1.0220   29.1060 C   0  0  0  0  0  0  0  0  0  0  0  0
    2.5070   -0.9360   29.7300 N   0  0  0  0  0  0  0  0  0  0  0  0
    0.1450   -1.4480   29.7310 C   0  0  0  0  0  0  0  0  0  0  0  0
   -0.1270   -1.8680   31.0250 N   0  0  0  0  0  0  0  0  0  0  0  0
   -1.4130   -2.1380   31.0040 C   0  0  0  0  0  0  0  0  0  0  0  0
   -3.6220   -3.5390   28.7600 C   0  0  0  0  0  0  0  0  0  0  0  0
   -4.0870   -4.3430   29.9640 C   0  0  0  0  0  0  0  0  0  0  0  0
   -4.8680   -5.4600   29.5710 O   0  0  0  0  0  0  0  0  0  0  0  0
   -4.8355   -3.6709   36.1623 H   0  0  0  0  0  0  0  0  0  0  0  0
   -2.6822   -5.9407   33.9972 H   0  0  0  0  0  0  0  0  0  0  0  0
   -3.9623   -5.8957   35.4861 H   0  0  0  0  0  0  0  0  0  0  0  0
   -6.3167   -6.6360   34.9490 H   0  0  0  0  0  0  0  0  0  0  0  0
   -5.3662   -9.3754   37.4189 H   0  0  0  0  0  0  0  0  0  0  0  0
   -4.9464   -7.0521   37.3990 H   0  0  0  0  0  0  0  0  0  0  0  0
   -5.4066   -4.7172   32.2635 H   0  0  0  0  0  0  0  0  0  0  0  0
   -6.0706   -3.0565   32.4919 H   0  0  0  0  0  0  0  0  0  0  0  0
   -5.9719   -3.3283   30.2558 H   0  0  0  0  0  0  0  0  0  0  0  0
   -3.6570   -1.3881   28.6481 H   0  0  0  0  0  0  0  0  0  0  0  0
    0.0875   -0.4570   26.1219 H   0  0  0  0  0  0  0  0  0  0  0  0
    2.5456   -0.9332   30.7593 H   0  0  0  0  0  0  0  0  0  0  0  0
    3.3767   -0.8725   29.1819 H   0  0  0  0  0  0  0  0  0  0  0  0
   -1.9658   -2.4956   31.8852 H   0  0  0  0  0  0  0  0  0  0  0  0
   -4.3925   -3.5059   27.9757 H   0  0  0  0  0  0  0  0  0  0  0  0
   -2.7352   -3.9521   28.2571 H   0  0  0  0  0  0  0  0  0  0  0  0
   -3.2583   -4.7514   30.5611 H   0  0  0  0  0  0  0  0  0  0  0  0
   -5.1979   -5.9318   30.3764 H   0  0  0  0  0  0  0  0  0  0  0  0
  5  1  1  0
  1  4  1  0
  1  3  2  0
  1  2  1  0
  6  4  1  0
 14  5  1  0
  7  6  2  0
  6  8  1  0
  6  9  1  0
  9 10  1  0
 10 11  2  0
 10 13  1  0
 10 12  1  0
 15 14  1  0
 29 15  1  0
 16 15  1  0
 17 16  1  0
 28 17  1  0
 17 18  1  0
 19 18  1  0
 18 27  1  0
 20 19  2  0
 19 25  1  0
 21 20  1  0
 21 22  2  0
 22 23  1  0
 23 24  1  0
 23 25  2  0
 25 26  1  0
 27 26  2  0
 28 29  1  0
 30 29  1  0
  2 31  1  0
  4 32  1  0
  4 33  1  0
  8 34  1  0
 12 35  1  0
 13 36  1  0
 14 37  1  0
 14 38  1  0
 15 39  1  0
 17 40  1  0
 21 41  1  0
 24 42  1  0
 24 43  1  0
 27 44  1  0
 28 45  1  0
 28 46  1  0
 29 47  1  0
 30 48  1  0
A    1
PA
A    2
O1A
A    3
O2A
A    4
C3A
A    5
O5'
A    6
PB
A    7
O1B
A    8
O2B
A    9
O3B
A   10
PG
A   11
O1G
A   12
O2G
A   13
O3G
A   14
C5'
A   15
C4'
A   16
O4'
A   17
C1'
A   18
N9
A   19
C4
A   20
N3
A   21
C2
A   22
N1
A   23
C6
A   24
N6
A   25
C5
A   26
N7
A   27
C8
A   28
C2'
A   29
C3'
A   30
O3'
M  END
