3C43_315_A_1
     RDKit          3D

 59 62  0  0  0  0  0  0  0  0999 V2000
   39.5940   51.5000   35.8880 C   0  0  0  0  0  0  0  0  0  0  0  0
   38.3650   51.0410   34.9970 C   0  0  0  0  0  0  0  0  0  0  0  0
   36.9970   51.0210   35.7940 C   0  0  0  0  0  0  0  0  0  0  0  0
   36.1850   49.9410   35.6160 N   0  0  0  0  0  0  0  0  0  0  0  0
   36.6830   51.9930   36.4990 O   0  0  0  0  0  0  0  0  0  0  0  0
   38.3070   51.7390   34.0810 N   0  0  0  0  0  0  0  0  0  0  0  0
   40.8450   51.9300   35.0600 C   0  0  0  0  0  0  0  0  0  0  0  0
   36.5860   48.6000   35.1760 C   0  0  0  0  0  0  0  0  0  0  0  0
   35.3990   47.7120   35.4320 C   0  0  0  0  0  0  0  0  0  0  0  0
   34.2160   48.6430   35.5180 C   0  0  0  0  0  0  0  0  0  0  0  0
   34.7530   50.0410   35.8490 C   0  0  0  0  0  0  0  0  0  0  0  0
   35.5550   47.0850   36.6580 F   0  0  0  0  0  0  0  0  0  0  0  0
   41.6050   53.1910   35.6210 C   0  0  0  0  0  0  0  0  0  0  0  0
   42.8510   52.6950   36.3010 C   0  0  0  0  0  0  0  0  0  0  0  0
   41.7850   53.4760   37.0370 C   0  0  0  0  0  0  0  0  0  0  0  0
   40.0740   50.3240   36.8860 C   0  0  0  0  0  0  0  0  0  0  0  0
   40.1590   50.3780   38.1880 N   0  0  0  0  0  0  0  0  0  0  0  0
   40.6140   49.1300   38.4610 C   0  0  0  0  0  0  0  0  0  0  0  0
   40.7710   48.4090   37.3260 N   0  0  0  0  0  0  0  0  0  0  0  0
   40.4250   49.1760   36.2880 O   0  0  0  0  0  0  0  0  0  0  0  0
   40.8770   48.5420   39.8140 C   0  0  0  0  0  0  0  0  0  0  0  0
   40.0550   48.9900   40.8900 C   0  0  0  0  0  0  0  0  0  0  0  0
   40.2000   48.4600   42.1800 C   0  0  0  0  0  0  0  0  0  0  0  0
   41.1770   47.4730   42.4450 C   0  0  0  0  0  0  0  0  0  0  0  0
   42.0260   47.0100   41.4130 C   0  0  0  0  0  0  0  0  0  0  0  0
   41.8810   47.5430   40.1160 C   0  0  0  0  0  0  0  0  0  0  0  0
   42.7160   47.0350   39.1920 F   0  0  0  0  0  0  0  0  0  0  0  0
   41.3250   46.7720   44.0740 S   0  0  0  0  0  0  0  0  0  0  0  0
   41.5880   45.3700   43.9110 O   0  0  0  0  0  0  0  0  0  0  0  0
   40.1130   47.1130   44.7970 O   0  0  0  0  0  0  0  0  0  0  0  0
   42.7440   47.6070   44.7840 C   0  0  0  0  0  0  0  0  0  0  0  0
   39.2144   52.3697   36.4443 H   0  0  0  0  0  0  0  0  0  0  0  0
   38.5292   50.0012   34.6778 H   0  0  0  0  0  0  0  0  0  0  0  0
   38.2258   52.7156   34.3981 H   0  0  0  0  0  0  0  0  0  0  0  0
   39.1598   51.6321   33.5133 H   0  0  0  0  0  0  0  0  0  0  0  0
   41.5499   51.0857   35.0409 H   0  0  0  0  0  0  0  0  0  0  0  0
   40.4759   52.2087   34.0620 H   0  0  0  0  0  0  0  0  0  0  0  0
   36.8350   48.6070   34.1046 H   0  0  0  0  0  0  0  0  0  0  0  0
   37.4784   48.2476   35.7140 H   0  0  0  0  0  0  0  0  0  0  0  0
   35.2804   46.9470   34.6505 H   0  0  0  0  0  0  0  0  0  0  0  0
   33.6833   48.6634   34.5558 H   0  0  0  0  0  0  0  0  0  0  0  0
   33.5122   48.3048   36.2927 H   0  0  0  0  0  0  0  0  0  0  0  0
   34.5461   50.2995   36.8980 H   0  0  0  0  0  0  0  0  0  0  0  0
   34.2822   50.8268   35.2400 H   0  0  0  0  0  0  0  0  0  0  0  0
   41.2593   53.8783   34.8347 H   0  0  0  0  0  0  0  0  0  0  0  0
   42.9883   51.6212   36.4961 H   0  0  0  0  0  0  0  0  0  0  0  0
   43.9343   52.7950   36.1382 H   0  0  0  0  0  0  0  0  0  0  0  0
   41.9897   54.5052   37.3668 H   0  0  0  0  0  0  0  0  0  0  0  0
   41.1858   53.3014   37.9428 H   0  0  0  0  0  0  0  0  0  0  0  0
   41.1123   50.6778   36.8035 H   0  0  0  0  0  0  0  0  0  0  0  0
   40.8253   51.1008   38.4954 H   0  0  0  0  0  0  0  0  0  0  0  0
   39.5778   48.7708   38.5459 H   0  0  0  0  0  0  0  0  0  0  0  0
   41.7547   48.1188   37.2315 H   0  0  0  0  0  0  0  0  0  0  0  0
   39.2952   49.7636   40.7049 H   0  0  0  0  0  0  0  0  0  0  0  0
   39.5485   48.8149   42.9922 H   0  0  0  0  0  0  0  0  0  0  0  0
   42.7887   46.2448   41.6195 H   0  0  0  0  0  0  0  0  0  0  0  0
   42.6802   47.5695   45.8815 H   0  0  0  0  0  0  0  0  0  0  0  0
   43.6666   47.1078   44.4530 H   0  0  0  0  0  0  0  0  0  0  0  0
   42.7557   48.6560   44.4530 H   0  0  0  0  0  0  0  0  0  0  0  0
  1  2  1  0
  1 16  1  0
  2  3  1  0
  3  4  1  0
  4 11  1  0
  4  8  1  0
  5  3  2  0
  6  2  1  0
  7  1  1  0
  8  9  1  0
  9 12  1  0
 10  9  1  0
 11 10  1  0
 13  7  1  0
 14 13  1  0
 15 13  1  0
 15 14  1  0
 16 17  1  0
 16 20  1  0
 17 18  1  0
 18 19  1  0
 18 21  1  0
 20 19  1  0
 21 22  2  0
 21 26  1  0
 22 23  1  0
 23 24  2  0
 24 28  1  0
 25 24  1  0
 26 25  2  0
 27 26  1  0
 28 30  2  0
 28 29  2  0
 31 28  1  0
  1 32  1  0
  2 33  1  0
  6 34  1  0
  6 35  1  0
  7 36  1  0
  7 37  1  0
  8 38  1  0
  8 39  1  0
  9 40  1  0
 10 41  1  0
 10 42  1  0
 11 43  1  0
 11 44  1  0
 13 45  1  0
 14 46  1  0
 14 47  1  0
 15 48  1  0
 15 49  1  0
 16 50  1  0
 17 51  1  0
 18 52  1  0
 19 53  1  0
 22 54  1  0
 23 55  1  0
 25 56  1  0
 31 57  1  0
 31 58  1  0
 31 59  1  0
A    1
C1
A    2
C2
A    3
C3
A    4
N4
A    5
O5
A    6
N6
A    7
C8
A    8
C11
A    9
C12
A   10
C13
A   11
C14
A   12
F21
A   13
C23
A   14
C26
A   15
C27
A   16
C33
A   17
N35
A   18
C36
A   19
N37
A   20
O38
A   21
C39
A   22
C40
A   23
C41
A   24
C42
A   25
C43
A   26
C44
A   27
F48
A   28
S49
A   29
O50
A   30
O51
A   31
C52
M  END
