3C45_317_A_1521
     RDKit          3D

 55 58  0  0  0  0  0  0  0  0999 V2000
   39.6540   51.2680   36.0040 C   0  0  0  0  0  0  0  0  0  0  0  0
   38.4420   50.8230   35.0800 C   0  0  0  0  0  0  0  0  0  0  0  0
   37.0940   50.7420   35.7860 C   0  0  0  0  0  0  0  0  0  0  0  0
   36.2720   49.6640   35.7610 C   0  0  0  0  0  0  0  0  0  0  0  0
   36.6950   51.8180   36.4720 F   0  0  0  0  0  0  0  0  0  0  0  0
   38.3140   51.7750   33.9880 N   0  0  0  0  0  0  0  0  0  0  0  0
   40.8580   51.6900   35.1270 C   0  0  0  0  0  0  0  0  0  0  0  0
   34.9170   49.6040   36.4530 C   0  0  0  0  0  0  0  0  0  0  0  0
   34.1830   48.3590   35.9340 C   0  0  0  0  0  0  0  0  0  0  0  0
   35.1090   47.6800   34.9220 C   0  0  0  0  0  0  0  0  0  0  0  0
   36.4850   48.3290   35.0790 C   0  0  0  0  0  0  0  0  0  0  0  0
   41.6690   52.8460   35.7480 C   0  0  0  0  0  0  0  0  0  0  0  0
   43.0320   53.0740   35.2570 C   0  0  0  0  0  0  0  0  0  0  0  0
   42.8150   52.4820   36.5780 C   0  0  0  0  0  0  0  0  0  0  0  0
   40.1700   50.1180   36.8330 C   0  0  0  0  0  0  0  0  0  0  0  0
   40.1850   50.1460   38.1510 N   0  0  0  0  0  0  0  0  0  0  0  0
   40.6960   48.9650   38.5090 C   0  0  0  0  0  0  0  0  0  0  0  0
   40.9950   48.2090   37.4210 N   0  0  0  0  0  0  0  0  0  0  0  0
   40.6380   48.9900   36.2970 O   0  0  0  0  0  0  0  0  0  0  0  0
   40.8940   48.4060   39.8810 C   0  0  0  0  0  0  0  0  0  0  0  0
   40.0860   49.0480   40.8710 C   0  0  0  0  0  0  0  0  0  0  0  0
   40.1010   48.6070   42.2140 C   0  0  0  0  0  0  0  0  0  0  0  0
   40.9260   47.5210   42.5900 C   0  0  0  0  0  0  0  0  0  0  0  0
   41.7510   46.8750   41.6370 C   0  0  0  0  0  0  0  0  0  0  0  0
   41.7410   47.3070   40.2950 C   0  0  0  0  0  0  0  0  0  0  0  0
   40.8990   46.9380   44.2620 S   0  0  0  0  0  0  0  0  0  0  0  0
   39.6080   47.2290   44.8130 O   0  0  0  0  0  0  0  0  0  0  0  0
   42.0260   47.5780   44.9560 O   0  0  0  0  0  0  0  0  0  0  0  0
   41.1860   45.1970   44.0670 C   0  0  0  0  0  0  0  0  0  0  0  0
   42.7690   46.3980   39.2290 Cl  0  0  0  0  0  0  0  0  0  0  0  0
   39.2766   52.0835   36.6384 H   0  0  0  0  0  0  0  0  0  0  0  0
   38.6836   49.8051   34.7401 H   0  0  0  0  0  0  0  0  0  0  0  0
   38.1866   52.7224   34.3716 H   0  0  0  0  0  0  0  0  0  0  0  0
   39.1659   51.7505   33.4095 H   0  0  0  0  0  0  0  0  0  0  0  0
   41.5222   50.8225   34.9998 H   0  0  0  0  0  0  0  0  0  0  0  0
   40.4608   52.0421   34.1636 H   0  0  0  0  0  0  0  0  0  0  0  0
   35.0552   49.5308   37.5418 H   0  0  0  0  0  0  0  0  0  0  0  0
   34.3344   50.5122   36.2390 H   0  0  0  0  0  0  0  0  0  0  0  0
   33.9670   47.6737   36.7669 H   0  0  0  0  0  0  0  0  0  0  0  0
   33.2266   48.6350   35.4659 H   0  0  0  0  0  0  0  0  0  0  0  0
   35.1726   46.6018   35.1306 H   0  0  0  0  0  0  0  0  0  0  0  0
   34.7299   47.8007   33.8965 H   0  0  0  0  0  0  0  0  0  0  0  0
   36.9464   48.4789   34.0918 H   0  0  0  0  0  0  0  0  0  0  0  0
   37.1547   47.6887   35.6719 H   0  0  0  0  0  0  0  0  0  0  0  0
   40.7779   53.4783   35.8750 H   0  0  0  0  0  0  0  0  0  0  0  0
   43.4319   52.4592   34.4372 H   0  0  0  0  0  0  0  0  0  0  0  0
   43.5869   53.9434   34.8747 H   0  0  0  0  0  0  0  0  0  0  0  0
   43.0434   53.0620   37.4843 H   0  0  0  0  0  0  0  0  0  0  0  0
   43.1486   51.5626   37.0814 H   0  0  0  0  0  0  0  0  0  0  0  0
   39.4453   49.8949   40.5841 H   0  0  0  0  0  0  0  0  0  0  0  0
   39.4723   49.1073   42.9653 H   0  0  0  0  0  0  0  0  0  0  0  0
   42.3973   46.0391   41.9429 H   0  0  0  0  0  0  0  0  0  0  0  0
   41.2638   44.7250   45.0575 H   0  0  0  0  0  0  0  0  0  0  0  0
   40.3498   44.7475   43.5113 H   0  0  0  0  0  0  0  0  0  0  0  0
   42.1222   45.0397   43.5113 H   0  0  0  0  0  0  0  0  0  0  0  0
  1  2  1  0
  1  7  1  0
  1 15  1  0
  2  3  1  0
  2  6  1  0
  3  4  2  0
  3  5  1  0
  4  8  1  0
  4 11  1  0
  7 12  1  0
  8  9  1  0
  9 10  1  0
 10 11  1  0
 12 13  1  0
 12 14  1  0
 13 14  1  0
 15 16  2  0
 15 19  1  0
 16 17  1  0
 17 18  2  0
 17 20  1  0
 18 19  1  0
 20 21  2  0
 20 25  1  0
 21 22  1  0
 22 23  2  0
 23 24  1  0
 23 26  1  0
 24 25  2  0
 25 30  1  0
 26 27  2  0
 26 28  2  0
 26 29  1  0
  1 31  1  0
  2 32  1  0
  6 33  1  0
  6 34  1  0
  7 35  1  0
  7 36  1  0
  8 37  1  0
  8 38  1  0
  9 39  1  0
  9 40  1  0
 10 41  1  0
 10 42  1  0
 11 43  1  0
 11 44  1  0
 12 45  1  0
 13 46  1  0
 13 47  1  0
 14 48  1  0
 14 49  1  0
 21 50  1  0
 22 51  1  0
 24 52  1  0
 29 53  1  0
 29 54  1  0
 29 55  1  0
A    1
C1
A    2
C2
A    3
C3
A    4
C4
A    5
F5
A    6
N6
A    7
C7
A    8
C8
A    9
C9
A   10
C10
A   11
C11
A   12
C18
A   13
C19
A   14
C20
A   15
C26
A   16
N27
A   17
C28
A   18
N29
A   19
O30
A   20
C31
A   21
C32
A   22
C33
A   23
C34
A   24
C35
A   25
C36
A   26
S40
A   27
O41
A   28
O42
A   29
C43
A   30
CL47
M  END
