3C49_KU8_A_601
     RDKit          3D

 49 52  0  0  0  0  0  0  0  0999 V2000
   23.8820   -4.0580    9.6090 C   0  0  0  0  0  0  0  0  0  0  0  0
   24.1480   -2.9670   10.6680 C   0  0  0  0  0  0  0  0  0  0  0  0
   24.1360   -1.5330   10.1480 C   0  0  0  0  0  0  0  0  0  0  0  0
   23.0770   -0.7550    9.4790 N   0  0  0  0  0  0  0  0  0  0  0  0
   22.6230   -1.3810    8.2200 C   0  0  0  0  0  0  0  0  0  0  0  0
   21.9520   -2.7220    8.4070 C   0  0  0  0  0  0  0  0  0  0  0  0
   22.5630   -3.8850    9.0150 N   0  0  0  0  0  0  0  0  0  0  0  0
   21.6680   -4.8580    9.2120 C   0  0  0  0  0  0  0  0  0  0  0  0
   20.5070   -4.7510    8.8080 O   0  0  0  0  0  0  0  0  0  0  0  0
   22.0380   -6.1120   10.0290 C   0  0  0  0  0  0  0  0  0  0  0  0
   20.9950   -6.4750   10.8740 C   0  0  0  0  0  0  0  0  0  0  0  0
   23.2850   -6.6960   10.2880 C   0  0  0  0  0  0  0  0  0  0  0  0
   24.3570   -6.4070    9.5260 F   0  0  0  0  0  0  0  0  0  0  0  0
   23.3890   -7.7910   11.1450 C   0  0  0  0  0  0  0  0  0  0  0  0
   22.3070   -8.1890   11.9100 C   0  0  0  0  0  0  0  0  0  0  0  0
   21.1030   -7.5260   11.7730 C   0  0  0  0  0  0  0  0  0  0  0  0
   19.9190   -7.9680   12.6340 C   0  0  0  0  0  0  0  0  0  0  0  0
   18.6070   -7.2990   12.2330 C   0  0  0  0  0  0  0  0  0  0  0  0
   17.6740   -7.9730   11.4690 C   0  0  0  0  0  0  0  0  0  0  0  0
   17.9390   -9.2680   11.0440 C   0  0  0  0  0  0  0  0  0  0  0  0
   17.0030   -9.9400   10.2700 C   0  0  0  0  0  0  0  0  0  0  0  0
   15.8080   -9.3160    9.9290 C   0  0  0  0  0  0  0  0  0  0  0  0
   15.5490   -8.0180   10.3590 C   0  0  0  0  0  0  0  0  0  0  0  0
   16.4890   -7.3500   11.1310 C   0  0  0  0  0  0  0  0  0  0  0  0
   16.2820   -6.0580   11.5870 C   0  0  0  0  0  0  0  0  0  0  0  0
   15.2440   -5.4520   11.3190 O   0  0  0  0  0  0  0  0  0  0  0  0
   17.2880   -5.4570   12.3630 N   0  0  0  0  0  0  0  0  0  0  0  0
   18.3380   -6.0460   12.6460 N   0  0  0  0  0  0  0  0  0  0  0  0
   24.6455   -3.9899    8.8201 H   0  0  0  0  0  0  0  0  0  0  0  0
   23.9252   -5.0433   10.0962 H   0  0  0  0  0  0  0  0  0  0  0  0
   23.3742   -3.0526   11.4451 H   0  0  0  0  0  0  0  0  0  0  0  0
   25.1682   -3.1465   11.0381 H   0  0  0  0  0  0  0  0  0  0  0  0
   24.3865   -0.9299   11.0331 H   0  0  0  0  0  0  0  0  0  0  0  0
   24.7573   -1.7079    9.2573 H   0  0  0  0  0  0  0  0  0  0  0  0
   22.2724   -0.6758   10.1172 H   0  0  0  0  0  0  0  0  0  0  0  0
   21.9077   -0.7011    7.7341 H   0  0  0  0  0  0  0  0  0  0  0  0
   23.5215   -1.5572    7.6103 H   0  0  0  0  0  0  0  0  0  0  0  0
   21.0529   -2.5174    9.0069 H   0  0  0  0  0  0  0  0  0  0  0  0
   21.8914   -3.0575    7.3612 H   0  0  0  0  0  0  0  0  0  0  0  0
   20.0525   -5.9097   10.8280 H   0  0  0  0  0  0  0  0  0  0  0  0
   24.3383   -8.3425   11.2134 H   0  0  0  0  0  0  0  0  0  0  0  0
   22.4045   -9.0241   12.6194 H   0  0  0  0  0  0  0  0  0  0  0  0
   19.8014   -9.0573   12.5356 H   0  0  0  0  0  0  0  0  0  0  0  0
   20.1367   -7.6703   13.6703 H   0  0  0  0  0  0  0  0  0  0  0  0
   18.8846   -9.7582   11.3189 H   0  0  0  0  0  0  0  0  0  0  0  0
   17.2063  -10.9651    9.9267 H   0  0  0  0  0  0  0  0  0  0  0  0
   15.0654   -9.8498    9.3177 H   0  0  0  0  0  0  0  0  0  0  0  0
   14.6041   -7.5241   10.0884 H   0  0  0  0  0  0  0  0  0  0  0  0
   17.1464   -4.4964   12.7066 H   0  0  0  0  0  0  0  0  0  0  0  0
  1  2  1  0
  1  7  1  0
  2  3  1  0
  3  4  1  0
  4  5  1  0
  5  6  1  0
  6  7  1  0
  7  8  1  0
  8  9  2  0
  8 10  1  0
 10 11  2  0
 10 12  1  0
 11 16  1  0
 12 13  1  0
 12 14  2  0
 14 15  1  0
 15 16  2  0
 16 17  1  0
 17 18  1  0
 18 19  1  0
 18 28  2  0
 19 20  2  0
 19 24  1  0
 20 21  1  0
 21 22  2  0
 22 23  1  0
 23 24  2  0
 24 25  1  0
 25 26  2  0
 25 27  1  0
 27 28  1  0
  1 29  1  0
  1 30  1  0
  2 31  1  0
  2 32  1  0
  3 33  1  0
  3 34  1  0
  4 35  1  0
  5 36  1  0
  5 37  1  0
  6 38  1  0
  6 39  1  0
 11 40  1  0
 14 41  1  0
 15 42  1  0
 17 43  1  0
 17 44  1  0
 20 45  1  0
 21 46  1  0
 22 47  1  0
 23 48  1  0
 27 49  1  0
A    1
C1N
A    2
C1K
A    3
C1L
A    4
N1R
A    5
C1M
A    6
C1O
A    7
N2B
A    8
C1T
A    9
O1A
A   10
C1W
A   11
C1J
A   12
C1V
A   13
F1C
A   14
C1G
A   15
C1F
A   16
C1U
A   17
C1P
A   18
C1X
A   19
C1Z
A   20
C1H
A   21
C1D
A   22
C1E
A   23
C1I
A   24
C2A
A   25
C1Y
A   26
O1B
A   27
N1S
A   28
N1Q
M  END
