3C6N_2S8_B_1001
     RDKit          3D

 57 58  0  0  0  0  0  0  0  0999 V2000
   -7.0950    9.1390   34.5320 O   0  0  0  0  0  0  0  0  0  0  0  0
   -7.0680    9.6750   33.3920 C   0  0  0  0  0  0  0  0  0  0  0  0
   -7.1910    9.0870   32.2930 O   0  0  0  0  0  0  0  0  0  0  0  0
   -6.8790   11.1570   33.3510 C   0  0  0  0  0  0  0  0  0  0  0  0
   -8.2480   11.8120   33.6390 C   0  0  0  0  0  0  0  0  0  0  0  0
   -9.2660   11.9970   32.7850 C   0  0  0  0  0  0  0  0  0  0  0  0
  -10.2780   12.5820   33.3820 N   0  0  0  0  0  0  0  0  0  0  0  0
   -9.9470   12.8050   34.6680 C   0  0  0  0  0  0  0  0  0  0  0  0
  -10.6420   13.3720   35.7120 C   0  0  0  0  0  0  0  0  0  0  0  0
  -10.0260   13.4520   36.9530 C   0  0  0  0  0  0  0  0  0  0  0  0
   -8.7460   12.9700   37.1680 C   0  0  0  0  0  0  0  0  0  0  0  0
   -8.0420   12.3950   36.1290 C   0  0  0  0  0  0  0  0  0  0  0  0
   -8.6500   12.3200   34.8910 C   0  0  0  0  0  0  0  0  0  0  0  0
   -6.3530   11.5880   31.9900 C   0  0  0  0  0  0  0  0  0  0  0  0
   -4.8300   11.4130   31.9320 C   0  0  0  0  0  0  0  0  0  0  0  0
   -4.1830   12.4050   30.9690 C   0  0  0  0  0  0  0  0  0  0  0  0
   -2.6880   12.6150   31.2640 C   0  0  0  0  0  0  0  0  0  0  0  0
   -2.3000   14.0890   31.0850 C   0  0  0  0  0  0  0  0  0  0  0  0
   -0.7930   14.2760   31.0720 C   0  0  0  0  0  0  0  0  0  0  0  0
   -0.3850   15.0760   32.2140 N   0  0  0  0  0  0  0  0  0  0  0  0
    0.4770   16.0870   32.2320 C   0  0  0  0  0  0  0  0  0  0  0  0
    1.0520   16.4720   31.2320 O   0  0  0  0  0  0  0  0  0  0  0  0
    0.6920   16.6980   33.4900 O   0  0  0  0  0  0  0  0  0  0  0  0
    0.4500   18.1390   33.6620 C   0  0  0  0  0  0  0  0  0  0  0  0
   -0.9650   18.3310   34.2450 C   0  0  0  0  0  0  0  0  0  0  0  0
    0.5440   18.8100   32.2990 C   0  0  0  0  0  0  0  0  0  0  0  0
    1.4890   18.7220   34.6190 C   0  0  0  0  0  0  0  0  0  0  0  0
   -7.0666    9.7032   35.3450 H   0  0  0  0  0  0  0  0  0  0  0  0
   -6.1413   11.4714   34.1039 H   0  0  0  0  0  0  0  0  0  0  0  0
   -9.2541   11.6984   31.7264 H   0  0  0  0  0  0  0  0  0  0  0  0
  -11.1752   12.8291   32.9406 H   0  0  0  0  0  0  0  0  0  0  0  0
  -11.6634   13.7534   35.5659 H   0  0  0  0  0  0  0  0  0  0  0  0
  -10.5708   13.9120   37.7906 H   0  0  0  0  0  0  0  0  0  0  0  0
   -8.2902   13.0452   38.1663 H   0  0  0  0  0  0  0  0  0  0  0  0
   -7.0243   12.0070   36.2829 H   0  0  0  0  0  0  0  0  0  0  0  0
   -6.8198   10.9712   31.2079 H   0  0  0  0  0  0  0  0  0  0  0  0
   -6.5993   12.6479   31.8288 H   0  0  0  0  0  0  0  0  0  0  0  0
   -4.4147   11.5707   32.9383 H   0  0  0  0  0  0  0  0  0  0  0  0
   -4.6156   10.3961   31.5714 H   0  0  0  0  0  0  0  0  0  0  0  0
   -4.2909   12.0235   29.9429 H   0  0  0  0  0  0  0  0  0  0  0  0
   -4.6896   13.3735   31.0930 H   0  0  0  0  0  0  0  0  0  0  0  0
   -2.4783   12.3099   32.2998 H   0  0  0  0  0  0  0  0  0  0  0  0
   -2.1005   12.0073   30.5600 H   0  0  0  0  0  0  0  0  0  0  0  0
   -2.7125   14.4530   30.1325 H   0  0  0  0  0  0  0  0  0  0  0  0
   -2.7084   14.6565   31.9342 H   0  0  0  0  0  0  0  0  0  0  0  0
   -0.3028   13.2925   31.1216 H   0  0  0  0  0  0  0  0  0  0  0  0
   -0.4996   14.7909   30.1453 H   0  0  0  0  0  0  0  0  0  0  0  0
   -0.8151   14.8303   33.1171 H   0  0  0  0  0  0  0  0  0  0  0  0
   -0.9129   18.3239   35.3437 H   0  0  0  0  0  0  0  0  0  0  0  0
   -1.3748   19.2930   33.9035 H   0  0  0  0  0  0  0  0  0  0  0  0
   -1.6164   17.5130   33.9035 H   0  0  0  0  0  0  0  0  0  0  0  0
    0.6955   19.8913   32.4323 H   0  0  0  0  0  0  0  0  0  0  0  0
    1.3917   18.3872   31.7398 H   0  0  0  0  0  0  0  0  0  0  0  0
   -0.3872   18.6364   31.7398 H   0  0  0  0  0  0  0  0  0  0  0  0
    1.1719   18.5441   35.6572 H   0  0  0  0  0  0  0  0  0  0  0  0
    2.4610   18.2375   34.4444 H   0  0  0  0  0  0  0  0  0  0  0  0
    1.5820   19.8041   34.4444 H   0  0  0  0  0  0  0  0  0  0  0  0
  2  1  1  0
  3  2  2  0
  4  2  1  0
 14  4  1  0
  4  5  1  0
  6  5  2  0
  5 13  1  0
  6  7  1  0
  7  8  1  0
  8 13  2  0
  8  9  1  0
  9 10  2  0
 10 11  1  0
 12 11  2  0
 13 12  1  0
 15 14  1  0
 16 15  1  0
 16 17  1  0
 18 17  1  0
 19 18  1  0
 19 20  1  0
 20 21  1  0
 22 21  2  0
 21 23  1  0
 23 24  1  0
 26 24  1  0
 24 25  1  0
 24 27  1  0
  1 28  1  0
  4 29  1  0
  6 30  1  0
  7 31  1  0
  9 32  1  0
 10 33  1  0
 11 34  1  0
 12 35  1  0
 14 36  1  0
 14 37  1  0
 15 38  1  0
 15 39  1  0
 16 40  1  0
 16 41  1  0
 17 42  1  0
 17 43  1  0
 18 44  1  0
 18 45  1  0
 19 46  1  0
 19 47  1  0
 20 48  1  0
 25 49  1  0
 25 50  1  0
 25 51  1  0
 26 52  1  0
 26 53  1  0
 26 54  1  0
 27 55  1  0
 27 56  1  0
 27 57  1  0
A    1
OAD
A    2
CAU
A    3
OAF
A    4
CAZ
A    5
CAW
A    6
CAK
A    7
NAS
A    8
CAX
A    9
CAI
A   10
CAG
A   11
CAH
A   12
CAJ
A   13
CAY
A   14
CAQ
A   15
CAO
A   16
CAM
A   17
CAL
A   18
CAN
A   19
CAP
A   20
NAR
A   21
CAV
A   22
OAE
A   23
OAT
A   24
CBA
A   25
CAC
A   26
CAB
A   27
CAA
M  END
