3C6P_2S3_B_1001
     RDKit          3D

 31 32  0  0  0  0  0  0  0  0999 V2000
   18.7890    8.6820   34.9250 O   0  0  0  0  0  0  0  0  0  0  0  0
   18.4250    9.4120   33.9140 C   0  0  0  0  0  0  0  0  0  0  0  0
   17.6620    9.0100   33.0130 O   0  0  0  0  0  0  0  0  0  0  0  0
   18.8410   10.8510   33.6940 C   0  0  0  0  0  0  0  0  0  0  0  0
   19.3040   11.0220   32.2610 C   0  0  0  0  0  0  0  0  0  0  0  0
   18.7290   12.2840   31.6060 C   0  0  0  0  0  0  0  0  0  0  0  0
   17.4930   12.0890   30.7580 C   0  0  0  0  0  0  0  0  0  0  0  0
   17.6770   11.7200   34.0790 C   0  0  0  0  0  0  0  0  0  0  0  0
   17.3410   12.3390   35.2650 C   0  0  0  0  0  0  0  0  0  0  0  0
   18.0760   12.3660   36.5000 C   0  0  0  0  0  0  0  0  0  0  0  0
   17.5270   13.0710   37.5670 C   0  0  0  0  0  0  0  0  0  0  0  0
   16.3140   13.7140   37.3880 C   0  0  0  0  0  0  0  0  0  0  0  0
   15.5680   13.7090   36.1780 C   0  0  0  0  0  0  0  0  0  0  0  0
   16.1090   12.9700   35.0750 C   0  0  0  0  0  0  0  0  0  0  0  0
   15.6820   12.7780   33.7560 N   0  0  0  0  0  0  0  0  0  0  0  0
   16.6110   11.9570   33.1180 C   0  0  0  0  0  0  0  0  0  0  0  0
   18.6300    9.0010   35.8486 H   0  0  0  0  0  0  0  0  0  0  0  0
   19.6957   11.1490   34.3190 H   0  0  0  0  0  0  0  0  0  0  0  0
   20.4020   11.0877   32.2502 H   0  0  0  0  0  0  0  0  0  0  0  0
   18.9458   10.1543   31.6876 H   0  0  0  0  0  0  0  0  0  0  0  0
   18.4779   12.9941   32.4077 H   0  0  0  0  0  0  0  0  0  0  0  0
   19.5080   12.6395   30.9155 H   0  0  0  0  0  0  0  0  0  0  0  0
   16.6185   11.9510   31.4108 H   0  0  0  0  0  0  0  0  0  0  0  0
   17.3406   12.9742   30.1230 H   0  0  0  0  0  0  0  0  0  0  0  0
   17.6205   11.1999   30.1230 H   0  0  0  0  0  0  0  0  0  0  0  0
   19.0406   11.8466   36.5985 H   0  0  0  0  0  0  0  0  0  0  0  0
   18.0474   13.1165   38.5350 H   0  0  0  0  0  0  0  0  0  0  0  0
   15.8981   14.2679   38.2425 H   0  0  0  0  0  0  0  0  0  0  0  0
   14.6143   14.2502   36.0915 H   0  0  0  0  0  0  0  0  0  0  0  0
   14.8311   13.1736   33.3313 H   0  0  0  0  0  0  0  0  0  0  0  0
   16.5499   11.5661   32.0916 H   0  0  0  0  0  0  0  0  0  0  0  0
  1  2  1  0
  2  3  2  0
  2  4  1  0
  4  5  1  0
  4  8  1  0
  5  6  1  0
  6  7  1  0
  8  9  1  0
  8 16  2  0
  9 10  2  0
  9 14  1  0
 10 11  1  0
 11 12  2  0
 12 13  1  0
 13 14  2  0
 14 15  1  0
 15 16  1  0
  1 17  1  0
  4 18  1  0
  5 19  1  0
  5 20  1  0
  6 21  1  0
  6 22  1  0
  7 23  1  0
  7 24  1  0
  7 25  1  0
 10 26  1  0
 11 27  1  0
 12 28  1  0
 13 29  1  0
 15 30  1  0
 16 31  1  0
A    1
OAC
A    2
CAM
A    3
OAB
A    4
CAQ
A    5
CAK
A    6
CAJ
A    7
CAI
A    8
CAN
A    9
CAP
A   10
CAG
A   11
CAE
A   12
CAD
A   13
CAF
A   14
CAO
A   15
NL
A   16
CAH
M  END
