3C6T_M14_A_561
     RDKit          3D

 47 49  0  0  0  0  0  0  0  0999 V2000
    6.2340    9.4580   14.2650 C   0  0  0  0  0  0  0  0  0  0  0  0
    6.3280    8.7510   13.0590 C   0  0  0  0  0  0  0  0  0  0  0  0
    6.4130    7.3610   13.0520 C   0  0  0  0  0  0  0  0  0  0  0  0
    6.3990    6.6920   14.2760 C   0  0  0  0  0  0  0  0  0  0  0  0
    6.3170    7.3860   15.4740 C   0  0  0  0  0  0  0  0  0  0  0  0
    6.2190    8.7650   15.4450 C   0  0  0  0  0  0  0  0  0  0  0  0
    9.9950   12.2880   16.9740 C   0  0  0  0  0  0  0  0  0  0  0  0
   10.9710   12.5940   16.0720 C   0  0  0  0  0  0  0  0  0  0  0  0
   10.5600   13.1130   14.8700 C   0  0  0  0  0  0  0  0  0  0  0  0
    9.1920   13.3360   14.5580 C   0  0  0  0  0  0  0  0  0  0  0  0
    8.2000   13.0060   15.4970 C   0  0  0  0  0  0  0  0  0  0  0  0
    8.6370   12.4690   16.7100 C   0  0  0  0  0  0  0  0  0  0  0  0
   10.0390   12.2380   21.6910 C   0  0  0  0  0  0  0  0  0  0  0  0
   10.1410   11.6540   20.4450 C   0  0  0  0  0  0  0  0  0  0  0  0
   10.3240   12.4390   19.3250 C   0  0  0  0  0  0  0  0  0  0  0  0
   10.4050   13.8170   19.4310 C   0  0  0  0  0  0  0  0  0  0  0  0
   10.2850   14.3610   20.7000 C   0  0  0  0  0  0  0  0  0  0  0  0
   10.1150   13.6020   21.8460 C   0  0  0  0  0  0  0  0  0  0  0  0
    9.8220   11.2850   23.1110 Cl  0  0  0  0  0  0  0  0  0  0  0  0
   10.4450   11.7650   18.1410 O   0  0  0  0  0  0  0  0  0  0  0  0
   11.8680   13.5280   13.7970 Cl  0  0  0  0  0  0  0  0  0  0  0  0
    6.8090   13.1030   15.4510 O   0  0  0  0  0  0  0  0  0  0  0  0
    6.0950   13.2010   14.2260 C   0  0  0  0  0  0  0  0  0  0  0  0
    6.1700   11.8500   13.5410 C   0  0  0  0  0  0  0  0  0  0  0  0
    6.1530   10.8470   14.4690 N   0  0  0  0  0  0  0  0  0  0  0  0
    6.2930   11.6990   12.3450 O   0  0  0  0  0  0  0  0  0  0  0  0
    6.5530    4.9200   14.3850 S   0  0  0  0  0  0  0  0  0  0  0  0
    5.5580    4.3390   13.1250 N   0  0  0  0  0  0  0  0  0  0  0  0
    7.9730    4.7950   14.0350 O   0  0  0  0  0  0  0  0  0  0  0  0
    6.0560    4.5260   15.6950 O   0  0  0  0  0  0  0  0  0  0  0  0
    6.0810    9.6770   16.9120 Cl  0  0  0  0  0  0  0  0  0  0  0  0
   10.3490   15.7150   20.9000 C   0  0  0  0  0  0  0  0  0  0  0  0
   10.6440   16.7840   21.0680 N   0  0  0  0  0  0  0  0  0  0  0  0
    6.3347    9.3006   12.1061 H   0  0  0  0  0  0  0  0  0  0  0  0
    6.4892    6.8051   12.1059 H   0  0  0  0  0  0  0  0  0  0  0  0
    6.3297    6.8474   16.4330 H   0  0  0  0  0  0  0  0  0  0  0  0
   12.0356   12.4327   16.2970 H   0  0  0  0  0  0  0  0  0  0  0  0
    8.9104   13.7653   13.5852 H   0  0  0  0  0  0  0  0  0  0  0  0
    7.8965   12.1834   17.4716 H   0  0  0  0  0  0  0  0  0  0  0  0
   10.0763   10.5605   20.3443 H   0  0  0  0  0  0  0  0  0  0  0  0
   10.5580   14.4526   18.5463 H   0  0  0  0  0  0  0  0  0  0  0  0
   10.0438   14.0708   22.8385 H   0  0  0  0  0  0  0  0  0  0  0  0
    5.0452   13.4633   14.4239 H   0  0  0  0  0  0  0  0  0  0  0  0
    6.5312   13.9826   13.5866 H   0  0  0  0  0  0  0  0  0  0  0  0
    6.0696   11.1491   15.4502 H   0  0  0  0  0  0  0  0  0  0  0  0
    4.7391    3.8608   13.5270 H   0  0  0  0  0  0  0  0  0  0  0  0
    5.2433    5.1291   12.5440 H   0  0  0  0  0  0  0  0  0  0  0  0
  1  2  2  0
  1  6  1  0
  1 25  1  0
  2  3  1  0
  3  4  2  0
  4  5  1  0
  4 27  1  0
  5  6  2  0
  6 31  1  0
  7  8  2  0
  7 12  1  0
  7 20  1  0
  8  9  1  0
  9 10  2  0
  9 21  1  0
 10 11  1  0
 11 12  2  0
 11 22  1  0
 13 14  2  0
 13 18  1  0
 13 19  1  0
 14 15  1  0
 15 16  2  0
 15 20  1  0
 16 17  1  0
 17 18  2  0
 17 32  1  0
 22 23  1  0
 23 24  1  0
 24 25  1  0
 24 26  2  0
 27 28  1  0
 27 29  2  0
 27 30  2  0
 32 33  3  0
  2 34  1  0
  3 35  1  0
  5 36  1  0
  8 37  1  0
 10 38  1  0
 12 39  1  0
 14 40  1  0
 16 41  1  0
 18 42  1  0
 23 43  1  0
 23 44  1  0
 25 45  1  0
 28 46  1  0
 28 47  1  0
A    1
C
A    2
C1
A    3
C2
A    4
C3
A    5
C4
A    6
C5
A    7
C6
A    8
C7
A    9
C8
A   10
C9
A   11
C10
A   12
C11
A   13
C12
A   14
C13
A   15
C14
A   16
C15
A   17
C16
A   18
C17
A   19
CL
A   20
O
A   21
CL1
A   22
O19
A   23
C20
A   24
C21
A   25
N
A   26
O22
A   27
S
A   28
N23
A   29
O24
A   30
O25
A   31
CL2
A   32
C27
A   33
N28
M  END
