3C72_CX1_B_334
     RDKit          3D

 80 83  0  0  0  0  0  0  0  0999 V2000
    3.1100   17.9730   26.8420 C   0  0  0  0  0  0  0  0  0  0  0  0
    2.8190   19.3390   26.8940 C   0  0  0  0  0  0  0  0  0  0  0  0
    3.8100   20.2650   27.2650 C   0  0  0  0  0  0  0  0  0  0  0  0
    3.5240   21.6140   27.3110 O   0  0  0  0  0  0  0  0  0  0  0  0
    5.0950   19.7970   27.5830 C   0  0  0  0  0  0  0  0  0  0  0  0
    5.3970   18.4310   27.5250 C   0  0  0  0  0  0  0  0  0  0  0  0
    4.4060   17.5150   27.1490 C   0  0  0  0  0  0  0  0  0  0  0  0
    4.7200   16.0010   27.0960 C   0  0  0  0  0  0  0  0  0  0  0  0
    5.4270   15.4910   25.8180 C   0  0  0  0  0  0  0  0  0  0  0  0
    4.7480   14.2180   25.2680 C   0  0  0  0  0  0  0  0  0  0  0  0
    5.2080   13.1200   25.6720 O   0  0  0  0  0  0  0  0  0  0  0  0
    3.8130   14.3520   24.4460 O   0  0  0  0  0  0  0  0  0  0  0  0
    5.5310   16.4980   24.7270 N   0  0  0  0  0  0  0  0  0  0  0  0
    6.7100   16.8380   24.1980 C   0  0  0  0  0  0  0  0  0  0  0  0
    7.7750   16.3640   24.5710 O   0  0  0  0  0  0  0  0  0  0  0  0
    6.6570   17.8680   23.0630 C   0  0  0  0  0  0  0  0  0  0  0  0
    7.4500   17.3630   21.8040 C   0  0  0  0  0  0  0  0  0  0  0  0
    7.6530   18.4600   20.6990 C   0  0  0  0  0  0  0  0  0  0  0  0
    8.7750   18.4430   19.8690 C   0  0  0  0  0  0  0  0  0  0  0  0
    8.9660   19.4240   18.9220 C   0  0  0  0  0  0  0  0  0  0  0  0
    8.0360   20.4230   18.7450 C   0  0  0  0  0  0  0  0  0  0  0  0
    6.9050   20.4480   19.5450 C   0  0  0  0  0  0  0  0  0  0  0  0
    6.7200   19.4800   20.5220 C   0  0  0  0  0  0  0  0  0  0  0  0
    7.1400   19.2050   23.5110 N   0  0  0  0  0  0  0  0  0  0  0  0
    8.5700   19.5570   23.6260 C   0  0  0  0  0  0  0  0  0  0  0  0
    6.2510   20.1760   23.7850 C   0  0  0  0  0  0  0  0  0  0  0  0
    5.0390   20.0130   23.7410 O   0  0  0  0  0  0  0  0  0  0  0  0
    6.8240   21.5370   24.2150 C   0  0  0  0  0  0  0  0  0  0  0  0
    5.9950   22.1680   25.3860 C   0  0  0  0  0  0  0  0  0  0  0  0
    6.6080   23.4940   25.9100 C   0  0  0  0  0  0  0  0  0  0  0  0
    7.1010   23.7060   27.1420 C   0  0  0  0  0  0  0  0  0  0  0  0
    7.5510   24.9640   27.2300 N   0  0  0  0  0  0  0  0  0  0  0  0
    7.3110   25.5280   26.0560 C   0  0  0  0  0  0  0  0  0  0  0  0
    6.7420   24.6360   25.2430 N   0  0  0  0  0  0  0  0  0  0  0  0
    6.8890   22.5230   23.1090 N   0  0  0  0  0  0  0  0  0  0  0  0
    8.0570   23.0070   22.6710 C   0  0  0  0  0  0  0  0  0  0  0  0
    9.1460   22.6510   23.1480 O   0  0  0  0  0  0  0  0  0  0  0  0
    8.0540   23.9960   21.7070 O   0  0  0  0  0  0  0  0  0  0  0  0
    7.9920   23.7810   20.2980 C   0  0  0  0  0  0  0  0  0  0  0  0
    7.2730   24.7440   19.6220 C   0  0  0  0  0  0  0  0  0  0  0  0
    7.3400   26.0700   20.0690 C   0  0  0  0  0  0  0  0  0  0  0  0
    6.6040   27.0590   19.4350 C   0  0  0  0  0  0  0  0  0  0  0  0
    5.7960   26.7190   18.3500 C   0  0  0  0  0  0  0  0  0  0  0  0
    5.7210   25.3900   17.9250 C   0  0  0  0  0  0  0  0  0  0  0  0
    6.4510   24.3890   18.5660 C   0  0  0  0  0  0  0  0  0  0  0  0
    2.3258   17.2546   26.5609 H   0  0  0  0  0  0  0  0  0  0  0  0
    1.8079   19.6921   26.6430 H   0  0  0  0  0  0  0  0  0  0  0  0
    3.4273   22.0700   28.1844 H   0  0  0  0  0  0  0  0  0  0  0  0
    5.8748   20.5130   27.8817 H   0  0  0  0  0  0  0  0  0  0  0  0
    6.4088   18.0784   27.7738 H   0  0  0  0  0  0  0  0  0  0  0  0
    5.3659   15.7626   27.9539 H   0  0  0  0  0  0  0  0  0  0  0  0
    3.7417   15.4983   27.1099 H   0  0  0  0  0  0  0  0  0  0  0  0
    6.4529   15.2654   26.1445 H   0  0  0  0  0  0  0  0  0  0  0  0
    5.2827   12.9418   26.6430 H   0  0  0  0  0  0  0  0  0  0  0  0
    4.6733   16.9436   24.3711 H   0  0  0  0  0  0  0  0  0  0  0  0
    5.6030   17.9852   22.7707 H   0  0  0  0  0  0  0  0  0  0  0  0
    8.4403   17.0164   22.1343 H   0  0  0  0  0  0  0  0  0  0  0  0
    6.8515   16.5592   21.3504 H   0  0  0  0  0  0  0  0  0  0  0  0
    9.5155   17.6362   19.9727 H   0  0  0  0  0  0  0  0  0  0  0  0
    9.8727   19.4091   18.2994 H   0  0  0  0  0  0  0  0  0  0  0  0
    8.1891   21.1942   17.9758 H   0  0  0  0  0  0  0  0  0  0  0  0
    6.1517   21.2373   19.4053 H   0  0  0  0  0  0  0  0  0  0  0  0
    5.8273   19.5182   21.1636 H   0  0  0  0  0  0  0  0  0  0  0  0
    8.8466   19.6251   24.6885 H   0  0  0  0  0  0  0  0  0  0  0  0
    9.1788   18.7819   23.1376 H   0  0  0  0  0  0  0  0  0  0  0  0
    8.7495   20.5261   23.1376 H   0  0  0  0  0  0  0  0  0  0  0  0
    7.8495   21.3188   24.5476 H   0  0  0  0  0  0  0  0  0  0  0  0
    4.9755   22.3702   25.0258 H   0  0  0  0  0  0  0  0  0  0  0  0
    5.9983   21.4495   26.2189 H   0  0  0  0  0  0  0  0  0  0  0  0
    7.1303   22.9621   27.9518 H   0  0  0  0  0  0  0  0  0  0  0  0
    7.9953   25.4052   28.0478 H   0  0  0  0  0  0  0  0  0  0  0  0
    7.5445   26.5700   25.7921 H   0  0  0  0  0  0  0  0  0  0  0  0
    6.0148   22.8426   22.6679 H   0  0  0  0  0  0  0  0  0  0  0  0
    9.0184   23.7722   19.9024 H   0  0  0  0  0  0  0  0  0  0  0  0
    7.4739   22.8234   20.1412 H   0  0  0  0  0  0  0  0  0  0  0  0
    7.9791   26.3274   20.9265 H   0  0  0  0  0  0  0  0  0  0  0  0
    6.6566   28.1009   19.7839 H   0  0  0  0  0  0  0  0  0  0  0  0
    5.2181   27.4967   17.8292 H   0  0  0  0  0  0  0  0  0  0  0  0
    5.0768   25.1293   17.0724 H   0  0  0  0  0  0  0  0  0  0  0  0
    6.3753   23.3412   18.2398 H   0  0  0  0  0  0  0  0  0  0  0  0
  1  2  2  0
  1  7  1  0
  2  3  1  0
  3  4  1  0
  3  5  2  0
  6  5  1  0
  7  6  2  0
  8  7  1  0
  9  8  1  0
 13  9  1  0
 10  9  1  0
 12 10  2  0
 10 11  1  0
 14 13  1  0
 16 14  1  0
 14 15  2  0
 17 16  1  0
 16 24  1  0
 18 17  1  0
 19 18  2  0
 23 18  1  0
 20 19  1  0
 21 20  2  0
 21 22  1  0
 22 23  2  0
 24 25  1  0
 24 26  1  0
 27 26  2  0
 26 28  1  0
 35 28  1  0
 28 29  1  0
 29 30  1  0
 34 30  1  0
 30 31  2  0
 31 32  1  0
 33 32  1  0
 34 33  2  0
 36 35  1  0
 38 36  1  0
 36 37  2  0
 39 38  1  0
 40 39  1  0
 45 40  1  0
 40 41  2  0
 42 41  1  0
 43 42  2  0
 44 43  1  0
 44 45  2  0
  1 46  1  0
  2 47  1  0
  4 48  1  0
  5 49  1  0
  6 50  1  0
  8 51  1  0
  8 52  1  0
  9 53  1  0
 11 54  1  0
 13 55  1  0
 16 56  1  0
 17 57  1  0
 17 58  1  0
 19 59  1  0
 20 60  1  0
 21 61  1  0
 22 62  1  0
 23 63  1  0
 25 64  1  0
 25 65  1  0
 25 66  1  0
 28 67  1  0
 29 68  1  0
 29 69  1  0
 31 70  1  0
 32 71  1  0
 33 72  1  0
 35 73  1  0
 39 74  1  0
 39 75  1  0
 41 76  1  0
 42 77  1  0
 43 78  1  0
 44 79  1  0
 45 80  1  0
A    1
C40
A    2
C41
A    3
C42
A    4
O47
A    5
C43
A    6
C44
A    7
C39
A    8
C24
A    9
C23
A   10
C25
A   11
O26
A   12
O27
A   13
N22
A   14
C20
A   15
O21
A   16
C18
A   17
C19
A   18
C33
A   19
C34
A   20
C35
A   21
C36
A   22
C37
A   23
C38
A   24
N16
A   25
C17
A   26
C14
A   27
O15
A   28
C12
A   29
C13
A   30
C28
A   31
C29
A   32
N30
A   33
C31
A   34
N32
A   35
N10
A   36
C9
A   37
O11
A   38
O8
A   39
C7
A   40
C5
A   41
C6
A   42
C1
A   43
C2
A   44
C3
A   45
C4
M  END
