3CCB_B2Y_A_800
     RDKit          3D

 27 28  0  0  0  0  0  0  0  0999 V2000
   41.6190    3.4230   18.0610 N   0  0  0  0  0  0  0  0  0  0  0  0
   44.1900    1.3830   17.1900 C   0  0  0  0  0  0  0  0  0  0  0  0
   44.5140    0.0750   16.8530 C   0  0  0  0  0  0  0  0  0  0  0  0
   43.6580   -0.6500   16.0330 C   0  0  0  0  0  0  0  0  0  0  0  0
   42.4830   -0.0740   15.5460 C   0  0  0  0  0  0  0  0  0  0  0  0
   42.1530    1.2480   15.8900 C   0  0  0  0  0  0  0  0  0  0  0  0
   39.6450    1.3740   15.7200 C   0  0  0  0  0  0  0  0  0  0  0  0
   39.8530    3.4480   13.8320 C   0  0  0  0  0  0  0  0  0  0  0  0
   42.7350    3.4040   17.1180 C   0  0  0  0  0  0  0  0  0  0  0  0
   43.0260    1.9780   16.7160 C   0  0  0  0  0  0  0  0  0  0  0  0
   40.9030    1.8440   15.3360 C   0  0  0  0  0  0  0  0  0  0  0  0
   38.5150    1.9680   15.1550 C   0  0  0  0  0  0  0  0  0  0  0  0
   38.6090    2.9990   14.2260 C   0  0  0  0  0  0  0  0  0  0  0  0
   40.9840    2.8710   14.3780 C   0  0  0  0  0  0  0  0  0  0  0  0
   41.9834    3.4168   19.0244 H   0  0  0  0  0  0  0  0  0  0  0  0
   41.0578    4.2737   17.9117 H   0  0  0  0  0  0  0  0  0  0  0  0
   44.8647    1.9571   17.8420 H   0  0  0  0  0  0  0  0  0  0  0  0
   45.4398   -0.3827   17.2318 H   0  0  0  0  0  0  0  0  0  0  0  0
   43.9083   -1.6871   15.7651 H   0  0  0  0  0  0  0  0  0  0  0  0
   41.8154   -0.6552   14.8929 H   0  0  0  0  0  0  0  0  0  0  0  0
   39.5471    0.5563   16.4493 H   0  0  0  0  0  0  0  0  0  0  0  0
   39.9435    4.2563   13.0914 H   0  0  0  0  0  0  0  0  0  0  0  0
   42.4717    3.9907   16.2255 H   0  0  0  0  0  0  0  0  0  0  0  0
   43.6255    3.8415   17.5929 H   0  0  0  0  0  0  0  0  0  0  0  0
   37.5190    1.6094   15.4539 H   0  0  0  0  0  0  0  0  0  0  0  0
   37.6983    3.4531   13.8084 H   0  0  0  0  0  0  0  0  0  0  0  0
   41.9743    3.2244   14.0547 H   0  0  0  0  0  0  0  0  0  0  0  0
  1  9  1  0
  2  3  2  0
  2 10  1  0
  3  4  1  0
  4  5  2  0
  5  6  1  0
  6 10  2  0
  6 11  1  0
  7 11  2  0
  7 12  1  0
  8 13  1  0
  8 14  2  0
  9 10  1  0
 11 14  1  0
 12 13  2  0
  1 15  1  0
  1 16  1  0
  2 17  1  0
  3 18  1  0
  4 19  1  0
  5 20  1  0
  7 21  1  0
  8 22  1  0
  9 23  1  0
  9 24  1  0
 12 25  1  0
 13 26  1  0
 14 27  1  0
A    1
N1
A    2
C4
A    3
C5
A    4
C6
A    5
C7
A    6
C8
A    7
C10
A    8
C13
A    9
C2
A   10
C3
A   11
C9
A   12
C11
A   13
C12
A   14
C14
M  END
