3CCN_LKG_A_1
     RDKit          3D

 37 40  0  0  0  0  0  0  0  0999 V2000
   19.8940   14.0380   56.7370 N   0  0  0  0  0  0  0  0  0  0  0  0
   20.8490   15.9900   56.4400 N   0  0  0  0  0  0  0  0  0  0  0  0
   17.3070   12.5760   58.6220 C   0  0  0  0  0  0  0  0  0  0  0  0
   17.6150   11.2230   58.4810 C   0  0  0  0  0  0  0  0  0  0  0  0
   16.7470   10.2460   58.9650 C   0  0  0  0  0  0  0  0  0  0  0  0
   18.1810   13.5470   58.1280 C   0  0  0  0  0  0  0  0  0  0  0  0
   18.0960   14.8680   58.5830 C   0  0  0  0  0  0  0  0  0  0  0  0
   19.8850   15.3840   57.1250 C   0  0  0  0  0  0  0  0  0  0  0  0
   22.0550   11.7230   55.9930 C   0  0  0  0  0  0  0  0  0  0  0  0
   24.0510   11.0370   57.1590 C   0  0  0  0  0  0  0  0  0  0  0  0
   22.0290    9.7090   57.3190 C   0  0  0  0  0  0  0  0  0  0  0  0
   23.3950   11.9410   56.3180 C   0  0  0  0  0  0  0  0  0  0  0  0
   23.3660    9.9290   57.6550 C   0  0  0  0  0  0  0  0  0  0  0  0
   24.0000    9.0420   58.4670 O   0  0  0  0  0  0  0  0  0  0  0  0
   21.3730   10.6120   56.4840 C   0  0  0  0  0  0  0  0  0  0  0  0
   21.3200   12.6980   55.0700 C   0  0  0  0  0  0  0  0  0  0  0  0
   20.9240   13.9780   55.8110 C   0  0  0  0  0  0  0  0  0  0  0  0
   19.1050   13.2070   57.2030 N   0  0  0  0  0  0  0  0  0  0  0  0
   21.4420   15.1960   55.6920 N   0  0  0  0  0  0  0  0  0  0  0  0
   18.9680   15.8210   58.0750 C   0  0  0  0  0  0  0  0  0  0  0  0
   16.1160   12.9460   59.2540 C   0  0  0  0  0  0  0  0  0  0  0  0
   15.2430   11.9730   59.7380 C   0  0  0  0  0  0  0  0  0  0  0  0
   15.5580   10.6250   59.5960 C   0  0  0  0  0  0  0  0  0  0  0  0
   18.5500   10.9249   57.9841 H   0  0  0  0  0  0  0  0  0  0  0  0
   16.9962    9.1807   58.8511 H   0  0  0  0  0  0  0  0  0  0  0  0
   17.3450   15.1483   59.3363 H   0  0  0  0  0  0  0  0  0  0  0  0
   25.1050   11.1998   57.4285 H   0  0  0  0  0  0  0  0  0  0  0  0
   21.4970    8.8293   57.7104 H   0  0  0  0  0  0  0  0  0  0  0  0
   23.9292   12.8148   55.9166 H   0  0  0  0  0  0  0  0  0  0  0  0
   23.9331    9.1356   59.4503 H   0  0  0  0  0  0  0  0  0  0  0  0
   20.3195   10.4477   56.2135 H   0  0  0  0  0  0  0  0  0  0  0  0
   21.9788   12.9605   54.2292 H   0  0  0  0  0  0  0  0  0  0  0  0
   20.4030   12.2089   54.7095 H   0  0  0  0  0  0  0  0  0  0  0  0
   18.9354   16.8692   58.4071 H   0  0  0  0  0  0  0  0  0  0  0  0
   15.8664   14.0110   59.3700 H   0  0  0  0  0  0  0  0  0  0  0  0
   14.3061   12.2704   60.2317 H   0  0  0  0  0  0  0  0  0  0  0  0
   14.8710    9.8568   59.9805 H   0  0  0  0  0  0  0  0  0  0  0  0
  1  8  1  0
  1 17  1  0
  1 18  1  0
  2  8  2  0
  2 19  1  0
  3  4  2  0
  3  6  1  0
  3 21  1  0
  4  5  1  0
  5 23  2  0
  6  7  1  0
  6 18  2  0
  7 20  2  0
  8 20  1  0
  9 12  1  0
  9 15  2  0
  9 16  1  0
 10 12  2  0
 10 13  1  0
 11 13  2  0
 11 15  1  0
 13 14  1  0
 16 17  1  0
 17 19  2  0
 21 22  2  0
 22 23  1  0
  4 24  1  0
  5 25  1  0
  7 26  1  0
 10 27  1  0
 11 28  1  0
 12 29  1  0
 14 30  1  0
 15 31  1  0
 16 32  1  0
 16 33  1  0
 20 34  1  0
 21 35  1  0
 22 36  1  0
 23 37  1  0
A    1
N1
A    2
N3
A    3
C4
A    4
C5
A    5
C6
A    6
C7
A    7
C8
A    8
C10
A    9
C13
A   10
C15
A   11
C17
A   12
C14
A   13
C16
A   14
O1
A   15
C18
A   16
C12
A   17
C11
A   18
N2
A   19
N4
A   20
C9
A   21
C3
A   22
C2
A   23
C1
M  END
