3CCZ_5HI_A_876
     RDKit          3D

 72 74  0  0  0  0  0  0  0  0999 V2000
   78.6220    8.0870   -4.9370 N   0  0  0  0  0  0  0  0  0  0  0  0
   77.3970    9.6590   -5.8520 N   0  0  0  0  0  0  0  0  0  0  0  0
   77.3870    8.4060   -5.3650 C   0  0  0  0  0  0  0  0  0  0  0  0
   80.8880    9.1900   -4.8070 C   0  0  0  0  0  0  0  0  0  0  0  0
   79.0030    6.8040   -4.3330 C   0  0  0  0  0  0  0  0  0  0  0  0
   79.1560    6.9990   -2.8250 C   0  0  0  0  0  0  0  0  0  0  0  0
   78.8740    5.8790   -0.5990 C   0  0  0  0  0  0  0  0  0  0  0  0
   81.7030    9.5860   -6.0380 C   0  0  0  0  0  0  0  0  0  0  0  0
   74.7500    5.9010   -6.3730 C   0  0  0  0  0  0  0  0  0  0  0  0
   80.6900   14.8700   -8.1560 C   0  0  0  0  0  0  0  0  0  0  0  0
   81.9490   15.1660   -8.6720 C   0  0  0  0  0  0  0  0  0  0  0  0
   75.2530    7.6810   -4.2900 C   0  0  0  0  0  0  0  0  0  0  0  0
   74.1010    6.9010   -4.2750 C   0  0  0  0  0  0  0  0  0  0  0  0
   80.8120   12.6540   -9.0940 C   0  0  0  0  0  0  0  0  0  0  0  0
   79.8660   12.1250   -5.4580 O   0  0  0  0  0  0  0  0  0  0  0  0
   79.0750   11.5070   -6.1490 C   0  0  0  0  0  0  0  0  0  0  0  0
   78.5200   12.0150   -7.2560 N   0  0  0  0  0  0  0  0  0  0  0  0
   78.7630   13.3580   -7.7950 C   0  0  0  0  0  0  0  0  0  0  0  0
   77.7150   13.5630   -8.8920 C   0  0  0  0  0  0  0  0  0  0  0  0
   77.8360   12.5820   -9.9110 O   0  0  0  0  0  0  0  0  0  0  0  0
   80.1170   13.6140   -8.3580 C   0  0  0  0  0  0  0  0  0  0  0  0
   82.0730   12.9530   -9.6100 C   0  0  0  0  0  0  0  0  0  0  0  0
   82.6440   14.2050   -9.4000 C   0  0  0  0  0  0  0  0  0  0  0  0
   78.6450   10.1350   -5.7380 C   0  0  0  0  0  0  0  0  0  0  0  0
   79.4360    9.1460   -5.1430 C   0  0  0  0  0  0  0  0  0  0  0  0
   81.1530   10.0960   -3.6030 C   0  0  0  0  0  0  0  0  0  0  0  0
   76.1580    7.5660   -5.3420 C   0  0  0  0  0  0  0  0  0  0  0  0
   73.8490    6.0130   -5.3170 C   0  0  0  0  0  0  0  0  0  0  0  0
   72.7350    5.2630   -5.3020 F   0  0  0  0  0  0  0  0  0  0  0  0
   75.9040    6.6810   -6.3870 C   0  0  0  0  0  0  0  0  0  0  0  0
   79.2570    5.6790   -2.0640 C   0  0  0  0  0  0  0  0  0  0  0  0
   80.5920    5.2040   -2.1110 O   0  0  0  0  0  0  0  0  0  0  0  0
   77.3640    5.8840   -0.3830 C   0  0  0  0  0  0  0  0  0  0  0  0
   76.8160    4.6380   -0.7770 O   0  0  0  0  0  0  0  0  0  0  0  0
   77.0620    6.1300    1.0910 C   0  0  0  0  0  0  0  0  0  0  0  0
   75.6210    6.5430    1.2720 C   0  0  0  0  0  0  0  0  0  0  0  0
   74.8280    5.7230    1.7800 O   0  0  0  0  0  0  0  0  0  0  0  0
   75.2760    7.6900    0.9080 O   0  0  0  0  0  0  0  0  0  0  0  0
   81.2156    8.1833   -4.5084 H   0  0  0  0  0  0  0  0  0  0  0  0
   78.2226    6.0548   -4.5321 H   0  0  0  0  0  0  0  0  0  0  0  0
   79.9526    6.4540   -4.7640 H   0  0  0  0  0  0  0  0  0  0  0  0
   80.0687    7.5835   -2.6372 H   0  0  0  0  0  0  0  0  0  0  0  0
   78.2562    7.5199   -2.4658 H   0  0  0  0  0  0  0  0  0  0  0  0
   79.2821    6.8413   -0.2564 H   0  0  0  0  0  0  0  0  0  0  0  0
   79.2895    5.0357   -0.0278 H   0  0  0  0  0  0  0  0  0  0  0  0
   82.6497   10.0460   -5.7185 H   0  0  0  0  0  0  0  0  0  0  0  0
   81.9154    8.6907   -6.6407 H   0  0  0  0  0  0  0  0  0  0  0  0
   81.1304   10.3063   -6.6407 H   0  0  0  0  0  0  0  0  0  0  0  0
   74.5506    5.1976   -7.1949 H   0  0  0  0  0  0  0  0  0  0  0  0
   80.1422   15.6333   -7.5839 H   0  0  0  0  0  0  0  0  0  0  0  0
   82.3936   16.1581   -8.5044 H   0  0  0  0  0  0  0  0  0  0  0  0
   75.4489    8.3885   -3.4708 H   0  0  0  0  0  0  0  0  0  0  0  0
   73.3897    6.9860   -3.4402 H   0  0  0  0  0  0  0  0  0  0  0  0
   80.3665   11.6633   -9.2671 H   0  0  0  0  0  0  0  0  0  0  0  0
   77.8660   11.4112   -7.7742 H   0  0  0  0  0  0  0  0  0  0  0  0
   78.6942   14.0630   -6.9534 H   0  0  0  0  0  0  0  0  0  0  0  0
   76.7117   13.4947   -8.4463 H   0  0  0  0  0  0  0  0  0  0  0  0
   77.8739   14.5536   -9.3432 H   0  0  0  0  0  0  0  0  0  0  0  0
   77.9461   11.6890   -9.4980 H   0  0  0  0  0  0  0  0  0  0  0  0
   82.6205   12.1935  -10.1874 H   0  0  0  0  0  0  0  0  0  0  0  0
   83.6398   14.4336   -9.8075 H   0  0  0  0  0  0  0  0  0  0  0  0
   80.9874    9.5298   -2.6746 H   0  0  0  0  0  0  0  0  0  0  0  0
   82.1931   10.4527   -3.6344 H   0  0  0  0  0  0  0  0  0  0  0  0
   80.4690   10.9569   -3.6344 H   0  0  0  0  0  0  0  0  0  0  0  0
   76.6142    6.5980   -7.2229 H   0  0  0  0  0  0  0  0  0  0  0  0
   78.5729    4.9559   -2.5323 H   0  0  0  0  0  0  0  0  0  0  0  0
   80.9319    5.0831   -1.1891 H   0  0  0  0  0  0  0  0  0  0  0  0
   76.9147    6.6839   -0.9899 H   0  0  0  0  0  0  0  0  0  0  0  0
   76.5839    4.1103    0.0278 H   0  0  0  0  0  0  0  0  0  0  0  0
   77.2480    5.2060    1.6581 H   0  0  0  0  0  0  0  0  0  0  0  0
   77.7130    6.9370    1.4584 H   0  0  0  0  0  0  0  0  0  0  0  0
   74.7561    5.6487    2.7646 H   0  0  0  0  0  0  0  0  0  0  0  0
 25  1  1  0
  3  1  1  0
  1  5  1  0
 24  2  1  0
  2  3  2  0
  3 27  1  0
 26  4  1  0
 25  4  1  0
  4  8  1  0
  6  5  1  0
  6 31  1  0
 33  7  1  0
  7 31  1  0
 28  9  2  0
 30  9  1  0
 10 11  2  0
 10 21  1  0
 11 23  1  0
 12 13  2  0
 12 27  1  0
 13 28  1  0
 21 14  2  0
 14 22  1  0
 15 16  2  0
 16 17  1  0
 16 24  1  0
 18 17  1  0
 18 19  1  0
 18 21  1  0
 19 20  1  0
 23 22  2  0
 24 25  2  0
 27 30  2  0
 28 29  1  0
 31 32  1  0
 35 33  1  0
 33 34  1  0
 36 35  1  0
 38 36  2  0
 37 36  1  0
  4 39  1  0
  5 40  1  0
  5 41  1  0
  6 42  1  0
  6 43  1  0
  7 44  1  0
  7 45  1  0
  8 46  1  0
  8 47  1  0
  8 48  1  0
  9 49  1  0
 10 50  1  0
 11 51  1  0
 12 52  1  0
 13 53  1  0
 14 54  1  0
 17 55  1  0
 18 56  1  0
 19 57  1  0
 19 58  1  0
 20 59  1  0
 22 60  1  0
 23 61  1  0
 26 62  1  0
 26 63  1  0
 26 64  1  0
 30 65  1  0
 31 66  1  0
 32 67  1  0
 33 68  1  0
 34 69  1  0
 35 70  1  0
 35 71  1  0
 37 72  1  0
A    1
N1
A    2
N3
A    3
C5
A    4
C6
A    5
C7
A    6
C8
A    7
C10
A    8
C13
A    9
C15
A   10
C17
A   11
C20
A   12
C21
A   13
C24
A   14
C26
A   15
O2
A   16
C3
A   17
N2
A   18
C1
A   19
C14
A   20
O5
A   21
C32
A   22
C23
A   23
C29
A   24
C2
A   25
C19
A   26
C12
A   27
C27
A   28
C30
A   29
F1
A   30
C18
A   31
C9
A   32
O4
A   33
C11
A   34
O3
A   35
C35
A   36
C36
A   37
O6
A   38
O7
M  END
