3CD0_6HI_B_1
     RDKit          3D

 68 70  0  0  0  0  0  0  0  0999 V2000
  -16.1280    8.7000   46.7900 N   0  0  0  0  0  0  0  0  0  0  0  0
  -14.4560    4.5470   46.1250 C   0  0  0  0  0  0  0  0  0  0  0  0
  -14.9230    8.8700   46.2630 C   0  0  0  0  0  0  0  0  0  0  0  0
  -15.6270    5.3170   45.5060 C   0  0  0  0  0  0  0  0  0  0  0  0
  -13.1780    7.3070   44.8950 C   0  0  0  0  0  0  0  0  0  0  0  0
  -13.2060    8.0730   43.5600 C   0  0  0  0  0  0  0  0  0  0  0  0
  -12.8690    8.0730   41.0680 C   0  0  0  0  0  0  0  0  0  0  0  0
  -15.7680    5.1400   43.9920 C   0  0  0  0  0  0  0  0  0  0  0  0
  -12.0780   11.3160   46.7780 C   0  0  0  0  0  0  0  0  0  0  0  0
  -18.8260    5.1000   49.7920 C   0  0  0  0  0  0  0  0  0  0  0  0
  -19.0940    3.8760   50.4150 C   0  0  0  0  0  0  0  0  0  0  0  0
  -14.6660   11.2620   45.7490 C   0  0  0  0  0  0  0  0  0  0  0  0
  -13.9340   12.4470   45.7380 C   0  0  0  0  0  0  0  0  0  0  0  0
  -21.1790    5.4110   49.3880 C   0  0  0  0  0  0  0  0  0  0  0  0
  -20.6970    2.2490   51.1220 F   0  0  0  0  0  0  0  0  0  0  0  0
  -20.4110    3.4230   50.5250 C   0  0  0  0  0  0  0  0  0  0  0  0
  -21.4510    4.1920   50.0100 C   0  0  0  0  0  0  0  0  0  0  0  0
  -19.8740    5.8710   49.2730 C   0  0  0  0  0  0  0  0  0  0  0  0
  -19.6540    7.2060   48.5850 C   0  0  0  0  0  0  0  0  0  0  0  0
  -18.2730    7.3900   48.1680 N   0  0  0  0  0  0  0  0  0  0  0  0
  -17.7930    6.8960   47.0300 C   0  0  0  0  0  0  0  0  0  0  0  0
  -18.4980    6.2750   46.2410 O   0  0  0  0  0  0  0  0  0  0  0  0
  -16.4820    7.4220   46.5630 C   0  0  0  0  0  0  0  0  0  0  0  0
  -15.5140    6.7560   45.8830 N   0  0  0  0  0  0  0  0  0  0  0  0
  -14.4760    7.5920   45.6440 C   0  0  0  0  0  0  0  0  0  0  0  0
  -14.0980   10.1000   46.2500 C   0  0  0  0  0  0  0  0  0  0  0  0
  -12.6430   12.4790   46.2530 C   0  0  0  0  0  0  0  0  0  0  0  0
  -11.9460   13.6340   46.2380 F   0  0  0  0  0  0  0  0  0  0  0  0
  -12.8130   10.1290   46.7880 C   0  0  0  0  0  0  0  0  0  0  0  0
  -12.3110    7.5730   42.4030 C   0  0  0  0  0  0  0  0  0  0  0  0
  -12.2300    6.1510   42.3100 O   0  0  0  0  0  0  0  0  0  0  0  0
  -12.9330    9.5980   40.9680 C   0  0  0  0  0  0  0  0  0  0  0  0
  -11.6480   10.1290   41.2900 O   0  0  0  0  0  0  0  0  0  0  0  0
  -13.3870   10.0030   39.5590 C   0  0  0  0  0  0  0  0  0  0  0  0
  -13.8450   11.4480   39.4660 C   0  0  0  0  0  0  0  0  0  0  0  0
  -13.1210   12.3030   38.9630 O   0  0  0  0  0  0  0  0  0  0  0  0
  -15.0490   11.8200   39.9100 O   0  0  0  0  0  0  0  0  0  0  0  0
  -14.5259    4.5929   47.2218 H   0  0  0  0  0  0  0  0  0  0  0  0
  -14.4942    3.4972   45.7988 H   0  0  0  0  0  0  0  0  0  0  0  0
  -13.5072    4.9981   45.7988 H   0  0  0  0  0  0  0  0  0  0  0  0
  -16.5528    4.8883   45.9173 H   0  0  0  0  0  0  0  0  0  0  0  0
  -12.3208    7.6423   45.4973 H   0  0  0  0  0  0  0  0  0  0  0  0
  -13.0800    6.2274   44.7081 H   0  0  0  0  0  0  0  0  0  0  0  0
  -14.2445    8.0559   43.1977 H   0  0  0  0  0  0  0  0  0  0  0  0
  -12.7956    9.0627   43.8091 H   0  0  0  0  0  0  0  0  0  0  0  0
  -12.2255    7.6974   40.2588 H   0  0  0  0  0  0  0  0  0  0  0  0
  -13.9004    7.6992   40.9873 H   0  0  0  0  0  0  0  0  0  0  0  0
  -16.4409    4.2953   43.7827 H   0  0  0  0  0  0  0  0  0  0  0  0
  -16.1847    6.0583   43.5527 H   0  0  0  0  0  0  0  0  0  0  0  0
  -14.7797    4.9391   43.5527 H   0  0  0  0  0  0  0  0  0  0  0  0
  -11.0555   11.3344   47.1832 H   0  0  0  0  0  0  0  0  0  0  0  0
  -17.7891    5.4578   49.7096 H   0  0  0  0  0  0  0  0  0  0  0  0
  -18.2684    3.2710   50.8178 H   0  0  0  0  0  0  0  0  0  0  0  0
  -15.6949   11.2477   45.3602 H   0  0  0  0  0  0  0  0  0  0  0  0
  -14.3794   13.3618   45.3199 H   0  0  0  0  0  0  0  0  0  0  0  0
  -22.0064    6.0134   48.9849 H   0  0  0  0  0  0  0  0  0  0  0  0
  -22.4891    3.8379   50.0936 H   0  0  0  0  0  0  0  0  0  0  0  0
  -20.3016    7.2577   47.6973 H   0  0  0  0  0  0  0  0  0  0  0  0
  -19.8970    8.0006   49.3058 H   0  0  0  0  0  0  0  0  0  0  0  0
  -17.6401    7.9252   48.7794 H   0  0  0  0  0  0  0  0  0  0  0  0
  -12.3775    9.2163   47.2208 H   0  0  0  0  0  0  0  0  0  0  0  0
  -11.3059    7.9654   42.6170 H   0  0  0  0  0  0  0  0  0  0  0  0
  -12.2078    5.7615   43.2199 H   0  0  0  0  0  0  0  0  0  0  0  0
  -13.6658   10.0073   41.6789 H   0  0  0  0  0  0  0  0  0  0  0  0
  -11.5455   10.1714   42.2738 H   0  0  0  0  0  0  0  0  0  0  0  0
  -12.5449    9.8587   38.8662 H   0  0  0  0  0  0  0  0  0  0  0  0
  -14.2498    9.3712   39.3012 H   0  0  0  0  0  0  0  0  0  0  0  0
  -15.2228   11.8737   40.8831 H   0  0  0  0  0  0  0  0  0  0  0  0
  3  1  1  0
  1 23  2  0
  2  4  1  0
 25  3  2  0
 26  3  1  0
  4 24  1  0
  4  8  1  0
  5 25  1  0
  5  6  1  0
 30  6  1  0
 30  7  1  0
  7 32  1  0
  9 29  2  0
  9 27  1  0
 11 10  2  0
 10 18  1  0
 11 16  1  0
 26 12  2  0
 13 12  1  0
 27 13  2  0
 18 14  2  0
 17 14  1  0
 15 16  1  0
 16 17  2  0
 18 19  1  0
 20 19  1  0
 20 21  1  0
 23 21  1  0
 21 22  2  0
 24 23  1  0
 25 24  1  0
 29 26  1  0
 28 27  1  0
 31 30  1  0
 33 32  1  0
 32 34  1  0
 34 35  1  0
 36 35  2  0
 35 37  1  0
  2 38  1  0
  2 39  1  0
  2 40  1  0
  4 41  1  0
  5 42  1  0
  5 43  1  0
  6 44  1  0
  6 45  1  0
  7 46  1  0
  7 47  1  0
  8 48  1  0
  8 49  1  0
  8 50  1  0
  9 51  1  0
 10 52  1  0
 11 53  1  0
 12 54  1  0
 13 55  1  0
 14 56  1  0
 17 57  1  0
 19 58  1  0
 19 59  1  0
 20 60  1  0
 29 61  1  0
 30 62  1  0
 31 63  1  0
 32 64  1  0
 33 65  1  0
 34 66  1  0
 34 67  1  0
 37 68  1  0
A    1
N3
A    2
C4
A    3
C5
A    4
C6
A    5
C7
A    6
C8
A    7
C10
A    8
C13
A    9
C15
A   10
C17
A   11
C20
A   12
C21
A   13
C24
A   14
C26
A   15
F2
A   16
C29
A   17
C23
A   18
C32
A   19
C1
A   20
N2
A   21
C3
A   22
O2
A   23
C2
A   24
N4
A   25
C12
A   26
C27
A   27
C30
A   28
F1
A   29
C18
A   30
C9
A   31
O4
A   32
C11
A   33
O3
A   34
C35
A   35
C36
A   36
O7
A   37
O6
M  END
