3CD8_L5G_A_1
     RDKit          3D

 46 50  0  0  0  0  0  0  0  0999 V2000
   18.8700   12.9580   57.3230 N   0  0  0  0  0  0  0  0  0  0  0  0
   20.8530   15.6230   56.7120 N   0  0  0  0  0  0  0  0  0  0  0  0
   17.0150   12.3890   58.6630 C   0  0  0  0  0  0  0  0  0  0  0  0
   15.9950   12.7380   59.5520 C   0  0  0  0  0  0  0  0  0  0  0  0
   15.0540   11.7850   59.9360 C   0  0  0  0  0  0  0  0  0  0  0  0
   17.9610   13.3250   58.2470 C   0  0  0  0  0  0  0  0  0  0  0  0
   17.9690   14.6240   58.7590 C   0  0  0  0  0  0  0  0  0  0  0  0
   19.8260   15.0590   57.3540 C   0  0  0  0  0  0  0  0  0  0  0  0
   21.9960   10.7850   56.7020 C   0  0  0  0  0  0  0  0  0  0  0  0
   24.1990   11.0250   57.6610 C   0  0  0  0  0  0  0  0  0  0  0  0
   22.8320    9.2880   58.4090 C   0  0  0  0  0  0  0  0  0  0  0  0
   20.4310    7.8810   58.3500 C   0  0  0  0  0  0  0  0  0  0  0  0
   20.6110    8.9750   57.5050 C   0  0  0  0  0  0  0  0  0  0  0  0
   22.2490    5.9330   60.8780 C   0  0  0  0  0  0  0  0  0  0  0  0
   21.1940    6.3870   60.0150 O   0  0  0  0  0  0  0  0  0  0  0  0
   21.4460    7.4750   59.2200 C   0  0  0  0  0  0  0  0  0  0  0  0
   22.6520    8.1860   59.2510 C   0  0  0  0  0  0  0  0  0  0  0  0
   21.8080    9.6830   57.5350 C   0  0  0  0  0  0  0  0  0  0  0  0
   23.9890    9.9720   58.4400 N   0  0  0  0  0  0  0  0  0  0  0  0
   23.2150   11.4610   56.7690 C   0  0  0  0  0  0  0  0  0  0  0  0
   20.9960   11.1640   55.8430 O   0  0  0  0  0  0  0  0  0  0  0  0
   21.0990   12.5060   55.2520 C   0  0  0  0  0  0  0  0  0  0  0  0
   20.7660   13.6440   55.9900 C   0  0  0  0  0  0  0  0  0  0  0  0
   19.7330   13.7400   56.9100 N   0  0  0  0  0  0  0  0  0  0  0  0
   21.3910   14.8220   55.9320 N   0  0  0  0  0  0  0  0  0  0  0  0
   18.9220   15.5220   58.3060 C   0  0  0  0  0  0  0  0  0  0  0  0
   17.0800   11.0860   58.1580 C   0  0  0  0  0  0  0  0  0  0  0  0
   16.1430   10.1300   58.5470 C   0  0  0  0  0  0  0  0  0  0  0  0
   15.1280   10.4830   59.4370 C   0  0  0  0  0  0  0  0  0  0  0  0
   15.9351   13.7626   59.9477 H   0  0  0  0  0  0  0  0  0  0  0  0
   14.2499   12.0593   60.6347 H   0  0  0  0  0  0  0  0  0  0  0  0
   17.2283   14.9305   59.5123 H   0  0  0  0  0  0  0  0  0  0  0  0
   25.1579   11.5609   57.7176 H   0  0  0  0  0  0  0  0  0  0  0  0
   19.4786    7.3309   58.3316 H   0  0  0  0  0  0  0  0  0  0  0  0
   19.8085    9.2776   56.8162 H   0  0  0  0  0  0  0  0  0  0  0  0
   21.9460    6.0634   61.9274 H   0  0  0  0  0  0  0  0  0  0  0  0
   22.4494    4.8690   60.6837 H   0  0  0  0  0  0  0  0  0  0  0  0
   23.1594    6.5190   60.6837 H   0  0  0  0  0  0  0  0  0  0  0  0
   23.4559    7.8785   59.9360 H   0  0  0  0  0  0  0  0  0  0  0  0
   23.4005   12.3321   56.1235 H   0  0  0  0  0  0  0  0  0  0  0  0
   22.1464   12.6309   54.9400 H   0  0  0  0  0  0  0  0  0  0  0  0
   20.3232   12.4874   54.4724 H   0  0  0  0  0  0  0  0  0  0  0  0
   18.9625   16.5550   58.6820 H   0  0  0  0  0  0  0  0  0  0  0  0
   17.8759   10.8140   57.4491 H   0  0  0  0  0  0  0  0  0  0  0  0
   16.2034    9.1040   58.1549 H   0  0  0  0  0  0  0  0  0  0  0  0
   14.3843    9.7338   59.7463 H   0  0  0  0  0  0  0  0  0  0  0  0
  1  6  2  0
  1 24  1  0
  2  8  2  0
  2 25  1  0
  3  4  2  0
  3  6  1  0
  3 27  1  0
  4  5  1  0
  5 29  2  0
  6  7  1  0
  7 26  2  0
  8 24  1  0
  8 26  1  0
  9 18  1  0
  9 20  2  0
  9 21  1  0
 10 19  2  0
 10 20  1  0
 11 17  2  0
 11 18  1  0
 11 19  1  0
 12 13  1  0
 12 16  2  0
 13 18  2  0
 14 15  1  0
 15 16  1  0
 16 17  1  0
 21 22  1  0
 22 23  1  0
 23 24  1  0
 23 25  2  0
 27 28  2  0
 28 29  1  0
  4 30  1  0
  5 31  1  0
  7 32  1  0
 10 33  1  0
 12 34  1  0
 13 35  1  0
 14 36  1  0
 14 37  1  0
 14 38  1  0
 17 39  1  0
 20 40  1  0
 22 41  1  0
 22 42  1  0
 26 43  1  0
 27 44  1  0
 28 45  1  0
 29 46  1  0
A    1
N1
A    2
N3
A    3
C4
A    4
C5
A    5
C6
A    6
C7
A    7
C8
A    8
C10
A    9
C13
A   10
C15
A   11
C17
A   12
C20
A   13
C21
A   14
C22
A   15
O2
A   16
C19
A   17
C18
A   18
C16
A   19
N5
A   20
C14
A   21
O1
A   22
C12
A   23
C11
A   24
N2
A   25
N4
A   26
C9
A   27
C3
A   28
C2
A   29
C1
M  END
