3CDA_8HI_A_2
     RDKit          3D

 81 84  0  0  0  0  0  0  0  0999 V2000
   21.7720   26.0980   14.1560 N   0  0  0  0  0  0  0  0  0  0  0  0
   16.5350   24.4240   17.1810 C   0  0  0  0  0  0  0  0  0  0  0  0
   15.5700   24.0430   18.1180 C   0  0  0  0  0  0  0  0  0  0  0  0
   18.1760   23.7710   15.3620 C   0  0  0  0  0  0  0  0  0  0  0  0
   18.0090   23.5820   14.0030 C   0  0  0  0  0  0  0  0  0  0  0  0
   20.0630   24.3550   14.3530 C   0  0  0  0  0  0  0  0  0  0  0  0
   19.9790   24.5550   16.9480 C   0  0  0  0  0  0  0  0  0  0  0  0
   20.9440   25.3630   19.4560 C   0  0  0  0  0  0  0  0  0  0  0  0
   20.0850   23.6380   17.9850 C   0  0  0  0  0  0  0  0  0  0  0  0
   22.9810   26.6470   13.8430 C   0  0  0  0  0  0  0  0  0  0  0  0
   25.3430   27.9700   13.0700 C   0  0  0  0  0  0  0  0  0  0  0  0
   25.3920   26.6610   13.5650 C   0  0  0  0  0  0  0  0  0  0  0  0
   24.2180   25.9960   13.9440 C   0  0  0  0  0  0  0  0  0  0  0  0
   19.8600   25.2760   11.4240 C   0  0  0  0  0  0  0  0  0  0  0  0
   16.7500   23.1070   13.3180 C   0  0  0  0  0  0  0  0  0  0  0  0
   15.5310   21.1720   12.3300 C   0  0  0  0  0  0  0  0  0  0  0  0
   16.8040   17.6360   16.1000 O   0  0  0  0  0  0  0  0  0  0  0  0
   15.7920   17.3590   15.4610 C   0  0  0  0  0  0  0  0  0  0  0  0
   14.7630   16.7640   16.0510 O   0  0  0  0  0  0  0  0  0  0  0  0
   15.6940   17.7240   14.0070 C   0  0  0  0  0  0  0  0  0  0  0  0
   15.4480   19.2200   13.8960 C   0  0  0  0  0  0  0  0  0  0  0  0
   14.1610   19.5490   14.3790 O   0  0  0  0  0  0  0  0  0  0  0  0
   15.5330   19.6580   12.4450 C   0  0  0  0  0  0  0  0  0  0  0  0
   15.2560   21.5150   10.9810 O   0  0  0  0  0  0  0  0  0  0  0  0
   16.9010   21.7190   12.7340 C   0  0  0  0  0  0  0  0  0  0  0  0
   17.1390   23.4570   16.3900 C   0  0  0  0  0  0  0  0  0  0  0  0
   16.7950   22.1160   16.5500 C   0  0  0  0  0  0  0  0  0  0  0  0
   15.8420   21.7320   17.4870 C   0  0  0  0  0  0  0  0  0  0  0  0
   15.2310   22.7010   18.2730 C   0  0  0  0  0  0  0  0  0  0  0  0
   14.3070   22.3300   19.1750 F   0  0  0  0  0  0  0  0  0  0  0  0
   19.1790   23.9410   13.4110 N   0  0  0  0  0  0  0  0  0  0  0  0
   19.3720   23.9140   11.9200 C   0  0  0  0  0  0  0  0  0  0  0  0
   20.2500   22.7570   11.4730 C   0  0  0  0  0  0  0  0  0  0  0  0
   19.4490   24.2060   15.5950 C   0  0  0  0  0  0  0  0  0  0  0  0
   20.3380   25.8860   17.1850 C   0  0  0  0  0  0  0  0  0  0  0  0
   20.8300   26.2930   18.4260 C   0  0  0  0  0  0  0  0  0  0  0  0
   20.5740   24.0390   19.2300 C   0  0  0  0  0  0  0  0  0  0  0  0
   21.4770   24.7970   14.1410 C   0  0  0  0  0  0  0  0  0  0  0  0
   22.1730   23.9760   13.5700 O   0  0  0  0  0  0  0  0  0  0  0  0
   22.9460   27.9460   13.3380 C   0  0  0  0  0  0  0  0  0  0  0  0
   24.1110   28.6120   12.9670 C   0  0  0  0  0  0  0  0  0  0  0  0
   26.6630   28.7720   12.6430 S   0  0  0  0  0  0  0  0  0  0  0  0
   27.7390   27.8980   12.2940 O   0  0  0  0  0  0  0  0  0  0  0  0
   26.3590   29.6320   11.5290 O   0  0  0  0  0  0  0  0  0  0  0  0
   27.0590   29.6990   13.8850 N   0  0  0  0  0  0  0  0  0  0  0  0
   21.0193   26.7462   14.4284 H   0  0  0  0  0  0  0  0  0  0  0  0
   16.8135   25.4825   17.0716 H   0  0  0  0  0  0  0  0  0  0  0  0
   15.0759   24.8071   18.7361 H   0  0  0  0  0  0  0  0  0  0  0  0
   21.3236   25.6715   20.4413 H   0  0  0  0  0  0  0  0  0  0  0  0
   19.7829   22.5924   17.8254 H   0  0  0  0  0  0  0  0  0  0  0  0
   26.3615   26.1496   13.6573 H   0  0  0  0  0  0  0  0  0  0  0  0
   24.2674   24.9636   14.3205 H   0  0  0  0  0  0  0  0  0  0  0  0
   20.0904   25.9191   12.2861 H   0  0  0  0  0  0  0  0  0  0  0  0
   20.7658   25.1413   10.8146 H   0  0  0  0  0  0  0  0  0  0  0  0
   19.0748   25.7472   10.8146 H   0  0  0  0  0  0  0  0  0  0  0  0
   15.9312   23.0943   14.0525 H   0  0  0  0  0  0  0  0  0  0  0  0
   16.5369   23.7986   12.4896 H   0  0  0  0  0  0  0  0  0  0  0  0
   14.7673   21.6040   12.9934 H   0  0  0  0  0  0  0  0  0  0  0  0
   16.7816   17.6299   17.0897 H   0  0  0  0  0  0  0  0  0  0  0  0
   16.6328   17.4643   13.4960 H   0  0  0  0  0  0  0  0  0  0  0  0
   14.8668   17.1721   13.5368 H   0  0  0  0  0  0  0  0  0  0  0  0
   16.2150   19.7325   14.4952 H   0  0  0  0  0  0  0  0  0  0  0  0
   14.1695   19.5468   15.3690 H   0  0  0  0  0  0  0  0  0  0  0  0
   14.6687   19.2549   11.8968 H   0  0  0  0  0  0  0  0  0  0  0  0
   16.4729   19.2765   12.0194 H   0  0  0  0  0  0  0  0  0  0  0  0
   14.6369   22.2872   10.9565 H   0  0  0  0  0  0  0  0  0  0  0  0
   17.5511   21.7649   11.8479 H   0  0  0  0  0  0  0  0  0  0  0  0
   17.3476   21.0552   13.4890 H   0  0  0  0  0  0  0  0  0  0  0  0
   17.2834   21.3519   15.9274 H   0  0  0  0  0  0  0  0  0  0  0  0
   15.5746   20.6715   17.6047 H   0  0  0  0  0  0  0  0  0  0  0  0
   18.3968   23.7273   11.4465 H   0  0  0  0  0  0  0  0  0  0  0  0
   20.6463   22.2348   12.3564 H   0  0  0  0  0  0  0  0  0  0  0  0
   19.6542   22.0564   10.8695 H   0  0  0  0  0  0  0  0  0  0  0  0
   21.0851   23.1423   10.8695 H   0  0  0  0  0  0  0  0  0  0  0  0
   20.2305   26.6258   16.3781 H   0  0  0  0  0  0  0  0  0  0  0  0
   21.1253   27.3400   18.5891 H   0  0  0  0  0  0  0  0  0  0  0  0
   20.6681   23.3017   20.0409 H   0  0  0  0  0  0  0  0  0  0  0  0
   21.9772   28.4557   13.2304 H   0  0  0  0  0  0  0  0  0  0  0  0
   24.0586   29.6450   12.5926 H   0  0  0  0  0  0  0  0  0  0  0  0
   26.8478   29.2046   14.7635 H   0  0  0  0  0  0  0  0  0  0  0  0
   28.0655   29.9143   13.8456 H   0  0  0  0  0  0  0  0  0  0  0  0
 38  1  1  0
  1 10  1  0
  3  2  2  0
  2 26  1  0
 29  3  1  0
 26  4  1  0
  4  5  2  0
  4 34  1  0
 15  5  1  0
  5 31  1  0
 34  6  2  0
 31  6  1  0
  6 38  1  0
  9  7  2  0
  7 34  1  0
  7 35  1  0
 37  8  2  0
  8 36  1  0
 37  9  1  0
 10 40  2  0
 10 13  1  0
 41 11  2  0
 12 11  1  0
 11 42  1  0
 13 12  2  0
 32 14  1  0
 15 25  1  0
 23 16  1  0
 16 24  1  0
 16 25  1  0
 18 17  1  0
 19 18  2  0
 18 20  1  0
 20 21  1  0
 22 21  1  0
 21 23  1  0
 27 26  2  0
 28 27  1  0
 29 28  2  0
 30 29  1  0
 31 32  1  0
 32 33  1  0
 36 35  2  0
 38 39  2  0
 40 41  1  0
 42 45  1  0
 42 44  2  0
 42 43  2  0
  1 46  1  0
  2 47  1  0
  3 48  1  0
  8 49  1  0
  9 50  1  0
 12 51  1  0
 13 52  1  0
 14 53  1  0
 14 54  1  0
 14 55  1  0
 15 56  1  0
 15 57  1  0
 16 58  1  0
 17 59  1  0
 20 60  1  0
 20 61  1  0
 21 62  1  0
 22 63  1  0
 23 64  1  0
 23 65  1  0
 24 66  1  0
 25 67  1  0
 25 68  1  0
 27 69  1  0
 28 70  1  0
 32 71  1  0
 33 72  1  0
 33 73  1  0
 33 74  1  0
 35 75  1  0
 36 76  1  0
 37 77  1  0
 40 78  1  0
 41 79  1  0
 45 80  1  0
 45 81  1  0
A    1
N1
A    2
C4
A    3
C5
A    4
C6
A    5
C7
A    6
C8
A    7
C10
A    8
C13
A    9
C15
A   10
C17
A   11
C20
A   12
C21
A   13
C22
A   14
C24
A   15
C26
A   16
C28
A   17
O5
A   18
C32
A   19
O6
A   20
C31
A   21
C30
A   22
O4
A   23
C29
A   24
O3
A   25
C27
A   26
C3
A   27
C2
A   28
C1
A   29
C
A   30
F
A   31
N
A   32
C23
A   33
C25
A   34
C9
A   35
C11
A   36
C12
A   37
C14
A   38
C16
A   39
O
A   40
C18
A   41
C19
A   42
S
A   43
O1
A   44
O2
A   45
N2
M  END
