3CEN_FXA_A_1
     RDKit          3D

 50 53  0  0  0  0  0  0  0  0999 V2000
    2.6140   44.1490   64.6190 C   0  0  0  0  0  0  0  0  0  0  0  0
    3.8800   44.8420   64.8280 C   0  0  0  0  0  0  0  0  0  0  0  0
    5.0580   44.3360   64.1280 C   0  0  0  0  0  0  0  0  0  0  0  0
    6.3900   43.0150   61.2230 C   0  0  0  0  0  0  0  0  0  0  0  0
    7.0220   41.8910   60.4320 C   0  0  0  0  0  0  0  0  0  0  0  0
    7.8420   42.1940   59.2370 C   0  0  0  0  0  0  0  0  0  0  0  0
    8.3920   41.0990   58.4150 C   0  0  0  0  0  0  0  0  0  0  0  0
    8.1420   39.6780   58.7570 C   0  0  0  0  0  0  0  0  0  0  0  0
    7.3630   39.3820   59.9810 C   0  0  0  0  0  0  0  0  0  0  0  0
    8.5660   38.6400   57.8430 N   0  0  0  0  0  0  0  0  0  0  0  0
    7.7130   38.3430   56.6840 C   0  0  0  0  0  0  0  0  0  0  0  0
    8.1600   37.3770   55.6250 C   0  0  0  0  0  0  0  0  0  0  0  0
    9.7910   38.0050   58.0150 C   0  0  0  0  0  0  0  0  0  0  0  0
   10.2010   37.0630   57.0000 C   0  0  0  0  0  0  0  0  0  0  0  0
   11.5290   44.8570   64.6300 C   0  0  0  0  0  0  0  0  0  0  0  0
    4.9780   43.1950   63.2350 C   0  0  0  0  0  0  0  0  0  0  0  0
    3.7230   42.4800   63.0640 C   0  0  0  0  0  0  0  0  0  0  0  0
    2.5430   42.9620   63.7660 C   0  0  0  0  0  0  0  0  0  0  0  0
    6.6410   45.1360   64.3020 S   0  0  0  0  0  0  0  0  0  0  0  0
    7.8300   44.1030   64.8380 N   0  0  0  0  0  0  0  0  0  0  0  0
    6.0740   42.7220   62.5230 N   0  0  0  0  0  0  0  0  0  0  0  0
    6.1750   44.1220   60.7230 O   0  0  0  0  0  0  0  0  0  0  0  0
    6.8120   40.4790   60.8030 C   0  0  0  0  0  0  0  0  0  0  0  0
    6.6080   38.8870   56.5780 O   0  0  0  0  0  0  0  0  0  0  0  0
    9.4310   36.7480   55.8150 C   0  0  0  0  0  0  0  0  0  0  0  0
    9.1980   44.2460   65.1290 C   0  0  0  0  0  0  0  0  0  0  0  0
   10.1410   44.9200   64.2320 C   0  0  0  0  0  0  0  0  0  0  0  0
   11.9670   44.1310   65.8220 C   0  0  0  0  0  0  0  0  0  0  0  0
   10.9850   43.4910   66.6910 C   0  0  0  0  0  0  0  0  0  0  0  0
    9.6490   43.6010   66.3050 N   0  0  0  0  0  0  0  0  0  0  0  0
   13.7510   43.8780   66.2190 Cl  0  0  0  0  0  0  0  0  0  0  0  0
    6.4460   46.1540   65.3040 O   0  0  0  0  0  0  0  0  0  0  0  0
    7.0340   45.5490   62.9830 O   0  0  0  0  0  0  0  0  0  0  0  0
    1.7023   44.5227   65.1080 H   0  0  0  0  0  0  0  0  0  0  0  0
    3.9457   45.7172   65.4911 H   0  0  0  0  0  0  0  0  0  0  0  0
    8.0420   43.2398   58.9608 H   0  0  0  0  0  0  0  0  0  0  0  0
    8.9997   41.3417   57.5308 H   0  0  0  0  0  0  0  0  0  0  0  0
    7.1932   38.3373   60.2806 H   0  0  0  0  0  0  0  0  0  0  0  0
    7.5385   37.1626   54.7431 H   0  0  0  0  0  0  0  0  0  0  0  0
   10.4236   38.2122   58.8907 H   0  0  0  0  0  0  0  0  0  0  0  0
   11.1642   36.5497   57.1365 H   0  0  0  0  0  0  0  0  0  0  0  0
   12.2817   45.3726   64.0156 H   0  0  0  0  0  0  0  0  0  0  0  0
    3.6670   41.5924   62.4167 H   0  0  0  0  0  0  0  0  0  0  0  0
    1.5875   42.4285   63.6543 H   0  0  0  0  0  0  0  0  0  0  0  0
    7.4870   43.1439   64.9909 H   0  0  0  0  0  0  0  0  0  0  0  0
    6.7127   42.0874   63.0233 H   0  0  0  0  0  0  0  0  0  0  0  0
    6.2348   40.2384   61.7079 H   0  0  0  0  0  0  0  0  0  0  0  0
    9.8176   36.0354   55.0715 H   0  0  0  0  0  0  0  0  0  0  0  0
    9.8147   45.4384   63.3183 H   0  0  0  0  0  0  0  0  0  0  0  0
   11.2823   42.9506   67.6018 H   0  0  0  0  0  0  0  0  0  0  0  0
  1  2  2  0
  1 18  1  0
  2  3  1  0
  3 16  2  0
  3 19  1  0
  4  5  1  0
  4 21  1  0
  4 22  2  0
  5  6  2  0
  5 23  1  0
  6  7  1  0
  7  8  2  0
  8  9  1  0
  8 10  1  0
  9 23  2  0
 10 11  1  0
 10 13  1  0
 11 12  1  0
 11 24  2  0
 12 25  2  0
 13 14  2  0
 14 25  1  0
 15 27  2  0
 15 28  1  0
 16 17  1  0
 16 21  1  0
 17 18  2  0
 19 20  1  0
 19 32  2  0
 19 33  2  0
 20 26  1  0
 26 27  1  0
 26 30  2  0
 28 29  2  0
 28 31  1  0
 29 30  1  0
  1 34  1  0
  2 35  1  0
  6 36  1  0
  7 37  1  0
  9 38  1  0
 12 39  1  0
 13 40  1  0
 14 41  1  0
 15 42  1  0
 17 43  1  0
 18 44  1  0
 20 45  1  0
 21 46  1  0
 23 47  1  0
 25 48  1  0
 27 49  1  0
 29 50  1  0
A    1
C1
A    2
C2
A    3
C3
A    4
C10
A    5
C11
A    6
C13
A    7
C14
A    8
C15
A    9
C16
A   10
N18
A   11
C19
A   12
C20
A   13
C21
A   14
C24
A   15
C27
A   16
C4
A   17
C5
A   18
C6
A   19
S7
A   20
N8
A   21
N9
A   22
O12
A   23
C17
A   24
O22
A   25
C23
A   26
C25
A   27
C26
A   28
C28
A   29
C29
A   30
N30
A   31
CL31
A   32
O32
A   33
O33
M  END
