3CFL_5CH_A_693
     RDKit          3D

 39 41  0  0  0  0  0  0  0  0999 V2000
  -21.7260   17.9100   18.0730 N   0  0  0  0  0  0  0  0  0  0  0  0
  -24.8010   15.2420   13.3300 C   0  0  0  0  0  0  0  0  0  0  0  0
  -23.5710   16.7950   14.8030 C   0  0  0  0  0  0  0  0  0  0  0  0
  -22.9750   17.3690   13.6720 C   0  0  0  0  0  0  0  0  0  0  0  0
  -23.2760   16.8820   12.3860 C   0  0  0  0  0  0  0  0  0  0  0  0
  -23.2570   15.2500    9.9310 O   0  0  0  0  0  0  0  0  0  0  0  0
  -24.4990   15.2980   10.6860 S   0  0  0  0  0  0  0  0  0  0  0  0
  -25.0970   13.9700   10.6810 O   0  0  0  0  0  0  0  0  0  0  0  0
  -25.5490   16.4100    9.9970 C   0  0  0  0  0  0  0  0  0  0  0  0
  -24.1830   15.8110   12.1940 C   0  0  0  0  0  0  0  0  0  0  0  0
  -24.4960   15.7360   14.6190 C   0  0  0  0  0  0  0  0  0  0  0  0
  -23.2570   17.3330   16.1800 C   0  0  0  0  0  0  0  0  0  0  0  0
  -24.3140   17.8190   16.9420 C   0  0  0  0  0  0  0  0  0  0  0  0
  -24.0710   18.3260   18.2210 C   0  0  0  0  0  0  0  0  0  0  0  0
  -25.4640   18.9240   19.1720 Cl  0  0  0  0  0  0  0  0  0  0  0  0
  -22.7820   18.3710   18.7750 C   0  0  0  0  0  0  0  0  0  0  0  0
  -21.8840   17.4010   16.8150 C   0  0  0  0  0  0  0  0  0  0  0  0
  -20.6830   16.8800   16.1150 C   0  0  0  0  0  0  0  0  0  0  0  0
  -19.5340   17.6480   15.9670 C   0  0  0  0  0  0  0  0  0  0  0  0
  -18.4410   17.0930   15.2990 C   0  0  0  0  0  0  0  0  0  0  0  0
  -18.5280   15.7830   14.8220 C   0  0  0  0  0  0  0  0  0  0  0  0
  -17.3430   15.1940   14.1110 C   0  0  0  0  0  0  0  0  0  0  0  0
  -19.6620   15.0420   14.9910 N   0  0  0  0  0  0  0  0  0  0  0  0
  -20.7250   15.5620   15.6290 C   0  0  0  0  0  0  0  0  0  0  0  0
  -25.5180   14.4163   13.2117 H   0  0  0  0  0  0  0  0  0  0  0  0
  -22.2687   18.2040   13.7897 H   0  0  0  0  0  0  0  0  0  0  0  0
  -22.7961   17.3435   11.5104 H   0  0  0  0  0  0  0  0  0  0  0  0
  -26.0710   16.9628   10.7920 H   0  0  0  0  0  0  0  0  0  0  0  0
  -24.9793   17.1148    9.3736 H   0  0  0  0  0  0  0  0  0  0  0  0
  -26.2853   15.8816    9.3736 H   0  0  0  0  0  0  0  0  0  0  0  0
  -24.9861   15.2899   15.4970 H   0  0  0  0  0  0  0  0  0  0  0  0
  -25.3375   17.8043   16.5392 H   0  0  0  0  0  0  0  0  0  0  0  0
  -22.6325   18.7831   19.7839 H   0  0  0  0  0  0  0  0  0  0  0  0
  -19.4869   18.6713   16.3677 H   0  0  0  0  0  0  0  0  0  0  0  0
  -17.5227   17.6800   15.1501 H   0  0  0  0  0  0  0  0  0  0  0  0
  -16.6142   14.8318   14.8510 H   0  0  0  0  0  0  0  0  0  0  0  0
  -17.6733   14.3552   13.4807 H   0  0  0  0  0  0  0  0  0  0  0  0
  -16.8738   15.9637   13.4807 H   0  0  0  0  0  0  0  0  0  0  0  0
  -21.6306   14.9539   15.7711 H   0  0  0  0  0  0  0  0  0  0  0  0
  1 16  2  0
  1 17  1  0
  2 10  2  0
  2 11  1  0
  3  4  1  0
  3 11  2  0
  3 12  1  0
  4  5  2  0
  5 10  1  0
  6  7  2  0
  7  8  2  0
  7  9  1  0
  7 10  1  0
 12 13  1  0
 12 17  2  0
 13 14  2  0
 14 15  1  0
 14 16  1  0
 17 18  1  0
 18 19  2  0
 18 24  1  0
 19 20  1  0
 20 21  2  0
 21 22  1  0
 21 23  1  0
 23 24  2  0
  2 25  1  0
  4 26  1  0
  5 27  1  0
  9 28  1  0
  9 29  1  0
  9 30  1  0
 11 31  1  0
 13 32  1  0
 16 33  1  0
 19 34  1  0
 20 35  1  0
 22 36  1  0
 22 37  1  0
 22 38  1  0
 24 39  1  0
A    1
N9
A    2
C2
A    3
C4
A    4
C5
A    5
C6
A    6
O24
A    7
S21
A    8
O23
A    9
C22
A   10
C1
A   11
C3
A   12
C7
A   13
C12
A   14
C11
A   15
CL20
A   16
C10
A   17
C8
A   18
C13
A   19
C18
A   20
C17
A   21
C16
A   22
C19
A   23
N15
A   24
C14
M  END
