3CHO_4BG_A_901
     RDKit          3D

 35 36  0  0  0  0  0  0  0  0999 V2000
   24.4390   -0.1590    3.5850 C   0  0  0  0  0  0  0  0  0  0  0  0
   23.5200    0.4490    4.4520 C   0  0  0  0  0  0  0  0  0  0  0  0
   22.8920    1.6500    4.0840 C   0  0  0  0  0  0  0  0  0  0  0  0
   23.1740    2.2360    2.8430 C   0  0  0  0  0  0  0  0  0  0  0  0
   24.0940    1.6280    1.9770 C   0  0  0  0  0  0  0  0  0  0  0  0
   24.7390    0.4320    2.3510 C   0  0  0  0  0  0  0  0  0  0  0  0
   25.9480   -0.0260    1.5520 C   0  0  0  0  0  0  0  0  0  0  0  0
   26.1420    0.5280    0.3220 O   0  0  0  0  0  0  0  0  0  0  0  0
   27.4400    0.4410   -0.0940 C   0  0  0  0  0  0  0  0  0  0  0  0
   28.4670    0.6530    0.8410 C   0  0  0  0  0  0  0  0  0  0  0  0
   29.7450    0.9960    0.4140 C   0  0  0  0  0  0  0  0  0  0  0  0
   27.7130    0.5220   -1.4690 C   0  0  0  0  0  0  0  0  0  0  0  0
   29.0080    0.8690   -1.8990 C   0  0  0  0  0  0  0  0  0  0  0  0
   30.0260    1.1310   -0.9570 C   0  0  0  0  0  0  0  0  0  0  0  0
   31.1750    1.6990   -1.3930 N   0  0  0  0  0  0  0  0  0  0  0  0
   32.1290    2.2040   -0.5820 C   0  0  0  0  0  0  0  0  0  0  0  0
   31.9390    2.5910    0.5750 O   0  0  0  0  0  0  0  0  0  0  0  0
   33.5070    2.3450   -1.2300 C   0  0  0  0  0  0  0  0  0  0  0  0
   34.3360    3.2530   -0.4220 N   0  0  0  0  0  0  0  0  0  0  0  0
   24.9254   -1.1022    3.8745 H   0  0  0  0  0  0  0  0  0  0  0  0
   23.2905   -0.0156    5.4223 H   0  0  0  0  0  0  0  0  0  0  0  0
   22.1789    2.1305    4.7699 H   0  0  0  0  0  0  0  0  0  0  0  0
   22.6748    3.1710    2.5487 H   0  0  0  0  0  0  0  0  0  0  0  0
   24.3133    2.0865    1.0014 H   0  0  0  0  0  0  0  0  0  0  0  0
   26.8419    0.1918    2.1550 H   0  0  0  0  0  0  0  0  0  0  0  0
   25.7605   -1.0910    1.3505 H   0  0  0  0  0  0  0  0  0  0  0  0
   28.2590    0.5471    1.9160 H   0  0  0  0  0  0  0  0  0  0  0  0
   30.5417    1.1629    1.1539 H   0  0  0  0  0  0  0  0  0  0  0  0
   26.9213    0.3160   -2.2044 H   0  0  0  0  0  0  0  0  0  0  0  0
   29.2276    0.9363   -2.9748 H   0  0  0  0  0  0  0  0  0  0  0  0
   31.3316    1.7491   -2.4098 H   0  0  0  0  0  0  0  0  0  0  0  0
   33.9897    1.3581   -1.2845 H   0  0  0  0  0  0  0  0  0  0  0  0
   33.3958    2.7542   -2.2450 H   0  0  0  0  0  0  0  0  0  0  0  0
   34.1699    3.0710    0.5781 H   0  0  0  0  0  0  0  0  0  0  0  0
   35.3303    3.0948   -0.6392 H   0  0  0  0  0  0  0  0  0  0  0  0
  1  2  2  0
  1  6  1  0
  2  3  1  0
  3  4  2  0
  4  5  1  0
  5  6  2  0
  6  7  1  0
  7  8  1  0
  8  9  1  0
  9 10  2  0
  9 12  1  0
 10 11  1  0
 11 14  2  0
 12 13  2  0
 13 14  1  0
 14 15  1  0
 15 16  1  0
 16 17  2  0
 16 18  1  0
 18 19  1  0
  1 20  1  0
  2 21  1  0
  3 22  1  0
  4 23  1  0
  5 24  1  0
  7 25  1  0
  7 26  1  0
 10 27  1  0
 11 28  1  0
 12 29  1  0
 13 30  1  0
 15 31  1  0
 18 32  1  0
 18 33  1  0
 19 34  1  0
 19 35  1  0
A    1
C1
A    2
C2
A    3
C3
A    4
C4
A    5
C5
A    6
C6
A    7
C7
A    8
O8
A    9
C9
A   10
C12
A   11
C13
A   12
C10
A   13
C11
A   14
C14
A   15
N15
A   16
C16
A   17
O17
A   18
C18
A   19
N19
M  END
