3CHS_4BU_A_901
     RDKit          3D

 48 49  0  0  0  0  0  0  0  0999 V2000
   12.1870   40.9890   65.8760 O   0  0  0  0  0  0  0  0  0  0  0  0
   11.5650   42.0710   65.7190 C   0  0  0  0  0  0  0  0  0  0  0  0
   12.2270   43.2830   65.1480 C   0  0  0  0  0  0  0  0  0  0  0  0
   13.7450   42.8790   65.1520 C   0  0  0  0  0  0  0  0  0  0  0  0
   14.4240   42.0820   63.9840 C   0  0  0  0  0  0  0  0  0  0  0  0
   13.7190   40.8210   63.6870 N   0  0  0  0  0  0  0  0  0  0  0  0
   15.8270   41.6970   64.2240 C   0  0  0  0  0  0  0  0  0  0  0  0
   16.7990   42.3890   63.8720 O   0  0  0  0  0  0  0  0  0  0  0  0
   16.0810   40.6180   64.7990 O   0  0  0  0  0  0  0  0  0  0  0  0
   10.2430   42.1600   66.0620 N   0  0  0  0  0  0  0  0  0  0  0  0
    9.5490   41.3280   66.8970 C   0  0  0  0  0  0  0  0  0  0  0  0
    8.6280   41.9020   67.8130 C   0  0  0  0  0  0  0  0  0  0  0  0
    7.8950   41.0730   68.6980 C   0  0  0  0  0  0  0  0  0  0  0  0
    8.0710   39.6690   68.6930 C   0  0  0  0  0  0  0  0  0  0  0  0
    8.9800   39.0950   67.7830 C   0  0  0  0  0  0  0  0  0  0  0  0
    9.7060   39.9140   66.8980 C   0  0  0  0  0  0  0  0  0  0  0  0
    7.3420   38.9360   69.5820 O   0  0  0  0  0  0  0  0  0  0  0  0
    7.4130   37.5580   70.0110 C   0  0  0  0  0  0  0  0  0  0  0  0
    8.2740   37.7090   71.3070 C   0  0  0  0  0  0  0  0  0  0  0  0
    7.4760   38.4900   72.2070 O   0  0  0  0  0  0  0  0  0  0  0  0
    8.8250   36.4640   71.9420 C   0  0  0  0  0  0  0  0  0  0  0  0
    8.6580   35.1590   71.4030 C   0  0  0  0  0  0  0  0  0  0  0  0
    9.2260   34.0320   72.0320 C   0  0  0  0  0  0  0  0  0  0  0  0
    9.9670   34.1960   73.2170 C   0  0  0  0  0  0  0  0  0  0  0  0
   10.1390   35.4760   73.7820 C   0  0  0  0  0  0  0  0  0  0  0  0
    9.5780   36.5990   73.1450 C   0  0  0  0  0  0  0  0  0  0  0  0
   11.8726   43.4848   64.1264 H   0  0  0  0  0  0  0  0  0  0  0  0
   12.0178   44.2029   65.7137 H   0  0  0  0  0  0  0  0  0  0  0  0
   14.3079   43.8197   65.2432 H   0  0  0  0  0  0  0  0  0  0  0  0
   13.7717   42.1390   65.9655 H   0  0  0  0  0  0  0  0  0  0  0  0
   14.3761   42.7991   63.1513 H   0  0  0  0  0  0  0  0  0  0  0  0
   13.4595   40.3568   64.5691 H   0  0  0  0  0  0  0  0  0  0  0  0
   12.8685   41.0232   63.1423 H   0  0  0  0  0  0  0  0  0  0  0  0
   16.0912   40.5746   65.7880 H   0  0  0  0  0  0  0  0  0  0  0  0
    9.7126   42.9387   65.6458 H   0  0  0  0  0  0  0  0  0  0  0  0
    8.4834   42.9922   67.8355 H   0  0  0  0  0  0  0  0  0  0  0  0
    7.1791   41.5273   69.3988 H   0  0  0  0  0  0  0  0  0  0  0  0
    9.1228   38.0045   67.7639 H   0  0  0  0  0  0  0  0  0  0  0  0
   10.4103   39.4506   66.1915 H   0  0  0  0  0  0  0  0  0  0  0  0
    6.4158   37.1490   70.2309 H   0  0  0  0  0  0  0  0  0  0  0  0
    7.8265   36.8652   69.2633 H   0  0  0  0  0  0  0  0  0  0  0  0
    9.2194   38.1952   71.0246 H   0  0  0  0  0  0  0  0  0  0  0  0
    7.7110   38.2600   73.1408 H   0  0  0  0  0  0  0  0  0  0  0  0
    8.0756   35.0262   70.4793 H   0  0  0  0  0  0  0  0  0  0  0  0
    9.0906   33.0300   71.5987 H   0  0  0  0  0  0  0  0  0  0  0  0
   10.4154   33.3187   73.7062 H   0  0  0  0  0  0  0  0  0  0  0  0
   10.7084   35.5966   74.7154 H   0  0  0  0  0  0  0  0  0  0  0  0
    9.7231   37.5976   73.5829 H   0  0  0  0  0  0  0  0  0  0  0  0
  2  1  2  0
  3  2  1  0
  2 10  1  0
  3  4  1  0
  5  4  1  0
  6  5  1  0
  5  7  1  0
  8  7  2  0
  7  9  1  0
 10 11  1  0
 11 16  2  0
 11 12  1  0
 12 13  2  0
 14 13  1  0
 15 14  2  0
 14 17  1  0
 16 15  1  0
 17 18  1  0
 18 19  1  0
 19 21  1  0
 19 20  1  0
 22 21  2  0
 21 26  1  0
 22 23  1  0
 23 24  2  0
 24 25  1  0
 26 25  2  0
  3 27  1  0
  3 28  1  0
  4 29  1  0
  4 30  1  0
  5 31  1  0
  6 32  1  0
  6 33  1  0
  9 34  1  0
 10 35  1  0
 12 36  1  0
 13 37  1  0
 15 38  1  0
 16 39  1  0
 18 40  1  0
 18 41  1  0
 19 42  1  0
 20 43  1  0
 22 44  1  0
 23 45  1  0
 24 46  1  0
 25 47  1  0
 26 48  1  0
A    1
O9
A    2
C8
A    3
C7
A    4
C6
A    5
C4
A    6
N5
A    7
C2
A    8
O3
A    9
O1
A   10
N10
A   11
C12
A   12
C13
A   13
C14
A   14
C15
A   15
C16
A   16
C17
A   17
O18
A   18
C19
A   19
C20
A   20
O21
A   21
C23
A   22
C24
A   23
C25
A   24
C26
A   25
C27
A   26
C28
M  END
