3CJ4_SX5_A_571
     RDKit          3D

 48 49  0  0  0  0  0  0  0  0999 V2000
  -26.6480    3.2990  -15.9790 O   0  0  0  0  0  0  0  0  0  0  0  0
  -27.4220    3.4190  -15.0400 C   0  0  0  0  0  0  0  0  0  0  0  0
  -27.6680    2.3810  -14.2250 O   0  0  0  0  0  0  0  0  0  0  0  0
  -28.1980    4.6340  -14.6220 C   0  0  0  0  0  0  0  0  0  0  0  0
  -27.5030    5.9140  -15.0710 C   0  0  0  0  0  0  0  0  0  0  0  0
  -26.1950    6.1790  -14.3410 C   0  0  0  0  0  0  0  0  0  0  0  0
  -25.8110    5.5300  -13.3640 O   0  0  0  0  0  0  0  0  0  0  0  0
  -25.5070    7.2270  -14.9180 N   0  0  0  0  0  0  0  0  0  0  0  0
  -24.2660    7.7140  -14.4510 C   0  0  0  0  0  0  0  0  0  0  0  0
  -23.1920    6.8500  -14.1950 C   0  0  0  0  0  0  0  0  0  0  0  0
  -21.9800    7.3470  -13.7140 C   0  0  0  0  0  0  0  0  0  0  0  0
  -21.8480    8.7180  -13.4860 C   0  0  0  0  0  0  0  0  0  0  0  0
  -20.2040    9.3590  -12.8330 Br  0  0  0  0  0  0  0  0  0  0  0  0
  -22.8970    9.6040  -13.7270 C   0  0  0  0  0  0  0  0  0  0  0  0
  -24.1150    9.1010  -14.1990 C   0  0  0  0  0  0  0  0  0  0  0  0
  -25.2110   10.0620  -14.4770 C   0  0  0  0  0  0  0  0  0  0  0  0
  -25.0050   10.8270  -15.4200 O   0  0  0  0  0  0  0  0  0  0  0  0
  -26.4010   10.0850  -13.7410 N   0  0  0  0  0  0  0  0  0  0  0  0
  -26.5420    9.4540  -12.4120 C   0  0  0  0  0  0  0  0  0  0  0  0
  -26.9360   10.3950  -11.2750 C   0  0  0  0  0  0  0  0  0  0  0  0
  -27.2850    9.5940  -10.0200 C   0  0  0  0  0  0  0  0  0  0  0  0
  -28.1020   11.3000  -11.6710 C   0  0  0  0  0  0  0  0  0  0  0  0
  -27.3910   11.1340  -14.0540 C   0  0  0  0  0  0  0  0  0  0  0  0
  -27.7100   12.0950  -12.9060 C   0  0  0  0  0  0  0  0  0  0  0  0
  -28.8000   13.0900  -13.2970 C   0  0  0  0  0  0  0  0  0  0  0  0
  -27.6387    2.5047  -13.2432 H   0  0  0  0  0  0  0  0  0  0  0  0
  -29.2001    4.5925  -15.0737 H   0  0  0  0  0  0  0  0  0  0  0  0
  -28.2671    4.6422  -13.5242 H   0  0  0  0  0  0  0  0  0  0  0  0
  -27.2920    5.8369  -16.1478 H   0  0  0  0  0  0  0  0  0  0  0  0
  -28.1796    6.7496  -14.8388 H   0  0  0  0  0  0  0  0  0  0  0  0
  -25.9250    7.6831  -15.7415 H   0  0  0  0  0  0  0  0  0  0  0  0
  -23.3057    5.7708  -14.3749 H   0  0  0  0  0  0  0  0  0  0  0  0
  -21.1385    6.6665  -13.5168 H   0  0  0  0  0  0  0  0  0  0  0  0
  -22.7695   10.6820  -13.5489 H   0  0  0  0  0  0  0  0  0  0  0  0
  -27.3129    8.6730  -12.4879 H   0  0  0  0  0  0  0  0  0  0  0  0
  -25.5445    9.0693  -12.1533 H   0  0  0  0  0  0  0  0  0  0  0  0
  -26.0717   11.0404  -11.0596 H   0  0  0  0  0  0  0  0  0  0  0  0
  -27.0287   10.1822   -9.1265 H   0  0  0  0  0  0  0  0  0  0  0  0
  -28.3621    9.3705  -10.0154 H   0  0  0  0  0  0  0  0  0  0  0  0
  -26.7153    8.6530  -10.0154 H   0  0  0  0  0  0  0  0  0  0  0  0
  -28.9874   10.6860  -11.8926 H   0  0  0  0  0  0  0  0  0  0  0  0
  -28.3384   11.9867  -10.8449 H   0  0  0  0  0  0  0  0  0  0  0  0
  -27.0037   11.7267  -14.8958 H   0  0  0  0  0  0  0  0  0  0  0  0
  -28.3302   10.6083  -14.2809 H   0  0  0  0  0  0  0  0  0  0  0  0
  -26.8094   12.6838  -12.6775 H   0  0  0  0  0  0  0  0  0  0  0  0
  -29.2579   13.5080  -12.3884 H   0  0  0  0  0  0  0  0  0  0  0  0
  -28.3582   13.9028  -13.8922 H   0  0  0  0  0  0  0  0  0  0  0  0
  -29.5692   12.5761  -13.8922 H   0  0  0  0  0  0  0  0  0  0  0  0
  1  2  2  0
  2  3  1  0
  2  4  1  0
  5  4  1  0
  6  5  1  0
  7  6  2  0
  8  6  1  0
  9  8  1  0
 10  9  2  0
 15  9  1  0
 11 10  1  0
 12 11  2  0
 13 12  1  0
 12 14  1  0
 14 15  2  0
 15 16  1  0
 16 18  1  0
 16 17  2  0
 19 18  1  0
 18 23  1  0
 20 19  1  0
 21 20  1  0
 20 22  1  0
 22 24  1  0
 24 23  1  0
 24 25  1  0
  3 26  1  0
  4 27  1  0
  4 28  1  0
  5 29  1  0
  5 30  1  0
  8 31  1  0
 10 32  1  0
 11 33  1  0
 14 34  1  0
 19 35  1  0
 19 36  1  0
 20 37  1  0
 21 38  1  0
 21 39  1  0
 21 40  1  0
 22 41  1  0
 22 42  1  0
 23 43  1  0
 23 44  1  0
 24 45  1  0
 25 46  1  0
 25 47  1  0
 25 48  1  0
A    1
O3
A    2
C18
A    3
O4
A    4
C17
A    5
C16
A    6
C15
A    7
O2
A    8
N2
A    9
C14
A   10
C13
A   11
C12
A   12
C11
A   13
BR1
A   14
C10
A   15
C9
A   16
C8
A   17
O1
A   18
N1
A   19
C6
A   20
C4
A   21
C5
A   22
C3
A   23
C7
A   24
C2
A   25
C1
M  END
