3CJO_K30_A_1
     RDKit          3D

 61 64  0  0  0  0  0  0  0  0999 V2000
   12.6510   21.8440  109.7570 C   0  0  0  0  0  0  0  0  0  0  0  0
   17.9100   18.4110  110.2190 C   0  0  0  0  0  0  0  0  0  0  0  0
   18.1600   13.0720  113.8660 C   0  0  0  0  0  0  0  0  0  0  0  0
   18.7830   14.1930  113.3090 C   0  0  0  0  0  0  0  0  0  0  0  0
   17.3260   12.3420  113.0510 C   0  0  0  0  0  0  0  0  0  0  0  0
   18.5390   14.4640  111.9160 C   0  0  0  0  0  0  0  0  0  0  0  0
   17.0570   12.6660  111.6550 C   0  0  0  0  0  0  0  0  0  0  0  0
   22.5730   15.3840  105.3700 C   0  0  0  0  0  0  0  0  0  0  0  0
   22.5850   14.2540  106.1840 C   0  0  0  0  0  0  0  0  0  0  0  0
   20.5240   16.1590  106.4350 C   0  0  0  0  0  0  0  0  0  0  0  0
   15.2570   19.3220  111.2690 C   0  0  0  0  0  0  0  0  0  0  0  0
   13.9770   20.1730  111.1400 C   0  0  0  0  0  0  0  0  0  0  0  0
   18.9250   13.8490  108.9320 C   0  0  0  0  0  0  0  0  0  0  0  0
   13.9780   20.0640  108.6330 C   0  0  0  0  0  0  0  0  0  0  0  0
   18.4480   15.9770  108.1590 C   0  0  0  0  0  0  0  0  0  0  0  0
   16.1590   13.8360  108.8560 C   0  0  0  0  0  0  0  0  0  0  0  0
   17.6920   13.7260  111.0500 C   0  0  0  0  0  0  0  0  0  0  0  0
   21.5310   16.3250  105.5060 C   0  0  0  0  0  0  0  0  0  0  0  0
   21.5310   14.0200  107.0960 C   0  0  0  0  0  0  0  0  0  0  0  0
   20.4900   14.9560  107.2490 C   0  0  0  0  0  0  0  0  0  0  0  0
   15.4460   18.5370  109.9370 C   0  0  0  0  0  0  0  0  0  0  0  0
   19.3600   14.8260  108.1140 C   0  0  0  0  0  0  0  0  0  0  0  0
   15.3770   19.4550  108.7070 C   0  0  0  0  0  0  0  0  0  0  0  0
   16.6340   16.4090  110.0230 C   0  0  0  0  0  0  0  0  0  0  0  0
   17.5120   14.1540  109.4980 C   0  0  0  0  0  0  0  0  0  0  0  0
   13.9120   20.9790  109.8360 N   0  0  0  0  0  0  0  0  0  0  0  0
   17.5520   15.6400  109.2820 N   0  0  0  0  0  0  0  0  0  0  0  0
   16.6500   17.7640  109.9710 N   0  0  0  0  0  0  0  0  0  0  0  0
   15.9930   12.4730  108.6590 O   0  0  0  0  0  0  0  0  0  0  0  0
   15.6870   15.8390  110.6690 O   0  0  0  0  0  0  0  0  0  0  0  0
   21.5750   17.4130  104.7590 F   0  0  0  0  0  0  0  0  0  0  0  0
   21.6310   12.8900  107.7890 F   0  0  0  0  0  0  0  0  0  0  0  0
   16.2400   20.4850  108.9080 F   0  0  0  0  0  0  0  0  0  0  0  0
   12.3049   22.0814  110.7738 H   0  0  0  0  0  0  0  0  0  0  0  0
   12.8791   22.7766  109.2202 H   0  0  0  0  0  0  0  0  0  0  0  0
   11.8630   21.2954  109.2202 H   0  0  0  0  0  0  0  0  0  0  0  0
   18.0722   18.4943  111.3038 H   0  0  0  0  0  0  0  0  0  0  0  0
   18.7211   17.8179  109.7715 H   0  0  0  0  0  0  0  0  0  0  0  0
   17.9006   19.4158  109.7715 H   0  0  0  0  0  0  0  0  0  0  0  0
   18.3300   12.7852  114.9143 H   0  0  0  0  0  0  0  0  0  0  0  0
   19.4344   14.8429  113.9117 H   0  0  0  0  0  0  0  0  0  0  0  0
   16.8309   11.4581  113.4795 H   0  0  0  0  0  0  0  0  0  0  0  0
   19.0610   15.3287  111.4804 H   0  0  0  0  0  0  0  0  0  0  0  0
   16.3413   12.0586  111.0815 H   0  0  0  0  0  0  0  0  0  0  0  0
   23.3692   15.5413  104.6275 H   0  0  0  0  0  0  0  0  0  0  0  0
   23.4191   13.5400  106.1167 H   0  0  0  0  0  0  0  0  0  0  0  0
   19.7519   16.9327  106.5584 H   0  0  0  0  0  0  0  0  0  0  0  0
   16.1243   19.9756  111.4440 H   0  0  0  0  0  0  0  0  0  0  0  0
   15.1702   18.6251  112.1156 H   0  0  0  0  0  0  0  0  0  0  0  0
   13.1063   19.5019  111.1793 H   0  0  0  0  0  0  0  0  0  0  0  0
   13.9816   20.8956  111.9694 H   0  0  0  0  0  0  0  0  0  0  0  0
   19.5017   12.9432  109.1706 H   0  0  0  0  0  0  0  0  0  0  0  0
   13.8486   20.6338  107.7010 H   0  0  0  0  0  0  0  0  0  0  0  0
   13.1844   19.3023  108.6368 H   0  0  0  0  0  0  0  0  0  0  0  0
   17.8856   16.0740  107.2186 H   0  0  0  0  0  0  0  0  0  0  0  0
   18.9662   16.9386  108.2886 H   0  0  0  0  0  0  0  0  0  0  0  0
   15.3572   14.2014  109.5144 H   0  0  0  0  0  0  0  0  0  0  0  0
   16.1196   14.3319  107.8749 H   0  0  0  0  0  0  0  0  0  0  0  0
   14.6036   17.8364  109.8393 H   0  0  0  0  0  0  0  0  0  0  0  0
   15.6159   18.8883  107.7949 H   0  0  0  0  0  0  0  0  0  0  0  0
   15.9375   12.0172  109.5361 H   0  0  0  0  0  0  0  0  0  0  0  0
  1 26  1  0
  4  3  2  0
  5  3  1  0
  6  4  1  0
  7  5  2  0
  8 18  2  0
  8  9  1  0
  9 19  2  0
 10 20  2  0
 12 11  1  0
 13 25  1  0
 14 23  1  0
 14 26  1  0
 15 27  1  0
 16 25  1  0
 17  6  2  0
 17  7  1  0
 18 10  1  0
 19 20  1  0
 19 32  1  0
 20 22  1  0
 21 11  1  0
 21 28  1  0
 22 13  2  0
 22 15  1  0
 23 21  1  0
 23 33  1  0
 24 30  2  0
 25 17  1  0
 26 12  1  0
 27 24  1  0
 27 25  1  0
 28  2  1  0
 28 24  1  0
 29 16  1  0
 31 18  1  0
  1 34  1  0
  1 35  1  0
  1 36  1  0
  2 37  1  0
  2 38  1  0
  2 39  1  0
  3 40  1  0
  4 41  1  0
  5 42  1  0
  6 43  1  0
  7 44  1  0
  8 45  1  0
  9 46  1  0
 10 47  1  0
 11 48  1  0
 11 49  1  0
 12 50  1  0
 12 51  1  0
 13 52  1  0
 14 53  1  0
 14 54  1  0
 15 55  1  0
 15 56  1  0
 16 57  1  0
 16 58  1  0
 21 59  1  0
 23 60  1  0
 29 61  1  0
A    1
C28
A    2
C22
A    3
C18
A    4
C17
A    5
C19
A    6
C16
A    7
C20
A    8
C7
A    9
C6
A   10
C9
A   11
C27
A   12
C26
A   13
C2
A   14
C24
A   15
C
A   16
C14
A   17
C15
A   18
C8
A   19
C5
A   20
C4
A   21
C12
A   22
C3
A   23
C23
A   24
C10
A   25
C1
A   26
N25
A   27
N
A   28
N11
A   29
O21
A   30
O
A   31
F13
A   32
F
A   33
F29
M  END
