3CJQ_2MM_B_1
     RDKit          3D

 25 24  0  0  0  0  0  0  0  0999 V2000
   24.1360   34.4830  -47.6530 C   0  0  0  0  0  0  0  0  0  0  0  0
   24.5780   33.2380  -48.8340 S   0  0  0  0  0  0  0  0  0  0  0  0
   22.9800   32.6220  -49.3620 C   0  0  0  0  0  0  0  0  0  0  0  0
   23.0990   31.1250  -49.7060 C   0  0  0  0  0  0  0  0  0  0  0  0
   21.8330   30.3820  -50.0930 C   0  0  0  0  0  0  0  0  0  0  0  0
   21.0870   31.3060  -50.9980 C   0  0  0  0  0  0  0  0  0  0  0  0
   21.4680   31.4740  -52.1640 O   0  0  0  0  0  0  0  0  0  0  0  0
   22.1090   29.0110  -50.6860 N   0  0  0  0  0  0  0  0  0  0  0  0
   22.6320   28.9640  -52.0610 C   0  0  0  0  0  0  0  0  0  0  0  0
   20.8900   28.1850  -50.7210 C   0  0  0  0  0  0  0  0  0  0  0  0
   24.2758   34.0893  -46.6354 H   0  0  0  0  0  0  0  0  0  0  0  0
   24.7753   35.3668  -47.7952 H   0  0  0  0  0  0  0  0  0  0  0  0
   23.0825   34.7658  -47.7952 H   0  0  0  0  0  0  0  0  0  0  0  0
   22.2487   32.7556  -48.5513 H   0  0  0  0  0  0  0  0  0  0  0  0
   22.6460   33.1785  -50.2501 H   0  0  0  0  0  0  0  0  0  0  0  0
   23.8007   31.0373  -50.5485 H   0  0  0  0  0  0  0  0  0  0  0  0
   23.4207   30.6510  -48.7669 H   0  0  0  0  0  0  0  0  0  0  0  0
   21.2204   30.1378  -49.2126 H   0  0  0  0  0  0  0  0  0  0  0  0
   20.1980   31.8380  -50.6284 H   0  0  0  0  0  0  0  0  0  0  0  0
   23.7272   28.8656  -52.0335 H   0  0  0  0  0  0  0  0  0  0  0  0
   22.1994   28.1011  -52.5885 H   0  0  0  0  0  0  0  0  0  0  0  0
   22.3602   29.8902  -52.5885 H   0  0  0  0  0  0  0  0  0  0  0  0
   20.5661   27.9656  -49.6929 H   0  0  0  0  0  0  0  0  0  0  0  0
   20.0929   28.7298  -51.2481 H   0  0  0  0  0  0  0  0  0  0  0  0
   21.1006   27.2428  -51.2481 H   0  0  0  0  0  0  0  0  0  0  0  0
  2  1  1  0
  3  2  1  0
  4  3  1  0
  5  4  1  0
  6  5  1  0
  8  5  1  0
  7  6  2  0
  9  8  1  0
 10  8  1  0
  1 11  1  0
  1 12  1  0
  1 13  1  0
  3 14  1  0
  3 15  1  0
  4 16  1  0
  4 17  1  0
  5 18  1  0
  6 19  1  0
  9 20  1  0
  9 21  1  0
  9 22  1  0
 10 23  1  0
 10 24  1  0
 10 25  1  0
A    1
CE
A    2
SD
A    3
CG
A    4
CB
A    5
CA
A    6
C
A    7
O
A    8
N
A    9
CN2
A   10
CN1
M  END
