3CLX_X22_D_600
     RDKit          3D

 72 75  0  0  0  0  0  0  0  0999 V2000
   -1.8640   40.5240  -10.9030 C   0  0  0  0  0  0  0  0  0  0  0  0
   -3.1070   41.0580  -11.6220 C   0  0  0  0  0  0  0  0  0  0  0  0
   -3.4870   42.4510  -11.1500 C   0  0  0  0  0  0  0  0  0  0  0  0
   -4.5680   42.9570  -12.0080 N   0  0  0  0  0  0  0  0  0  0  0  0
   -2.2790   43.3930  -11.2330 C   0  0  0  0  0  0  0  0  0  0  0  0
   -1.7750   43.7130  -12.3160 O   0  0  0  0  0  0  0  0  0  0  0  0
   -1.8370   43.8370  -10.0640 N   0  0  0  0  0  0  0  0  0  0  0  0
   -0.6780   44.7290  -10.0530 C   0  0  0  0  0  0  0  0  0  0  0  0
    0.4810   44.0750   -9.2580 C   0  0  0  0  0  0  0  0  0  0  0  0
    0.2870   43.0190   -8.6550 O   0  0  0  0  0  0  0  0  0  0  0  0
    1.7180   44.5650   -9.2550 N   0  0  0  0  0  0  0  0  0  0  0  0
   -1.0810   46.2050   -9.7960 C   0  0  0  0  0  0  0  0  0  0  0  0
   -2.0160   46.3700   -8.6010 C   0  0  0  0  0  0  0  0  0  0  0  0
   -3.3660   46.2130   -9.0760 O   0  0  0  0  0  0  0  0  0  0  0  0
    0.0730   47.2620   -9.8460 C   0  0  0  0  0  0  0  0  0  0  0  0
    1.4560   46.9220   -9.2310 C   0  0  0  0  0  0  0  0  0  0  0  0
    2.1580   45.7740   -9.9540 C   0  0  0  0  0  0  0  0  0  0  0  0
    3.6790   45.8210   -9.7480 C   0  0  0  0  0  0  0  0  0  0  0  0
    4.0320   44.3620   -9.4610 C   0  0  0  0  0  0  0  0  0  0  0  0
    2.8580   43.8960   -8.5850 C   0  0  0  0  0  0  0  0  0  0  0  0
    3.1800   44.1970   -7.0970 C   0  0  0  0  0  0  0  0  0  0  0  0
    2.7120   45.1430   -6.4690 O   0  0  0  0  0  0  0  0  0  0  0  0
    4.0370   43.2770   -6.6450 N   0  0  0  0  0  0  0  0  0  0  0  0
    4.7340   43.0800   -5.3460 C   0  0  0  0  0  0  0  0  0  0  0  0
    5.3830   44.3370   -4.7920 C   0  0  0  0  0  0  0  0  0  0  0  0
    6.7660   44.4300   -4.9570 C   0  0  0  0  0  0  0  0  0  0  0  0
    7.4430   45.5410   -4.4780 C   0  0  0  0  0  0  0  0  0  0  0  0
    6.7190   46.5430   -3.8340 C   0  0  0  0  0  0  0  0  0  0  0  0
    5.3340   46.4430   -3.6700 C   0  0  0  0  0  0  0  0  0  0  0  0
    4.6520   45.3290   -4.1510 C   0  0  0  0  0  0  0  0  0  0  0  0
    4.0130   42.2160   -4.3040 C   0  0  0  0  0  0  0  0  0  0  0  0
    4.8110   41.5110   -3.3970 C   0  0  0  0  0  0  0  0  0  0  0  0
    4.2160   40.6870   -2.4470 C   0  0  0  0  0  0  0  0  0  0  0  0
    2.8220   40.5700   -2.4100 C   0  0  0  0  0  0  0  0  0  0  0  0
    2.0290   41.2690   -3.3180 C   0  0  0  0  0  0  0  0  0  0  0  0
    2.6260   42.0900   -4.2740 C   0  0  0  0  0  0  0  0  0  0  0  0
   -2.0137   40.5883   -9.8151 H   0  0  0  0  0  0  0  0  0  0  0  0
   -1.6974   39.4749  -11.1888 H   0  0  0  0  0  0  0  0  0  0  0  0
   -0.9884   41.1254  -11.1888 H   0  0  0  0  0  0  0  0  0  0  0  0
   -2.9039   41.0929  -12.7025 H   0  0  0  0  0  0  0  0  0  0  0  0
   -3.9454   40.3833  -11.3946 H   0  0  0  0  0  0  0  0  0  0  0  0
   -3.8206   42.4054  -10.1028 H   0  0  0  0  0  0  0  0  0  0  0  0
   -5.3338   43.3155  -11.4199 H   0  0  0  0  0  0  0  0  0  0  0  0
   -4.2073   43.7167  -12.6027 H   0  0  0  0  0  0  0  0  0  0  0  0
   -2.2985   43.5605   -9.1857 H   0  0  0  0  0  0  0  0  0  0  0  0
   -0.2261   44.8483  -11.0487 H   0  0  0  0  0  0  0  0  0  0  0  0
   -1.6679   46.4619  -10.6902 H   0  0  0  0  0  0  0  0  0  0  0  0
   -1.7941   45.6041   -7.8432 H   0  0  0  0  0  0  0  0  0  0  0  0
   -1.8823   47.3603   -8.1413 H   0  0  0  0  0  0  0  0  0  0  0  0
   -3.9813   46.1414   -8.3038 H   0  0  0  0  0  0  0  0  0  0  0  0
    0.2449   47.4962  -10.9070 H   0  0  0  0  0  0  0  0  0  0  0  0
   -0.2981   48.0758   -9.2057 H   0  0  0  0  0  0  0  0  0  0  0  0
    2.0949   47.8157   -9.2867 H   0  0  0  0  0  0  0  0  0  0  0  0
    1.2878   46.6055   -8.1910 H   0  0  0  0  0  0  0  0  0  0  0  0
    1.9296   45.8172  -11.0292 H   0  0  0  0  0  0  0  0  0  0  0  0
    4.1897   46.1806  -10.6534 H   0  0  0  0  0  0  0  0  0  0  0  0
    3.9869   46.5075   -8.9456 H   0  0  0  0  0  0  0  0  0  0  0  0
    4.0893   43.7775  -10.3911 H   0  0  0  0  0  0  0  0  0  0  0  0
    5.0128   44.2370   -8.9788 H   0  0  0  0  0  0  0  0  0  0  0  0
    2.6294   42.8224   -8.5135 H   0  0  0  0  0  0  0  0  0  0  0  0
    4.2620   42.5527   -7.3419 H   0  0  0  0  0  0  0  0  0  0  0  0
    5.5747   42.4284   -5.6265 H   0  0  0  0  0  0  0  0  0  0  0  0
    7.3167   43.6247   -5.4652 H   0  0  0  0  0  0  0  0  0  0  0  0
    8.5321   45.6302   -4.6039 H   0  0  0  0  0  0  0  0  0  0  0  0
    7.2464   47.4278   -3.4481 H   0  0  0  0  0  0  0  0  0  0  0  0
    4.7823   47.2463   -3.1598 H   0  0  0  0  0  0  0  0  0  0  0  0
    3.5629   45.2367   -4.0268 H   0  0  0  0  0  0  0  0  0  0  0  0
    5.9061   41.6078   -3.4348 H   0  0  0  0  0  0  0  0  0  0  0  0
    4.8374   40.1310   -1.7295 H   0  0  0  0  0  0  0  0  0  0  0  0
    2.3485   39.9212   -1.6584 H   0  0  0  0  0  0  0  0  0  0  0  0
    0.9338   41.1733   -3.2806 H   0  0  0  0  0  0  0  0  0  0  0  0
    2.0052   42.6351   -5.0003 H   0  0  0  0  0  0  0  0  0  0  0  0
  1  2  1  0
  2  3  1  0
  3  4  1  0
  3  5  1  0
  5  6  2  0
  5  7  1  0
  7  8  1  0
  8  9  1  0
  8 12  1  0
  9 10  2  0
  9 11  1  0
 11 17  1  0
 11 20  1  0
 12 13  1  0
 12 15  1  0
 13 14  1  0
 15 16  1  0
 16 17  1  0
 17 18  1  0
 18 19  1  0
 19 20  1  0
 20 21  1  0
 21 22  2  0
 21 23  1  0
 23 24  1  0
 24 25  1  0
 24 31  1  0
 25 26  2  0
 25 30  1  0
 26 27  1  0
 27 28  2  0
 28 29  1  0
 29 30  2  0
 31 32  2  0
 31 36  1  0
 32 33  1  0
 33 34  2  0
 34 35  1  0
 35 36  2  0
  1 37  1  0
  1 38  1  0
  1 39  1  0
  2 40  1  0
  2 41  1  0
  3 42  1  0
  4 43  1  0
  4 44  1  0
  7 45  1  0
  8 46  1  0
 12 47  1  0
 13 48  1  0
 13 49  1  0
 14 50  1  0
 15 51  1  0
 15 52  1  0
 16 53  1  0
 16 54  1  0
 17 55  1  0
 18 56  1  0
 18 57  1  0
 19 58  1  0
 19 59  1  0
 20 60  1  0
 23 61  1  0
 24 62  1  0
 26 63  1  0
 27 64  1  0
 28 65  1  0
 29 66  1  0
 30 67  1  0
 32 68  1  0
 33 69  1  0
 34 70  1  0
 35 71  1  0
 36 72  1  0
A    1
CAA
A    2
CB
A    3
CA
A    4
N
A    5
C
A    6
O
A    7
NAX
A    8
CBI
A    9
CBA
A   10
OAE
A   11
NBJ
A   12
CBE
A   13
CAR
A   14
OAF
A   15
CAS
A   16
CAT
A   17
CBF
A   18
CAU
A   19
CAV
A   20
CBG
A   21
CAZ
A   22
OAD
A   23
NAW
A   24
CBH
A   25
CBC
A   26
CAO
A   27
CAK
A   28
CAH
A   29
CAL
A   30
CAP
A   31
CBB
A   32
CAM
A   33
CAI
A   34
CAG
A   35
CAJ
A   36
CAN
M  END
