1BO4_SPD_A_200
     RDKit          3D

 29 28  0  0  0  0  0  0  0  0999 V2000
    5.0090   72.0050   29.4650 N   0  0  0  0  0  0  0  0  0  0  0  0
    5.5720   70.8800   30.2950 C   0  0  0  0  0  0  0  0  0  0  0  0
    5.7320   71.4080   31.7500 C   0  0  0  0  0  0  0  0  0  0  0  0
    6.0290   70.1820   32.5820 C   0  0  0  0  0  0  0  0  0  0  0  0
    7.3710   70.1920   33.2090 C   0  0  0  0  0  0  0  0  0  0  0  0
    8.2670   69.4200   32.3930 N   0  0  0  0  0  0  0  0  0  0  0  0
    9.6220   69.1980   32.6620 C   0  0  0  0  0  0  0  0  0  0  0  0
    9.8600   67.7900   33.1200 C   0  0  0  0  0  0  0  0  0  0  0  0
   11.2700   67.5420   33.4190 C   0  0  0  0  0  0  0  0  0  0  0  0
   12.1790   67.8840   32.2530 N   0  0  0  0  0  0  0  0  0  0  0  0
    4.6414   72.7395   30.0865 H   0  0  0  0  0  0  0  0  0  0  0  0
    5.7525   72.3985   28.8706 H   0  0  0  0  0  0  0  0  0  0  0  0
    4.8842   70.0216   30.2803 H   0  0  0  0  0  0  0  0  0  0  0  0
    6.5414   70.5495   29.8936 H   0  0  0  0  0  0  0  0  0  0  0  0
    6.5624   72.1268   31.8111 H   0  0  0  0  0  0  0  0  0  0  0  0
    4.8319   71.9353   32.0989 H   0  0  0  0  0  0  0  0  0  0  0  0
    5.2747   70.1139   33.3797 H   0  0  0  0  0  0  0  0  0  0  0  0
    6.0020   69.3194   31.8999 H   0  0  0  0  0  0  0  0  0  0  0  0
    7.7369   71.2267   33.2836 H   0  0  0  0  0  0  0  0  0  0  0  0
    7.3161   69.7584   34.2185 H   0  0  0  0  0  0  0  0  0  0  0  0
    7.8436   68.4829   32.3348 H   0  0  0  0  0  0  0  0  0  0  0  0
   10.2042   69.3809   31.7468 H   0  0  0  0  0  0  0  0  0  0  0  0
    9.9348   69.8829   33.4639 H   0  0  0  0  0  0  0  0  0  0  0  0
    9.2669   67.6069   34.0281 H   0  0  0  0  0  0  0  0  0  0  0  0
    9.5611   67.1129   32.3062 H   0  0  0  0  0  0  0  0  0  0  0  0
   11.5604   68.1554   34.2847 H   0  0  0  0  0  0  0  0  0  0  0  0
   11.3839   66.4682   33.6285 H   0  0  0  0  0  0  0  0  0  0  0  0
   13.0830   68.2241   32.6107 H   0  0  0  0  0  0  0  0  0  0  0  0
   12.3316   67.0429   31.6784 H   0  0  0  0  0  0  0  0  0  0  0  0
  1  2  1  0
  2  3  1  0
  3  4  1  0
  4  5  1  0
  5  6  1  0
  6  7  1  0
  7  8  1  0
  8  9  1  0
  9 10  1  0
  1 11  1  0
  1 12  1  0
  2 13  1  0
  2 14  1  0
  3 15  1  0
  3 16  1  0
  4 17  1  0
  4 18  1  0
  5 19  1  0
  5 20  1  0
  6 21  1  0
  7 22  1  0
  7 23  1  0
  8 24  1  0
  8 25  1  0
  9 26  1  0
  9 27  1  0
 10 28  1  0
 10 29  1  0
A    1
N1
A    2
C2
A    3
C3
A    4
C4
A    5
C5
A    6
N6
A    7
C7
A    8
C8
A    9
C9
A   10
N10
M  END
