3COY_53H_A_301
     RDKit          3D

 56 58  0  0  0  0  0  0  0  0999 V2000
   15.9780    9.7850    5.1690 C   0  0  0  0  0  0  0  0  0  0  0  0
   12.9040    9.1740   -4.7500 C   0  0  0  0  0  0  0  0  0  0  0  0
   15.9780    9.3600    6.6230 C   0  0  0  0  0  0  0  0  0  0  0  0
   14.0430    9.9190   -2.8510 C   0  0  0  0  0  0  0  0  0  0  0  0
   15.0840   10.4280   -3.6300 C   0  0  0  0  0  0  0  0  0  0  0  0
   14.9950   10.2820   -5.0020 C   0  0  0  0  0  0  0  0  0  0  0  0
   14.6110    9.3010    7.3270 C   0  0  0  0  0  0  0  0  0  0  0  0
   13.8950    9.6540   -5.5200 N   0  0  0  0  0  0  0  0  0  0  0  0
   16.0410   11.1200    4.9100 N   0  0  0  0  0  0  0  0  0  0  0  0
   15.9810    8.9220    4.2910 O   0  0  0  0  0  0  0  0  0  0  0  0
   15.5520   10.8080   -1.5320 C   0  0  0  0  0  0  0  0  0  0  0  0
   14.3440    7.4730    0.0010 O   0  0  0  0  0  0  0  0  0  0  0  0
   12.9630    9.2950   -3.4200 N   0  0  0  0  0  0  0  0  0  0  0  0
   13.6750    8.3350    6.6490 C   0  0  0  0  0  0  0  0  0  0  0  0
   14.8150    8.7990    8.7460 C   0  0  0  0  0  0  0  0  0  0  0  0
   13.9180   10.6620    7.4310 C   0  0  0  0  0  0  0  0  0  0  0  0
   16.7390    8.0470    6.8430 N   0  0  0  0  0  0  0  0  0  0  0  0
   16.1190   11.7770    3.5160 S   0  0  0  0  0  0  0  0  0  0  0  0
   17.3970   11.5100    2.9350 O   0  0  0  0  0  0  0  0  0  0  0  0
   15.8100   13.1830    3.5890 O   0  0  0  0  0  0  0  0  0  0  0  0
   15.0660   11.1550    2.4350 O   0  0  0  0  0  0  0  0  0  0  0  0
   13.6620   11.3080    2.6870 C   0  0  0  0  0  0  0  0  0  0  0  0
   12.9450   10.3860    1.7260 C   0  0  0  0  0  0  0  0  0  0  0  0
   13.5110    8.9740    1.7970 C   0  0  0  0  0  0  0  0  0  0  0  0
   12.4460    8.0410    1.8130 O   0  0  0  0  0  0  0  0  0  0  0  0
   14.2850    8.8210    0.4980 C   0  0  0  0  0  0  0  0  0  0  0  0
   13.5160    9.7630   -0.4270 C   0  0  0  0  0  0  0  0  0  0  0  0
   13.1860   10.8710    0.3920 O   0  0  0  0  0  0  0  0  0  0  0  0
   14.3640   10.1590   -1.5780 N   0  0  0  0  0  0  0  0  0  0  0  0
   16.0070   10.9830   -2.8040 N   0  0  0  0  0  0  0  0  0  0  0  0
   15.9960   10.7380   -5.8040 N   0  0  0  0  0  0  0  0  0  0  0  0
   12.0396    8.6789   -5.2165 H   0  0  0  0  0  0  0  0  0  0  0  0
   16.5091   10.1917    7.1091 H   0  0  0  0  0  0  0  0  0  0  0  0
   16.0361   11.7525    5.7229 H   0  0  0  0  0  0  0  0  0  0  0  0
   16.0653   11.1395   -0.6173 H   0  0  0  0  0  0  0  0  0  0  0  0
   14.3716    6.8413    0.7628 H   0  0  0  0  0  0  0  0  0  0  0  0
   13.1223    7.7646    7.4101 H   0  0  0  0  0  0  0  0  0  0  0  0
   12.9646    8.8925    6.0209 H   0  0  0  0  0  0  0  0  0  0  0  0
   14.2546    7.6425    6.0209 H   0  0  0  0  0  0  0  0  0  0  0  0
   14.4995    9.5754    9.4585 H   0  0  0  0  0  0  0  0  0  0  0  0
   14.2146    7.8909    8.9036 H   0  0  0  0  0  0  0  0  0  0  0  0
   15.8787    8.5672    8.9036 H   0  0  0  0  0  0  0  0  0  0  0  0
   13.7840   10.9252    8.4906 H   0  0  0  0  0  0  0  0  0  0  0  0
   14.5364   11.4269    6.9386 H   0  0  0  0  0  0  0  0  0  0  0  0
   12.9357   10.6119    6.9386 H   0  0  0  0  0  0  0  0  0  0  0  0
   16.8395    7.8736    7.8533 H   0  0  0  0  0  0  0  0  0  0  0  0
   16.2167    7.2710    6.4117 H   0  0  0  0  0  0  0  0  0  0  0  0
   13.4304   11.0279    3.7252 H   0  0  0  0  0  0  0  0  0  0  0  0
   13.3458   12.3519    2.5442 H   0  0  0  0  0  0  0  0  0  0  0  0
   11.8759   10.3657    1.9841 H   0  0  0  0  0  0  0  0  0  0  0  0
   14.1286    8.8055    2.6915 H   0  0  0  0  0  0  0  0  0  0  0  0
   12.2057    7.8305    2.7501 H   0  0  0  0  0  0  0  0  0  0  0  0
   15.3528    9.0631    0.6039 H   0  0  0  0  0  0  0  0  0  0  0  0
   12.6173    9.3015   -0.8621 H   0  0  0  0  0  0  0  0  0  0  0  0
   16.8529   11.1284   -5.3866 H   0  0  0  0  0  0  0  0  0  0  0  0
   15.8965   10.6927   -6.8282 H   0  0  0  0  0  0  0  0  0  0  0  0
  1  3  1  0
  1  9  1  0
  1 10  2  0
  2  8  2  0
  2 13  1  0
  3  7  1  0
  3 17  1  0
  4  5  1  0
  4 13  2  0
  4 29  1  0
  5  6  2  0
  5 30  1  0
  6  8  1  0
  6 31  1  0
  7 14  1  0
  7 15  1  0
  7 16  1  0
  9 18  1  0
 11 29  1  0
 11 30  2  0
 12 26  1  0
 18 19  2  0
 18 20  2  0
 18 21  1  0
 21 22  1  0
 22 23  1  0
 23 24  1  0
 23 28  1  0
 24 25  1  0
 24 26  1  0
 26 27  1  0
 27 28  1  0
 27 29  1  0
  2 32  1  0
  3 33  1  0
  9 34  1  0
 11 35  1  0
 12 36  1  0
 14 37  1  0
 14 38  1  0
 14 39  1  0
 15 40  1  0
 15 41  1  0
 15 42  1  0
 16 43  1  0
 16 44  1  0
 16 45  1  0
 17 46  1  0
 17 47  1  0
 22 48  1  0
 22 49  1  0
 23 50  1  0
 24 51  1  0
 25 52  1  0
 26 53  1  0
 27 54  1  0
 31 55  1  0
 31 56  1  0
A    1
C1
A    2
C2
A    3
C3
A    4
C4
A    5
C5
A    6
C6
A    7
C7
A    8
N1
A    9
N2
A   10
O1
A   11
C8
A   12
O2
A   13
N3
A   14
C9
A   15
C10
A   16
C11
A   17
N4
A   18
S1
A   19
O1A
A   20
O2A
A   21
O5
A   22
C25
A   23
C24
A   24
C23
A   25
O3
A   26
C22
A   27
C21
A   28
O4
A   29
N9
A   30
N7
A   31
N6
M  END
