3COZ_54H_A_401
     RDKit          3D

 53 55  0  0  0  0  0  0  0  0999 V2000
   14.1440    9.9470   -2.7610 C   0  0  0  0  0  0  0  0  0  0  0  0
   15.1590   10.4640   -3.5720 C   0  0  0  0  0  0  0  0  0  0  0  0
   15.0160   10.3250   -4.9470 C   0  0  0  0  0  0  0  0  0  0  0  0
   15.6880   10.7930   -1.4940 C   0  0  0  0  0  0  0  0  0  0  0  0
   13.8950    9.7240   -5.4300 N   0  0  0  0  0  0  0  0  0  0  0  0
   13.0540    9.3650   -3.3040 N   0  0  0  0  0  0  0  0  0  0  0  0
   13.5480    8.3750    6.1450 C   0  0  0  0  0  0  0  0  0  0  0  0
   14.4500    8.9680    7.2170 C   0  0  0  0  0  0  0  0  0  0  0  0
   13.8540   10.2730    7.7460 C   0  0  0  0  0  0  0  0  0  0  0  0
   15.8940    9.1840    6.7100 C   0  0  0  0  0  0  0  0  0  0  0  0
   16.7320    7.9690    6.9390 N   0  0  0  0  0  0  0  0  0  0  0  0
   16.0040    9.6550    5.2250 C   0  0  0  0  0  0  0  0  0  0  0  0
   16.1600    8.8360    4.3150 O   0  0  0  0  0  0  0  0  0  0  0  0
   15.9720   10.9840    5.0400 N   0  0  0  0  0  0  0  0  0  0  0  0
   16.1370   11.6920    3.5670 S   0  0  0  0  0  0  0  0  0  0  0  0
   17.4950   11.3470    3.0610 O   0  0  0  0  0  0  0  0  0  0  0  0
   15.8890   13.1830    3.6730 O   0  0  0  0  0  0  0  0  0  0  0  0
   15.2160   11.1640    2.5810 O   0  0  0  0  0  0  0  0  0  0  0  0
   13.7860   11.2530    2.8060 C   0  0  0  0  0  0  0  0  0  0  0  0
   13.0390   10.3930    1.8110 C   0  0  0  0  0  0  0  0  0  0  0  0
   13.2960   10.8810    0.4530 O   0  0  0  0  0  0  0  0  0  0  0  0
   13.5980    8.9690    1.8860 C   0  0  0  0  0  0  0  0  0  0  0  0
   12.5010    8.1070    1.8100 O   0  0  0  0  0  0  0  0  0  0  0  0
   14.4490    8.8640    0.6240 C   0  0  0  0  0  0  0  0  0  0  0  0
   14.5610    7.5130    0.1160 O   0  0  0  0  0  0  0  0  0  0  0  0
   13.6490    9.7550   -0.3330 C   0  0  0  0  0  0  0  0  0  0  0  0
   14.4920   10.1660   -1.4980 N   0  0  0  0  0  0  0  0  0  0  0  0
   16.1000   10.9700   -2.7650 N   0  0  0  0  0  0  0  0  0  0  0  0
   12.9400    9.2630   -4.6280 C   0  0  0  0  0  0  0  0  0  0  0  0
   15.9570   10.7620   -5.7820 N   0  0  0  0  0  0  0  0  0  0  0  0
   16.2387   11.1092   -0.5958 H   0  0  0  0  0  0  0  0  0  0  0  0
   12.7200    7.8306    6.6225 H   0  0  0  0  0  0  0  0  0  0  0  0
   13.1425    9.1833    5.5187 H   0  0  0  0  0  0  0  0  0  0  0  0
   14.1293    7.6823    5.5187 H   0  0  0  0  0  0  0  0  0  0  0  0
   14.5082    8.2429    8.0422 H   0  0  0  0  0  0  0  0  0  0  0  0
   13.8601   10.2596    8.8459 H   0  0  0  0  0  0  0  0  0  0  0  0
   14.4535   11.1222    7.3863 H   0  0  0  0  0  0  0  0  0  0  0  0
   12.8196   10.3760    7.3863 H   0  0  0  0  0  0  0  0  0  0  0  0
   16.2820   10.0191    7.3117 H   0  0  0  0  0  0  0  0  0  0  0  0
   16.8401    7.8123    7.9513 H   0  0  0  0  0  0  0  0  0  0  0  0
   16.2746    7.1509    6.5118 H   0  0  0  0  0  0  0  0  0  0  0  0
   15.8374   11.5897    5.8621 H   0  0  0  0  0  0  0  0  0  0  0  0
   13.5578   10.9085    3.8254 H   0  0  0  0  0  0  0  0  0  0  0  0
   13.4703   12.2991    2.6798 H   0  0  0  0  0  0  0  0  0  0  0  0
   11.9634   10.4223    2.0395 H   0  0  0  0  0  0  0  0  0  0  0  0
   14.1748    8.7314    2.7920 H   0  0  0  0  0  0  0  0  0  0  0  0
   12.2020    7.8720    2.7241 H   0  0  0  0  0  0  0  0  0  0  0  0
   15.4970    9.1601    0.7788 H   0  0  0  0  0  0  0  0  0  0  0  0
   14.6136    6.8786    0.8742 H   0  0  0  0  0  0  0  0  0  0  0  0
   12.7706    9.2429   -0.7527 H   0  0  0  0  0  0  0  0  0  0  0  0
   12.0457    8.7921   -5.0621 H   0  0  0  0  0  0  0  0  0  0  0  0
   16.8281   11.1665   -5.4100 H   0  0  0  0  0  0  0  0  0  0  0  0
   15.8136   10.6954   -6.7998 H   0  0  0  0  0  0  0  0  0  0  0  0
  1  2  1  0
  1  6  2  0
  1 27  1  0
  2  3  2  0
  2 28  1  0
  3  5  1  0
  3 30  1  0
  4 27  1  0
  4 28  2  0
  5 29  2  0
  6 29  1  0
  7  8  1  0
  8  9  1  0
  8 10  1  0
 10 11  1  0
 10 12  1  0
 12 13  2  0
 12 14  1  0
 14 15  1  0
 15 16  2  0
 15 17  2  0
 15 18  1  0
 18 19  1  0
 19 20  1  0
 20 21  1  0
 20 22  1  0
 21 26  1  0
 22 23  1  0
 22 24  1  0
 24 25  1  0
 24 26  1  0
 26 27  1  0
  4 31  1  0
  7 32  1  0
  7 33  1  0
  7 34  1  0
  8 35  1  0
  9 36  1  0
  9 37  1  0
  9 38  1  0
 10 39  1  0
 11 40  1  0
 11 41  1  0
 14 42  1  0
 19 43  1  0
 19 44  1  0
 20 45  1  0
 22 46  1  0
 23 47  1  0
 24 48  1  0
 25 49  1  0
 26 50  1  0
 29 51  1  0
 30 52  1  0
 30 53  1  0
A    1
C4
A    2
C5
A    3
C6
A    4
C8
A    5
N1
A    6
N3
A    7
CG2
A    8
CB
A    9
CG1
A   10
CA
A   11
N
A   12
C
A   13
O
A   14
NAP
A   15
SBD
A   16
OAF
A   17
OAG
A   18
O5'
A   19
C5'
A   20
C4'
A   21
O4'
A   22
C3'
A   23
O3'
A   24
C2'
A   25
O2'
A   26
C1'
A   27
N9
A   28
N7
A   29
C2
A   30
N6
M  END
