3CP6_RSX_A_401
     RDKit          3D

 34 35  0  0  0  0  0  0  0  0999 V2000
   15.8340   36.9440   -9.0030 O   0  0  0  0  0  0  0  0  0  0  0  0
   16.1370   35.9170   -7.9890 P   0  0  0  0  0  0  0  0  0  0  0  0
   15.1900   35.8790   -6.8190 O   0  0  0  0  0  0  0  0  0  0  0  0
   17.5430   36.0460   -7.4740 O   0  0  0  0  0  0  0  0  0  0  0  0
   16.0050   34.2890   -8.8160 C   0  0  0  0  0  0  0  0  0  0  0  0
   17.2710   34.1290  -10.0990 P   0  0  0  0  0  0  0  0  0  0  0  0
   18.7000   34.1270   -9.5570 O   0  0  0  0  0  0  0  0  0  0  0  0
   17.1800   35.2910  -11.0890 O   0  0  0  0  0  0  0  0  0  0  0  0
   16.9340   32.9170  -10.9950 O   0  0  0  0  0  0  0  0  0  0  0  0
   14.6070   34.1400   -9.4570 C   0  0  0  0  0  0  0  0  0  0  0  0
   14.1330   32.7340   -9.1490 C   0  0  0  0  0  0  0  0  0  0  0  0
   16.1080   33.1800   -7.7570 C   0  0  0  0  0  0  0  0  0  0  0  0
   14.7750   32.4160   -7.8100 C   0  0  0  0  0  0  0  0  0  0  0  0
   14.9100   30.9090   -7.5250 C   0  0  0  0  0  0  0  0  0  0  0  0
   15.3380   30.0510   -8.7200 C   0  0  0  0  0  0  0  0  0  0  0  0
   14.5990   30.3870   -9.9830 C   0  0  0  0  0  0  0  0  0  0  0  0
   14.5930   31.8280  -10.1920 N   0  0  0  0  0  0  0  0  0  0  0  0
   15.7071   35.8998   -5.9751 H   0  0  0  0  0  0  0  0  0  0  0  0
   17.5332   36.0451   -6.4840 H   0  0  0  0  0  0  0  0  0  0  0  0
   18.6775   34.1270   -8.5673 H   0  0  0  0  0  0  0  0  0  0  0  0
   16.7169   32.1363  -10.4262 H   0  0  0  0  0  0  0  0  0  0  0  0
   13.9125   34.8767   -9.0269 H   0  0  0  0  0  0  0  0  0  0  0  0
   14.6493   34.3139  -10.5423 H   0  0  0  0  0  0  0  0  0  0  0  0
   13.0383   32.6338   -9.1096 H   0  0  0  0  0  0  0  0  0  0  0  0
   16.9446   32.5051   -7.9909 H   0  0  0  0  0  0  0  0  0  0  0  0
   16.2937   33.5960   -6.7557 H   0  0  0  0  0  0  0  0  0  0  0  0
   14.1189   32.7520   -6.9935 H   0  0  0  0  0  0  0  0  0  0  0  0
   15.6580   30.7796   -6.7289 H   0  0  0  0  0  0  0  0  0  0  0  0
   13.9042   30.5614   -7.2465 H   0  0  0  0  0  0  0  0  0  0  0  0
   16.4135   30.2037   -8.8929 H   0  0  0  0  0  0  0  0  0  0  0  0
   15.1042   29.0050   -8.4724 H   0  0  0  0  0  0  0  0  0  0  0  0
   15.0940   29.8980  -10.8350 H   0  0  0  0  0  0  0  0  0  0  0  0
   13.5615   30.0316   -9.8980 H   0  0  0  0  0  0  0  0  0  0  0  0
   13.9984   32.0023  -11.0148 H   0  0  0  0  0  0  0  0  0  0  0  0
  1  2  2  0
  5  2  1  0
  2  4  1  0
  2  3  1  0
  6  5  1  0
 10  5  1  0
  5 12  1  0
  8  6  2  0
  9  6  1  0
  6  7  1  0
 10 11  1  0
 17 11  1  0
 11 13  1  0
 13 12  1  0
 13 14  1  0
 15 14  1  0
 16 15  1  0
 17 16  1  0
  3 18  1  0
  4 19  1  0
  7 20  1  0
  9 21  1  0
 10 22  1  0
 10 23  1  0
 11 24  1  0
 12 25  1  0
 12 26  1  0
 13 27  1  0
 14 28  1  0
 14 29  1  0
 15 30  1  0
 15 31  1  0
 16 32  1  0
 16 33  1  0
 17 34  1  0
A    1
O1
A    2
P1
A    3
O3
A    4
O2
A    5
C3
A    6
P2
A    7
O5
A    8
O4
A    9
O6
A   10
C4
A   11
C5
A   12
C2
A   13
C1
A   14
C9
A   15
C8
A   16
C7
A   17
N1
M  END
