3CPB_C92_A_1
     RDKit          3D

 53 55  0  0  0  0  0  0  0  0999 V2000
   15.3430   41.1850   33.3450 C   0  0  0  0  0  0  0  0  0  0  0  0
   14.1250   41.7170   34.0900 C   0  0  0  0  0  0  0  0  0  0  0  0
   13.4890   40.4450   34.6370 C   0  0  0  0  0  0  0  0  0  0  0  0
   13.5520   39.5050   33.4370 C   0  0  0  0  0  0  0  0  0  0  0  0
   14.8210   39.9180   32.6670 C   0  0  0  0  0  0  0  0  0  0  0  0
   15.8800   38.8240   32.7780 C   0  0  0  0  0  0  0  0  0  0  0  0
   16.2110   38.3040   31.3820 C   0  0  0  0  0  0  0  0  0  0  0  0
   16.7000   36.9160   31.4470 N   0  0  0  0  0  0  0  0  0  0  0  0
   15.8810   35.8790   31.6190 C   0  0  0  0  0  0  0  0  0  0  0  0
   14.6640   35.9970   31.7310 O   0  0  0  0  0  0  0  0  0  0  0  0
   16.5210   34.4790   31.6580 C   0  0  0  0  0  0  0  0  0  0  0  0
   15.7170   33.3890   31.3290 C   0  0  0  0  0  0  0  0  0  0  0  0
   17.8580   34.2630   31.9990 C   0  0  0  0  0  0  0  0  0  0  0  0
   18.3700   32.9630   32.0060 C   0  0  0  0  0  0  0  0  0  0  0  0
   17.5560   31.8750   31.6800 C   0  0  0  0  0  0  0  0  0  0  0  0
   18.1530   30.4630   31.7000 C   0  0  0  0  0  0  0  0  0  0  0  0
   16.2160   32.0940   31.3490 C   0  0  0  0  0  0  0  0  0  0  0  0
   15.2590   30.9740   30.9490 C   0  0  0  0  0  0  0  0  0  0  0  0
   14.9920   30.8290   29.7590 O   0  0  0  0  0  0  0  0  0  0  0  0
   14.7630   30.2180   31.9330 N   0  0  0  0  0  0  0  0  0  0  0  0
   13.9060   29.2000   31.7200 C   0  0  0  0  0  0  0  0  0  0  0  0
   13.4990   28.8210   30.4370 C   0  0  0  0  0  0  0  0  0  0  0  0
   12.6090   27.7660   30.2850 C   0  0  0  0  0  0  0  0  0  0  0  0
   12.1450   27.1090   31.4220 C   0  0  0  0  0  0  0  0  0  0  0  0
   11.2970   26.0930   31.2940 N   0  0  0  0  0  0  0  0  0  0  0  0
   12.5470   27.4910   32.6470 N   0  0  0  0  0  0  0  0  0  0  0  0
   13.3940   28.4980   32.8140 C   0  0  0  0  0  0  0  0  0  0  0  0
   15.6968   41.9126   32.5997 H   0  0  0  0  0  0  0  0  0  0  0  0
   16.2007   40.9946   34.0068 H   0  0  0  0  0  0  0  0  0  0  0  0
   14.4220   42.3944   34.9042 H   0  0  0  0  0  0  0  0  0  0  0  0
   13.4474   42.3075   33.4558 H   0  0  0  0  0  0  0  0  0  0  0  0
   14.0638   40.0459   35.4857 H   0  0  0  0  0  0  0  0  0  0  0  0
   12.4707   40.5946   35.0251 H   0  0  0  0  0  0  0  0  0  0  0  0
   13.6258   38.4591   33.7697 H   0  0  0  0  0  0  0  0  0  0  0  0
   12.6500   39.5757   32.8114 H   0  0  0  0  0  0  0  0  0  0  0  0
   14.5993   40.0815   31.6020 H   0  0  0  0  0  0  0  0  0  0  0  0
   16.7881   39.2364   33.2421 H   0  0  0  0  0  0  0  0  0  0  0  0
   15.4974   38.0003   33.3986 H   0  0  0  0  0  0  0  0  0  0  0  0
   15.3050   38.3391   30.7592 H   0  0  0  0  0  0  0  0  0  0  0  0
   16.9980   38.9367   30.9458 H   0  0  0  0  0  0  0  0  0  0  0  0
   17.7109   36.7408   31.3563 H   0  0  0  0  0  0  0  0  0  0  0  0
   14.6670   33.5583   31.0482 H   0  0  0  0  0  0  0  0  0  0  0  0
   18.5053   35.1129   32.2610 H   0  0  0  0  0  0  0  0  0  0  0  0
   19.4243   32.7943   32.2707 H   0  0  0  0  0  0  0  0  0  0  0  0
   18.2905   30.1378   32.7418 H   0  0  0  0  0  0  0  0  0  0  0  0
   17.4712   29.7693   31.1863 H   0  0  0  0  0  0  0  0  0  0  0  0
   19.1257   30.4688   31.1863 H   0  0  0  0  0  0  0  0  0  0  0  0
   15.0495   30.4232   32.9008 H   0  0  0  0  0  0  0  0  0  0  0  0
   13.8812   29.3548   29.5544 H   0  0  0  0  0  0  0  0  0  0  0  0
   12.2762   27.4546   29.2839 H   0  0  0  0  0  0  0  0  0  0  0  0
   10.9135   25.6335   32.1323 H   0  0  0  0  0  0  0  0  0  0  0  0
   11.0236   25.7654   30.3566 H   0  0  0  0  0  0  0  0  0  0  0  0
   13.6985   28.7853   33.8312 H   0  0  0  0  0  0  0  0  0  0  0  0
  2  1  1  0
  1  5  1  0
  2  3  1  0
  3  4  1  0
  4  5  1  0
  5  6  1  0
  6  7  1  0
  7  8  1  0
  8  9  1  0
 10  9  2  0
  9 11  1  0
 11 13  1  0
 11 12  2  0
 12 17  1  0
 13 14  2  0
 14 15  1  0
 17 15  2  0
 15 16  1  0
 17 18  1  0
 18 19  2  0
 18 20  1  0
 20 21  1  0
 21 27  1  0
 21 22  2  0
 22 23  1  0
 23 24  2  0
 26 24  1  0
 24 25  1  0
 27 26  2  0
  1 28  1  0
  1 29  1  0
  2 30  1  0
  2 31  1  0
  3 32  1  0
  3 33  1  0
  4 34  1  0
  4 35  1  0
  5 36  1  0
  6 37  1  0
  6 38  1  0
  7 39  1  0
  7 40  1  0
  8 41  1  0
 12 42  1  0
 13 43  1  0
 14 44  1  0
 16 45  1  0
 16 46  1  0
 16 47  1  0
 20 48  1  0
 22 49  1  0
 23 50  1  0
 25 51  1  0
 25 52  1  0
 27 53  1  0
A    1
C23
A    2
C24
A    3
C25
A    4
C26
A    5
C12
A    6
C13
A    7
C11
A    8
N10
A    9
C8
A   10
O9
A   11
C4
A   12
C3
A   13
C5
A   14
C6
A   15
C7
A   16
C14
A   17
C2
A   18
C1
A   19
O15
A   20
N16
A   21
C17
A   22
C22
A   23
C21
A   24
C20
A   25
N27
A   26
N19
A   27
C18
M  END
