3CPO_FP2_A_132
     RDKit          3D

 13 13  0  0  0  0  0  0  0  0999 V2000
   -4.2340   11.2830    4.4800 C   0  0  0  0  0  0  0  0  0  0  0  0
   -3.4310   12.3670    4.8550 C   0  0  0  0  0  0  0  0  0  0  0  0
   -2.8020   12.4370    6.0980 C   0  0  0  0  0  0  0  0  0  0  0  0
   -2.9100   11.3510    6.9870 C   0  0  0  0  0  0  0  0  0  0  0  0
   -3.6450   10.2520    6.5840 C   0  0  0  0  0  0  0  0  0  0  0  0
   -4.3120   10.2310    5.3720 C   0  0  0  0  0  0  0  0  0  0  0  0
   -3.3370   13.3910    4.0400 F   0  0  0  0  0  0  0  0  0  0  0  0
   -4.9070   11.1290    3.2990 O   0  0  0  0  0  0  0  0  0  0  0  0
   -2.2276   13.3315    6.3806 H   0  0  0  0  0  0  0  0  0  0  0  0
   -2.4238   11.3762    7.9734 H   0  0  0  0  0  0  0  0  0  0  0  0
   -3.7010    9.3729    7.2428 H   0  0  0  0  0  0  0  0  0  0  0  0
   -4.9210    9.3527    5.1116 H   0  0  0  0  0  0  0  0  0  0  0  0
   -5.8720   10.9082    3.3044 H   0  0  0  0  0  0  0  0  0  0  0  0
  1  2  2  0
  1  6  1  0
  1  8  1  0
  2  3  1  0
  2  7  1  0
  3  4  2  0
  4  5  1  0
  5  6  2  0
  3  9  1  0
  4 10  1  0
  5 11  1  0
  6 12  1  0
  8 13  1  0
A    1
C1
A    2
C2
A    3
C3
A    4
C4
A    5
C5
A    6
C6
A    7
F
A    8
O
M  END
