3CQU_CQU_A_999
     RDKit          3D

 35 38  0  0  0  0  0  0  0  0999 V2000
    4.9390    3.9800   17.4130 N   0  0  0  0  0  0  0  0  0  0  0  0
    6.0130    4.5650   18.1050 C   0  0  0  0  0  0  0  0  0  0  0  0
    2.3590    2.4730   16.3870 C   0  0  0  0  0  0  0  0  0  0  0  0
    6.3450    5.9000   18.0010 C   0  0  0  0  0  0  0  0  0  0  0  0
    6.5670    0.2390   19.8470 C   0  0  0  0  0  0  0  0  0  0  0  0
    2.6400    6.5180   16.2000 C   0  0  0  0  0  0  0  0  0  0  0  0
    7.3870    6.4430   18.7080 C   0  0  0  0  0  0  0  0  0  0  0  0
    8.1690    5.6720   19.5160 C   0  0  0  0  0  0  0  0  0  0  0  0
    6.8740   -0.8950   20.7590 C   0  0  0  0  0  0  0  0  0  0  0  0
    7.0080    1.4850   20.1000 N   0  0  0  0  0  0  0  0  0  0  0  0
    5.8760    0.2380   18.7270 N   0  0  0  0  0  0  0  0  0  0  0  0
    5.8840    1.4720   18.2900 N   0  0  0  0  0  0  0  0  0  0  0  0
    6.5580    2.2810   19.0950 C   0  0  0  0  0  0  0  0  0  0  0  0
    6.7990    3.7510   18.9540 C   0  0  0  0  0  0  0  0  0  0  0  0
    7.8620    4.3360   19.6360 C   0  0  0  0  0  0  0  0  0  0  0  0
    3.8220    4.6370   16.8820 C   0  0  0  0  0  0  0  0  0  0  0  0
    2.6960    3.8720   16.4190 C   0  0  0  0  0  0  0  0  0  0  0  0
    1.5760    4.5290   15.8360 C   0  0  0  0  0  0  0  0  0  0  0  0
    0.6620    3.5870   15.5230 N   0  0  0  0  0  0  0  0  0  0  0  0
    1.1290    2.3520   15.8560 C   0  0  0  0  0  0  0  0  0  0  0  0
    1.5900    5.8560   15.7640 N   0  0  0  0  0  0  0  0  0  0  0  0
    3.7020    5.9600   16.7740 N   0  0  0  0  0  0  0  0  0  0  0  0
    4.9774    2.9590   17.2824 H   0  0  0  0  0  0  0  0  0  0  0  0
    2.9961    1.6469   16.7359 H   0  0  0  0  0  0  0  0  0  0  0  0
    5.7577    6.5467   17.3325 H   0  0  0  0  0  0  0  0  0  0  0  0
    2.6395    7.6116   16.0813 H   0  0  0  0  0  0  0  0  0  0  0  0
    7.5956    7.5196   18.6217 H   0  0  0  0  0  0  0  0  0  0  0  0
    9.0224    6.1062   20.0574 H   0  0  0  0  0  0  0  0  0  0  0  0
    6.7835   -0.5607   21.8031 H   0  0  0  0  0  0  0  0  0  0  0  0
    6.1658   -1.7162   20.5742 H   0  0  0  0  0  0  0  0  0  0  0  0
    7.8997   -1.2468   20.5742 H   0  0  0  0  0  0  0  0  0  0  0  0
    7.5795    1.7799   20.9046 H   0  0  0  0  0  0  0  0  0  0  0  0
    8.4791    3.7075   20.2949 H   0  0  0  0  0  0  0  0  0  0  0  0
   -0.2556    3.7748   15.0945 H   0  0  0  0  0  0  0  0  0  0  0  0
    0.5866    1.4057   15.7134 H   0  0  0  0  0  0  0  0  0  0  0  0
  1  2  1  0
  1 16  1  0
  2  4  2  0
  2 14  1  0
  3 17  1  0
  3 20  2  0
  4  7  1  0
  5  9  1  0
  5 10  1  0
  5 11  2  0
  6 21  1  0
  6 22  2  0
  7  8  2  0
  8 15  1  0
 10 13  1  0
 11 12  1  0
 12 13  2  0
 13 14  1  0
 14 15  2  0
 16 17  2  0
 16 22  1  0
 17 18  1  0
 18 19  1  0
 18 21  2  0
 19 20  1  0
  1 23  1  0
  3 24  1  0
  4 25  1  0
  6 26  1  0
  7 27  1  0
  8 28  1  0
  9 29  1  0
  9 30  1  0
  9 31  1  0
 10 32  1  0
 15 33  1  0
 19 34  1  0
 20 35  1  0
A    1
N3
A    2
C7
A    3
C6
A    4
C13
A    5
C21
A    6
C8
A    7
C16
A    8
C19
A    9
C22
A   10
N18
A   11
N20
A   12
N17
A   13
C14
A   14
C12
A   15
C15
A   16
C1
A   17
C2
A   18
C5
A   19
N9
A   20
C11
A   21
N10
A   22
N4
M  END
