3CS6_0CO_A_1
     RDKit          3D

 76 79  0  0  0  0  0  0  0  0999 V2000
   14.6110   19.1320   33.6430 C   0  0  0  0  0  0  0  0  0  0  0  0
   15.4090   18.0850   32.8410 C   0  0  0  0  0  0  0  0  0  0  0  0
   16.0150   16.9640   33.7720 C   0  0  0  0  0  0  0  0  0  0  0  0
   14.9520   16.3550   34.7500 C   0  0  0  0  0  0  0  0  0  0  0  0
   14.2030   17.4610   35.5690 C   0  0  0  0  0  0  0  0  0  0  0  0
   13.6290   18.5660   34.6670 C   0  0  0  0  0  0  0  0  0  0  0  0
   14.8490   20.4530   33.3860 C   0  0  0  0  0  0  0  0  0  0  0  0
   14.2290   21.6260   34.0130 C   0  0  0  0  0  0  0  0  0  0  0  0
   13.9740   22.7920   33.4260 C   0  0  0  0  0  0  0  0  0  0  0  0
   13.3030   23.9670   34.1500 C   0  0  0  0  0  0  0  0  0  0  0  0
   11.8790   24.2740   33.5070 C   0  0  0  0  0  0  0  0  0  0  0  0
   12.1670   24.6050   31.9620 C   0  0  0  0  0  0  0  0  0  0  0  0
   13.0030   23.5370   31.1730 C   0  0  0  0  0  0  0  0  0  0  0  0
   14.3010   23.1100   31.9400 C   0  0  0  0  0  0  0  0  0  0  0  0
   12.9490   23.8640   35.6990 C   0  0  0  0  0  0  0  0  0  0  0  0
   11.7560   24.8670   35.8790 C   0  0  0  0  0  0  0  0  0  0  0  0
   11.4840   25.4570   34.4650 C   0  0  0  0  0  0  0  0  0  0  0  0
   12.3080   18.9880   34.7820 C   0  0  0  0  0  0  0  0  0  0  0  0
   17.0900   17.5420   34.5530 O   0  0  0  0  0  0  0  0  0  0  0  0
   13.1380   16.8630   36.3060 O   0  0  0  0  0  0  0  0  0  0  0  0
   10.0090   26.0690   34.3220 C   0  0  0  0  0  0  0  0  0  0  0  0
    8.8390   25.2670   34.9390 C   0  0  0  0  0  0  0  0  0  0  0  0
    7.7350   25.2080   33.8650 C   0  0  0  0  0  0  0  0  0  0  0  0
    8.3650   25.9630   32.6790 C   0  0  0  0  0  0  0  0  0  0  0  0
    9.7120   26.2170   32.9210 O   0  0  0  0  0  0  0  0  0  0  0  0
    6.5070   25.8970   34.4620 C   0  0  0  0  0  0  0  0  0  0  0  0
    5.1110   25.5890   33.8690 C   0  0  0  0  0  0  0  0  0  0  0  0
    4.9140   25.9810   32.3930 C   0  0  0  0  0  0  0  0  0  0  0  0
    4.1920   26.3400   34.6760 O   0  0  0  0  0  0  0  0  0  0  0  0
    4.7200   24.1230   34.0590 C   0  0  0  0  0  0  0  0  0  0  0  0
   10.8830   23.0160   33.5440 C   0  0  0  0  0  0  0  0  0  0  0  0
    9.9800   27.4830   34.9890 C   0  0  0  0  0  0  0  0  0  0  0  0
   14.7389   17.6134   32.1072 H   0  0  0  0  0  0  0  0  0  0  0  0
   16.2432   18.6014   32.3435 H   0  0  0  0  0  0  0  0  0  0  0  0
   16.3763   16.1507   33.1255 H   0  0  0  0  0  0  0  0  0  0  0  0
   14.2146   15.7873   34.1636 H   0  0  0  0  0  0  0  0  0  0  0  0
   15.4806   15.7051   35.4629 H   0  0  0  0  0  0  0  0  0  0  0  0
   14.9357   17.9250   36.2456 H   0  0  0  0  0  0  0  0  0  0  0  0
   15.6006   20.6637   32.6109 H   0  0  0  0  0  0  0  0  0  0  0  0
   13.9476   21.5317   35.0722 H   0  0  0  0  0  0  0  0  0  0  0  0
   14.1008   24.7157   34.0358 H   0  0  0  0  0  0  0  0  0  0  0  0
   11.1970   24.7145   31.4550 H   0  0  0  0  0  0  0  0  0  0  0  0
   12.7800   25.5184   31.9641 H   0  0  0  0  0  0  0  0  0  0  0  0
   12.3777   22.6462   31.0133 H   0  0  0  0  0  0  0  0  0  0  0  0
   13.3105   23.9894   30.2187 H   0  0  0  0  0  0  0  0  0  0  0  0
   15.0330   23.9300   31.8977 H   0  0  0  0  0  0  0  0  0  0  0  0
   14.7149   22.2081   31.4654 H   0  0  0  0  0  0  0  0  0  0  0  0
   12.6439   22.8409   35.9639 H   0  0  0  0  0  0  0  0  0  0  0  0
   13.8053   24.1015   36.3473 H   0  0  0  0  0  0  0  0  0  0  0  0
   10.8654   24.3404   36.2525 H   0  0  0  0  0  0  0  0  0  0  0  0
   11.9950   25.6550   36.6083 H   0  0  0  0  0  0  0  0  0  0  0  0
   12.0733   26.3513   34.2141 H   0  0  0  0  0  0  0  0  0  0  0  0
   11.6514   18.5391   35.5418 H   0  0  0  0  0  0  0  0  0  0  0  0
   11.9204   19.7705   34.1131 H   0  0  0  0  0  0  0  0  0  0  0  0
   16.8917   17.4354   35.5171 H   0  0  0  0  0  0  0  0  0  0  0  0
   13.3121   16.9608   37.2757 H   0  0  0  0  0  0  0  0  0  0  0  0
    9.1704   24.2510   35.1996 H   0  0  0  0  0  0  0  0  0  0  0  0
    8.4726   25.7429   35.8606 H   0  0  0  0  0  0  0  0  0  0  0  0
    7.4062   24.2094   33.5413 H   0  0  0  0  0  0  0  0  0  0  0  0
    8.2699   25.3517   31.7695 H   0  0  0  0  0  0  0  0  0  0  0  0
    7.8407   26.9213   32.5493 H   0  0  0  0  0  0  0  0  0  0  0  0
    6.4715   25.6259   35.5275 H   0  0  0  0  0  0  0  0  0  0  0  0
    6.6630   26.9610   34.2303 H   0  0  0  0  0  0  0  0  0  0  0  0
    4.4207   26.9626   32.3370 H   0  0  0  0  0  0  0  0  0  0  0  0
    5.8928   26.0335   31.8938 H   0  0  0  0  0  0  0  0  0  0  0  0
    4.2878   25.2269   31.8938 H   0  0  0  0  0  0  0  0  0  0  0  0
    4.3871   26.1806   35.6334 H   0  0  0  0  0  0  0  0  0  0  0  0
    4.6595   23.8960   35.1336 H   0  0  0  0  0  0  0  0  0  0  0  0
    3.7418   23.9407   33.5900 H   0  0  0  0  0  0  0  0  0  0  0  0
    5.4774   23.4777   33.5900 H   0  0  0  0  0  0  0  0  0  0  0  0
   10.6703   22.7473   34.5893 H   0  0  0  0  0  0  0  0  0  0  0  0
    9.9439   23.2767   33.0340 H   0  0  0  0  0  0  0  0  0  0  0  0
   11.3522   22.1617   33.0340 H   0  0  0  0  0  0  0  0  0  0  0  0
    9.9823   27.3723   36.0834 H   0  0  0  0  0  0  0  0  0  0  0  0
   10.8666   28.0541   34.6764 H   0  0  0  0  0  0  0  0  0  0  0  0
    9.0707   28.0173   34.6764 H   0  0  0  0  0  0  0  0  0  0  0  0
  1  2  1  0
  1  6  1  0
  1  7  2  0
  2  3  1  0
  3  4  1  0
  3 19  1  0
  4  5  1  0
  5  6  1  0
  5 20  1  0
  6 18  2  0
  7  8  1  0
  8  9  2  0
  9 10  1  0
  9 14  1  0
 10 11  1  0
 10 15  1  0
 11 12  1  0
 11 17  1  0
 11 31  1  0
 12 13  1  0
 13 14  1  0
 15 16  1  0
 16 17  1  0
 17 21  1  0
 21 22  1  0
 21 25  1  0
 21 32  1  0
 22 23  1  0
 23 24  1  0
 23 26  1  0
 24 25  1  0
 26 27  1  0
 27 28  1  0
 27 29  1  0
 27 30  1  0
  2 33  1  0
  2 34  1  0
  3 35  1  0
  4 36  1  0
  4 37  1  0
  5 38  1  0
  7 39  1  0
  8 40  1  0
 10 41  1  0
 12 42  1  0
 12 43  1  0
 13 44  1  0
 13 45  1  0
 14 46  1  0
 14 47  1  0
 15 48  1  0
 15 49  1  0
 16 50  1  0
 16 51  1  0
 17 52  1  0
 18 53  1  0
 18 54  1  0
 19 55  1  0
 20 56  1  0
 22 57  1  0
 22 58  1  0
 23 59  1  0
 24 60  1  0
 24 61  1  0
 26 62  1  0
 26 63  1  0
 28 64  1  0
 28 65  1  0
 28 66  1  0
 29 67  1  0
 30 68  1  0
 30 69  1  0
 30 70  1  0
 31 71  1  0
 31 72  1  0
 31 73  1  0
 32 74  1  0
 32 75  1  0
 32 76  1  0
A    1
C5
A    2
C4
A    3
C3
A    4
C2
A    5
C1
A    6
C10
A    7
C6
A    8
C7
A    9
C8
A   10
C14
A   11
C13
A   12
C12
A   13
C11
A   14
C9
A   15
C15
A   16
C16
A   17
C17
A   18
C19
A   19
O3
A   20
O1
A   21
C20
A   22
C22
A   23
C23
A   24
C28
A   25
O21
A   26
C24
A   27
C25
A   28
C26
A   29
O25
A   30
C27
A   31
C18
A   32
C21
M  END
