1ECM_TSA_A_500
     RDKit          3D

 28 29  0  0  0  0  0  0  0  0999 V2000
   26.8420   31.8300   24.7000 C   0  0  0  0  0  0  0  0  0  0  0  0
   26.3940   31.0370   23.4570 C   0  0  0  0  0  0  0  0  0  0  0  0
   25.6220   31.6300   22.5190 C   0  0  0  0  0  0  0  0  0  0  0  0
   24.9200   32.9720   22.7000 C   0  0  0  0  0  0  0  0  0  0  0  0
   23.5540   32.6930   22.9380 O   0  0  0  0  0  0  0  0  0  0  0  0
   25.4150   33.7520   23.9120 C   0  0  0  0  0  0  0  0  0  0  0  0
   25.6740   32.7690   25.0910 C   0  0  0  0  0  0  0  0  0  0  0  0
   26.6180   34.4580   23.6380 O   0  0  0  0  0  0  0  0  0  0  0  0
   27.9190   33.8600   23.5840 C   0  0  0  0  0  0  0  0  0  0  0  0
   28.0630   32.7350   24.6070 C   0  0  0  0  0  0  0  0  0  0  0  0
   27.3070   30.8880   25.8220 C   0  0  0  0  0  0  0  0  0  0  0  0
   27.0780   31.2330   26.9910 O   0  0  0  0  0  0  0  0  0  0  0  0
   27.9590   29.8660   25.5440 O   0  0  0  0  0  0  0  0  0  0  0  0
   28.2450   33.3500   22.1810 C   0  0  0  0  0  0  0  0  0  0  0  0
   28.9850   32.3650   21.9850 O   0  0  0  0  0  0  0  0  0  0  0  0
   27.6240   33.9060   21.2640 O   0  0  0  0  0  0  0  0  0  0  0  0
   26.7024   29.9884   23.3330 H   0  0  0  0  0  0  0  0  0  0  0  0
   25.4911   31.1089   21.5592 H   0  0  0  0  0  0  0  0  0  0  0  0
   25.1126   33.5742   21.7999 H   0  0  0  0  0  0  0  0  0  0  0  0
   23.3892   32.6593   23.9136 H   0  0  0  0  0  0  0  0  0  0  0  0
   24.6365   34.4839   24.1731 H   0  0  0  0  0  0  0  0  0  0  0  0
   24.7688   32.1747   25.2843 H   0  0  0  0  0  0  0  0  0  0  0  0
   25.9306   33.3311   26.0011 H   0  0  0  0  0  0  0  0  0  0  0  0
   28.6433   34.6478   23.8383 H   0  0  0  0  0  0  0  0  0  0  0  0
   28.2374   33.1851   25.5954 H   0  0  0  0  0  0  0  0  0  0  0  0
   28.9034   32.1068   24.2767 H   0  0  0  0  0  0  0  0  0  0  0  0
   28.3216   29.2977   26.2690 H   0  0  0  0  0  0  0  0  0  0  0  0
   26.9033   34.5513   21.4744 H   0  0  0  0  0  0  0  0  0  0  0  0
  1  2  1  0
  1  7  1  0
  1 10  1  0
  1 11  1  0
  2  3  2  0
  3  4  1  0
  4  5  1  0
  4  6  1  0
  6  7  1  0
  6  8  1  0
  8  9  1  0
  9 10  1  0
  9 14  1  0
 11 12  2  0
 11 13  1  0
 14 15  2  0
 14 16  1  0
  2 17  1  0
  3 18  1  0
  4 19  1  0
  5 20  1  0
  6 21  1  0
  7 22  1  0
  7 23  1  0
  9 24  1  0
 10 25  1  0
 10 26  1  0
 13 27  1  0
 16 28  1  0
A    1
C1
A    2
C2
A    3
C3
A    4
C4
A    5
O5
A    6
C5
A    7
C6
A    8
O7
A    9
C8
A   10
C9
A   11
C10
A   12
O1
A   13
O2
A   14
C11
A   15
O3
A   16
O4
M  END
