3CTH_319_A_2001
     RDKit          3D

 45 47  0  0  0  0  0  0  0  0999 V2000
    0.1140    1.0530   52.6750 C   0  0  0  0  0  0  0  0  0  0  0  0
   -2.0300    1.6690   53.6840 C   0  0  0  0  0  0  0  0  0  0  0  0
    0.9190    8.0660   54.9990 C   0  0  0  0  0  0  0  0  0  0  0  0
    1.0350    9.2860   55.6690 C   0  0  0  0  0  0  0  0  0  0  0  0
    0.2130   -0.0130   53.5530 C   0  0  0  0  0  0  0  0  0  0  0  0
   -1.9210    0.5980   54.5720 C   0  0  0  0  0  0  0  0  0  0  0  0
   -1.4920   11.5640   56.3840 C   0  0  0  0  0  0  0  0  0  0  0  0
    0.2920    9.2470   52.9840 C   0  0  0  0  0  0  0  0  0  0  0  0
    0.1040   12.9810   57.4910 C   0  0  0  0  0  0  0  0  0  0  0  0
   -2.4360   12.0230   57.2860 C   0  0  0  0  0  0  0  0  0  0  0  0
   -1.0100    1.8910   52.7320 C   0  0  0  0  0  0  0  0  0  0  0  0
    0.5520    8.0480   53.6440 C   0  0  0  0  0  0  0  0  0  0  0  0
    0.7640   10.4830   55.0040 C   0  0  0  0  0  0  0  0  0  0  0  0
   -0.1910   12.0540   56.4900 C   0  0  0  0  0  0  0  0  0  0  0  0
   -0.7980   -0.2310   54.4880 C   0  0  0  0  0  0  0  0  0  0  0  0
    0.3910   10.4570   53.6600 C   0  0  0  0  0  0  0  0  0  0  0  0
   -0.9090   13.4030   58.3630 C   0  0  0  0  0  0  0  0  0  0  0  0
   -0.6440    4.3080   52.4610 C   0  0  0  0  0  0  0  0  0  0  0  0
   -0.1050    6.6130   51.7410 C   0  0  0  0  0  0  0  0  0  0  0  0
   -1.1030    3.0380   51.7840 C   0  0  0  0  0  0  0  0  0  0  0  0
   -2.1750   12.9280   58.2640 N   0  0  0  0  0  0  0  0  0  0  0  0
   -0.6020   14.3450   59.3770 N   0  0  0  0  0  0  0  0  0  0  0  0
    0.4490    6.8030   52.9920 N   0  0  0  0  0  0  0  0  0  0  0  0
   -0.6480    5.3560   51.5520 N   0  0  0  0  0  0  0  0  0  0  0  0
    0.0100    4.3220   53.4880 O   0  0  0  0  0  0  0  0  0  0  0  0
   -0.1580    7.4260   50.8290 O   0  0  0  0  0  0  0  0  0  0  0  0
    0.8600   11.6920   55.6570 O   0  0  0  0  0  0  0  0  0  0  0  0
   -0.6810   -1.2650   55.3250 F   0  0  0  0  0  0  0  0  0  0  0  0
    0.1170   11.5940   52.9890 F   0  0  0  0  0  0  0  0  0  0  0  0
    0.9096    1.2413   51.9391 H   0  0  0  0  0  0  0  0  0  0  0  0
   -2.9040    2.3357   53.7250 H   0  0  0  0  0  0  0  0  0  0  0  0
    1.1144    7.1231   55.5308 H   0  0  0  0  0  0  0  0  0  0  0  0
    1.3413    9.3036   56.7254 H   0  0  0  0  0  0  0  0  0  0  0  0
    1.0839   -0.6838   53.5131 H   0  0  0  0  0  0  0  0  0  0  0  0
   -2.7026    0.4097   55.3228 H   0  0  0  0  0  0  0  0  0  0  0  0
   -1.7603   10.8339   55.6062 H   0  0  0  0  0  0  0  0  0  0  0  0
    0.0067    9.2358   51.9217 H   0  0  0  0  0  0  0  0  0  0  0  0
    1.1247   13.3777   57.5948 H   0  0  0  0  0  0  0  0  0  0  0  0
   -3.4605   11.6306   57.2057 H   0  0  0  0  0  0  0  0  0  0  0  0
   -0.4651    2.8404   50.9099 H   0  0  0  0  0  0  0  0  0  0  0  0
   -2.1487    3.1576   51.4642 H   0  0  0  0  0  0  0  0  0  0  0  0
   -0.6882   14.0806   60.3687 H   0  0  0  0  0  0  0  0  0  0  0  0
   -0.2928   15.2938   59.1220 H   0  0  0  0  0  0  0  0  0  0  0  0
    0.8132    5.9746   53.4839 H   0  0  0  0  0  0  0  0  0  0  0  0
   -1.1016    5.1795   50.6442 H   0  0  0  0  0  0  0  0  0  0  0  0
  1  5  2  0
  1 11  1  0
  2  6  1  0
  2 11  2  0
  3  4  2  0
  3 12  1  0
  4 13  1  0
  5 15  1  0
  6 15  2  0
  7 10  2  0
  7 14  1  0
  8 12  2  0
  8 16  1  0
  9 14  2  0
  9 17  1  0
 10 21  1  0
 11 20  1  0
 12 23  1  0
 13 16  2  0
 13 27  1  0
 14 27  1  0
 15 28  1  0
 16 29  1  0
 17 21  2  0
 17 22  1  0
 18 20  1  0
 18 24  1  0
 18 25  2  0
 19 23  1  0
 19 24  1  0
 19 26  2  0
  1 30  1  0
  2 31  1  0
  3 32  1  0
  4 33  1  0
  5 34  1  0
  6 35  1  0
  7 36  1  0
  8 37  1  0
  9 38  1  0
 10 39  1  0
 20 40  1  0
 20 41  1  0
 22 42  1  0
 22 43  1  0
 23 44  1  0
 24 45  1  0
A    1
C1
A    2
C2
A    3
C3
A    4
C4
A    5
C5
A    6
C6
A    7
C7
A    8
C8
A    9
C9
A   10
C10
A   11
C11
A   12
C12
A   13
C13
A   14
C14
A   15
C15
A   16
C16
A   17
C17
A   18
C18
A   19
C19
A   20
C20
A   21
N21
A   22
N22
A   23
N23
A   24
N24
A   25
O25
A   26
O26
A   27
O27
A   28
F28
A   29
F29
M  END
