2JJB_3CU_A_1547
     RDKit          3D

 28 29  0  0  0  0  0  0  0  0999 V2000
   -6.2250  -33.8360   45.0860 O   0  0  0  0  0  0  0  0  0  0  0  0
   -5.7560  -34.4580   43.8760 C   0  0  0  0  0  0  0  0  0  0  0  0
   -6.8140  -34.2240   42.7990 C   0  0  0  0  0  0  0  0  0  0  0  0
   -6.9550  -35.3600   41.7760 C   0  0  0  0  0  0  0  0  0  0  0  0
   -8.0630  -36.2200   42.0480 O   0  0  0  0  0  0  0  0  0  0  0  0
   -7.1090  -34.6490   40.4240 C   0  0  0  0  0  0  0  0  0  0  0  0
   -6.8160  -35.5040   39.2950 O   0  0  0  0  0  0  0  0  0  0  0  0
   -6.0060  -33.5830   40.4870 C   0  0  0  0  0  0  0  0  0  0  0  0
   -6.1400  -32.4130   39.4900 C   0  0  0  0  0  0  0  0  0  0  0  0
   -7.3970  -31.8030   39.5920 O   0  0  0  0  0  0  0  0  0  0  0  0
   -6.0530  -33.3090   41.9380 N   0  0  0  0  0  0  0  0  0  0  0  0
   -5.0810  -32.5080   42.6640 C   0  0  0  0  0  0  0  0  0  0  0  0
   -4.4790  -33.7090   43.4300 C   0  0  0  0  0  0  0  0  0  0  0  0
   -5.8601  -34.3200   45.8687 H   0  0  0  0  0  0  0  0  0  0  0  0
   -5.5631  -35.5301   44.0289 H   0  0  0  0  0  0  0  0  0  0  0  0
   -7.7796  -33.9908   43.2716 H   0  0  0  0  0  0  0  0  0  0  0  0
   -6.0823  -36.0291   41.8026 H   0  0  0  0  0  0  0  0  0  0  0  0
   -8.1785  -36.3097   43.0271 H   0  0  0  0  0  0  0  0  0  0  0  0
   -8.1378  -34.2864   40.2820 H   0  0  0  0  0  0  0  0  0  0  0  0
   -6.5129  -36.3884   39.6207 H   0  0  0  0  0  0  0  0  0  0  0  0
   -5.0072  -33.8805   40.1351 H   0  0  0  0  0  0  0  0  0  0  0  0
   -5.3606  -31.6672   39.7049 H   0  0  0  0  0  0  0  0  0  0  0  0
   -6.0264  -32.8092   38.4701 H   0  0  0  0  0  0  0  0  0  0  0  0
   -7.6320  -31.6890   40.5469 H   0  0  0  0  0  0  0  0  0  0  0  0
   -4.3549  -32.0098   42.0048 H   0  0  0  0  0  0  0  0  0  0  0  0
   -5.4521  -31.6556   43.2520 H   0  0  0  0  0  0  0  0  0  0  0  0
   -3.8844  -33.3778   44.2941 H   0  0  0  0  0  0  0  0  0  0  0  0
   -3.7846  -34.3197   42.8343 H   0  0  0  0  0  0  0  0  0  0  0  0
  1  2  1  0
  2  3  1  0
  2 13  1  0
  3  4  1  0
  3 11  1  0
  4  5  1  0
  4  6  1  0
  6  7  1  0
  6  8  1  0
  8  9  1  0
  8 11  1  0
  9 10  1  0
 11 12  1  0
 12 13  1  0
  1 14  1  0
  2 15  1  0
  3 16  1  0
  4 17  1  0
  5 18  1  0
  6 19  1  0
  7 20  1  0
  8 21  1  0
  9 22  1  0
  9 23  1  0
 10 24  1  0
 12 25  1  0
 12 26  1  0
 13 27  1  0
 13 28  1  0
A    1
O7
A    2
C7
A    3
C7A
A    4
C1
A    5
O1
A    6
C2
A    7
O2
A    8
C3
A    9
C8
A   10
O8
A   11
N4
A   12
C5
A   13
C6
M  END
