2OYK_9MR_A_600
     RDKit          3D

 44 45  0  0  0  0  0  0  0  0999 V2000
   28.9510   61.1250  -25.7520 O   0  0  0  0  0  0  0  0  0  0  0  0
   29.3330   59.7590  -25.7350 C   0  0  0  0  0  0  0  0  0  0  0  0
   30.8000   59.6320  -26.1520 C   0  0  0  0  0  0  0  0  0  0  0  0
   31.6140   60.3200  -25.1940 O   0  0  0  0  0  0  0  0  0  0  0  0
   31.1900   58.1570  -26.2250 C   0  0  0  0  0  0  0  0  0  0  0  0
   32.5130   58.0530  -26.7810 O   0  0  0  0  0  0  0  0  0  0  0  0
   30.1900   57.3800  -27.0910 C   0  0  0  0  0  0  0  0  0  0  0  0
   30.4760   55.8890  -27.0170 C   0  0  0  0  0  0  0  0  0  0  0  0
   30.3750   55.4190  -25.6570 O   0  0  0  0  0  0  0  0  0  0  0  0
   28.8470   57.5630  -26.5880 O   0  0  0  0  0  0  0  0  0  0  0  0
   28.4360   58.9340  -26.6520 C   0  0  0  0  0  0  0  0  0  0  0  0
   27.1110   58.9690  -26.1310 O   0  0  0  0  0  0  0  0  0  0  0  0
   26.1360   58.3940  -27.0070 C   0  0  0  0  0  0  0  0  0  0  0  0
   25.1900   57.4680  -26.2380 C   0  0  0  0  0  0  0  0  0  0  0  0
   25.9310   56.4620  -25.5550 O   0  0  0  0  0  0  0  0  0  0  0  0
   24.2150   56.8000  -27.1970 C   0  0  0  0  0  0  0  0  0  0  0  0
   23.4410   57.8170  -27.9400 N   0  0  0  0  0  0  0  0  0  0  0  0
   24.3090   58.7950  -28.6330 C   0  0  0  0  0  0  0  0  0  0  0  0
   25.2480   59.4630  -27.6320 C   0  0  0  0  0  0  0  0  0  0  0  0
   26.0640   60.5880  -28.2940 C   0  0  0  0  0  0  0  0  0  0  0  0
   26.7860   60.1180  -29.4410 O   0  0  0  0  0  0  0  0  0  0  0  0
   28.8591   61.4536  -24.8226 H   0  0  0  0  0  0  0  0  0  0  0  0
   29.2163   59.3679  -24.7135 H   0  0  0  0  0  0  0  0  0  0  0  0
   30.9504   60.0798  -27.1454 H   0  0  0  0  0  0  0  0  0  0  0  0
   31.3249   60.0756  -24.2792 H   0  0  0  0  0  0  0  0  0  0  0  0
   31.1762   57.7238  -25.2140 H   0  0  0  0  0  0  0  0  0  0  0  0
   33.1760   58.0009  -26.0476 H   0  0  0  0  0  0  0  0  0  0  0  0
   30.2854   57.7530  -28.1214 H   0  0  0  0  0  0  0  0  0  0  0  0
   29.7477   55.3499  -27.6407 H   0  0  0  0  0  0  0  0  0  0  0  0
   31.4980   55.7057  -27.3803 H   0  0  0  0  0  0  0  0  0  0  0  0
   30.5368   56.1719  -25.0348 H   0  0  0  0  0  0  0  0  0  0  0  0
   28.4921   59.3304  -27.6766 H   0  0  0  0  0  0  0  0  0  0  0  0
   26.7034   57.8496  -27.7762 H   0  0  0  0  0  0  0  0  0  0  0  0
   24.6329   58.0730  -25.5074 H   0  0  0  0  0  0  0  0  0  0  0  0
   25.8372   56.5893  -24.5777 H   0  0  0  0  0  0  0  0  0  0  0  0
   24.7769   56.1799  -27.9109 H   0  0  0  0  0  0  0  0  0  0  0  0
   23.5185   56.1754  -26.6185 H   0  0  0  0  0  0  0  0  0  0  0  0
   22.8559   57.3399  -28.6407 H   0  0  0  0  0  0  0  0  0  0  0  0
   24.9034   58.2755  -29.3990 H   0  0  0  0  0  0  0  0  0  0  0  0
   23.6801   59.5637  -29.1057 H   0  0  0  0  0  0  0  0  0  0  0  0
   24.6614   59.9443  -26.8356 H   0  0  0  0  0  0  0  0  0  0  0  0
   25.3777   61.3880  -28.6085 H   0  0  0  0  0  0  0  0  0  0  0  0
   26.7935   60.9593  -27.5592 H   0  0  0  0  0  0  0  0  0  0  0  0
   27.5776   59.6027  -29.1443 H   0  0  0  0  0  0  0  0  0  0  0  0
  1  2  1  0
  2 11  1  0
  2  3  1  0
  3  5  1  0
  3  4  1  0
  5  7  1  0
  5  6  1  0
  7  8  1  0
  7 10  1  0
  8  9  1  0
 10 11  1  0
 11 12  1  0
 12 13  1  0
 13 19  1  0
 13 14  1  0
 14 16  1  0
 14 15  1  0
 16 17  1  0
 17 18  1  0
 18 19  1  0
 19 20  1  0
 20 21  1  0
  1 22  1  0
  2 23  1  0
  3 24  1  0
  4 25  1  0
  5 26  1  0
  6 27  1  0
  7 28  1  0
  8 29  1  0
  8 30  1  0
  9 31  1  0
 11 32  1  0
 13 33  1  0
 14 34  1  0
 15 35  1  0
 16 36  1  0
 16 37  1  0
 17 38  1  0
 18 39  1  0
 18 40  1  0
 19 41  1  0
 20 42  1  0
 20 43  1  0
 21 44  1  0
A    1
O2B
A    2
C2B
A    3
C3B
A    4
O3B
A    5
C4B
A    6
O4B
A    7
C5B
A    8
C6B
A    9
O6B
A   10
O5B
A   11
C1B
A   12
O3A
A   13
C3A
A   14
C4A
A   15
O4A
A   16
C5M
A   17
N5A
A   18
C1A
A   19
C2A
A   20
C6A
A   21
O6A
M  END
