3CUK_4P5_A_402
     RDKit          3D

 16 17  0  0  0  0  0  0  0  0999 V2000
  -20.1580  -18.2090   15.0160 C   0  0  0  0  0  0  0  0  0  0  0  0
  -21.2790  -19.0030   15.2120 C   0  0  0  0  0  0  0  0  0  0  0  0
  -19.7160  -19.8440   16.4330 C   0  0  0  0  0  0  0  0  0  0  0  0
  -21.7800  -17.4660   13.8770 C   0  0  0  0  0  0  0  0  0  0  0  0
  -22.5710  -16.6760   12.9230 C   0  0  0  0  0  0  0  0  0  0  0  0
  -22.1820  -15.5020   12.5050 O   0  0  0  0  0  0  0  0  0  0  0  0
  -23.5740  -17.3520   12.5620 O   0  0  0  0  0  0  0  0  0  0  0  0
  -22.2820  -18.5840   14.5010 N   0  0  0  0  0  0  0  0  0  0  0  0
  -20.4100  -17.2050   14.1490 C   0  0  0  0  0  0  0  0  0  0  0  0
  -19.1530  -18.6810   15.7640 O   0  0  0  0  0  0  0  0  0  0  0  0
  -21.0050  -20.0650   16.1490 C   0  0  0  0  0  0  0  0  0  0  0  0
  -19.1339  -20.4846   17.1118 H   0  0  0  0  0  0  0  0  0  0  0  0
  -24.1707  -17.7541   13.2420 H   0  0  0  0  0  0  0  0  0  0  0  0
  -23.2251  -18.9907   14.4233 H   0  0  0  0  0  0  0  0  0  0  0  0
  -19.7477  -16.4151   13.7651 H   0  0  0  0  0  0  0  0  0  0  0  0
  -21.6771  -20.8484   16.5291 H   0  0  0  0  0  0  0  0  0  0  0  0
  9  1  1  0
  1 10  1  0
  1  2  2  0
  8  2  1  0
  2 11  1  0
 10  3  1  0
  3 11  2  0
  5  4  1  0
  9  4  2  0
  4  8  1  0
  6  5  2  0
  5  7  1  0
  3 12  1  0
  7 13  1  0
  8 14  1  0
  9 15  1  0
 11 16  1  0
A    1
C2
A    2
C3
A    3
C5
A    4
C7
A    5
C9
A    6
O11
A    7
O10
A    8
N8
A    9
C6
A   10
O1
A   11
C4
M  END
