3CV6_HXS_A_351
     RDKit          3D

 42 43  0  0  0  0  0  0  0  0999 V2000
  -13.3320   16.7880    6.1750 C   0  0  0  0  0  0  0  0  0  0  0  0
  -13.3950   16.5570    4.7970 C   0  0  0  0  0  0  0  0  0  0  0  0
  -12.7690   15.4810    4.2530 C   0  0  0  0  0  0  0  0  0  0  0  0
  -12.0890   14.6750    5.1110 C   0  0  0  0  0  0  0  0  0  0  0  0
  -12.0070   14.9200    6.4620 C   0  0  0  0  0  0  0  0  0  0  0  0
  -14.0840   17.3570    3.9730 O   0  0  0  0  0  0  0  0  0  0  0  0
  -12.6440   15.9640    7.0480 C   0  0  0  0  0  0  0  0  0  0  0  0
  -11.2700   13.9170    7.1780 C   0  0  0  0  0  0  0  0  0  0  0  0
  -12.2780   12.8060    7.2860 C   0  0  0  0  0  0  0  0  0  0  0  0
  -13.1610   12.8930    6.0810 C   0  0  0  0  0  0  0  0  0  0  0  0
  -10.3060   14.1140    8.3430 C   0  0  0  0  0  0  0  0  0  0  0  0
   -9.2640   15.1460    8.0140 C   0  0  0  0  0  0  0  0  0  0  0  0
   -8.2220   14.6220    7.0380 C   0  0  0  0  0  0  0  0  0  0  0  0
   -9.6440   12.8110    8.2230 C   0  0  0  0  0  0  0  0  0  0  0  0
   -9.7850   12.1400    7.0480 C   0  0  0  0  0  0  0  0  0  0  0  0
   -9.2160   10.8950    6.9150 C   0  0  0  0  0  0  0  0  0  0  0  0
   -8.5250   10.2760    7.9280 C   0  0  0  0  0  0  0  0  0  0  0  0
   -7.9860    9.0450    7.7140 O   0  0  0  0  0  0  0  0  0  0  0  0
   -8.4110   10.9590    9.1040 C   0  0  0  0  0  0  0  0  0  0  0  0
   -8.9820   12.2070    9.2530 C   0  0  0  0  0  0  0  0  0  0  0  0
  -13.8538   17.6658    6.5838 H   0  0  0  0  0  0  0  0  0  0  0  0
  -12.8102   15.2726    3.1737 H   0  0  0  0  0  0  0  0  0  0  0  0
  -11.5815   13.7868    4.7066 H   0  0  0  0  0  0  0  0  0  0  0  0
  -14.6829   18.0524    4.3443 H   0  0  0  0  0  0  0  0  0  0  0  0
  -12.6159   16.1419    8.1332 H   0  0  0  0  0  0  0  0  0  0  0  0
  -10.3404   13.7669    6.6095 H   0  0  0  0  0  0  0  0  0  0  0  0
  -11.7657   11.8328    7.3087 H   0  0  0  0  0  0  0  0  0  0  0  0
  -12.8670   12.9008    8.2102 H   0  0  0  0  0  0  0  0  0  0  0  0
  -14.2085   12.9962    6.4007 H   0  0  0  0  0  0  0  0  0  0  0  0
  -12.8737   13.7672    5.4783 H   0  0  0  0  0  0  0  0  0  0  0  0
  -13.0499   11.9796    5.4783 H   0  0  0  0  0  0  0  0  0  0  0  0
  -10.7654   14.4108    9.2974 H   0  0  0  0  0  0  0  0  0  0  0  0
   -9.7602   16.0198    7.5666 H   0  0  0  0  0  0  0  0  0  0  0  0
   -8.7471   15.4125    8.9477 H   0  0  0  0  0  0  0  0  0  0  0  0
   -7.3762   14.1967    7.5980 H   0  0  0  0  0  0  0  0  0  0  0  0
   -8.6716   13.8428    6.4050 H   0  0  0  0  0  0  0  0  0  0  0  0
   -7.8646   15.4476    6.4050 H   0  0  0  0  0  0  0  0  0  0  0  0
  -10.3469   12.5875    6.2149 H   0  0  0  0  0  0  0  0  0  0  0  0
   -9.3190   10.3709    5.9534 H   0  0  0  0  0  0  0  0  0  0  0  0
   -7.7358    8.4737    8.4829 H   0  0  0  0  0  0  0  0  0  0  0  0
   -7.8581   10.5102    9.9423 H   0  0  0  0  0  0  0  0  0  0  0  0
   -8.9021   12.7248   10.2202 H   0  0  0  0  0  0  0  0  0  0  0  0
  1  2  2  0
  1  7  1  0
  2  3  1  0
  2  6  1  0
  3  4  2  0
  4  5  1  0
  5  7  2  0
  5  8  1  0
  8  9  1  0
  8 11  1  0
  9 10  1  0
 11 12  1  0
 11 14  1  0
 12 13  1  0
 14 15  2  0
 14 20  1  0
 15 16  1  0
 16 17  2  0
 17 18  1  0
 17 19  1  0
 19 20  2  0
  1 21  1  0
  3 22  1  0
  4 23  1  0
  6 24  1  0
  7 25  1  0
  8 26  1  0
  9 27  1  0
  9 28  1  0
 10 29  1  0
 10 30  1  0
 10 31  1  0
 11 32  1  0
 12 33  1  0
 12 34  1  0
 13 35  1  0
 13 36  1  0
 13 37  1  0
 15 38  1  0
 16 39  1  0
 18 40  1  0
 19 41  1  0
 20 42  1  0
A    1
C1
A    2
C2
A    3
C3
A    4
C4
A    5
C5
A    6
O16
A    7
C
A    8
C7
A    9
C17
A   10
C18
A   11
C8
A   12
C19
A   13
C20
A   14
C9
A   15
C14
A   16
C13
A   17
C12
A   18
O15
A   19
C11
A   20
C10
M  END
