3CXO_3LR_A_501
     RDKit          3D

 23 22  0  0  0  0  0  0  0  0999 V2000
   15.9700   26.3590   86.7010 O   0  0  0  0  0  0  0  0  0  0  0  0
   16.0970   25.2730   86.0930 C   0  0  0  0  0  0  0  0  0  0  0  0
   15.1640   24.5240   85.7230 O   0  0  0  0  0  0  0  0  0  0  0  0
   17.5480   24.8510   85.7830 C   0  0  0  0  0  0  0  0  0  0  0  0
   17.5880   23.5290   85.1960 O   0  0  0  0  0  0  0  0  0  0  0  0
   18.3690   24.9120   87.0760 C   0  0  0  0  0  0  0  0  0  0  0  0
   19.6660   24.1120   87.0100 C   0  0  0  0  0  0  0  0  0  0  0  0
   20.7630   25.0200   86.8930 O   0  0  0  0  0  0  0  0  0  0  0  0
   19.8800   23.2190   88.2440 C   0  0  0  0  0  0  0  0  0  0  0  0
   20.0710   23.9330   89.5930 C   0  0  0  0  0  0  0  0  0  0  0  0
   21.0020   22.3930   87.9950 O   0  0  0  0  0  0  0  0  0  0  0  0
   15.9681   26.3748   87.6909 H   0  0  0  0  0  0  0  0  0  0  0  0
   17.9830   25.5428   85.0467 H   0  0  0  0  0  0  0  0  0  0  0  0
   17.6086   22.8490   85.9153 H   0  0  0  0  0  0  0  0  0  0  0  0
   18.6183   25.9636   87.2811 H   0  0  0  0  0  0  0  0  0  0  0  0
   17.7538   24.4669   87.8719 H   0  0  0  0  0  0  0  0  0  0  0  0
   19.6012   23.4483   86.1352 H   0  0  0  0  0  0  0  0  0  0  0  0
   21.0752   25.2784   87.7962 H   0  0  0  0  0  0  0  0  0  0  0  0
   18.9397   22.6615   88.3663 H   0  0  0  0  0  0  0  0  0  0  0  0
   19.8815   23.2246   90.4129 H   0  0  0  0  0  0  0  0  0  0  0  0
   21.1017   24.3104   89.6654 H   0  0  0  0  0  0  0  0  0  0  0  0
   19.3664   24.7746   89.6654 H   0  0  0  0  0  0  0  0  0  0  0  0
   21.3958   22.1031   88.8558 H   0  0  0  0  0  0  0  0  0  0  0  0
  2  1  1  0
  3  2  2  0
  4  2  1  0
  5  4  1  0
  4  6  1  0
  7  6  1  0
  8  7  1  0
  7  9  1  0
 11  9  1  0
  9 10  1  0
  1 12  1  0
  4 13  1  0
  5 14  1  0
  6 15  1  0
  6 16  1  0
  7 17  1  0
  8 18  1  0
  9 19  1  0
 10 20  1  0
 10 21  1  0
 10 22  1  0
 11 23  1  0
A    1
O1A
A    2
C1
A    3
O1B
A    4
C2
A    5
O2
A    6
C3
A    7
C4
A    8
O4
A    9
C5
A   10
C6
A   11
O5
M  END
