3CXO_1N5_B_502
     RDKit          3D

 26 25  0  0  0  0  0  0  0  0999 V2000
   26.0980   14.6960   50.1390 C   0  0  0  0  0  0  0  0  0  0  0  0
   25.7380   16.1680   50.4340 C   0  0  0  0  0  0  0  0  0  0  0  0
   25.8360   16.9880   49.1270 C   0  0  0  0  0  0  0  0  0  0  0  0
   26.3510   19.2560   49.7990 O   0  0  0  0  0  0  0  0  0  0  0  0
   22.5470   18.2980   47.3810 C   0  0  0  0  0  0  0  0  0  0  0  0
   25.3130   18.4220   49.2970 C   0  0  0  0  0  0  0  0  0  0  0  0
   24.8650   18.9490   47.9570 C   0  0  0  0  0  0  0  0  0  0  0  0
   23.4130   19.3870   47.9890 C   0  0  0  0  0  0  0  0  0  0  0  0
   24.4230   16.2760   51.0030 O   0  0  0  0  0  0  0  0  0  0  0  0
   21.1850   18.6920   47.4130 O   0  0  0  0  0  0  0  0  0  0  0  0
   25.2710   13.8200   50.4970 O   0  0  0  0  0  0  0  0  0  0  0  0
   27.1970   14.4650   49.5670 O   0  0  0  0  0  0  0  0  0  0  0  0
   26.4498   16.5683   51.1710 H   0  0  0  0  0  0  0  0  0  0  0  0
   26.8898   17.0307   48.8145 H   0  0  0  0  0  0  0  0  0  0  0  0
   25.2120   16.4901   48.3702 H   0  0  0  0  0  0  0  0  0  0  0  0
   26.3350   19.2432   50.7888 H   0  0  0  0  0  0  0  0  0  0  0  0
   22.6717   17.3687   47.9562 H   0  0  0  0  0  0  0  0  0  0  0  0
   22.8522   18.1322   46.3373 H   0  0  0  0  0  0  0  0  0  0  0  0
   24.4693   18.4200   50.0028 H   0  0  0  0  0  0  0  0  0  0  0  0
   25.4922   19.8104   47.6838 H   0  0  0  0  0  0  0  0  0  0  0  0
   24.9655   18.1411   47.2173 H   0  0  0  0  0  0  0  0  0  0  0  0
   23.2963   20.3152   47.4104 H   0  0  0  0  0  0  0  0  0  0  0  0
   23.1046   19.5651   49.0298 H   0  0  0  0  0  0  0  0  0  0  0  0
   24.4894   16.2705   51.9908 H   0  0  0  0  0  0  0  0  0  0  0  0
   20.8883   18.7778   48.3536 H   0  0  0  0  0  0  0  0  0  0  0  0
   25.1129   13.6526   51.4598 H   0  0  0  0  0  0  0  0  0  0  0  0
 12  1  2  0
  1  2  1  0
  1 11  1  0
  3  2  1  0
  2  9  1  0
  3  6  1  0
  6  4  1  0
  5 10  1  0
  5  8  1  0
  7  6  1  0
  7  8  1  0
  2 13  1  0
  3 14  1  0
  3 15  1  0
  4 16  1  0
  5 17  1  0
  5 18  1  0
  6 19  1  0
  7 20  1  0
  7 21  1  0
  8 22  1  0
  8 23  1  0
  9 24  1  0
 10 25  1  0
 11 26  1  0
A    1
C1
A    2
C2
A    3
C3
A    4
O4
A    5
C7
A    6
C4
A    7
C5
A    8
C6
A    9
O2
A   10
O7
A   11
O1A
A   12
O1B
M  END
