3CY2_MB9_A_501
     RDKit          3D

 40 43  0  0  0  0  0  0  0  0999 V2000
  -15.2530   33.8740   -0.9240 C   0  0  0  0  0  0  0  0  0  0  0  0
  -14.2000   33.6230   -2.0040 C   0  0  0  0  0  0  0  0  0  0  0  0
  -13.4230   34.8480   -2.3740 N   0  0  0  0  0  0  0  0  0  0  0  0
  -14.2590   36.0250   -2.6530 C   0  0  0  0  0  0  0  0  0  0  0  0
  -15.2080   36.3140   -1.4960 C   0  0  0  0  0  0  0  0  0  0  0  0
  -16.0930   35.0950   -1.1610 C   0  0  0  0  0  0  0  0  0  0  0  0
  -16.8920   34.8570   -2.3860 N   0  0  0  0  0  0  0  0  0  0  0  0
  -17.9550   35.6860   -2.6860 C   0  0  0  0  0  0  0  0  0  0  0  0
  -18.5440   35.4660   -3.7410 O   0  0  0  0  0  0  0  0  0  0  0  0
  -18.5060   36.5040   -1.7050 C   0  0  0  0  0  0  0  0  0  0  0  0
  -19.4870   37.4110   -1.7260 N   0  0  0  0  0  0  0  0  0  0  0  0
  -20.1970   37.8450   -2.9460 C   0  0  0  0  0  0  0  0  0  0  0  0
  -19.7150   37.9170   -0.5110 C   0  0  0  0  0  0  0  0  0  0  0  0
  -20.5910   38.9050   -0.0520 C   0  0  0  0  0  0  0  0  0  0  0  0
  -20.5930   39.2020    1.3070 C   0  0  0  0  0  0  0  0  0  0  0  0
  -21.7020   40.4050    1.8770 Cl  0  0  0  0  0  0  0  0  0  0  0  0
  -19.7360   38.5580    2.2070 C   0  0  0  0  0  0  0  0  0  0  0  0
  -18.8340   37.6140    1.7360 C   0  0  0  0  0  0  0  0  0  0  0  0
  -18.8260   37.2980    0.3820 C   0  0  0  0  0  0  0  0  0  0  0  0
  -18.0600   36.4020   -0.3700 C   0  0  0  0  0  0  0  0  0  0  0  0
  -16.9520   35.4290    0.0470 C   0  0  0  0  0  0  0  0  0  0  0  0
  -17.5610   34.2210    0.6310 C   0  0  0  0  0  0  0  0  0  0  0  0
  -18.0560   33.2890    1.0380 N   0  0  0  0  0  0  0  0  0  0  0  0
  -15.9188   32.9995   -0.8805 H   0  0  0  0  0  0  0  0  0  0  0  0
  -14.7091   34.0403    0.0176 H   0  0  0  0  0  0  0  0  0  0  0  0
  -13.4964   32.8623   -1.6347 H   0  0  0  0  0  0  0  0  0  0  0  0
  -14.7340   33.2925   -2.9071 H   0  0  0  0  0  0  0  0  0  0  0  0
  -12.7900   35.0777   -1.5946 H   0  0  0  0  0  0  0  0  0  0  0  0
  -13.6085   36.8980   -2.8101 H   0  0  0  0  0  0  0  0  0  0  0  0
  -14.8585   35.8210   -3.5525 H   0  0  0  0  0  0  0  0  0  0  0  0
  -14.6158   36.5787   -0.6076 H   0  0  0  0  0  0  0  0  0  0  0  0
  -15.8670   37.1428   -1.7939 H   0  0  0  0  0  0  0  0  0  0  0  0
  -16.6550   34.0747   -3.0126 H   0  0  0  0  0  0  0  0  0  0  0  0
  -21.1043   38.3996   -2.6645 H   0  0  0  0  0  0  0  0  0  0  0  0
  -19.5394   38.4957   -3.5411 H   0  0  0  0  0  0  0  0  0  0  0  0
  -20.4762   36.9630   -3.5411 H   0  0  0  0  0  0  0  0  0  0  0  0
  -21.2606   39.4333   -0.7467 H   0  0  0  0  0  0  0  0  0  0  0  0
  -19.7770   38.7982    3.2797 H   0  0  0  0  0  0  0  0  0  0  0  0
  -18.1333   37.1214    2.4262 H   0  0  0  0  0  0  0  0  0  0  0  0
  -16.3041   35.8882    0.8082 H   0  0  0  0  0  0  0  0  0  0  0  0
  1  2  1  0
  1  6  1  0
  2  3  1  0
  3  4  1  0
  4  5  1  0
  5  6  1  0
  6  7  1  0
  6 21  1  0
  7  8  1  0
  8  9  2  0
  8 10  1  0
 10 11  1  0
 10 20  2  0
 11 12  1  0
 11 13  1  0
 13 14  2  0
 13 19  1  0
 14 15  1  0
 15 16  1  0
 15 17  2  0
 17 18  1  0
 18 19  2  0
 19 20  1  0
 20 21  1  0
 21 22  1  0
 22 23  3  0
  1 24  1  0
  1 25  1  0
  2 26  1  0
  2 27  1  0
  3 28  1  0
  4 29  1  0
  4 30  1  0
  5 31  1  0
  5 32  1  0
  7 33  1  0
 12 34  1  0
 12 35  1  0
 12 36  1  0
 14 37  1  0
 17 38  1  0
 18 39  1  0
 21 40  1  0
A    1
C1K
A    2
C1I
A    3
N1M
A    4
C1J
A    5
C1L
A    6
C1W
A    7
N1N
A    8
C1O
A    9
O1C
A   10
C1Q
A   11
N1V
A   12
C1A
A   13
C1T
A   14
C1H
A   15
C1P
A   16
CL1D
A   17
C1F
A   18
C1G
A   19
C1S
A   20
C1R
A   21
C1U
A   22
C1E
A   23
N1B
M  END
