3CY3_JN5_A_501
     RDKit          3D

 43 46  0  0  0  0  0  0  0  0999 V2000
  -20.4040   39.4460   -2.1720 C   0  0  0  0  0  0  0  0  0  0  0  0
  -21.5700   40.1380   -1.8920 C   0  0  0  0  0  0  0  0  0  0  0  0
  -22.4500   40.3910   -2.9360 C   0  0  0  0  0  0  0  0  0  0  0  0
  -22.1720   39.9710   -4.1680 N   0  0  0  0  0  0  0  0  0  0  0  0
  -21.0510   39.3090   -4.4670 C   0  0  0  0  0  0  0  0  0  0  0  0
  -20.1350   39.0400   -3.4680 C   0  0  0  0  0  0  0  0  0  0  0  0
  -18.8560   38.2960   -3.7540 C   0  0  0  0  0  0  0  0  0  0  0  0
  -19.0280   36.7920   -3.7360 C   0  0  0  0  0  0  0  0  0  0  0  0
  -17.7660   36.1900   -4.1410 N   0  0  0  0  0  0  0  0  0  0  0  0
  -16.9490   35.5930   -3.2600 C   0  0  0  0  0  0  0  0  0  0  0  0
  -17.3290   35.4920   -1.9730 N   0  0  0  0  0  0  0  0  0  0  0  0
  -15.7540   35.1070   -3.6780 N   0  0  0  0  0  0  0  0  0  0  0  0
  -14.9370   34.4990   -2.8280 C   0  0  0  0  0  0  0  0  0  0  0  0
  -15.3140   34.3720   -1.4910 C   0  0  0  0  0  0  0  0  0  0  0  0
  -16.5390   34.8840   -1.0660 C   0  0  0  0  0  0  0  0  0  0  0  0
  -16.9280   34.8130    0.2760 C   0  0  0  0  0  0  0  0  0  0  0  0
  -16.2260   33.9310    1.1390 C   0  0  0  0  0  0  0  0  0  0  0  0
  -15.6530   33.1870    1.7640 N   0  0  0  0  0  0  0  0  0  0  0  0
  -17.8450   35.7200    0.7770 C   0  0  0  0  0  0  0  0  0  0  0  0
  -18.0100   36.0060    2.1330 N   0  0  0  0  0  0  0  0  0  0  0  0
  -18.9890   36.9790    2.3850 C   0  0  0  0  0  0  0  0  0  0  0  0
  -19.4230   37.5090    3.6060 C   0  0  0  0  0  0  0  0  0  0  0  0
  -20.4030   38.5010    3.6240 C   0  0  0  0  0  0  0  0  0  0  0  0
  -20.9960   38.9530    2.4340 C   0  0  0  0  0  0  0  0  0  0  0  0
  -20.5890   38.4210    1.2010 C   0  0  0  0  0  0  0  0  0  0  0  0
  -19.5820   37.4420    1.1940 C   0  0  0  0  0  0  0  0  0  0  0  0
  -18.9530   36.6930   -0.2060 S   0  0  0  0  0  0  0  0  0  0  0  0
  -19.6917   39.2189   -1.3652 H   0  0  0  0  0  0  0  0  0  0  0  0
  -21.7933   40.4782   -0.8701 H   0  0  0  0  0  0  0  0  0  0  0  0
  -23.3825   40.9419   -2.7436 H   0  0  0  0  0  0  0  0  0  0  0  0
  -20.8588   38.9809   -5.4992 H   0  0  0  0  0  0  0  0  0  0  0  0
  -18.4917   38.5950   -4.7479 H   0  0  0  0  0  0  0  0  0  0  0  0
  -18.1411   38.5543   -2.9589 H   0  0  0  0  0  0  0  0  0  0  0  0
  -19.2921   36.4586   -2.7216 H   0  0  0  0  0  0  0  0  0  0  0  0
  -19.8327   36.4912   -4.4230 H   0  0  0  0  0  0  0  0  0  0  0  0
  -17.4921   36.2234   -5.1334 H   0  0  0  0  0  0  0  0  0  0  0  0
  -13.9724   34.0992   -3.1738 H   0  0  0  0  0  0  0  0  0  0  0  0
  -14.6472   33.8697   -0.7747 H   0  0  0  0  0  0  0  0  0  0  0  0
  -17.7953   34.1417    0.1912 H   0  0  0  0  0  0  0  0  0  0  0  0
  -18.9917   37.1435    4.5496 H   0  0  0  0  0  0  0  0  0  0  0  0
  -20.7162   38.9359    4.5846 H   0  0  0  0  0  0  0  0  0  0  0  0
  -21.7796   39.7242    2.4684 H   0  0  0  0  0  0  0  0  0  0  0  0
  -21.0480   38.7628    0.2616 H   0  0  0  0  0  0  0  0  0  0  0  0
  6  1  2  0
  1  2  1  0
  3  2  2  0
  4  3  1  0
  5  4  2  0
  5  6  1  0
  7  6  1  0
  7  8  1  0
  9  8  1  0
  9 10  1  0
 12 10  1  0
 10 11  2  0
 11 15  1  0
 12 13  2  0
 13 14  1  0
 14 15  2  0
 15 16  1  0
 16 19  1  0
 16 17  1  0
 17 18  3  0
 27 19  1  0
 19 20  2  0
 20 21  1  0
 26 21  2  0
 21 22  1  0
 22 23  2  0
 24 23  1  0
 25 24  2  0
 26 25  1  0
 27 26  1  0
  1 28  1  0
  2 29  1  0
  3 30  1  0
  5 31  1  0
  7 32  1  0
  7 33  1  0
  8 34  1  0
  8 35  1  0
  9 36  1  0
 13 37  1  0
 14 38  1  0
 16 39  1  0
 22 40  1  0
 23 41  1  0
 24 42  1  0
 25 43  1  0
A    1
C1W
A    2
C1X
A    3
C1Y
A    4
N1Z
A    5
C2A
A    6
C1V
A    7
C1U
A    8
C1T
A    9
N1S
A   10
C2
A   11
N3
A   12
N1
A   13
C6
A   14
C5
A   15
C4
A   16
C1J
A   17
C1K
A   18
N1L
A   19
C1I
A   20
N1G
A   21
C1E
A   22
C1C
A   23
C1A
A   24
C1B
A   25
C1D
A   26
C1F
A   27
S1H
M  END
