3D04_SAK_A_163
     RDKit          3D

 35 37  0  0  0  0  0  0  0  0999 V2000
   18.8810   16.1720  -11.4600 C   0  0  0  0  0  0  0  0  0  0  0  0
   20.2100   15.9740  -11.8670 C   0  0  0  0  0  0  0  0  0  0  0  0
   20.6550   14.6630  -12.1770 C   0  0  0  0  0  0  0  0  0  0  0  0
   21.9350   14.4710  -12.5680 O   0  0  0  0  0  0  0  0  0  0  0  0
   19.7880   13.5510  -12.0930 C   0  0  0  0  0  0  0  0  0  0  0  0
   18.4530   13.7520  -11.6760 C   0  0  0  0  0  0  0  0  0  0  0  0
   18.0100   15.0620  -11.3670 C   0  0  0  0  0  0  0  0  0  0  0  0
   16.5580   15.3070  -10.9290 C   0  0  0  0  0  0  0  0  0  0  0  0
   15.7740   15.9290  -11.9950 O   0  0  0  0  0  0  0  0  0  0  0  0
   15.8560   14.0000  -10.5120 C   0  0  0  0  0  0  0  0  0  0  0  0
   14.3840   14.3160  -10.2210 C   0  0  0  0  0  0  0  0  0  0  0  0
   13.8360   13.5720   -9.4000 O   0  0  0  0  0  0  0  0  0  0  0  0
   13.6950   15.3690  -10.8350 C   0  0  0  0  0  0  0  0  0  0  0  0
   14.4500   16.1820  -11.7210 C   0  0  0  0  0  0  0  0  0  0  0  0
   13.8440   17.2710  -12.3780 C   0  0  0  0  0  0  0  0  0  0  0  0
   12.4830   17.5630  -12.1530 C   0  0  0  0  0  0  0  0  0  0  0  0
   11.9730   18.6230  -12.8610 O   0  0  0  0  0  0  0  0  0  0  0  0
   10.7520   19.2670  -12.4390 C   0  0  0  0  0  0  0  0  0  0  0  0
   11.7340   16.7550  -11.2730 C   0  0  0  0  0  0  0  0  0  0  0  0
   12.3260   15.6620  -10.6220 C   0  0  0  0  0  0  0  0  0  0  0  0
   11.5240   14.9420   -9.7860 O   0  0  0  0  0  0  0  0  0  0  0  0
   18.5204   17.1820  -11.2155 H   0  0  0  0  0  0  0  0  0  0  0  0
   20.8998   16.8273  -11.9448 H   0  0  0  0  0  0  0  0  0  0  0  0
   22.6488   14.3639  -11.8904 H   0  0  0  0  0  0  0  0  0  0  0  0
   20.1470   12.5431  -12.3485 H   0  0  0  0  0  0  0  0  0  0  0  0
   17.7636   12.8990  -11.5920 H   0  0  0  0  0  0  0  0  0  0  0  0
   16.6122   15.9843  -10.0639 H   0  0  0  0  0  0  0  0  0  0  0  0
   15.9245   13.2645  -11.3271 H   0  0  0  0  0  0  0  0  0  0  0  0
   16.3377   13.5800   -9.6167 H   0  0  0  0  0  0  0  0  0  0  0  0
   14.4331   17.8940  -13.0671 H   0  0  0  0  0  0  0  0  0  0  0  0
   10.7100   19.2891  -11.3400 H   0  0  0  0  0  0  0  0  0  0  0  0
   10.7268   20.2957  -12.8277 H   0  0  0  0  0  0  0  0  0  0  0  0
    9.8888   18.7069  -12.8277 H   0  0  0  0  0  0  0  0  0  0  0  0
   10.6730   16.9842  -11.0947 H   0  0  0  0  0  0  0  0  0  0  0  0
   11.6240   15.0318   -8.8052 H   0  0  0  0  0  0  0  0  0  0  0  0
  1  2  2  0
  1  7  1  0
  2  3  1  0
  3  4  1  0
  3  5  2  0
  5  6  1  0
  6  7  2  0
  7  8  1  0
  8  9  1  0
  8 10  1  0
  9 14  1  0
 10 11  1  0
 11 12  2  0
 11 13  1  0
 13 14  2  0
 13 20  1  0
 14 15  1  0
 15 16  2  0
 16 17  1  0
 16 19  1  0
 17 18  1  0
 19 20  2  0
 20 21  1  0
  1 22  1  0
  2 23  1  0
  4 24  1  0
  5 25  1  0
  6 26  1  0
  8 27  1  0
 10 28  1  0
 10 29  1  0
 15 30  1  0
 18 31  1  0
 18 32  1  0
 18 33  1  0
 19 34  1  0
 21 35  1  0
A    1
CAG
A    2
CAE
A    3
CAO
A    4
OAC
A    5
CAF
A    6
CAH
A    7
CAR
A    8
CAU
A    9
OAM
A   10
CAK
A   11
CAN
A   12
OAB
A   13
CAT
A   14
CAS
A   15
CAJ
A   16
CAP
A   17
OAL
A   18
CAA
A   19
CAI
A   20
CAQ
A   21
OAD
M  END
