3D0B_SNX_A_233
     RDKit          3D

 51 54  0  0  0  0  0  0  0  0999 V2000
   -1.8740  -10.7690  -25.7390 O   0  0  0  0  0  0  0  0  0  0  0  0
   -1.5310  -11.3250  -24.7030 C   0  0  0  0  0  0  0  0  0  0  0  0
   -2.4140  -11.8260  -23.8380 N   0  0  0  0  0  0  0  0  0  0  0  0
   -0.0630  -11.5390  -24.4880 C   0  0  0  0  0  0  0  0  0  0  0  0
    0.3810  -12.5950  -23.6970 C   0  0  0  0  0  0  0  0  0  0  0  0
    1.7530  -12.8120  -23.5350 C   0  0  0  0  0  0  0  0  0  0  0  0
    0.9270  -10.6790  -25.1810 C   0  0  0  0  0  0  0  0  0  0  0  0
    0.5270   -9.6410  -25.9810 N   0  0  0  0  0  0  0  0  0  0  0  0
    1.4850   -8.7870  -26.6830 C   0  0  0  0  0  0  0  0  0  0  0  0
    0.8090   -7.7510  -27.5810 C   0  0  0  0  0  0  0  0  0  0  0  0
   -0.1760   -7.0500  -26.8170 O   0  0  0  0  0  0  0  0  0  0  0  0
   -0.1290   -5.6330  -26.9620 C   0  0  0  0  0  0  0  0  0  0  0  0
    2.2790  -10.9690  -24.9680 C   0  0  0  0  0  0  0  0  0  0  0  0
    2.7350  -12.0110  -24.1490 C   0  0  0  0  0  0  0  0  0  0  0  0
    4.0560  -12.2380  -24.0700 N   0  0  0  0  0  0  0  0  0  0  0  0
    4.9860  -11.3710  -23.6050 C   0  0  0  0  0  0  0  0  0  0  0  0
    4.9570  -10.1250  -22.9820 C   0  0  0  0  0  0  0  0  0  0  0  0
    6.1850   -9.5600  -22.5960 C   0  0  0  0  0  0  0  0  0  0  0  0
    7.4130  -10.1970  -22.8090 C   0  0  0  0  0  0  0  0  0  0  0  0
    7.5090  -11.4460  -23.4230 C   0  0  0  0  0  0  0  0  0  0  0  0
    4.5220  -13.3670  -24.6490 C   0  0  0  0  0  0  0  0  0  0  0  0
    3.8300  -14.5500  -25.2880 C   0  0  0  0  0  0  0  0  0  0  0  0
    4.8560  -15.4580  -25.9860 C   0  0  0  0  0  0  0  0  0  0  0  0
    6.1980  -15.6650  -25.2850 C   0  0  0  0  0  0  0  0  0  0  0  0
    6.8930  -14.3660  -24.9490 C   0  0  0  0  0  0  0  0  0  0  0  0
    8.0950  -14.2160  -25.0670 O   0  0  0  0  0  0  0  0  0  0  0  0
    5.9720  -13.2980  -24.4900 C   0  0  0  0  0  0  0  0  0  0  0  0
    6.3110  -12.0310  -23.8220 C   0  0  0  0  0  0  0  0  0  0  0  0
   -2.2518  -11.7340  -22.8250 H   0  0  0  0  0  0  0  0  0  0  0  0
   -3.2581  -12.3049  -24.1830 H   0  0  0  0  0  0  0  0  0  0  0  0
   -0.3448  -13.2564  -23.2012 H   0  0  0  0  0  0  0  0  0  0  0  0
    2.0803  -13.6472  -22.8984 H   0  0  0  0  0  0  0  0  0  0  0  0
   -0.4802   -9.4562  -26.0916 H   0  0  0  0  0  0  0  0  0  0  0  0
    2.0975   -8.2592  -25.9372 H   0  0  0  0  0  0  0  0  0  0  0  0
    2.0959   -9.4357  -27.3280 H   0  0  0  0  0  0  0  0  0  0  0  0
    1.5604   -7.0405  -27.9559 H   0  0  0  0  0  0  0  0  0  0  0  0
    0.3313   -8.2526  -28.4355 H   0  0  0  0  0  0  0  0  0  0  0  0
   -0.1134   -5.1630  -25.9676 H   0  0  0  0  0  0  0  0  0  0  0  0
    0.7790   -5.3509  -27.5152 H   0  0  0  0  0  0  0  0  0  0  0  0
   -1.0163   -5.2914  -27.5152 H   0  0  0  0  0  0  0  0  0  0  0  0
    3.0285  -10.3421  -25.4732 H   0  0  0  0  0  0  0  0  0  0  0  0
    4.0068   -9.6020  -22.7987 H   0  0  0  0  0  0  0  0  0  0  0  0
    6.1806   -8.5753  -22.1057 H   0  0  0  0  0  0  0  0  0  0  0  0
    8.3350   -9.6950  -22.4806 H   0  0  0  0  0  0  0  0  0  0  0  0
    8.4782  -11.9411  -23.5829 H   0  0  0  0  0  0  0  0  0  0  0  0
    3.3054  -15.1259  -24.5114 H   0  0  0  0  0  0  0  0  0  0  0  0
    3.1119  -14.1823  -26.0357 H   0  0  0  0  0  0  0  0  0  0  0  0
    4.3916  -16.4474  -26.1100 H   0  0  0  0  0  0  0  0  0  0  0  0
    5.1034  -14.9375  -26.9229 H   0  0  0  0  0  0  0  0  0  0  0  0
    6.0245  -16.2216  -24.3522 H   0  0  0  0  0  0  0  0  0  0  0  0
    6.8498  -16.2184  -25.9770 H   0  0  0  0  0  0  0  0  0  0  0  0
  1  2  2  0
  2  3  1  0
  2  4  1  0
  4  5  2  0
  4  7  1  0
  5  6  1  0
  6 14  2  0
  7  8  1  0
  7 13  2  0
  8  9  1  0
  9 10  1  0
 10 11  1  0
 11 12  1  0
 13 14  1  0
 14 15  1  0
 15 16  1  0
 15 21  1  0
 16 17  2  0
 16 28  1  0
 17 18  1  0
 18 19  2  0
 19 20  1  0
 20 28  2  0
 21 22  1  0
 21 27  2  0
 22 23  1  0
 23 24  1  0
 24 25  1  0
 25 26  2  0
 25 27  1  0
 27 28  1  0
  3 29  1  0
  3 30  1  0
  5 31  1  0
  6 32  1  0
  8 33  1  0
  9 34  1  0
  9 35  1  0
 10 36  1  0
 10 37  1  0
 12 38  1  0
 12 39  1  0
 12 40  1  0
 13 41  1  0
 17 42  1  0
 18 43  1  0
 19 44  1  0
 20 45  1  0
 22 46  1  0
 22 47  1  0
 23 48  1  0
 23 49  1  0
 24 50  1  0
 24 51  1  0
A    1
O23
A    2
C21
A    3
N22
A    4
C18
A    5
C17
A    6
C16
A    7
C19
A    8
N24
A    9
C25
A   10
C26
A   11
O27
A   12
C28
A   13
C20
A   14
C15
A   15
N7
A   16
C1
A   17
C6
A   18
C5
A   19
C4
A   20
C3
A   21
C8
A   22
C13
A   23
C12
A   24
C11
A   25
C10
A   26
O14
A   27
C9
A   28
C2
M  END
