3D14_AK1_A_1
     RDKit          3D

 46 49  0  0  0  0  0  0  0  0999 V2000
   -9.0590   27.5570   76.6280 C   0  0  0  0  0  0  0  0  0  0  0  0
   -8.7380   27.5020   77.9380 C   0  0  0  0  0  0  0  0  0  0  0  0
  -14.2610   18.4460   78.1120 C   0  0  0  0  0  0  0  0  0  0  0  0
  -12.9550   20.5970   77.8590 C   0  0  0  0  0  0  0  0  0  0  0  0
  -12.6730   20.7770   80.6270 C   0  0  0  0  0  0  0  0  0  0  0  0
  -12.2570   21.6790   78.4140 C   0  0  0  0  0  0  0  0  0  0  0  0
   -7.9540   28.5940   78.6720 C   0  0  0  0  0  0  0  0  0  0  0  0
  -10.9700   23.6590   77.9790 C   0  0  0  0  0  0  0  0  0  0  0  0
   -6.6750   28.0640   79.3300 C   0  0  0  0  0  0  0  0  0  0  0  0
   -5.1370   30.0380   79.6030 C   0  0  0  0  0  0  0  0  0  0  0  0
   -4.0610   30.9590   77.5860 C   0  0  0  0  0  0  0  0  0  0  0  0
   -4.5240   30.9780   80.3860 C   0  0  0  0  0  0  0  0  0  0  0  0
   -3.6990   31.8790   79.8570 C   0  0  0  0  0  0  0  0  0  0  0  0
   -3.1950   32.7030   80.6740 C   0  0  0  0  0  0  0  0  0  0  0  0
   -3.5770   32.5060   81.8770 C   0  0  0  0  0  0  0  0  0  0  0  0
  -14.6250   18.7030   76.8700 F   0  0  0  0  0  0  0  0  0  0  0  0
   -9.7250   26.5360   76.2380 N   0  0  0  0  0  0  0  0  0  0  0  0
   -9.9610   25.6870   77.2360 C   0  0  0  0  0  0  0  0  0  0  0  0
   -9.3020   26.1840   78.5840 S   0  0  0  0  0  0  0  0  0  0  0  0
   -3.4780   31.8800   78.5410 N   0  0  0  0  0  0  0  0  0  0  0  0
   -5.9800   29.1240   80.0990 N   0  0  0  0  0  0  0  0  0  0  0  0
   -4.9350   30.0150   78.2750 N   0  0  0  0  0  0  0  0  0  0  0  0
   -4.6210   31.2090   82.0520 S   0  0  0  0  0  0  0  0  0  0  0  0
  -13.5090   17.3650   78.1360 F   0  0  0  0  0  0  0  0  0  0  0  0
  -15.3390   18.2210   78.8320 F   0  0  0  0  0  0  0  0  0  0  0  0
  -13.5030   19.6110   78.6870 C   0  0  0  0  0  0  0  0  0  0  0  0
  -13.3610   19.7040   80.0680 C   0  0  0  0  0  0  0  0  0  0  0  0
  -12.1250   21.7590   79.8050 C   0  0  0  0  0  0  0  0  0  0  0  0
  -11.7350   22.6240   77.5930 N   0  0  0  0  0  0  0  0  0  0  0  0
  -10.6870   24.5720   77.0430 N   0  0  0  0  0  0  0  0  0  0  0  0
  -10.5410   23.7650   79.1230 O   0  0  0  0  0  0  0  0  0  0  0  0
   -8.7783   28.3900   75.9666 H   0  0  0  0  0  0  0  0  0  0  0  0
  -13.0723   20.5229   76.7678 H   0  0  0  0  0  0  0  0  0  0  0  0
  -12.5619   20.8496   81.7190 H   0  0  0  0  0  0  0  0  0  0  0  0
   -7.6795   29.3763   77.9491 H   0  0  0  0  0  0  0  0  0  0  0  0
   -8.6002   28.9866   79.4709 H   0  0  0  0  0  0  0  0  0  0  0  0
   -6.9381   27.2419   80.0119 H   0  0  0  0  0  0  0  0  0  0  0  0
   -5.9985   27.7135   78.5366 H   0  0  0  0  0  0  0  0  0  0  0  0
   -3.8726   30.9699   76.5023 H   0  0  0  0  0  0  0  0  0  0  0  0
   -2.5013   33.5043   80.3797 H   0  0  0  0  0  0  0  0  0  0  0  0
   -3.2499   33.1314   82.7207 H   0  0  0  0  0  0  0  0  0  0  0  0
   -6.1633   29.1607   81.1119 H   0  0  0  0  0  0  0  0  0  0  0  0
  -13.7928   18.9290   80.7184 H   0  0  0  0  0  0  0  0  0  0  0  0
  -11.5835   22.6051   80.2533 H   0  0  0  0  0  0  0  0  0  0  0  0
  -11.9428   22.5412   76.5876 H   0  0  0  0  0  0  0  0  0  0  0  0
  -11.0560   24.4070   76.0956 H   0  0  0  0  0  0  0  0  0  0  0  0
 17  1  1  0
  1  2  2  0
  2 19  1  0
  2  7  1  0
 16  3  1  0
  3 24  1  0
  3 26  1  0
  3 25  1  0
  4  6  2  0
  4 26  1  0
 28  5  2  0
 27  5  1  0
 29  6  1  0
  6 28  1  0
  7  9  1  0
 30  8  1  0
 29  8  1  0
  8 31  2  0
  9 21  1  0
 22 10  1  0
 10 21  1  0
 10 12  2  0
 11 22  2  0
 11 20  1  0
 13 12  1  0
 12 23  1  0
 20 13  2  0
 13 14  1  0
 14 15  2  0
 15 23  1  0
 17 18  2  0
 30 18  1  0
 18 19  1  0
 26 27  2  0
  1 32  1  0
  4 33  1  0
  5 34  1  0
  7 35  1  0
  7 36  1  0
  9 37  1  0
  9 38  1  0
 11 39  1  0
 14 40  1  0
 15 41  1  0
 21 42  1  0
 27 43  1  0
 28 44  1  0
 29 45  1  0
 30 46  1  0
A    1
C31
A    2
C27
A    3
C23
A    4
C17
A    5
C20
A    6
C15
A    7
C12
A    8
C14
A    9
C11
A   10
C9
A   11
C7
A   12
C4
A   13
C3
A   14
C2
A   15
C1
A   16
F26
A   17
N30
A   18
C29
A   19
S28
A   20
N6
A   21
N10
A   22
N8
A   23
S5
A   24
F24
A   25
F25
A   26
C18
A   27
C19
A   28
C21
A   29
N22
A   30
N13
A   31
O16
M  END
