3D27_W29_A_265
     RDKit          3D

 27 28  0  0  0  0  0  0  0  0999 V2000
    1.3330   14.4750    9.5170 O   0  0  0  0  0  0  0  0  0  0  0  0
    0.0100   14.1980    9.3210 C   0  0  0  0  0  0  0  0  0  0  0  0
   -0.4300   13.8760    8.0500 C   0  0  0  0  0  0  0  0  0  0  0  0
    0.4590   13.8440    7.0270 O   0  0  0  0  0  0  0  0  0  0  0  0
   -1.7720   13.5850    7.8180 C   0  0  0  0  0  0  0  0  0  0  0  0
   -0.9010   14.2360   10.3800 C   0  0  0  0  0  0  0  0  0  0  0  0
   -2.2480   13.9450   10.1490 C   0  0  0  0  0  0  0  0  0  0  0  0
   -2.6900   13.6180    8.8640 C   0  0  0  0  0  0  0  0  0  0  0  0
   -4.1310   13.3110    8.5960 C   0  0  0  0  0  0  0  0  0  0  0  0
   -4.4990   11.9530    7.5870 S   0  0  0  0  0  0  0  0  0  0  0  0
   -6.2250   12.1260    7.6580 C   0  0  0  0  0  0  0  0  0  0  0  0
   -6.5180   13.2350    8.4590 C   0  0  0  0  0  0  0  0  0  0  0  0
   -5.4220   13.9340    9.0060 C   0  0  0  0  0  0  0  0  0  0  0  0
   -5.5440   15.1530    9.8900 C   0  0  0  0  0  0  0  0  0  0  0  0
   -5.5740   14.7080   11.3300 C   0  0  0  0  0  0  0  0  0  0  0  0
    1.6921   14.5502   10.4365 H   0  0  0  0  0  0  0  0  0  0  0  0
    1.4302   13.8090    7.2161 H   0  0  0  0  0  0  0  0  0  0  0  0
   -2.1084   13.3277    6.8028 H   0  0  0  0  0  0  0  0  0  0  0  0
   -0.5586   14.4943   11.3929 H   0  0  0  0  0  0  0  0  0  0  0  0
   -2.9645   13.9734   10.9831 H   0  0  0  0  0  0  0  0  0  0  0  0
   -6.9602   11.4768    7.1600 H   0  0  0  0  0  0  0  0  0  0  0  0
   -7.5548   13.5472    8.6531 H   0  0  0  0  0  0  0  0  0  0  0  0
   -4.6820   15.8164    9.7260 H   0  0  0  0  0  0  0  0  0  0  0  0
   -6.4679   15.6989    9.6483 H   0  0  0  0  0  0  0  0  0  0  0  0
   -5.5147   15.5882   11.9871 H   0  0  0  0  0  0  0  0  0  0  0  0
   -6.5107   14.1660   11.5268 H   0  0  0  0  0  0  0  0  0  0  0  0
   -4.7185   14.0451   11.5268 H   0  0  0  0  0  0  0  0  0  0  0  0
  2  1  1  0
  3  2  2  0
  2  6  1  0
  4  3  1  0
  5  3  1  0
  5  8  2  0
  7  6  2  0
  8  7  1  0
  9  8  1  0
 10  9  1  0
  9 13  2  0
 10 11  1  0
 11 12  2  0
 12 13  1  0
 13 14  1  0
 14 15  1  0
  1 16  1  0
  4 17  1  0
  5 18  1  0
  6 19  1  0
  7 20  1  0
 11 21  1  0
 12 22  1  0
 14 23  1  0
 14 24  1  0
 15 25  1  0
 15 26  1  0
 15 27  1  0
A    1
O2
A    2
C10
A    3
C05
A    4
O1
A    5
C03
A    6
C06
A    7
C04
A    8
C01
A    9
C02
A   10
S
A   11
C07
A   12
C09
A   13
C08
A   14
C11
A   15
C12
M  END
