3D4L_605_A_1521
     RDKit          3D

 44 46  0  0  0  0  0  0  0  0999 V2000
   34.5290   50.6440   36.2730 C   0  0  0  0  0  0  0  0  0  0  0  0
   35.8890   51.0210   36.5050 C   0  0  0  0  0  0  0  0  0  0  0  0
   36.9850   50.0950   36.3740 C   0  0  0  0  0  0  0  0  0  0  0  0
   36.7160   48.7360   35.9030 C   0  0  0  0  0  0  0  0  0  0  0  0
   35.3450   48.3500   35.6540 C   0  0  0  0  0  0  0  0  0  0  0  0
   34.2400   49.2970   35.8090 C   0  0  0  0  0  0  0  0  0  0  0  0
   38.4110   50.4910   36.6230 C   0  0  0  0  0  0  0  0  0  0  0  0
   39.0860   50.6780   35.1980 C   0  0  0  0  0  0  0  0  0  0  0  0
   40.5140   51.0440   35.3430 C   0  0  0  0  0  0  0  0  0  0  0  0
   38.3660   51.7690   34.4270 N   0  0  0  0  0  0  0  0  0  0  0  0
   41.3460   50.0200   35.9890 C   0  0  0  0  0  0  0  0  0  0  0  0
   42.7230   50.2080   36.1690 C   0  0  0  0  0  0  0  0  0  0  0  0
   43.3890   51.4280   35.7260 C   0  0  0  0  0  0  0  0  0  0  0  0
   42.5660   52.5000   35.0620 C   0  0  0  0  0  0  0  0  0  0  0  0
   41.1480   52.3080   34.8710 C   0  0  0  0  0  0  0  0  0  0  0  0
   44.8660   51.5200   35.9430 C   0  0  0  0  0  0  0  0  0  0  0  0
   45.5940   51.0480   37.1540 C   0  0  0  0  0  0  0  0  0  0  0  0
   47.0410   51.1810   37.2440 C   0  0  0  0  0  0  0  0  0  0  0  0
   47.8030   51.7740   36.1520 C   0  0  0  0  0  0  0  0  0  0  0  0
   47.0940   52.2490   34.9300 C   0  0  0  0  0  0  0  0  0  0  0  0
   45.6500   52.1060   34.8670 C   0  0  0  0  0  0  0  0  0  0  0  0
   35.0740   47.1530   35.2390 F   0  0  0  0  0  0  0  0  0  0  0  0
   36.1150   52.2280   36.9100 F   0  0  0  0  0  0  0  0  0  0  0  0
   47.7730   52.8640   33.7720 C   0  0  0  0  0  0  0  0  0  0  0  0
   47.1900   53.9200   33.1910 N   0  0  0  0  0  0  0  0  0  0  0  0
   48.8340   52.4420   33.3410 O   0  0  0  0  0  0  0  0  0  0  0  0
   33.7138   51.3627   36.4432 H   0  0  0  0  0  0  0  0  0  0  0  0
   37.5386   48.0237   35.7419 H   0  0  0  0  0  0  0  0  0  0  0  0
   33.2079   48.9945   35.5782 H   0  0  0  0  0  0  0  0  0  0  0  0
   38.4498   51.4341   37.1879 H   0  0  0  0  0  0  0  0  0  0  0  0
   38.9373   49.7268   37.2138 H   0  0  0  0  0  0  0  0  0  0  0  0
   39.0136   49.7263   34.6512 H   0  0  0  0  0  0  0  0  0  0  0  0
   37.9314   52.4276   35.0890 H   0  0  0  0  0  0  0  0  0  0  0  0
   39.0409   52.2732   33.8344 H   0  0  0  0  0  0  0  0  0  0  0  0
   40.8789   49.0873   36.3383 H   0  0  0  0  0  0  0  0  0  0  0  0
   43.3147   49.4183   36.6550 H   0  0  0  0  0  0  0  0  0  0  0  0
   43.0455   53.4299   34.7223 H   0  0  0  0  0  0  0  0  0  0  0  0
   40.5422   53.0856   34.3827 H   0  0  0  0  0  0  0  0  0  0  0  0
   45.0343   50.5958   37.9860 H   0  0  0  0  0  0  0  0  0  0  0  0
   47.5647   50.8303   38.1455 H   0  0  0  0  0  0  0  0  0  0  0  0
   48.8960   51.8705   36.2294 H   0  0  0  0  0  0  0  0  0  0  0  0
   45.1260   52.4564   33.9655 H   0  0  0  0  0  0  0  0  0  0  0  0
   46.7787   54.6651   33.7712 H   0  0  0  0  0  0  0  0  0  0  0  0
   47.1528   53.9873   32.1639 H   0  0  0  0  0  0  0  0  0  0  0  0
  1  2  2  0
  1  6  1  0
  2  3  1  0
  2 23  1  0
  3  4  2  0
  3  7  1  0
  4  5  1  0
  5  6  2  0
  5 22  1  0
  7  8  1  0
  8  9  1  0
  8 10  1  0
  9 11  2  0
  9 15  1  0
 11 12  1  0
 12 13  2  0
 13 14  1  0
 13 16  1  0
 14 15  2  0
 16 17  2  0
 16 21  1  0
 17 18  1  0
 18 19  2  0
 19 20  1  0
 20 21  2  0
 20 24  1  0
 24 25  1  0
 24 26  2  0
  1 27  1  0
  4 28  1  0
  6 29  1  0
  7 30  1  0
  7 31  1  0
  8 32  1  0
 10 33  1  0
 10 34  1  0
 11 35  1  0
 12 36  1  0
 14 37  1  0
 15 38  1  0
 17 39  1  0
 18 40  1  0
 19 41  1  0
 21 42  1  0
 25 43  1  0
 25 44  1  0
A    1
C1
A    2
C2
A    3
C3
A    4
C4
A    5
C5
A    6
C6
A    7
C10
A    8
C11
A    9
C14
A   10
N15
A   11
C17
A   12
C18
A   13
C19
A   14
C20
A   15
C21
A   16
C26
A   17
C27
A   18
C28
A   19
C29
A   20
C30
A   21
C31
A   22
F34
A   23
F35
A   24
C40
A   25
N41
A   26
O42
M  END
