3D4Q_SM5_A_1
     RDKit          3D

 51 55  0  0  0  0  0  0  0  0999 V2000
   87.5860    6.9220   -7.5930 C   0  0  0  0  0  0  0  0  0  0  0  0
   86.1670    7.2950   -7.6370 N   0  0  0  0  0  0  0  0  0  0  0  0
   81.6530    4.6490   -5.7640 C   0  0  0  0  0  0  0  0  0  0  0  0
   82.7000    5.5100   -6.1410 C   0  0  0  0  0  0  0  0  0  0  0  0
   82.5440    6.4220   -7.1840 C   0  0  0  0  0  0  0  0  0  0  0  0
   81.1940    6.4880   -7.9520 C   0  0  0  0  0  0  0  0  0  0  0  0
   80.1590    5.5860   -7.5350 C   0  0  0  0  0  0  0  0  0  0  0  0
   80.4380    4.6840   -6.4410 C   0  0  0  0  0  0  0  0  0  0  0  0
   81.8330    9.3240   -7.5860 C   0  0  0  0  0  0  0  0  0  0  0  0
   85.7210    8.5800   -8.0120 N   0  0  0  0  0  0  0  0  0  0  0  0
   80.9140   10.3890   -7.8650 C   0  0  0  0  0  0  0  0  0  0  0  0
   82.5030   11.5550   -9.1340 C   0  0  0  0  0  0  0  0  0  0  0  0
   89.8700    7.4050   -7.8600 C   0  0  0  0  0  0  0  0  0  0  0  0
   83.5760   10.4790   -8.9100 C   0  0  0  0  0  0  0  0  0  0  0  0
   85.1430    6.4040   -7.3060 C   0  0  0  0  0  0  0  0  0  0  0  0
   83.2120    9.4050   -8.1440 C   0  0  0  0  0  0  0  0  0  0  0  0
   83.7340    7.1640   -7.4610 C   0  0  0  0  0  0  0  0  0  0  0  0
   87.7740    5.4600   -8.0120 C   0  0  0  0  0  0  0  0  0  0  0  0
   89.2320    4.9460   -7.7250 C   0  0  0  0  0  0  0  0  0  0  0  0
   84.0570    8.4330   -7.8780 C   0  0  0  0  0  0  0  0  0  0  0  0
   81.2270   11.4930   -8.6190 N   0  0  0  0  0  0  0  0  0  0  0  0
   90.2100    5.9550   -8.2090 N   0  0  0  0  0  0  0  0  0  0  0  0
   88.4150    7.7280   -8.2820 C   0  0  0  0  0  0  0  0  0  0  0  0
   78.7450    5.3560   -8.0390 C   0  0  0  0  0  0  0  0  0  0  0  0
   78.1780    4.1230   -7.0480 C   0  0  0  0  0  0  0  0  0  0  0  0
   79.3620    3.8420   -6.1140 C   0  0  0  0  0  0  0  0  0  0  0  0
   79.4410    3.0460   -5.1830 N   0  0  0  0  0  0  0  0  0  0  0  0
   78.2300    2.3440   -5.0280 O   0  0  0  0  0  0  0  0  0  0  0  0
   87.8803    7.0524   -6.5412 H   0  0  0  0  0  0  0  0  0  0  0  0
   81.7956    3.9453   -4.9306 H   0  0  0  0  0  0  0  0  0  0  0  0
   83.6585    5.4628   -5.6034 H   0  0  0  0  0  0  0  0  0  0  0  0
   81.0389    7.1958   -8.7796 H   0  0  0  0  0  0  0  0  0  0  0  0
   81.5258    8.4644   -6.9722 H   0  0  0  0  0  0  0  0  0  0  0  0
   79.8977   10.3172   -7.4502 H   0  0  0  0  0  0  0  0  0  0  0  0
   82.7705   12.4303   -9.7442 H   0  0  0  0  0  0  0  0  0  0  0  0
   89.9751    7.5521   -6.7750 H   0  0  0  0  0  0  0  0  0  0  0  0
   90.5574    8.0749   -8.3973 H   0  0  0  0  0  0  0  0  0  0  0  0
   84.5836   10.5671   -9.3424 H   0  0  0  0  0  0  0  0  0  0  0  0
   85.2778    5.3584   -6.9921 H   0  0  0  0  0  0  0  0  0  0  0  0
   87.5721    5.3710   -9.0896 H   0  0  0  0  0  0  0  0  0  0  0  0
   87.0762    4.8462   -7.4235 H   0  0  0  0  0  0  0  0  0  0  0  0
   89.3630    4.7961   -6.6432 H   0  0  0  0  0  0  0  0  0  0  0  0
   89.3968    3.9917   -8.2467 H   0  0  0  0  0  0  0  0  0  0  0  0
   90.2671    5.8782   -9.2346 H   0  0  0  0  0  0  0  0  0  0  0  0
   88.1863    8.7795   -8.0537 H   0  0  0  0  0  0  0  0  0  0  0  0
   88.2892    7.5662   -9.3627 H   0  0  0  0  0  0  0  0  0  0  0  0
   78.1341    6.2639   -7.9272 H   0  0  0  0  0  0  0  0  0  0  0  0
   78.7049    5.1019   -9.1085 H   0  0  0  0  0  0  0  0  0  0  0  0
   77.2964    4.4508   -6.4777 H   0  0  0  0  0  0  0  0  0  0  0  0
   77.8558    3.2345   -7.6109 H   0  0  0  0  0  0  0  0  0  0  0  0
   77.8860    2.1446   -4.1214 H   0  0  0  0  0  0  0  0  0  0  0  0
  2  1  1  0
  2 15  1  0
  4  3  2  0
  5  4  1  0
  6  7  1  0
  6  5  2  0
  7  8  2  0
  8 26  1  0
  8  3  1  0
 10 20  2  0
 10  2  1  0
 11  9  2  0
 12 14  1  0
 12 21  2  0
 14 16  2  0
 16 20  1  0
 16  9  1  0
 17 15  2  0
 17  5  1  0
 18 19  1  0
 18  1  1  0
 20 17  1  0
 21 11  1  0
 22 13  1  0
 22 19  1  0
 23 13  1  0
 23  1  1  0
 24  7  1  0
 24 25  1  0
 25 26  1  0
 26 27  2  0
 27 28  1  0
  1 29  1  0
  3 30  1  0
  4 31  1  0
  6 32  1  0
  9 33  1  0
 11 34  1  0
 12 35  1  0
 13 36  1  0
 13 37  1  0
 14 38  1  0
 15 39  1  0
 18 40  1  0
 18 41  1  0
 19 42  1  0
 19 43  1  0
 22 44  1  0
 23 45  1  0
 23 46  1  0
 24 47  1  0
 24 48  1  0
 25 49  1  0
 25 50  1  0
 28 51  1  0
A    1
C18
A    2
N4
A    3
C14
A    4
C13
A    5
C12
A    6
C17
A    7
C16
A    8
C15
A    9
C11
A   10
N3
A   11
C10
A   12
C8
A   13
C22
A   14
C7
A   15
C5
A   16
C6
A   17
C1
A   18
C19
A   19
C20
A   20
C2
A   21
N9
A   22
N21
A   23
C23
A   24
C24
A   25
C25
A   26
C26
A   27
N27
A   28
O28
M  END
