3D6O_U1S_A_125
     RDKit          3D

 43 45  0  0  0  0  0  0  0  0999 V2000
   34.9830   -4.6780   12.4760 C   0  0  0  0  0  0  0  0  0  0  0  0
   36.1580   -4.5630   13.2130 C   0  0  0  0  0  0  0  0  0  0  0  0
   36.9630   -3.4330   13.0620 C   0  0  0  0  0  0  0  0  0  0  0  0
   36.6020   -2.3900   12.1720 N   0  0  0  0  0  0  0  0  0  0  0  0
   34.6140   -3.6620   11.5760 N   0  0  0  0  0  0  0  0  0  0  0  0
   43.6670   -1.7280   15.6860 C   0  0  0  0  0  0  0  0  0  0  0  0
   43.0740   -0.3290   15.4650 C   0  0  0  0  0  0  0  0  0  0  0  0
   42.3070   -0.2320   14.1260 C   0  0  0  0  0  0  0  0  0  0  0  0
   43.1190   -2.7260   14.6560 C   0  0  0  0  0  0  0  0  0  0  0  0
   41.5970   -2.5850   14.4910 C   0  0  0  0  0  0  0  0  0  0  0  0
   41.2220   -1.2390   14.0040 N   0  0  0  0  0  0  0  0  0  0  0  0
   40.0440   -0.7590   14.7480 C   0  0  0  0  0  0  0  0  0  0  0  0
   38.7520   -0.8450   13.9020 C   0  0  0  0  0  0  0  0  0  0  0  0
   38.8130   -1.4260   12.5540 O   0  0  0  0  0  0  0  0  0  0  0  0
   38.2010    0.5180   13.5660 C   0  0  0  0  0  0  0  0  0  0  0  0
   37.7400    1.2280   14.7060 O   0  0  0  0  0  0  0  0  0  0  0  0
   37.0080    0.1200   12.7250 C   0  0  0  0  0  0  0  0  0  0  0  0
   36.8670    1.1950   11.8120 O   0  0  0  0  0  0  0  0  0  0  0  0
   37.4830   -1.1760   12.0090 C   0  0  0  0  0  0  0  0  0  0  0  0
   34.2750   -5.6740   12.6040 O   0  0  0  0  0  0  0  0  0  0  0  0
   35.4160   -2.5160   11.4240 C   0  0  0  0  0  0  0  0  0  0  0  0
   35.0660   -1.6390   10.6350 O   0  0  0  0  0  0  0  0  0  0  0  0
   36.4512   -5.3600   13.9121 H   0  0  0  0  0  0  0  0  0  0  0  0
   37.8932   -3.3501   13.6432 H   0  0  0  0  0  0  0  0  0  0  0  0
   33.7498   -3.7577   11.0238 H   0  0  0  0  0  0  0  0  0  0  0  0
   44.7614   -1.6745   15.5884 H   0  0  0  0  0  0  0  0  0  0  0  0
   43.3867   -2.0729   16.6922 H   0  0  0  0  0  0  0  0  0  0  0  0
   42.3811   -0.1024   16.2888 H   0  0  0  0  0  0  0  0  0  0  0  0
   43.9042    0.3920   15.4349 H   0  0  0  0  0  0  0  0  0  0  0  0
   41.8639    0.7718   14.0478 H   0  0  0  0  0  0  0  0  0  0  0  0
   43.0285   -0.4266   13.3188 H   0  0  0  0  0  0  0  0  0  0  0  0
   43.6027   -2.5403   13.6856 H   0  0  0  0  0  0  0  0  0  0  0  0
   43.3352   -3.7440   15.0122 H   0  0  0  0  0  0  0  0  0  0  0  0
   41.2456   -3.3363   13.7685 H   0  0  0  0  0  0  0  0  0  0  0  0
   41.1298   -2.7362   15.4753 H   0  0  0  0  0  0  0  0  0  0  0  0
   39.9191   -1.3743   15.6512 H   0  0  0  0  0  0  0  0  0  0  0  0
   40.2118    0.2968   15.0070 H   0  0  0  0  0  0  0  0  0  0  0  0
   38.1691   -1.4877   14.5782 H   0  0  0  0  0  0  0  0  0  0  0  0
   38.9444    1.1809   13.0990 H   0  0  0  0  0  0  0  0  0  0  0  0
   38.0409    0.7645   15.5274 H   0  0  0  0  0  0  0  0  0  0  0  0
   36.0578   -0.0596   13.2493 H   0  0  0  0  0  0  0  0  0  0  0  0
   36.7560    2.0414   12.3134 H   0  0  0  0  0  0  0  0  0  0  0  0
   37.4573   -1.0115   10.9217 H   0  0  0  0  0  0  0  0  0  0  0  0
  1  2  1  0
  1  5  1  0
  1 20  2  0
  2  3  2  0
  3  4  1  0
  4 19  1  0
  4 21  1  0
  5 21  1  0
  6  7  1  0
  6  9  1  0
  7  8  1  0
  8 11  1  0
  9 10  1  0
 10 11  1  0
 11 12  1  0
 12 13  1  0
 13 14  1  0
 13 15  1  0
 14 19  1  0
 15 16  1  0
 15 17  1  0
 17 18  1  0
 17 19  1  0
 21 22  2  0
  2 23  1  0
  3 24  1  0
  5 25  1  0
  6 26  1  0
  6 27  1  0
  7 28  1  0
  7 29  1  0
  8 30  1  0
  8 31  1  0
  9 32  1  0
  9 33  1  0
 10 34  1  0
 10 35  1  0
 12 36  1  0
 12 37  1  0
 13 38  1  0
 15 39  1  0
 16 40  1  0
 17 41  1  0
 18 42  1  0
 19 43  1  0
A    1
C4
A    2
C5
A    3
C6
A    4
N1
A    5
N3
A    6
CAV
A    7
CAK
A    8
CAM
A    9
CAJ
A   10
CAL
A   11
NBA
A   12
C5'
A   13
C4'
A   14
O4'
A   15
C3'
A   16
O3'
A   17
C2'
A   18
O2'
A   19
C1'
A   20
O4
A   21
C2
A   22
O2
M  END
