2Q1G_T11_A_308
     RDKit          3D

 31 32  0  0  0  0  0  0  0  0999 V2000
   -4.6320  -22.8910  -24.4620 F   0  0  0  0  0  0  0  0  0  0  0  0
   -5.6820  -23.1220  -23.6900 C   0  0  0  0  0  0  0  0  0  0  0  0
   -5.5520  -24.3120  -23.2050 F   0  0  0  0  0  0  0  0  0  0  0  0
   -5.6870  -22.3150  -22.6600 F   0  0  0  0  0  0  0  0  0  0  0  0
   -7.0350  -23.1310  -24.3860 C   0  0  0  0  0  0  0  0  0  0  0  0
   -7.0960  -23.3250  -25.8230 N   0  0  0  0  0  0  0  0  0  0  0  0
   -7.2670  -22.1490  -25.4250 N   0  0  0  0  0  0  0  0  0  0  0  0
   -8.2390  -23.0800  -23.5060 C   0  0  0  0  0  0  0  0  0  0  0  0
   -9.1110  -21.9930  -23.5080 C   0  0  0  0  0  0  0  0  0  0  0  0
  -10.2020  -22.0130  -22.6270 C   0  0  0  0  0  0  0  0  0  0  0  0
  -10.4180  -23.1260  -21.8150 C   0  0  0  0  0  0  0  0  0  0  0  0
   -9.5440  -24.2120  -21.8440 C   0  0  0  0  0  0  0  0  0  0  0  0
   -8.4660  -24.1790  -22.6950 C   0  0  0  0  0  0  0  0  0  0  0  0
  -11.6170  -23.1580  -20.8770 C   0  0  0  0  0  0  0  0  0  0  0  0
  -12.2850  -24.5010  -20.8630 C   0  0  0  0  0  0  0  0  0  0  0  0
  -12.9770  -24.8320  -22.1270 N   0  0  0  0  0  0  0  0  0  0  0  0
  -13.3140  -24.4450  -19.7600 C   0  0  0  0  0  0  0  0  0  0  0  0
  -14.3190  -25.2370  -19.8530 O   0  0  0  0  0  0  0  0  0  0  0  0
  -13.1300  -23.5940  -18.8450 O   0  0  0  0  0  0  0  0  0  0  0  0
   -6.2351  -23.5628  -26.3360 H   0  0  0  0  0  0  0  0  0  0  0  0
   -8.1990  -21.7193  -25.5117 H   0  0  0  0  0  0  0  0  0  0  0  0
   -8.9477  -21.1405  -24.1837 H   0  0  0  0  0  0  0  0  0  0  0  0
  -10.8857  -21.1528  -22.5766 H   0  0  0  0  0  0  0  0  0  0  0  0
   -9.7153  -25.0831  -21.1945 H   0  0  0  0  0  0  0  0  0  0  0  0
   -7.7759  -25.0348  -22.7325 H   0  0  0  0  0  0  0  0  0  0  0  0
  -11.2771  -22.9200  -19.8583 H   0  0  0  0  0  0  0  0  0  0  0  0
  -12.3484  -22.4189  -21.2359 H   0  0  0  0  0  0  0  0  0  0  0  0
  -11.5163  -25.2742  -20.7173 H   0  0  0  0  0  0  0  0  0  0  0  0
  -13.8866  -25.2671  -21.9167 H   0  0  0  0  0  0  0  0  0  0  0  0
  -13.1261  -23.9711  -22.6724 H   0  0  0  0  0  0  0  0  0  0  0  0
  -13.1891  -23.8676  -17.8954 H   0  0  0  0  0  0  0  0  0  0  0  0
  1  2  1  0
  2  5  1  0
  2  3  1  0
  2  4  1  0
  5  6  1  0
  5  7  1  0
  5  8  1  0
  6  7  1  0
  8  9  2  0
  8 13  1  0
  9 10  1  0
 10 11  2  0
 11 12  1  0
 11 14  1  0
 12 13  2  0
 14 15  1  0
 15 16  1  0
 15 17  1  0
 17 18  2  0
 17 19  1  0
  6 20  1  0
  7 21  1  0
  9 22  1  0
 10 23  1  0
 12 24  1  0
 13 25  1  0
 14 26  1  0
 14 27  1  0
 15 28  1  0
 16 29  1  0
 16 30  1  0
 19 31  1  0
A    1
F17
A    2
C14
A    3
F15
A    4
F16
A    5
C13
A    6
N19
A    7
N18
A    8
C1
A    9
C6
A   10
C5
A   11
C4
A   12
C3
A   13
C2
A   14
C7
A   15
CA
A   16
N
A   17
C
A   18
O
A   19
OXT
M  END
