3D7F_YBY_A_1
     RDKit          3D

 43 43  0  0  0  0  0  0  0  0999 V2000
   24.5760   49.5590   43.6540 I   0  0  0  0  0  0  0  0  0  0  0  0
   23.8790   47.5590   43.8950 C   0  0  0  0  0  0  0  0  0  0  0  0
   22.6010   47.2390   43.4270 C   0  0  0  0  0  0  0  0  0  0  0  0
   24.6430   46.5490   44.5110 C   0  0  0  0  0  0  0  0  0  0  0  0
   25.8970   46.8270   45.0130 O   0  0  0  0  0  0  0  0  0  0  0  0
   24.1490   45.2570   44.6440 C   0  0  0  0  0  0  0  0  0  0  0  0
   22.8670   44.9620   44.1470 C   0  0  0  0  0  0  0  0  0  0  0  0
   22.0970   45.9470   43.5620 C   0  0  0  0  0  0  0  0  0  0  0  0
   20.7040   45.6460   43.0500 C   0  0  0  0  0  0  0  0  0  0  0  0
   19.8060   44.9950   44.1330 C   0  0  0  0  0  0  0  0  0  0  0  0
   20.0030   45.6210   45.4870 C   0  0  0  0  0  0  0  0  0  0  0  0
   19.5510   46.7840   45.6430 O   0  0  0  0  0  0  0  0  0  0  0  0
   20.5090   44.9200   46.3870 O   0  0  0  0  0  0  0  0  0  0  0  0
   18.4710   45.3440   43.6440 N   0  0  0  0  0  0  0  0  0  0  0  0
   17.8270   44.5400   42.7970 C   0  0  0  0  0  0  0  0  0  0  0  0
   18.2340   43.4600   42.3330 O   0  0  0  0  0  0  0  0  0  0  0  0
   16.5800   44.9500   42.4410 N   0  0  0  0  0  0  0  0  0  0  0  0
   15.9050   44.2590   41.3530 C   0  0  0  0  0  0  0  0  0  0  0  0
   16.8580   44.4880   40.1630 C   0  0  0  0  0  0  0  0  0  0  0  0
   17.7830   45.3780   40.1410 O   0  0  0  0  0  0  0  0  0  0  0  0
   16.7740   43.7070   39.1590 O   0  0  0  0  0  0  0  0  0  0  0  0
   14.6180   45.0170   40.9100 C   0  0  0  0  0  0  0  0  0  0  0  0
   14.8230   46.5510   40.8400 C   0  0  0  0  0  0  0  0  0  0  0  0
   13.6940   47.3310   40.1690 C   0  0  0  0  0  0  0  0  0  0  0  0
   12.9140   46.7320   39.3920 O   0  0  0  0  0  0  0  0  0  0  0  0
   13.6530   48.5760   40.4120 O   0  0  0  0  0  0  0  0  0  0  0  0
   21.9869   48.0153   42.9472 H   0  0  0  0  0  0  0  0  0  0  0  0
   26.0424   46.8592   45.9917 H   0  0  0  0  0  0  0  0  0  0  0  0
   24.7520   44.4764   45.1309 H   0  0  0  0  0  0  0  0  0  0  0  0
   22.4744   43.9374   44.2251 H   0  0  0  0  0  0  0  0  0  0  0  0
   20.2370   46.5864   42.7220 H   0  0  0  0  0  0  0  0  0  0  0  0
   20.7985   44.9323   42.2183 H   0  0  0  0  0  0  0  0  0  0  0  0
   20.0075   43.9218   44.2656 H   0  0  0  0  0  0  0  0  0  0  0  0
   20.3478   45.1433   47.3379 H   0  0  0  0  0  0  0  0  0  0  0  0
   18.0252   46.2182   43.9569 H   0  0  0  0  0  0  0  0  0  0  0  0
   16.1235   45.7326   42.9309 H   0  0  0  0  0  0  0  0  0  0  0  0
   15.6664   43.2244   41.6405 H   0  0  0  0  0  0  0  0  0  0  0  0
   18.1502   45.7313   40.9898 H   0  0  0  0  0  0  0  0  0  0  0  0
   14.3217   44.6556   39.9142 H   0  0  0  0  0  0  0  0  0  0  0  0
   13.8400   44.8193   41.6621 H   0  0  0  0  0  0  0  0  0  0  0  0
   14.9310   46.9266   41.8682 H   0  0  0  0  0  0  0  0  0  0  0  0
   15.7150   46.7103   40.2163 H   0  0  0  0  0  0  0  0  0  0  0  0
   13.6424   48.8975   41.3483 H   0  0  0  0  0  0  0  0  0  0  0  0
  1  2  1  0
  3  2  2  0
  2  4  1  0
  3  8  1  0
  4  6  2  0
  4  5  1  0
  7  6  1  0
  8  7  2  0
  9  8  1  0
  9 10  1  0
 14 10  1  0
 10 11  1  0
 11 12  2  0
 11 13  1  0
 15 14  1  0
 16 15  2  0
 17 15  1  0
 18 17  1  0
 19 18  1  0
 22 18  1  0
 21 19  2  0
 20 19  1  0
 23 22  1  0
 24 23  1  0
 25 24  2  0
 24 26  1  0
  3 27  1  0
  5 28  1  0
  6 29  1  0
  7 30  1  0
  9 31  1  0
  9 32  1  0
 10 33  1  0
 13 34  1  0
 14 35  1  0
 17 36  1  0
 18 37  1  0
 20 38  1  0
 22 39  1  0
 22 40  1  0
 23 41  1  0
 23 42  1  0
 26 43  1  0
A    1
I18
A    2
C17
A    3
C16
A    4
C19
A    5
O20
A    6
C21
A    7
C22
A    8
C15
A    9
C14
A   10
C13
A   11
C23
A   12
O25
A   13
O24
A   14
N12
A   15
C11
A   16
O26
A   17
N10
A   18
C6
A   19
C7
A   20
O9
A   21
O8
A   22
C5
A   23
C4
A   24
C2
A   25
O1
A   26
O3
M  END
