3D91_REM_A_350
     RDKit          3D

 94 97  0  0  0  0  0  0  0  0999 V2000
   -0.7120    2.4160   -8.5340 O   0  0  0  0  0  0  0  0  0  0  0  0
    0.5450    2.8230   -7.9670 S   0  0  0  0  0  0  0  0  0  0  0  0
    0.8920    1.9090   -6.9370 O   0  0  0  0  0  0  0  0  0  0  0  0
    1.8020    2.7610   -9.0760 C   0  0  0  0  0  0  0  0  0  0  0  0
    3.1720    2.7680   -8.3870 C   0  0  0  0  0  0  0  0  0  0  0  0
    1.7560    3.9310  -10.0640 C   0  0  0  0  0  0  0  0  0  0  0  0
    1.6600    1.4730   -9.8610 C   0  0  0  0  0  0  0  0  0  0  0  0
    0.2970    4.3810   -7.4060 C   0  0  0  0  0  0  0  0  0  0  0  0
   -0.8670    4.5970   -6.4120 C   0  0  0  0  0  0  0  0  0  0  0  0
   -0.8190    6.0240   -5.8690 C   0  0  0  0  0  0  0  0  0  0  0  0
    0.4240    6.2650   -5.0360 C   0  0  0  0  0  0  0  0  0  0  0  0
    0.3630    6.1090   -3.6620 C   0  0  0  0  0  0  0  0  0  0  0  0
    1.5000    6.3480   -2.9190 C   0  0  0  0  0  0  0  0  0  0  0  0
    2.6800    6.7380   -3.5220 C   0  0  0  0  0  0  0  0  0  0  0  0
    2.7450    6.8790   -4.8850 C   0  0  0  0  0  0  0  0  0  0  0  0
    1.6100    6.6460   -5.6390 C   0  0  0  0  0  0  0  0  0  0  0  0
   -2.2160    4.5790   -7.0220 C   0  0  0  0  0  0  0  0  0  0  0  0
   -2.4010    4.9620   -8.1720 O   0  0  0  0  0  0  0  0  0  0  0  0
   -3.1750    4.1090   -6.2320 N   0  0  0  0  0  0  0  0  0  0  0  0
   -4.5450    4.0370   -6.7010 C   0  0  0  0  0  0  0  0  0  0  0  0
   -4.7460    2.6420   -7.2460 C   0  0  0  0  0  0  0  0  0  0  0  0
   -5.9630    2.5980   -8.1290 C   0  0  0  0  0  0  0  0  0  0  0  0
   -6.0110    2.5050   -9.4500 C   0  0  0  0  0  0  0  0  0  0  0  0
   -7.2130    2.4700   -9.9470 N   0  0  0  0  0  0  0  0  0  0  0  0
   -8.0240    2.5580   -8.8550 C   0  0  0  0  0  0  0  0  0  0  0  0
   -7.2360    2.6230   -7.7560 N   0  0  0  0  0  0  0  0  0  0  0  0
   -5.3800    4.2420   -5.5050 C   0  0  0  0  0  0  0  0  0  0  0  0
   -5.5070    3.3220   -4.7110 O   0  0  0  0  0  0  0  0  0  0  0  0
   -5.9100    5.4730   -5.3510 N   0  0  0  0  0  0  0  0  0  0  0  0
   -6.6730    5.7840   -4.1590 C   0  0  0  0  0  0  0  0  0  0  0  0
   -8.1830    5.7650   -4.4300 C   0  0  0  0  0  0  0  0  0  0  0  0
   -8.4830    6.7330   -5.3880 O   0  0  0  0  0  0  0  0  0  0  0  0
   -8.7130    4.4200   -5.0160 C   0  0  0  0  0  0  0  0  0  0  0  0
  -10.2300    4.2550   -4.9540 C   0  0  0  0  0  0  0  0  0  0  0  0
  -11.0300    4.9520   -6.0500 C   0  0  0  0  0  0  0  0  0  0  0  0
  -10.7920    3.4470   -6.1540 C   0  0  0  0  0  0  0  0  0  0  0  0
   -8.2020    3.5190   -4.0760 O   0  0  0  0  0  0  0  0  0  0  0  0
   -6.1200    7.1700   -3.8250 C   0  0  0  0  0  0  0  0  0  0  0  0
   -4.6950    7.1450   -3.2860 C   0  0  0  0  0  0  0  0  0  0  0  0
   -4.4040    8.5190   -2.6700 C   0  0  0  0  0  0  0  0  0  0  0  0
   -2.8840    8.6070   -2.5010 C   0  0  0  0  0  0  0  0  0  0  0  0
   -2.2990    7.4520   -1.6730 C   0  0  0  0  0  0  0  0  0  0  0  0
   -2.9480    6.0550   -1.8460 C   0  0  0  0  0  0  0  0  0  0  0  0
   -4.4390    6.0850   -2.1970 C   0  0  0  0  0  0  0  0  0  0  0  0
    3.0336    2.7673   -7.2957 H   0  0  0  0  0  0  0  0  0  0  0  0
    3.7371    1.8727   -8.6855 H   0  0  0  0  0  0  0  0  0  0  0  0
    3.7280    3.6690   -8.6855 H   0  0  0  0  0  0  0  0  0  0  0  0
    1.7187    4.8793   -9.5078 H   0  0  0  0  0  0  0  0  0  0  0  0
    2.6556    3.9122  -10.6968 H   0  0  0  0  0  0  0  0  0  0  0  0
    0.8607    3.8416  -10.6968 H   0  0  0  0  0  0  0  0  0  0  0  0
    1.5667    0.6272   -9.1640 H   0  0  0  0  0  0  0  0  0  0  0  0
    0.7623    1.5268  -10.4945 H   0  0  0  0  0  0  0  0  0  0  0  0
    2.5478    1.3299  -10.4945 H   0  0  0  0  0  0  0  0  0  0  0  0
    1.2225    4.7043   -6.9071 H   0  0  0  0  0  0  0  0  0  0  0  0
    0.0201    4.9627   -8.2976 H   0  0  0  0  0  0  0  0  0  0  0  0
   -0.7352    3.7829   -5.6840 H   0  0  0  0  0  0  0  0  0  0  0  0
   -0.8235    6.7276   -6.7146 H   0  0  0  0  0  0  0  0  0  0  0  0
   -1.6980    6.1758   -5.2254 H   0  0  0  0  0  0  0  0  0  0  0  0
   -0.5729    5.8008   -3.1729 H   0  0  0  0  0  0  0  0  0  0  0  0
    1.4666    6.2258   -1.8263 H   0  0  0  0  0  0  0  0  0  0  0  0
    3.5704    6.9361   -2.9073 H   0  0  0  0  0  0  0  0  0  0  0  0
    3.6869    7.1733   -5.3711 H   0  0  0  0  0  0  0  0  0  0  0  0
    1.6500    6.7649   -6.7318 H   0  0  0  0  0  0  0  0  0  0  0  0
   -2.9436    3.7934   -5.2792 H   0  0  0  0  0  0  0  0  0  0  0  0
   -4.7911    4.7745   -7.4791 H   0  0  0  0  0  0  0  0  0  0  0  0
   -3.8618    2.3501   -7.8316 H   0  0  0  0  0  0  0  0  0  0  0  0
   -4.8875    1.9461   -6.4059 H   0  0  0  0  0  0  0  0  0  0  0  0
   -5.1075    2.4609  -10.0759 H   0  0  0  0  0  0  0  0  0  0  0  0
   -9.1238    2.5735   -8.8649 H   0  0  0  0  0  0  0  0  0  0  0  0
   -7.5717    2.6825   -6.7841 H   0  0  0  0  0  0  0  0  0  0  0  0
   -5.7728    6.1894   -6.0782 H   0  0  0  0  0  0  0  0  0  0  0  0
   -6.5714    5.0651   -3.3327 H   0  0  0  0  0  0  0  0  0  0  0  0
   -8.6568    5.9368   -3.4522 H   0  0  0  0  0  0  0  0  0  0  0  0
   -8.7438    7.5745   -4.9364 H   0  0  0  0  0  0  0  0  0  0  0  0
   -8.4327    4.3130   -6.0743 H   0  0  0  0  0  0  0  0  0  0  0  0
  -10.3064    4.2233   -3.8571 H   0  0  0  0  0  0  0  0  0  0  0  0
  -12.0390    5.3324   -5.8328 H   0  0  0  0  0  0  0  0  0  0  0  0
  -10.8446    5.8098   -6.7132 H   0  0  0  0  0  0  0  0  0  0  0  0
  -10.1092    3.0480   -6.9186 H   0  0  0  0  0  0  0  0  0  0  0  0
  -11.4333    2.5605   -6.2674 H   0  0  0  0  0  0  0  0  0  0  0  0
   -8.3909    3.8520   -3.1630 H   0  0  0  0  0  0  0  0  0  0  0  0
   -6.1349    7.7801   -4.7402 H   0  0  0  0  0  0  0  0  0  0  0  0
   -6.7572    7.5889   -3.0323 H   0  0  0  0  0  0  0  0  0  0  0  0
   -4.0430    6.8923   -4.1352 H   0  0  0  0  0  0  0  0  0  0  0  0
   -4.7589    9.3177   -3.3379 H   0  0  0  0  0  0  0  0  0  0  0  0
   -4.9190    8.6396   -1.7055 H   0  0  0  0  0  0  0  0  0  0  0  0
   -2.4199    8.5923   -3.4982 H   0  0  0  0  0  0  0  0  0  0  0  0
   -2.6689    9.5396   -1.9588 H   0  0  0  0  0  0  0  0  0  0  0  0
   -1.2362    7.3583   -1.9408 H   0  0  0  0  0  0  0  0  0  0  0  0
   -2.4944    7.7271   -0.6260 H   0  0  0  0  0  0  0  0  0  0  0  0
   -2.4163    5.5267   -2.6511 H   0  0  0  0  0  0  0  0  0  0  0  0
   -2.8664    5.5499   -0.8722 H   0  0  0  0  0  0  0  0  0  0  0  0
   -5.0213    6.3362   -1.2982 H   0  0  0  0  0  0  0  0  0  0  0  0
   -4.7451    5.0969   -2.5712 H   0  0  0  0  0  0  0  0  0  0  0  0
  1  2  2  0
  2  3  2  0
  2  4  1  0
  2  8  1  0
  4  5  1  0
  4  6  1  0
  4  7  1  0
  8  9  1  0
  9 10  1  0
  9 17  1  0
 10 11  1  0
 11 12  2  0
 11 16  1  0
 12 13  1  0
 13 14  2  0
 14 15  1  0
 15 16  2  0
 17 18  2  0
 17 19  1  0
 19 20  1  0
 20 21  1  0
 20 27  1  0
 21 22  1  0
 22 23  2  0
 22 26  1  0
 23 24  1  0
 24 25  2  0
 25 26  1  0
 27 28  2  0
 27 29  1  0
 29 30  1  0
 30 31  1  0
 30 38  1  0
 31 32  1  0
 31 33  1  0
 33 34  1  0
 33 37  1  0
 34 35  1  0
 34 36  1  0
 35 36  1  0
 38 39  1  0
 39 40  1  0
 39 44  1  0
 40 41  1  0
 41 42  1  0
 42 43  1  0
 43 44  1  0
  5 45  1  0
  5 46  1  0
  5 47  1  0
  6 48  1  0
  6 49  1  0
  6 50  1  0
  7 51  1  0
  7 52  1  0
  7 53  1  0
  8 54  1  0
  8 55  1  0
  9 56  1  0
 10 57  1  0
 10 58  1  0
 12 59  1  0
 13 60  1  0
 14 61  1  0
 15 62  1  0
 16 63  1  0
 19 64  1  0
 20 65  1  0
 21 66  1  0
 21 67  1  0
 23 68  1  0
 25 69  1  0
 26 70  1  0
 29 71  1  0
 30 72  1  0
 31 73  1  0
 32 74  1  0
 33 75  1  0
 34 76  1  0
 35 77  1  0
 35 78  1  0
 36 79  1  0
 36 80  1  0
 37 81  1  0
 38 82  1  0
 38 83  1  0
 39 84  1  0
 40 85  1  0
 40 86  1  0
 41 87  1  0
 41 88  1  0
 42 89  1  0
 42 90  1  0
 43 91  1  0
 43 92  1  0
 44 93  1  0
 44 94  1  0
A    1
O41
A    2
S38
A    3
O40
A    4
C39
A    5
C44
A    6
C43
A    7
C42
A    8
C37
A    9
C1
A   10
C4
A   11
C5
A   12
C7
A   13
C9
A   14
C10
A   15
C8
A   16
C6
A   17
C2
A   18
O3
A   19
N11
A   20
C12
A   21
C15
A   22
C16
A   23
C18
A   24
N20
A   25
C19
A   26
N17
A   27
C13
A   28
O14
A   29
N24
A   30
C21
A   31
C22
A   32
O25
A   33
C23
A   34
C34
A   35
C36
A   36
C35
A   37
O26
A   38
C27
A   39
C28
A   40
C33
A   41
C32
A   42
C31
A   43
C30
A   44
C29
M  END
