3D94_D94_A_1
     RDKit          3D

 68 74  0  0  0  0  0  0  0  0999 V2000
   25.4110   13.5940   -7.6470 N   0  0  0  0  0  0  0  0  0  0  0  0
   24.5920   13.5810   -6.5360 C   0  0  0  0  0  0  0  0  0  0  0  0
   24.2220   14.8190   -5.8410 C   0  0  0  0  0  0  0  0  0  0  0  0
   23.4050   14.7300   -4.7190 N   0  0  0  0  0  0  0  0  0  0  0  0
   22.9520   13.4880   -4.2750 C   0  0  0  0  0  0  0  0  0  0  0  0
   23.3360   12.3950   -4.9700 C   0  0  0  0  0  0  0  0  0  0  0  0
   24.1530   12.4190   -6.0860 N   0  0  0  0  0  0  0  0  0  0  0  0
   23.1950   16.0030   -4.2520 C   0  0  0  0  0  0  0  0  0  0  0  0
   22.3500   16.3460   -3.0250 C   0  0  0  0  0  0  0  0  0  0  0  0
   22.1470   17.8370   -2.6380 C   0  0  0  0  0  0  0  0  0  0  0  0
   22.1160   17.2840   -1.1870 C   0  0  0  0  0  0  0  0  0  0  0  0
   22.4270   18.2710   -0.1040 N   0  0  0  0  0  0  0  0  0  0  0  0
   22.2820   19.7040   -0.4220 C   0  0  0  0  0  0  0  0  0  0  0  0
   22.3280   20.5830    0.8250 C   0  0  0  0  0  0  0  0  0  0  0  0
   23.6150   20.3230    1.5740 N   0  0  0  0  0  0  0  0  0  0  0  0
   23.6940   21.1880    2.8030 C   0  0  0  0  0  0  0  0  0  0  0  0
   23.8600   18.8530    1.8580 C   0  0  0  0  0  0  0  0  0  0  0  0
   23.7000   17.9910    0.5990 C   0  0  0  0  0  0  0  0  0  0  0  0
   23.1790   16.2950   -1.7100 C   0  0  0  0  0  0  0  0  0  0  0  0
   23.8300   16.8880   -5.0040 N   0  0  0  0  0  0  0  0  0  0  0  0
   24.4580   16.1760   -6.0040 C   0  0  0  0  0  0  0  0  0  0  0  0
   25.3340   16.8980   -6.8990 C   0  0  0  0  0  0  0  0  0  0  0  0
   25.0300   18.1480   -7.4770 C   0  0  0  0  0  0  0  0  0  0  0  0
   25.9680   18.8360   -8.2660 C   0  0  0  0  0  0  0  0  0  0  0  0
   27.2750   18.2740   -8.4140 C   0  0  0  0  0  0  0  0  0  0  0  0
   27.6120   17.0500   -7.7860 C   0  0  0  0  0  0  0  0  0  0  0  0
   26.6420   16.4030   -7.0190 C   0  0  0  0  0  0  0  0  0  0  0  0
   25.6130   20.0080   -8.8560 N   0  0  0  0  0  0  0  0  0  0  0  0
   26.5490   20.6850   -9.6020 C   0  0  0  0  0  0  0  0  0  0  0  0
   27.8420   20.1790   -9.7920 C   0  0  0  0  0  0  0  0  0  0  0  0
   28.2070   18.9680   -9.1950 C   0  0  0  0  0  0  0  0  0  0  0  0
   26.0940   21.9370  -10.2520 C   0  0  0  0  0  0  0  0  0  0  0  0
   26.8600   23.1160  -10.2980 C   0  0  0  0  0  0  0  0  0  0  0  0
   26.3910   24.2580  -10.9590 C   0  0  0  0  0  0  0  0  0  0  0  0
   25.1430   24.2420  -11.5940 C   0  0  0  0  0  0  0  0  0  0  0  0
   24.3670   23.0950  -11.5630 C   0  0  0  0  0  0  0  0  0  0  0  0
   24.8490   21.9580  -10.9160 C   0  0  0  0  0  0  0  0  0  0  0  0
   26.4345   13.6102   -7.5322 H   0  0  0  0  0  0  0  0  0  0  0  0
   24.9987   13.5875   -8.5909 H   0  0  0  0  0  0  0  0  0  0  0  0
   22.3047   13.4013   -3.3899 H   0  0  0  0  0  0  0  0  0  0  0  0
   22.9731   11.4160   -4.6237 H   0  0  0  0  0  0  0  0  0  0  0  0
   21.4896   15.7131   -3.2880 H   0  0  0  0  0  0  0  0  0  0  0  0
   22.9897   18.5045   -2.8712 H   0  0  0  0  0  0  0  0  0  0  0  0
   21.3583   18.4747   -3.0637 H   0  0  0  0  0  0  0  0  0  0  0  0
   21.2259   16.9206   -0.6526 H   0  0  0  0  0  0  0  0  0  0  0  0
   23.1001   20.0014   -1.0945 H   0  0  0  0  0  0  0  0  0  0  0  0
   21.2996   19.8451   -0.8964 H   0  0  0  0  0  0  0  0  0  0  0  0
   22.2824   21.6417    0.5299 H   0  0  0  0  0  0  0  0  0  0  0  0
   21.4711   20.3472    1.4731 H   0  0  0  0  0  0  0  0  0  0  0  0
   23.6362   20.5553    3.7010 H   0  0  0  0  0  0  0  0  0  0  0  0
   24.6462   21.7388    2.8032 H   0  0  0  0  0  0  0  0  0  0  0  0
   22.8573   21.9021    2.8032 H   0  0  0  0  0  0  0  0  0  0  0  0
   24.8827   18.7314    2.2443 H   0  0  0  0  0  0  0  0  0  0  0  0
   23.1146   18.5201    2.5952 H   0  0  0  0  0  0  0  0  0  0  0  0
   23.7200   16.9302    0.8894 H   0  0  0  0  0  0  0  0  0  0  0  0
   24.5272   18.2305   -0.0854 H   0  0  0  0  0  0  0  0  0  0  0  0
   23.2026   15.3179   -1.2053 H   0  0  0  0  0  0  0  0  0  0  0  0
   24.2610   16.4884   -1.6670 H   0  0  0  0  0  0  0  0  0  0  0  0
   24.0388   18.5936   -7.3069 H   0  0  0  0  0  0  0  0  0  0  0  0
   28.6173   16.6184   -7.9004 H   0  0  0  0  0  0  0  0  0  0  0  0
   26.9110   15.4758   -6.4918 H   0  0  0  0  0  0  0  0  0  0  0  0
   28.5666   20.7318  -10.4079 H   0  0  0  0  0  0  0  0  0  0  0  0
   29.2198   18.5634   -9.3382 H   0  0  0  0  0  0  0  0  0  0  0  0
   27.8438   23.1413   -9.8066 H   0  0  0  0  0  0  0  0  0  0  0  0
   27.0049   25.1705  -10.9795 H   0  0  0  0  0  0  0  0  0  0  0  0
   24.7794   25.1390  -12.1167 H   0  0  0  0  0  0  0  0  0  0  0  0
   23.3783   23.0814  -12.0450 H   0  0  0  0  0  0  0  0  0  0  0  0
   24.2367   21.0442  -10.9234 H   0  0  0  0  0  0  0  0  0  0  0  0
  1  2  1  0
  2  7  2  0
  2  3  1  0
 21  3  2  0
  3  4  1  0
  4  5  1  0
  4  8  1  0
  6  5  2  0
  7  6  1  0
 20  8  2  0
  8  9  1  0
  9 10  1  0
  9 19  1  0
 10 11  1  0
 19 11  1  0
 11 12  1  0
 13 12  1  0
 12 18  1  0
 13 14  1  0
 14 15  1  0
 15 17  1  0
 15 16  1  0
 18 17  1  0
 21 20  1  0
 22 21  1  0
 23 22  2  0
 27 22  1  0
 24 23  1  0
 28 24  2  0
 25 24  1  0
 31 25  2  0
 25 26  1  0
 26 27  2  0
 29 28  1  0
 32 29  1  0
 30 29  2  0
 30 31  1  0
 37 32  1  0
 33 32  2  0
 34 33  1  0
 35 34  2  0
 35 36  1  0
 36 37  2  0
  1 38  1  0
  1 39  1  0
  5 40  1  0
  6 41  1  0
  9 42  1  0
 10 43  1  0
 10 44  1  0
 11 45  1  0
 13 46  1  0
 13 47  1  0
 14 48  1  0
 14 49  1  0
 16 50  1  0
 16 51  1  0
 16 52  1  0
 17 53  1  0
 17 54  1  0
 18 55  1  0
 18 56  1  0
 19 57  1  0
 19 58  1  0
 23 59  1  0
 26 60  1  0
 27 61  1  0
 30 62  1  0
 31 63  1  0
 33 64  1  0
 34 65  1  0
 35 66  1  0
 36 67  1  0
 37 68  1  0
A    1
N5
A    2
C3
A    3
C4
A    4
N2
A    5
C2
A    6
C1
A    7
N1
A    8
C5
A    9
C22
A   10
C23
A   11
C24
A   12
N6
A   13
C26
A   14
C27
A   15
N7
A   16
C30
A   17
C28
A   18
C29
A   19
C25
A   20
N3
A   21
C6
A   22
C7
A   23
C8
A   24
C12
A   25
C11
A   26
C9
A   27
C10
A   28
N4
A   29
C13
A   30
C14
A   31
C15
A   32
C16
A   33
C17
A   34
C18
A   35
C19
A   36
C20
A   37
C21
M  END
