3DA2_4MD_A_401
     RDKit          3D

 38 39  0  0  0  0  0  0  0  0999 V2000
    5.4090   19.8470   24.9230 C   0  0  0  0  0  0  0  0  0  0  0  0
    6.0110   20.4140   26.0390 C   0  0  0  0  0  0  0  0  0  0  0  0
    5.7150   21.7250   26.4000 C   0  0  0  0  0  0  0  0  0  0  0  0
    6.4640   22.4220   27.7860 Cl  0  0  0  0  0  0  0  0  0  0  0  0
    4.8260   22.4820   25.6500 C   0  0  0  0  0  0  0  0  0  0  0  0
    4.2260   21.9180   24.5260 C   0  0  0  0  0  0  0  0  0  0  0  0
    4.5250   20.6080   24.1610 C   0  0  0  0  0  0  0  0  0  0  0  0
    3.8440   19.9830   22.9550 C   0  0  0  0  0  0  0  0  0  0  0  0
    2.9130   19.0070   23.5530 N   0  0  0  0  0  0  0  0  0  0  0  0
    3.6310   17.7290   23.7370 C   0  0  0  0  0  0  0  0  0  0  0  0
    1.5500   18.8040   22.6650 S   0  0  0  0  0  0  0  0  0  0  0  0
    1.3840   19.9750   21.7390 O   0  0  0  0  0  0  0  0  0  0  0  0
    0.3430   18.6770   23.5370 O   0  0  0  0  0  0  0  0  0  0  0  0
    1.8390   17.3710   21.7600 C   0  0  0  0  0  0  0  0  0  0  0  0
    1.7850   17.4620   20.3900 C   0  0  0  0  0  0  0  0  0  0  0  0
    2.0350   16.3430   19.6250 C   0  0  0  0  0  0  0  0  0  0  0  0
    2.1700   16.1760   22.3880 C   0  0  0  0  0  0  0  0  0  0  0  0
    2.4330   15.0470   21.6190 C   0  0  0  0  0  0  0  0  0  0  0  0
    2.3880   15.1430   20.2320 C   0  0  0  0  0  0  0  0  0  0  0  0
    2.6770   13.7900   19.1840 S   0  0  0  0  0  0  0  0  0  0  0  0
    2.4410   12.5120   19.9190 O   0  0  0  0  0  0  0  0  0  0  0  0
    4.0610   13.6420   18.6290 O   0  0  0  0  0  0  0  0  0  0  0  0
    1.6130   14.0700   17.9780 N   0  0  0  0  0  0  0  0  0  0  0  0
    5.6283   18.8060   24.6432 H   0  0  0  0  0  0  0  0  0  0  0  0
    6.7223   19.8263   26.6379 H   0  0  0  0  0  0  0  0  0  0  0  0
    4.5971   23.5180   25.9403 H   0  0  0  0  0  0  0  0  0  0  0  0
    3.5162   22.5076   23.9271 H   0  0  0  0  0  0  0  0  0  0  0  0
    3.2989   20.7416   22.3742 H   0  0  0  0  0  0  0  0  0  0  0  0
    4.5543   19.5228   22.2524 H   0  0  0  0  0  0  0  0  0  0  0  0
    3.7459   17.5244   24.8117 H   0  0  0  0  0  0  0  0  0  0  0  0
    3.0578   16.9156   23.2682 H   0  0  0  0  0  0  0  0  0  0  0  0
    4.6239   17.7954   23.2682 H   0  0  0  0  0  0  0  0  0  0  0  0
    1.5441   18.4207   19.9074 H   0  0  0  0  0  0  0  0  0  0  0  0
    1.9549   16.3996   18.5294 H   0  0  0  0  0  0  0  0  0  0  0  0
    2.2236   16.1234   23.4854 H   0  0  0  0  0  0  0  0  0  0  0  0
    2.6739   14.0888   22.1025 H   0  0  0  0  0  0  0  0  0  0  0  0
    0.6954   14.3115   18.3788 H   0  0  0  0  0  0  0  0  0  0  0  0
    1.9501   14.8509   17.3971 H   0  0  0  0  0  0  0  0  0  0  0  0
  1  2  2  0
  1  7  1  0
  2  3  1  0
  3  4  1  0
  3  5  2  0
  5  6  1  0
  6  7  2  0
  7  8  1  0
  8  9  1  0
  9 10  1  0
  9 11  1  0
 11 12  2  0
 11 13  2  0
 11 14  1  0
 14 15  2  0
 14 17  1  0
 15 16  1  0
 16 19  2  0
 17 18  2  0
 18 19  1  0
 19 20  1  0
 20 21  2  0
 20 22  2  0
 20 23  1  0
  1 24  1  0
  2 25  1  0
  5 26  1  0
  6 27  1  0
  8 28  1  0
  8 29  1  0
 10 30  1  0
 10 31  1  0
 10 32  1  0
 15 33  1  0
 16 34  1  0
 17 35  1  0
 18 36  1  0
 23 37  1  0
 23 38  1  0
A    1
C1S
A    2
C1V
A    3
C1Q
A    4
CL1R
A    5
C1U
A    6
C1T
A    7
C1P
A    8
C1J
A    9
N1C
A   10
C1W
A   11
S1A
A   12
O1F
A   13
O1G
A   14
C1D
A   15
C1M
A   16
C1N
A   17
C1L
A   18
C1O
A   19
C1E
A   20
S1B
A   21
O1H
A   22
O1I
A   23
N1K
M  END
