3DAJ_FXG_A_1
     RDKit          3D

 60 62  0  0  0  0  0  0  0  0999 V2000
   73.1820   22.8950    7.8020 O   0  0  0  0  0  0  0  0  0  0  0  0
   72.5920   22.0780    7.1100 C   0  0  0  0  0  0  0  0  0  0  0  0
   71.2610   21.5100    7.5540 C   0  0  0  0  0  0  0  0  0  0  0  0
   70.4200   22.5610    8.2730 C   0  0  0  0  0  0  0  0  0  0  0  0
   69.3260   23.1030    7.3630 C   0  0  0  0  0  0  0  0  0  0  0  0
   69.7120   24.4670    6.8050 C   0  0  0  0  0  0  0  0  0  0  0  0
   68.5820   25.0450    5.9640 C   0  0  0  0  0  0  0  0  0  0  0  0
   68.9530   24.7540    4.5850 N   0  0  0  0  0  0  0  0  0  0  0  0
   68.1410   25.0770    3.5450 C   0  0  0  0  0  0  0  0  0  0  0  0
   68.5330   24.7830    2.2450 C   0  0  0  0  0  0  0  0  0  0  0  0
   67.6800   25.1320    1.2210 C   0  0  0  0  0  0  0  0  0  0  0  0
   68.2170   24.7710    0.0430 N   0  0  0  0  0  0  0  0  0  0  0  0
   69.4120   24.1980    0.3300 C   0  0  0  0  0  0  0  0  0  0  0  0
   69.6080   24.2030    1.6740 N   0  0  0  0  0  0  0  0  0  0  0  0
   66.4880   25.7390    1.4390 N   0  0  0  0  0  0  0  0  0  0  0  0
   66.1390   26.0100    2.7080 C   0  0  0  0  0  0  0  0  0  0  0  0
   66.9440   25.6890    3.7390 N   0  0  0  0  0  0  0  0  0  0  0  0
   73.0500   21.6220    5.9420 N   0  0  0  0  0  0  0  0  0  0  0  0
   74.2710   22.0190    5.3660 C   0  0  0  0  0  0  0  0  0  0  0  0
   74.6090   23.3650    5.2020 C   0  0  0  0  0  0  0  0  0  0  0  0
   75.8290   23.7220    4.6240 C   0  0  0  0  0  0  0  0  0  0  0  0
   76.7150   22.7300    4.2020 C   0  0  0  0  0  0  0  0  0  0  0  0
   76.3820   21.3830    4.3620 C   0  0  0  0  0  0  0  0  0  0  0  0
   75.1600   21.0330    4.9400 C   0  0  0  0  0  0  0  0  0  0  0  0
   77.3270   20.3060    3.9100 C   0  0  0  0  0  0  0  0  0  0  0  0
   78.6230   20.3940    4.2070 O   0  0  0  0  0  0  0  0  0  0  0  0
   76.8770   19.3250    3.2500 N   0  0  0  0  0  0  0  0  0  0  0  0
   77.5900   18.4270    2.8590 C   0  0  0  0  0  0  0  0  0  0  0  0
   78.3080   17.4760    2.4630 C   0  0  0  0  0  0  0  0  0  0  0  0
   78.3650   16.2320    3.2270 C   0  0  0  0  0  0  0  0  0  0  0  0
   77.4470   15.2980    3.0480 C   0  0  0  0  0  0  0  0  0  0  0  0
   70.7108   21.1544    6.6704 H   0  0  0  0  0  0  0  0  0  0  0  0
   71.4531   20.6825    8.2528 H   0  0  0  0  0  0  0  0  0  0  0  0
   69.9564   22.1049    9.1602 H   0  0  0  0  0  0  0  0  0  0  0  0
   71.0763   23.3940    8.5653 H   0  0  0  0  0  0  0  0  0  0  0  0
   69.1712   22.4029    6.5288 H   0  0  0  0  0  0  0  0  0  0  0  0
   68.4015   23.2110    7.9492 H   0  0  0  0  0  0  0  0  0  0  0  0
   69.9269   25.1507    7.6395 H   0  0  0  0  0  0  0  0  0  0  0  0
   70.6014   24.3494    6.1685 H   0  0  0  0  0  0  0  0  0  0  0  0
   67.6260   24.5635    6.2172 H   0  0  0  0  0  0  0  0  0  0  0  0
   68.4468   26.1228    6.1374 H   0  0  0  0  0  0  0  0  0  0  0  0
   69.8535   24.2918    4.3942 H   0  0  0  0  0  0  0  0  0  0  0  0
   67.8035   24.9032   -0.8910 H   0  0  0  0  0  0  0  0  0  0  0  0
   70.1150   23.7914   -0.4120 H   0  0  0  0  0  0  0  0  0  0  0  0
   65.1768   26.5038    2.9088 H   0  0  0  0  0  0  0  0  0  0  0  0
   72.4744   20.9376    5.4310 H   0  0  0  0  0  0  0  0  0  0  0  0
   73.9097   24.1481    5.5302 H   0  0  0  0  0  0  0  0  0  0  0  0
   76.0911   24.7833    4.5016 H   0  0  0  0  0  0  0  0  0  0  0  0
   77.6753   23.0087    3.7435 H   0  0  0  0  0  0  0  0  0  0  0  0
   74.8968   19.9717    5.0601 H   0  0  0  0  0  0  0  0  0  0  0  0
   75.8698   19.2885    3.0378 H   0  0  0  0  0  0  0  0  0  0  0  0
   77.6330   18.8856    1.8601 H   0  0  0  0  0  0  0  0  0  0  0  0
   78.0716   18.3792    3.8468 H   0  0  0  0  0  0  0  0  0  0  0  0
   77.9569   17.2126    1.4544 H   0  0  0  0  0  0  0  0  0  0  0  0
   79.3285   17.8756    2.5572 H   0  0  0  0  0  0  0  0  0  0  0  0
   79.3367   15.7675    3.0032 H   0  0  0  0  0  0  0  0  0  0  0  0
   78.1854   16.5645    4.2601 H   0  0  0  0  0  0  0  0  0  0  0  0
   77.0939   14.9387    4.0259 H   0  0  0  0  0  0  0  0  0  0  0  0
   76.6010   15.7186    2.4846 H   0  0  0  0  0  0  0  0  0  0  0  0
   77.8821   14.4594    2.4846 H   0  0  0  0  0  0  0  0  0  0  0  0
  2  1  2  0
 18  2  1  0
  2  3  1  0
  3  4  1  0
  5  4  1  0
  6  5  1  0
  7  6  1  0
  8  7  1  0
  9  8  1  0
 10  9  1  0
  9 17  2  0
 11 10  2  0
 14 10  1  0
 12 11  1  0
 11 15  1  0
 12 13  1  0
 13 14  2  0
 15 16  2  0
 16 17  1  0
 19 18  1  0
 24 19  1  0
 20 19  2  0
 21 20  1  0
 22 21  2  0
 22 23  1  0
 25 23  1  0
 23 24  2  0
 27 25  1  0
 25 26  2  0
 28 27  1  0
 29 28  1  0
 29 30  1  0
 31 30  1  0
  3 32  1  0
  3 33  1  0
  4 34  1  0
  4 35  1  0
  5 36  1  0
  5 37  1  0
  6 38  1  0
  6 39  1  0
  7 40  1  0
  7 41  1  0
  8 42  1  0
 12 43  1  0
 13 44  1  0
 16 45  1  0
 18 46  1  0
 20 47  1  0
 21 48  1  0
 22 49  1  0
 24 50  1  0
 27 51  1  0
 28 52  1  0
 28 53  1  0
 29 54  1  0
 29 55  1  0
 30 56  1  0
 30 57  1  0
 31 58  1  0
 31 59  1  0
 31 60  1  0
A    1
O18
A    2
C16
A    3
C15
A    4
C14
A    5
C13
A    6
C12
A    7
C11
A    8
N10
A    9
C6
A   10
C1
A   11
C2
A   12
N9
A   13
C8
A   14
N7
A   15
N3
A   16
C4
A   17
N5
A   18
N17
A   19
C19
A   20
C20
A   21
C21
A   22
C22
A   23
C23
A   24
C24
A   25
C25
A   26
O27
A   27
N26
A   28
C28
A   29
C29
A   30
C30
A   31
C31
M  END
