3DAP_DA3_B_950
     RDKit          3D

 24 24  0  0  0  0  0  0  0  0999 V2000
   13.3630   32.8960   38.0110 N   0  0  0  0  0  0  0  0  0  0  0  0
   12.0840   32.2110   38.2210 C   0  0  0  0  0  0  0  0  0  0  0  0
   12.2620   30.6830   38.3260 C   0  0  0  0  0  0  0  0  0  0  0  0
   13.4480   30.1880   38.4310 O   0  0  0  0  0  0  0  0  0  0  0  0
   11.2620   29.9390   38.3030 O   0  0  0  0  0  0  0  0  0  0  0  0
   11.0360   34.7830   38.0470 O   0  0  0  0  0  0  0  0  0  0  0  0
    8.5320   33.5960   41.5580 O   0  0  0  0  0  0  0  0  0  0  0  0
   10.9010   35.0010   39.3790 N   0  0  0  0  0  0  0  0  0  0  0  0
   11.0590   32.6520   37.1270 C   0  0  0  0  0  0  0  0  0  0  0  0
   10.1320   33.8270   37.5420 C   0  0  0  0  0  0  0  0  0  0  0  0
    9.2730   33.4710   38.7830 C   0  0  0  0  0  0  0  0  0  0  0  0
    9.9180   34.3240   39.8210 C   0  0  0  0  0  0  0  0  0  0  0  0
    9.4350   34.3430   41.2530 C   0  0  0  0  0  0  0  0  0  0  0  0
    9.9110   35.1000   42.0950 O   0  0  0  0  0  0  0  0  0  0  0  0
   13.7852   33.1221   38.9229 H   0  0  0  0  0  0  0  0  0  0  0  0
   13.9983   32.2822   37.4813 H   0  0  0  0  0  0  0  0  0  0  0  0
   11.6677   32.5138   39.1931 H   0  0  0  0  0  0  0  0  0  0  0  0
   10.8522   29.6341   39.1511 H   0  0  0  0  0  0  0  0  0  0  0  0
   11.6224   32.9592   36.2336 H   0  0  0  0  0  0  0  0  0  0  0  0
   10.4033   31.7870   36.9490 H   0  0  0  0  0  0  0  0  0  0  0  0
    9.4859   34.1176   36.7005 H   0  0  0  0  0  0  0  0  0  0  0  0
    8.2169   33.7411   38.6357 H   0  0  0  0  0  0  0  0  0  0  0  0
    9.2457   32.3986   39.0264 H   0  0  0  0  0  0  0  0  0  0  0  0
    9.7900   34.9075   43.0585 H   0  0  0  0  0  0  0  0  0  0  0  0
  1  2  1  0
  2  3  1  0
  2  9  1  0
  3  4  2  0
  3  5  1  0
  6  8  1  0
  6 10  1  0
  7 13  2  0
  8 12  2  0
  9 10  1  0
 10 11  1  0
 11 12  1  0
 12 13  1  0
 13 14  1  0
  1 15  1  0
  1 16  1  0
  2 17  1  0
  5 18  1  0
  9 19  1  0
  9 20  1  0
 10 21  1  0
 11 22  1  0
 11 23  1  0
 14 24  1  0
A    1
N1
A    2
C2
A    3
C1
A    4
O1
A    5
O2
A    6
O3
A    7
O4
A    8
N2
A    9
C3
A   10
C4
A   11
C5
A   12
C6
A   13
C7
A   14
O5
M  END
