3DBM_HO2_A_601
     RDKit          3D

 53 52  0  0  0  0  0  0  0  0999 V2000
   50.0160   36.6830   17.9380 C   0  0  0  0  0  0  0  0  0  0  0  0
   48.5390   36.9880   17.6800 C   0  0  0  0  0  0  0  0  0  0  0  0
   47.6280   36.1160   18.5480 C   0  0  0  0  0  0  0  0  0  0  0  0
   46.1570   36.3200   18.1770 C   0  0  0  0  0  0  0  0  0  0  0  0
   45.2490   35.3550   18.9460 C   0  0  0  0  0  0  0  0  0  0  0  0
   43.8090   35.4170   18.4300 C   0  0  0  0  0  0  0  0  0  0  0  0
   42.9930   34.4600   19.1120 O   0  0  0  0  0  0  0  0  0  0  0  0
   43.7990   35.1100   16.9320 C   0  0  0  0  0  0  0  0  0  0  0  0
   42.6210   35.2420   16.2070 C   0  0  0  0  0  0  0  0  0  0  0  0
   42.6160   34.9700   14.8440 C   0  0  0  0  0  0  0  0  0  0  0  0
   43.7850   34.5660   14.2080 C   0  0  0  0  0  0  0  0  0  0  0  0
   43.7870   34.3030   12.8430 C   0  0  0  0  0  0  0  0  0  0  0  0
   43.5940   35.5960   12.0460 C   0  0  0  0  0  0  0  0  0  0  0  0
   43.9290   35.3930   10.5670 C   0  0  0  0  0  0  0  0  0  0  0  0
   45.3740   34.9080   10.4240 C   0  0  0  0  0  0  0  0  0  0  0  0
   45.8080   34.7450    8.9650 C   0  0  0  0  0  0  0  0  0  0  0  0
   45.9690   36.0890    8.2500 C   0  0  0  0  0  0  0  0  0  0  0  0
   44.6300   36.8090    8.0810 C   0  0  0  0  0  0  0  0  0  0  0  0
   43.6370   35.9180    7.3320 C   0  0  0  0  0  0  0  0  0  0  0  0
   43.6440   35.9740    6.0830 O   0  0  0  0  0  0  0  0  0  0  0  0
   42.9000   35.1920    8.0360 O   0  0  0  0  0  0  0  0  0  0  0  0
   50.1987   36.6453   19.0221 H   0  0  0  0  0  0  0  0  0  0  0  0
   50.2739   35.7126   17.4887 H   0  0  0  0  0  0  0  0  0  0  0  0
   50.6372   37.4718   17.4887 H   0  0  0  0  0  0  0  0  0  0  0  0
   48.3467   38.0463   17.9103 H   0  0  0  0  0  0  0  0  0  0  0  0
   48.3206   36.7721   16.6237 H   0  0  0  0  0  0  0  0  0  0  0  0
   47.8933   35.0589   18.3989 H   0  0  0  0  0  0  0  0  0  0  0  0
   47.7670   36.4035   19.6006 H   0  0  0  0  0  0  0  0  0  0  0  0
   45.8669   37.3534   18.4177 H   0  0  0  0  0  0  0  0  0  0  0  0
   46.0402   36.1231   17.1011 H   0  0  0  0  0  0  0  0  0  0  0  0
   45.6298   34.3303   18.8238 H   0  0  0  0  0  0  0  0  0  0  0  0
   45.2510   35.6466   20.0066 H   0  0  0  0  0  0  0  0  0  0  0  0
   43.4065   36.4241   18.6135 H   0  0  0  0  0  0  0  0  0  0  0  0
   43.0935   34.5778   20.0898 H   0  0  0  0  0  0  0  0  0  0  0  0
   44.7222   34.7854   16.4296 H   0  0  0  0  0  0  0  0  0  0  0  0
   41.6960   35.5605   16.7098 H   0  0  0  0  0  0  0  0  0  0  0  0
   41.6853   35.0745   14.2670 H   0  0  0  0  0  0  0  0  0  0  0  0
   44.7128   34.4540   14.7881 H   0  0  0  0  0  0  0  0  0  0  0  0
   44.7480   33.8462   12.5641 H   0  0  0  0  0  0  0  0  0  0  0  0
   42.9589   33.6167   12.6124 H   0  0  0  0  0  0  0  0  0  0  0  0
   42.5462   35.9187   12.1350 H   0  0  0  0  0  0  0  0  0  0  0  0
   44.2725   36.3597   12.4539 H   0  0  0  0  0  0  0  0  0  0  0  0
   43.2481   34.6432   10.1380 H   0  0  0  0  0  0  0  0  0  0  0  0
   43.8122   36.3481   10.0339 H   0  0  0  0  0  0  0  0  0  0  0  0
   46.0387   35.6387   10.9080 H   0  0  0  0  0  0  0  0  0  0  0  0
   45.4376   33.9179   10.8990 H   0  0  0  0  0  0  0  0  0  0  0  0
   46.7711   34.2142    8.9402 H   0  0  0  0  0  0  0  0  0  0  0  0
   45.0223   34.1795    8.4427 H   0  0  0  0  0  0  0  0  0  0  0  0
   46.6439   36.7269    8.8396 H   0  0  0  0  0  0  0  0  0  0  0  0
   46.3808   35.8953    7.2485 H   0  0  0  0  0  0  0  0  0  0  0  0
   44.2217   37.0528    9.0729 H   0  0  0  0  0  0  0  0  0  0  0  0
   44.7905   37.7303    7.5018 H   0  0  0  0  0  0  0  0  0  0  0  0
   42.9521   35.2433    9.0233 H   0  0  0  0  0  0  0  0  0  0  0  0
  2  1  1  0
  2  3  1  0
  4  3  1  0
  4  5  1  0
  6  5  1  0
  8  6  1  0
  6  7  1  0
  9  8  2  0
 10  9  1  0
 11 10  2  0
 12 11  1  0
 13 12  1  0
 14 13  1  0
 15 14  1  0
 16 15  1  0
 17 16  1  0
 18 17  1  0
 19 18  1  0
 20 19  2  0
 19 21  1  0
  1 22  1  0
  1 23  1  0
  1 24  1  0
  2 25  1  0
  2 26  1  0
  3 27  1  0
  3 28  1  0
  4 29  1  0
  4 30  1  0
  5 31  1  0
  5 32  1  0
  6 33  1  0
  7 34  1  0
  8 35  1  0
  9 36  1  0
 10 37  1  0
 11 38  1  0
 12 39  1  0
 12 40  1  0
 13 41  1  0
 13 42  1  0
 14 43  1  0
 14 44  1  0
 15 45  1  0
 15 46  1  0
 16 47  1  0
 16 48  1  0
 17 49  1  0
 17 50  1  0
 18 51  1  0
 18 52  1  0
 21 53  1  0
A    1
C18
A    2
C17
A    3
C16
A    4
C15
A    5
C14
A    6
C13
A    7
O21
A    8
C12
A    9
C11
A   10
C10
A   11
C09
A   12
C08
A   13
C07
A   14
C06
A   15
C05
A   16
C04
A   17
C03
A   18
C02
A   19
C01
A   20
O20
A   21
O19
M  END
