3DD8_2C7_A_300
     RDKit          3D

 45 47  0  0  0  0  0  0  0  0999 V2000
   -1.2860    9.8490   12.4120 C   0  0  0  0  0  0  0  0  0  0  0  0
    0.0250   10.6530   12.3690 C   0  0  0  0  0  0  0  0  0  0  0  0
    0.4180   11.2100   13.7510 C   0  0  0  0  0  0  0  0  0  0  0  0
    0.6120   10.0830   14.7850 C   0  0  0  0  0  0  0  0  0  0  0  0
   -0.7320    9.5540   15.3220 C   0  0  0  0  0  0  0  0  0  0  0  0
   -1.3660    8.4160   14.4930 C   0  0  0  0  0  0  0  0  0  0  0  0
   -1.0740    8.4340   12.9740 C   0  0  0  0  0  0  0  0  0  0  0  0
   -1.9950    7.5080   12.1680 C   0  0  0  0  0  0  0  0  0  0  0  0
   -2.7500    6.3640   12.8850 C   0  0  0  0  0  0  0  0  0  0  0  0
   -4.0600    6.2410   13.1690 C   0  0  0  0  0  0  0  0  0  0  0  0
   -1.9980    4.9250   13.4130 S   0  0  0  0  0  0  0  0  0  0  0  0
   -1.3820    4.2290   12.2230 O   0  0  0  0  0  0  0  0  0  0  0  0
   -1.0200    5.1620   14.5250 O   0  0  0  0  0  0  0  0  0  0  0  0
   -3.4190    4.1590   13.9810 C   0  0  0  0  0  0  0  0  0  0  0  0
   -3.6610    2.9100   14.5680 C   0  0  0  0  0  0  0  0  0  0  0  0
   -4.4500    5.0870   13.7630 C   0  0  0  0  0  0  0  0  0  0  0  0
   -5.7400    4.6980   14.1370 C   0  0  0  0  0  0  0  0  0  0  0  0
   -5.9870    3.4520   14.7130 C   0  0  0  0  0  0  0  0  0  0  0  0
   -4.9560    2.5520   14.9620 C   0  0  0  0  0  0  0  0  0  0  0  0
   -5.1820    1.2980   15.4940 O   0  0  0  0  0  0  0  0  0  0  0  0
   -5.8730    0.9500   16.7490 S   0  0  0  0  0  0  0  0  0  0  0  0
   -5.1280    1.4430   17.9490 O   0  0  0  0  0  0  0  0  0  0  0  0
   -7.2650    1.4680   16.7630 O   0  0  0  0  0  0  0  0  0  0  0  0
   -5.8480   -0.6380   16.7830 N   0  0  0  0  0  0  0  0  0  0  0  0
   -2.0079   10.3802   13.0497 H   0  0  0  0  0  0  0  0  0  0  0  0
   -1.6607    9.7536   11.3822 H   0  0  0  0  0  0  0  0  0  0  0  0
    0.8310    9.9956   12.0108 H   0  0  0  0  0  0  0  0  0  0  0  0
   -0.1278   11.5079   11.6939 H   0  0  0  0  0  0  0  0  0  0  0  0
    1.3590   11.7715   13.6547 H   0  0  0  0  0  0  0  0  0  0  0  0
   -0.3954   11.8619   14.1023 H   0  0  0  0  0  0  0  0  0  0  0  0
    1.1551    9.2536   14.3085 H   0  0  0  0  0  0  0  0  0  0  0  0
    1.1784   10.4944   15.6335 H   0  0  0  0  0  0  0  0  0  0  0  0
   -0.5676    9.1807   16.3436 H   0  0  0  0  0  0  0  0  0  0  0  0
   -1.4355   10.3981   15.2721 H   0  0  0  0  0  0  0  0  0  0  0  0
   -0.9955    7.4614   14.8948 H   0  0  0  0  0  0  0  0  0  0  0  0
   -2.4533    8.5545   14.5857 H   0  0  0  0  0  0  0  0  0  0  0  0
   -0.0338    8.0911   12.8717 H   0  0  0  0  0  0  0  0  0  0  0  0
   -2.7567    8.1469   11.6972 H   0  0  0  0  0  0  0  0  0  0  0  0
   -1.3020    6.9772   11.4986 H   0  0  0  0  0  0  0  0  0  0  0  0
   -4.7791    7.0385   12.9305 H   0  0  0  0  0  0  0  0  0  0  0  0
   -2.8290    2.2068   14.7202 H   0  0  0  0  0  0  0  0  0  0  0  0
   -6.5790    5.3903   13.9732 H   0  0  0  0  0  0  0  0  0  0  0  0
   -7.0186    3.1752   14.9759 H   0  0  0  0  0  0  0  0  0  0  0  0
   -5.8429   -0.9604   17.7612 H   0  0  0  0  0  0  0  0  0  0  0  0
   -6.6833   -1.0048   16.3049 H   0  0  0  0  0  0  0  0  0  0  0  0
  1  2  1  0
  1  7  1  0
  2  3  1  0
  3  4  1  0
  4  5  1  0
  5  6  1  0
  6  7  1  0
  7  8  1  0
  8  9  1  0
  9 10  2  0
  9 11  1  0
 10 16  1  0
 11 12  2  0
 11 13  2  0
 11 14  1  0
 14 15  2  0
 14 16  1  0
 15 19  1  0
 16 17  2  0
 17 18  1  0
 18 19  2  0
 19 20  1  0
 20 21  1  0
 21 22  2  0
 21 23  2  0
 21 24  1  0
  1 25  1  0
  1 26  1  0
  2 27  1  0
  2 28  1  0
  3 29  1  0
  3 30  1  0
  4 31  1  0
  4 32  1  0
  5 33  1  0
  5 34  1  0
  6 35  1  0
  6 36  1  0
  7 37  1  0
  8 38  1  0
  8 39  1  0
 10 40  1  0
 15 41  1  0
 17 42  1  0
 18 43  1  0
 24 44  1  0
 24 45  1  0
A    1
CAE
A    2
CAA
A    3
CAB
A    4
CAC
A    5
CAD
A    6
CAG
A    7
CAF
A    8
CAH
A    9
CAI
A   10
CAJ
A   11
SAP
A   12
OAO
A   13
OAW
A   14
CAQ
A   15
CAR
A   16
CAK
A   17
CAL
A   18
CAM
A   19
CAS
A   20
OAT
A   21
SAU
A   22
OAA
A   23
OAN
A   24
NAV
M  END
