3DDF_GB6_A_4001
     RDKit          3D

 37 38  0  0  0  0  0  0  0  0999 V2000
   27.2850   67.6370   11.5310 C   0  0  0  0  0  0  0  0  0  0  0  0
   27.0370   68.9770   11.7610 C   0  0  0  0  0  0  0  0  0  0  0  0
   27.9310   69.7900   12.4580 C   0  0  0  0  0  0  0  0  0  0  0  0
   29.1240   69.2700   12.9820 C   0  0  0  0  0  0  0  0  0  0  0  0
   29.4270   67.9340   12.8050 C   0  0  0  0  0  0  0  0  0  0  0  0
   28.5580   67.0940   12.0920 C   0  0  0  0  0  0  0  0  0  0  0  0
   28.8520   65.5910   11.8840 C   0  0  0  0  0  0  0  0  0  0  0  0
   29.1040   65.0270   13.3270 C   0  0  0  0  0  0  0  0  0  0  0  0
   29.1240   63.6170   13.1430 O   0  0  0  0  0  0  0  0  0  0  0  0
   30.0900   65.3760   11.0280 N   0  0  0  0  0  0  0  0  0  0  0  0
   29.9950   66.0980    9.7330 C   0  0  0  0  0  0  0  0  0  0  0  0
   31.0830   65.6930    8.7260 C   0  0  0  0  0  0  0  0  0  0  0  0
   30.7800   66.3990    7.4570 N   0  0  0  0  0  0  0  0  0  0  0  0
   31.7870   67.0310    6.8950 C   0  0  0  0  0  0  0  0  0  0  0  0
   31.7860   67.6410    5.8060 O   0  0  0  0  0  0  0  0  0  0  0  0
   33.0180   66.8840    7.7760 C   0  0  0  0  0  0  0  0  0  0  0  0
   33.9280   65.9840    7.0730 O   0  0  0  0  0  0  0  0  0  0  0  0
   32.4900   66.2520    9.0390 C   0  0  0  0  0  0  0  0  0  0  0  0
   33.3470   65.2080    9.5370 O   0  0  0  0  0  0  0  0  0  0  0  0
   26.5836   67.0055   10.9660 H   0  0  0  0  0  0  0  0  0  0  0  0
   26.1031   69.4174   11.3816 H   0  0  0  0  0  0  0  0  0  0  0  0
   27.6969   70.8555   12.5990 H   0  0  0  0  0  0  0  0  0  0  0  0
   29.8161   69.9243   13.5322 H   0  0  0  0  0  0  0  0  0  0  0  0
   30.3572   67.5252   13.2264 H   0  0  0  0  0  0  0  0  0  0  0  0
   28.0212   65.0914   11.3642 H   0  0  0  0  0  0  0  0  0  0  0  0
   30.0656   65.3837   13.7245 H   0  0  0  0  0  0  0  0  0  0  0  0
   28.3396   65.3504   14.0489 H   0  0  0  0  0  0  0  0  0  0  0  0
   29.1304   63.1691   14.0258 H   0  0  0  0  0  0  0  0  0  0  0  0
   30.9145   65.7187   11.5415 H   0  0  0  0  0  0  0  0  0  0  0  0
   29.0117   65.8866    9.2875 H   0  0  0  0  0  0  0  0  0  0  0  0
   30.1336   67.1680    9.9473 H   0  0  0  0  0  0  0  0  0  0  0  0
   31.0851   64.5930    8.7237 H   0  0  0  0  0  0  0  0  0  0  0  0
   29.8377   66.3945    7.0411 H   0  0  0  0  0  0  0  0  0  0  0  0
   33.5524   67.8194    7.9982 H   0  0  0  0  0  0  0  0  0  0  0  0
   34.4531   65.4646    7.7322 H   0  0  0  0  0  0  0  0  0  0  0  0
   32.4496   67.0140    9.8313 H   0  0  0  0  0  0  0  0  0  0  0  0
   33.3386   65.2183   10.5269 H   0  0  0  0  0  0  0  0  0  0  0  0
  1  2  2  0
  1  6  1  0
  2  3  1  0
  3  4  2  0
  4  5  1  0
  5  6  2  0
  6  7  1  0
  7  8  1  0
  7 10  1  0
  8  9  1  0
 10 11  1  0
 11 12  1  0
 12 13  1  0
 12 18  1  0
 13 14  1  0
 14 15  2  0
 14 16  1  0
 16 17  1  0
 16 18  1  0
 18 19  1  0
  1 20  1  0
  2 21  1  0
  3 22  1  0
  4 23  1  0
  5 24  1  0
  7 25  1  0
  8 26  1  0
  8 27  1  0
  9 28  1  0
 10 29  1  0
 11 30  1  0
 11 31  1  0
 12 32  1  0
 13 33  1  0
 16 34  1  0
 17 35  1  0
 18 36  1  0
 19 37  1  0
A    1
C15
A    2
C14
A    3
C13
A    4
C12
A    5
C11
A    6
C10
A    7
C8
A    8
C9
A    9
O9
A   10
N7
A   11
C6
A   12
C5
A   13
N1
A   14
C2
A   15
O2
A   16
C3
A   17
O3
A   18
C4
A   19
O4
M  END
