3DEH_RXA_C_300
     RDKit          3D

 18 19  0  0  0  0  0  0  0  0999 V2000
  -51.0150   13.8180  -21.5490 O   0  0  0  0  0  0  0  0  0  0  0  0
  -49.7810   14.0000  -21.3480 C   0  0  0  0  0  0  0  0  0  0  0  0
  -49.1320   13.5330  -20.2410 N   0  0  0  0  0  0  0  0  0  0  0  0
  -49.0880   14.7050  -22.3190 C   0  0  0  0  0  0  0  0  0  0  0  0
  -49.7450   15.0930  -23.3120 O   0  0  0  0  0  0  0  0  0  0  0  0
  -47.7100   14.9390  -22.1690 C   0  0  0  0  0  0  0  0  0  0  0  0
  -47.0500   14.4550  -21.0250 C   0  0  0  0  0  0  0  0  0  0  0  0
  -45.6690   14.6930  -20.8630 C   0  0  0  0  0  0  0  0  0  0  0  0
  -47.7900   13.7460  -20.0420 C   0  0  0  0  0  0  0  0  0  0  0  0
  -47.2120   13.3050  -18.9860 O   0  0  0  0  0  0  0  0  0  0  0  0
  -46.9860   15.6340  -23.1470 C   0  0  0  0  0  0  0  0  0  0  0  0
  -45.6070   15.8740  -22.9950 C   0  0  0  0  0  0  0  0  0  0  0  0
  -44.9440   15.4090  -21.8430 C   0  0  0  0  0  0  0  0  0  0  0  0
  -49.6646   13.0056  -19.5346 H   0  0  0  0  0  0  0  0  0  0  0  0
  -45.1522   14.3185  -19.9671 H   0  0  0  0  0  0  0  0  0  0  0  0
  -47.5030   15.9976  -24.0473 H   0  0  0  0  0  0  0  0  0  0  0  0
  -45.0513   16.4210  -23.7709 H   0  0  0  0  0  0  0  0  0  0  0  0
  -43.8696   15.6015  -21.7066 H   0  0  0  0  0  0  0  0  0  0  0  0
  1  2  2  0
  2  3  1  0
  2  4  1  0
  3  9  1  0
  4  5  2  0
  4  6  1  0
  6  7  2  0
  6 11  1  0
  7  8  1  0
  7  9  1  0
  8 13  2  0
  9 10  2  0
 11 12  2  0
 12 13  1  0
  3 14  1  0
  8 15  1  0
 11 16  1  0
 12 17  1  0
 13 18  1  0
A    1
OAA
A    2
CAI
A    3
NAH
A    4
CAK
A    5
OAC
A    6
CAM
A    7
CAL
A    8
CAF
A    9
CAJ
A   10
OAB
A   11
CAG
A   12
CAE
A   13
CAD
M  END
