3DF9_DF9_A_233
     RDKit          3D

 49 52  0  0  0  0  0  0  0  0999 V2000
   52.2540   74.6870   17.7600 N   0  0  0  0  0  0  0  0  0  0  0  0
   53.1380   74.9660   18.7570 C   0  0  0  0  0  0  0  0  0  0  0  0
   52.7080   75.5430   19.9180 N   0  0  0  0  0  0  0  0  0  0  0  0
   53.5500   75.8430   20.9200 C   0  0  0  0  0  0  0  0  0  0  0  0
   54.8640   75.5750   20.8100 N   0  0  0  0  0  0  0  0  0  0  0  0
   54.4950   74.6740   18.6100 C   0  0  0  0  0  0  0  0  0  0  0  0
   55.3350   74.9960   19.6700 C   0  0  0  0  0  0  0  0  0  0  0  0
   55.2670   74.1270   17.6400 N   0  0  0  0  0  0  0  0  0  0  0  0
   56.5540   74.0770   18.0610 C   0  0  0  0  0  0  0  0  0  0  0  0
   56.6390   74.6290   19.3400 C   0  0  0  0  0  0  0  0  0  0  0  0
   57.9170   74.7940   20.1410 C   0  0  0  0  0  0  0  0  0  0  0  0
   57.9860   73.8240   21.2000 N   0  0  0  0  0  0  0  0  0  0  0  0
   57.5860   74.1650   22.5570 C   0  0  0  0  0  0  0  0  0  0  0  0
   58.0990   72.9500   23.3150 C   0  0  0  0  0  0  0  0  0  0  0  0
   59.3330   73.2960   23.9290 O   0  0  0  0  0  0  0  0  0  0  0  0
   58.4340   72.4800   20.9150 C   0  0  0  0  0  0  0  0  0  0  0  0
   58.4490   71.8760   22.2990 C   0  0  0  0  0  0  0  0  0  0  0  0
   57.5180   70.6780   22.3230 C   0  0  0  0  0  0  0  0  0  0  0  0
   55.8120   71.0870   22.4910 S   0  0  0  0  0  0  0  0  0  0  0  0
   55.2450   69.9990   23.7420 C   0  0  0  0  0  0  0  0  0  0  0  0
   55.6610   68.5670   23.4680 C   0  0  0  0  0  0  0  0  0  0  0  0
   56.0080   68.1390   22.1890 C   0  0  0  0  0  0  0  0  0  0  0  0
   56.3950   66.8270   21.9720 C   0  0  0  0  0  0  0  0  0  0  0  0
   56.4220   65.9150   23.0210 C   0  0  0  0  0  0  0  0  0  0  0  0
   56.0810   66.3320   24.3000 C   0  0  0  0  0  0  0  0  0  0  0  0
   55.6940   67.6560   24.5200 C   0  0  0  0  0  0  0  0  0  0  0  0
   51.2966   74.3848   17.9902 H   0  0  0  0  0  0  0  0  0  0  0  0
   52.5426   74.7781   16.7754 H   0  0  0  0  0  0  0  0  0  0  0  0
   53.1629   76.3111   21.8371 H   0  0  0  0  0  0  0  0  0  0  0  0
   54.9279   73.7998   16.7241 H   0  0  0  0  0  0  0  0  0  0  0  0
   57.3974   73.6667   17.4863 H   0  0  0  0  0  0  0  0  0  0  0  0
   58.7807   74.6605   19.4731 H   0  0  0  0  0  0  0  0  0  0  0  0
   57.9271   75.8006   20.5844 H   0  0  0  0  0  0  0  0  0  0  0  0
   58.0689   75.0914   22.9014 H   0  0  0  0  0  0  0  0  0  0  0  0
   56.5106   74.3603   22.6809 H   0  0  0  0  0  0  0  0  0  0  0  0
   57.3445   72.6178   24.0432 H   0  0  0  0  0  0  0  0  0  0  0  0
   59.2312   73.2675   24.9133 H   0  0  0  0  0  0  0  0  0  0  0  0
   57.7315   71.9529   20.2527 H   0  0  0  0  0  0  0  0  0  0  0  0
   59.3988   72.4277   20.3892 H   0  0  0  0  0  0  0  0  0  0  0  0
   59.4482   71.5046   22.5704 H   0  0  0  0  0  0  0  0  0  0  0  0
   57.6478   70.1222   21.3827 H   0  0  0  0  0  0  0  0  0  0  0  0
   57.7886   70.0871   23.2104 H   0  0  0  0  0  0  0  0  0  0  0  0
   55.6670   70.3146   24.7076 H   0  0  0  0  0  0  0  0  0  0  0  0
   54.1459   70.0400   23.7609 H   0  0  0  0  0  0  0  0  0  0  0  0
   55.9746   68.8463   21.3472 H   0  0  0  0  0  0  0  0  0  0  0  0
   56.6835   66.5038   20.9609 H   0  0  0  0  0  0  0  0  0  0  0  0
   56.7118   64.8697   22.8384 H   0  0  0  0  0  0  0  0  0  0  0  0
   56.1154   65.6213   25.1389 H   0  0  0  0  0  0  0  0  0  0  0  0
   55.4131   67.9813   25.5326 H   0  0  0  0  0  0  0  0  0  0  0  0
  1  2  1  0
  2  3  2  0
  2  6  1  0
  3  4  1  0
  4  5  2  0
  5  7  1  0
  6  7  2  0
  6  8  1  0
  7 10  1  0
  8  9  1  0
  9 10  2  0
 10 11  1  0
 11 12  1  0
 12 13  1  0
 12 16  1  0
 13 14  1  0
 14 15  1  0
 14 17  1  0
 16 17  1  0
 17 18  1  0
 18 19  1  0
 19 20  1  0
 20 21  1  0
 21 22  2  0
 21 26  1  0
 22 23  1  0
 23 24  2  0
 24 25  1  0
 25 26  2  0
  1 27  1  0
  1 28  1  0
  4 29  1  0
  8 30  1  0
  9 31  1  0
 11 32  1  0
 11 33  1  0
 13 34  1  0
 13 35  1  0
 14 36  1  0
 15 37  1  0
 16 38  1  0
 16 39  1  0
 17 40  1  0
 18 41  1  0
 18 42  1  0
 20 43  1  0
 20 44  1  0
 22 45  1  0
 23 46  1  0
 24 47  1  0
 25 48  1  0
 26 49  1  0
A    1
N6
A    2
C6
A    3
N1
A    4
C2
A    5
N3
A    6
C5
A    7
C4
A    8
N7
A    9
C8
A   10
C9
A   11
C10
A   12
N1'
A   13
C2'
A   14
C3'
A   15
O3'
A   16
C1'
A   17
C4'
A   18
C5'
A   19
S6'
A   20
C7'
A   21
C21
A   22
C26
A   23
C25
A   24
C24
A   25
C23
A   26
C22
M  END
