3DGA_RJ1_A_609
     RDKit          3D

 27 27  0  0  0  0  0  0  0  0999 V2000
   25.6380    5.4370   60.6740 C   0  0  0  0  0  0  0  0  0  0  0  0
   25.8740    4.6760   61.7840 C   0  0  0  0  0  0  0  0  0  0  0  0
   27.0450    4.0240   61.9620 C   0  0  0  0  0  0  0  0  0  0  0  0
   28.0440    4.1090   61.0290 C   0  0  0  0  0  0  0  0  0  0  0  0
   27.8620    4.8730   59.8610 C   0  0  0  0  0  0  0  0  0  0  0  0
   26.6480    5.5320   59.7080 C   0  0  0  0  0  0  0  0  0  0  0  0
   29.4650    3.2390   61.3980 Cl  0  0  0  0  0  0  0  0  0  0  0  0
   24.3060    6.1480   60.5390 C   0  0  0  0  0  0  0  0  0  0  0  0
   24.2830    7.0750   59.5210 F   0  0  0  0  0  0  0  0  0  0  0  0
   23.2530    5.2400   60.3250 F   0  0  0  0  0  0  0  0  0  0  0  0
   24.0210    6.8620   61.7000 F   0  0  0  0  0  0  0  0  0  0  0  0
   28.8500    4.9850   58.8950 N   0  0  0  0  0  0  0  0  0  0  0  0
   29.8560    4.3890   58.1720 C   0  0  0  0  0  0  0  0  0  0  0  0
   30.2380    4.7140   56.9210 N   0  0  0  0  0  0  0  0  0  0  0  0
   29.6890    5.2210   55.8100 C   0  0  0  0  0  0  0  0  0  0  0  0
   29.9690    4.7480   54.5800 N   0  0  0  0  0  0  0  0  0  0  0  0
   30.5120    3.4340   58.7320 N   0  0  0  0  0  0  0  0  0  0  0  0
   28.8690    6.2020   55.9300 N   0  0  0  0  0  0  0  0  0  0  0  0
   25.0914    4.5917   62.5524 H   0  0  0  0  0  0  0  0  0  0  0  0
   27.1972    3.4179   62.8672 H   0  0  0  0  0  0  0  0  0  0  0  0
   26.4765    6.1416   58.8086 H   0  0  0  0  0  0  0  0  0  0  0  0
   28.8138    5.9618   58.5704 H   0  0  0  0  0  0  0  0  0  0  0  0
   31.2387    4.5156   56.7790 H   0  0  0  0  0  0  0  0  0  0  0  0
   30.4909    3.8664   54.4737 H   0  0  0  0  0  0  0  0  0  0  0  0
   29.6612    5.2680   53.7459 H   0  0  0  0  0  0  0  0  0  0  0  0
   31.2728    2.9633   58.2216 H   0  0  0  0  0  0  0  0  0  0  0  0
   28.4311    6.6125   55.0930 H   0  0  0  0  0  0  0  0  0  0  0  0
  8  1  1  0
  1  6  2  0
  1  2  1  0
  2  3  2  0
  3  4  1  0
  5  4  2  0
  4  7  1  0
  6  5  1  0
  5 12  1  0
 11  8  1  0
  9  8  1  0
  8 10  1  0
 12 13  1  0
 13 17  2  3
 13 14  1  0
 14 15  1  0
 18 15  2  3
 15 16  1  0
  2 19  1  0
  3 20  1  0
  6 21  1  0
 12 22  1  0
 14 23  1  0
 16 24  1  0
 16 25  1  0
 17 26  1  0
 18 27  1  0
A    1
C1
A    2
C2
A    3
C3
A    4
C4
A    5
C5
A    6
C6
A    7
CL7
A    8
C8
A    9
F9
A   10
F10
A   11
F11
A   12
N12
A   13
C13
A   14
N14
A   15
C15
A   16
N16
A   17
N17
A   18
N18
M  END
