3DHA_C6L_A_257
     RDKit          3D

 34 33  0  0  0  0  0  0  0  0999 V2000
  -17.8600   -5.3680   17.4540 O   0  0  0  0  0  0  0  0  0  0  0  0
  -17.3060   -5.8550   16.4240 C   0  0  0  0  0  0  0  0  0  0  0  0
  -17.4630   -5.3860   14.9980 C   0  0  0  0  0  0  0  0  0  0  0  0
  -18.8230   -5.4790   14.3930 C   0  0  0  0  0  0  0  0  0  0  0  0
  -19.9590   -6.1740   15.1070 C   0  0  0  0  0  0  0  0  0  0  0  0
  -21.1930   -6.3450   14.2370 C   0  0  0  0  0  0  0  0  0  0  0  0
  -22.3570   -6.9840   14.9980 C   0  0  0  0  0  0  0  0  0  0  0  0
  -16.4960   -6.9170   16.6060 N   0  0  0  0  0  0  0  0  0  0  0  0
  -16.2400   -7.5920   17.9000 C   0  0  0  0  0  0  0  0  0  0  0  0
  -14.7770   -8.0190   18.0100 C   0  0  0  0  0  0  0  0  0  0  0  0
  -14.3200   -8.3900   16.9430 O   0  0  0  0  0  0  0  0  0  0  0  0
  -14.1550   -7.9750   19.1190 O   0  0  0  0  0  0  0  0  0  0  0  0
  -17.1080   -8.8810   17.9240 C   0  0  0  0  0  0  0  0  0  0  0  0
  -16.9750   -9.7460   19.1880 C   0  0  0  0  0  0  0  0  0  0  0  0
  -17.6520   -9.1590   20.2960 O   0  0  0  0  0  0  0  0  0  0  0  0
  -17.1568   -4.3301   14.9619 H   0  0  0  0  0  0  0  0  0  0  0  0
  -16.8425   -6.0737   14.4047 H   0  0  0  0  0  0  0  0  0  0  0  0
  -19.1546   -4.4455   14.2147 H   0  0  0  0  0  0  0  0  0  0  0  0
  -18.6519   -6.1348   13.5266 H   0  0  0  0  0  0  0  0  0  0  0  0
  -19.6153   -7.1688   15.4267 H   0  0  0  0  0  0  0  0  0  0  0  0
  -20.2446   -5.5431   15.9616 H   0  0  0  0  0  0  0  0  0  0  0  0
  -21.5088   -5.3562   13.8730 H   0  0  0  0  0  0  0  0  0  0  0  0
  -20.9277   -7.0138   13.4050 H   0  0  0  0  0  0  0  0  0  0  0  0
  -22.1838   -6.8889   16.0801 H   0  0  0  0  0  0  0  0  0  0  0  0
  -23.2941   -6.4739   14.7304 H   0  0  0  0  0  0  0  0  0  0  0  0
  -22.4297   -8.0485   14.7304 H   0  0  0  0  0  0  0  0  0  0  0  0
  -16.0145   -7.2907   15.7757 H   0  0  0  0  0  0  0  0  0  0  0  0
  -16.4777   -6.9054   18.7259 H   0  0  0  0  0  0  0  0  0  0  0  0
  -14.6585   -8.0106   19.9707 H   0  0  0  0  0  0  0  0  0  0  0  0
  -18.1621   -8.5814   17.8279 H   0  0  0  0  0  0  0  0  0  0  0  0
  -16.7460   -9.5039   17.0928 H   0  0  0  0  0  0  0  0  0  0  0  0
  -17.4074  -10.7378   18.9895 H   0  0  0  0  0  0  0  0  0  0  0  0
  -15.9073   -9.8276   19.4397 H   0  0  0  0  0  0  0  0  0  0  0  0
  -17.2604   -9.4985   21.1395 H   0  0  0  0  0  0  0  0  0  0  0  0
  2  1  2  0
  8  2  1  0
  2  3  1  0
  4  3  1  0
  5  4  1  0
  5  6  1  0
  6  7  1  0
  9  8  1  0
 13  9  1  0
 10  9  1  0
 11 10  2  0
 10 12  1  0
 14 13  1  0
 15 14  1  0
  3 16  1  0
  3 17  1  0
  4 18  1  0
  4 19  1  0
  5 20  1  0
  5 21  1  0
  6 22  1  0
  6 23  1  0
  7 24  1  0
  7 25  1  0
  7 26  1  0
  8 27  1  0
  9 28  1  0
 12 29  1  0
 13 30  1  0
 13 31  1  0
 14 32  1  0
 14 33  1  0
 15 34  1  0
A    1
O4
A    2
C5
A    3
C6
A    4
C7
A    5
C8
A    6
C9
A    7
C10
A    8
N1
A    9
C3
A   10
C4
A   11
O2
A   12
O1
A   13
C2
A   14
C1
A   15
O3
M  END
