3DHC_CYK_A_253
     RDKit          3D

 34 33  0  0  0  0  0  0  0  0999 V2000
   11.0580   34.4530   28.3600 C   0  0  0  0  0  0  0  0  0  0  0  0
   10.9690   34.6570   24.6460 C   0  0  0  0  0  0  0  0  0  0  0  0
   12.6410   33.1920   26.8750 C   0  0  0  0  0  0  0  0  0  0  0  0
   12.1060   35.0510   24.2990 O   0  0  0  0  0  0  0  0  0  0  0  0
   10.6720   34.3660   25.9100 N   0  0  0  0  0  0  0  0  0  0  0  0
   11.6660   34.3530   26.9680 C   0  0  0  0  0  0  0  0  0  0  0  0
   13.6400   33.1540   27.4590 O   0  0  0  0  0  0  0  0  0  0  0  0
   12.4060   32.2580   26.2090 O   0  0  0  0  0  0  0  0  0  0  0  0
   11.7400   35.5700   29.1830 C   0  0  0  0  0  0  0  0  0  0  0  0
   11.1400   35.5560   30.8790 S   0  0  0  0  0  0  0  0  0  0  0  0
    9.8410   34.4350   23.6620 C   0  0  0  0  0  0  0  0  0  0  0  0
    9.9830   33.0310   23.0030 C   0  0  0  0  0  0  0  0  0  0  0  0
    9.3450   31.9210   23.8820 C   0  0  0  0  0  0  0  0  0  0  0  0
    9.1120   30.4930   23.3390 C   0  0  0  0  0  0  0  0  0  0  0  0
    8.8960   30.4740   21.8460 C   0  0  0  0  0  0  0  0  0  0  0  0
    9.9850   34.6774   28.2687 H   0  0  0  0  0  0  0  0  0  0  0  0
   11.2082   33.4943   28.8780 H   0  0  0  0  0  0  0  0  0  0  0  0
    9.6956   34.1404   26.1478 H   0  0  0  0  0  0  0  0  0  0  0  0
   12.2530   35.2685   26.8028 H   0  0  0  0  0  0  0  0  0  0  0  0
   13.6350   33.1542   28.4490 H   0  0  0  0  0  0  0  0  0  0  0  0
   12.8280   35.4077   29.1822 H   0  0  0  0  0  0  0  0  0  0  0  0
   11.5023   36.5432   28.7288 H   0  0  0  0  0  0  0  0  0  0  0  0
   12.2050   35.5809   31.7404 H   0  0  0  0  0  0  0  0  0  0  0  0
    8.8783   34.4943   24.1909 H   0  0  0  0  0  0  0  0  0  0  0  0
    9.8836   35.2083   22.8809 H   0  0  0  0  0  0  0  0  0  0  0  0
    9.4817   33.0436   22.0240 H   0  0  0  0  0  0  0  0  0  0  0  0
   11.0547   32.8092   22.8921 H   0  0  0  0  0  0  0  0  0  0  0  0
    9.9919   31.8150   24.7654 H   0  0  0  0  0  0  0  0  0  0  0  0
    8.3184   32.2909   24.0204 H   0  0  0  0  0  0  0  0  0  0  0  0
    9.9916   29.8767   23.5766 H   0  0  0  0  0  0  0  0  0  0  0  0
    8.2025   30.0973   23.8147 H   0  0  0  0  0  0  0  0  0  0  0  0
    7.8211   30.3795   21.6322 H   0  0  0  0  0  0  0  0  0  0  0  0
    9.2760   31.4090   21.4086 H   0  0  0  0  0  0  0  0  0  0  0  0
    9.4334   29.6197   21.4086 H   0  0  0  0  0  0  0  0  0  0  0  0
  6  1  1  0
  1  9  1  0
 11  2  1  0
  4  2  2  0
  2  5  1  0
  8  3  2  0
  3  6  1  0
  3  7  1  0
  5  6  1  0
  9 10  1  0
 12 11  1  0
 12 13  1  0
 14 13  1  0
 15 14  1  0
  1 16  1  0
  1 17  1  0
  5 18  1  0
  6 19  1  0
  7 20  1  0
  9 21  1  0
  9 22  1  0
 10 23  1  0
 11 24  1  0
 11 25  1  0
 12 26  1  0
 12 27  1  0
 13 28  1  0
 13 29  1  0
 14 30  1  0
 14 31  1  0
 15 32  1  0
 15 33  1  0
 15 34  1  0
A    1
C2
A    2
C5
A    3
C4
A    4
O3
A    5
N1
A    6
C3
A    7
O2
A    8
O1
A    9
C1
A   10
S
A   11
C6
A   12
C7
A   13
C8
A   14
C9
A   15
C10
M  END
