3DI6_PDZ_A_562
     RDKit          3D

 35 37  0  0  0  0  0  0  0  0999 V2000
   48.6610   62.2320   21.2910 C   0  0  0  0  0  0  0  0  0  0  0  0
   48.3150   60.9520   20.8780 C   0  0  0  0  0  0  0  0  0  0  0  0
   47.9040   60.7240   19.5700 C   0  0  0  0  0  0  0  0  0  0  0  0
   47.8330   61.7730   18.6660 C   0  0  0  0  0  0  0  0  0  0  0  0
   48.1790   63.0540   19.0830 C   0  0  0  0  0  0  0  0  0  0  0  0
   48.5900   63.2800   20.3900 C   0  0  0  0  0  0  0  0  0  0  0  0
   48.1170   64.1040   18.2300 O   0  0  0  0  0  0  0  0  0  0  0  0
   48.5460   63.9850   16.9560 C   0  0  0  0  0  0  0  0  0  0  0  0
   47.6240   63.9640   15.9320 C   0  0  0  0  0  0  0  0  0  0  0  0
   48.0140   63.8380   14.6030 C   0  0  0  0  0  0  0  0  0  0  0  0
   49.3680   63.7360   14.3290 C   0  0  0  0  0  0  0  0  0  0  0  0
   50.3040   63.7530   15.3610 C   0  0  0  0  0  0  0  0  0  0  0  0
   49.8940   63.8900   16.6800 C   0  0  0  0  0  0  0  0  0  0  0  0
   51.7710   63.6660   15.0450 C   0  0  0  0  0  0  0  0  0  0  0  0
   45.9680   64.0980   16.3830 Cl  0  0  0  0  0  0  0  0  0  0  0  0
   50.7650   63.9150   17.7120 F   0  0  0  0  0  0  0  0  0  0  0  0
   52.1560   65.1050   14.7970 C   0  0  0  0  0  0  0  0  0  0  0  0
   52.7750   65.8640   15.8140 C   0  0  0  0  0  0  0  0  0  0  0  0
   53.0870   67.1690   15.5460 C   0  0  0  0  0  0  0  0  0  0  0  0
   52.7500   67.6670   14.2640 C   0  0  0  0  0  0  0  0  0  0  0  0
   52.1520   66.8670   13.3600 N   0  0  0  0  0  0  0  0  0  0  0  0
   51.8730   65.6470   13.6340 N   0  0  0  0  0  0  0  0  0  0  0  0
   53.0010   68.8170   13.9570 O   0  0  0  0  0  0  0  0  0  0  0  0
   48.9887   62.4113   22.3256 H   0  0  0  0  0  0  0  0  0  0  0  0
   48.3665   60.1146   21.5894 H   0  0  0  0  0  0  0  0  0  0  0  0
   47.6338   59.7067   19.2505 H   0  0  0  0  0  0  0  0  0  0  0  0
   47.5067   61.5941   17.6308 H   0  0  0  0  0  0  0  0  0  0  0  0
   48.8604   64.2969   20.7107 H   0  0  0  0  0  0  0  0  0  0  0  0
   47.2694   63.8199   13.7935 H   0  0  0  0  0  0  0  0  0  0  0  0
   49.7074   63.6407   13.2870 H   0  0  0  0  0  0  0  0  0  0  0  0
   52.3331   63.2477   15.8930 H   0  0  0  0  0  0  0  0  0  0  0  0
   51.9903   63.0074   14.1917 H   0  0  0  0  0  0  0  0  0  0  0  0
   53.0001   65.4187   16.7943 H   0  0  0  0  0  0  0  0  0  0  0  0
   53.5796   67.8054   16.2959 H   0  0  0  0  0  0  0  0  0  0  0  0
   51.9146   67.2433   12.4310 H   0  0  0  0  0  0  0  0  0  0  0  0
  1  2  2  0
  1  6  1  0
  2  3  1  0
  3  4  2  0
  4  5  1  0
  5  6  2  0
  5  7  1  0
  7  8  1  0
  8  9  2  0
  8 13  1  0
  9 10  1  0
  9 15  1  0
 10 11  2  0
 11 12  1  0
 12 13  2  0
 12 14  1  0
 13 16  1  0
 14 17  1  0
 17 18  1  0
 17 22  2  0
 18 19  2  0
 19 20  1  0
 20 21  1  0
 20 23  2  0
 21 22  1  0
  1 24  1  0
  2 25  1  0
  3 26  1  0
  4 27  1  0
  6 28  1  0
 10 29  1  0
 11 30  1  0
 14 31  1  0
 14 32  1  0
 18 33  1  0
 19 34  1  0
 21 35  1  0
A    1
C1
A    2
C2
A    3
C3
A    4
C4
A    5
C5
A    6
C6
A    7
O7
A    8
C8
A    9
C9
A   10
C10
A   11
C11
A   12
C12
A   13
C13
A   14
C14
A   15
CL15
A   16
F16
A   17
C17
A   18
C18
A   19
C19
A   20
C20
A   21
N21
A   22
N22
A   23
O23
M  END
