3DJK_G55_B_401
     RDKit          3D

 76 78  0  0  0  0  0  0  0  0999 V2000
   20.8690   27.8900   15.0590 C   0  0  0  0  0  0  0  0  0  0  0  0
   21.4930   29.0410   14.7630 O   0  0  0  0  0  0  0  0  0  0  0  0
   22.8770   29.1030   15.0880 C   0  0  0  0  0  0  0  0  0  0  0  0
   21.4610   26.7260   15.5410 C   0  0  0  0  0  0  0  0  0  0  0  0
   20.7360   25.5970   15.8110 C   0  0  0  0  0  0  0  0  0  0  0  0
   19.3460   25.6280   15.5390 C   0  0  0  0  0  0  0  0  0  0  0  0
   18.7550   26.7060   14.9390 C   0  0  0  0  0  0  0  0  0  0  0  0
   19.5150   27.8140   14.6600 C   0  0  0  0  0  0  0  0  0  0  0  0
   18.3810   24.2220   16.0380 S   0  0  0  0  0  0  0  0  0  0  0  0
   17.3000   24.1190   15.0750 O   0  0  0  0  0  0  0  0  0  0  0  0
   19.2460   23.1130   16.2290 O   0  0  0  0  0  0  0  0  0  0  0  0
   17.7320   24.5400   17.5050 N   0  0  0  0  0  0  0  0  0  0  0  0
   18.6610   24.8190   18.5720 C   0  0  0  0  0  0  0  0  0  0  0  0
   18.3610   24.1240   19.9320 C   0  0  0  0  0  0  0  0  0  0  0  0
   18.4700   22.6220   19.7760 C   0  0  0  0  0  0  0  0  0  0  0  0
   19.4190   24.6750   20.8820 C   0  0  0  0  0  0  0  0  0  0  0  0
   16.4370   25.1960   17.5830 C   0  0  0  0  0  0  0  0  0  0  0  0
   15.3440   24.2910   18.1310 C   0  0  0  0  0  0  0  0  0  0  0  0
   14.1730   25.1000   18.4290 O   0  0  0  0  0  0  0  0  0  0  0  0
   14.9280   23.1250   17.1930 C   0  0  0  0  0  0  0  0  0  0  0  0
   14.0550   22.1930   17.9210 N   0  0  0  0  0  0  0  0  0  0  0  0
   14.4400   21.0110   18.3640 C   0  0  0  0  0  0  0  0  0  0  0  0
   15.5330   20.5830   18.2690 O   0  0  0  0  0  0  0  0  0  0  0  0
   13.4510   20.3390   19.0020 O   0  0  0  0  0  0  0  0  0  0  0  0
   13.7670   18.9940   19.3780 C   0  0  0  0  0  0  0  0  0  0  0  0
   12.7940   18.5910   20.4600 C   0  0  0  0  0  0  0  0  0  0  0  0
   11.4400   18.6570   20.0870 O   0  0  0  0  0  0  0  0  0  0  0  0
   10.8480   17.5600   19.4500 C   0  0  0  0  0  0  0  0  0  0  0  0
   11.6590   16.9190   18.5120 O   0  0  0  0  0  0  0  0  0  0  0  0
   12.2610   17.8570   17.6120 C   0  0  0  0  0  0  0  0  0  0  0  0
   13.6570   18.1480   18.1200 C   0  0  0  0  0  0  0  0  0  0  0  0
   14.1560   23.5600   15.9570 C   0  0  0  0  0  0  0  0  0  0  0  0
   12.6170   21.7860   15.0450 C   0  0  0  0  0  0  0  0  0  0  0  0
   12.4110   20.6170   14.3520 C   0  0  0  0  0  0  0  0  0  0  0  0
   13.4040   20.0470   13.5560 C   0  0  0  0  0  0  0  0  0  0  0  0
   14.6320   20.6980   13.4690 C   0  0  0  0  0  0  0  0  0  0  0  0
   14.8660   21.8620   14.2270 C   0  0  0  0  0  0  0  0  0  0  0  0
   13.8690   22.4000   15.0450 C   0  0  0  0  0  0  0  0  0  0  0  0
   22.9970   29.1084   16.1814 H   0  0  0  0  0  0  0  0  0  0  0  0
   23.3921   28.2270   14.6669 H   0  0  0  0  0  0  0  0  0  0  0  0
   23.3117   30.0215   14.6669 H   0  0  0  0  0  0  0  0  0  0  0  0
   22.5478   26.7131   15.7105 H   0  0  0  0  0  0  0  0  0  0  0  0
   21.2155   24.6975   16.2245 H   0  0  0  0  0  0  0  0  0  0  0  0
   17.6852   26.6849   14.6837 H   0  0  0  0  0  0  0  0  0  0  0  0
   19.0631   28.6571   14.1168 H   0  0  0  0  0  0  0  0  0  0  0  0
   19.6599   24.4976   18.2421 H   0  0  0  0  0  0  0  0  0  0  0  0
   18.5786   25.8989   18.7644 H   0  0  0  0  0  0  0  0  0  0  0  0
   17.3454   24.3192   20.3069 H   0  0  0  0  0  0  0  0  0  0  0  0
   18.5041   22.1517   20.7698 H   0  0  0  0  0  0  0  0  0  0  0  0
   17.5967   22.2465   19.2224 H   0  0  0  0  0  0  0  0  0  0  0  0
   19.3883   22.3765   19.2224 H   0  0  0  0  0  0  0  0  0  0  0  0
   19.1004   24.5091   21.9217 H   0  0  0  0  0  0  0  0  0  0  0  0
   20.3748   24.1601   20.7048 H   0  0  0  0  0  0  0  0  0  0  0  0
   19.5450   25.7533   20.7048 H   0  0  0  0  0  0  0  0  0  0  0  0
   16.5276   26.0735   18.2401 H   0  0  0  0  0  0  0  0  0  0  0  0
   16.1486   25.4773   16.5594 H   0  0  0  0  0  0  0  0  0  0  0  0
   15.7640   23.8166   19.0302 H   0  0  0  0  0  0  0  0  0  0  0  0
   14.0646   25.1749   19.4102 H   0  0  0  0  0  0  0  0  0  0  0  0
   15.8742   22.6679   16.8679 H   0  0  0  0  0  0  0  0  0  0  0  0
   13.0816   22.4805   18.0964 H   0  0  0  0  0  0  0  0  0  0  0  0
   14.7822   18.8686   19.7826 H   0  0  0  0  0  0  0  0  0  0  0  0
   13.0183   17.5550   20.7539 H   0  0  0  0  0  0  0  0  0  0  0  0
   12.9257   19.3119   21.2804 H   0  0  0  0  0  0  0  0  0  0  0  0
   10.5704   16.8258   20.2207 H   0  0  0  0  0  0  0  0  0  0  0  0
    9.9844   17.9541   18.8942 H   0  0  0  0  0  0  0  0  0  0  0  0
   12.3119   17.4269   16.6009 H   0  0  0  0  0  0  0  0  0  0  0  0
   11.6671   18.7816   17.5637 H   0  0  0  0  0  0  0  0  0  0  0  0
   14.2001   18.6709   17.3190 H   0  0  0  0  0  0  0  0  0  0  0  0
   14.0727   17.1676   18.3957 H   0  0  0  0  0  0  0  0  0  0  0  0
   13.2031   24.0104   16.2719 H   0  0  0  0  0  0  0  0  0  0  0  0
   14.7715   24.2860   15.4057 H   0  0  0  0  0  0  0  0  0  0  0  0
   11.7867   22.2413   15.6047 H   0  0  0  0  0  0  0  0  0  0  0  0
   11.4344   20.1165   14.4275 H   0  0  0  0  0  0  0  0  0  0  0  0
   13.2223   19.1086   13.0116 H   0  0  0  0  0  0  0  0  0  0  0  0
   15.4186   20.3036   12.8089 H   0  0  0  0  0  0  0  0  0  0  0  0
   15.8481   22.3547   14.1742 H   0  0  0  0  0  0  0  0  0  0  0  0
  1  2  1  0
  1  4  2  0
  1  8  1  0
  2  3  1  0
  4  5  1  0
  5  6  2  0
  6  7  1  0
  6  9  1  0
  7  8  2  0
  9 10  2  0
  9 11  2  0
  9 12  1  0
 12 13  1  0
 12 17  1  0
 13 14  1  0
 14 15  1  0
 14 16  1  0
 17 18  1  0
 18 19  1  0
 18 20  1  0
 20 21  1  0
 20 32  1  0
 21 22  1  0
 22 23  2  0
 22 24  1  0
 24 25  1  0
 25 26  1  0
 25 31  1  0
 26 27  1  0
 27 28  1  0
 28 29  1  0
 29 30  1  0
 30 31  1  0
 32 38  1  0
 33 34  2  0
 33 38  1  0
 34 35  1  0
 35 36  2  0
 36 37  1  0
 37 38  2  0
  3 39  1  0
  3 40  1  0
  3 41  1  0
  4 42  1  0
  5 43  1  0
  7 44  1  0
  8 45  1  0
 13 46  1  0
 13 47  1  0
 14 48  1  0
 15 49  1  0
 15 50  1  0
 15 51  1  0
 16 52  1  0
 16 53  1  0
 16 54  1  0
 17 55  1  0
 17 56  1  0
 18 57  1  0
 19 58  1  0
 20 59  1  0
 21 60  1  0
 25 61  1  0
 26 62  1  0
 26 63  1  0
 28 64  1  0
 28 65  1  0
 30 66  1  0
 30 67  1  0
 31 68  1  0
 31 69  1  0
 32 70  1  0
 32 71  1  0
 33 72  1  0
 34 73  1  0
 35 74  1  0
 36 75  1  0
 37 76  1  0
A    1
C2
A    2
O39
A    3
C40
A    4
C3
A    5
C4
A    6
C5
A    7
C6
A    8
C7
A    9
S8
A   10
O9
A   11
O10
A   12
N11
A   13
C12
A   14
C13
A   15
C14
A   16
C15
A   17
C16
A   18
C17
A   19
O18
A   20
C19
A   21
N20
A   22
C21
A   23
O22
A   24
O23
A   25
C24
A   26
C25
A   27
O26
A   28
C27
A   29
O28
A   30
C29
A   31
C30
A   32
C32
A   33
C33
A   34
C34
A   35
C35
A   36
C36
A   37
C37
A   38
C38
M  END
