3DK3_SX7_A_1
     RDKit          3D

 50 53  0  0  0  0  0  0  0  0999 V2000
  -44.4950   80.2030   58.2880 O   0  0  0  0  0  0  0  0  0  0  0  0
  -34.7250   79.7850   60.1110 C   0  0  0  0  0  0  0  0  0  0  0  0
  -35.7340   80.3170   60.8890 C   0  0  0  0  0  0  0  0  0  0  0  0
  -32.1570   80.9990   62.1820 C   0  0  0  0  0  0  0  0  0  0  0  0
  -34.5320   81.3940   62.8900 N   0  0  0  0  0  0  0  0  0  0  0  0
  -35.5560   81.3060   61.9800 C   0  0  0  0  0  0  0  0  0  0  0  0
  -36.4350   82.3210   62.2980 C   0  0  0  0  0  0  0  0  0  0  0  0
  -35.8570   82.9700   63.3990 C   0  0  0  0  0  0  0  0  0  0  0  0
  -33.3440   80.5590   63.0210 C   0  0  0  0  0  0  0  0  0  0  0  0
  -43.9660   79.1270   58.5740 C   0  0  0  0  0  0  0  0  0  0  0  0
  -44.2230   77.9310   57.8810 N   0  0  0  0  0  0  0  0  0  0  0  0
  -43.8840   76.5980   58.3680 C   0  0  0  0  0  0  0  0  0  0  0  0
  -44.5020   78.0050   56.4550 C   0  0  0  0  0  0  0  0  0  0  0  0
  -43.0230   79.1440   59.7230 C   0  0  0  0  0  0  0  0  0  0  0  0
  -43.4960   79.2170   61.0500 C   0  0  0  0  0  0  0  0  0  0  0  0
  -44.8700   79.2760   61.3670 N   0  0  0  0  0  0  0  0  0  0  0  0
  -42.5540   79.2330   62.0910 C   0  0  0  0  0  0  0  0  0  0  0  0
  -41.1740   79.1730   61.8200 C   0  0  0  0  0  0  0  0  0  0  0  0
  -41.6430   79.0880   59.4530 C   0  0  0  0  0  0  0  0  0  0  0  0
  -40.6970   79.0950   60.4930 C   0  0  0  0  0  0  0  0  0  0  0  0
  -39.2630   79.0360   60.1670 C   0  0  0  0  0  0  0  0  0  0  0  0
  -38.7790   78.2020   59.1440 C   0  0  0  0  0  0  0  0  0  0  0  0
  -37.4890   78.0670   58.7430 N   0  0  0  0  0  0  0  0  0  0  0  0
  -38.3150   79.8230   60.8480 C   0  0  0  0  0  0  0  0  0  0  0  0
  -36.9570   79.7260   60.4760 C   0  0  0  0  0  0  0  0  0  0  0  0
  -36.6430   78.8460   59.4450 C   0  0  0  0  0  0  0  0  0  0  0  0
  -35.2940   78.8930   59.2430 N   0  0  0  0  0  0  0  0  0  0  0  0
  -34.7050   82.4100   63.7680 N   0  0  0  0  0  0  0  0  0  0  0  0
  -33.6555   80.0336   60.1770 H   0  0  0  0  0  0  0  0  0  0  0  0
  -31.3332   81.3044   62.8439 H   0  0  0  0  0  0  0  0  0  0  0  0
  -31.8269   80.1635   61.5472 H   0  0  0  0  0  0  0  0  0  0  0  0
  -32.4512   81.8478   61.5472 H   0  0  0  0  0  0  0  0  0  0  0  0
  -37.3828   82.5675   61.7971 H   0  0  0  0  0  0  0  0  0  0  0  0
  -36.3033   83.8414   63.9005 H   0  0  0  0  0  0  0  0  0  0  0  0
  -33.6119   79.5346   62.7231 H   0  0  0  0  0  0  0  0  0  0  0  0
  -33.0257   80.6382   64.0710 H   0  0  0  0  0  0  0  0  0  0  0  0
  -43.8841   76.5985   59.4680 H   0  0  0  0  0  0  0  0  0  0  0  0
  -44.6266   75.8739   58.0016 H   0  0  0  0  0  0  0  0  0  0  0  0
  -42.8857   76.3167   58.0016 H   0  0  0  0  0  0  0  0  0  0  0  0
  -45.5548   78.2842   56.3014 H   0  0  0  0  0  0  0  0  0  0  0  0
  -43.8508   78.7615   55.9927 H   0  0  0  0  0  0  0  0  0  0  0  0
  -44.3113   77.0252   55.9927 H   0  0  0  0  0  0  0  0  0  0  0  0
  -45.1712   79.2889   62.3519 H   0  0  0  0  0  0  0  0  0  0  0  0
  -45.5715   79.3061   60.6135 H   0  0  0  0  0  0  0  0  0  0  0  0
  -42.8994   79.2933   63.1336 H   0  0  0  0  0  0  0  0  0  0  0  0
  -40.4567   79.1871   62.6539 H   0  0  0  0  0  0  0  0  0  0  0  0
  -41.2983   79.0379   58.4096 H   0  0  0  0  0  0  0  0  0  0  0  0
  -39.5252   77.5939   58.6116 H   0  0  0  0  0  0  0  0  0  0  0  0
  -38.6271   80.5014   61.6557 H   0  0  0  0  0  0  0  0  0  0  0  0
  -34.7808   78.3397   58.5420 H   0  0  0  0  0  0  0  0  0  0  0  0
  1 10  2  0
  2  3  2  0
  2 27  1  0
  3  6  1  0
  3 25  1  0
  4  9  1  0
  5  6  1  0
  5  9  1  0
  5 28  1  0
  6  7  2  0
  7  8  1  0
  8 28  2  0
 10 11  1  0
 10 14  1  0
 11 12  1  0
 11 13  1  0
 14 15  2  0
 14 19  1  0
 15 16  1  0
 15 17  1  0
 17 18  2  0
 18 20  1  0
 19 20  2  0
 20 21  1  0
 21 22  2  0
 21 24  1  0
 22 23  1  0
 23 26  2  0
 24 25  2  0
 25 26  1  0
 26 27  1  0
  2 29  1  0
  4 30  1  0
  4 31  1  0
  4 32  1  0
  7 33  1  0
  8 34  1  0
  9 35  1  0
  9 36  1  0
 12 37  1  0
 12 38  1  0
 12 39  1  0
 13 40  1  0
 13 41  1  0
 13 42  1  0
 16 43  1  0
 16 44  1  0
 17 45  1  0
 18 46  1  0
 19 47  1  0
 22 48  1  0
 24 49  1  0
 27 50  1  0
A    1
O1
A    2
C7
A    3
C6
A    4
C1
A    5
N1
A    6
C5
A    7
C4
A    8
C3
A    9
C2
A   10
C19
A   11
N6
A   12
C21
A   13
C20
A   14
C17
A   15
C16
A   16
N5
A   17
C15
A   18
C14
A   19
C18
A   20
C13
A   21
C10
A   22
C9
A   23
N4
A   24
C11
A   25
C12
A   26
C8
A   27
N3
A   28
N2
M  END
