3DKO_IHZ_A_1001
     RDKit          3D

 47 49  0  0  0  0  0  0  0  0999 V2000
  -15.9510   11.2950   -5.1960 F   0  0  0  0  0  0  0  0  0  0  0  0
  -16.3060   10.1290   -4.6470 C   0  0  0  0  0  0  0  0  0  0  0  0
  -16.0390   10.1160   -3.3310 F   0  0  0  0  0  0  0  0  0  0  0  0
  -15.5910    9.1590   -5.2190 F   0  0  0  0  0  0  0  0  0  0  0  0
  -17.8040    9.8570   -4.9210 C   0  0  0  0  0  0  0  0  0  0  0  0
  -18.2820    9.9430   -6.2300 C   0  0  0  0  0  0  0  0  0  0  0  0
  -18.6750    9.5010   -3.8810 C   0  0  0  0  0  0  0  0  0  0  0  0
  -20.0140    9.2470   -4.1630 C   0  0  0  0  0  0  0  0  0  0  0  0
  -20.4770    9.3510   -5.4790 C   0  0  0  0  0  0  0  0  0  0  0  0
  -19.6270    9.6990   -6.5300 C   0  0  0  0  0  0  0  0  0  0  0  0
  -20.1320    9.7850   -7.7900 N   0  0  0  0  0  0  0  0  0  0  0  0
  -19.4570    9.6040   -8.9480 C   0  0  0  0  0  0  0  0  0  0  0  0
  -18.2530    9.3590   -9.0340 O   0  0  0  0  0  0  0  0  0  0  0  0
  -20.2660    9.7540  -10.2500 C   0  0  0  0  0  0  0  0  0  0  0  0
  -19.6350   10.2930  -11.3760 C   0  0  0  0  0  0  0  0  0  0  0  0
  -21.6020    9.3580  -10.3370 C   0  0  0  0  0  0  0  0  0  0  0  0
  -22.2690    9.5230  -11.5520 C   0  0  0  0  0  0  0  0  0  0  0  0
  -21.6290   10.0680  -12.6750 C   0  0  0  0  0  0  0  0  0  0  0  0
  -22.4420   10.2240  -13.9650 C   0  0  0  0  0  0  0  0  0  0  0  0
  -20.2840   10.4490  -12.6080 C   0  0  0  0  0  0  0  0  0  0  0  0
  -19.5920   11.0090  -13.6400 N   0  0  0  0  0  0  0  0  0  0  0  0
  -19.3240   10.5320  -14.8820 C   0  0  0  0  0  0  0  0  0  0  0  0
  -19.8650    9.3380  -15.3760 C   0  0  0  0  0  0  0  0  0  0  0  0
  -18.4650   11.2690  -15.7250 C   0  0  0  0  0  0  0  0  0  0  0  0
  -18.1760   10.8530  -16.9590 N   0  0  0  0  0  0  0  0  0  0  0  0
  -18.6830    9.7150  -17.4430 C   0  0  0  0  0  0  0  0  0  0  0  0
  -19.5510    8.9200  -16.6740 C   0  0  0  0  0  0  0  0  0  0  0  0
  -20.1540    7.5920  -17.1990 C   0  0  0  0  0  0  0  0  0  0  0  0
  -21.0380    7.0160  -16.5620 O   0  0  0  0  0  0  0  0  0  0  0  0
  -19.6630    7.1230  -18.3510 N   0  0  0  0  0  0  0  0  0  0  0  0
  -17.5879   10.2077   -7.0413 H   0  0  0  0  0  0  0  0  0  0  0  0
  -18.3022    9.4230   -2.8490 H   0  0  0  0  0  0  0  0  0  0  0  0
  -20.7051    8.9657   -3.3548 H   0  0  0  0  0  0  0  0  0  0  0  0
  -21.5382    9.1535   -5.6909 H   0  0  0  0  0  0  0  0  0  0  0  0
  -21.1335   10.0117   -7.8708 H   0  0  0  0  0  0  0  0  0  0  0  0
  -18.5845   10.6078  -11.2907 H   0  0  0  0  0  0  0  0  0  0  0  0
  -22.1177    8.9254   -9.4670 H   0  0  0  0  0  0  0  0  0  0  0  0
  -23.3229    9.2180  -11.6309 H   0  0  0  0  0  0  0  0  0  0  0  0
  -23.4937   10.4258  -13.7135 H   0  0  0  0  0  0  0  0  0  0  0  0
  -22.0386   11.0611  -14.5537 H   0  0  0  0  0  0  0  0  0  0  0  0
  -22.3771    9.2970  -14.5537 H   0  0  0  0  0  0  0  0  0  0  0  0
  -19.2107   11.9459  -13.4459 H   0  0  0  0  0  0  0  0  0  0  0  0
  -20.5334    8.7320  -14.7467 H   0  0  0  0  0  0  0  0  0  0  0  0
  -18.0242   12.2070  -15.3564 H   0  0  0  0  0  0  0  0  0  0  0  0
  -18.4165    9.3947  -18.4610 H   0  0  0  0  0  0  0  0  0  0  0  0
  -18.9182    6.4116  -18.3417 H   0  0  0  0  0  0  0  0  0  0  0  0
  -20.0296    7.4732  -19.2476 H   0  0  0  0  0  0  0  0  0  0  0  0
  1  2  1  0
  2  3  1  0
  2  4  1  0
  2  5  1  0
  5  6  2  0
  5  7  1  0
  6 10  1  0
  7  8  2  0
  8  9  1  0
  9 10  2  0
 10 11  1  0
 11 12  1  0
 12 13  2  0
 12 14  1  0
 14 15  2  0
 14 16  1  0
 15 20  1  0
 16 17  2  0
 17 18  1  0
 18 19  1  0
 18 20  2  0
 20 21  1  0
 21 22  1  0
 22 23  2  0
 22 24  1  0
 23 27  1  0
 24 25  2  0
 25 26  1  0
 26 27  2  0
 27 28  1  0
 28 29  2  0
 28 30  1  0
  6 31  1  0
  7 32  1  0
  8 33  1  0
  9 34  1  0
 11 35  1  0
 15 36  1  0
 16 37  1  0
 17 38  1  0
 19 39  1  0
 19 40  1  0
 19 41  1  0
 21 42  1  0
 23 43  1  0
 24 44  1  0
 26 45  1  0
 30 46  1  0
 30 47  1  0
A    1
FAE
A    2
CBD
A    3
FAF
A    4
FAG
A    5
CBB
A    6
CAP
A    7
CAK
A    8
CAH
A    9
CAI
A   10
CAX
A   11
NAS
A   12
CAV
A   13
OAD
A   14
CAZ
A   15
CAQ
A   16
CAL
A   17
CAJ
A   18
CAW
A   19
CAA
A   20
CBC
A   21
NAT
A   22
CAY
A   23
CAO
A   24
CAM
A   25
NAR
A   26
CAN
A   27
CBA
A   28
CAU
A   29
OAC
A   30
NAB
M  END
