3DL9_V2H_A_602
     RDKit          3D

 74 76  0  0  0  0  0  0  0  0999 V2000
  -46.6730    8.9040  -24.9440 O   0  0  0  0  0  0  0  0  0  0  0  0
  -45.7130    8.1100  -24.2330 C   0  0  0  0  0  0  0  0  0  0  0  0
  -44.9170    9.0210  -23.2910 C   0  0  0  0  0  0  0  0  0  0  0  0
  -44.0250    8.3040  -22.2590 C   0  0  0  0  0  0  0  0  0  0  0  0
  -42.8460    7.7780  -22.8660 O   0  0  0  0  0  0  0  0  0  0  0  0
  -46.3700    7.0080  -23.4430 C   0  0  0  0  0  0  0  0  0  0  0  0
  -47.6510    6.7020  -23.5540 C   0  0  0  0  0  0  0  0  0  0  0  0
  -45.4640    6.3100  -22.5490 C   0  0  0  0  0  0  0  0  0  0  0  0
  -44.7900    7.1950  -21.5430 C   0  0  0  0  0  0  0  0  0  0  0  0
  -45.1630    4.9860  -22.5840 C   0  0  0  0  0  0  0  0  0  0  0  0
  -45.7330    3.9970  -23.5210 C   0  0  0  0  0  0  0  0  0  0  0  0
  -45.3350    2.6950  -23.5430 C   0  0  0  0  0  0  0  0  0  0  0  0
  -44.2520    2.1550  -22.6220 C   0  0  0  0  0  0  0  0  0  0  0  0
  -44.4510    0.6970  -22.1950 C   0  0  0  0  0  0  0  0  0  0  0  0
  -45.0670   -0.2260  -23.2410 C   0  0  0  0  0  0  0  0  0  0  0  0
  -46.3240    0.3870  -23.8120 C   0  0  0  0  0  0  0  0  0  0  0  0
  -45.8940    1.6800  -24.5110 C   0  0  0  0  0  0  0  0  0  0  0  0
  -47.3320    0.6200  -22.6770 C   0  0  0  0  0  0  0  0  0  0  0  0
  -46.9040   -0.4110  -25.0020 C   0  0  0  0  0  0  0  0  0  0  0  0
  -47.6870    0.6760  -25.7730 C   0  0  0  0  0  0  0  0  0  0  0  0
  -47.1360    2.0380  -25.3200 C   0  0  0  0  0  0  0  0  0  0  0  0
  -47.7350   -1.6910  -24.6950 C   0  0  0  0  0  0  0  0  0  0  0  0
  -46.8680   -2.8820  -24.2830 C   0  0  0  0  0  0  0  0  0  0  0  0
  -48.5990   -2.0850  -25.8880 C   0  0  0  0  0  0  0  0  0  0  0  0
  -48.0660   -2.3770  -27.0740 C   0  0  0  0  0  0  0  0  0  0  0  0
  -48.9770   -2.7690  -28.2410 C   0  0  0  0  0  0  0  0  0  0  0  0
  -48.7630   -4.2260  -28.6410 C   0  0  0  0  0  0  0  0  0  0  0  0
  -48.8110   -1.8350  -29.4640 C   0  0  0  0  0  0  0  0  0  0  0  0
  -49.6710   -2.3230  -30.6400 C   0  0  0  0  0  0  0  0  0  0  0  0
  -47.3540   -1.6460  -29.8940 C   0  0  0  0  0  0  0  0  0  0  0  0
  -47.2504    9.3815  -24.2969 H   0  0  0  0  0  0  0  0  0  0  0  0
  -45.0445    7.6353  -24.9663 H   0  0  0  0  0  0  0  0  0  0  0  0
  -44.2705    9.6622  -23.9082 H   0  0  0  0  0  0  0  0  0  0  0  0
  -45.6668    9.5729  -22.7052 H   0  0  0  0  0  0  0  0  0  0  0  0
  -43.7228    9.0545  -21.5138 H   0  0  0  0  0  0  0  0  0  0  0  0
  -42.2106    7.4945  -22.1617 H   0  0  0  0  0  0  0  0  0  0  0  0
  -48.0759    5.8862  -22.9507 H   0  0  0  0  0  0  0  0  0  0  0  0
  -48.2922    7.2631  -24.2497 H   0  0  0  0  0  0  0  0  0  0  0  0
  -44.0888    6.5969  -20.9425 H   0  0  0  0  0  0  0  0  0  0  0  0
  -45.5507    7.6440  -20.8875 H   0  0  0  0  0  0  0  0  0  0  0  0
  -44.4306    4.6182  -21.8503 H   0  0  0  0  0  0  0  0  0  0  0  0
  -46.5090    4.3248  -24.2284 H   0  0  0  0  0  0  0  0  0  0  0  0
  -43.2870    2.2315  -23.1444 H   0  0  0  0  0  0  0  0  0  0  0  0
  -44.2924    2.7587  -21.7034 H   0  0  0  0  0  0  0  0  0  0  0  0
  -43.4667    0.2883  -21.9229 H   0  0  0  0  0  0  0  0  0  0  0  0
  -45.1706    0.7263  -21.3636 H   0  0  0  0  0  0  0  0  0  0  0  0
  -44.3423   -0.3883  -24.0525 H   0  0  0  0  0  0  0  0  0  0  0  0
  -45.3228   -1.1838  -22.7643 H   0  0  0  0  0  0  0  0  0  0  0  0
  -45.0295    1.6052  -25.1871 H   0  0  0  0  0  0  0  0  0  0  0  0
  -46.8259    0.5030  -21.7074 H   0  0  0  0  0  0  0  0  0  0  0  0
  -47.7438    1.6370  -22.7553 H   0  0  0  0  0  0  0  0  0  0  0  0
  -48.1483   -0.1131  -22.7553 H   0  0  0  0  0  0  0  0  0  0  0  0
  -46.0957   -0.8937  -25.5710 H   0  0  0  0  0  0  0  0  0  0  0  0
  -47.5394    0.5506  -26.8558 H   0  0  0  0  0  0  0  0  0  0  0  0
  -48.7650    0.6019  -25.5670 H   0  0  0  0  0  0  0  0  0  0  0  0
  -47.8698    2.5692  -24.6961 H   0  0  0  0  0  0  0  0  0  0  0  0
  -46.9143    2.7080  -26.1638 H   0  0  0  0  0  0  0  0  0  0  0  0
  -48.3775   -1.4326  -23.8404 H   0  0  0  0  0  0  0  0  0  0  0  0
  -46.8246   -2.9417  -23.1855 H   0  0  0  0  0  0  0  0  0  0  0  0
  -47.3041   -3.8090  -24.6836 H   0  0  0  0  0  0  0  0  0  0  0  0
  -45.8519   -2.7518  -24.6836 H   0  0  0  0  0  0  0  0  0  0  0  0
  -49.6914   -2.1294  -25.7665 H   0  0  0  0  0  0  0  0  0  0  0  0
  -46.9757   -2.3366  -27.2142 H   0  0  0  0  0  0  0  0  0  0  0  0
  -50.0111   -2.6519  -27.8846 H   0  0  0  0  0  0  0  0  0  0  0  0
  -48.6721   -4.8450  -27.7363 H   0  0  0  0  0  0  0  0  0  0  0  0
  -49.6199   -4.5721  -29.2375 H   0  0  0  0  0  0  0  0  0  0  0  0
  -47.8427   -4.3111  -29.2375 H   0  0  0  0  0  0  0  0  0  0  0  0
  -49.1651   -0.8434  -29.1456 H   0  0  0  0  0  0  0  0  0  0  0  0
  -50.5666   -2.8312  -30.2532 H   0  0  0  0  0  0  0  0  0  0  0  0
  -49.9743   -1.4624  -31.2544 H   0  0  0  0  0  0  0  0  0  0  0  0
  -49.0878   -3.0247  -31.2544 H   0  0  0  0  0  0  0  0  0  0  0  0
  -46.7161   -1.5633  -29.0017 H   0  0  0  0  0  0  0  0  0  0  0  0
  -47.0339   -2.5102  -30.4947 H   0  0  0  0  0  0  0  0  0  0  0  0
  -47.2650   -0.7288  -30.4947 H   0  0  0  0  0  0  0  0  0  0  0  0
  1  2  1  0
  2  6  1  0
  2  3  1  0
  3  4  1  0
  5  4  1  0
  4  9  1  0
  7  6  2  0
  6  8  1  0
 10  8  2  0
  8  9  1  0
 11 10  1  0
 12 11  2  0
 17 12  1  0
 12 13  1  0
 13 14  1  0
 15 14  1  0
 16 15  1  0
 19 16  1  0
 17 16  1  0
 16 18  1  0
 21 17  1  0
 20 19  1  0
 19 22  1  0
 20 21  1  0
 24 22  1  0
 22 23  1  0
 25 24  2  0
 26 25  1  0
 28 26  1  0
 27 26  1  0
 29 28  1  0
 30 28  1  0
  1 31  1  0
  2 32  1  0
  3 33  1  0
  3 34  1  0
  4 35  1  0
  5 36  1  0
  7 37  1  0
  7 38  1  0
  9 39  1  0
  9 40  1  0
 10 41  1  0
 11 42  1  0
 13 43  1  0
 13 44  1  0
 14 45  1  0
 14 46  1  0
 15 47  1  0
 15 48  1  0
 17 49  1  0
 18 50  1  0
 18 51  1  0
 18 52  1  0
 19 53  1  0
 20 54  1  0
 20 55  1  0
 21 56  1  0
 21 57  1  0
 22 58  1  0
 23 59  1  0
 23 60  1  0
 23 61  1  0
 24 62  1  0
 25 63  1  0
 26 64  1  0
 27 65  1  0
 27 66  1  0
 27 67  1  0
 28 68  1  0
 29 69  1  0
 29 70  1  0
 29 71  1  0
 30 72  1  0
 30 73  1  0
 30 74  1  0
A    1
O30
A    2
CAN
A    3
CAO
A    4
CAZ
A    5
OAG
A    6
CAT
A    7
CAA
A    8
CAU
A    9
CAS
A   10
CAH
A   11
CAI
A   12
CAV
A   13
CAM
A   14
CAL
A   15
CAR
A   16
CBC
A   17
CBA
A   18
CAF
A   19
CBB
A   20
CAQ
A   21
CAP
A   22
CAY
A   23
CAE
A   24
CAK
A   25
CAJ
A   26
CAX
A   27
CAD
A   28
CAW
A   29
CAB
A   30
CAC
M  END
