3DN5_53N_A_600
     RDKit          3D

 30 31  0  0  0  0  0  0  0  0999 V2000
   15.3750    7.4510  -13.7370 C   0  0  0  0  0  0  0  0  0  0  0  0
   15.9500    8.1770  -12.6970 C   0  0  0  0  0  0  0  0  0  0  0  0
   17.0780    9.1620  -12.9700 C   0  0  0  0  0  0  0  0  0  0  0  0
   19.4640   12.2880  -12.3910 C   0  0  0  0  0  0  0  0  0  0  0  0
   18.6870   10.4930  -14.0300 C   0  0  0  0  0  0  0  0  0  0  0  0
   15.4540    7.9870  -11.3970 C   0  0  0  0  0  0  0  0  0  0  0  0
   14.3290    6.5550  -13.4950 C   0  0  0  0  0  0  0  0  0  0  0  0
   13.7070    5.9240  -14.5640 N   0  0  0  0  0  0  0  0  0  0  0  0
   12.6430    5.3030  -14.3610 O   0  0  0  0  0  0  0  0  0  0  0  0
   14.3370    6.0770  -15.6340 O   0  0  0  0  0  0  0  0  0  0  0  0
   17.5270   10.3640  -11.7250 S   0  0  0  0  0  0  0  0  0  0  0  0
   18.6730   11.1050  -12.8620 C   0  0  0  0  0  0  0  0  0  0  0  0
   18.8280   13.6860  -12.4850 C   0  0  0  0  0  0  0  0  0  0  0  0
   17.8940   13.8870  -11.3120 C   0  0  0  0  0  0  0  0  0  0  0  0
   17.0600   14.9150  -11.3730 O   0  0  0  0  0  0  0  0  0  0  0  0
   17.9400   13.1050  -10.3660 O   0  0  0  0  0  0  0  0  0  0  0  0
   17.7590    9.3500  -14.1180 C   0  0  0  0  0  0  0  0  0  0  0  0
   14.4170    7.1020  -11.1780 C   0  0  0  0  0  0  0  0  0  0  0  0
   13.8130    6.3580  -12.2010 C   0  0  0  0  0  0  0  0  0  0  0  0
   15.7487    7.5842  -14.7630 H   0  0  0  0  0  0  0  0  0  0  0  0
   19.7083   12.1138  -11.3327 H   0  0  0  0  0  0  0  0  0  0  0  0
   20.3154   12.3343  -13.0859 H   0  0  0  0  0  0  0  0  0  0  0  0
   19.3326   10.8067  -14.8635 H   0  0  0  0  0  0  0  0  0  0  0  0
   15.8911    8.5425  -10.5542 H   0  0  0  0  0  0  0  0  0  0  0  0
   19.6174   14.4517  -12.4622 H   0  0  0  0  0  0  0  0  0  0  0  0
   18.2644   13.7733  -13.4256 H   0  0  0  0  0  0  0  0  0  0  0  0
   16.7236   15.3296  -10.5393 H   0  0  0  0  0  0  0  0  0  0  0  0
   17.6370    8.7247  -15.0147 H   0  0  0  0  0  0  0  0  0  0  0  0
   14.0466    6.9745  -10.1501 H   0  0  0  0  0  0  0  0  0  0  0  0
   12.9848    5.6615  -12.0038 H   0  0  0  0  0  0  0  0  0  0  0  0
  1  2  2  0
  1  7  1  0
  2  3  1  0
  2  6  1  0
  3 11  1  0
  3 17  2  0
  4 12  1  0
  4 13  1  0
  5 12  2  0
  5 17  1  0
  6 18  2  0
  7  8  1  0
  7 19  2  0
  8  9  1  0
  8 10  2  0
 11 12  1  0
 13 14  1  0
 14 15  1  0
 14 16  2  0
 18 19  1  0
  1 20  1  0
  4 21  1  0
  4 22  1  0
  5 23  1  0
  6 24  1  0
 13 25  1  0
 13 26  1  0
 15 27  1  0
 17 28  1  0
 18 29  1  0
 19 30  1  0
M  CHG  2   8   1   9  -1
A    1
C5
A    2
C6
A    3
C7
A    4
C10
A    5
C15
A    6
C17
A    7
C1
A    8
N2
A    9
O3
A   10
O4
A   11
S8
A   12
C9
A   13
C11
A   14
C12
A   15
O13
A   16
O14
A   17
C16
A   18
C18
A   19
C19
M  END
