3DND_LL2_A_351
     RDKit          3D

 23 24  0  0  0  0  0  0  0  0999 V2000
    8.9100    9.9830    3.0430 C   0  0  0  0  0  0  0  0  0  0  0  0
    9.6680    8.9910    2.3900 C   0  0  0  0  0  0  0  0  0  0  0  0
   10.1440    7.8730    3.0960 C   0  0  0  0  0  0  0  0  0  0  0  0
    9.8370    7.8050    4.4640 C   0  0  0  0  0  0  0  0  0  0  0  0
    9.0870    8.7970    5.1390 C   0  0  0  0  0  0  0  0  0  0  0  0
    8.6130    9.9080    4.4230 C   0  0  0  0  0  0  0  0  0  0  0  0
    7.7840   11.0150    5.1230 C   0  0  0  0  0  0  0  0  0  0  0  0
    6.2950   10.8290    4.7470 C   0  0  0  0  0  0  0  0  0  0  0  0
    5.8850   10.8230    3.1450 S   0  0  0  0  0  0  0  0  0  0  0  0
    5.1430   10.6460    5.4710 C   0  0  0  0  0  0  0  0  0  0  0  0
    3.9720   10.4870    4.7480 N   0  0  0  0  0  0  0  0  0  0  0  0
    4.1890   10.5520    3.3970 C   0  0  0  0  0  0  0  0  0  0  0  0
    3.2970   10.4440    2.4100 N   0  0  0  0  0  0  0  0  0  0  0  0
    8.5387   10.8403    2.4624 H   0  0  0  0  0  0  0  0  0  0  0  0
    9.8893    9.0926    1.3173 H   0  0  0  0  0  0  0  0  0  0  0  0
   10.7308    7.0865    2.5989 H   0  0  0  0  0  0  0  0  0  0  0  0
   10.1967    6.9389    5.0389 H   0  0  0  0  0  0  0  0  0  0  0  0
    8.8773    8.6988    6.2143 H   0  0  0  0  0  0  0  0  0  0  0  0
    7.9037   10.9340    6.2135 H   0  0  0  0  0  0  0  0  0  0  0  0
    8.1323   12.0068    4.7990 H   0  0  0  0  0  0  0  0  0  0  0  0
    5.1494   10.6266    6.5708 H   0  0  0  0  0  0  0  0  0  0  0  0
    2.2980   10.3230    2.6297 H   0  0  0  0  0  0  0  0  0  0  0  0
    3.6077   10.4816    1.4287 H   0  0  0  0  0  0  0  0  0  0  0  0
  1  2  2  0
  1  6  1  0
  2  3  1  0
  3  4  2  0
  4  5  1  0
  5  6  2  0
  6  7  1  0
  7  8  1  0
  8  9  1  0
  8 10  2  0
  9 12  1  0
 10 11  1  0
 11 12  2  0
 12 13  1  0
  1 14  1  0
  2 15  1  0
  3 16  1  0
  4 17  1  0
  5 18  1  0
  7 19  1  0
  7 20  1  0
 10 21  1  0
 13 22  1  0
 13 23  1  0
A    1
C8
A    2
C11
A    3
C13
A    4
C12
A    5
C9
A    6
C5
A    7
C2
A    8
C1
A    9
S4
A   10
C3
A   11
N6
A   12
C7
A   13
N10
M  END
