3DNE_LL1_A_351
     RDKit          3D

 24 26  0  0  0  0  0  0  0  0999 V2000
    8.1770   10.4530    3.5880 C   0  0  0  0  0  0  0  0  0  0  0  0
    8.4900   10.9060    4.8980 C   0  0  0  0  0  0  0  0  0  0  0  0
    9.8320   11.1480    5.3000 C   0  0  0  0  0  0  0  0  0  0  0  0
   10.8840   10.9750    4.3630 C   0  0  0  0  0  0  0  0  0  0  0  0
   10.5770   10.5050    3.0310 C   0  0  0  0  0  0  0  0  0  0  0  0
    9.2460   10.2780    2.6400 C   0  0  0  0  0  0  0  0  0  0  0  0
    8.6750    9.9220    1.4520 N   0  0  0  0  0  0  0  0  0  0  0  0
    7.4230    9.8510    1.6070 N   0  0  0  0  0  0  0  0  0  0  0  0
    6.9890   10.1560    2.8550 C   0  0  0  0  0  0  0  0  0  0  0  0
    5.6030   10.1850    3.2950 C   0  0  0  0  0  0  0  0  0  0  0  0
    4.5770   10.2690    2.3320 C   0  0  0  0  0  0  0  0  0  0  0  0
    3.2090   10.2580    2.6860 C   0  0  0  0  0  0  0  0  0  0  0  0
    2.9070   10.2090    4.0030 N   0  0  0  0  0  0  0  0  0  0  0  0
    3.7950   10.1120    5.0010 C   0  0  0  0  0  0  0  0  0  0  0  0
    5.2030   10.0990    4.6690 C   0  0  0  0  0  0  0  0  0  0  0  0
    7.6751   11.0733    5.6177 H   0  0  0  0  0  0  0  0  0  0  0  0
   10.0534   11.4668    6.3292 H   0  0  0  0  0  0  0  0  0  0  0  0
   11.9231   11.1965    4.6478 H   0  0  0  0  0  0  0  0  0  0  0  0
   11.3931   10.3231    2.3162 H   0  0  0  0  0  0  0  0  0  0  0  0
    9.1816    9.7410    0.5737 H   0  0  0  0  0  0  0  0  0  0  0  0
    4.8504   10.3457    1.2693 H   0  0  0  0  0  0  0  0  0  0  0  0
    2.4203   10.2881    1.9198 H   0  0  0  0  0  0  0  0  0  0  0  0
    3.4619   10.0439    6.0472 H   0  0  0  0  0  0  0  0  0  0  0  0
    5.9599   10.0238    5.4637 H   0  0  0  0  0  0  0  0  0  0  0  0
  6  1  1  0
  9  1  1  0
  1  2  2  0
  2  3  1  0
  4  3  2  0
  5  4  1  0
  6  5  2  0
  7  6  1  0
  7  8  1  0
  8  9  2  0
  9 10  1  0
 11 10  2  0
 10 15  1  0
 11 12  1  0
 12 13  2  0
 13 14  1  0
 15 14  2  0
  2 16  1  0
  3 17  1  0
  4 18  1  0
  5 19  1  0
  7 20  1  0
 11 21  1  0
 12 22  1  0
 14 23  1  0
 15 24  1  0
A    1
C4
A    2
C5
A    3
C6
A    4
C1
A    5
C2
A    6
C3
A    7
N11
A    8
N12
A    9
C13
A   10
C14
A   11
C15
A   12
C16
A   13
N17
A   14
C18
A   15
C19
M  END
