3DPD_41A_A_2040
     RDKit          3D

 36 38  0  0  0  0  0  0  0  0999 V2000
   24.1900   63.5150   17.3780 C   0  0  0  0  0  0  0  0  0  0  0  0
   24.1550   63.1820   18.8730 C   0  0  0  0  0  0  0  0  0  0  0  0
   24.5710   64.4310   19.6530 C   0  0  0  0  0  0  0  0  0  0  0  0
   22.6950   62.7410   19.2510 C   0  0  0  0  0  0  0  0  0  0  0  0
   22.5850   61.9090   20.5080 C   0  0  0  0  0  0  0  0  0  0  0  0
   23.6610   61.2170   21.0160 C   0  0  0  0  0  0  0  0  0  0  0  0
   24.9960   61.2130   20.4380 C   0  0  0  0  0  0  0  0  0  0  0  0
   25.1700   62.0270   19.1610 C   0  0  0  0  0  0  0  0  0  0  0  0
   25.9150   60.5800   20.9300 O   0  0  0  0  0  0  0  0  0  0  0  0
   23.2060   60.3710   22.4610 S   0  0  0  0  0  0  0  0  0  0  0  0
   21.5800   61.0030   22.2570 C   0  0  0  0  0  0  0  0  0  0  0  0
   20.5900   60.6840   23.1420 N   0  0  0  0  0  0  0  0  0  0  0  0
   20.4760   59.2650   23.4940 C   0  0  0  0  0  0  0  0  0  0  0  0
   19.3790   59.0630   24.5280 C   0  0  0  0  0  0  0  0  0  0  0  0
   18.1390   59.6190   24.1170 O   0  0  0  0  0  0  0  0  0  0  0  0
   18.2640   61.0130   23.8510 C   0  0  0  0  0  0  0  0  0  0  0  0
   19.2750   61.2880   22.7640 C   0  0  0  0  0  0  0  0  0  0  0  0
   21.4160   61.7760   21.2090 N   0  0  0  0  0  0  0  0  0  0  0  0
   24.3042   64.6012   17.2469 H   0  0  0  0  0  0  0  0  0  0  0  0
   25.0387   62.9976   16.9069 H   0  0  0  0  0  0  0  0  0  0  0  0
   23.2523   63.1853   16.9069 H   0  0  0  0  0  0  0  0  0  0  0  0
   24.5036   64.2287   20.7321 H   0  0  0  0  0  0  0  0  0  0  0  0
   25.6063   64.6973   19.3938 H   0  0  0  0  0  0  0  0  0  0  0  0
   23.9021   65.2649   19.3938 H   0  0  0  0  0  0  0  0  0  0  0  0
   22.0890   63.6487   19.3883 H   0  0  0  0  0  0  0  0  0  0  0  0
   22.3436   62.1021   18.4274 H   0  0  0  0  0  0  0  0  0  0  0  0
   25.1119   61.3244   18.3166 H   0  0  0  0  0  0  0  0  0  0  0  0
   26.1336   62.5401   19.2956 H   0  0  0  0  0  0  0  0  0  0  0  0
   20.2342   58.6856   22.5908 H   0  0  0  0  0  0  0  0  0  0  0  0
   21.4325   58.9237   23.9165 H   0  0  0  0  0  0  0  0  0  0  0  0
   19.2446   57.9840   24.6942 H   0  0  0  0  0  0  0  0  0  0  0  0
   19.6881   59.5774   25.4499 H   0  0  0  0  0  0  0  0  0  0  0  0
   17.2858   61.4042   23.5347 H   0  0  0  0  0  0  0  0  0  0  0  0
   18.6086   61.5071   24.7714 H   0  0  0  0  0  0  0  0  0  0  0  0
   19.3929   62.3745   22.6392 H   0  0  0  0  0  0  0  0  0  0  0  0
   18.9266   60.8461   21.8188 H   0  0  0  0  0  0  0  0  0  0  0  0
  1  2  1  0
  2  3  1  0
  2  4  1  0
  2  8  1  0
  4  5  1  0
  5  6  2  0
  5 18  1  0
  6  7  1  0
  6 10  1  0
  7  8  1  0
  7  9  2  0
 10 11  1  0
 11 12  1  0
 11 18  2  0
 12 13  1  0
 12 17  1  0
 13 14  1  0
 14 15  1  0
 15 16  1  0
 16 17  1  0
  1 19  1  0
  1 20  1  0
  1 21  1  0
  3 22  1  0
  3 23  1  0
  3 24  1  0
  4 25  1  0
  4 26  1  0
  8 27  1  0
  8 28  1  0
 13 29  1  0
 13 30  1  0
 14 31  1  0
 14 32  1  0
 16 33  1  0
 16 34  1  0
 17 35  1  0
 17 36  1  0
A    1
C01
A    2
C02
A    3
C03
A    4
C04
A    5
C05
A    6
C06
A    7
C07
A    8
C08
A    9
O09
A   10
S10
A   11
C11
A   12
N12
A   13
C13
A   14
C14
A   15
O15
A   16
C16
A   17
C17
A   18
N18
M  END
