3DPE_AXB_A_1
     RDKit          3D

 58 63  0  0  0  0  0  0  0  0999 V2000
   13.7060   -0.0880    2.6590 N   0  0  0  0  0  0  0  0  0  0  0  0
   12.9610    0.8860    3.1710 C   0  0  0  0  0  0  0  0  0  0  0  0
   13.1210    2.4050    3.2600 C   0  0  0  0  0  0  0  0  0  0  0  0
   14.0090    3.2120    2.9990 O   0  0  0  0  0  0  0  0  0  0  0  0
   11.7390    2.4470    3.9090 C   0  0  0  0  0  0  0  0  0  0  0  0
   10.9760    3.3170    4.3220 O   0  0  0  0  0  0  0  0  0  0  0  0
   11.7400    0.9170    3.8420 C   0  0  0  0  0  0  0  0  0  0  0  0
   10.9110   -0.0270    4.2760 N   0  0  0  0  0  0  0  0  0  0  0  0
   10.2020    0.2230    5.5420 C   0  0  0  0  0  0  0  0  0  0  0  0
    8.8740   -0.5360    5.5940 C   0  0  0  0  0  0  0  0  0  0  0  0
   11.1110   -1.3890    3.7550 C   0  0  0  0  0  0  0  0  0  0  0  0
   10.1500   -2.3860    4.4040 C   0  0  0  0  0  0  0  0  0  0  0  0
   10.3370   -3.7300    4.1080 C   0  0  0  0  0  0  0  0  0  0  0  0
    9.1140   -2.0060    5.2490 C   0  0  0  0  0  0  0  0  0  0  0  0
    8.2730   -2.9740    5.7890 C   0  0  0  0  0  0  0  0  0  0  0  0
    8.4620   -4.3190    5.4910 C   0  0  0  0  0  0  0  0  0  0  0  0
    9.4980   -4.6970    4.6460 C   0  0  0  0  0  0  0  0  0  0  0  0
    9.7450   -6.1610    4.2790 C   0  0  0  0  0  0  0  0  0  0  0  0
    8.6660   -7.0190    4.7870 N   0  0  0  0  0  0  0  0  0  0  0  0
    7.4470   -7.0320    4.2560 C   0  0  0  0  0  0  0  0  0  0  0  0
    7.0830   -6.3330    3.3120 O   0  0  0  0  0  0  0  0  0  0  0  0
    6.4930   -8.0100    4.9420 C   0  0  0  0  0  0  0  0  0  0  0  0
    6.9780   -8.8170    5.8930 N   0  0  0  0  0  0  0  0  0  0  0  0
    6.1890   -9.6950    6.5230 C   0  0  0  0  0  0  0  0  0  0  0  0
    6.5510  -10.8230    7.7550 S   0  0  0  0  0  0  0  0  0  0  0  0
    4.9770  -11.4750    7.9150 C   0  0  0  0  0  0  0  0  0  0  0  0
    4.5630  -12.5970    8.8690 C   0  0  0  0  0  0  0  0  0  0  0  0
    2.7430  -12.6950    8.9870 S   0  0  0  0  0  0  0  0  0  0  0  0
    2.3330  -14.0690    9.4280 O   0  0  0  0  0  0  0  0  0  0  0  0
    2.2390  -11.6660    9.9550 O   0  0  0  0  0  0  0  0  0  0  0  0
    2.1380  -12.3370    7.3000 C   0  0  0  0  0  0  0  0  0  0  0  0
    2.6560  -10.9730    6.8430 C   0  0  0  0  0  0  0  0  0  0  0  0
    4.1700  -10.7940    7.0000 C   0  0  0  0  0  0  0  0  0  0  0  0
    4.8310   -9.8260    6.2360 C   0  0  0  0  0  0  0  0  0  0  0  0
    4.3130   -8.9940    5.2490 C   0  0  0  0  0  0  0  0  0  0  0  0
    3.1210   -9.0410    4.9470 O   0  0  0  0  0  0  0  0  0  0  0  0
    5.1410   -8.0780    4.5910 N   0  0  0  0  0  0  0  0  0  0  0  0
   14.2035   -0.7385    3.2837 H   0  0  0  0  0  0  0  0  0  0  0  0
   13.7859   -0.1925    1.6374 H   0  0  0  0  0  0  0  0  0  0  0  0
   10.8358   -0.1058    6.3788 H   0  0  0  0  0  0  0  0  0  0  0  0
    9.9899    1.2999    5.6147 H   0  0  0  0  0  0  0  0  0  0  0  0
    8.4483   -0.4614    6.6055 H   0  0  0  0  0  0  0  0  0  0  0  0
    8.1727   -0.0985    4.8682 H   0  0  0  0  0  0  0  0  0  0  0  0
   10.9405   -1.3843    2.6683 H   0  0  0  0  0  0  0  0  0  0  0  0
   12.1398   -1.6998    3.9895 H   0  0  0  0  0  0  0  0  0  0  0  0
   11.1579   -4.0315    3.4407 H   0  0  0  0  0  0  0  0  0  0  0  0
    7.4523   -2.6730    6.4568 H   0  0  0  0  0  0  0  0  0  0  0  0
    7.7947   -5.0798    5.9221 H   0  0  0  0  0  0  0  0  0  0  0  0
    9.7938   -6.2543    3.1841 H   0  0  0  0  0  0  0  0  0  0  0  0
   10.6931   -6.4821    4.7351 H   0  0  0  0  0  0  0  0  0  0  0  0
    8.8620   -7.6362    5.5879 H   0  0  0  0  0  0  0  0  0  0  0  0
    4.9537  -13.5543    8.4936 H   0  0  0  0  0  0  0  0  0  0  0  0
    4.9740  -12.3858    9.8672 H   0  0  0  0  0  0  0  0  0  0  0  0
    2.4983  -13.1144    6.6101 H   0  0  0  0  0  0  0  0  0  0  0  0
    1.0381  -12.3255    7.3033 H   0  0  0  0  0  0  0  0  0  0  0  0
    2.4013  -10.8450    5.7806 H   0  0  0  0  0  0  0  0  0  0  0  0
    2.1790  -10.2202    7.4878 H   0  0  0  0  0  0  0  0  0  0  0  0
    4.7601   -7.4624    3.8583 H   0  0  0  0  0  0  0  0  0  0  0  0
  1  2  1  0
  2  3  1  0
  2  7  2  0
  3  4  2  0
  3  5  1  0
  5  6  2  0
  5  7  1  0
  7  8  1  0
  8  9  1  0
  8 11  1  0
  9 10  1  0
 10 14  1  0
 11 12  1  0
 12 13  1  0
 12 14  2  0
 13 17  2  0
 14 15  1  0
 15 16  2  0
 16 17  1  0
 17 18  1  0
 18 19  1  0
 19 20  1  0
 20 21  2  0
 20 22  1  0
 22 23  2  0
 22 37  1  0
 23 24  1  0
 24 25  1  0
 24 34  2  0
 25 26  1  0
 26 27  1  0
 26 33  2  0
 27 28  1  0
 28 29  2  0
 28 30  2  0
 28 31  1  0
 31 32  1  0
 32 33  1  0
 33 34  1  0
 34 35  1  0
 35 36  2  0
 35 37  1  0
  1 38  1  0
  1 39  1  0
  9 40  1  0
  9 41  1  0
 10 42  1  0
 10 43  1  0
 11 44  1  0
 11 45  1  0
 13 46  1  0
 15 47  1  0
 16 48  1  0
 18 49  1  0
 18 50  1  0
 19 51  1  0
 27 52  1  0
 27 53  1  0
 31 54  1  0
 31 55  1  0
 32 56  1  0
 32 57  1  0
 37 58  1  0
A    1
N1
A    2
CAZ
A    3
CBF
A    4
OAD
A    5
CBG
A    6
OAE
A    7
CBD
A    8
N2
A    9
CAM
A   10
CAK
A   11
CAP
A   12
CAY
A   13
CAJ
A   14
CAX
A   15
CAI
A   16
CAH
A   17
CAW
A   18
CAO
A   19
N3
A   20
CAV
A   21
OAB
A   22
CBB
A   23
N4
A   24
CBH
A   25
SAU
A   26
CBA
A   27
CAQ
A   28
SBK
A   29
OAF
A   30
OAG
A   31
CAN
A   32
CAL
A   33
CBC
A   34
CBI
A   35
CBE
A   36
OAC
A   37
N5
M  END
