3DPK_8C5_A_923
     RDKit          3D

 70 74  0  0  0  0  0  0  0  0999 V2000
   10.5750   20.2780    3.8290 C   0  0  0  0  0  0  0  0  0  0  0  0
    9.1840   20.5580    4.0830 O   0  0  0  0  0  0  0  0  0  0  0  0
    8.9300   21.7140    4.8030 N   0  0  0  0  0  0  0  0  0  0  0  0
    8.1400   22.7880    4.3020 C   0  0  0  0  0  0  0  0  0  0  0  0
    7.5770   22.7950    3.2110 O   0  0  0  0  0  0  0  0  0  0  0  0
    7.6990   23.8810    5.2840 C   0  0  0  0  0  0  0  0  0  0  0  0
    6.7760   24.8060    4.8920 C   0  0  0  0  0  0  0  0  0  0  0  0
    6.4820   25.9810    5.5640 N   0  0  0  0  0  0  0  0  0  0  0  0
    6.9230   26.1680    6.8980 C   0  0  0  0  0  0  0  0  0  0  0  0
    6.5840   27.2810    7.6170 N   0  0  0  0  0  0  0  0  0  0  0  0
    7.0810   27.3670    8.9570 C   0  0  0  0  0  0  0  0  0  0  0  0
    7.8780   26.4280    9.5120 N   0  0  0  0  0  0  0  0  0  0  0  0
    8.1700   25.3910    8.7230 C   0  0  0  0  0  0  0  0  0  0  0  0
    7.7440   25.1650    7.4200 C   0  0  0  0  0  0  0  0  0  0  0  0
    8.1500   23.9510    6.6790 C   0  0  0  0  0  0  0  0  0  0  0  0
    8.8680   23.0950    7.2350 O   0  0  0  0  0  0  0  0  0  0  0  0
    6.6640   28.5620    9.5580 N   0  0  0  0  0  0  0  0  0  0  0  0
    5.6360   29.5710    9.1820 C   0  0  0  0  0  0  0  0  0  0  0  0
    5.3710   29.9530    7.8660 C   0  0  0  0  0  0  0  0  0  0  0  0
    4.3530   30.8810    7.5520 C   0  0  0  0  0  0  0  0  0  0  0  0
    3.5530   31.5060    8.4990 C   0  0  0  0  0  0  0  0  0  0  0  0
    3.8150   31.1030    9.8170 C   0  0  0  0  0  0  0  0  0  0  0  0
    4.8140   30.1950   10.1520 C   0  0  0  0  0  0  0  0  0  0  0  0
    2.3450   32.3680    8.1220 C   0  0  0  0  0  0  0  0  0  0  0  0
    0.9960   31.5910    8.3420 C   0  0  0  0  0  0  0  0  0  0  0  0
   -0.2520   32.2860    7.8520 N   0  0  0  0  0  0  0  0  0  0  0  0
   -0.0410   33.1120    6.6340 C   0  0  0  0  0  0  0  0  0  0  0  0
   -1.4500   33.5850    6.2310 C   0  0  0  0  0  0  0  0  0  0  0  0
   -2.3920   32.5620    6.8390 C   0  0  0  0  0  0  0  0  0  0  0  0
   -1.4960   31.5320    7.5440 C   0  0  0  0  0  0  0  0  0  0  0  0
    5.8230   27.1630    4.8020 C   0  0  0  0  0  0  0  0  0  0  0  0
    6.7760   27.8110    3.7830 C   0  0  0  0  0  0  0  0  0  0  0  0
    6.1580   29.0520    3.1280 C   0  0  0  0  0  0  0  0  0  0  0  0
    4.9640   28.7180    2.2910 C   0  0  0  0  0  0  0  0  0  0  0  0
    3.9710   27.9820    3.1610 C   0  0  0  0  0  0  0  0  0  0  0  0
    4.5330   26.8310    4.0590 C   0  0  0  0  0  0  0  0  0  0  0  0
   11.1080   20.1707    4.7853 H   0  0  0  0  0  0  0  0  0  0  0  0
   10.6620   19.3443    3.2540 H   0  0  0  0  0  0  0  0  0  0  0  0
   11.0165   21.1053    3.2540 H   0  0  0  0  0  0  0  0  0  0  0  0
    9.3323   21.8011    5.7472 H   0  0  0  0  0  0  0  0  0  0  0  0
    6.2192   24.6018    3.9656 H   0  0  0  0  0  0  0  0  0  0  0  0
    8.8271   24.6230    9.1571 H   0  0  0  0  0  0  0  0  0  0  0  0
    7.1662   28.7858   10.4290 H   0  0  0  0  0  0  0  0  0  0  0  0
    5.9706   29.5201    7.0517 H   0  0  0  0  0  0  0  0  0  0  0  0
    4.1839   31.1231    6.4924 H   0  0  0  0  0  0  0  0  0  0  0  0
    3.2002   31.5259   10.6252 H   0  0  0  0  0  0  0  0  0  0  0  0
    4.9720   29.9518   11.2131 H   0  0  0  0  0  0  0  0  0  0  0  0
    2.3425   33.2736    8.7464 H   0  0  0  0  0  0  0  0  0  0  0  0
    2.4247   32.6293    7.0565 H   0  0  0  0  0  0  0  0  0  0  0  0
    1.0729   30.6269    7.8180 H   0  0  0  0  0  0  0  0  0  0  0  0
    0.8784   31.5007    9.4320 H   0  0  0  0  0  0  0  0  0  0  0  0
    0.6076   33.9721    6.8566 H   0  0  0  0  0  0  0  0  0  0  0  0
    0.4535   32.5474    5.8298 H   0  0  0  0  0  0  0  0  0  0  0  0
   -1.6528   34.5873    6.6363 H   0  0  0  0  0  0  0  0  0  0  0  0
   -1.5664   33.6591    5.1397 H   0  0  0  0  0  0  0  0  0  0  0  0
   -3.0644   33.0442    7.5639 H   0  0  0  0  0  0  0  0  0  0  0  0
   -3.0248   32.0900    6.0730 H   0  0  0  0  0  0  0  0  0  0  0  0
   -1.2828   30.6807    6.8808 H   0  0  0  0  0  0  0  0  0  0  0  0
   -1.9666   31.1075    8.4431 H   0  0  0  0  0  0  0  0  0  0  0  0
    5.5770   27.8555    5.6205 H   0  0  0  0  0  0  0  0  0  0  0  0
    7.7014   28.1056    4.2995 H   0  0  0  0  0  0  0  0  0  0  0  0
    6.9795   27.0745    2.9917 H   0  0  0  0  0  0  0  0  0  0  0  0
    5.8510   29.7530    3.9181 H   0  0  0  0  0  0  0  0  0  0  0  0
    6.9172   29.4972    2.4681 H   0  0  0  0  0  0  0  0  0  0  0  0
    4.5087   29.6422    1.9055 H   0  0  0  0  0  0  0  0  0  0  0  0
    5.2607   28.0909    1.4374 H   0  0  0  0  0  0  0  0  0  0  0  0
    3.4992   28.7212    3.8250 H   0  0  0  0  0  0  0  0  0  0  0  0
    3.2849   27.4876    2.4575 H   0  0  0  0  0  0  0  0  0  0  0  0
    4.7245   25.9593    3.4159 H   0  0  0  0  0  0  0  0  0  0  0  0
    3.7726   26.6456    4.8320 H   0  0  0  0  0  0  0  0  0  0  0  0
  1  2  1  0
  2  3  1  0
  3  4  1  0
  4  5  2  0
  4  6  1  0
  6  7  2  0
  6 15  1  0
  7  8  1  0
  8  9  1  0
  8 31  1  0
  9 10  1  0
  9 14  2  0
 10 11  2  0
 11 12  1  0
 11 17  1  0
 12 13  2  0
 13 14  1  0
 14 15  1  0
 15 16  2  0
 17 18  1  0
 18 19  2  0
 18 23  1  0
 19 20  1  0
 20 21  2  0
 21 22  1  0
 21 24  1  0
 22 23  2  0
 24 25  1  0
 25 26  1  0
 26 27  1  0
 26 30  1  0
 27 28  1  0
 28 29  1  0
 29 30  1  0
 31 32  1  0
 31 36  1  0
 32 33  1  0
 33 34  1  0
 34 35  1  0
 35 36  1  0
  1 37  1  0
  1 38  1  0
  1 39  1  0
  3 40  1  0
  7 41  1  0
 13 42  1  0
 17 43  1  0
 19 44  1  0
 20 45  1  0
 22 46  1  0
 23 47  1  0
 24 48  1  0
 24 49  1  0
 25 50  1  0
 25 51  1  0
 27 52  1  0
 27 53  1  0
 28 54  1  0
 28 55  1  0
 29 56  1  0
 29 57  1  0
 30 58  1  0
 30 59  1  0
 31 60  1  0
 32 61  1  0
 32 62  1  0
 33 63  1  0
 33 64  1  0
 34 65  1  0
 34 66  1  0
 35 67  1  0
 35 68  1  0
 36 69  1  0
 36 70  1  0
A    1
C01
A    2
O02
A    3
N03
A    4
C04
A    5
O05
A    6
C06
A    7
C07
A    8
N08
A    9
C09
A   10
N10
A   11
C11
A   12
N12
A   13
C13
A   14
C14
A   15
C15
A   16
O16
A   17
N17
A   18
C18
A   19
C19
A   20
C20
A   21
C21
A   22
C22
A   23
C23
A   24
C24
A   25
C25
A   26
N26
A   27
C27
A   28
C28
A   29
C29
A   30
C30
A   31
C31
A   32
C32
A   33
C33
A   34
C34
A   35
C35
A   36
C36
M  END
