3B3O_JI3_A_800
     RDKit          3D

 54 56  0  0  0  0  0  0  0  0999 V2000
    2.8670    5.7550   26.9090 C   0  0  0  0  0  0  0  0  0  0  0  0
    1.4600    6.0020   26.8630 C   0  0  0  0  0  0  0  0  0  0  0  0
    0.5590    5.1450   27.5840 C   0  0  0  0  0  0  0  0  0  0  0  0
   -1.2050    5.4350   27.5240 Cl  0  0  0  0  0  0  0  0  0  0  0  0
    1.0760    4.0490   28.3470 C   0  0  0  0  0  0  0  0  0  0  0  0
    2.4820    3.8070   28.3890 C   0  0  0  0  0  0  0  0  0  0  0  0
    3.3780    4.6570   27.6700 C   0  0  0  0  0  0  0  0  0  0  0  0
   14.4270    0.1880   23.4450 C   0  0  0  0  0  0  0  0  0  0  0  0
   15.3110   -0.6580   23.9050 N   0  0  0  0  0  0  0  0  0  0  0  0
   14.7270    1.0310   22.2900 C   0  0  0  0  0  0  0  0  0  0  0  0
   13.6950    1.9450   21.8310 C   0  0  0  0  0  0  0  0  0  0  0  0
   12.4030    2.0190   22.4990 C   0  0  0  0  0  0  0  0  0  0  0  0
   12.1760    1.1560   23.6370 C   0  0  0  0  0  0  0  0  0  0  0  0
   13.1720    0.2900   24.0620 N   0  0  0  0  0  0  0  0  0  0  0  0
    9.7660   -1.6470   25.0240 N   0  0  0  0  0  0  0  0  0  0  0  0
    8.6950   -0.7550   25.6390 C   0  0  0  0  0  0  0  0  0  0  0  0
    8.3620    0.2760   24.4900 C   0  0  0  0  0  0  0  0  0  0  0  0
    9.6840    0.3480   23.6650 C   0  0  0  0  0  0  0  0  0  0  0  0
   10.0510   -1.1670   23.6360 C   0  0  0  0  0  0  0  0  0  0  0  0
   10.8140    1.1790   24.3990 C   0  0  0  0  0  0  0  0  0  0  0  0
   13.9570    2.8580   20.6060 C   0  0  0  0  0  0  0  0  0  0  0  0
    7.9830    1.5830   25.1010 N   0  0  0  0  0  0  0  0  0  0  0  0
    6.5840    1.7310   25.6160 C   0  0  0  0  0  0  0  0  0  0  0  0
    6.3510    3.1140   26.1940 C   0  0  0  0  0  0  0  0  0  0  0  0
    5.1670    3.0420   27.1000 N   0  0  0  0  0  0  0  0  0  0  0  0
    4.8960    4.3770   27.7120 C   0  0  0  0  0  0  0  0  0  0  0  0
    3.5579    6.4103   26.3583 H   0  0  0  0  0  0  0  0  0  0  0  0
    1.0675    6.8462   26.2771 H   0  0  0  0  0  0  0  0  0  0  0  0
    0.3888    3.3929   28.9013 H   0  0  0  0  0  0  0  0  0  0  0  0
    2.8767    2.9646   28.9760 H   0  0  0  0  0  0  0  0  0  0  0  0
   15.4325   -0.7743   24.9212 H   0  0  0  0  0  0  0  0  0  0  0  0
   15.8860   -1.2083   23.2513 H   0  0  0  0  0  0  0  0  0  0  0  0
   15.7023    0.9755   21.7844 H   0  0  0  0  0  0  0  0  0  0  0  0
   11.6230    2.7108   22.1483 H   0  0  0  0  0  0  0  0  0  0  0  0
   10.6248   -1.5986   25.5907 H   0  0  0  0  0  0  0  0  0  0  0  0
    7.8046   -1.3411   25.9104 H   0  0  0  0  0  0  0  0  0  0  0  0
    9.0278   -0.2667   26.5668 H   0  0  0  0  0  0  0  0  0  0  0  0
    7.5144   -0.0080   23.8489 H   0  0  0  0  0  0  0  0  0  0  0  0
    9.5819    0.8426   22.6878 H   0  0  0  0  0  0  0  0  0  0  0  0
   11.1135   -1.3052   23.3871 H   0  0  0  0  0  0  0  0  0  0  0  0
    9.4810   -1.7214   22.8759 H   0  0  0  0  0  0  0  0  0  0  0  0
   10.9659    0.7549   25.4025 H   0  0  0  0  0  0  0  0  0  0  0  0
   10.4781    2.2255   24.4437 H   0  0  0  0  0  0  0  0  0  0  0  0
   14.2450    3.8617   20.9517 H   0  0  0  0  0  0  0  0  0  0  0  0
   14.7692    2.4323   19.9985 H   0  0  0  0  0  0  0  0  0  0  0  0
   13.0426    2.9278   19.9985 H   0  0  0  0  0  0  0  0  0  0  0  0
    8.6213    1.7494   25.8921 H   0  0  0  0  0  0  0  0  0  0  0  0
    5.8785    1.5653   24.7885 H   0  0  0  0  0  0  0  0  0  0  0  0
    6.4288    0.9910   26.4149 H   0  0  0  0  0  0  0  0  0  0  0  0
    7.2366    3.4353   26.7619 H   0  0  0  0  0  0  0  0  0  0  0  0
    6.1712    3.8399   25.3873 H   0  0  0  0  0  0  0  0  0  0  0  0
    4.3432    2.7437   26.5584 H   0  0  0  0  0  0  0  0  0  0  0  0
    5.4294    5.1557   27.1470 H   0  0  0  0  0  0  0  0  0  0  0  0
    5.2437    4.3822   28.7556 H   0  0  0  0  0  0  0  0  0  0  0  0
  1  7  2  0
  1  2  1  0
  2  3  2  0
  3  5  1  0
  3  4  1  0
  5  6  2  0
  6  7  1  0
  7 26  1  0
  8 14  2  0
  8  9  1  0
  8 10  1  0
 10 11  2  0
 11 12  1  0
 11 21  1  0
 12 13  2  0
 13 20  1  0
 13 14  1  0
 15 16  1  0
 15 19  1  0
 16 17  1  0
 17 22  1  0
 17 18  1  0
 18 20  1  0
 18 19  1  0
 22 23  1  0
 23 24  1  0
 24 25  1  0
 25 26  1  0
  1 27  1  0
  2 28  1  0
  5 29  1  0
  6 30  1  0
  9 31  1  0
  9 32  1  0
 10 33  1  0
 12 34  1  0
 15 35  1  0
 16 36  1  0
 16 37  1  0
 17 38  1  0
 18 39  1  0
 19 40  1  0
 19 41  1  0
 20 42  1  0
 20 43  1  0
 21 44  1  0
 21 45  1  0
 21 46  1  0
 22 47  1  0
 23 48  1  0
 23 49  1  0
 24 50  1  0
 24 51  1  0
 25 52  1  0
 26 53  1  0
 26 54  1  0
A    1
C21
A    2
C22
A    3
C23
A    4
CL
A    5
C24
A    6
C25
A    7
C26
A    8
C6
A    9
N6
A   10
C5
A   11
C4
A   12
C3
A   13
C2
A   14
N1
A   15
N1'
A   16
C2'
A   17
C3'
A   18
C4'
A   19
C5'
A   20
C7
A   21
C8
A   22
N8
A   23
C9
A   24
C10
A   25
N11
A   26
C12
M  END
