3DR1_C5D_A_500
     RDKit          3D

 65 66  0  0  0  0  0  0  0  0999 V2000
    3.1700   30.3130   37.3150 C   0  0  0  0  0  0  0  0  0  0  0  0
    2.6040   29.6600   36.0460 C   0  0  0  0  0  0  0  0  0  0  0  0
    3.5350   29.1460   35.0830 C   0  0  0  0  0  0  0  0  0  0  0  0
    4.2960   28.7210   34.2890 C   0  0  0  0  0  0  0  0  0  0  0  0
    5.2350   28.1960   33.3090 C   0  0  0  0  0  0  0  0  0  0  0  0
    6.4620   29.1310   33.1310 C   0  0  0  0  0  0  0  0  0  0  0  0
    4.4530   27.9430   31.9700 C   0  0  0  0  0  0  0  0  0  0  0  0
    5.6710   26.9600   33.8810 O   0  0  0  0  0  0  0  0  0  0  0  0
    7.3390   28.5800   32.2820 F   0  0  0  0  0  0  0  0  0  0  0  0
    7.0570   29.3030   34.3140 F   0  0  0  0  0  0  0  0  0  0  0  0
    6.0790   30.3220   32.6560 F   0  0  0  0  0  0  0  0  0  0  0  0
    5.2510   27.3970   31.0580 F   0  0  0  0  0  0  0  0  0  0  0  0
    3.9730   29.0940   31.4880 F   0  0  0  0  0  0  0  0  0  0  0  0
    3.4320   27.1160   32.1890 F   0  0  0  0  0  0  0  0  0  0  0  0
    0.9460   40.3050   40.5310 O   0  0  0  0  0  0  0  0  0  0  0  0
    3.2780   39.3320   38.8870 C   0  0  0  0  0  0  0  0  0  0  0  0
    2.4490   40.6300   38.6450 C   0  0  0  0  0  0  0  0  0  0  0  0
    0.9680   40.4710   39.1100 C   0  0  0  0  0  0  0  0  0  0  0  0
    0.2930   39.2530   38.4160 C   0  0  0  0  0  0  0  0  0  0  0  0
    1.0560   37.9470   38.6100 C   0  0  0  0  0  0  0  0  0  0  0  0
    0.5300   36.8220   39.0720 C   0  0  0  0  0  0  0  0  0  0  0  0
    1.0840   35.4600   39.3630 C   0  0  0  0  0  0  0  0  0  0  0  0
    0.5350   34.2990   39.0680 C   0  0  0  0  0  0  0  0  0  0  0  0
    2.5440   38.1060   38.2590 C   0  0  0  0  0  0  0  0  0  0  0  0
    0.0790   32.0380   37.1800 C   0  0  0  0  0  0  0  0  0  0  0  0
    1.4910   32.2570   37.8070 C   0  0  0  0  0  0  0  0  0  0  0  0
    1.2620   32.9630   39.1970 C   0  0  0  0  0  0  0  0  0  0  0  0
    2.6990   32.9020   39.8410 C   0  0  0  0  0  0  0  0  0  0  0  0
    3.3140   31.5850   39.2960 C   0  0  0  0  0  0  0  0  0  0  0  0
    2.2580   31.0090   38.3360 C   0  0  0  0  0  0  0  0  0  0  0  0
    2.2030   33.1820   36.7670 C   0  0  0  0  0  0  0  0  0  0  0  0
    4.6340   39.4720   38.4240 O   0  0  0  0  0  0  0  0  0  0  0  0
    1.3140   30.0760   39.1630 C   0  0  0  0  0  0  0  0  0  0  0  0
    3.6993   29.5192   37.8625 H   0  0  0  0  0  0  0  0  0  0  0  0
    3.7526   31.1527   36.9083 H   0  0  0  0  0  0  0  0  0  0  0  0
    1.9667   28.8221   36.3651 H   0  0  0  0  0  0  0  0  0  0  0  0
    2.0881   30.4778   35.5216 H   0  0  0  0  0  0  0  0  0  0  0  0
    5.6474   27.0269   34.8685 H   0  0  0  0  0  0  0  0  0  0  0  0
    1.0627   41.1856   40.9680 H   0  0  0  0  0  0  0  0  0  0  0  0
    3.3521   39.1542   39.9700 H   0  0  0  0  0  0  0  0  0  0  0  0
    2.9107   41.4563   39.2054 H   0  0  0  0  0  0  0  0  0  0  0  0
    2.4463   40.8357   37.5644 H   0  0  0  0  0  0  0  0  0  0  0  0
    0.4030   41.3718   38.8285 H   0  0  0  0  0  0  0  0  0  0  0  0
   -0.7183   39.1312   38.8313 H   0  0  0  0  0  0  0  0  0  0  0  0
    0.2761   39.4623   37.3362 H   0  0  0  0  0  0  0  0  0  0  0  0
   -0.5452   36.9057   39.2887 H   0  0  0  0  0  0  0  0  0  0  0  0
    2.0548   35.4259   39.8791 H   0  0  0  0  0  0  0  0  0  0  0  0
   -0.5047   34.2922   38.7089 H   0  0  0  0  0  0  0  0  0  0  0  0
    2.6224   38.1932   37.1653 H   0  0  0  0  0  0  0  0  0  0  0  0
    3.0403   37.2202   38.6821 H   0  0  0  0  0  0  0  0  0  0  0  0
   -0.6646   31.9227   37.9824 H   0  0  0  0  0  0  0  0  0  0  0  0
   -0.1846   32.9060   36.5578 H   0  0  0  0  0  0  0  0  0  0  0  0
    0.0908   31.1309   36.5578 H   0  0  0  0  0  0  0  0  0  0  0  0
    0.5474   32.4852   39.8833 H   0  0  0  0  0  0  0  0  0  0  0  0
    3.3008   33.7693   39.5316 H   0  0  0  0  0  0  0  0  0  0  0  0
    2.6659   32.9245   40.9403 H   0  0  0  0  0  0  0  0  0  0  0  0
    4.2513   31.7912   38.7585 H   0  0  0  0  0  0  0  0  0  0  0  0
    3.5588   30.8815   40.1055 H   0  0  0  0  0  0  0  0  0  0  0  0
    2.7908   33.9456   37.2974 H   0  0  0  0  0  0  0  0  0  0  0  0
    2.8713   32.5778   36.1359 H   0  0  0  0  0  0  0  0  0  0  0  0
    1.4479   33.6734   36.1359 H   0  0  0  0  0  0  0  0  0  0  0  0
    5.2434   39.5349   39.2017 H   0  0  0  0  0  0  0  0  0  0  0  0
    1.4827   30.2428   40.2371 H   0  0  0  0  0  0  0  0  0  0  0  0
    0.2663   30.3033   38.9168 H   0  0  0  0  0  0  0  0  0  0  0  0
    1.5290   29.0257   38.9168 H   0  0  0  0  0  0  0  0  0  0  0  0
  1  2  1  0
  1 30  1  0
  2  3  1  0
  3  4  3  0
  4  5  1  0
  5  6  1  0
  5  7  1  0
  5  8  1  0
  6  9  1  0
  6 10  1  0
  6 11  1  0
  7 12  1  0
  7 13  1  0
  7 14  1  0
 15 18  1  0
 16 17  1  0
 16 24  1  0
 16 32  1  0
 17 18  1  0
 18 19  1  0
 19 20  1  0
 20 21  2  0
 20 24  1  0
 21 22  1  0
 22 23  2  0
 23 27  1  0
 25 26  1  0
 26 27  1  0
 26 30  1  0
 26 31  1  0
 27 28  1  0
 28 29  1  0
 29 30  1  0
 30 33  1  0
  1 34  1  0
  1 35  1  0
  2 36  1  0
  2 37  1  0
  8 38  1  0
 15 39  1  0
 16 40  1  0
 17 41  1  0
 17 42  1  0
 18 43  1  0
 19 44  1  0
 19 45  1  0
 21 46  1  0
 22 47  1  0
 23 48  1  0
 24 49  1  0
 24 50  1  0
 25 51  1  0
 25 52  1  0
 25 53  1  0
 27 54  1  0
 28 55  1  0
 28 56  1  0
 29 57  1  0
 29 58  1  0
 31 59  1  0
 31 60  1  0
 31 61  1  0
 32 62  1  0
 33 63  1  0
 33 64  1  0
 33 65  1  0
A    1
C20
A    2
C22
A    3
C23
A    4
C24
A    5
C25
A    6
C27
A    7
C26
A    8
O3
A    9
F11
A   10
F19
A   11
F21
A   12
F28
A   13
F29
A   14
F30
A   15
O2
A   16
C1
A   17
C2
A   18
C3
A   19
C4
A   20
C5
A   21
C6
A   22
C7
A   23
C8
A   24
C10
A   25
C12
A   26
C13
A   27
C14
A   28
C15
A   29
C16
A   30
C17
A   31
C18
A   32
O1
A   33
C9
M  END
