3DRS_R8D_A_601
     RDKit          3D

 40 43  0  0  0  0  0  0  0  0999 V2000
   12.3950   12.1000   15.4070 Cl  0  0  0  0  0  0  0  0  0  0  0  0
   10.6950   12.5360   14.9570 C   0  0  0  0  0  0  0  0  0  0  0  0
    9.8050   12.3700   15.9500 C   0  0  0  0  0  0  0  0  0  0  0  0
   10.5030   11.9530   17.0040 O   0  0  0  0  0  0  0  0  0  0  0  0
   10.4590   12.4190   18.2260 C   0  0  0  0  0  0  0  0  0  0  0  0
   10.1890   11.5120   19.2320 C   0  0  0  0  0  0  0  0  0  0  0  0
   10.0920   11.8460   20.5630 C   0  0  0  0  0  0  0  0  0  0  0  0
    9.8840   10.9530   21.4910 C   0  0  0  0  0  0  0  0  0  0  0  0
    9.6930   10.1100   22.3690 N   0  0  0  0  0  0  0  0  0  0  0  0
   10.6690   13.6900   18.4690 C   0  0  0  0  0  0  0  0  0  0  0  0
   10.5610   13.9710   19.7720 C   0  0  0  0  0  0  0  0  0  0  0  0
   10.7850   15.5820   20.0410 Cl  0  0  0  0  0  0  0  0  0  0  0  0
   10.2860   13.1810   20.8550 C   0  0  0  0  0  0  0  0  0  0  0  0
   10.2940   12.9930   13.7190 C   0  0  0  0  0  0  0  0  0  0  0  0
    8.9410   13.2470   13.5320 C   0  0  0  0  0  0  0  0  0  0  0  0
    8.0300   13.0150   14.5450 C   0  0  0  0  0  0  0  0  0  0  0  0
    8.4340   12.5720   15.8380 C   0  0  0  0  0  0  0  0  0  0  0  0
    6.7280   13.2330   14.1650 O   0  0  0  0  0  0  0  0  0  0  0  0
    5.7590   12.2080   14.4530 C   0  0  0  0  0  0  0  0  0  0  0  0
    6.0240   10.8440   13.9210 C   0  0  0  0  0  0  0  0  0  0  0  0
    6.5710   10.5630   12.7100 N   0  0  0  0  0  0  0  0  0  0  0  0
    6.7020    9.1420   12.5730 N   0  0  0  0  0  0  0  0  0  0  0  0
    6.2370    8.4830   13.7030 C   0  0  0  0  0  0  0  0  0  0  0  0
    6.1280    7.1220   14.1060 N   0  0  0  0  0  0  0  0  0  0  0  0
    5.6080    6.7150   15.3170 C   0  0  0  0  0  0  0  0  0  0  0  0
    5.1510    7.6860   16.1980 C   0  0  0  0  0  0  0  0  0  0  0  0
    5.2700    9.0720   15.8420 C   0  0  0  0  0  0  0  0  0  0  0  0
    5.7940    9.4890   14.5890 C   0  0  0  0  0  0  0  0  0  0  0  0
   10.0426   10.4584   18.9519 H   0  0  0  0  0  0  0  0  0  0  0  0
   10.9054   14.4350   17.6950 H   0  0  0  0  0  0  0  0  0  0  0  0
   10.2243   13.5789   21.8786 H   0  0  0  0  0  0  0  0  0  0  0  0
   11.0202   13.1509   12.9080 H   0  0  0  0  0  0  0  0  0  0  0  0
    8.5904   13.6377   12.5654 H   0  0  0  0  0  0  0  0  0  0  0  0
    7.7297   12.4061   16.6666 H   0  0  0  0  0  0  0  0  0  0  0  0
    5.6816   12.1257   15.5472 H   0  0  0  0  0  0  0  0  0  0  0  0
    4.8428   12.5360   13.9401 H   0  0  0  0  0  0  0  0  0  0  0  0
    7.0908    8.6710   11.7436 H   0  0  0  0  0  0  0  0  0  0  0  0
    5.5566    5.6477   15.5783 H   0  0  0  0  0  0  0  0  0  0  0  0
    4.7021    7.3963   17.1595 H   0  0  0  0  0  0  0  0  0  0  0  0
    4.9447    9.8362   16.5633 H   0  0  0  0  0  0  0  0  0  0  0  0
  1  2  1  0
  2  3  2  0
  2 14  1  0
  3  4  1  0
  3 17  1  0
  4  5  1  0
  5  6  2  0
  5 10  1  0
  6  7  1  0
  7  8  1  0
  7 13  2  0
  8  9  3  0
 10 11  2  0
 11 12  1  0
 11 13  1  0
 14 15  2  0
 15 16  1  0
 16 17  2  0
 16 18  1  0
 18 19  1  0
 19 20  1  0
 20 21  2  0
 20 28  1  0
 21 22  1  0
 22 23  1  0
 23 24  1  0
 23 28  2  0
 24 25  2  0
 25 26  1  0
 26 27  2  0
 27 28  1  0
  6 29  1  0
 10 30  1  0
 13 31  1  0
 14 32  1  0
 15 33  1  0
 17 34  1  0
 19 35  1  0
 19 36  1  0
 22 37  1  0
 25 38  1  0
 26 39  1  0
 27 40  1  0
A    1
CL28
A    2
C13
A    3
C8
A    4
O7
A    5
C4
A    6
C3
A    7
C2
A    8
C25
A    9
N26
A   10
C5
A   11
C6
A   12
CL27
A   13
C1
A   14
C12
A   15
C11
A   16
C10
A   17
C9
A   18
O14
A   19
C15
A   20
C16
A   21
N20
A   22
N19
A   23
C18
A   24
N24
A   25
C23
A   26
C22
A   27
C21
A   28
C17
M  END
