3DS6_A17_A_361
     RDKit          3D

 53 57  0  0  0  0  0  0  0  0999 V2000
   32.8580   28.2820   61.5970 C   0  0  0  0  0  0  0  0  0  0  0  0
   31.5310   28.7610   61.2360 C   0  0  0  0  0  0  0  0  0  0  0  0
   30.4450   27.9900   61.8540 C   0  0  0  0  0  0  0  0  0  0  0  0
   30.6030   26.8550   62.7570 C   0  0  0  0  0  0  0  0  0  0  0  0
   34.0770   28.9360   61.1690 C   0  0  0  0  0  0  0  0  0  0  0  0
   32.2720   24.0930   63.7260 C   0  0  0  0  0  0  0  0  0  0  0  0
   32.7600   23.0250   64.5770 C   0  0  0  0  0  0  0  0  0  0  0  0
   32.8610   25.8060   65.4580 C   0  0  0  0  0  0  0  0  0  0  0  0
   32.3220   21.5960   62.7420 O   0  0  0  0  0  0  0  0  0  0  0  0
   33.3300   24.7020   66.3000 C   0  0  0  0  0  0  0  0  0  0  0  0
   31.9360   26.4200   63.1110 C   0  0  0  0  0  0  0  0  0  0  0  0
   33.0140   27.1600   62.4970 C   0  0  0  0  0  0  0  0  0  0  0  0
   33.9520   30.1050   60.3850 N   0  0  0  0  0  0  0  0  0  0  0  0
   32.6230   30.6290   60.0000 N   0  0  0  0  0  0  0  0  0  0  0  0
   31.4440   29.9580   60.4070 C   0  0  0  0  0  0  0  0  0  0  0  0
   32.3110   25.4840   64.1410 C   0  0  0  0  0  0  0  0  0  0  0  0
   33.3050   23.2960   65.8960 C   0  0  0  0  0  0  0  0  0  0  0  0
   33.1050   27.1580   65.9490 C   0  0  0  0  0  0  0  0  0  0  0  0
   32.5390   21.6710   63.9480 C   0  0  0  0  0  0  0  0  0  0  0  0
   32.3990   19.2150   64.3420 C   0  0  0  0  0  0  0  0  0  0  0  0
   33.2340   18.3170   65.1090 C   0  0  0  0  0  0  0  0  0  0  0  0
   33.6340   18.7220   63.7760 C   0  0  0  0  0  0  0  0  0  0  0  0
   30.1920   30.4980   59.8930 C   0  0  0  0  0  0  0  0  0  0  0  0
   29.8290   31.8340   60.3520 C   0  0  0  0  0  0  0  0  0  0  0  0
   28.5960   32.4750   59.9190 C   0  0  0  0  0  0  0  0  0  0  0  0
   27.6810   31.8220   59.0080 C   0  0  0  0  0  0  0  0  0  0  0  0
   28.0610   30.4970   58.5590 C   0  0  0  0  0  0  0  0  0  0  0  0
   29.2810   29.8160   58.9750 C   0  0  0  0  0  0  0  0  0  0  0  0
   29.5000   28.4730   58.4490 C   0  0  0  0  0  0  0  0  0  0  0  0
   32.5630   20.5710   64.7070 N   0  0  0  0  0  0  0  0  0  0  0  0
   29.4163   28.2967   61.6138 H   0  0  0  0  0  0  0  0  0  0  0  0
   29.7211   26.3377   63.1627 H   0  0  0  0  0  0  0  0  0  0  0  0
   35.0646   28.5373   61.4442 H   0  0  0  0  0  0  0  0  0  0  0  0
   31.8603   23.8421   62.7373 H   0  0  0  0  0  0  0  0  0  0  0  0
   33.7252   24.9454   67.2973 H   0  0  0  0  0  0  0  0  0  0  0  0
   34.0406   26.8436   62.7338 H   0  0  0  0  0  0  0  0  0  0  0  0
   33.6760   22.4936   66.5507 H   0  0  0  0  0  0  0  0  0  0  0  0
   33.1043   27.1543   67.0490 H   0  0  0  0  0  0  0  0  0  0  0  0
   34.0812   27.5100   65.5841 H   0  0  0  0  0  0  0  0  0  0  0  0
   32.3135   27.8290   65.5841 H   0  0  0  0  0  0  0  0  0  0  0  0
   31.3335   19.2170   64.0688 H   0  0  0  0  0  0  0  0  0  0  0  0
   33.7835   18.6904   65.9857 H   0  0  0  0  0  0  0  0  0  0  0  0
   33.0800   17.3533   65.6165 H   0  0  0  0  0  0  0  0  0  0  0  0
   33.6094   17.9961   62.9499 H   0  0  0  0  0  0  0  0  0  0  0  0
   34.5305   19.1872   63.3403 H   0  0  0  0  0  0  0  0  0  0  0  0
   30.5010   32.3683   61.0397 H   0  0  0  0  0  0  0  0  0  0  0  0
   28.3539   33.4805   60.2935 H   0  0  0  0  0  0  0  0  0  0  0  0
   26.7498   32.3037   58.6750 H   0  0  0  0  0  0  0  0  0  0  0  0
   27.3886   29.9743   57.8628 H   0  0  0  0  0  0  0  0  0  0  0  0
   29.6152   27.7664   59.2841 H   0  0  0  0  0  0  0  0  0  0  0  0
   28.6385   28.1754   57.8331 H   0  0  0  0  0  0  0  0  0  0  0  0
   30.4114   28.4645   57.8331 H   0  0  0  0  0  0  0  0  0  0  0  0
   32.7257   20.7364   65.7105 H   0  0  0  0  0  0  0  0  0  0  0  0
  1  2  1  0
  1  5  1  0
  1 12  2  0
  2  3  2  0
  2 15  1  0
  3  4  1  0
  4 11  2  0
  5 13  2  0
  6  7  2  0
  6 16  1  0
  7 17  1  0
  7 19  1  0
  8 10  1  0
  8 16  2  0
  8 18  1  0
  9 19  2  0
 10 17  2  0
 11 12  1  0
 11 16  1  0
 13 14  1  0
 14 15  2  0
 15 23  1  0
 19 30  1  0
 20 21  1  0
 20 22  1  0
 20 30  1  0
 21 22  1  0
 23 24  2  0
 23 28  1  0
 24 25  1  0
 25 26  2  0
 26 27  1  0
 27 28  2  0
 28 29  1  0
  3 31  1  0
  4 32  1  0
  5 33  1  0
  6 34  1  0
 10 35  1  0
 12 36  1  0
 17 37  1  0
 18 38  1  0
 18 39  1  0
 18 40  1  0
 20 41  1  0
 21 42  1  0
 21 43  1  0
 22 44  1  0
 22 45  1  0
 24 46  1  0
 25 47  1  0
 26 48  1  0
 27 49  1  0
 29 50  1  0
 29 51  1  0
 29 52  1  0
 30 53  1  0
A    1
C1
A    2
C2
A    3
C3
A    4
C4
A    5
C10
A    6
C12
A    7
C13
A    8
C16
A    9
O19
A   10
C15
A   11
C5
A   12
C6
A   13
N7
A   14
N8
A   15
C9
A   16
C11
A   17
C14
A   18
C17
A   19
C18
A   20
C20
A   21
C21
A   22
C22
A   23
C23
A   24
C24
A   25
C25
A   26
C26
A   27
C27
A   28
C28
A   29
C29
A   30
N30
M  END
