3DTW_A96_A_501
     RDKit          3D

 41 44  0  0  0  0  0  0  0  0999 V2000
   40.5560   28.0730   11.8050 N   0  0  0  0  0  0  0  0  0  0  0  0
   39.5770   29.0240   11.7100 C   0  0  0  0  0  0  0  0  0  0  0  0
   38.9160   29.5480   12.8430 C   0  0  0  0  0  0  0  0  0  0  0  0
   39.3550   29.0000   14.0820 C   0  0  0  0  0  0  0  0  0  0  0  0
   40.3230   28.0570   14.1920 N   0  0  0  0  0  0  0  0  0  0  0  0
   40.8860   27.6300   13.0430 C   0  0  0  0  0  0  0  0  0  0  0  0
   37.9240   30.5090   12.8000 N   0  0  0  0  0  0  0  0  0  0  0  0
   37.7330   31.5440   13.6670 C   0  0  0  0  0  0  0  0  0  0  0  0
   36.6290   32.4490   13.3160 C   0  0  0  0  0  0  0  0  0  0  0  0
   38.4570   31.7310   14.6400 O   0  0  0  0  0  0  0  0  0  0  0  0
   36.9740   33.7960   13.1090 C   0  0  0  0  0  0  0  0  0  0  0  0
   35.9850   34.7840   12.7710 C   0  0  0  0  0  0  0  0  0  0  0  0
   34.6490   34.4210   12.6470 C   0  0  0  0  0  0  0  0  0  0  0  0
   34.2670   33.0540   12.8550 C   0  0  0  0  0  0  0  0  0  0  0  0
   35.2490   32.0770   13.1900 C   0  0  0  0  0  0  0  0  0  0  0  0
   38.1550   34.4850   13.1480 O   0  0  0  0  0  0  0  0  0  0  0  0
   38.0910   35.7730   12.8940 N   0  0  0  0  0  0  0  0  0  0  0  0
   36.7740   36.0070   12.6550 C   0  0  0  0  0  0  0  0  0  0  0  0
   34.6700   30.4650   13.4280 Cl  0  0  0  0  0  0  0  0  0  0  0  0
   36.0430   37.2580   12.3100 N   0  0  0  0  0  0  0  0  0  0  0  0
   36.6640   38.4900   12.2020 C   0  0  0  0  0  0  0  0  0  0  0  0
   36.0560   39.6320   12.7720 C   0  0  0  0  0  0  0  0  0  0  0  0
   36.6730   40.9010   12.6600 C   0  0  0  0  0  0  0  0  0  0  0  0
   37.8990   41.0430   11.9800 C   0  0  0  0  0  0  0  0  0  0  0  0
   38.5390   39.9180   11.3960 C   0  0  0  0  0  0  0  0  0  0  0  0
   37.9080   38.6350   11.5120 C   0  0  0  0  0  0  0  0  0  0  0  0
   39.8760   40.0720   10.6630 C   0  0  0  0  0  0  0  0  0  0  0  0
   40.5980   38.9680   10.7770 F   0  0  0  0  0  0  0  0  0  0  0  0
   40.5350   41.0970   11.1890 F   0  0  0  0  0  0  0  0  0  0  0  0
   39.6120   40.3080    9.4000 F   0  0  0  0  0  0  0  0  0  0  0  0
   39.2940   29.3945   10.7137 H   0  0  0  0  0  0  0  0  0  0  0  0
   38.8802   29.3636   15.0052 H   0  0  0  0  0  0  0  0  0  0  0  0
   41.6724   26.8644   13.1161 H   0  0  0  0  0  0  0  0  0  0  0  0
   37.2513   30.4350   12.0235 H   0  0  0  0  0  0  0  0  0  0  0  0
   33.8908   35.1758   12.3914 H   0  0  0  0  0  0  0  0  0  0  0  0
   33.2120   32.7587   12.7555 H   0  0  0  0  0  0  0  0  0  0  0  0
   35.0279   37.2036   12.1441 H   0  0  0  0  0  0  0  0  0  0  0  0
   35.0988   39.5339   13.3051 H   0  0  0  0  0  0  0  0  0  0  0  0
   36.1917   41.7832   13.1073 H   0  0  0  0  0  0  0  0  0  0  0  0
   38.3653   42.0361   11.9007 H   0  0  0  0  0  0  0  0  0  0  0  0
   38.3871   37.7517   11.0646 H   0  0  0  0  0  0  0  0  0  0  0  0
  1  2  2  0
  1  6  1  0
  2  3  1  0
  3  4  2  0
  3  7  1  0
  4  5  1  0
  5  6  2  0
  7  8  1  0
  8  9  1  0
  8 10  2  0
  9 11  2  0
  9 15  1  0
 11 12  1  0
 11 16  1  0
 12 13  2  0
 12 18  1  0
 13 14  1  0
 14 15  2  0
 15 19  1  0
 16 17  1  0
 17 18  2  0
 18 20  1  0
 20 21  1  0
 21 22  2  0
 21 26  1  0
 22 23  1  0
 23 24  2  0
 24 25  1  0
 25 26  2  0
 25 27  1  0
 27 28  1  0
 27 29  1  0
 27 30  1  0
  2 31  1  0
  4 32  1  0
  6 33  1  0
  7 34  1  0
 13 35  1  0
 14 36  1  0
 20 37  1  0
 22 38  1  0
 23 39  1  0
 24 40  1  0
 26 41  1  0
A    1
N1
A    2
C2
A    3
C3
A    4
C4
A    5
N5
A    6
C6
A    7
N10
A    8
C11
A    9
C12
A   10
O13
A   11
C14
A   12
C15
A   13
C16
A   14
C17
A   15
C18
A   16
O21
A   17
N22
A   18
C23
A   19
CL24
A   20
N25
A   21
C26
A   22
C27
A   23
C28
A   24
C29
A   25
C30
A   26
C31
A   27
C36
A   28
F37
A   29
F38
A   30
F39
M  END
