3DX1_YHO_A_1050
     RDKit          3D

 20 20  0  0  0  0  0  0  0  0999 V2000
   33.6990   65.8280    7.0680 O   0  0  0  0  0  0  0  0  0  0  0  0
   32.9330   66.8210    7.7990 C   0  0  0  0  0  0  0  0  0  0  0  0
   32.5520   66.2890    9.1930 C   0  0  0  0  0  0  0  0  0  0  0  0
   33.4060   65.2010    9.5940 O   0  0  0  0  0  0  0  0  0  0  0  0
   31.0710   65.8390    9.0860 C   0  0  0  0  0  0  0  0  0  0  0  0
   30.9530   64.4810    9.6380 N   0  0  0  0  0  0  0  0  0  0  0  0
   30.7420   65.8990    7.5950 C   0  0  0  0  0  0  0  0  0  0  0  0
   31.5570   67.1270    7.1850 C   0  0  0  0  0  0  0  0  0  0  0  0
   31.6230   67.3100    5.7730 O   0  0  0  0  0  0  0  0  0  0  0  0
   34.1602   65.2301    7.7082 H   0  0  0  0  0  0  0  0  0  0  0  0
   33.5874   67.7052    7.7965 H   0  0  0  0  0  0  0  0  0  0  0  0
   32.6783   67.0641    9.9633 H   0  0  0  0  0  0  0  0  0  0  0  0
   33.4412   65.1561   10.5824 H   0  0  0  0  0  0  0  0  0  0  0  0
   30.3701   66.4709    9.6512 H   0  0  0  0  0  0  0  0  0  0  0  0
   30.9570   64.5271   10.6670 H   0  0  0  0  0  0  0  0  0  0  0  0
   30.0718   64.0552    9.3168 H   0  0  0  0  0  0  0  0  0  0  0  0
   31.0767   64.9936    7.0675 H   0  0  0  0  0  0  0  0  0  0  0  0
   29.6686   65.9598    7.3622 H   0  0  0  0  0  0  0  0  0  0  0  0
   31.1151   68.0717    7.5347 H   0  0  0  0  0  0  0  0  0  0  0  0
   31.9520   68.2222    5.5735 H   0  0  0  0  0  0  0  0  0  0  0  0
  1  2  1  0
  8  2  1  0
  2  3  1  0
  5  3  1  0
  3  4  1  0
  7  5  1  0
  5  6  1  0
  8  7  1  0
  9  8  1  0
  1 10  1  0
  2 11  1  0
  3 12  1  0
  4 13  1  0
  5 14  1  0
  6 15  1  0
  6 16  1  0
  7 17  1  0
  7 18  1  0
  8 19  1  0
  9 20  1  0
A    1
O3
A    2
C3
A    3
C2
A    4
O2
A    5
C1
A    6
N1
A    7
C5
A    8
C4
A    9
O4
M  END
