2QEO_LNR_A_200
     RDKit          3D

 23 23  0  0  0  0  0  0  0  0999 V2000
   41.8950  -20.2470   -4.7430 O   0  0  0  0  0  0  0  0  0  0  0  0
   40.5960  -20.6600   -4.4970 C   0  0  0  0  0  0  0  0  0  0  0  0
   40.2970  -21.9330   -3.9950 C   0  0  0  0  0  0  0  0  0  0  0  0
   39.5190  -19.8200   -4.7280 C   0  0  0  0  0  0  0  0  0  0  0  0
   39.7170  -18.5650   -5.2120 O   0  0  0  0  0  0  0  0  0  0  0  0
   38.2330  -20.2710   -4.4470 C   0  0  0  0  0  0  0  0  0  0  0  0
   38.0150  -21.4640   -3.9800 C   0  0  0  0  0  0  0  0  0  0  0  0
   38.9680  -22.3060   -3.7420 C   0  0  0  0  0  0  0  0  0  0  0  0
   38.6620  -23.6710   -3.1930 C   0  0  0  0  0  0  0  0  0  0  0  0
   38.2250  -24.5890   -4.2030 O   0  0  0  0  0  0  0  0  0  0  0  0
   37.6540  -23.6510   -2.0340 C   0  0  0  0  0  0  0  0  0  0  0  0
   37.6990  -24.8690   -1.2240 N   0  0  0  0  0  0  0  0  0  0  0  0
   42.5043  -20.0533   -3.9872 H   0  0  0  0  0  0  0  0  0  0  0  0
   41.1107  -22.6463   -3.7974 H   0  0  0  0  0  0  0  0  0  0  0  0
   39.8367  -17.8066   -4.5870 H   0  0  0  0  0  0  0  0  0  0  0  0
   37.3791  -19.6007   -4.6247 H   0  0  0  0  0  0  0  0  0  0  0  0
   36.9779  -21.7704   -3.7789 H   0  0  0  0  0  0  0  0  0  0  0  0
   39.6227  -24.0271   -2.7927 H   0  0  0  0  0  0  0  0  0  0  0  0
   37.8416  -25.3943   -3.7734 H   0  0  0  0  0  0  0  0  0  0  0  0
   37.8787  -22.7900   -1.3873 H   0  0  0  0  0  0  0  0  0  0  0  0
   36.6471  -23.5803   -2.4712 H   0  0  0  0  0  0  0  0  0  0  0  0
   37.6897  -24.6176   -0.2252 H   0  0  0  0  0  0  0  0  0  0  0  0
   36.8791  -25.4544   -1.4384 H   0  0  0  0  0  0  0  0  0  0  0  0
  2  1  1  0
  3  2  2  0
  2  4  1  0
  8  3  1  0
  6  4  2  0
  4  5  1  0
  7  6  1  0
  8  7  2  0
  9  8  1  0
 11  9  1  0
 10  9  1  0
 12 11  1  0
  1 13  1  0
  3 14  1  0
  5 15  1  0
  6 16  1  0
  7 17  1  0
  9 18  1  0
 10 19  1  0
 11 20  1  0
 11 21  1  0
 12 22  1  0
 12 23  1  0
A    1
OAC
A    2
CAJ
A    3
CAG
A    4
CAI
A    5
OAB
A    6
CAE
A    7
CAF
A    8
CAK
A    9
CAL
A   10
OAD
A   11
CAH
A   12
NAA
M  END
