3DZQ_IFC_A_1001
     RDKit          3D

 52 55  0  0  0  0  0  0  0  0999 V2000
   -9.9240   18.2750   58.9910 C   0  0  0  0  0  0  0  0  0  0  0  0
   -9.1580   18.4170   57.6550 C   0  0  0  0  0  0  0  0  0  0  0  0
   -8.6100   17.4230   56.9580 C   0  0  0  0  0  0  0  0  0  0  0  0
   -8.9060   19.5830   57.0470 N   0  0  0  0  0  0  0  0  0  0  0  0
   -8.2040   19.3120   55.9350 C   0  0  0  0  0  0  0  0  0  0  0  0
   -8.0090   17.9840   55.8830 N   0  0  0  0  0  0  0  0  0  0  0  0
   -7.3660   17.3340   54.8930 C   0  0  0  0  0  0  0  0  0  0  0  0
   -7.9290   16.1290   54.4420 C   0  0  0  0  0  0  0  0  0  0  0  0
   -6.1940   17.8540   54.3160 C   0  0  0  0  0  0  0  0  0  0  0  0
   -5.5710   17.1510   53.2770 C   0  0  0  0  0  0  0  0  0  0  0  0
   -4.2600   17.6900   52.6930 C   0  0  0  0  0  0  0  0  0  0  0  0
   -3.2850   17.6280   53.5450 F   0  0  0  0  0  0  0  0  0  0  0  0
   -3.8990   16.9850   51.6610 F   0  0  0  0  0  0  0  0  0  0  0  0
   -4.2460   18.9380   52.4810 F   0  0  0  0  0  0  0  0  0  0  0  0
   -6.1310   15.9350   52.8210 C   0  0  0  0  0  0  0  0  0  0  0  0
   -7.3060   15.4190   53.4350 C   0  0  0  0  0  0  0  0  0  0  0  0
   -7.8850   14.1110   52.8820 C   0  0  0  0  0  0  0  0  0  0  0  0
   -7.0930   13.2860   52.4440 O   0  0  0  0  0  0  0  0  0  0  0  0
   -9.2350   13.9600   52.9190 N   0  0  0  0  0  0  0  0  0  0  0  0
   -9.9180   12.9320   52.3270 C   0  0  0  0  0  0  0  0  0  0  0  0
   -9.3500   11.8320   51.6730 C   0  0  0  0  0  0  0  0  0  0  0  0
  -11.3010   13.1250   52.2580 C   0  0  0  0  0  0  0  0  0  0  0  0
  -12.1180   12.2050   51.6010 C   0  0  0  0  0  0  0  0  0  0  0  0
  -11.5820   11.0720   51.0120 C   0  0  0  0  0  0  0  0  0  0  0  0
  -12.5670   10.1310   50.2740 C   0  0  0  0  0  0  0  0  0  0  0  0
  -10.1900   10.8660   51.0180 C   0  0  0  0  0  0  0  0  0  0  0  0
   -9.7060    9.7500   50.3660 N   0  0  0  0  0  0  0  0  0  0  0  0
   -9.6430    8.5520   50.9910 C   0  0  0  0  0  0  0  0  0  0  0  0
   -9.9920    8.3310   52.1510 O   0  0  0  0  0  0  0  0  0  0  0  0
   -9.1220    7.4040   50.1400 C   0  0  0  0  0  0  0  0  0  0  0  0
   -8.9760    6.1380   50.5510 C   0  0  0  0  0  0  0  0  0  0  0  0
   -8.4970    5.4050   49.5350 C   0  0  0  0  0  0  0  0  0  0  0  0
   -8.3790    6.1910   48.4600 N   0  0  0  0  0  0  0  0  0  0  0  0
   -8.7950    7.5660   48.8550 O   0  0  0  0  0  0  0  0  0  0  0  0
   -9.2247   18.4046   59.8302 H   0  0  0  0  0  0  0  0  0  0  0  0
  -10.7098   19.0428   59.0465 H   0  0  0  0  0  0  0  0  0  0  0  0
  -10.3823   17.2766   59.0465 H   0  0  0  0  0  0  0  0  0  0  0  0
   -8.6401   16.3522   57.2080 H   0  0  0  0  0  0  0  0  0  0  0  0
   -7.8510   20.0474   55.1971 H   0  0  0  0  0  0  0  0  0  0  0  0
   -8.8612   15.7529   54.8886 H   0  0  0  0  0  0  0  0  0  0  0  0
   -5.7708   18.8030   54.6768 H   0  0  0  0  0  0  0  0  0  0  0  0
   -5.6582   15.3883   51.9918 H   0  0  0  0  0  0  0  0  0  0  0  0
   -9.7825   14.6685   53.4280 H   0  0  0  0  0  0  0  0  0  0  0  0
   -8.2573   11.7063   51.6602 H   0  0  0  0  0  0  0  0  0  0  0  0
  -11.7500   14.0127   52.7273 H   0  0  0  0  0  0  0  0  0  0  0  0
  -13.2025   12.3817   51.5500 H   0  0  0  0  0  0  0  0  0  0  0  0
  -13.1573    9.5671   51.0112 H   0  0  0  0  0  0  0  0  0  0  0  0
  -13.2419   10.7283   49.6434 H   0  0  0  0  0  0  0  0  0  0  0  0
  -12.0011    9.4295   49.6434 H   0  0  0  0  0  0  0  0  0  0  0  0
   -9.3882    9.8305   49.3896 H   0  0  0  0  0  0  0  0  0  0  0  0
   -9.2106    5.7608   51.5573 H   0  0  0  0  0  0  0  0  0  0  0  0
   -8.2435    4.3355   49.5789 H   0  0  0  0  0  0  0  0  0  0  0  0
  1  2  1  0
  2  3  2  0
  2  4  1  0
  3  6  1  0
  4  5  2  0
  5  6  1  0
  6  7  1  0
  7  8  2  0
  7  9  1  0
  8 16  1  0
  9 10  2  0
 10 11  1  0
 10 15  1  0
 11 12  1  0
 11 13  1  0
 11 14  1  0
 15 16  2  0
 16 17  1  0
 17 18  2  0
 17 19  1  0
 19 20  1  0
 20 21  2  0
 20 22  1  0
 21 26  1  0
 22 23  2  0
 23 24  1  0
 24 25  1  0
 24 26  2  0
 26 27  1  0
 27 28  1  0
 28 29  2  0
 28 30  1  0
 30 31  2  0
 30 34  1  0
 31 32  1  0
 32 33  2  0
 33 34  1  0
  1 35  1  0
  1 36  1  0
  1 37  1  0
  3 38  1  0
  5 39  1  0
  8 40  1  0
  9 41  1  0
 15 42  1  0
 19 43  1  0
 21 44  1  0
 22 45  1  0
 23 46  1  0
 25 47  1  0
 25 48  1  0
 25 49  1  0
 27 50  1  0
 31 51  1  0
 32 52  1  0
A    1
C1A
A    2
C1Y
A    3
C1Q
A    4
N1S
A    5
C1L
A    6
N2G
A    7
C2C
A    8
C1M
A    9
C1P
A   10
C2D
A   11
C2H
A   12
F1F
A   13
F1G
A   14
F1E
A   15
C1O
A   16
C2B
A   17
C1W
A   18
O1C
A   19
N1T
A   20
C2A
A   21
C1N
A   22
C1K
A   23
C1J
A   24
C1Z
A   25
C1B
A   26
C2E
A   27
N1U
A   28
C1X
A   29
O1D
A   30
C2F
A   31
C1I
A   32
C1H
A   33
N1R
A   34
O1V
M  END
