3DZT_EAH_A_305
     RDKit          3D

 55 54  0  0  0  0  0  0  0  0999 V2000
  -13.0790   -6.9900    7.9600 O   0  0  0  0  0  0  0  0  0  0  0  0
  -14.0190   -6.4500    7.4600 C   0  0  0  0  0  0  0  0  0  0  0  0
  -15.0830   -6.4600    8.0280 O   0  0  0  0  0  0  0  0  0  0  0  0
  -13.9440   -5.8000    6.1130 C   0  0  0  0  0  0  0  0  0  0  0  0
  -15.1170   -4.8730    6.0520 C   0  0  0  0  0  0  0  0  0  0  0  0
  -14.7270   -3.4100    5.9870 C   0  0  0  0  0  0  0  0  0  0  0  0
  -15.7920   -2.6210    5.2360 C   0  0  0  0  0  0  0  0  0  0  0  0
  -15.8080   -2.8660    3.9390 O   0  0  0  0  0  0  0  0  0  0  0  0
  -15.7480   -1.1500    5.6010 C   0  0  0  0  0  0  0  0  0  0  0  0
  -16.6260   -0.2690    4.7520 C   0  0  0  0  0  0  0  0  0  0  0  0
  -15.8880    0.8510    4.1260 C   0  0  0  0  0  0  0  0  0  0  0  0
  -16.6250    1.4750    3.0650 C   0  0  0  0  0  0  0  0  0  0  0  0
  -15.8940    2.2060    2.2510 C   0  0  0  0  0  0  0  0  0  0  0  0
  -16.7830    2.7270    1.2520 C   0  0  0  0  0  0  0  0  0  0  0  0
  -16.3950    3.3460    0.1750 C   0  0  0  0  0  0  0  0  0  0  0  0
  -14.9660    3.6510   -0.0440 C   0  0  0  0  0  0  0  0  0  0  0  0
  -14.7720    5.1300   -0.1320 C   0  0  0  0  0  0  0  0  0  0  0  0
  -14.2290    5.8410   -1.0840 C   0  0  0  0  0  0  0  0  0  0  0  0
  -13.6560    5.3030   -2.3450 C   0  0  0  0  0  0  0  0  0  0  0  0
  -12.2150    4.9220   -2.1890 C   0  0  0  0  0  0  0  0  0  0  0  0
  -12.2130    3.4540   -1.9330 C   0  0  0  0  0  0  0  0  0  0  0  0
  -11.0200    2.6650   -2.3850 C   0  0  0  0  0  0  0  0  0  0  0  0
   -9.8160    2.8450   -1.5390 C   0  0  0  0  0  0  0  0  0  0  0  0
  -15.1159   -6.4603    9.0175 H   0  0  0  0  0  0  0  0  0  0  0  0
  -13.0040   -5.2383    6.0088 H   0  0  0  0  0  0  0  0  0  0  0  0
  -13.9659   -6.5407    5.3001 H   0  0  0  0  0  0  0  0  0  0  0  0
  -15.7072   -5.1164    5.1562 H   0  0  0  0  0  0  0  0  0  0  0  0
  -15.6906   -5.0146    6.9799 H   0  0  0  0  0  0  0  0  0  0  0  0
  -14.6313   -3.0126    7.0082 H   0  0  0  0  0  0  0  0  0  0  0  0
  -13.7668   -3.3149    5.4588 H   0  0  0  0  0  0  0  0  0  0  0  0
  -16.7722   -2.9860    5.5767 H   0  0  0  0  0  0  0  0  0  0  0  0
  -15.8718   -3.8424    3.7884 H   0  0  0  0  0  0  0  0  0  0  0  0
  -16.0676   -1.0463    6.6484 H   0  0  0  0  0  0  0  0  0  0  0  0
  -14.7135   -0.8166    5.4317 H   0  0  0  0  0  0  0  0  0  0  0  0
  -17.7035   -0.4400    4.6117 H   0  0  0  0  0  0  0  0  0  0  0  0
  -14.8834    1.1703    4.4402 H   0  0  0  0  0  0  0  0  0  0  0  0
  -17.7112    1.3525    2.9422 H   0  0  0  0  0  0  0  0  0  0  0  0
  -14.8108    2.3835    2.3224 H   0  0  0  0  0  0  0  0  0  0  0  0
  -17.8639    2.5943    1.4069 H   0  0  0  0  0  0  0  0  0  0  0  0
  -17.1378    3.6449   -0.5793 H   0  0  0  0  0  0  0  0  0  0  0  0
  -14.3752    3.2544    0.7949 H   0  0  0  0  0  0  0  0  0  0  0  0
  -14.6349    3.1846   -0.9836 H   0  0  0  0  0  0  0  0  0  0  0  0
  -15.1403    5.7041    0.7310 H   0  0  0  0  0  0  0  0  0  0  0  0
  -14.1929    6.9309   -0.9398 H   0  0  0  0  0  0  0  0  0  0  0  0
  -14.2285    4.4125   -2.6437 H   0  0  0  0  0  0  0  0  0  0  0  0
  -13.7183    6.0910   -3.1100 H   0  0  0  0  0  0  0  0  0  0  0  0
  -11.6555    5.1521   -3.1077 H   0  0  0  0  0  0  0  0  0  0  0  0
  -11.7337    5.4780   -1.3710 H   0  0  0  0  0  0  0  0  0  0  0  0
  -12.3082    3.3107   -0.8465 H   0  0  0  0  0  0  0  0  0  0  0  0
  -13.0457    3.0669   -2.5387 H   0  0  0  0  0  0  0  0  0  0  0  0
  -11.2894    1.5985   -2.3791 H   0  0  0  0  0  0  0  0  0  0  0  0
  -10.7592    3.0333   -3.3882 H   0  0  0  0  0  0  0  0  0  0  0  0
  -10.1035    2.8020   -0.4781 H   0  0  0  0  0  0  0  0  0  0  0  0
   -9.0927    2.0450   -1.7556 H   0  0  0  0  0  0  0  0  0  0  0  0
   -9.3583    3.8215   -1.7556 H   0  0  0  0  0  0  0  0  0  0  0  0
  2  1  2  0
  2  3  1  0
  4  2  1  0
  5  4  1  0
  6  5  1  0
  7  6  1  0
  7  9  1  0
  8  7  1  0
 10  9  1  0
 11 10  2  0
 12 11  1  0
 13 12  2  0
 14 13  1  0
 15 14  2  0
 16 15  1  0
 17 16  1  0
 18 17  2  0
 19 18  1  0
 19 20  1  0
 20 21  1  0
 22 21  1  0
 22 23  1  0
  3 24  1  0
  4 25  1  0
  4 26  1  0
  5 27  1  0
  5 28  1  0
  6 29  1  0
  6 30  1  0
  7 31  1  0
  8 32  1  0
  9 33  1  0
  9 34  1  0
 10 35  1  0
 11 36  1  0
 12 37  1  0
 13 38  1  0
 14 39  1  0
 15 40  1  0
 16 41  1  0
 16 42  1  0
 17 43  1  0
 18 44  1  0
 19 45  1  0
 19 46  1  0
 20 47  1  0
 20 48  1  0
 21 49  1  0
 21 50  1  0
 22 51  1  0
 22 52  1  0
 23 53  1  0
 23 54  1  0
 23 55  1  0
A    1
O1
A    2
C1
A    3
O2
A    4
C2
A    5
C3
A    6
C4
A    7
C5
A    8
O3
A    9
C6
A   10
C7
A   11
C8
A   12
C9
A   13
C10
A   14
C11
A   15
C12
A   16
C13
A   17
C14
A   18
C15
A   19
C16
A   20
C17
A   21
C18
A   22
C19
A   23
C20
M  END
