1WM0_PLB_X_1
     RDKit          3D

 38 40  0  0  0  0  0  0  0  0999 V2000
   24.3700   24.0370   13.8390 Cl  0  0  0  0  0  0  0  0  0  0  0  0
   25.1280   25.5980   13.4860 C   0  0  0  0  0  0  0  0  0  0  0  0
   26.1770   25.8540   14.3240 C   0  0  0  0  0  0  0  0  0  0  0  0
   26.8290   27.0520   14.1500 C   0  0  0  0  0  0  0  0  0  0  0  0
   28.2010   27.3380   15.2620 Cl  0  0  0  0  0  0  0  0  0  0  0  0
   24.7160   26.5070   12.5130 C   0  0  0  0  0  0  0  0  0  0  0  0
   25.3620   27.7220   12.3400 C   0  0  0  0  0  0  0  0  0  0  0  0
   26.4330   27.9790   13.1790 C   0  0  0  0  0  0  0  0  0  0  0  0
   27.1930   29.2590   13.0800 C   0  0  0  0  0  0  0  0  0  0  0  0
   26.5140   30.2730   13.2520 O   0  0  0  0  0  0  0  0  0  0  0  0
   28.4890   29.1510   12.7010 N   0  0  0  0  0  0  0  0  0  0  0  0
   29.2400   30.1170   12.0830 C   0  0  0  0  0  0  0  0  0  0  0  0
   28.7320   31.4040   11.9320 C   0  0  0  0  0  0  0  0  0  0  0  0
   29.4460   32.3940   11.3270 C   0  0  0  0  0  0  0  0  0  0  0  0
   30.7230   32.1060   10.8810 C   0  0  0  0  0  0  0  0  0  0  0  0
   31.2570   30.8220   11.0450 C   0  0  0  0  0  0  0  0  0  0  0  0
   30.5110   29.8120   11.6440 C   0  0  0  0  0  0  0  0  0  0  0  0
   31.1060   28.4270   11.7940 C   0  0  0  0  0  0  0  0  0  0  0  0
   30.5210   27.4600   12.3320 O   0  0  0  0  0  0  0  0  0  0  0  0
   32.2620   28.2480   11.3680 O   0  0  0  0  0  0  0  0  0  0  0  0
   31.4070   33.1260   10.2630 O   0  0  0  0  0  0  0  0  0  0  0  0
   32.7160   33.3910   10.6460 C   0  0  0  0  0  0  0  0  0  0  0  0
   32.7700   33.6340   12.1000 N   0  0  0  0  0  0  0  0  0  0  0  0
   33.4150   34.6800   12.5980 C   0  0  0  0  0  0  0  0  0  0  0  0
   34.0190   35.5860   11.7310 C   0  0  0  0  0  0  0  0  0  0  0  0
   33.9700   35.4690   10.3510 C   0  0  0  0  0  0  0  0  0  0  0  0
   33.3180   34.4390    9.8060 N   0  0  0  0  0  0  0  0  0  0  0  0
   26.4845   25.1369   15.0994 H   0  0  0  0  0  0  0  0  0  0  0  0
   23.8606   26.2554   11.8688 H   0  0  0  0  0  0  0  0  0  0  0  0
   25.0400   28.4444   11.5755 H   0  0  0  0  0  0  0  0  0  0  0  0
   28.9564   28.2542   12.8965 H   0  0  0  0  0  0  0  0  0  0  0  0
   27.7245   31.6283   12.3123 H   0  0  0  0  0  0  0  0  0  0  0  0
   29.0170   33.3985   11.1964 H   0  0  0  0  0  0  0  0  0  0  0  0
   32.2783   30.6094   10.6961 H   0  0  0  0  0  0  0  0  0  0  0  0
   33.0116   28.1319   12.0042 H   0  0  0  0  0  0  0  0  0  0  0  0
   33.4722   34.8303   13.6862 H   0  0  0  0  0  0  0  0  0  0  0  0
   34.5631   36.4386   12.1634 H   0  0  0  0  0  0  0  0  0  0  0  0
   34.4627   36.2163    9.7117 H   0  0  0  0  0  0  0  0  0  0  0  0
  1  2  1  0
  2  3  2  0
  2  6  1  0
  3  4  1  0
  4  5  1  0
  4  8  2  0
  6  7  2  0
  7  8  1  0
  8  9  1  0
  9 10  2  0
  9 11  1  0
 11 12  1  0
 12 13  2  0
 12 17  1  0
 13 14  1  0
 14 15  2  0
 15 16  1  0
 15 21  1  0
 16 17  2  0
 17 18  1  0
 18 19  2  0
 18 20  1  0
 21 22  1  0
 22 23  2  0
 22 27  1  0
 23 24  1  0
 24 25  2  0
 25 26  1  0
 26 27  2  0
  3 28  1  0
  6 29  1  0
  7 30  1  0
 11 31  1  0
 13 32  1  0
 14 33  1  0
 16 34  1  0
 20 35  1  0
 24 36  1  0
 25 37  1  0
 26 38  1  0
A    1
CL20
A    2
C16
A    3
C15
A    4
C14
A    5
CL19
A    6
C17
A    7
C18
A    8
C13
A    9
C11
A   10
O12
A   11
N10
A   12
C2
A   13
C3
A   14
C4
A   15
C5
A   16
C6
A   17
C1
A   18
C7
A   19
O9
A   20
O8
A   21
O21
A   22
C22
A   23
N27
A   24
C26
A   25
C25
A   26
C24
A   27
N23
M  END
