3E12_KD0_A_268
     RDKit          3D

 35 34  0  0  0  0  0  0  0  0999 V2000
   39.7270   55.7430   13.7460 O   0  0  0  0  0  0  0  0  0  0  0  0
   39.6260   55.9760   15.3180 P   0  0  0  0  0  0  0  0  0  0  0  0
   39.1850   57.4810   15.6280 O   0  0  0  0  0  0  0  0  0  0  0  0
   40.9090   55.6160   15.9830 O   0  0  0  0  0  0  0  0  0  0  0  0
   38.4920   55.0150   15.7580 O   0  0  0  0  0  0  0  0  0  0  0  0
   37.8650   55.1850   16.9500 C   0  0  0  0  0  0  0  0  0  0  0  0
   37.4430   53.8060   17.4370 C   0  0  0  0  0  0  0  0  0  0  0  0
   38.5460   53.2410   18.1550 O   0  0  0  0  0  0  0  0  0  0  0  0
   36.2470   53.9850   18.3460 C   0  0  0  0  0  0  0  0  0  0  0  0
   35.1470   54.5220   17.5600 O   0  0  0  0  0  0  0  0  0  0  0  0
   35.8220   52.6600   18.9970 C   0  0  0  0  0  0  0  0  0  0  0  0
   35.5660   51.6450   18.0140 O   0  0  0  0  0  0  0  0  0  0  0  0
   34.5270   52.8820   19.7500 C   0  0  0  0  0  0  0  0  0  0  0  0
   34.6880   53.9870   20.6180 O   0  0  0  0  0  0  0  0  0  0  0  0
   34.2040   51.6600   20.6120 C   0  0  0  0  0  0  0  0  0  0  0  0
   32.7440   51.7120   21.0630 C   0  0  0  0  0  0  0  0  0  0  0  0
   31.8340   51.4820   20.2610 O   0  0  0  0  0  0  0  0  0  0  0  0
   32.4040   52.0100   22.5220 C   0  0  0  0  0  0  0  0  0  0  0  0
   31.1740   51.9720   22.8410 O   0  0  0  0  0  0  0  0  0  0  0  0
   33.3810   52.2120   23.3110 O   0  0  0  0  0  0  0  0  0  0  0  0
   40.1144   54.8493   13.5691 H   0  0  0  0  0  0  0  0  0  0  0  0
   40.7920   55.6488   16.9655 H   0  0  0  0  0  0  0  0  0  0  0  0
   38.5518   55.6468   17.6746 H   0  0  0  0  0  0  0  0  0  0  0  0
   36.9917   55.8450   16.8413 H   0  0  0  0  0  0  0  0  0  0  0  0
   37.1705   53.1377   16.6069 H   0  0  0  0  0  0  0  0  0  0  0  0
   38.3837   53.3241   19.1281 H   0  0  0  0  0  0  0  0  0  0  0  0
   36.5208   54.6762   19.1567 H   0  0  0  0  0  0  0  0  0  0  0  0
   34.4443   54.8651   18.1671 H   0  0  0  0  0  0  0  0  0  0  0  0
   36.6393   52.3336   19.6569 H   0  0  0  0  0  0  0  0  0  0  0  0
   35.3509   50.7922   18.4685 H   0  0  0  0  0  0  0  0  0  0  0  0
   33.7186   53.0570   19.0248 H   0  0  0  0  0  0  0  0  0  0  0  0
   34.6430   53.6780   21.5575 H   0  0  0  0  0  0  0  0  0  0  0  0
   34.3720   50.7450   20.0250 H   0  0  0  0  0  0  0  0  0  0  0  0
   34.8566   51.6590   21.4975 H   0  0  0  0  0  0  0  0  0  0  0  0
   33.2404   52.1829   24.2905 H   0  0  0  0  0  0  0  0  0  0  0  0
  1  2  1  0
  3  2  2  0
  5  2  1  0
  2  4  1  0
  6  5  1  0
  6  7  1  0
  9  7  1  0
  7  8  1  0
 10  9  1  0
  9 11  1  0
 13 11  1  0
 11 12  1  0
 14 13  1  0
 13 15  1  0
 16 15  1  0
 17 16  2  0
 16 18  1  0
 19 18  2  0
 18 20  1  0
  1 21  1  0
  4 22  1  0
  6 23  1  0
  6 24  1  0
  7 25  1  0
  8 26  1  0
  9 27  1  0
 10 28  1  0
 11 29  1  0
 12 30  1  0
 13 31  1  0
 14 32  1  0
 15 33  1  0
 15 34  1  0
 20 35  1  0
A    1
O4P
A    2
P
A    3
O2P
A    4
O3P
A    5
O1P
A    6
C8
A    7
C7
A    8
O7
A    9
C6
A   10
O6
A   11
C5
A   12
O5
A   13
C4
A   14
O4
A   15
C3
A   16
C1
A   17
O3
A   18
C2
A   19
O1
A   20
O2
M  END
