3E16_B4C_B_1
     RDKit          3D

 97100  0  0  0  0  0  0  0  0999 V2000
   21.1460   38.6110   -2.5510 C   0  0  0  0  0  0  0  0  0  0  0  0
   22.7500   40.3700   -2.1990 C   0  0  0  0  0  0  0  0  0  0  0  0
   20.3230   36.4090    1.7870 C   0  0  0  0  0  0  0  0  0  0  0  0
   11.4280   34.4250    1.4420 C   0  0  0  0  0  0  0  0  0  0  0  0
   12.0970   35.3460    2.4560 C   0  0  0  0  0  0  0  0  0  0  0  0
   12.4650   34.5550    3.7070 C   0  0  0  0  0  0  0  0  0  0  0  0
   13.0070   35.4730    4.8130 C   0  0  0  0  0  0  0  0  0  0  0  0
   14.6330   37.2650    4.5770 C   0  0  0  0  0  0  0  0  0  0  0  0
   19.3790   36.2420    4.0170 C   0  0  0  0  0  0  0  0  0  0  0  0
   21.9050   40.9490   -1.2570 C   0  0  0  0  0  0  0  0  0  0  0  0
   15.5230   39.2240    2.4320 C   0  0  0  0  0  0  0  0  0  0  0  0
   19.2840   38.3270    2.8120 C   0  0  0  0  0  0  0  0  0  0  0  0
   18.9900   37.5800    3.9550 C   0  0  0  0  0  0  0  0  0  0  0  0
   18.2990   38.2150    5.1270 C   0  0  0  0  0  0  0  0  0  0  0  0
   16.9670   37.5440    5.4180 C   0  0  0  0  0  0  0  0  0  0  0  0
   16.0480   37.6140    4.1640 C   0  0  0  0  0  0  0  0  0  0  0  0
   20.6740   40.3660   -0.9910 C   0  0  0  0  0  0  0  0  0  0  0  0
   19.8280   40.9440   -0.0850 C   0  0  0  0  0  0  0  0  0  0  0  0
   15.6300   40.6660    1.9460 C   0  0  0  0  0  0  0  0  0  0  0  0
   14.2730   41.2160    1.5320 C   0  0  0  0  0  0  0  0  0  0  0  0
   13.2680   41.2850    2.6770 C   0  0  0  0  0  0  0  0  0  0  0  0
   13.1110   34.6350    6.1360 C   0  0  0  0  0  0  0  0  0  0  0  0
   13.6500   35.5930    7.1640 C   0  0  0  0  0  0  0  0  0  0  0  0
   12.3440   42.4830    2.5340 C   0  0  0  0  0  0  0  0  0  0  0  0
   20.2960   39.1940   -1.6290 C   0  0  0  0  0  0  0  0  0  0  0  0
   22.3760   39.1910   -2.8470 C   0  0  0  0  0  0  0  0  0  0  0  0
   18.4170   40.8500   -0.3620 O   0  0  0  0  0  0  0  0  0  0  0  0
   17.7350   40.9830    0.7940 C   0  0  0  0  0  0  0  0  0  0  0  0
   18.2700   41.4600    1.7920 O   0  0  0  0  0  0  0  0  0  0  0  0
   16.4780   40.5890    0.7670 N   0  0  0  0  0  0  0  0  0  0  0  0
   11.2710   42.4190    3.6100 C   0  0  0  0  0  0  0  0  0  0  0  0
   11.8800   42.5570    4.9500 N   0  0  0  0  0  0  0  0  0  0  0  0
   14.9860   38.3570    1.7460 O   0  0  0  0  0  0  0  0  0  0  0  0
   16.0660   38.9930    3.5940 N   0  0  0  0  0  0  0  0  0  0  0  0
   19.9400   37.7460    1.7310 C   0  0  0  0  0  0  0  0  0  0  0  0
   20.0250   35.6650    2.9250 C   0  0  0  0  0  0  0  0  0  0  0  0
   13.8390   38.1140    4.9890 O   0  0  0  0  0  0  0  0  0  0  0  0
   14.3460   35.9820    4.4550 N   0  0  0  0  0  0  0  0  0  0  0  0
   11.2480   35.0970    0.0800 C   0  0  0  0  0  0  0  0  0  0  0  0
   11.9770   34.2640    6.5200 O   0  0  0  0  0  0  0  0  0  0  0  0
   12.8350   36.5350    7.6850 O   0  0  0  0  0  0  0  0  0  0  0  0
   13.6090   37.2550    8.5360 C   0  0  0  0  0  0  0  0  0  0  0  0
   13.2940   38.3330    9.3650 C   0  0  0  0  0  0  0  0  0  0  0  0
   14.2750   38.9200   10.1530 C   0  0  0  0  0  0  0  0  0  0  0  0
   15.5650   38.4090   10.1050 C   0  0  0  0  0  0  0  0  0  0  0  0
   15.8630   37.3320    9.2660 C   0  0  0  0  0  0  0  0  0  0  0  0
   14.8900   36.7350    8.4770 C   0  0  0  0  0  0  0  0  0  0  0  0
   14.9020   35.6920    7.6100 N   0  0  0  0  0  0  0  0  0  0  0  0
   10.6260   36.4090    0.2140 N   0  0  0  0  0  0  0  0  0  0  0  0
   20.8471   37.6801   -3.0551 H   0  0  0  0  0  0  0  0  0  0  0  0
   23.7152   40.8424   -2.4338 H   0  0  0  0  0  0  0  0  0  0  0  0
   20.8545   35.9461    0.9425 H   0  0  0  0  0  0  0  0  0  0  0  0
   12.0507   33.5273    1.3143 H   0  0  0  0  0  0  0  0  0  0  0  0
   10.4296   34.1691    1.8263 H   0  0  0  0  0  0  0  0  0  0  0  0
   13.0082   35.7754    2.0141 H   0  0  0  0  0  0  0  0  0  0  0  0
   11.4014   36.1536    2.7280 H   0  0  0  0  0  0  0  0  0  0  0  0
   11.5687   34.0372    4.0793 H   0  0  0  0  0  0  0  0  0  0  0  0
   13.2513   33.8333    3.4407 H   0  0  0  0  0  0  0  0  0  0  0  0
   12.3308   36.3308    4.9433 H   0  0  0  0  0  0  0  0  0  0  0  0
   19.1777   35.6472    4.9201 H   0  0  0  0  0  0  0  0  0  0  0  0
   22.2108   41.8629   -0.7266 H   0  0  0  0  0  0  0  0  0  0  0  0
   18.9936   39.3870    2.7658 H   0  0  0  0  0  0  0  0  0  0  0  0
   18.9447   38.1273    6.0132 H   0  0  0  0  0  0  0  0  0  0  0  0
   18.1082   39.2709    4.8848 H   0  0  0  0  0  0  0  0  0  0  0  0
   17.1405   36.4908    5.6836 H   0  0  0  0  0  0  0  0  0  0  0  0
   16.4764   38.0647    6.2536 H   0  0  0  0  0  0  0  0  0  0  0  0
   16.4099   36.9060    3.4039 H   0  0  0  0  0  0  0  0  0  0  0  0
   20.0083   40.4673    0.8898 H   0  0  0  0  0  0  0  0  0  0  0  0
   20.0576   42.0191   -0.1218 H   0  0  0  0  0  0  0  0  0  0  0  0
   16.0215   41.3241    2.7357 H   0  0  0  0  0  0  0  0  0  0  0  0
   14.4160   42.2310    1.1330 H   0  0  0  0  0  0  0  0  0  0  0  0
   13.8603   40.5261    0.7812 H   0  0  0  0  0  0  0  0  0  0  0  0
   12.6640   40.3657    2.6786 H   0  0  0  0  0  0  0  0  0  0  0  0
   13.8249   41.3886    3.6199 H   0  0  0  0  0  0  0  0  0  0  0  0
   13.7365   33.7426    5.9865 H   0  0  0  0  0  0  0  0  0  0  0  0
   12.9242   43.4106    2.6478 H   0  0  0  0  0  0  0  0  0  0  0  0
   11.8720   42.4689    1.5405 H   0  0  0  0  0  0  0  0  0  0  0  0
   19.3245   38.7303   -1.4027 H   0  0  0  0  0  0  0  0  0  0  0  0
   23.0468   38.7253   -3.5840 H   0  0  0  0  0  0  0  0  0  0  0  0
   16.0865   40.2175   -0.1103 H   0  0  0  0  0  0  0  0  0  0  0  0
   10.5504   43.2351    3.4530 H   0  0  0  0  0  0  0  0  0  0  0  0
   10.7590   41.4474    3.5477 H   0  0  0  0  0  0  0  0  0  0  0  0
   11.1630   42.3945    5.6714 H   0  0  0  0  0  0  0  0  0  0  0  0
   12.6365   41.8661    5.0561 H   0  0  0  0  0  0  0  0  0  0  0  0
   16.5073   39.7617    4.1186 H   0  0  0  0  0  0  0  0  0  0  0  0
   20.1558   38.3431    0.8327 H   0  0  0  0  0  0  0  0  0  0  0  0
   20.3045   34.6018    2.9633 H   0  0  0  0  0  0  0  0  0  0  0  0
   15.0632   35.3299    4.1067 H   0  0  0  0  0  0  0  0  0  0  0  0
   12.2334   35.2145   -0.3945 H   0  0  0  0  0  0  0  0  0  0  0  0
   10.5924   34.4635   -0.5355 H   0  0  0  0  0  0  0  0  0  0  0  0
   11.9502   34.2552    7.5096 H   0  0  0  0  0  0  0  0  0  0  0  0
   12.2644   38.7190    9.3941 H   0  0  0  0  0  0  0  0  0  0  0  0
   14.0346   39.7740   10.8032 H   0  0  0  0  0  0  0  0  0  0  0  0
   16.3545   38.8531   10.7290 H   0  0  0  0  0  0  0  0  0  0  0  0
   16.8933   36.9483    9.2301 H   0  0  0  0  0  0  0  0  0  0  0  0
   10.5178   36.6373    1.2125 H   0  0  0  0  0  0  0  0  0  0  0  0
   11.2203   37.1185   -0.2379 H   0  0  0  0  0  0  0  0  0  0  0  0
  1 25  2  0
  1 26  1  0
  2 10  1  0
  2 26  2  0
  3 35  2  0
  3 36  1  0
  4  5  1  0
  4 39  1  0
  5  6  1  0
  6  7  1  0
  7 22  1  0
  7 38  1  0
  8 16  1  0
  8 37  2  0
  8 38  1  0
  9 13  1  0
  9 36  2  0
 10 17  2  0
 11 19  1  0
 11 33  2  0
 11 34  1  0
 12 13  2  0
 12 35  1  0
 13 14  1  0
 14 15  1  0
 15 16  1  0
 16 34  1  0
 17 18  1  0
 17 25  1  0
 18 27  1  0
 19 20  1  0
 19 30  1  0
 20 21  1  0
 21 24  1  0
 22 23  1  0
 22 40  1  0
 23 41  1  0
 23 48  2  0
 24 31  1  0
 27 28  1  0
 28 29  2  0
 28 30  1  0
 31 32  1  0
 39 49  1  0
 41 42  1  0
 42 43  2  0
 42 47  1  0
 43 44  1  0
 44 45  2  0
 45 46  1  0
 46 47  2  0
 47 48  1  0
  1 50  1  0
  2 51  1  0
  3 52  1  0
  4 53  1  0
  4 54  1  0
  5 55  1  0
  5 56  1  0
  6 57  1  0
  6 58  1  0
  7 59  1  0
  9 60  1  0
 10 61  1  0
 12 62  1  0
 14 63  1  0
 14 64  1  0
 15 65  1  0
 15 66  1  0
 16 67  1  0
 18 68  1  0
 18 69  1  0
 19 70  1  0
 20 71  1  0
 20 72  1  0
 21 73  1  0
 21 74  1  0
 22 75  1  0
 24 76  1  0
 24 77  1  0
 25 78  1  0
 26 79  1  0
 30 80  1  0
 31 81  1  0
 31 82  1  0
 32 83  1  0
 32 84  1  0
 34 85  1  0
 35 86  1  0
 36 87  1  0
 38 88  1  0
 39 89  1  0
 39 90  1  0
 40 91  1  0
 43 92  1  0
 44 93  1  0
 45 94  1  0
 46 95  1  0
 49 96  1  0
 49 97  1  0
A    1
C10
A    2
C12
A    3
C21
A    4
C28
A    5
C27
A    6
C26
A    7
C25
A    8
C24
A    9
C23
A   10
C13
A   11
C14
A   12
C19
A   13
C18
A   14
C17
A   15
C16
A   16
C15
A   17
C8
A   18
C7
A   19
C5
A   20
C4
A   21
C3
A   22
C30
A   23
C31
A   24
C2
A   25
C9
A   26
C11
A   27
O2
A   28
C6
A   29
O1
A   30
N2
A   31
C1
A   32
N1
A   33
O3
A   34
N3
A   35
C20
A   36
C22
A   37
O4
A   38
N4
A   39
C29
A   40
O5
A   41
O6
A   42
C37
A   43
C36
A   44
C35
A   45
C34
A   46
C33
A   47
C32
A   48
N6
A   49
N5
M  END
