3E32_ED2_B_1003
     RDKit          3D

 62 65  0  0  0  0  0  0  0  0999 V2000
   49.0670  -47.4450    5.8640 C   0  0  0  0  0  0  0  0  0  0  0  0
   50.3430  -47.8910    6.2090 N   0  0  0  0  0  0  0  0  0  0  0  0
   50.9830  -47.4680    7.2370 C   0  0  0  0  0  0  0  0  0  0  0  0
   52.1320  -48.0560    7.3130 N   0  0  0  0  0  0  0  0  0  0  0  0
   52.1480  -48.8420    6.2520 C   0  0  0  0  0  0  0  0  0  0  0  0
   51.0240  -48.7700    5.5850 C   0  0  0  0  0  0  0  0  0  0  0  0
   50.5640  -49.5000    4.2990 C   0  0  0  0  0  0  0  0  0  0  0  0
   51.3830  -50.6020    3.8430 N   0  0  0  0  0  0  0  0  0  0  0  0
   51.2950  -51.7510    4.4300 C   0  0  0  0  0  0  0  0  0  0  0  0
   51.9070  -52.8290    3.8570 C   0  0  0  0  0  0  0  0  0  0  0  0
   51.8740  -54.0650    4.4250 C   0  0  0  0  0  0  0  0  0  0  0  0
   51.1920  -54.2330    5.5830 C   0  0  0  0  0  0  0  0  0  0  0  0
   51.1120  -55.4980    6.2060 C   0  0  0  0  0  0  0  0  0  0  0  0
   51.0320  -56.4890    6.7320 N   0  0  0  0  0  0  0  0  0  0  0  0
   50.5690  -53.1560    6.1460 C   0  0  0  0  0  0  0  0  0  0  0  0
   50.6130  -51.9150    5.5880 C   0  0  0  0  0  0  0  0  0  0  0  0
   52.2090  -50.5520    2.6320 C   0  0  0  0  0  0  0  0  0  0  0  0
   53.4060  -49.6790    2.7490 C   0  0  0  0  0  0  0  0  0  0  0  0
   54.5810  -50.1080    2.0550 N   0  0  0  0  0  0  0  0  0  0  0  0
   55.4740  -48.9260    2.0420 S   0  0  0  0  0  0  0  0  0  0  0  0
   56.5610  -49.3680    2.7520 O   0  0  0  0  0  0  0  0  0  0  0  0
   55.9320  -48.6020    0.7620 O   0  0  0  0  0  0  0  0  0  0  0  0
   54.5860  -47.7250    2.7630 C   0  0  0  0  0  0  0  0  0  0  0  0
   53.4760  -47.3930    2.2330 C   0  0  0  0  0  0  0  0  0  0  0  0
   53.0050  -46.5080    3.0160 N   0  0  0  0  0  0  0  0  0  0  0  0
   51.8200  -45.9470    2.7130 C   0  0  0  0  0  0  0  0  0  0  0  0
   53.7340  -46.2880    4.0670 C   0  0  0  0  0  0  0  0  0  0  0  0
   54.7340  -47.0970    3.8990 N   0  0  0  0  0  0  0  0  0  0  0  0
   54.7520  -50.8880    0.9950 C   0  0  0  0  0  0  0  0  0  0  0  0
   54.7890  -52.1150    0.8180 C   0  0  0  0  0  0  0  0  0  0  0  0
   56.0090  -52.5840    1.2290 C   0  0  0  0  0  0  0  0  0  0  0  0
   56.2330  -53.9340    1.2660 C   0  0  0  0  0  0  0  0  0  0  0  0
   55.2410  -54.8050    0.8950 C   0  0  0  0  0  0  0  0  0  0  0  0
   54.0350  -54.3560    0.4870 C   0  0  0  0  0  0  0  0  0  0  0  0
   53.8130  -53.0050    0.4530 C   0  0  0  0  0  0  0  0  0  0  0  0
   48.4895  -47.2431    6.7782 H   0  0  0  0  0  0  0  0  0  0  0  0
   49.1490  -46.5222    5.2709 H   0  0  0  0  0  0  0  0  0  0  0  0
   48.5563  -48.2179    5.2709 H   0  0  0  0  0  0  0  0  0  0  0  0
   50.6097  -46.7165    7.9483 H   0  0  0  0  0  0  0  0  0  0  0  0
   52.9988  -49.4773    5.9648 H   0  0  0  0  0  0  0  0  0  0  0  0
   49.5526  -49.8916    4.4829 H   0  0  0  0  0  0  0  0  0  0  0  0
   50.6298  -48.7450    3.5018 H   0  0  0  0  0  0  0  0  0  0  0  0
   52.4436  -52.6938    2.9063 H   0  0  0  0  0  0  0  0  0  0  0  0
   52.3919  -54.9125    3.9522 H   0  0  0  0  0  0  0  0  0  0  0  0
   50.0117  -53.2963    7.0839 H   0  0  0  0  0  0  0  0  0  0  0  0
   50.1058  -51.0646    6.0672 H   0  0  0  0  0  0  0  0  0  0  0  0
   52.5474  -51.5732    2.4024 H   0  0  0  0  0  0  0  0  0  0  0  0
   51.5807  -50.1236    1.8372 H   0  0  0  0  0  0  0  0  0  0  0  0
   53.1339  -48.6857    2.3625 H   0  0  0  0  0  0  0  0  0  0  0  0
   53.6756  -49.6972    3.8153 H   0  0  0  0  0  0  0  0  0  0  0  0
   53.0267  -47.7832    1.3079 H   0  0  0  0  0  0  0  0  0  0  0  0
   51.2860  -45.6942    3.6409 H   0  0  0  0  0  0  0  0  0  0  0  0
   51.9869  -45.0323    2.1252 H   0  0  0  0  0  0  0  0  0  0  0  0
   51.2183  -46.6559    2.1252 H   0  0  0  0  0  0  0  0  0  0  0  0
   53.5495  -45.5884    4.8955 H   0  0  0  0  0  0  0  0  0  0  0  0
   53.9457  -50.5660    0.3196 H   0  0  0  0  0  0  0  0  0  0  0  0
   55.8413  -50.7455    0.9399 H   0  0  0  0  0  0  0  0  0  0  0  0
   56.8017  -51.8818    1.5267 H   0  0  0  0  0  0  0  0  0  0  0  0
   57.2094  -54.3203    1.5936 H   0  0  0  0  0  0  0  0  0  0  0  0
   55.4311  -55.8879    0.9304 H   0  0  0  0  0  0  0  0  0  0  0  0
   53.2460  -55.0616    0.1877 H   0  0  0  0  0  0  0  0  0  0  0  0
   52.8328  -52.6272    0.1266 H   0  0  0  0  0  0  0  0  0  0  0  0
  1  2  1  0
  6  2  1  0
  2  3  1  0
  3  4  2  0
  5  4  1  0
  6  5  2  0
  7  6  1  0
  8  7  1  0
 17  8  1  0
  8  9  1  0
 10  9  2  0
  9 16  1  0
 10 11  1  0
 11 12  2  0
 12 15  1  0
 12 13  1  0
 13 14  3  0
 16 15  2  0
 17 18  1  0
 19 18  1  0
 29 19  1  0
 20 19  1  0
 22 20  2  0
 20 21  2  0
 20 23  1  0
 24 23  2  0
 23 28  1  0
 24 25  1  0
 26 25  1  0
 25 27  1  0
 28 27  2  0
 30 29  1  0
 35 30  1  0
 30 31  2  0
 31 32  1  0
 33 32  2  0
 34 33  1  0
 35 34  2  0
  1 36  1  0
  1 37  1  0
  1 38  1  0
  3 39  1  0
  5 40  1  0
  7 41  1  0
  7 42  1  0
 10 43  1  0
 11 44  1  0
 15 45  1  0
 16 46  1  0
 17 47  1  0
 17 48  1  0
 18 49  1  0
 18 50  1  0
 24 51  1  0
 26 52  1  0
 26 53  1  0
 26 54  1  0
 27 55  1  0
 29 56  1  0
 29 57  1  0
 31 58  1  0
 32 59  1  0
 33 60  1  0
 34 61  1  0
 35 62  1  0
A    1
CAB
A    2
NBH
A    3
CAQ
A    4
NAX
A    5
CAP
A    6
CBC
A    7
CAW
A    8
NBE
A    9
CBB
A   10
CAN
A   11
CAL
A   12
CAZ
A   13
CAF
A   14
NAC
A   15
CAM
A   16
CAO
A   17
CAT
A   18
CAU
A   19
NBF
A   20
SBI
A   21
OAD
A   22
OAE
A   23
CBD
A   24
CAS
A   25
NBG
A   26
CAA
A   27
CAR
A   28
NAY
A   29
CAV
A   30
CBA
A   31
CAJ
A   32
CAH
A   33
CAG
A   34
CAI
A   35
CAK
M  END
