3AT4_CCK_A_336
     RDKit          3D

 48 51  0  0  0  0  0  0  0  0999 V2000
  -25.1630   -9.1420  -29.5900 N   0  0  0  0  0  0  0  0  0  0  0  0
  -25.3790  -10.4650  -29.7320 C   0  0  0  0  0  0  0  0  0  0  0  0
  -25.6700  -11.2840  -28.6050 C   0  0  0  0  0  0  0  0  0  0  0  0
  -25.7230  -10.7100  -27.3800 N   0  0  0  0  0  0  0  0  0  0  0  0
  -25.4890   -9.4050  -27.2670 C   0  0  0  0  0  0  0  0  0  0  0  0
  -25.2030   -8.5860  -28.3890 C   0  0  0  0  0  0  0  0  0  0  0  0
  -25.9000  -12.6170  -28.7640 N   0  0  0  0  0  0  0  0  0  0  0  0
  -25.5210   -8.8510  -26.0470 N   0  0  0  0  0  0  0  0  0  0  0  0
  -26.0000  -13.6020  -27.8370 C   0  0  0  0  0  0  0  0  0  0  0  0
  -26.2570  -14.8190  -28.4690 C   0  0  0  0  0  0  0  0  0  0  0  0
  -26.3040  -14.4370  -29.8220 C   0  0  0  0  0  0  0  0  0  0  0  0
  -26.0490  -13.1210  -29.8910 N   0  0  0  0  0  0  0  0  0  0  0  0
  -25.8140   -9.4160  -24.7480 C   0  0  0  0  0  0  0  0  0  0  0  0
  -25.8410   -8.5280  -23.7030 C   0  0  0  0  0  0  0  0  0  0  0  0
  -25.4930   -7.2670  -24.2330 C   0  0  0  0  0  0  0  0  0  0  0  0
  -25.3040   -7.4750  -25.6030 C   0  0  0  0  0  0  0  0  0  0  0  0
  -26.4110  -16.0510  -27.8340 C   0  0  0  0  0  0  0  0  0  0  0  0
  -26.2910  -16.0500  -26.4310 C   0  0  0  0  0  0  0  0  0  0  0  0
  -26.0320  -14.8380  -25.7380 C   0  0  0  0  0  0  0  0  0  0  0  0
  -25.8850  -13.5920  -26.4340 C   0  0  0  0  0  0  0  0  0  0  0  0
  -25.9190  -14.8940  -24.3800 N   0  0  0  0  0  0  0  0  0  0  0  0
  -26.0530  -13.7080  -23.5480 C   0  0  0  0  0  0  0  0  0  0  0  0
  -24.7970  -13.4200  -22.7100 C   0  0  0  0  0  0  0  0  0  0  0  0
  -27.3490  -13.7310  -22.7350 C   0  0  0  0  0  0  0  0  0  0  0  0
  -26.2210   -8.9040  -22.2910 C   0  0  0  0  0  0  0  0  0  0  0  0
  -25.4200   -8.1890  -21.2120 C   0  0  0  0  0  0  0  0  0  0  0  0
  -24.7790   -7.1440  -21.4800 O   0  0  0  0  0  0  0  0  0  0  0  0
  -25.4780   -8.7170  -20.1000 O   0  0  0  0  0  0  0  0  0  0  0  0
  -25.3296  -10.9180  -30.7332 H   0  0  0  0  0  0  0  0  0  0  0  0
  -25.0179   -7.5089  -28.2638 H   0  0  0  0  0  0  0  0  0  0  0  0
  -26.5131  -15.1005  -30.6741 H   0  0  0  0  0  0  0  0  0  0  0  0
  -26.0033  -10.4904  -24.6071 H   0  0  0  0  0  0  0  0  0  0  0  0
  -25.3917   -6.3194  -23.6837 H   0  0  0  0  0  0  0  0  0  0  0  0
  -25.0150   -6.6675  -26.2918 H   0  0  0  0  0  0  0  0  0  0  0  0
  -26.6150  -16.9730  -28.3982 H   0  0  0  0  0  0  0  0  0  0  0  0
  -26.3982  -16.9904  -25.8705 H   0  0  0  0  0  0  0  0  0  0  0  0
  -25.6885  -12.6575  -25.8880 H   0  0  0  0  0  0  0  0  0  0  0  0
  -25.7335  -15.8020  -23.9305 H   0  0  0  0  0  0  0  0  0  0  0  0
  -26.1365  -12.8453  -24.2253 H   0  0  0  0  0  0  0  0  0  0  0  0
  -25.0485  -13.4777  -21.6407 H   0  0  0  0  0  0  0  0  0  0  0  0
  -24.0211  -14.1635  -22.9448 H   0  0  0  0  0  0  0  0  0  0  0  0
  -24.4226  -12.4127  -22.9448 H   0  0  0  0  0  0  0  0  0  0  0  0
  -27.1086  -13.7267  -21.6616 H   0  0  0  0  0  0  0  0  0  0  0  0
  -27.9510  -12.8434  -22.9795 H   0  0  0  0  0  0  0  0  0  0  0  0
  -27.9191  -14.6394  -22.9795 H   0  0  0  0  0  0  0  0  0  0  0  0
  -27.2846   -8.6640  -22.1456 H   0  0  0  0  0  0  0  0  0  0  0  0
  -26.0045   -9.9771  -22.1831 H   0  0  0  0  0  0  0  0  0  0  0  0
  -25.4168   -8.1601  -19.2838 H   0  0  0  0  0  0  0  0  0  0  0  0
  1  2  2  0
  1  6  1  0
  2  3  1  0
  3  4  2  0
  3  7  1  0
  4  5  1  0
  5  6  2  0
  5  8  1  0
  7  9  1  0
  7 12  1  0
  8 13  1  0
  8 16  1  0
  9 10  2  0
  9 20  1  0
 10 11  1  0
 10 17  1  0
 11 12  2  0
 13 14  2  0
 14 15  1  0
 14 25  1  0
 15 16  2  0
 17 18  2  0
 18 19  1  0
 19 20  2  0
 19 21  1  0
 21 22  1  0
 22 23  1  0
 22 24  1  0
 25 26  1  0
 26 27  2  0
 26 28  1  0
  2 29  1  0
  6 30  1  0
 11 31  1  0
 13 32  1  0
 15 33  1  0
 16 34  1  0
 17 35  1  0
 18 36  1  0
 20 37  1  0
 21 38  1  0
 22 39  1  0
 23 40  1  0
 23 41  1  0
 23 42  1  0
 24 43  1  0
 24 44  1  0
 24 45  1  0
 25 46  1  0
 25 47  1  0
 28 48  1  0
A    1
N1
A    2
C2
A    3
C3
A    4
N4
A    5
C5
A    6
C6
A    7
N13
A    8
N15
A    9
C17
A   10
C18
A   11
C19
A   12
N20
A   13
C26
A   14
C27
A   15
C28
A   16
C29
A   17
C35
A   18
C36
A   19
C37
A   20
C38
A   21
N44
A   22
C46
A   23
C48
A   24
C51
A   25
C57
A   26
C59
A   27
O61
A   28
O63
M  END
