3E4E_4PZ_A_501
     RDKit          3D

 12 12  0  0  0  0  0  0  0  0999 V2000
   40.0410   29.6640    8.5890 C   0  0  0  0  0  0  0  0  0  0  0  0
   38.8030   29.9670    8.0960 N   0  0  0  0  0  0  0  0  0  0  0  0
   37.9980   30.3680    9.2030 N   0  0  0  0  0  0  0  0  0  0  0  0
   39.9390   29.8900    9.9320 C   0  0  0  0  0  0  0  0  0  0  0  0
   41.0910   29.6620   10.8490 C   0  0  0  0  0  0  0  0  0  0  0  0
   38.7080   30.3260   10.3570 C   0  0  0  0  0  0  0  0  0  0  0  0
   40.9220   29.3161    8.0296 H   0  0  0  0  0  0  0  0  0  0  0  0
   38.5070   29.9155    7.1108 H   0  0  0  0  0  0  0  0  0  0  0  0
   40.7484   29.7298   11.8921 H   0  0  0  0  0  0  0  0  0  0  0  0
   41.5132   28.6629   10.6660 H   0  0  0  0  0  0  0  0  0  0  0  0
   41.8619   30.4250   10.6660 H   0  0  0  0  0  0  0  0  0  0  0  0
   38.3807   30.5776   11.3766 H   0  0  0  0  0  0  0  0  0  0  0  0
  1  2  1  0
  1  4  2  0
  2  3  1  0
  3  6  2  0
  4  5  1  0
  4  6  1  0
  1  7  1  0
  2  8  1  0
  5  9  1  0
  5 10  1  0
  5 11  1  0
  6 12  1  0
A    1
C3
A    2
N2
A    3
N1
A    4
C4
A    5
C19
A    6
C5
M  END
