3E62_5B1_A_1
     RDKit          3D

 17 18  0  0  0  0  0  0  0  0999 V2000
   33.7560   40.6770   36.4760 C   0  0  0  0  0  0  0  0  0  0  0  0
   33.1580   39.5960   37.1320 C   0  0  0  0  0  0  0  0  0  0  0  0
   33.4490   42.0510   36.3260 C   0  0  0  0  0  0  0  0  0  0  0  0
   32.3800   42.6610   36.8630 N   0  0  0  0  0  0  0  0  0  0  0  0
   33.7830   38.3500   37.0230 C   0  0  0  0  0  0  0  0  0  0  0  0
   34.9720   38.1490   36.3020 C   0  0  0  0  0  0  0  0  0  0  0  0
   32.9450   36.9070   37.9130 Br  0  0  0  0  0  0  0  0  0  0  0  0
   35.5840   39.2270   35.6420 C   0  0  0  0  0  0  0  0  0  0  0  0
   34.9400   40.4720   35.7550 C   0  0  0  0  0  0  0  0  0  0  0  0
   35.2370   41.7040   35.2440 N   0  0  0  0  0  0  0  0  0  0  0  0
   34.3560   42.6620   35.5880 N   0  0  0  0  0  0  0  0  0  0  0  0
   32.2315   39.7213   37.7115 H   0  0  0  0  0  0  0  0  0  0  0  0
   32.2798   42.7182   37.8865 H   0  0  0  0  0  0  0  0  0  0  0  0
   31.6602   43.0717   36.2514 H   0  0  0  0  0  0  0  0  0  0  0  0
   35.4236   37.1471   36.2545 H   0  0  0  0  0  0  0  0  0  0  0  0
   36.5148   39.1044   35.0688 H   0  0  0  0  0  0  0  0  0  0  0  0
   36.0593   41.8832   34.6502 H   0  0  0  0  0  0  0  0  0  0  0  0
  1  2  2  0
  1  3  1  0
  1  9  1  0
  2  5  1  0
  3  4  1  0
  3 11  2  0
  5  6  2  0
  5  7  1  0
  6  8  1  0
  8  9  2  0
  9 10  1  0
 10 11  1  0
  2 12  1  0
  4 13  1  0
  4 14  1  0
  6 15  1  0
  8 16  1  0
 10 17  1  0
A    1
C7
A    2
C6
A    3
C1
A    4
N1
A    5
C5
A    6
C4
A    7
BR1
A    8
C3
A    9
C2
A   10
N3
A   11
N2
M  END
