3E64_5B3_A_1
     RDKit          3D

 44 46  0  0  0  0  0  0  0  0999 V2000
   30.0080   33.3830   38.5690 O   0  0  0  0  0  0  0  0  0  0  0  0
   32.6360   36.3980   37.0060 C   0  0  0  0  0  0  0  0  0  0  0  0
   29.1580   35.0050   40.2630 O   0  0  0  0  0  0  0  0  0  0  0  0
   31.8480   35.4090   37.6030 C   0  0  0  0  0  0  0  0  0  0  0  0
   33.7460   33.6920   41.3140 C   0  0  0  0  0  0  0  0  0  0  0  0
   31.3820   33.9130   40.7950 N   0  0  0  0  0  0  0  0  0  0  0  0
   31.2700   35.6550   38.8510 C   0  0  0  0  0  0  0  0  0  0  0  0
   32.9110   32.5760   39.2990 C   0  0  0  0  0  0  0  0  0  0  0  0
   32.2480   31.6990   41.5400 C   0  0  0  0  0  0  0  0  0  0  0  0
   32.5370   32.9690   40.7350 C   0  0  0  0  0  0  0  0  0  0  0  0
   30.2760   34.3750   39.5910 S   0  0  0  0  0  0  0  0  0  0  0  0
   31.4670   36.8690   39.5250 C   0  0  0  0  0  0  0  0  0  0  0  0
   32.2440   37.8610   38.9180 C   0  0  0  0  0  0  0  0  0  0  0  0
   32.8600   37.6250   37.6630 C   0  0  0  0  0  0  0  0  0  0  0  0
   33.6390   38.6620   36.9790 C   0  0  0  0  0  0  0  0  0  0  0  0
   33.0980   39.9660   37.0080 C   0  0  0  0  0  0  0  0  0  0  0  0
   33.7580   41.0150   36.3330 C   0  0  0  0  0  0  0  0  0  0  0  0
   33.5390   42.4050   36.1310 C   0  0  0  0  0  0  0  0  0  0  0  0
   32.4560   43.0880   36.5580 N   0  0  0  0  0  0  0  0  0  0  0  0
   34.5070   42.9430   35.3840 N   0  0  0  0  0  0  0  0  0  0  0  0
   35.3360   41.9210   35.1090 N   0  0  0  0  0  0  0  0  0  0  0  0
   34.9420   40.7200   35.6530 C   0  0  0  0  0  0  0  0  0  0  0  0
   35.5060   39.4370   35.5790 C   0  0  0  0  0  0  0  0  0  0  0  0
   34.8290   38.4080   36.2580 C   0  0  0  0  0  0  0  0  0  0  0  0
   33.0838   36.2174   36.0176 H   0  0  0  0  0  0  0  0  0  0  0  0
   31.6848   34.4470   37.0951 H   0  0  0  0  0  0  0  0  0  0  0  0
   33.6987   33.6637   42.4126 H   0  0  0  0  0  0  0  0  0  0  0  0
   34.6672   33.1964   40.9738 H   0  0  0  0  0  0  0  0  0  0  0  0
   33.7453   34.7381   40.9738 H   0  0  0  0  0  0  0  0  0  0  0  0
   30.7888   33.5344   41.5471 H   0  0  0  0  0  0  0  0  0  0  0  0
   33.6691   31.7793   39.3225 H   0  0  0  0  0  0  0  0  0  0  0  0
   32.0153   32.2144   38.7727 H   0  0  0  0  0  0  0  0  0  0  0  0
   33.3165   33.4527   38.7727 H   0  0  0  0  0  0  0  0  0  0  0  0
   32.2998   31.9265   42.6150 H   0  0  0  0  0  0  0  0  0  0  0  0
   31.2425   31.3283   41.2917 H   0  0  0  0  0  0  0  0  0  0  0  0
   32.9941   30.9298   41.2917 H   0  0  0  0  0  0  0  0  0  0  0  0
   31.0178   37.0382   40.5147 H   0  0  0  0  0  0  0  0  0  0  0  0
   32.3782   38.8315   39.4180 H   0  0  0  0  0  0  0  0  0  0  0  0
   32.1645   40.1637   37.5553 H   0  0  0  0  0  0  0  0  0  0  0  0
   32.2815   43.1981   37.5671 H   0  0  0  0  0  0  0  0  0  0  0  0
   31.8041   43.4991   35.8747 H   0  0  0  0  0  0  0  0  0  0  0  0
   36.1893   42.0274   34.5421 H   0  0  0  0  0  0  0  0  0  0  0  0
   36.4323   39.2455   35.0174 H   0  0  0  0  0  0  0  0  0  0  0  0
   35.2331   37.3853   36.2277 H   0  0  0  0  0  0  0  0  0  0  0  0
  1 11  2  0
  2  4  2  0
  2 14  1  0
  3 11  2  0
  4  7  1  0
  5 10  1  0
  6 10  1  0
  6 11  1  0
  7 11  1  0
  7 12  2  0
  8 10  1  0
  9 10  1  0
 12 13  1  0
 13 14  2  0
 14 15  1  0
 15 16  2  0
 15 24  1  0
 16 17  1  0
 17 18  1  0
 17 22  2  0
 18 19  1  0
 18 20  2  0
 20 21  1  0
 21 22  1  0
 22 23  1  0
 23 24  2  0
  2 25  1  0
  4 26  1  0
  5 27  1  0
  5 28  1  0
  5 29  1  0
  6 30  1  0
  8 31  1  0
  8 32  1  0
  8 33  1  0
  9 34  1  0
  9 35  1  0
  9 36  1  0
 12 37  1  0
 13 38  1  0
 16 39  1  0
 19 40  1  0
 19 41  1  0
 21 42  1  0
 23 43  1  0
 24 44  1  0
A    1
O1
A    2
C7
A    3
O2
A    4
C6
A    5
C1
A    6
N1
A    7
C5
A    8
C4
A    9
C3
A   10
C2
A   11
S1
A   12
C10
A   13
C9
A   14
C8
A   15
C11
A   16
C17
A   17
C16
A   18
C15
A   19
N4
A   20
N3
A   21
N2
A   22
C14
A   23
C13
A   24
C12
M  END
