3E6N_AS3_A_903
     RDKit          3D

 25 25  0  0  0  0  0  0  0  0999 V2000
  -68.1420   19.2850   -7.9120 N   0  0  0  0  0  0  0  0  0  0  0  0
  -69.2630   19.6050   -7.2350 C   0  0  0  0  0  0  0  0  0  0  0  0
  -69.1840   20.3150   -6.0760 N   0  0  0  0  0  0  0  0  0  0  0  0
  -70.2980   20.6570   -5.3710 C   0  0  0  0  0  0  0  0  0  0  0  0
  -70.1170   21.4430   -4.0870 C   0  0  0  0  0  0  0  0  0  0  0  0
  -69.5320   20.6160   -2.9350 C   0  0  0  0  0  0  0  0  0  0  0  0
  -70.4520   19.4720   -2.5430 C   0  0  0  0  0  0  0  0  0  0  0  0
  -71.5510   20.2710   -5.8460 C   0  0  0  0  0  0  0  0  0  0  0  0
  -71.6540   19.5460   -7.0230 C   0  0  0  0  0  0  0  0  0  0  0  0
  -73.0060   19.1250   -7.5320 C   0  0  0  0  0  0  0  0  0  0  0  0
  -70.4980   19.2080   -7.7270 C   0  0  0  0  0  0  0  0  0  0  0  0
  -67.2830   19.0398   -7.3993 H   0  0  0  0  0  0  0  0  0  0  0  0
  -68.1445   19.2857   -8.9420 H   0  0  0  0  0  0  0  0  0  0  0  0
  -69.4395   22.2859   -4.2884 H   0  0  0  0  0  0  0  0  0  0  0  0
  -71.1166   21.7746   -3.7694 H   0  0  0  0  0  0  0  0  0  0  0  0
  -68.5623   20.2024   -3.2492 H   0  0  0  0  0  0  0  0  0  0  0  0
  -69.4141   21.2764   -2.0632 H   0  0  0  0  0  0  0  0  0  0  0  0
  -70.5063   19.4044   -1.4464 H   0  0  0  0  0  0  0  0  0  0  0  0
  -71.4577   19.6545   -2.9494 H   0  0  0  0  0  0  0  0  0  0  0  0
  -70.0579   18.5288   -2.9494 H   0  0  0  0  0  0  0  0  0  0  0  0
  -72.4583   20.5420   -5.2863 H   0  0  0  0  0  0  0  0  0  0  0  0
  -73.6704   18.9181   -6.6801 H   0  0  0  0  0  0  0  0  0  0  0  0
  -73.4350   19.9321   -8.1440 H   0  0  0  0  0  0  0  0  0  0  0  0
  -72.9009   18.2170   -8.1440 H   0  0  0  0  0  0  0  0  0  0  0  0
  -70.5650   18.6328   -8.6623 H   0  0  0  0  0  0  0  0  0  0  0  0
  1  2  1  0
  2  3  2  0
  2 11  1  0
  3  4  1  0
  4  5  1  0
  4  8  2  0
  5  6  1  0
  6  7  1  0
  8  9  1  0
  9 10  1  0
  9 11  2  0
  1 12  1  0
  1 13  1  0
  5 14  1  0
  5 15  1  0
  6 16  1  0
  6 17  1  0
  7 18  1  0
  7 19  1  0
  7 20  1  0
  8 21  1  0
 10 22  1  0
 10 23  1  0
 10 24  1  0
 11 25  1  0
A    1
N8
A    2
C1
A    3
N6
A    4
C5
A    5
C9
A    6
C10
A    7
C11
A    8
C4
A    9
C3
A   10
C7
A   11
C2
M  END
