3E6T_1A2_A_905
     RDKit          3D

 52 55  0  0  0  0  0  0  0  0999 V2000
  122.7840  112.1140   33.9580 C   0  0  0  0  0  0  0  0  0  0  0  0
  124.3480  115.6280   32.3860 C   0  0  0  0  0  0  0  0  0  0  0  0
  123.6790  115.6370   33.5830 N   0  0  0  0  0  0  0  0  0  0  0  0
  126.4930  112.1200   31.4430 C   0  0  0  0  0  0  0  0  0  0  0  0
  126.2110  114.4950   31.1530 C   0  0  0  0  0  0  0  0  0  0  0  0
  125.3910  112.0860   32.2990 C   0  0  0  0  0  0  0  0  0  0  0  0
  126.9020  113.3270   30.8860 C   0  0  0  0  0  0  0  0  0  0  0  0
  125.0650  114.4660   32.0220 C   0  0  0  0  0  0  0  0  0  0  0  0
  123.6590  114.5040   34.5620 C   0  0  0  0  0  0  0  0  0  0  0  0
  123.6950  113.2620   33.6670 N   0  0  0  0  0  0  0  0  0  0  0  0
  124.6540  113.2350   32.6470 C   0  0  0  0  0  0  0  0  0  0  0  0
  126.6520  115.6190   30.6140 F   0  0  0  0  0  0  0  0  0  0  0  0
  125.0070  110.9650   32.7970 F   0  0  0  0  0  0  0  0  0  0  0  0
  124.9670  114.5500   35.4260 C   0  0  0  0  0  0  0  0  0  0  0  0
  124.9390  115.7780   36.3110 C   0  0  0  0  0  0  0  0  0  0  0  0
  123.7590  115.6140   37.1830 N   0  0  0  0  0  0  0  0  0  0  0  0
  122.6000  115.9460   36.2930 C   0  0  0  0  0  0  0  0  0  0  0  0
  122.3920  114.6730   35.4680 C   0  0  0  0  0  0  0  0  0  0  0  0
  123.8480  116.1930   38.4540 C   0  0  0  0  0  0  0  0  0  0  0  0
  124.9060  116.8000   38.8300 O   0  0  0  0  0  0  0  0  0  0  0  0
  124.2950  116.6620   31.5730 N   0  0  0  0  0  0  0  0  0  0  0  0
  122.7180  116.0560   39.3520 C   0  0  0  0  0  0  0  0  0  0  0  0
  122.3240  117.1190   40.2540 C   0  0  0  0  0  0  0  0  0  0  0  0
  121.1990  116.8610   41.0840 N   0  0  0  0  0  0  0  0  0  0  0  0
  120.4930  115.6080   41.0210 C   0  0  0  0  0  0  0  0  0  0  0  0
  120.8900  114.6060   40.1430 C   0  0  0  0  0  0  0  0  0  0  0  0
  121.9840  114.8230   39.3230 C   0  0  0  0  0  0  0  0  0  0  0  0
  119.4220  115.3600   41.8390 C   0  0  0  0  0  0  0  0  0  0  0  0
  118.4110  115.0500   42.6610 N   0  0  0  0  0  0  0  0  0  0  0  0
  123.1290  111.3760   35.3070 C   0  0  0  0  0  0  0  0  0  0  0  0
  121.7530  112.4925   34.0200 H   0  0  0  0  0  0  0  0  0  0  0  0
  122.9071  111.3839   33.1445 H   0  0  0  0  0  0  0  0  0  0  0  0
  127.0374  111.1932   31.2092 H   0  0  0  0  0  0  0  0  0  0  0  0
  127.7827  113.3529   30.2274 H   0  0  0  0  0  0  0  0  0  0  0  0
  125.0259  113.6473   36.0518 H   0  0  0  0  0  0  0  0  0  0  0  0
  125.8446  114.5927   34.7641 H   0  0  0  0  0  0  0  0  0  0  0  0
  125.8568  115.8371   36.9144 H   0  0  0  0  0  0  0  0  0  0  0  0
  124.8819  116.7038   35.7197 H   0  0  0  0  0  0  0  0  0  0  0  0
  121.7040  116.1777   36.8875 H   0  0  0  0  0  0  0  0  0  0  0  0
  122.7860  116.8312   35.6671 H   0  0  0  0  0  0  0  0  0  0  0  0
  121.4913  114.7699   34.8440 H   0  0  0  0  0  0  0  0  0  0  0  0
  122.2566  113.7987   36.1216 H   0  0  0  0  0  0  0  0  0  0  0  0
  124.2461  117.6167   31.9565 H   0  0  0  0  0  0  0  0  0  0  0  0
  124.3025  116.5163   30.5534 H   0  0  0  0  0  0  0  0  0  0  0  0
  122.8665  118.0750   40.2945 H   0  0  0  0  0  0  0  0  0  0  0  0
  121.1144  113.7166   40.7501 H   0  0  0  0  0  0  0  0  0  0  0  0
  120.0476  114.5240   39.4404 H   0  0  0  0  0  0  0  0  0  0  0  0
  121.6250  114.7015   38.2904 H   0  0  0  0  0  0  0  0  0  0  0  0
  122.7179  114.1054   39.7185 H   0  0  0  0  0  0  0  0  0  0  0  0
  122.8333  112.0085   36.1570 H   0  0  0  0  0  0  0  0  0  0  0  0
  122.5836  110.4218   35.3528 H   0  0  0  0  0  0  0  0  0  0  0  0
  124.2109  111.1825   35.3528 H   0  0  0  0  0  0  0  0  0  0  0  0
  1 10  1  0
  1 30  1  0
  2  3  2  0
  2  8  1  0
  2 21  1  0
  3  9  1  0
  4  6  1  0
  4  7  2  0
  5  7  1  0
  5  8  2  0
  5 12  1  0
  6 11  2  0
  6 13  1  0
  8 11  1  0
  9 10  1  0
  9 14  1  0
  9 18  1  0
 10 11  1  0
 14 15  1  0
 15 16  1  0
 16 17  1  0
 16 19  1  0
 17 18  1  0
 19 20  2  0
 19 22  1  0
 22 23  2  0
 22 27  1  0
 23 24  1  0
 24 25  2  0
 25 26  1  0
 25 28  1  0
 26 27  1  0
 28 29  3  0
  1 31  1  0
  1 32  1  0
  4 33  1  0
  7 34  1  0
 14 35  1  0
 14 36  1  0
 15 37  1  0
 15 38  1  0
 17 39  1  0
 17 40  1  0
 18 41  1  0
 18 42  1  0
 21 43  1  0
 21 44  1  0
 23 45  1  0
 26 46  1  0
 26 47  1  0
 27 48  1  0
 27 49  1  0
 30 50  1  0
 30 51  1  0
 30 52  1  0
A    1
C8
A    2
C5
A    3
N6
A    4
C2
A    5
C4
A    6
C1
A    7
C3
A    8
C4A
A    9
C7
A   10
N8
A   11
C8A
A   12
F9
A   13
F10
A   14
C11
A   15
C12
A   16
N13
A   17
C14
A   18
C15
A   19
C16
A   20
O17
A   21
N18
A   22
C19
A   23
C20
A   24
N21
A   25
C22
A   26
C23
A   27
C24
A   28
C25
A   29
N26
A   30
C13
M  END
