3E6Y_CW1_A_261
     RDKit          3D

 98103  0  0  0  0  0  0  0  0999 V2000
  -21.0040  -19.6560  -23.5080 O   0  0  0  0  0  0  0  0  0  0  0  0
  -20.5910  -20.8200  -23.3930 C   0  0  0  0  0  0  0  0  0  0  0  0
  -19.2240  -21.0780  -23.4230 O   0  0  0  0  0  0  0  0  0  0  0  0
  -18.4880  -19.8980  -23.5430 C   0  0  0  0  0  0  0  0  0  0  0  0
  -17.8410  -19.9740  -24.9270 C   0  0  0  0  0  0  0  0  0  0  0  0
  -16.2940  -20.0650  -24.7330 C   0  0  0  0  0  0  0  0  0  0  0  0
  -15.6070  -21.3800  -25.1730 C   0  0  0  0  0  0  0  0  0  0  0  0
  -15.3710  -18.9500  -24.2850 O   0  0  0  0  0  0  0  0  0  0  0  0
  -14.8860  -18.2850  -25.4250 C   0  0  0  0  0  0  0  0  0  0  0  0
  -13.3970  -17.7490  -25.5090 C   0  0  0  0  0  0  0  0  0  0  0  0
  -13.2650  -16.5110  -24.7930 O   0  0  0  0  0  0  0  0  0  0  0  0
  -12.3490  -18.8140  -25.3140 C   0  0  0  0  0  0  0  0  0  0  0  0
  -11.5170  -18.5330  -24.2350 O   0  0  0  0  0  0  0  0  0  0  0  0
  -12.3270  -18.9540  -23.1020 C   0  0  0  0  0  0  0  0  0  0  0  0
  -15.0170  -19.2430  -26.4960 O   0  0  0  0  0  0  0  0  0  0  0  0
  -16.3140  -19.5040  -26.3050 C   0  0  0  0  0  0  0  0  0  0  0  0
  -16.6720  -18.1480  -26.7100 O   0  0  0  0  0  0  0  0  0  0  0  0
  -15.9220  -17.2860  -25.8090 C   0  0  0  0  0  0  0  0  0  0  0  0
  -15.1650  -16.0880  -26.3930 C   0  0  0  0  0  0  0  0  0  0  0  0
  -16.1260  -15.1400  -26.8400 O   0  0  0  0  0  0  0  0  0  0  0  0
  -14.1650  -15.5000  -25.3520 C   0  0  0  0  0  0  0  0  0  0  0  0
  -14.9110  -15.1290  -24.1920 O   0  0  0  0  0  0  0  0  0  0  0  0
  -14.1850  -14.1290  -23.4010 C   0  0  0  0  0  0  0  0  0  0  0  0
  -14.0940  -14.7420  -21.9990 C   0  0  0  0  0  0  0  0  0  0  0  0
  -15.0270  -15.5040  -21.2690 C   0  0  0  0  0  0  0  0  0  0  0  0
  -16.5220  -15.5440  -21.6900 C   0  0  0  0  0  0  0  0  0  0  0  0
  -17.2180  -16.9360  -21.6820 C   0  0  0  0  0  0  0  0  0  0  0  0
  -17.2630  -14.4710  -20.8490 C   0  0  0  0  0  0  0  0  0  0  0  0
  -14.4390  -15.9340  -19.9470 C   0  0  0  0  0  0  0  0  0  0  0  0
  -12.9310  -15.9080  -20.1970 C   0  0  0  0  0  0  0  0  0  0  0  0
  -12.7270  -14.7650  -21.2380 C   0  0  0  0  0  0  0  0  0  0  0  0
  -11.5430  -15.0690  -22.1740 C   0  0  0  0  0  0  0  0  0  0  0  0
  -12.4140  -13.6010  -20.4880 C   0  0  0  0  0  0  0  0  0  0  0  0
  -12.9990  -12.3170  -20.4360 C   0  0  0  0  0  0  0  0  0  0  0  0
  -12.6550  -11.1640  -19.4750 C   0  0  0  0  0  0  0  0  0  0  0  0
  -11.4500  -10.3240  -19.8300 C   0  0  0  0  0  0  0  0  0  0  0  0
  -10.5490  -10.5170  -18.7150 O   0  0  0  0  0  0  0  0  0  0  0  0
   -9.2690   -9.9230  -19.0030 C   0  0  0  0  0  0  0  0  0  0  0  0
  -12.4710  -11.6990  -18.1410 O   0  0  0  0  0  0  0  0  0  0  0  0
  -13.8630  -10.3030  -19.3820 C   0  0  0  0  0  0  0  0  0  0  0  0
  -14.6970  -10.5280  -20.6330 C   0  0  0  0  0  0  0  0  0  0  0  0
  -14.2870  -11.8770  -21.1960 C   0  0  0  0  0  0  0  0  0  0  0  0
  -14.1800  -11.6860  -22.7470 C   0  0  0  0  0  0  0  0  0  0  0  0
  -12.7500  -11.4470  -23.3400 C   0  0  0  0  0  0  0  0  0  0  0  0
  -14.9690  -12.8140  -23.3900 C   0  0  0  0  0  0  0  0  0  0  0  0
  -15.3820  -12.4260  -24.7090 O   0  0  0  0  0  0  0  0  0  0  0  0
  -21.3048  -21.6475  -23.2674 H   0  0  0  0  0  0  0  0  0  0  0  0
  -19.1487  -19.0214  -23.4727 H   0  0  0  0  0  0  0  0  0  0  0  0
  -17.7406  -19.7940  -22.7426 H   0  0  0  0  0  0  0  0  0  0  0  0
  -18.2033  -20.8655  -25.4599 H   0  0  0  0  0  0  0  0  0  0  0  0
  -18.0999  -19.0837  -25.5189 H   0  0  0  0  0  0  0  0  0  0  0  0
  -15.3077  -21.9529  -24.2830 H   0  0  0  0  0  0  0  0  0  0  0  0
  -16.3085  -21.9768  -25.7744 H   0  0  0  0  0  0  0  0  0  0  0  0
  -14.7164  -21.1450  -25.7744 H   0  0  0  0  0  0  0  0  0  0  0  0
  -13.1650  -17.4699  -26.5474 H   0  0  0  0  0  0  0  0  0  0  0  0
  -12.8498  -19.7770  -25.1354 H   0  0  0  0  0  0  0  0  0  0  0  0
  -11.7286  -18.8514  -26.2216 H   0  0  0  0  0  0  0  0  0  0  0  0
  -11.8146  -18.6877  -22.1658 H   0  0  0  0  0  0  0  0  0  0  0  0
  -13.3036  -18.4494  -23.1418 H   0  0  0  0  0  0  0  0  0  0  0  0
  -12.4752  -20.0432  -23.1418 H   0  0  0  0  0  0  0  0  0  0  0  0
  -16.9905  -20.2274  -26.7836 H   0  0  0  0  0  0  0  0  0  0  0  0
  -16.5885  -16.8099  -25.0748 H   0  0  0  0  0  0  0  0  0  0  0  0
  -14.5483  -16.3943  -27.2508 H   0  0  0  0  0  0  0  0  0  0  0  0
  -16.5579  -14.7139  -26.0577 H   0  0  0  0  0  0  0  0  0  0  0  0
  -13.6204  -14.6991  -25.8735 H   0  0  0  0  0  0  0  0  0  0  0  0
  -13.1884  -13.8949  -23.8035 H   0  0  0  0  0  0  0  0  0  0  0  0
  -16.5712  -15.3114  -22.7640 H   0  0  0  0  0  0  0  0  0  0  0  0
  -17.3796  -17.2592  -20.6430 H   0  0  0  0  0  0  0  0  0  0  0  0
  -18.1865  -16.8647  -22.1987 H   0  0  0  0  0  0  0  0  0  0  0  0
  -16.5798  -17.6680  -22.1987 H   0  0  0  0  0  0  0  0  0  0  0  0
  -17.1187  -14.6800  -19.7787 H   0  0  0  0  0  0  0  0  0  0  0  0
  -16.8588  -13.4758  -21.0860 H   0  0  0  0  0  0  0  0  0  0  0  0
  -18.3369  -14.4966  -21.0860 H   0  0  0  0  0  0  0  0  0  0  0  0
  -14.7164  -15.2317  -19.1471 H   0  0  0  0  0  0  0  0  0  0  0  0
  -14.8004  -16.9200  -19.6197 H   0  0  0  0  0  0  0  0  0  0  0  0
  -12.3865  -15.6884  -19.2668 H   0  0  0  0  0  0  0  0  0  0  0  0
  -12.5503  -16.8749  -20.5577 H   0  0  0  0  0  0  0  0  0  0  0  0
  -10.6503  -15.2982  -21.5735 H   0  0  0  0  0  0  0  0  0  0  0  0
  -11.7897  -15.9329  -22.8086 H   0  0  0  0  0  0  0  0  0  0  0  0
  -11.3430  -14.1931  -22.8086 H   0  0  0  0  0  0  0  0  0  0  0  0
  -11.5496  -13.7228  -19.8187 H   0  0  0  0  0  0  0  0  0  0  0  0
  -10.9925  -10.6729  -20.7675 H   0  0  0  0  0  0  0  0  0  0  0  0
  -11.7038   -9.2659  -19.9913 H   0  0  0  0  0  0  0  0  0  0  0  0
   -8.7550   -9.6845  -18.0602 H   0  0  0  0  0  0  0  0  0  0  0  0
   -8.6591  -10.6301  -19.5844 H   0  0  0  0  0  0  0  0  0  0  0  0
   -9.4152   -9.0007  -19.5844 H   0  0  0  0  0  0  0  0  0  0  0  0
  -12.7086  -11.0083  -17.4728 H   0  0  0  0  0  0  0  0  0  0  0  0
  -14.4470  -10.5741  -18.4901 H   0  0  0  0  0  0  0  0  0  0  0  0
  -13.5731   -9.2450  -19.3009 H   0  0  0  0  0  0  0  0  0  0  0  0
  -15.7672  -10.5330  -20.3789 H   0  0  0  0  0  0  0  0  0  0  0  0
  -14.5310   -9.7264  -21.3678 H   0  0  0  0  0  0  0  0  0  0  0  0
  -14.9964  -12.7043  -21.0463 H   0  0  0  0  0  0  0  0  0  0  0  0
  -14.6245  -10.7133  -23.0045 H   0  0  0  0  0  0  0  0  0  0  0  0
  -12.0280  -11.3263  -22.5189 H   0  0  0  0  0  0  0  0  0  0  0  0
  -12.4608  -12.3093  -23.9588 H   0  0  0  0  0  0  0  0  0  0  0  0
  -12.7569  -10.5376  -23.9588 H   0  0  0  0  0  0  0  0  0  0  0  0
  -15.8672  -12.9998  -22.7828 H   0  0  0  0  0  0  0  0  0  0  0  0
  -16.1020  -11.7496  -24.6438 H   0  0  0  0  0  0  0  0  0  0  0  0
  1  2  2  0
  2  3  1  0
  3  4  1  0
  4  5  1  0
  5  6  1  0
  6  7  1  0
  6  8  1  0
  6 16  1  0
  8  9  1  0
  9 10  1  0
  9 15  1  0
  9 18  1  0
 10 11  1  0
 10 12  1  0
 11 21  1  0
 12 13  1  0
 13 14  1  0
 15 16  1  0
 16 17  1  0
 17 18  1  0
 18 19  1  0
 19 20  1  0
 19 21  1  0
 21 22  1  0
 22 23  1  0
 23 24  1  0
 23 45  1  0
 24 25  2  0
 24 31  1  0
 25 26  1  0
 25 29  1  0
 26 27  1  0
 26 28  1  0
 29 30  1  0
 30 31  1  0
 31 32  1  0
 31 33  1  0
 33 34  2  0
 34 35  1  0
 34 42  1  0
 35 36  1  0
 35 39  1  0
 35 40  1  0
 36 37  1  0
 37 38  1  0
 40 41  1  0
 41 42  1  0
 42 43  1  0
 43 44  1  0
 43 45  1  0
 45 46  1  0
  2 47  1  0
  4 48  1  0
  4 49  1  0
  5 50  1  0
  5 51  1  0
  7 52  1  0
  7 53  1  0
  7 54  1  0
 10 55  1  0
 12 56  1  0
 12 57  1  0
 14 58  1  0
 14 59  1  0
 14 60  1  0
 16 61  1  0
 18 62  1  0
 19 63  1  0
 20 64  1  0
 21 65  1  0
 23 66  1  0
 26 67  1  0
 27 68  1  0
 27 69  1  0
 27 70  1  0
 28 71  1  0
 28 72  1  0
 28 73  1  0
 29 74  1  0
 29 75  1  0
 30 76  1  0
 30 77  1  0
 32 78  1  0
 32 79  1  0
 32 80  1  0
 33 81  1  0
 36 82  1  0
 36 83  1  0
 38 84  1  0
 38 85  1  0
 38 86  1  0
 39 87  1  0
 40 88  1  0
 40 89  1  0
 41 90  1  0
 41 91  1  0
 42 92  1  0
 43 93  1  0
 44 94  1  0
 44 95  1  0
 44 96  1  0
 45 97  1  0
 46 98  1  0
A    1
OAH
A    2
CAL
A    3
OAX
A    4
CAN
A    5
CAQ
A    6
CBR
A    7
CAG
A    8
OBC
A    9
CBT
A   10
CBK
A   11
OAY
A   12
CAT
A   13
OAV
A   14
CAA
A   15
OBB
A   16
CBM
A   17
OAZ
A   18
CBN
A   19
CBI
A   20
OAI
A   21
CBL
A   22
OBA
A   23
CBQ
A   24
CBF
A   25
CBD
A   26
CBG
A   27
CAD
A   28
CAC
A   29
CAO
A   30
CAP
A   31
CBO
A   32
CAF
A   33
CAM
A   34
CBE
A   35
CBS
A   36
CAU
A   37
OAW
A   38
CAB
A   39
OAK
A   40
CAS
A   41
CAR
A   42
CBP
A   43
CBH
A   44
CAE
A   45
CBJ
A   46
OAJ
M  END
