3E7I_B2_A_906
     RDKit          3D

 27 29  0  0  0  0  0  0  0  0999 V2000
  125.5320  111.8950   31.3950 C   0  0  0  0  0  0  0  0  0  0  0  0
  126.5460  112.0020   30.4300 C   0  0  0  0  0  0  0  0  0  0  0  0
  126.7540  113.1970   29.7160 C   0  0  0  0  0  0  0  0  0  0  0  0
  125.9360  114.3100   29.9450 C   0  0  0  0  0  0  0  0  0  0  0  0
  124.8960  114.2130   30.9220 C   0  0  0  0  0  0  0  0  0  0  0  0
  124.0120  115.3040   31.1970 C   0  0  0  0  0  0  0  0  0  0  0  0
  123.0630  115.1370   32.1350 N   0  0  0  0  0  0  0  0  0  0  0  0
  123.2660  114.1950   33.2730 C   0  0  0  0  0  0  0  0  0  0  0  0
  123.9250  112.9650   32.7610 N   0  0  0  0  0  0  0  0  0  0  0  0
  124.7040  112.9890   31.6700 C   0  0  0  0  0  0  0  0  0  0  0  0
  124.1510  114.8970   34.3580 C   0  0  0  0  0  0  0  0  0  0  0  0
  123.7740  116.0150   35.0200 C   0  0  0  0  0  0  0  0  0  0  0  0
  124.7200  116.3870   35.8760 C   0  0  0  0  0  0  0  0  0  0  0  0
  125.8200  115.6070   35.9120 C   0  0  0  0  0  0  0  0  0  0  0  0
  125.6760  114.3450   34.8230 S   0  0  0  0  0  0  0  0  0  0  0  0
  124.0950  116.4690   30.5480 N   0  0  0  0  0  0  0  0  0  0  0  0
  126.1230  115.4150   29.2780 F   0  0  0  0  0  0  0  0  0  0  0  0
  125.3880  110.9484   31.9365 H   0  0  0  0  0  0  0  0  0  0  0  0
  127.1911  111.1343   30.2278 H   0  0  0  0  0  0  0  0  0  0  0  0
  127.5638  113.2568   28.9739 H   0  0  0  0  0  0  0  0  0  0  0  0
  122.3049  113.9169   33.7301 H   0  0  0  0  0  0  0  0  0  0  0  0
  123.7798  112.0734   33.2559 H   0  0  0  0  0  0  0  0  0  0  0  0
  122.8197  116.5415   34.8709 H   0  0  0  0  0  0  0  0  0  0  0  0
  124.6127  117.2756   36.5154 H   0  0  0  0  0  0  0  0  0  0  0  0
  126.6888  115.7767   36.5650 H   0  0  0  0  0  0  0  0  0  0  0  0
  124.1578  117.3502   31.0776 H   0  0  0  0  0  0  0  0  0  0  0  0
  124.0962  116.4859   29.5181 H   0  0  0  0  0  0  0  0  0  0  0  0
  1  2  2  0
  1 10  1  0
  2  3  1  0
  3  4  2  0
  4  5  1  0
  4 17  1  0
  5  6  1  0
  5 10  2  0
  6  7  2  0
  6 16  1  0
  7  8  1  0
  8  9  1  0
  8 11  1  0
  9 10  1  0
 11 12  2  0
 11 15  1  0
 12 13  1  0
 13 14  2  0
 14 15  1  0
  1 18  1  0
  2 19  1  0
  3 20  1  0
  8 21  1  0
  9 22  1  0
 12 23  1  0
 13 24  1  0
 14 25  1  0
 16 26  1  0
 16 27  1  0
A    1
C1
A    2
C2
A    3
C3
A    4
C4
A    5
C4A
A    6
C5
A    7
N6
A    8
C7
A    9
N8
A   10
C8A
A   11
C9
A   12
C10
A   13
C11
A   14
C12
A   15
S13
A   16
N14
A   17
F15
M  END
