3E7T_B14_A_906
     RDKit          3D

 44 47  0  0  0  0  0  0  0  0999 V2000
  125.3370  111.8580   32.5830 C   0  0  0  0  0  0  0  0  0  0  0  0
  126.3740  111.8100   31.6610 C   0  0  0  0  0  0  0  0  0  0  0  0
  126.8560  112.9910   31.0580 C   0  0  0  0  0  0  0  0  0  0  0  0
  126.2810  114.2380   31.3530 C   0  0  0  0  0  0  0  0  0  0  0  0
  125.1800  114.2930   32.2660 C   0  0  0  0  0  0  0  0  0  0  0  0
  124.5050  115.4900   32.6430 C   0  0  0  0  0  0  0  0  0  0  0  0
  123.8500  115.5220   33.8270 N   0  0  0  0  0  0  0  0  0  0  0  0
  123.7790  114.4020   34.7930 C   0  0  0  0  0  0  0  0  0  0  0  0
  123.7870  113.2090   33.8960 N   0  0  0  0  0  0  0  0  0  0  0  0
  124.7270  113.1030   32.9340 C   0  0  0  0  0  0  0  0  0  0  0  0
  126.7530  115.3130   30.7920 F   0  0  0  0  0  0  0  0  0  0  0  0
  124.8960  110.7790   33.1440 F   0  0  0  0  0  0  0  0  0  0  0  0
  125.0360  114.4160   35.7120 C   0  0  0  0  0  0  0  0  0  0  0  0
  124.9760  115.6340   36.6330 C   0  0  0  0  0  0  0  0  0  0  0  0
  123.7540  115.4750   37.4690 N   0  0  0  0  0  0  0  0  0  0  0  0
  122.6570  115.8020   36.5090 C   0  0  0  0  0  0  0  0  0  0  0  0
  122.4800  114.5500   35.6260 C   0  0  0  0  0  0  0  0  0  0  0  0
  123.7690  116.0920   38.7180 C   0  0  0  0  0  0  0  0  0  0  0  0
  124.7600  116.7290   39.1070 O   0  0  0  0  0  0  0  0  0  0  0  0
  124.4620  116.5490   31.8660 N   0  0  0  0  0  0  0  0  0  0  0  0
  122.6340  115.9760   39.5960 C   0  0  0  0  0  0  0  0  0  0  0  0
  122.2710  117.0580   40.4700 C   0  0  0  0  0  0  0  0  0  0  0  0
  121.1430  116.8880   41.2880 N   0  0  0  0  0  0  0  0  0  0  0  0
  120.3870  115.7120   41.2670 C   0  0  0  0  0  0  0  0  0  0  0  0
  120.7340  114.6610   40.4260 C   0  0  0  0  0  0  0  0  0  0  0  0
  121.8550  114.7850   39.5920 C   0  0  0  0  0  0  0  0  0  0  0  0
  119.3020  115.5990   42.0750 C   0  0  0  0  0  0  0  0  0  0  0  0
  118.2260  115.4910   42.8440 N   0  0  0  0  0  0  0  0  0  0  0  0
  126.8243  110.8415   31.3980 H   0  0  0  0  0  0  0  0  0  0  0  0
  127.6935  112.9343   30.3471 H   0  0  0  0  0  0  0  0  0  0  0  0
  123.0784  112.4703   34.0109 H   0  0  0  0  0  0  0  0  0  0  0  0
  125.0582  113.4982   36.3179 H   0  0  0  0  0  0  0  0  0  0  0  0
  125.9439  114.4669   35.0930 H   0  0  0  0  0  0  0  0  0  0  0  0
  125.8707  115.6713   37.2718 H   0  0  0  0  0  0  0  0  0  0  0  0
  124.9416  116.5684   36.0535 H   0  0  0  0  0  0  0  0  0  0  0  0
  121.7261  116.0216   37.0523 H   0  0  0  0  0  0  0  0  0  0  0  0
  122.8993  116.6899   35.9065 H   0  0  0  0  0  0  0  0  0  0  0  0
  121.6146  114.6765   34.9588 H   0  0  0  0  0  0  0  0  0  0  0  0
  122.3014  113.6555   36.2408 H   0  0  0  0  0  0  0  0  0  0  0  0
  124.4238  117.4910   32.2809 H   0  0  0  0  0  0  0  0  0  0  0  0
  124.4665  116.4370   30.8421 H   0  0  0  0  0  0  0  0  0  0  0  0
  122.8576  117.9882   40.4969 H   0  0  0  0  0  0  0  0  0  0  0  0
  120.1341  113.7391   40.4146 H   0  0  0  0  0  0  0  0  0  0  0  0
  122.1347  113.9535   38.9284 H   0  0  0  0  0  0  0  0  0  0  0  0
  1  2  2  0
  1 10  1  0
  1 12  1  0
  2  3  1  0
  3  4  2  0
  4  5  1  0
  4 11  1  0
  5  6  1  0
  5 10  2  0
  6  7  2  0
  6 20  1  0
  7  8  1  0
  8  9  1  0
  8 13  1  0
  8 17  1  0
  9 10  1  0
 13 14  1  0
 14 15  1  0
 15 16  1  0
 15 18  1  0
 16 17  1  0
 18 19  2  0
 18 21  1  0
 21 22  2  0
 21 26  1  0
 22 23  1  0
 23 24  2  0
 24 25  1  0
 24 27  1  0
 25 26  2  0
 27 28  3  0
  2 29  1  0
  3 30  1  0
  9 31  1  0
 13 32  1  0
 13 33  1  0
 14 34  1  0
 14 35  1  0
 16 36  1  0
 16 37  1  0
 17 38  1  0
 17 39  1  0
 20 40  1  0
 20 41  1  0
 22 42  1  0
 25 43  1  0
 26 44  1  0
A    1
C1
A    2
C2
A    3
C3
A    4
C4
A    5
C4A
A    6
C5
A    7
N6
A    8
C7
A    9
N8
A   10
C8A
A   11
F9
A   12
F10
A   13
C11
A   14
C12
A   15
N13
A   16
C14
A   17
C15
A   18
C16
A   19
O17
A   20
N18
A   21
C19
A   22
C20
A   23
N21
A   24
C22
A   25
C23
A   26
C24
A   27
C25
A   28
N26
M  END
