3E7V_DZO_A_1
     RDKit          3D

 38 41  0  0  0  0  0  0  0  0999 V2000
    8.4750  -15.9840  -11.9420 C   0  0  0  0  0  0  0  0  0  0  0  0
   11.9370  -13.2790  -12.8980 C   0  0  0  0  0  0  0  0  0  0  0  0
    9.1570  -15.1060  -11.2040 C   0  0  0  0  0  0  0  0  0  0  0  0
   10.1550  -14.5820  -12.0350 C   0  0  0  0  0  0  0  0  0  0  0  0
   12.4710  -11.5110  -10.5180 C   0  0  0  0  0  0  0  0  0  0  0  0
   12.7870  -10.5840   -9.5350 C   0  0  0  0  0  0  0  0  0  0  0  0
   11.9610  -10.6160   -8.0210 Cl  0  0  0  0  0  0  0  0  0  0  0  0
   13.7600   -9.6180   -9.7640 C   0  0  0  0  0  0  0  0  0  0  0  0
   14.4140   -9.5600  -10.9870 C   0  0  0  0  0  0  0  0  0  0  0  0
   14.1060  -10.4860  -11.9780 C   0  0  0  0  0  0  0  0  0  0  0  0
   13.1300  -11.4720  -11.7640 C   0  0  0  0  0  0  0  0  0  0  0  0
   12.9100  -12.3420  -12.7840 N   0  0  0  0  0  0  0  0  0  0  0  0
   11.8150  -13.9230  -14.1290 C   0  0  0  0  0  0  0  0  0  0  0  0
   10.8440  -14.9120  -14.3120 C   0  0  0  0  0  0  0  0  0  0  0  0
   11.1010  -13.6110  -11.8940 N   0  0  0  0  0  0  0  0  0  0  0  0
    9.9840  -15.2420  -13.2540 N   0  0  0  0  0  0  0  0  0  0  0  0
    9.0040  -16.0230  -13.1690 N   0  0  0  0  0  0  0  0  0  0  0  0
    8.9210  -14.6560   -9.8980 C   0  0  0  0  0  0  0  0  0  0  0  0
    7.6030  -14.5000   -9.4590 C   0  0  0  0  0  0  0  0  0  0  0  0
    9.9540  -14.2400   -9.0610 C   0  0  0  0  0  0  0  0  0  0  0  0
    9.7020  -13.7430   -7.7910 C   0  0  0  0  0  0  0  0  0  0  0  0
    8.3940  -13.6390   -7.3590 C   0  0  0  0  0  0  0  0  0  0  0  0
    7.3240  -13.9790   -8.1930 C   0  0  0  0  0  0  0  0  0  0  0  0
    6.0560  -13.8350   -7.7410 N   0  0  0  0  0  0  0  0  0  0  0  0
    7.6167  -16.5791  -11.5967 H   0  0  0  0  0  0  0  0  0  0  0  0
   11.7056  -12.2771  -10.3250 H   0  0  0  0  0  0  0  0  0  0  0  0
   14.0127   -8.8967   -8.9729 H   0  0  0  0  0  0  0  0  0  0  0  0
   15.1725   -8.7851  -11.1716 H   0  0  0  0  0  0  0  0  0  0  0  0
   14.6341  -10.4452  -12.9421 H   0  0  0  0  0  0  0  0  0  0  0  0
   13.5684  -12.2818  -13.5738 H   0  0  0  0  0  0  0  0  0  0  0  0
   12.4848  -13.6520  -14.9584 H   0  0  0  0  0  0  0  0  0  0  0  0
   10.7549  -15.4281  -15.2793 H   0  0  0  0  0  0  0  0  0  0  0  0
    6.7735  -14.7917  -10.1199 H   0  0  0  0  0  0  0  0  0  0  0  0
   10.9932  -14.3072   -9.4155 H   0  0  0  0  0  0  0  0  0  0  0  0
   10.5316  -13.4361   -7.1372 H   0  0  0  0  0  0  0  0  0  0  0  0
    8.1900  -13.2817   -6.3388 H   0  0  0  0  0  0  0  0  0  0  0  0
    5.8696  -13.8138   -6.7282 H   0  0  0  0  0  0  0  0  0  0  0  0
    5.2777  -13.7466   -8.4099 H   0  0  0  0  0  0  0  0  0  0  0  0
  1  3  1  0
  1 17  2  0
  2 12  1  0
  2 13  1  0
  2 15  2  0
  3  4  2  0
  3 18  1  0
  4 15  1  0
  4 16  1  0
  5  6  2  0
  5 11  1  0
  6  7  1  0
  6  8  1  0
  8  9  2  0
  9 10  1  0
 10 11  2  0
 11 12  1  0
 13 14  2  0
 14 16  1  0
 16 17  1  0
 18 19  2  0
 18 20  1  0
 19 23  1  0
 20 21  2  0
 21 22  1  0
 22 23  2  0
 23 24  1  0
  1 25  1  0
  5 26  1  0
  8 27  1  0
  9 28  1  0
 10 29  1  0
 12 30  1  0
 13 31  1  0
 14 32  1  0
 19 33  1  0
 20 34  1  0
 21 35  1  0
 22 36  1  0
 24 37  1  0
 24 38  1  0
A    1
C4
A    2
C3
A    3
C2
A    4
C1
A    5
C10
A    6
C12
A    7
CL1
A    8
C17
A    9
C15
A   10
C16
A   11
C9
A   12
N4
A   13
C5
A   14
C7
A   15
N1
A   16
N2
A   17
N3
A   18
C6
A   19
C8
A   20
C13
A   21
C14
A   22
C18
A   23
C11
A   24
N5
M  END
