3E80_HS2_A_777
     RDKit          3D

 47 48  0  0  0  0  0  0  0  0999 V2000
   37.2670  100.0620   10.0980 O   0  0  0  0  0  0  0  0  0  0  0  0
   36.8350   99.2270    9.2700 C   0  0  0  0  0  0  0  0  0  0  0  0
   35.7460   99.2420    8.6540 O   0  0  0  0  0  0  0  0  0  0  0  0
   37.6590   98.0950    8.9600 C   0  0  0  0  0  0  0  0  0  0  0  0
   38.9910   98.1990    9.0990 C   0  0  0  0  0  0  0  0  0  0  0  0
   39.9410   97.1670    8.5510 C   0  0  0  0  0  0  0  0  0  0  0  0
   40.4700   97.7480    7.3580 O   0  0  0  0  0  0  0  0  0  0  0  0
   39.1620   95.8700    8.3050 C   0  0  0  0  0  0  0  0  0  0  0  0
   39.0010   95.1420    9.5340 O   0  0  0  0  0  0  0  0  0  0  0  0
   37.7670   96.0850    7.6780 C   0  0  0  0  0  0  0  0  0  0  0  0
   36.9520   96.9120    8.5150 O   0  0  0  0  0  0  0  0  0  0  0  0
   37.8420   96.7020    6.3940 O   0  0  0  0  0  0  0  0  0  0  0  0
   36.8540   96.1950    5.5040 C   0  0  0  0  0  0  0  0  0  0  0  0
   35.8730   97.3050    5.1390 C   0  0  0  0  0  0  0  0  0  0  0  0
   35.0800   97.6550    6.2780 O   0  0  0  0  0  0  0  0  0  0  0  0
   34.9730   96.8340    4.0030 C   0  0  0  0  0  0  0  0  0  0  0  0
   34.1380   97.9000    3.4660 N   0  0  0  0  0  0  0  0  0  0  0  0
   32.6970   97.9050    3.6440 C   0  0  0  0  0  0  0  0  0  0  0  0
   32.1320   98.8320    2.5730 C   0  0  0  0  0  0  0  0  0  0  0  0
   31.9580   96.6790    3.4880 O   0  0  0  0  0  0  0  0  0  0  0  0
   35.6420   96.0920    2.8350 C   0  0  0  0  0  0  0  0  0  0  0  0
   36.2340   96.9550    1.8430 O   0  0  0  0  0  0  0  0  0  0  0  0
   36.6350   95.1680    3.3280 O   0  0  0  0  0  0  0  0  0  0  0  0
   37.5900   95.6940    4.2590 C   0  0  0  0  0  0  0  0  0  0  0  0
   38.6940   94.6950    4.6470 C   0  0  0  0  0  0  0  0  0  0  0  0
   39.0650   93.9490    3.4880 O   0  0  0  0  0  0  0  0  0  0  0  0
   37.1773   99.8886   11.0686 H   0  0  0  0  0  0  0  0  0  0  0  0
   39.4024   99.0688    9.6320 H   0  0  0  0  0  0  0  0  0  0  0  0
   40.7660   96.9031    9.2290 H   0  0  0  0  0  0  0  0  0  0  0  0
   41.1170   98.4586    7.5958 H   0  0  0  0  0  0  0  0  0  0  0  0
   39.7641   95.3012    7.5812 H   0  0  0  0  0  0  0  0  0  0  0  0
   39.1364   95.7541   10.3003 H   0  0  0  0  0  0  0  0  0  0  0  0
   37.3230   95.0840    7.5738 H   0  0  0  0  0  0  0  0  0  0  0  0
   36.2795   95.3782    5.9653 H   0  0  0  0  0  0  0  0  0  0  0  0
   36.4353   98.1929    4.8144 H   0  0  0  0  0  0  0  0  0  0  0  0
   35.5767   97.4358    7.1059 H   0  0  0  0  0  0  0  0  0  0  0  0
   34.3616   96.0801    4.5205 H   0  0  0  0  0  0  0  0  0  0  0  0
   34.5816   98.6707    2.9462 H   0  0  0  0  0  0  0  0  0  0  0  0
   31.6171   99.6768    3.0538 H   0  0  0  0  0  0  0  0  0  0  0  0
   32.9526   99.2114    1.9463 H   0  0  0  0  0  0  0  0  0  0  0  0
   31.4188   98.2765    1.9463 H   0  0  0  0  0  0  0  0  0  0  0  0
   34.8290   95.5515    2.3281 H   0  0  0  0  0  0  0  0  0  0  0  0
   36.7327   97.6820    2.2934 H   0  0  0  0  0  0  0  0  0  0  0  0
   38.1078   96.5246    3.7571 H   0  0  0  0  0  0  0  0  0  0  0  0
   39.5684   95.2407    5.0314 H   0  0  0  0  0  0  0  0  0  0  0  0
   38.3253   94.0142    5.4284 H   0  0  0  0  0  0  0  0  0  0  0  0
   39.4882   93.0979    3.7649 H   0  0  0  0  0  0  0  0  0  0  0  0
  2  1  1  0
  3  2  2  0
  4  2  1  0
  4  5  2  0
  6  5  1  0
  7  6  1  0
  8  6  1  0
  8  9  1  0
 10  8  1  0
 10 11  1  0
 11  4  1  0
 12 10  1  0
 13 12  1  0
 14 13  1  0
 14 15  1  0
 16 14  1  0
 17 16  1  0
 17 18  1  0
 19 18  1  0
 20 18  2  0
 21 16  1  0
 21 23  1  0
 22 21  1  0
 23 24  1  0
 24 13  1  0
 24 25  1  0
 26 25  1  0
  1 27  1  0
  5 28  1  0
  6 29  1  0
  7 30  1  0
  8 31  1  0
  9 32  1  0
 10 33  1  0
 13 34  1  0
 14 35  1  0
 15 36  1  0
 16 37  1  0
 17 38  1  0
 19 39  1  0
 19 40  1  0
 19 41  1  0
 21 42  1  0
 22 43  1  0
 24 44  1  0
 25 45  1  0
 25 46  1  0
 26 47  1  0
A    1
O35
A    2
C27
A    3
O34
A    4
C19
A    5
C24
A    6
C17
A    7
O25
A    8
C12
A    9
O18
A   10
C13
A   11
O13
A   12
O3
A   13
C1
A   14
C4
A   15
O9
A   16
C3
A   17
N14
A   18
C7
A   19
C8
A   20
O7
A   21
C10
A   22
O15
A   23
O5
A   24
C2
A   25
C6
A   26
O11
M  END
