3E87_G95_A_1
     RDKit          3D

 44 47  0  0  0  0  0  0  0  0999 V2000
   36.4090   -9.5340    5.5740 C   0  0  0  0  0  0  0  0  0  0  0  0
   35.4420  -10.6930    5.6570 C   0  0  0  0  0  0  0  0  0  0  0  0
   35.8400  -12.8920    6.5470 C   0  0  0  0  0  0  0  0  0  0  0  0
   35.8220  -13.7090    7.7110 C   0  0  0  0  0  0  0  0  0  0  0  0
   35.7100  -13.4360    9.0570 C   0  0  0  0  0  0  0  0  0  0  0  0
   36.1840  -17.5200   10.8140 C   0  0  0  0  0  0  0  0  0  0  0  0
   36.2900  -18.8470   11.1590 C   0  0  0  0  0  0  0  0  0  0  0  0
   35.9780  -17.1560    9.5030 C   0  0  0  0  0  0  0  0  0  0  0  0
   35.8830  -15.7720    9.0920 C   0  0  0  0  0  0  0  0  0  0  0  0
   35.7490  -14.6210    9.8440 C   0  0  0  0  0  0  0  0  0  0  0  0
   35.9680  -15.3870    7.4240 S   0  0  0  0  0  0  0  0  0  0  0  0
   35.9380  -13.3890    5.4310 O   0  0  0  0  0  0  0  0  0  0  0  0
   36.2420   -8.9350    4.2300 N   0  0  0  0  0  0  0  0  0  0  0  0
   35.7000  -19.6480    6.8660 C   0  0  0  0  0  0  0  0  0  0  0  0
   35.6900  -18.3150    7.1870 C   0  0  0  0  0  0  0  0  0  0  0  0
   35.8890  -18.1950    8.5880 C   0  0  0  0  0  0  0  0  0  0  0  0
   34.0320  -10.2110    5.7220 C   0  0  0  0  0  0  0  0  0  0  0  0
   35.7440  -11.5420    6.7830 N   0  0  0  0  0  0  0  0  0  0  0  0
   33.1410  -10.6560    4.7720 C   0  0  0  0  0  0  0  0  0  0  0  0
   31.8340  -10.2320    4.8020 C   0  0  0  0  0  0  0  0  0  0  0  0
   31.4190   -9.3630    5.7800 C   0  0  0  0  0  0  0  0  0  0  0  0
   36.2130  -19.8800   10.3200 N   0  0  0  0  0  0  0  0  0  0  0  0
   32.3050   -8.9150    6.7320 C   0  0  0  0  0  0  0  0  0  0  0  0
   33.6120   -9.3400    6.7040 C   0  0  0  0  0  0  0  0  0  0  0  0
   36.0100  -19.4840    9.0650 C   0  0  0  0  0  0  0  0  0  0  0  0
   35.8970  -20.3480    8.0170 N   0  0  0  0  0  0  0  0  0  0  0  0
   36.1777   -8.7910    6.3515 H   0  0  0  0  0  0  0  0  0  0  0  0
   37.4443   -9.8709    5.7309 H   0  0  0  0  0  0  0  0  0  0  0  0
   35.5567  -11.2901    4.7403 H   0  0  0  0  0  0  0  0  0  0  0  0
   35.6032  -12.4234    9.4733 H   0  0  0  0  0  0  0  0  0  0  0  0
   36.2643  -16.7450   11.5905 H   0  0  0  0  0  0  0  0  0  0  0  0
   36.4529  -19.0765   12.2224 H   0  0  0  0  0  0  0  0  0  0  0  0
   35.6794  -14.6205   10.9418 H   0  0  0  0  0  0  0  0  0  0  0  0
   35.9666   -7.9472    4.3262 H   0  0  0  0  0  0  0  0  0  0  0  0
   37.1317   -8.9947    3.7145 H   0  0  0  0  0  0  0  0  0  0  0  0
   35.5720  -20.0747    5.8603 H   0  0  0  0  0  0  0  0  0  0  0  0
   35.5517  -17.4825    6.4814 H   0  0  0  0  0  0  0  0  0  0  0  0
   35.8822  -11.1519    7.7262 H   0  0  0  0  0  0  0  0  0  0  0  0
   33.4753  -11.3516    3.9881 H   0  0  0  0  0  0  0  0  0  0  0  0
   31.1217  -10.5885    4.0434 H   0  0  0  0  0  0  0  0  0  0  0  0
   30.3730   -9.0233    5.8026 H   0  0  0  0  0  0  0  0  0  0  0  0
   31.9685   -8.2183    7.5139 H   0  0  0  0  0  0  0  0  0  0  0  0
   34.3224   -8.9850    7.4651 H   0  0  0  0  0  0  0  0  0  0  0  0
   35.9522  -21.3742    8.0854 H   0  0  0  0  0  0  0  0  0  0  0  0
  1  2  1  0
  1 13  1  0
  2 17  1  0
  2 18  1  0
  3  4  1  0
  3 12  2  0
  3 18  1  0
  4  5  2  0
  4 11  1  0
  5 10  1  0
  6  7  2  0
  6  8  1  0
  7 22  1  0
  8  9  1  0
  8 16  2  0
  9 10  2  0
  9 11  1  0
 14 15  2  0
 14 26  1  0
 15 16  1  0
 16 25  1  0
 17 19  2  0
 17 24  1  0
 19 20  1  0
 20 21  2  0
 21 23  1  0
 22 25  2  0
 23 24  2  0
 25 26  1  0
  1 27  1  0
  1 28  1  0
  2 29  1  0
  5 30  1  0
  6 31  1  0
  7 32  1  0
 10 33  1  0
 13 34  1  0
 13 35  1  0
 14 36  1  0
 15 37  1  0
 18 38  1  0
 19 39  1  0
 20 40  1  0
 21 41  1  0
 23 42  1  0
 24 43  1  0
 26 44  1  0
A    1
C1
A    2
C2
A    3
C3
A    4
C4
A    5
C5
A    6
C9
A    7
C10
A    8
C8
A    9
C7
A   10
C6
A   11
S1
A   12
O1
A   13
N1
A   14
C12
A   15
C13
A   16
C14
A   17
C15
A   18
N2
A   19
C16
A   20
C17
A   21
C18
A   22
N3
A   23
C19
A   24
C20
A   25
C11
A   26
N4
M  END
