3E8D_G98_A_1
     RDKit          3D

 63 66  0  0  0  0  0  0  0  0999 V2000
   30.0240  -23.5210   -6.0190 N   0  0  0  0  0  0  0  0  0  0  0  0
   32.4000  -22.3260   -8.5640 N   0  0  0  0  0  0  0  0  0  0  0  0
   32.2170  -22.7750   -9.8180 C   0  0  0  0  0  0  0  0  0  0  0  0
   31.4190  -22.8940   -7.8340 C   0  0  0  0  0  0  0  0  0  0  0  0
   30.6540  -23.6870   -8.6970 C   0  0  0  0  0  0  0  0  0  0  0  0
   30.6230  -24.3110  -11.1110 C   0  0  0  0  0  0  0  0  0  0  0  0
   29.5490  -23.5040  -11.8000 C   0  0  0  0  0  0  0  0  0  0  0  0
   34.1690  -21.5100  -10.6990 C   0  0  0  0  0  0  0  0  0  0  0  0
   32.9710  -20.7350   -3.7140 C   0  0  0  0  0  0  0  0  0  0  0  0
   34.4930  -20.7830   -3.8210 C   0  0  0  0  0  0  0  0  0  0  0  0
   26.3650  -26.4920   -5.9730 C   0  0  0  0  0  0  0  0  0  0  0  0
   26.0350  -24.9530   -9.0340 C   0  0  0  0  0  0  0  0  0  0  0  0
   25.1890  -24.0750   -9.6990 C   0  0  0  0  0  0  0  0  0  0  0  0
   24.6190  -23.0040   -9.0180 C   0  0  0  0  0  0  0  0  0  0  0  0
   25.7330  -23.6850   -7.0000 C   0  0  0  0  0  0  0  0  0  0  0  0
   32.5850  -21.2980   -2.4540 O   0  0  0  0  0  0  0  0  0  0  0  0
   32.4780  -19.2920   -3.7690 C   0  0  0  0  0  0  0  0  0  0  0  0
   32.3550  -21.5140   -4.8090 C   0  0  0  0  0  0  0  0  0  0  0  0
   31.7600  -22.1090   -5.6440 C   0  0  0  0  0  0  0  0  0  0  0  0
   31.0870  -22.8250   -6.4800 C   0  0  0  0  0  0  0  0  0  0  0  0
   29.2620  -24.2950   -6.8270 C   0  0  0  0  0  0  0  0  0  0  0  0
   28.2070  -24.9660   -6.2530 O   0  0  0  0  0  0  0  0  0  0  0  0
   27.2010  -25.6910   -6.9650 C   0  0  0  0  0  0  0  0  0  0  0  0
   26.3070  -24.7560   -7.6830 C   0  0  0  0  0  0  0  0  0  0  0  0
   24.8870  -22.8050   -7.6680 C   0  0  0  0  0  0  0  0  0  0  0  0
   27.0980  -27.7560   -5.5400 C   0  0  0  0  0  0  0  0  0  0  0  0
   26.5430  -28.2370   -4.2850 N   0  0  0  0  0  0  0  0  0  0  0  0
   29.5690  -24.3930   -8.1840 C   0  0  0  0  0  0  0  0  0  0  0  0
   31.1610  -23.6030   -9.9400 N   0  0  0  0  0  0  0  0  0  0  0  0
   33.0770  -22.3650  -10.8530 C   0  0  0  0  0  0  0  0  0  0  0  0
   34.5690  -20.9240   -9.5440 N   0  0  0  0  0  0  0  0  0  0  0  0
   34.8330  -21.2840  -11.8490 N   0  0  0  0  0  0  0  0  0  0  0  0
   34.0610  -22.0820  -12.7590 O   0  0  0  0  0  0  0  0  0  0  0  0
   32.9570  -22.7640  -12.1360 N   0  0  0  0  0  0  0  0  0  0  0  0
   30.1949  -25.2699  -10.7834 H   0  0  0  0  0  0  0  0  0  0  0  0
   31.4446  -24.4724  -11.8244 H   0  0  0  0  0  0  0  0  0  0  0  0
   28.9098  -23.0237  -11.0445 H   0  0  0  0  0  0  0  0  0  0  0  0
   30.0169  -22.7321  -12.4287 H   0  0  0  0  0  0  0  0  0  0  0  0
   28.9378  -24.1682  -12.4287 H   0  0  0  0  0  0  0  0  0  0  0  0
   34.9312  -20.7968   -2.8122 H   0  0  0  0  0  0  0  0  0  0  0  0
   34.7939  -21.6911   -4.3640 H   0  0  0  0  0  0  0  0  0  0  0  0
   34.8506  -19.8957   -4.3640 H   0  0  0  0  0  0  0  0  0  0  0  0
   26.1639  -25.8711   -5.0876 H   0  0  0  0  0  0  0  0  0  0  0  0
   25.4228  -26.7819   -6.4610 H   0  0  0  0  0  0  0  0  0  0  0  0
   26.4875  -25.7992   -9.5717 H   0  0  0  0  0  0  0  0  0  0  0  0
   24.9692  -24.2266  -10.7661 H   0  0  0  0  0  0  0  0  0  0  0  0
   23.9521  -22.3102   -9.5508 H   0  0  0  0  0  0  0  0  0  0  0  0
   25.9490  -23.5353   -5.9319 H   0  0  0  0  0  0  0  0  0  0  0  0
   32.9602  -20.7508   -1.7192 H   0  0  0  0  0  0  0  0  0  0  0  0
   32.3474  -18.9099   -2.7458 H   0  0  0  0  0  0  0  0  0  0  0  0
   33.2155  -18.6726   -4.3004 H   0  0  0  0  0  0  0  0  0  0  0  0
   31.5157  -19.2533   -4.3004 H   0  0  0  0  0  0  0  0  0  0  0  0
   27.6905  -26.3600   -7.6881 H   0  0  0  0  0  0  0  0  0  0  0  0
   24.4335  -21.9581   -7.1321 H   0  0  0  0  0  0  0  0  0  0  0  0
   26.9804  -28.5301   -6.3127 H   0  0  0  0  0  0  0  0  0  0  0  0
   28.1659  -27.5301   -5.4040 H   0  0  0  0  0  0  0  0  0  0  0  0
   27.0453  -27.8017   -3.4982 H   0  0  0  0  0  0  0  0  0  0  0  0
   25.5445  -27.9895   -4.2339 H   0  0  0  0  0  0  0  0  0  0  0  0
   28.9574  -25.0245   -8.8452 H   0  0  0  0  0  0  0  0  0  0  0  0
   34.2925  -21.3291   -8.6383 H   0  0  0  0  0  0  0  0  0  0  0  0
   35.1495  -20.0736   -9.5721 H   0  0  0  0  0  0  0  0  0  0  0  0
   35.6634  -20.7010  -12.0261 H   0  0  0  0  0  0  0  0  0  0  0  0
   32.2586  -23.3919  -12.5589 H   0  0  0  0  0  0  0  0  0  0  0  0
  1 20  2  0
  1 21  1  0
  2  3  2  0
  2  4  1  0
  3 29  1  0
  3 30  1  0
  4  5  2  0
  4 20  1  0
  5 28  1  0
  5 29  1  0
  6  7  1  0
  6 29  1  0
  8 30  2  0
  8 31  1  0
  8 32  1  0
  9 10  1  0
  9 16  1  0
  9 17  1  0
  9 18  1  0
 11 23  1  0
 11 26  1  0
 12 13  2  0
 12 24  1  0
 13 14  1  0
 14 25  2  0
 15 24  2  0
 15 25  1  0
 18 19  3  0
 19 20  1  0
 21 22  1  0
 21 28  2  0
 22 23  1  0
 23 24  1  0
 26 27  1  0
 30 34  1  0
 32 33  1  0
 33 34  1  0
  6 35  1  0
  6 36  1  0
  7 37  1  0
  7 38  1  0
  7 39  1  0
 10 40  1  0
 10 41  1  0
 10 42  1  0
 11 43  1  0
 11 44  1  0
 12 45  1  0
 13 46  1  0
 14 47  1  0
 15 48  1  0
 16 49  1  0
 17 50  1  0
 17 51  1  0
 17 52  1  0
 23 53  1  0
 25 54  1  0
 26 55  1  0
 26 56  1  0
 27 57  1  0
 27 58  1  0
 28 59  1  0
 31 60  1  0
 31 61  1  0
 32 62  1  0
 34 63  1  0
A    1
N1
A    2
N3
A    3
C4
A    4
C5
A    5
C6
A    6
C7
A    7
C8
A    8
C10
A    9
C13
A   10
C15
A   11
C17
A   12
C20
A   13
C21
A   14
C22
A   15
C24
A   16
O2
A   17
C14
A   18
C12
A   19
C11
A   20
C3
A   21
C1
A   22
O3
A   23
C16
A   24
C19
A   25
C23
A   26
C18
A   27
N7
A   28
C2
A   29
N2
A   30
C9
A   31
N6
A   32
N5
A   33
O1
A   34
N4
M  END
