3E8N_VRA_A_1001
     RDKit          3D

 51 53  0  0  0  0  0  0  0  0999 V2000
   34.3400   28.4550   42.8530 C   0  0  0  0  0  0  0  0  0  0  0  0
   33.9640   27.6190   41.7010 C   0  0  0  0  0  0  0  0  0  0  0  0
   35.0170   26.7800   41.0330 C   0  0  0  0  0  0  0  0  0  0  0  0
   36.3140   26.7470   41.4720 C   0  0  0  0  0  0  0  0  0  0  0  0
   36.6820   27.5860   42.6230 C   0  0  0  0  0  0  0  0  0  0  0  0
   35.7010   28.4170   43.3120 C   0  0  0  0  0  0  0  0  0  0  0  0
   32.5690   27.7130   41.2860 N   0  0  0  0  0  0  0  0  0  0  0  0
   31.9180   26.8200   40.3340 C   0  0  0  0  0  0  0  0  0  0  0  0
   31.1680   27.4140   39.2350 C   0  0  0  0  0  0  0  0  0  0  0  0
   30.5010   26.5550   38.2800 C   0  0  0  0  0  0  0  0  0  0  0  0
   30.5930   25.1100   38.4110 C   0  0  0  0  0  0  0  0  0  0  0  0
   31.3470   24.5320   39.5030 C   0  0  0  0  0  0  0  0  0  0  0  0
   31.9980   25.3660   40.4520 C   0  0  0  0  0  0  0  0  0  0  0  0
   38.7220   27.5710   43.3100 I   0  0  0  0  0  0  0  0  0  0  0  0
   33.4180   29.2410   43.4820 F   0  0  0  0  0  0  0  0  0  0  0  0
   32.7030   24.7620   41.4790 F   0  0  0  0  0  0  0  0  0  0  0  0
   31.4410   23.1710   39.6250 F   0  0  0  0  0  0  0  0  0  0  0  0
   31.0760   28.8420   39.0550 N   0  0  0  0  0  0  0  0  0  0  0  0
   30.1930   29.8390   39.9810 S   0  0  0  0  0  0  0  0  0  0  0  0
   30.6300   31.3320   39.6600 O   0  0  0  0  0  0  0  0  0  0  0  0
   30.4530   29.5450   41.4980 O   0  0  0  0  0  0  0  0  0  0  0  0
   28.4240   29.6110   39.6080 C   0  0  0  0  0  0  0  0  0  0  0  0
   27.7540   28.4420   40.3080 C   0  0  0  0  0  0  0  0  0  0  0  0
   27.4760   29.8540   40.7580 C   0  0  0  0  0  0  0  0  0  0  0  0
   27.9190   29.9540   38.1600 C   0  0  0  0  0  0  0  0  0  0  0  0
   28.1580   31.4640   37.8000 C   0  0  0  0  0  0  0  0  0  0  0  0
   27.6620   31.7600   36.3580 C   0  0  0  0  0  0  0  0  0  0  0  0
   28.5810   32.6570   35.6930 O   0  0  0  0  0  0  0  0  0  0  0  0
   27.4440   32.3130   38.7240 O   0  0  0  0  0  0  0  0  0  0  0  0
   29.7570   27.1530   37.2030 O   0  0  0  0  0  0  0  0  0  0  0  0
   28.5150   26.4590   36.9720 C   0  0  0  0  0  0  0  0  0  0  0  0
   34.7362   26.1711   40.1610 H   0  0  0  0  0  0  0  0  0  0  0  0
   37.0612   26.1096   40.9767 H   0  0  0  0  0  0  0  0  0  0  0  0
   36.0035   29.0153   44.1841 H   0  0  0  0  0  0  0  0  0  0  0  0
   32.0003   28.4673   41.6964 H   0  0  0  0  0  0  0  0  0  0  0  0
   30.0907   24.4574   37.6818 H   0  0  0  0  0  0  0  0  0  0  0  0
   31.6110   29.2600   38.2805 H   0  0  0  0  0  0  0  0  0  0  0  0
   26.9729   27.8652   39.7910 H   0  0  0  0  0  0  0  0  0  0  0  0
   28.1063   27.5232   40.7997 H   0  0  0  0  0  0  0  0  0  0  0  0
   27.8645   30.2087   41.7240 H   0  0  0  0  0  0  0  0  0  0  0  0
   26.5676   30.4580   40.8997 H   0  0  0  0  0  0  0  0  0  0  0  0
   28.4595   29.3259   37.4366 H   0  0  0  0  0  0  0  0  0  0  0  0
   26.8368   29.7610   38.1212 H   0  0  0  0  0  0  0  0  0  0  0  0
   29.2369   31.6682   37.8660 H   0  0  0  0  0  0  0  0  0  0  0  0
   27.6000   30.8179   35.7936 H   0  0  0  0  0  0  0  0  0  0  0  0
   26.6694   32.2315   36.4073 H   0  0  0  0  0  0  0  0  0  0  0  0
   29.0979   33.1615   36.3701 H   0  0  0  0  0  0  0  0  0  0  0  0
   27.6653   32.0499   39.6524 H   0  0  0  0  0  0  0  0  0  0  0  0
   28.0540   26.2014   37.9369 H   0  0  0  0  0  0  0  0  0  0  0  0
   27.8335   27.1070   36.4014 H   0  0  0  0  0  0  0  0  0  0  0  0
   28.7097   25.5389   36.4014 H   0  0  0  0  0  0  0  0  0  0  0  0
  1  6  2  0
  1 15  1  0
  2  1  1  0
  3  2  2  0
  3  4  1  0
  4  5  2  0
  5 14  1  0
  5  6  1  0
  7  2  1  0
  8  7  1  0
  8 13  2  0
  9  8  1  0
 10  9  2  0
 10 11  1  0
 11 12  2  0
 12 17  1  0
 12 13  1  0
 13 16  1  0
 18  9  1  0
 18 19  1  0
 19 21  2  0
 20 19  2  0
 22 19  1  0
 22 23  1  0
 22 24  1  0
 23 24  1  0
 25 22  1  0
 26 25  1  0
 26 29  1  0
 27 26  1  0
 28 27  1  0
 30 10  1  0
 31 30  1  0
  3 32  1  0
  4 33  1  0
  6 34  1  0
  7 35  1  0
 11 36  1  0
 18 37  1  0
 23 38  1  0
 23 39  1  0
 24 40  1  0
 24 41  1  0
 25 42  1  0
 25 43  1  0
 26 44  1  0
 27 45  1  0
 27 46  1  0
 28 47  1  0
 29 48  1  0
 31 49  1  0
 31 50  1  0
 31 51  1  0
A    1
C1
A    2
C2
A    3
C3
A    4
C4
A    5
C5
A    6
C6
A    7
N7
A    8
C8
A    9
C9
A   10
C10
A   11
C11
A   12
C12
A   13
C13
A   14
I14
A   15
F15
A   16
F16
A   17
F17
A   18
N18
A   19
S19
A   20
O20
A   21
O21
A   22
C22
A   23
C23
A   24
C24
A   25
C25
A   26
C26
A   27
C27
A   28
O28
A   29
O29
A   30
O30
A   31
C31
M  END
