3E8R_615_A_486
     RDKit          3D

 60 64  0  0  0  0  0  0  0  0999 V2000
    8.1340    8.2190   28.6130 C   0  0  0  0  0  0  0  0  0  0  0  0
    5.0770    3.3170   31.4650 C   0  0  0  0  0  0  0  0  0  0  0  0
   13.4820    5.7740   30.2850 C   0  0  0  0  0  0  0  0  0  0  0  0
    4.9560    7.3490   24.4140 C   0  0  0  0  0  0  0  0  0  0  0  0
    9.0120    7.4780   27.7950 C   0  0  0  0  0  0  0  0  0  0  0  0
    5.7360   11.6830   24.3030 N   0  0  0  0  0  0  0  0  0  0  0  0
    7.6880   10.5900   23.9850 O   0  0  0  0  0  0  0  0  0  0  0  0
    3.7850    7.6780   24.5340 O   0  0  0  0  0  0  0  0  0  0  0  0
    6.4560   10.6400   23.8480 C   0  0  0  0  0  0  0  0  0  0  0  0
    6.2520    4.0810   31.3460 C   0  0  0  0  0  0  0  0  0  0  0  0
    5.1380    1.9240   31.3310 C   0  0  0  0  0  0  0  0  0  0  0  0
    9.9050    3.6390   30.8550 N   0  0  0  0  0  0  0  0  0  0  0  0
    7.3150    7.6820   24.3630 C   0  0  0  0  0  0  0  0  0  0  0  0
    8.5130    8.4480   29.9020 O   0  0  0  0  0  0  0  0  0  0  0  0
    7.5830    7.8550   25.8490 C   0  0  0  0  0  0  0  0  0  0  0  0
    6.6790    8.5770   26.6570 C   0  0  0  0  0  0  0  0  0  0  0  0
    6.9650    8.7670   28.0320 C   0  0  0  0  0  0  0  0  0  0  0  0
    8.7430    7.2910   26.4290 C   0  0  0  0  0  0  0  0  0  0  0  0
    9.5920    7.9320   30.6490 C   0  0  0  0  0  0  0  0  0  0  0  0
    9.7830    6.4370   30.6740 C   0  0  0  0  0  0  0  0  0  0  0  0
    8.7160    4.2800   30.9370 C   0  0  0  0  0  0  0  0  0  0  0  0
    8.6270    5.6740   30.8560 C   0  0  0  0  0  0  0  0  0  0  0  0
   11.0430    4.3500   30.6770 C   0  0  0  0  0  0  0  0  0  0  0  0
   11.0380    5.7740   30.5760 C   0  0  0  0  0  0  0  0  0  0  0  0
   12.2590    6.4740   30.3830 C   0  0  0  0  0  0  0  0  0  0  0  0
   13.4900    4.3720   30.4020 C   0  0  0  0  0  0  0  0  0  0  0  0
   12.2820    3.6720   30.5950 C   0  0  0  0  0  0  0  0  0  0  0  0
    7.5000    3.4580   31.0980 C   0  0  0  0  0  0  0  0  0  0  0  0
    5.7290    9.6180   23.0260 C   0  0  0  0  0  0  0  0  0  0  0  0
    6.0180    8.2850   23.8760 C   0  0  0  0  0  0  0  0  0  0  0  0
    5.5130    8.2540   22.4920 C   0  0  0  0  0  0  0  0  0  0  0  0
    6.4780   12.6700   25.0080 O   0  0  0  0  0  0  0  0  0  0  0  0
    5.3990    6.1410   24.7730 N   0  0  0  0  0  0  0  0  0  0  0  0
    7.5380    2.0500   30.9830 C   0  0  0  0  0  0  0  0  0  0  0  0
    6.3650    1.2870   31.1050 C   0  0  0  0  0  0  0  0  0  0  0  0
    4.1144    3.8113   31.6624 H   0  0  0  0  0  0  0  0  0  0  0  0
   14.4216    6.3212   30.1184 H   0  0  0  0  0  0  0  0  0  0  0  0
    9.9209    7.0400   28.2332 H   0  0  0  0  0  0  0  0  0  0  0  0
    4.7202   11.7603   24.1512 H   0  0  0  0  0  0  0  0  0  0  0  0
    6.2013    5.1752   31.4467 H   0  0  0  0  0  0  0  0  0  0  0  0
    4.2171    1.3268   31.4037 H   0  0  0  0  0  0  0  0  0  0  0  0
    8.1403    8.1541   23.8097 H   0  0  0  0  0  0  0  0  0  0  0  0
    7.2366    6.5989   24.1877 H   0  0  0  0  0  0  0  0  0  0  0  0
    5.7571    8.9902   26.2219 H   0  0  0  0  0  0  0  0  0  0  0  0
    6.2697    9.3478   28.6559 H   0  0  0  0  0  0  0  0  0  0  0  0
    9.4365    6.7043   25.8087 H   0  0  0  0  0  0  0  0  0  0  0  0
   10.5133    8.3729   30.2407 H   0  0  0  0  0  0  0  0  0  0  0  0
    9.3575    8.1970   31.6905 H   0  0  0  0  0  0  0  0  0  0  0  0
    7.6477    6.1687   30.9356 H   0  0  0  0  0  0  0  0  0  0  0  0
   12.2520    7.5715   30.3092 H   0  0  0  0  0  0  0  0  0  0  0  0
   14.4404    3.8214   30.3428 H   0  0  0  0  0  0  0  0  0  0  0  0
   12.3030    2.5758   30.6837 H   0  0  0  0  0  0  0  0  0  0  0  0
    5.3178   10.4655   22.4581 H   0  0  0  0  0  0  0  0  0  0  0  0
    4.4844    7.9106   22.3076 H   0  0  0  0  0  0  0  0  0  0  0  0
    5.8714    7.7483   21.5833 H   0  0  0  0  0  0  0  0  0  0  0  0
    6.3721   12.5291   25.9822 H   0  0  0  0  0  0  0  0  0  0  0  0
    5.4873    5.9003   25.7706 H   0  0  0  0  0  0  0  0  0  0  0  0
    5.6523    5.4502   24.0522 H   0  0  0  0  0  0  0  0  0  0  0  0
    8.4975    1.5456   30.7957 H   0  0  0  0  0  0  0  0  0  0  0  0
    6.4098    0.1910   31.0232 H   0  0  0  0  0  0  0  0  0  0  0  0
  1  5  2  0
  1 14  1  0
  1 17  1  0
  2 10  2  0
  2 11  1  0
  3 25  2  0
  3 26  1  0
  4  8  2  0
  4 30  1  0
  4 33  1  0
  5 18  1  0
  6  9  1  0
  6 32  1  0
  7  9  2  0
  9 29  1  0
 10 28  1  0
 11 35  2  0
 12 21  1  0
 12 23  2  0
 13 15  1  0
 13 30  1  0
 14 19  1  0
 15 16  1  0
 15 18  2  0
 16 17  2  0
 19 20  1  0
 20 22  1  0
 20 24  2  0
 21 22  2  0
 21 28  1  0
 23 24  1  0
 23 27  1  0
 24 25  1  0
 26 27  2  0
 28 34  2  0
 29 30  1  0
 29 31  1  0
 30 31  1  0
 34 35  1  0
  2 36  1  0
  3 37  1  0
  5 38  1  0
  6 39  1  0
 10 40  1  0
 11 41  1  0
 13 42  1  0
 13 43  1  0
 16 44  1  0
 17 45  1  0
 18 46  1  0
 19 47  1  0
 19 48  1  0
 22 49  1  0
 25 50  1  0
 26 51  1  0
 27 52  1  0
 29 53  1  0
 31 54  1  0
 31 55  1  0
 32 56  1  0
 33 57  1  0
 33 58  1  0
 34 59  1  0
 35 60  1  0
A    1
C7
A    2
C27
A    3
C17
A    4
C1
A    5
C8
A    6
N2
A    7
O2
A    8
O1
A    9
C3
A   10
C28
A   11
C26
A   12
N1
A   13
C2
A   14
O3
A   15
C4
A   16
C5
A   17
C6
A   18
C9
A   19
C10
A   20
C11
A   21
C12
A   22
C13
A   23
C14
A   24
C15
A   25
C16
A   26
C18
A   27
C19
A   28
C20
A   29
C21
A   30
C22
A   31
C23
A   32
O4
A   33
N3
A   34
C24
A   35
C25
M  END
