3E9S_TTT_A_317
     RDKit          3D

 43 45  0  0  0  0  0  0  0  0999 V2000
  -29.9910   21.1070   29.9270 C   0  0  0  0  0  0  0  0  0  0  0  0
  -28.5330   21.4130   29.8040 C   0  0  0  0  0  0  0  0  0  0  0  0
  -33.7440   21.9080   31.0440 C   0  0  0  0  0  0  0  0  0  0  0  0
  -33.7210   24.5430   29.8610 C   0  0  0  0  0  0  0  0  0  0  0  0
  -27.5970   20.2630   29.4840 C   0  0  0  0  0  0  0  0  0  0  0  0
  -34.4760   23.1010   31.6940 C   0  0  0  0  0  0  0  0  0  0  0  0
  -34.4300   24.3800   31.0660 C   0  0  0  0  0  0  0  0  0  0  0  0
  -28.0170   22.7250   29.9800 C   0  0  0  0  0  0  0  0  0  0  0  0
  -33.7870   20.6250   31.6670 C   0  0  0  0  0  0  0  0  0  0  0  0
  -28.1340   18.8500   29.2880 C   0  0  0  0  0  0  0  0  0  0  0  0
  -26.6190   22.9310   29.8520 C   0  0  0  0  0  0  0  0  0  0  0  0
  -34.5130   20.4590   32.8940 C   0  0  0  0  0  0  0  0  0  0  0  0
  -25.7210   21.8600   29.5540 C   0  0  0  0  0  0  0  0  0  0  0  0
  -35.2050   21.5710   33.5120 C   0  0  0  0  0  0  0  0  0  0  0  0
  -30.3230   20.5890   30.9850 O   0  0  0  0  0  0  0  0  0  0  0  0
  -26.2130   20.5340   29.3710 C   0  0  0  0  0  0  0  0  0  0  0  0
  -26.1210   24.1640   30.0160 N   0  0  0  0  0  0  0  0  0  0  0  0
  -30.8560   21.3610   28.9450 N   0  0  0  0  0  0  0  0  0  0  0  0
  -32.2750   21.0260   29.0640 C   0  0  0  0  0  0  0  0  0  0  0  0
  -32.9030   20.7250   27.6910 C   0  0  0  0  0  0  0  0  0  0  0  0
  -33.0030   22.1580   29.7480 C   0  0  0  0  0  0  0  0  0  0  0  0
  -35.1990   22.8790   32.9390 C   0  0  0  0  0  0  0  0  0  0  0  0
  -33.0300   23.4780   29.2200 C   0  0  0  0  0  0  0  0  0  0  0  0
  -33.7005   25.5388   29.3942 H   0  0  0  0  0  0  0  0  0  0  0  0
  -34.9472   25.2372   31.5219 H   0  0  0  0  0  0  0  0  0  0  0  0
  -28.6885   23.5651   30.2111 H   0  0  0  0  0  0  0  0  0  0  0  0
  -33.2677   19.7696   31.2104 H   0  0  0  0  0  0  0  0  0  0  0  0
  -28.3106   18.3854   30.2693 H   0  0  0  0  0  0  0  0  0  0  0  0
  -29.0791   18.8915   28.7266 H   0  0  0  0  0  0  0  0  0  0  0  0
  -27.3999   18.2534   28.7266 H   0  0  0  0  0  0  0  0  0  0  0  0
  -34.5443   19.4695   33.3735 H   0  0  0  0  0  0  0  0  0  0  0  0
  -24.6429   22.0598   29.4652 H   0  0  0  0  0  0  0  0  0  0  0  0
  -35.7519   21.4029   34.4515 H   0  0  0  0  0  0  0  0  0  0  0  0
  -25.5127   19.7176   29.1408 H   0  0  0  0  0  0  0  0  0  0  0  0
  -25.9705   24.5367   30.9643 H   0  0  0  0  0  0  0  0  0  0  0  0
  -25.8887   24.7392   29.1937 H   0  0  0  0  0  0  0  0  0  0  0  0
  -30.5163   21.8048   28.0798 H   0  0  0  0  0  0  0  0  0  0  0  0
  -32.3681   20.1129   29.6703 H   0  0  0  0  0  0  0  0  0  0  0  0
  -33.8866   20.2535   27.8331 H   0  0  0  0  0  0  0  0  0  0  0  0
  -33.0237   21.6631   27.1294 H   0  0  0  0  0  0  0  0  0  0  0  0
  -32.2473   20.0433   27.1294 H   0  0  0  0  0  0  0  0  0  0  0  0
  -35.7322   23.7063   33.4302 H   0  0  0  0  0  0  0  0  0  0  0  0
  -32.4963   23.6831   28.2803 H   0  0  0  0  0  0  0  0  0  0  0  0
  1  2  1  0
  1 15  2  0
  1 18  1  0
  2  5  2  0
  2  8  1  0
  3  6  2  0
  3  9  1  0
  3 21  1  0
  4  7  2  0
  4 23  1  0
  5 10  1  0
  5 16  1  0
  6  7  1  0
  6 22  1  0
  8 11  2  0
  9 12  2  0
 11 13  1  0
 11 17  1  0
 12 14  1  0
 13 16  2  0
 14 22  2  0
 18 19  1  0
 19 20  1  0
 19 21  1  0
 21 23  2  0
  4 24  1  0
  7 25  1  0
  8 26  1  0
  9 27  1  0
 10 28  1  0
 10 29  1  0
 10 30  1  0
 12 31  1  0
 13 32  1  0
 14 33  1  0
 16 34  1  0
 17 35  1  0
 17 36  1  0
 18 37  1  0
 19 38  1  0
 20 39  1  0
 20 40  1  0
 20 41  1  0
 22 42  1  0
 23 43  1  0
A    1
C1
A    2
C3
A    3
C8
A    4
C9
A    5
C10
A    6
C11
A    7
C12
A    8
C13
A    9
C14
A   10
C16
A   11
C19
A   12
C20
A   13
C21
A   14
C22
A   15
O7
A   16
C17
A   17
N01
A   18
N2
A   19
C6
A   20
C01
A   21
C5
A   22
C18
A   23
C4
M  END
