1KFA_GA4_H_300
     RDKit          3D

 48 52  0  0  0  0  0  0  0  0999 V2000
   50.4710   24.0990   -2.4510 C   0  0  0  0  0  0  0  0  0  0  0  0
   49.7780   24.5340   -1.1590 C   0  0  0  0  0  0  0  0  0  0  0  0
   50.6110   25.4610   -0.2280 C   0  0  0  0  0  0  0  0  0  0  0  0
   50.3650   26.7870   -0.6710 O   0  0  0  0  0  0  0  0  0  0  0  0
   52.1830   25.1460   -0.2320 C   0  0  0  0  0  0  0  0  0  0  0  0
   52.6750   25.1090   -1.7180 C   0  0  0  0  0  0  0  0  0  0  0  0
   54.1820   24.9240   -2.0110 C   0  0  0  0  0  0  0  0  0  0  0  0
   54.8220   26.2390   -2.3770 C   0  0  0  0  0  0  0  0  0  0  0  0
   54.4410   27.1230   -3.1510 O   0  0  0  0  0  0  0  0  0  0  0  0
   56.0050   26.4610   -1.7340 O   0  0  0  0  0  0  0  0  0  0  0  0
   54.3020   23.8260   -3.1170 C   0  0  0  0  0  0  0  0  0  0  0  0
   52.7950   23.3900   -3.4380 C   0  0  0  0  0  0  0  0  0  0  0  0
   51.9740   23.8260   -2.2210 C   0  0  0  0  0  0  0  0  0  0  0  0
   52.5880   21.8740   -3.7270 C   0  0  0  0  0  0  0  0  0  0  0  0
   53.8190   21.0730   -4.1700 C   0  0  0  0  0  0  0  0  0  0  0  0
   55.1750   21.7540   -3.8880 C   0  0  0  0  0  0  0  0  0  0  0  0
   55.1280   22.6070   -2.6040 C   0  0  0  0  0  0  0  0  0  0  0  0
   55.0300   24.1350   -4.4640 C   0  0  0  0  0  0  0  0  0  0  0  0
   55.5600   22.7890   -4.9230 C   0  0  0  0  0  0  0  0  0  0  0  0
   56.2500   22.5700   -6.0330 C   0  0  0  0  0  0  0  0  0  0  0  0
   52.9200   26.1000    0.6910 C   0  0  0  0  0  0  0  0  0  0  0  0
   52.3150   23.6510    0.1130 C   0  0  0  0  0  0  0  0  0  0  0  0
   52.4980   23.0350    1.1540 O   0  0  0  0  0  0  0  0  0  0  0  0
   52.1750   22.8920   -1.0690 O   0  0  0  0  0  0  0  0  0  0  0  0
   49.9931   23.1801   -2.8214 H   0  0  0  0  0  0  0  0  0  0  0  0
   50.3756   24.9124   -3.1854 H   0  0  0  0  0  0  0  0  0  0  0  0
   48.8568   25.0691   -1.4328 H   0  0  0  0  0  0  0  0  0  0  0  0
   49.6032   23.6113   -0.5862 H   0  0  0  0  0  0  0  0  0  0  0  0
   50.3006   25.2991    0.8148 H   0  0  0  0  0  0  0  0  0  0  0  0
   50.2547   27.3817    0.1128 H   0  0  0  0  0  0  0  0  0  0  0  0
   52.4568   26.0851   -2.1758 H   0  0  0  0  0  0  0  0  0  0  0  0
   54.7349   24.5859   -1.1222 H   0  0  0  0  0  0  0  0  0  0  0  0
   56.0371   26.4670   -0.7445 H   0  0  0  0  0  0  0  0  0  0  0  0
   52.4801   23.8723   -4.3751 H   0  0  0  0  0  0  0  0  0  0  0  0
   52.2047   21.4104   -2.8061 H   0  0  0  0  0  0  0  0  0  0  0  0
   51.9014   21.8390   -4.5857 H   0  0  0  0  0  0  0  0  0  0  0  0
   53.8058   20.1074   -3.6433 H   0  0  0  0  0  0  0  0  0  0  0  0
   53.7453   20.9746   -5.2631 H   0  0  0  0  0  0  0  0  0  0  0  0
   55.8735   20.9050   -3.8517 H   0  0  0  0  0  0  0  0  0  0  0  0
   56.1345   22.9054   -2.2754 H   0  0  0  0  0  0  0  0  0  0  0  0
   54.7047   22.0980   -1.7255 H   0  0  0  0  0  0  0  0  0  0  0  0
   54.3260   24.5482   -5.2013 H   0  0  0  0  0  0  0  0  0  0  0  0
   55.8283   24.8828   -4.3476 H   0  0  0  0  0  0  0  0  0  0  0  0
   56.4725   23.4033   -6.7157 H   0  0  0  0  0  0  0  0  0  0  0  0
   56.6002   21.5549   -6.2717 H   0  0  0  0  0  0  0  0  0  0  0  0
   52.7125   25.8315    1.7374 H   0  0  0  0  0  0  0  0  0  0  0  0
   54.0015   26.0308    0.5022 H   0  0  0  0  0  0  0  0  0  0  0  0
   52.5800   27.1289    0.5022 H   0  0  0  0  0  0  0  0  0  0  0  0
  1  2  1  0
  1 13  1  0
  2  3  1  0
  3  4  1  0
  3  5  1  0
  5  6  1  0
  5 21  1  0
  5 22  1  0
  6  7  1  0
  6 13  1  0
  7  8  1  0
  7 11  1  0
  8  9  2  0
  8 10  1  0
 11 12  1  0
 11 17  1  0
 11 18  1  0
 12 13  1  0
 12 14  1  0
 13 24  1  0
 14 15  1  0
 15 16  1  0
 16 17  1  0
 16 19  1  0
 18 19  1  0
 19 20  2  3
 22 23  2  0
 22 24  1  0
  1 25  1  0
  1 26  1  0
  2 27  1  0
  2 28  1  0
  3 29  1  0
  4 30  1  0
  6 31  1  0
  7 32  1  0
 10 33  1  0
 12 34  1  0
 14 35  1  0
 14 36  1  0
 15 37  1  0
 15 38  1  0
 16 39  1  0
 17 40  1  0
 17 41  1  0
 18 42  1  0
 18 43  1  0
 20 44  1  0
 20 45  1  0
 21 46  1  0
 21 47  1  0
 21 48  1  0
A    1
C1
A    2
C2
A    3
C3
A    4
O31
A    5
C4
A    6
C5
A    7
C6
A    8
C7
A    9
O71
A   10
O72
A   11
C8
A   12
C9
A   13
C10
A   14
C11
A   15
C12
A   16
C13
A   17
C14
A   18
C15
A   19
C16
A   20
C17
A   21
C18
A   22
C19
A   23
O91
A   24
O92
M  END
