3EBS_N4E_A_1
     RDKit          3D

 26 26  0  0  0  0  0  0  0  0999 V2000
  -25.5610   -1.2640   -9.0960 O   0  0  0  0  0  0  0  0  0  0  0  0
  -25.3390   -2.4580   -8.9930 C   0  0  0  0  0  0  0  0  0  0  0  0
  -26.4120   -3.4820   -9.2250 C   0  0  0  0  0  0  0  0  0  0  0  0
  -24.1510   -2.9700   -8.6670 N   0  0  0  0  0  0  0  0  0  0  0  0
  -23.0150   -2.2710   -8.4010 C   0  0  0  0  0  0  0  0  0  0  0  0
  -21.8860   -3.0150   -8.0710 C   0  0  0  0  0  0  0  0  0  0  0  0
  -20.6930   -2.3670   -7.7800 C   0  0  0  0  0  0  0  0  0  0  0  0
  -20.6130   -0.9770   -7.8260 C   0  0  0  0  0  0  0  0  0  0  0  0
  -21.7440   -0.2240   -8.1550 C   0  0  0  0  0  0  0  0  0  0  0  0
  -22.9460   -0.8740   -8.4410 C   0  0  0  0  0  0  0  0  0  0  0  0
  -19.4140   -0.3760   -7.5320 O   0  0  0  0  0  0  0  0  0  0  0  0
  -18.8210    0.5270   -8.4580 C   0  0  0  0  0  0  0  0  0  0  0  0
  -17.8170   -0.1990   -9.3220 C   0  0  0  0  0  0  0  0  0  0  0  0
  -26.7900   -3.8428   -8.2570 H   0  0  0  0  0  0  0  0  0  0  0  0
  -27.2362   -3.0270   -9.7940 H   0  0  0  0  0  0  0  0  0  0  0  0
  -25.9960   -4.3265   -9.7940 H   0  0  0  0  0  0  0  0  0  0  0  0
  -24.0878   -3.9965   -8.6112 H   0  0  0  0  0  0  0  0  0  0  0  0
  -21.9387   -4.1133   -8.0408 H   0  0  0  0  0  0  0  0  0  0  0  0
  -19.8038   -2.9560   -7.5109 H   0  0  0  0  0  0  0  0  0  0  0  0
  -21.6872    0.8740   -8.1883 H   0  0  0  0  0  0  0  0  0  0  0  0
  -23.8401   -0.2871   -8.6982 H   0  0  0  0  0  0  0  0  0  0  0  0
  -19.6050    0.9597   -9.0969 H   0  0  0  0  0  0  0  0  0  0  0  0
  -18.3069    1.3254   -7.9028 H   0  0  0  0  0  0  0  0  0  0  0  0
  -17.0926   -0.7228   -8.6811 H   0  0  0  0  0  0  0  0  0  0  0  0
  -18.3399   -0.9292   -9.9571 H   0  0  0  0  0  0  0  0  0  0  0  0
  -17.2874    0.5264   -9.9571 H   0  0  0  0  0  0  0  0  0  0  0  0
  1  2  2  0
  2  3  1  0
  2  4  1  0
  4  5  1  0
  5  6  2  0
  5 10  1  0
  6  7  1  0
  7  8  2  0
  8  9  1  0
  8 11  1  0
  9 10  2  0
 11 12  1  0
 12 13  1  0
  3 14  1  0
  3 15  1  0
  3 16  1  0
  4 17  1  0
  6 18  1  0
  7 19  1  0
  9 20  1  0
 10 21  1  0
 12 22  1  0
 12 23  1  0
 13 24  1  0
 13 25  1  0
 13 26  1  0
A    1
O
A    2
C
A    3
CM
A    4
N
A    5
C1
A    6
C6
A    7
C5
A    8
C4
A    9
C3
A   10
C2
A   11
O4
A   12
C12
A   13
C13
M  END
