2QCI_065_B_404
     RDKit          3D

 76 80  0  0  0  0  0  0  0  0999 V2000
   20.8400   27.7190   14.8590 C   0  0  0  0  0  0  0  0  0  0  0  0
   21.6910   28.7780   14.7140 O   0  0  0  0  0  0  0  0  0  0  0  0
   22.8830   28.3380   15.2960 C   0  0  0  0  0  0  0  0  0  0  0  0
   22.7950   27.0160   15.6590 O   0  0  0  0  0  0  0  0  0  0  0  0
   21.4950   26.6740   15.5020 C   0  0  0  0  0  0  0  0  0  0  0  0
   20.8310   25.4920   15.8160 C   0  0  0  0  0  0  0  0  0  0  0  0
   19.4920   25.4100   15.5140 C   0  0  0  0  0  0  0  0  0  0  0  0
   18.8300   26.4640   14.9140 C   0  0  0  0  0  0  0  0  0  0  0  0
   19.4910   27.6260   14.5510 C   0  0  0  0  0  0  0  0  0  0  0  0
   18.5740   23.9820   15.9900 S   0  0  0  0  0  0  0  0  0  0  0  0
   17.4610   23.8250   15.0450 O   0  0  0  0  0  0  0  0  0  0  0  0
   19.5680   22.8740   16.1660 O   0  0  0  0  0  0  0  0  0  0  0  0
   17.9300   24.2880   17.4810 N   0  0  0  0  0  0  0  0  0  0  0  0
   18.8760   24.6140   18.5330 C   0  0  0  0  0  0  0  0  0  0  0  0
   18.5550   23.9310   19.8740 C   0  0  0  0  0  0  0  0  0  0  0  0
   18.6020   22.4090   19.7060 C   0  0  0  0  0  0  0  0  0  0  0  0
   19.5810   24.3970   20.9050 C   0  0  0  0  0  0  0  0  0  0  0  0
   16.6630   24.9780   17.5220 C   0  0  0  0  0  0  0  0  0  0  0  0
   15.5430   24.0880   18.0700 C   0  0  0  0  0  0  0  0  0  0  0  0
   14.3940   24.9240   18.3420 O   0  0  0  0  0  0  0  0  0  0  0  0
   15.1500   22.9820   17.0800 C   0  0  0  0  0  0  0  0  0  0  0  0
   14.2320   22.0960   17.8230 N   0  0  0  0  0  0  0  0  0  0  0  0
   14.5290   20.8540   18.1790 C   0  0  0  0  0  0  0  0  0  0  0  0
   15.6110   20.2990   17.9270 O   0  0  0  0  0  0  0  0  0  0  0  0
   13.5420   20.2390   18.8530 O   0  0  0  0  0  0  0  0  0  0  0  0
   13.7100   18.8430   19.0980 C   0  0  0  0  0  0  0  0  0  0  0  0
   13.0490   18.5810   20.4530 C   0  0  0  0  0  0  0  0  0  0  0  0
   11.6250   18.6180   20.2230 O   0  0  0  0  0  0  0  0  0  0  0  0
   11.4250   18.0190   18.9200 C   0  0  0  0  0  0  0  0  0  0  0  0
   10.4990   18.8570   18.2260 O   0  0  0  0  0  0  0  0  0  0  0  0
   11.1900   19.5520   17.1940 C   0  0  0  0  0  0  0  0  0  0  0  0
   12.4200   18.7000   16.8530 C   0  0  0  0  0  0  0  0  0  0  0  0
   12.7440   18.0470   18.1970 C   0  0  0  0  0  0  0  0  0  0  0  0
   14.4090   23.5000   15.8530 C   0  0  0  0  0  0  0  0  0  0  0  0
   12.6770   21.9440   14.7860 C   0  0  0  0  0  0  0  0  0  0  0  0
   12.3100   20.8880   13.9760 C   0  0  0  0  0  0  0  0  0  0  0  0
   13.2880   20.1540   13.3220 C   0  0  0  0  0  0  0  0  0  0  0  0
   14.6070   20.5540   13.4630 C   0  0  0  0  0  0  0  0  0  0  0  0
   14.9840   21.6270   14.2710 C   0  0  0  0  0  0  0  0  0  0  0  0
   14.0140   22.3400   14.9510 C   0  0  0  0  0  0  0  0  0  0  0  0
   23.7026   28.4585   14.5723 H   0  0  0  0  0  0  0  0  0  0  0  0
   23.0745   28.9372   16.1984 H   0  0  0  0  0  0  0  0  0  0  0  0
   21.3595   24.6516   16.2898 H   0  0  0  0  0  0  0  0  0  0  0  0
   17.7507   26.3782   14.7197 H   0  0  0  0  0  0  0  0  0  0  0  0
   18.9654   28.4446   14.0375 H   0  0  0  0  0  0  0  0  0  0  0  0
   19.8789   24.2970   18.2111 H   0  0  0  0  0  0  0  0  0  0  0  0
   18.8175   25.6999   18.6985 H   0  0  0  0  0  0  0  0  0  0  0  0
   17.5445   24.2022   20.2135 H   0  0  0  0  0  0  0  0  0  0  0  0
   18.6168   21.9310   20.6966 H   0  0  0  0  0  0  0  0  0  0  0  0
   17.7138   22.0738   19.1504 H   0  0  0  0  0  0  0  0  0  0  0  0
   19.5092   22.1293   19.1504 H   0  0  0  0  0  0  0  0  0  0  0  0
   19.1899   24.2194   21.9177 H   0  0  0  0  0  0  0  0  0  0  0  0
   20.5174   23.8359   20.7699 H   0  0  0  0  0  0  0  0  0  0  0  0
   19.7746   25.4714   20.7699 H   0  0  0  0  0  0  0  0  0  0  0  0
   16.7613   25.8632   18.1675 H   0  0  0  0  0  0  0  0  0  0  0  0
   16.3979   25.2635   16.4933 H   0  0  0  0  0  0  0  0  0  0  0  0
   15.9017   23.5950   18.9856 H   0  0  0  0  0  0  0  0  0  0  0  0
   14.2738   25.0114   19.3208 H   0  0  0  0  0  0  0  0  0  0  0  0
   16.0624   22.4894   16.7128 H   0  0  0  0  0  0  0  0  0  0  0  0
   13.3054   22.4649   18.0801 H   0  0  0  0  0  0  0  0  0  0  0  0
   14.7718   18.5805   18.9810 H   0  0  0  0  0  0  0  0  0  0  0  0
   13.3471   17.5946   20.8378 H   0  0  0  0  0  0  0  0  0  0  0  0
   13.3532   19.3311   21.1979 H   0  0  0  0  0  0  0  0  0  0  0  0
   11.0531   16.9860   18.9874 H   0  0  0  0  0  0  0  0  0  0  0  0
   10.5448   19.6613   16.3098 H   0  0  0  0  0  0  0  0  0  0  0  0
   11.4797   20.5631   17.5162 H   0  0  0  0  0  0  0  0  0  0  0  0
   12.1825   17.9445   16.0896 H   0  0  0  0  0  0  0  0  0  0  0  0
   13.2547   19.2790   16.4310 H   0  0  0  0  0  0  0  0  0  0  0  0
   13.2282   17.0786   18.0024 H   0  0  0  0  0  0  0  0  0  0  0  0
   13.5035   24.0355   16.1743 H   0  0  0  0  0  0  0  0  0  0  0  0
   15.0689   24.1807   15.2952 H   0  0  0  0  0  0  0  0  0  0  0  0
   11.8918   22.4965   15.3228 H   0  0  0  0  0  0  0  0  0  0  0  0
   11.2480   20.6304   13.8501 H   0  0  0  0  0  0  0  0  0  0  0  0
   13.0242   19.2795   12.7090 H   0  0  0  0  0  0  0  0  0  0  0  0
   15.3874   20.0041   12.9165 H   0  0  0  0  0  0  0  0  0  0  0  0
   16.0444   21.9035   14.3663 H   0  0  0  0  0  0  0  0  0  0  0  0
  1  9  2  0
  1  2  1  0
  1  5  1  0
  2  3  1  0
  3  4  1  0
  4  5  1  0
  5  6  2  0
  6  7  1  0
  7 10  1  0
  7  8  2  0
  8  9  1  0
 10 13  1  0
 10 11  2  0
 10 12  2  0
 13 14  1  0
 13 18  1  0
 14 15  1  0
 15 16  1  0
 15 17  1  0
 18 19  1  0
 19 20  1  0
 19 21  1  0
 21 34  1  0
 21 22  1  0
 22 23  1  0
 23 24  2  0
 23 25  1  0
 25 26  1  0
 26 27  1  0
 26 33  1  0
 27 28  1  0
 28 29  1  0
 29 30  1  0
 29 33  1  0
 30 31  1  0
 31 32  1  0
 32 33  1  0
 34 40  1  0
 35 40  2  0
 35 36  1  0
 36 37  2  0
 37 38  1  0
 38 39  2  0
 39 40  1  0
  3 41  1  0
  3 42  1  0
  6 43  1  0
  8 44  1  0
  9 45  1  0
 14 46  1  0
 14 47  1  0
 15 48  1  0
 16 49  1  0
 16 50  1  0
 16 51  1  0
 17 52  1  0
 17 53  1  0
 17 54  1  0
 18 55  1  0
 18 56  1  0
 19 57  1  0
 20 58  1  0
 21 59  1  0
 22 60  1  0
 26 61  1  0
 27 62  1  0
 27 63  1  0
 29 64  1  0
 31 65  1  0
 31 66  1  0
 32 67  1  0
 32 68  1  0
 33 69  1  0
 34 70  1  0
 34 71  1  0
 35 72  1  0
 36 73  1  0
 37 74  1  0
 38 75  1  0
 39 76  1  0
A    1
C2
A    2
O39
A    3
C40
A    4
O41
A    5
C3
A    6
C4
A    7
C5
A    8
C6
A    9
C7
A   10
S8
A   11
O9
A   12
O10
A   13
N11
A   14
C12
A   15
C13
A   16
C14
A   17
C15
A   18
C16
A   19
C17
A   20
O18
A   21
C19
A   22
N20
A   23
C21
A   24
O22
A   25
O23
A   26
C24
A   27
C25
A   28
O26
A   29
C27
A   30
O28
A   31
C29
A   32
C30
A   33
C31
A   34
C32
A   35
C33
A   36
C34
A   37
C35
A   38
C36
A   39
C37
A   40
C38
M  END
