3EDZ_550_B_1
     RDKit          3D

 55 58  0  0  0  0  0  0  0  0999 V2000
   51.7730   34.0070   39.2040 O   0  0  0  0  0  0  0  0  0  0  0  0
   51.2360   36.1380   40.2910 O   0  0  0  0  0  0  0  0  0  0  0  0
   48.5930   29.8930   39.9140 O   0  0  0  0  0  0  0  0  0  0  0  0
   47.3450   31.7800   39.4480 O   0  0  0  0  0  0  0  0  0  0  0  0
   50.1150   31.8890   45.6410 O   0  0  0  0  0  0  0  0  0  0  0  0
   49.5440   33.3280   38.7330 C   0  0  0  0  0  0  0  0  0  0  0  0
   49.7410   31.8790   39.2000 C   0  0  0  0  0  0  0  0  0  0  0  0
   49.9430   32.2220   37.7470 C   0  0  0  0  0  0  0  0  0  0  0  0
   48.4180   31.1740   39.5460 C   0  0  0  0  0  0  0  0  0  0  0  0
   50.9500   31.3760   40.0300 C   0  0  0  0  0  0  0  0  0  0  0  0
   50.5720   34.2700   39.2440 C   0  0  0  0  0  0  0  0  0  0  0  0
   50.1300   35.3620   39.8570 N   0  0  0  0  0  0  0  0  0  0  0  0
   47.4310   29.1240   40.2420 C   0  0  0  0  0  0  0  0  0  0  0  0
   50.7310   31.5140   41.5310 C   0  0  0  0  0  0  0  0  0  0  0  0
   51.5580   30.8400   42.4140 C   0  0  0  0  0  0  0  0  0  0  0  0
   51.3120   30.9470   43.7950 C   0  0  0  0  0  0  0  0  0  0  0  0
   50.2810   31.7890   44.2710 C   0  0  0  0  0  0  0  0  0  0  0  0
   49.4690   32.4890   43.3530 C   0  0  0  0  0  0  0  0  0  0  0  0
   49.6810   32.3510   41.9960 C   0  0  0  0  0  0  0  0  0  0  0  0
   51.0760   31.3770   46.5290 C   0  0  0  0  0  0  0  0  0  0  0  0
   51.0210   29.8730   46.7390 C   0  0  0  0  0  0  0  0  0  0  0  0
   52.2480   29.1810   46.8740 C   0  0  0  0  0  0  0  0  0  0  0  0
   52.2490   27.8090   47.0980 C   0  0  0  0  0  0  0  0  0  0  0  0
   51.1260   27.0790   47.1850 N   0  0  0  0  0  0  0  0  0  0  0  0
   49.8260   29.1320   46.8480 C   0  0  0  0  0  0  0  0  0  0  0  0
   49.9320   27.7240   47.0860 C   0  0  0  0  0  0  0  0  0  0  0  0
   48.7560   26.9850   47.2020 C   0  0  0  0  0  0  0  0  0  0  0  0
   47.4870   27.5860   47.0920 C   0  0  0  0  0  0  0  0  0  0  0  0
   47.3930   28.9740   46.8640 C   0  0  0  0  0  0  0  0  0  0  0  0
   48.5550   29.7620   46.7490 C   0  0  0  0  0  0  0  0  0  0  0  0
   53.5830   27.0920   47.2490 C   0  0  0  0  0  0  0  0  0  0  0  0
   51.2595   36.1545   41.2806 H   0  0  0  0  0  0  0  0  0  0  0  0
   48.7479   34.0871   38.7288 H   0  0  0  0  0  0  0  0  0  0  0  0
   49.2207   31.8710   36.9953 H   0  0  0  0  0  0  0  0  0  0  0  0
   50.7629   32.0863   37.0263 H   0  0  0  0  0  0  0  0  0  0  0  0
   51.1208   30.3150   39.7954 H   0  0  0  0  0  0  0  0  0  0  0  0
   51.8178   31.9967   39.7625 H   0  0  0  0  0  0  0  0  0  0  0  0
   49.1393   35.6074   39.9957 H   0  0  0  0  0  0  0  0  0  0  0  0
   47.3315   29.0582   41.3355 H   0  0  0  0  0  0  0  0  0  0  0  0
   46.5386   29.6104   39.8213 H   0  0  0  0  0  0  0  0  0  0  0  0
   47.5299   28.1125   39.8213 H   0  0  0  0  0  0  0  0  0  0  0  0
   52.3943   30.2304   42.0413 H   0  0  0  0  0  0  0  0  0  0  0  0
   51.9239   30.3736   44.5068 H   0  0  0  0  0  0  0  0  0  0  0  0
   48.6660   33.1455   43.7195 H   0  0  0  0  0  0  0  0  0  0  0  0
   49.0409   32.8858   41.2788 H   0  0  0  0  0  0  0  0  0  0  0  0
   52.0720   31.6304   46.1369 H   0  0  0  0  0  0  0  0  0  0  0  0
   50.8627   31.8316   47.5077 H   0  0  0  0  0  0  0  0  0  0  0  0
   53.1996   29.7280   46.8018 H   0  0  0  0  0  0  0  0  0  0  0  0
   48.8208   25.9022   47.3846 H   0  0  0  0  0  0  0  0  0  0  0  0
   46.5757   26.9767   47.1833 H   0  0  0  0  0  0  0  0  0  0  0  0
   46.4034   29.4460   46.7751 H   0  0  0  0  0  0  0  0  0  0  0  0
   48.4804   30.8472   46.5853 H   0  0  0  0  0  0  0  0  0  0  0  0
   53.8137   26.9680   48.3174 H   0  0  0  0  0  0  0  0  0  0  0  0
   53.5245   26.1038   46.7694 H   0  0  0  0  0  0  0  0  0  0  0  0
   54.3749   27.6860   46.7694 H   0  0  0  0  0  0  0  0  0  0  0  0
  1 11  2  0
  2 12  1  0
  3  9  1  0
  3 13  1  0
  4  9  2  0
  5 17  1  0
  5 20  1  0
  6  7  1  0
  6  8  1  0
  6 11  1  0
  7  8  1  0
  7  9  1  0
  7 10  1  0
 10 14  1  0
 11 12  1  0
 14 15  2  0
 14 19  1  0
 15 16  1  0
 16 17  2  0
 17 18  1  0
 18 19  2  0
 20 21  1  0
 21 22  2  0
 21 25  1  0
 22 23  1  0
 23 24  2  0
 23 31  1  0
 24 26  1  0
 25 26  2  0
 25 30  1  0
 26 27  1  0
 27 28  2  0
 28 29  1  0
 29 30  2  0
  2 32  1  0
  6 33  1  0
  8 34  1  0
  8 35  1  0
 10 36  1  0
 10 37  1  0
 12 38  1  0
 13 39  1  0
 13 40  1  0
 13 41  1  0
 15 42  1  0
 16 43  1  0
 18 44  1  0
 19 45  1  0
 20 46  1  0
 20 47  1  0
 22 48  1  0
 27 49  1  0
 28 50  1  0
 29 51  1  0
 30 52  1  0
 31 53  1  0
 31 54  1  0
 31 55  1  0
A    1
O1
A    2
O2
A    3
O3
A    4
O4
A    5
O5
A    6
C1
A    7
C2
A    8
C3
A    9
C4
A   10
C5
A   11
C6
A   12
N1
A   13
C7
A   14
C8
A   15
C9
A   16
C10
A   17
C11
A   18
C12
A   19
C13
A   20
C14
A   21
C15
A   22
C16
A   23
C17
A   24
N2
A   25
C18
A   26
C19
A   27
C20
A   28
C21
A   29
C22
A   30
C23
A   31
C24
M  END
