3EFK_MT4_A_1
     RDKit          3D

 60 64  0  0  0  0  0  0  0  0999 V2000
   64.5820   12.5240  121.0950 N   0  0  0  0  0  0  0  0  0  0  0  0
   65.0080   15.1890  111.0510 N   0  0  0  0  0  0  0  0  0  0  0  0
   64.3200   13.0940  118.8090 C   0  0  0  0  0  0  0  0  0  0  0  0
   62.9650   12.7540  118.8510 C   0  0  0  0  0  0  0  0  0  0  0  0
   60.5950   11.4610  121.3880 C   0  0  0  0  0  0  0  0  0  0  0  0
   61.4230   11.3570  122.5030 C   0  0  0  0  0  0  0  0  0  0  0  0
   62.7750   11.7090  122.3980 C   0  0  0  0  0  0  0  0  0  0  0  0
   61.6580   10.8720  124.8540 C   0  0  0  0  0  0  0  0  0  0  0  0
   62.7350   12.8440  115.4850 C   0  0  0  0  0  0  0  0  0  0  0  0
   63.3380   14.8260  114.2740 C   0  0  0  0  0  0  0  0  0  0  0  0
   62.7460   14.9370  116.6600 C   0  0  0  0  0  0  0  0  0  0  0  0
   64.8910   16.4950  110.7420 C   0  0  0  0  0  0  0  0  0  0  0  0
   64.5090   14.6770  112.1700 C   0  0  0  0  0  0  0  0  0  0  0  0
   64.0480   18.7970  111.3310 C   0  0  0  0  0  0  0  0  0  0  0  0
   66.0660   16.3510  107.4320 C   0  0  0  0  0  0  0  0  0  0  0  0
   68.1850   15.2360  107.1250 C   0  0  0  0  0  0  0  0  0  0  0  0
   67.4970   15.9060  109.3290 C   0  0  0  0  0  0  0  0  0  0  0  0
   60.8560   10.8850  123.6640 O   0  0  0  0  0  0  0  0  0  0  0  0
   59.2830   11.1060  121.5270 O   0  0  0  0  0  0  0  0  0  0  0  0
   58.5190   11.1880  120.3220 C   0  0  0  0  0  0  0  0  0  0  0  0
   61.1050   11.9240  120.1720 C   0  0  0  0  0  0  0  0  0  0  0  0
   62.4480   12.2850  120.0660 C   0  0  0  0  0  0  0  0  0  0  0  0
   63.2860   12.1740  121.1850 C   0  0  0  0  0  0  0  0  0  0  0  0
   65.1030   12.9730  119.9600 C   0  0  0  0  0  0  0  0  0  0  0  0
   62.1320   12.8550  117.7580 O   0  0  0  0  0  0  0  0  0  0  0  0
   62.5410   13.5570  116.6590 C   0  0  0  0  0  0  0  0  0  0  0  0
   63.1350   13.4500  114.3020 C   0  0  0  0  0  0  0  0  0  0  0  0
   62.5240   11.5250  115.5180 F   0  0  0  0  0  0  0  0  0  0  0  0
   63.1590   15.5440  115.4680 C   0  0  0  0  0  0  0  0  0  0  0  0
   63.7970   15.4470  113.0960 C   0  0  0  0  0  0  0  0  0  0  0  0
   63.6630   16.8160  112.8260 C   0  0  0  0  0  0  0  0  0  0  0  0
   63.0700   17.5700  113.5940 O   0  0  0  0  0  0  0  0  0  0  0  0
   64.2080   17.3480  111.6360 N   0  0  0  0  0  0  0  0  0  0  0  0
   65.4000   17.0080  109.6040 N   0  0  0  0  0  0  0  0  0  0  0  0
   66.3070   16.4250  108.8080 C   0  0  0  0  0  0  0  0  0  0  0  0
   67.0020   15.7510  106.5880 C   0  0  0  0  0  0  0  0  0  0  0  0
   69.1000   14.6580  106.3250 F   0  0  0  0  0  0  0  0  0  0  0  0
   68.4350   15.3150  108.4920 C   0  0  0  0  0  0  0  0  0  0  0  0
   64.7689   13.4559  117.8723 H   0  0  0  0  0  0  0  0  0  0  0  0
   63.4352   11.6188  123.2732 H   0  0  0  0  0  0  0  0  0  0  0  0
   61.0030   10.8826  125.7377 H   0  0  0  0  0  0  0  0  0  0  0  0
   62.2783    9.9637  124.8682 H   0  0  0  0  0  0  0  0  0  0  0  0
   62.3074   11.7597  124.8682 H   0  0  0  0  0  0  0  0  0  0  0  0
   62.5876   15.5315  117.5719 H   0  0  0  0  0  0  0  0  0  0  0  0
   64.6612   13.6074  112.3766 H   0  0  0  0  0  0  0  0  0  0  0  0
   63.9853   19.3648  112.2710 H   0  0  0  0  0  0  0  0  0  0  0  0
   64.9130   19.1468  110.7484 H   0  0  0  0  0  0  0  0  0  0  0  0
   63.1275   18.9496  110.7484 H   0  0  0  0  0  0  0  0  0  0  0  0
   65.1371   16.7665  107.0143 H   0  0  0  0  0  0  0  0  0  0  0  0
   67.6915   15.9664  110.4100 H   0  0  0  0  0  0  0  0  0  0  0  0
   57.4535   11.3024  120.5704 H   0  0  0  0  0  0  0  0  0  0  0  0
   58.8536   12.0554  119.7340 H   0  0  0  0  0  0  0  0  0  0  0  0
   58.6619   10.2694  119.7340 H   0  0  0  0  0  0  0  0  0  0  0  0
   60.4450   12.0040  119.2956 H   0  0  0  0  0  0  0  0  0  0  0  0
   66.1660   13.2538  119.9248 H   0  0  0  0  0  0  0  0  0  0  0  0
   63.2901   12.8476  113.3948 H   0  0  0  0  0  0  0  0  0  0  0  0
   63.3511   16.6271  115.4663 H   0  0  0  0  0  0  0  0  0  0  0  0
   65.0591   17.9372  109.3189 H   0  0  0  0  0  0  0  0  0  0  0  0
   66.8097   15.6840  105.5070 H   0  0  0  0  0  0  0  0  0  0  0  0
   69.3703   14.9116  108.9073 H   0  0  0  0  0  0  0  0  0  0  0  0
  1 23  2  0
  1 24  1  0
  2 12  2  0
  2 13  1  0
  3  4  1  0
  3 24  2  0
  4 22  2  0
  4 25  1  0
  5  6  1  0
  5 19  1  0
  5 21  2  0
  6  7  2  0
  6 18  1  0
  7 23  1  0
  8 18  1  0
  9 26  2  0
  9 27  1  0
  9 28  1  0
 10 27  2  0
 10 29  1  0
 10 30  1  0
 11 26  1  0
 11 29  2  0
 12 33  1  0
 12 34  1  0
 13 30  2  0
 14 33  1  0
 15 35  2  0
 15 36  1  0
 16 36  2  0
 16 37  1  0
 16 38  1  0
 17 35  1  0
 17 38  2  0
 19 20  1  0
 21 22  1  0
 22 23  1  0
 25 26  1  0
 30 31  1  0
 31 32  2  0
 31 33  1  0
 34 35  1  0
  3 39  1  0
  7 40  1  0
  8 41  1  0
  8 42  1  0
  8 43  1  0
 11 44  1  0
 13 45  1  0
 14 46  1  0
 14 47  1  0
 14 48  1  0
 15 49  1  0
 17 50  1  0
 20 51  1  0
 20 52  1  0
 20 53  1  0
 21 54  1  0
 24 55  1  0
 27 56  1  0
 29 57  1  0
 34 58  1  0
 36 59  1  0
 38 60  1  0
A    1
N1
A    2
N3
A    3
C4
A    4
C5
A    5
C6
A    6
C7
A    7
C8
A    8
C10
A    9
C13
A   10
C15
A   11
C17
A   12
C20
A   13
C21
A   14
C22
A   15
C24
A   16
C26
A   17
C28
A   18
O2
A   19
O1
A   20
C11
A   21
C9
A   22
C1
A   23
C2
A   24
C3
A   25
O3
A   26
C12
A   27
C14
A   28
F2
A   29
C16
A   30
C18
A   31
C19
A   32
O4
A   33
N2
A   34
N4
A   35
C23
A   36
C25
A   37
F1
A   38
C27
M  END
