3EFT_3BS_A_300
     RDKit          3D

 51 52  0  0  0  0  0  0  0  0999 V2000
   -2.4490    9.4920   12.1110 C   0  0  0  0  0  0  0  0  0  0  0  0
   -1.6850   10.7440   12.5470 C   0  0  0  0  0  0  0  0  0  0  0  0
   -1.7800   10.9200   14.0640 C   0  0  0  0  0  0  0  0  0  0  0  0
   -2.2490   11.9770   11.8380 C   0  0  0  0  0  0  0  0  0  0  0  0
   -0.2710   10.5930   12.1730 N   0  0  0  0  0  0  0  0  0  0  0  0
   -0.1700   10.3440   10.7380 O   0  0  0  0  0  0  0  0  0  0  0  0
    0.3310    9.4710   12.9090 C   0  0  0  0  0  0  0  0  0  0  0  0
    0.1430    9.7060   14.4100 C   0  0  0  0  0  0  0  0  0  0  0  0
    1.8210    9.4060   12.5700 C   0  0  0  0  0  0  0  0  0  0  0  0
   -0.3620    8.1740   12.4870 C   0  0  0  0  0  0  0  0  0  0  0  0
   -1.8550    8.2650   12.8060 C   0  0  0  0  0  0  0  0  0  0  0  0
   -2.5350    7.0530   12.3270 N   0  0  0  0  0  0  0  0  0  0  0  0
   -3.0170    6.1730   13.2000 C   0  0  0  0  0  0  0  0  0  0  0  0
   -2.8450    6.4540   14.8880 S   0  0  0  0  0  0  0  0  0  0  0  0
   -3.6320    5.0760   12.7680 N   0  0  0  0  0  0  0  0  0  0  0  0
   -4.1130    4.1960   13.6420 C   0  0  0  0  0  0  0  0  0  0  0  0
   -5.4070    4.3380   14.1300 C   0  0  0  0  0  0  0  0  0  0  0  0
   -5.9110    3.4200   15.0430 C   0  0  0  0  0  0  0  0  0  0  0  0
   -6.3910    5.6590   13.6000 Cl  0  0  0  0  0  0  0  0  0  0  0  0
   -3.3230    3.1360   14.0680 C   0  0  0  0  0  0  0  0  0  0  0  0
   -3.8260    2.2170   14.9820 C   0  0  0  0  0  0  0  0  0  0  0  0
   -5.1200    2.3590   15.4690 C   0  0  0  0  0  0  0  0  0  0  0  0
   -5.7530    1.2020   16.6190 S   0  0  0  0  0  0  0  0  0  0  0  0
   -7.2520    1.2570   16.6100 O   0  0  0  0  0  0  0  0  0  0  0  0
   -5.2490    1.5340   17.9920 O   0  0  0  0  0  0  0  0  0  0  0  0
   -5.2620   -0.2970   16.2090 N   0  0  0  0  0  0  0  0  0  0  0  0
   -3.5086    9.5937   12.3885 H   0  0  0  0  0  0  0  0  0  0  0  0
   -2.3657    9.3724   11.0207 H   0  0  0  0  0  0  0  0  0  0  0  0
   -1.3144   10.0574   14.5631 H   0  0  0  0  0  0  0  0  0  0  0  0
   -1.2566   11.8412   14.3597 H   0  0  0  0  0  0  0  0  0  0  0  0
   -2.8373   10.9880   14.3597 H   0  0  0  0  0  0  0  0  0  0  0  0
   -2.5841   12.7095   12.5871 H   0  0  0  0  0  0  0  0  0  0  0  0
   -1.4675   12.4276   11.2086 H   0  0  0  0  0  0  0  0  0  0  0  0
   -3.1010   11.6804   11.2086 H   0  0  0  0  0  0  0  0  0  0  0  0
    0.1977    9.4376   10.5854 H   0  0  0  0  0  0  0  0  0  0  0  0
    0.7332    8.9683   14.9734 H   0  0  0  0  0  0  0  0  0  0  0  0
    0.4817   10.7204   14.6676 H   0  0  0  0  0  0  0  0  0  0  0  0
   -0.9210    9.5982   14.6676 H   0  0  0  0  0  0  0  0  0  0  0  0
    2.4079    9.3804   13.5000 H   0  0  0  0  0  0  0  0  0  0  0  0
    2.0242    8.4981   11.9831 H   0  0  0  0  0  0  0  0  0  0  0  0
    2.1025   10.2927   11.9831 H   0  0  0  0  0  0  0  0  0  0  0  0
   -0.2269    8.0213   11.4061 H   0  0  0  0  0  0  0  0  0  0  0  0
    0.0786    7.3283   13.0353 H   0  0  0  0  0  0  0  0  0  0  0  0
   -1.9930    8.3554   13.8936 H   0  0  0  0  0  0  0  0  0  0  0  0
   -2.6381    6.8854   11.3160 H   0  0  0  0  0  0  0  0  0  0  0  0
   -3.7359    4.9077   11.7572 H   0  0  0  0  0  0  0  0  0  0  0  0
   -6.9351    3.5326   15.4285 H   0  0  0  0  0  0  0  0  0  0  0  0
   -2.2991    3.0236   13.6821 H   0  0  0  0  0  0  0  0  0  0  0  0
   -3.2001    1.3778   15.3196 H   0  0  0  0  0  0  0  0  0  0  0  0
   -5.0825   -0.8449   17.0625 H   0  0  0  0  0  0  0  0  0  0  0  0
   -5.9958   -0.7585   15.6527 H   0  0  0  0  0  0  0  0  0  0  0  0
  1  2  1  0
  1 11  1  0
  2  3  1  0
  2  4  1  0
  2  5  1  0
  5  6  1  0
  5  7  1  0
  7  8  1  0
  7  9  1  0
  7 10  1  0
 10 11  1  0
 11 12  1  0
 12 13  1  0
 13 14  2  0
 13 15  1  0
 15 16  1  0
 16 17  2  0
 16 20  1  0
 17 18  1  0
 17 19  1  0
 18 22  2  0
 20 21  2  0
 21 22  1  0
 22 23  1  0
 23 24  2  0
 23 25  2  0
 23 26  1  0
  1 27  1  0
  1 28  1  0
  3 29  1  0
  3 30  1  0
  3 31  1  0
  4 32  1  0
  4 33  1  0
  4 34  1  0
  6 35  1  0
  8 36  1  0
  8 37  1  0
  8 38  1  0
  9 39  1  0
  9 40  1  0
  9 41  1  0
 10 42  1  0
 10 43  1  0
 11 44  1  0
 12 45  1  0
 15 46  1  0
 18 47  1  0
 20 48  1  0
 21 49  1  0
 26 50  1  0
 26 51  1  0
A    1
CAQ
A    2
CAR
A    3
CAS
A    4
CAH
A    5
NAX
A    6
OAY
A    7
CAW
A    8
CAV
A    9
CAZ
A   10
CAU
A   11
CAP
A   12
NAO
A   13
CAN
A   14
SAT
A   15
NAM
A   16
CAL
A   17
CAF
A   18
CAE
A   19
CLAG
A   20
CAK
A   21
CAJ
A   22
CAD
A   23
SAC
A   24
OAI
A   25
OAA
A   26
NAB
M  END
