3EI8_PL5_B_433
     RDKit          3D

 50 50  0  0  0  0  0  0  0  0999 V2000
  -31.9860   55.8520   29.2250 O   0  0  0  0  0  0  0  0  0  0  0  0
  -32.7710   55.8930   27.8660 P   0  0  0  0  0  0  0  0  0  0  0  0
  -33.8720   54.7520   27.8890 O   0  0  0  0  0  0  0  0  0  0  0  0
  -31.8630   55.7220   26.6800 O   0  0  0  0  0  0  0  0  0  0  0  0
  -33.5010   57.3200   27.7970 O   0  0  0  0  0  0  0  0  0  0  0  0
  -32.7930   58.5060   27.3800 C   0  0  0  0  0  0  0  0  0  0  0  0
  -33.7240   59.7200   27.3420 C   0  0  0  0  0  0  0  0  0  0  0  0
  -34.7540   59.7250   26.3880 C   0  0  0  0  0  0  0  0  0  0  0  0
  -35.6060   60.7390   26.2730 N   0  0  0  0  0  0  0  0  0  0  0  0
  -35.5210   61.8000   27.0840 C   0  0  0  0  0  0  0  0  0  0  0  0
  -36.5220   62.9420   26.9220 C   0  0  0  0  0  0  0  0  0  0  0  0
  -34.5250   61.8670   28.0530 C   0  0  0  0  0  0  0  0  0  0  0  0
  -34.4590   62.9540   28.8530 O   0  0  0  0  0  0  0  0  0  0  0  0
  -33.5960   60.8320   28.1860 C   0  0  0  0  0  0  0  0  0  0  0  0
  -32.6210   60.9120   29.2010 C   0  0  0  0  0  0  0  0  0  0  0  0
  -32.1070   62.0920   29.5360 N   0  0  0  0  0  0  0  0  0  0  0  0
  -31.2410   62.3400   30.7040 C   0  0  0  0  0  0  0  0  0  0  0  0
  -31.0660   63.8520   30.8780 C   0  0  0  0  0  0  0  0  0  0  0  0
  -31.6760   64.6110   30.0880 O   0  0  0  0  0  0  0  0  0  0  0  0
  -30.2620   64.2360   31.7650 O   0  0  0  0  0  0  0  0  0  0  0  0
  -29.8880   61.5830   30.6680 C   0  0  0  0  0  0  0  0  0  0  0  0
  -28.8800   62.2220   29.7030 C   0  0  0  0  0  0  0  0  0  0  0  0
  -27.5710   61.4150   29.6670 C   0  0  0  0  0  0  0  0  0  0  0  0
  -27.7490   60.0570   28.9730 C   0  0  0  0  0  0  0  0  0  0  0  0
  -28.3770   60.2980   27.5990 C   0  0  0  0  0  0  0  0  0  0  0  0
  -27.6340   60.7940   26.7250 O   0  0  0  0  0  0  0  0  0  0  0  0
  -29.5910   60.0230   27.4750 O   0  0  0  0  0  0  0  0  0  0  0  0
  -26.4170   59.4320   28.8240 N   0  0  0  0  0  0  0  0  0  0  0  0
  -32.6279   55.8855   29.9780 H   0  0  0  0  0  0  0  0  0  0  0  0
  -34.0917   54.5243   28.8271 H   0  0  0  0  0  0  0  0  0  0  0  0
  -31.9746   58.7032   28.0880 H   0  0  0  0  0  0  0  0  0  0  0  0
  -32.3971   58.3381   26.3676 H   0  0  0  0  0  0  0  0  0  0  0  0
  -34.8594   58.8621   25.7140 H   0  0  0  0  0  0  0  0  0  0  0  0
  -36.8348   63.2989   27.9143 H   0  0  0  0  0  0  0  0  0  0  0  0
  -36.0507   63.7668   26.3675 H   0  0  0  0  0  0  0  0  0  0  0  0
  -37.4015   62.5828   26.3675 H   0  0  0  0  0  0  0  0  0  0  0  0
  -34.4656   62.8455   29.8370 H   0  0  0  0  0  0  0  0  0  0  0  0
  -32.2857   59.9994   29.7154 H   0  0  0  0  0  0  0  0  0  0  0  0
  -31.7448   61.9231   31.5885 H   0  0  0  0  0  0  0  0  0  0  0  0
  -30.4913   64.1265   32.7218 H   0  0  0  0  0  0  0  0  0  0  0  0
  -29.4566   61.5842   31.6799 H   0  0  0  0  0  0  0  0  0  0  0  0
  -30.0872   60.5610   30.3132 H   0  0  0  0  0  0  0  0  0  0  0  0
  -29.3149   62.2489   28.6930 H   0  0  0  0  0  0  0  0  0  0  0  0
  -28.6563   63.2413   30.0509 H   0  0  0  0  0  0  0  0  0  0  0  0
  -26.8115   61.9950   29.1222 H   0  0  0  0  0  0  0  0  0  0  0  0
  -27.2602   61.2268   30.7053 H   0  0  0  0  0  0  0  0  0  0  0  0
  -28.3996   59.3921   29.5601 H   0  0  0  0  0  0  0  0  0  0  0  0
  -30.1543   59.8954   28.2791 H   0  0  0  0  0  0  0  0  0  0  0  0
  -26.0192   59.2453   29.7556 H   0  0  0  0  0  0  0  0  0  0  0  0
  -26.5093   58.5463   28.3063 H   0  0  0  0  0  0  0  0  0  0  0  0
  2  1  1  0
  4  2  2  0
  5  2  1  0
  2  3  1  0
  6  5  1  0
  7  6  1  0
  8  7  2  0
  7 14  1  0
  9  8  1  0
  9 10  2  0
 11 10  1  0
 10 12  1  0
 12 14  2  0
 12 13  1  0
 14 15  1  0
 15 16  2  0
 16 17  1  0
 21 17  1  0
 17 18  1  0
 19 18  2  0
 18 20  1  0
 22 21  1  0
 23 22  1  0
 24 23  1  0
 25 24  1  0
 28 24  1  0
 26 25  2  0
 27 25  1  0
  1 29  1  0
  3 30  1  0
  6 31  1  0
  6 32  1  0
  8 33  1  0
 11 34  1  0
 11 35  1  0
 11 36  1  0
 13 37  1  0
 15 38  1  0
 17 39  1  0
 20 40  1  0
 21 41  1  0
 21 42  1  0
 22 43  1  0
 22 44  1  0
 23 45  1  0
 23 46  1  0
 24 47  1  0
 27 48  1  0
 28 49  1  0
 28 50  1  0
A    1
OAI
A    2
PBB
A    3
OAJ
A    4
OAE
A    5
OAS
A    6
CAP
A    7
CAW
A    8
CAL
A    9
NAR
A   10
CAV
A   11
CAA
A   12
CAX
A   13
OAH
A   14
CAY
A   15
CAK
A   16
NAQ
A   17
CBA
A   18
CAU
A   19
OAG
A   20
OAD
A   21
CAO
A   22
CAM
A   23
CB
A   24
CA
A   25
C
A   26
OXT
A   27
O
A   28
N
M  END
