3EIO_AJH_A_1
     RDKit          3D

 57 59  0  0  0  0  0  0  0  0999 V2000
   47.1420   12.6010   25.7920 C   0  0  0  0  0  0  0  0  0  0  0  0
   48.2620   13.3960   26.0230 C   0  0  0  0  0  0  0  0  0  0  0  0
   49.4480   12.8340   26.4830 C   0  0  0  0  0  0  0  0  0  0  0  0
   50.6800   13.7150   26.7320 C   0  0  0  0  0  0  0  0  0  0  0  0
   51.3530   13.5240   27.7710 O   0  0  0  0  0  0  0  0  0  0  0  0
   50.9230   14.6170   25.9020 O   0  0  0  0  0  0  0  0  0  0  0  0
   49.5030   11.4630   26.7020 C   0  0  0  0  0  0  0  0  0  0  0  0
   48.3860   10.6680   26.4550 C   0  0  0  0  0  0  0  0  0  0  0  0
   47.1800   11.2160   25.9980 C   0  0  0  0  0  0  0  0  0  0  0  0
   46.0970   10.4340   25.9740 C   0  0  0  0  0  0  0  0  0  0  0  0
   46.3140    9.2230   25.9940 O   0  0  0  0  0  0  0  0  0  0  0  0
   44.8490   10.8940   25.8590 N   0  0  0  0  0  0  0  0  0  0  0  0
   44.5380   12.3120   26.0820 C   0  0  0  0  0  0  0  0  0  0  0  0
   44.3550   12.5150   27.5900 C   0  0  0  0  0  0  0  0  0  0  0  0
   43.7150    9.9610   25.7600 C   0  0  0  0  0  0  0  0  0  0  0  0
   43.3280    9.3210   27.0980 C   0  0  0  0  0  0  0  0  0  0  0  0
   43.6260   10.1780   28.3340 C   0  0  0  0  0  0  0  0  0  0  0  0
   43.3280   11.6040   28.1220 N   0  0  0  0  0  0  0  0  0  0  0  0
   42.1270   12.1140   28.4300 C   0  0  0  0  0  0  0  0  0  0  0  0
   41.8570   13.3010   28.2770 O   0  0  0  0  0  0  0  0  0  0  0  0
   41.0720   11.1610   29.0030 C   0  0  0  0  0  0  0  0  0  0  0  0
   39.7140   11.8580   29.1450 C   0  0  0  0  0  0  0  0  0  0  0  0
   38.7830   11.0590   29.9550 N   0  0  0  0  0  0  0  0  0  0  0  0
   39.1140   12.1380   27.7660 C   0  0  0  0  0  0  0  0  0  0  0  0
   37.6740   12.6500   27.8790 C   0  0  0  0  0  0  0  0  0  0  0  0
   37.5060   13.9820   28.2430 C   0  0  0  0  0  0  0  0  0  0  0  0
   36.2430   14.5630   28.3470 C   0  0  0  0  0  0  0  0  0  0  0  0
   36.1480   15.8530   28.7240 F   0  0  0  0  0  0  0  0  0  0  0  0
   35.1200   13.7810   28.0760 C   0  0  0  0  0  0  0  0  0  0  0  0
   33.8770   14.2970   28.0310 F   0  0  0  0  0  0  0  0  0  0  0  0
   35.2830   12.4410   27.7350 C   0  0  0  0  0  0  0  0  0  0  0  0
   36.5480   11.8800   27.6290 C   0  0  0  0  0  0  0  0  0  0  0  0
   36.6430   10.5820   27.2530 F   0  0  0  0  0  0  0  0  0  0  0  0
   46.2105   13.0693   25.4414 H   0  0  0  0  0  0  0  0  0  0  0  0
   48.2079   14.4793   25.8398 H   0  0  0  0  0  0  0  0  0  0  0  0
   50.9348   13.6427   28.6605 H   0  0  0  0  0  0  0  0  0  0  0  0
   50.4317   11.0038   27.0717 H   0  0  0  0  0  0  0  0  0  0  0  0
   48.4524    9.5829   26.6229 H   0  0  0  0  0  0  0  0  0  0  0  0
   45.3646   12.9392   25.7167 H   0  0  0  0  0  0  0  0  0  0  0  0
   43.6240   12.5967   25.5403 H   0  0  0  0  0  0  0  0  0  0  0  0
   45.3101   12.3172   28.0985 H   0  0  0  0  0  0  0  0  0  0  0  0
   44.0320   13.5513   27.7685 H   0  0  0  0  0  0  0  0  0  0  0  0
   42.8447   10.5114   25.3732 H   0  0  0  0  0  0  0  0  0  0  0  0
   44.0259    9.1455   25.0904 H   0  0  0  0  0  0  0  0  0  0  0  0
   42.2478    9.1142   27.0780 H   0  0  0  0  0  0  0  0  0  0  0  0
   43.9433    8.4145   27.1956 H   0  0  0  0  0  0  0  0  0  0  0  0
   43.0148    9.8116   29.1720 H   0  0  0  0  0  0  0  0  0  0  0  0
   44.7018   10.0915   28.5467 H   0  0  0  0  0  0  0  0  0  0  0  0
   40.9638   10.2984   28.3290 H   0  0  0  0  0  0  0  0  0  0  0  0
   41.4021   10.8350   30.0004 H   0  0  0  0  0  0  0  0  0  0  0  0
   39.8778   12.8137   29.6645 H   0  0  0  0  0  0  0  0  0  0  0  0
   38.9716   11.2209   30.9546 H   0  0  0  0  0  0  0  0  0  0  0  0
   37.8149   11.3364   29.7390 H   0  0  0  0  0  0  0  0  0  0  0  0
   39.7254   12.8974   27.2567 H   0  0  0  0  0  0  0  0  0  0  0  0
   39.1046   11.1984   27.1941 H   0  0  0  0  0  0  0  0  0  0  0  0
   38.3950   14.5943   28.4548 H   0  0  0  0  0  0  0  0  0  0  0  0
   34.3963   11.8179   27.5469 H   0  0  0  0  0  0  0  0  0  0  0  0
  1  9  2  0
  1  2  1  0
  2  3  2  0
  3  7  1  0
  3  4  1  0
  6  4  2  0
  4  5  1  0
  8  7  2  0
  9  8  1  0
 10  9  1  0
 12 10  1  0
 10 11  2  0
 15 12  1  0
 12 13  1  0
 13 14  1  0
 14 18  1  0
 15 16  1  0
 16 17  1  0
 18 17  1  0
 18 19  1  0
 20 19  2  0
 19 21  1  0
 21 22  1  0
 24 22  1  0
 22 23  1  0
 24 25  1  0
 32 25  1  0
 25 26  2  0
 26 27  1  0
 29 27  2  0
 27 28  1  0
 31 29  1  0
 30 29  1  0
 32 31  2  0
 33 32  1  0
  1 34  1  0
  2 35  1  0
  5 36  1  0
  7 37  1  0
  8 38  1  0
 13 39  1  0
 13 40  1  0
 14 41  1  0
 14 42  1  0
 15 43  1  0
 15 44  1  0
 16 45  1  0
 16 46  1  0
 17 47  1  0
 17 48  1  0
 21 49  1  0
 21 50  1  0
 22 51  1  0
 23 52  1  0
 23 53  1  0
 24 54  1  0
 24 55  1  0
 26 56  1  0
 31 57  1  0
A    1
CAP
A    2
CAX
A    3
CAO
A    4
CAJ
A    5
OAW
A    6
OBD
A    7
CAY
A    8
CAQ
A    9
CAB
A   10
CAA
A   11
OAN
A   12
NAD
A   13
CAR
A   14
CAS
A   15
CBE
A   16
CBC
A   17
CBF
A   18
NAE
A   19
CAC
A   20
OAU
A   21
CAF
A   22
CAV
A   23
NBG
A   24
CAT
A   25
CAG
A   26
CAM
A   27
CAL
A   28
FBB
A   29
CAK
A   30
FBA
A   31
CAH
A   32
CAI
A   33
FAZ
M  END
