3EJT_HN6_A_1050
     RDKit          3D

 55 57  0  0  0  0  0  0  0  0999 V2000
   31.6620   68.1280    5.5310 O   0  0  0  0  0  0  0  0  0  0  0  0
   31.2180   66.9840    6.2620 C   0  0  0  0  0  0  0  0  0  0  0  0
   31.5400   67.1860    7.7460 C   0  0  0  0  0  0  0  0  0  0  0  0
   30.9670   66.0770    8.5610 N   0  0  0  0  0  0  0  0  0  0  0  0
   31.5310   66.3360    9.9100 C   0  0  0  0  0  0  0  0  0  0  0  0
   32.9870   66.7810    9.6160 C   0  0  0  0  0  0  0  0  0  0  0  0
   33.8760   65.6690    9.8450 O   0  0  0  0  0  0  0  0  0  0  0  0
   33.0060   67.2790    8.1520 C   0  0  0  0  0  0  0  0  0  0  0  0
   33.8650   66.4510    7.3280 O   0  0  0  0  0  0  0  0  0  0  0  0
   29.6980   66.8210    6.0820 C   0  0  0  0  0  0  0  0  0  0  0  0
   29.0960   65.7580    7.0170 C   0  0  0  0  0  0  0  0  0  0  0  0
   29.4700   66.0340    8.4830 C   0  0  0  0  0  0  0  0  0  0  0  0
   28.9000   64.9820    9.4540 C   0  0  0  0  0  0  0  0  0  0  0  0
   27.3750   64.8140    9.4710 C   0  0  0  0  0  0  0  0  0  0  0  0
   26.6520   65.9430   10.1830 C   0  0  0  0  0  0  0  0  0  0  0  0
   26.7780   66.1430   11.5640 C   0  0  0  0  0  0  0  0  0  0  0  0
   26.0880   67.1910   12.1890 C   0  0  0  0  0  0  0  0  0  0  0  0
   25.2410   68.0560   11.4820 C   0  0  0  0  0  0  0  0  0  0  0  0
   24.4990   69.1990   12.1570 C   0  0  0  0  0  0  0  0  0  0  0  0
   24.9130   70.5210   11.5070 C   0  0  0  0  0  0  0  0  0  0  0  0
   24.8300   69.2840   13.6470 C   0  0  0  0  0  0  0  0  0  0  0  0
   22.9930   69.0090   11.9880 C   0  0  0  0  0  0  0  0  0  0  0  0
   25.0610   67.8600    9.9950 C   0  0  0  0  0  0  0  0  0  0  0  0
   25.8210   66.7540    9.4220 C   0  0  0  0  0  0  0  0  0  0  0  0
   31.9374   68.8376    6.1640 H   0  0  0  0  0  0  0  0  0  0  0  0
   31.7268   66.0820    5.8911 H   0  0  0  0  0  0  0  0  0  0  0  0
   31.0945   68.1739    7.9347 H   0  0  0  0  0  0  0  0  0  0  0  0
   30.9726   67.1329   10.4230 H   0  0  0  0  0  0  0  0  0  0  0  0
   31.4770   65.4591   10.5719 H   0  0  0  0  0  0  0  0  0  0  0  0
   33.3289   67.5924   10.2754 H   0  0  0  0  0  0  0  0  0  0  0  0
   33.9869   65.5303   10.8189 H   0  0  0  0  0  0  0  0  0  0  0  0
   33.4123   68.2943    8.0329 H   0  0  0  0  0  0  0  0  0  0  0  0
   34.4424   65.8944    7.9085 H   0  0  0  0  0  0  0  0  0  0  0  0
   29.2141   67.7866    6.2905 H   0  0  0  0  0  0  0  0  0  0  0  0
   29.5212   66.4899    5.0480 H   0  0  0  0  0  0  0  0  0  0  0  0
   28.0006   65.7707    6.9172 H   0  0  0  0  0  0  0  0  0  0  0  0
   29.4988   64.7746    6.7330 H   0  0  0  0  0  0  0  0  0  0  0  0
   29.0275   66.9917    8.7945 H   0  0  0  0  0  0  0  0  0  0  0  0
   29.3394   64.0095    9.1872 H   0  0  0  0  0  0  0  0  0  0  0  0
   29.1619   65.3446   10.4590 H   0  0  0  0  0  0  0  0  0  0  0  0
   27.0173   64.7716    8.4317 H   0  0  0  0  0  0  0  0  0  0  0  0
   27.1564   63.8886   10.0241 H   0  0  0  0  0  0  0  0  0  0  0  0
   27.4196   65.4764   12.1589 H   0  0  0  0  0  0  0  0  0  0  0  0
   26.2155   67.3398   13.2714 H   0  0  0  0  0  0  0  0  0  0  0  0
   25.1439   71.2582   12.2901 H   0  0  0  0  0  0  0  0  0  0  0  0
   25.8035   70.3592   10.8818 H   0  0  0  0  0  0  0  0  0  0  0  0
   24.0893   70.8960   10.8818 H   0  0  0  0  0  0  0  0  0  0  0  0
   23.9303   69.0530   14.2362 H   0  0  0  0  0  0  0  0  0  0  0  0
   25.6223   68.5602   13.8885 H   0  0  0  0  0  0  0  0  0  0  0  0
   25.1755   70.3000   13.8885 H   0  0  0  0  0  0  0  0  0  0  0  0
   22.5176   68.9490   12.9782 H   0  0  0  0  0  0  0  0  0  0  0  0
   22.5760   69.8616   11.4321 H   0  0  0  0  0  0  0  0  0  0  0  0
   22.8008   68.0795   11.4321 H   0  0  0  0  0  0  0  0  0  0  0  0
   24.4057   68.5032    9.3892 H   0  0  0  0  0  0  0  0  0  0  0  0
   25.7319   66.5548    8.3439 H   0  0  0  0  0  0  0  0  0  0  0  0
  1  2  1  0
  2  3  1  0
  2 10  1  0
  3  4  1  0
  3  8  1  0
  4  5  1  0
  4 12  1  0
  5  6  1  0
  6  7  1  0
  6  8  1  0
  8  9  1  0
 10 11  1  0
 11 12  1  0
 12 13  1  0
 13 14  1  0
 14 15  1  0
 15 16  2  0
 15 24  1  0
 16 17  1  0
 17 18  2  0
 18 19  1  0
 18 23  1  0
 19 20  1  0
 19 21  1  0
 19 22  1  0
 23 24  2  0
  1 25  1  0
  2 26  1  0
  3 27  1  0
  5 28  1  0
  5 29  1  0
  6 30  1  0
  7 31  1  0
  8 32  1  0
  9 33  1  0
 10 34  1  0
 10 35  1  0
 11 36  1  0
 11 37  1  0
 12 38  1  0
 13 39  1  0
 13 40  1  0
 14 41  1  0
 14 42  1  0
 16 43  1  0
 17 44  1  0
 20 45  1  0
 20 46  1  0
 20 47  1  0
 21 48  1  0
 21 49  1  0
 21 50  1  0
 22 51  1  0
 22 52  1  0
 22 53  1  0
 23 54  1  0
 24 55  1  0
A    1
O8
A    2
C8
A    3
C8A
A    4
N4
A    5
C3
A    6
C2
A    7
O2
A    8
C1
A    9
O1
A   10
C7
A   11
C6
A   12
C5
A   13
C9
A   14
C10
A   15
C11
A   16
C16
A   17
C15
A   18
C14
A   19
C17
A   20
C20
A   21
C19
A   22
C18
A   23
C13
A   24
C12
M  END
