2GKE_ZDP_A_700
     RDKit          3D

 30 29  0  0  0  0  0  0  0  0999 V2000
   21.9130   18.9110    7.4020 O   0  0  0  0  0  0  0  0  0  0  0  0
   21.8820   17.9440    6.6000 C   0  0  0  0  0  0  0  0  0  0  0  0
   21.7030   18.1320    5.3710 O   0  0  0  0  0  0  0  0  0  0  0  0
   22.0850   16.5610    7.1190 C   0  0  0  0  0  0  0  0  0  0  0  0
   21.6110   15.5910    6.1290 N   0  0  0  0  0  0  0  0  0  0  0  0
   23.5920   16.3610    7.3860 C   0  0  0  0  0  0  0  0  0  0  0  0
   23.9400   14.9720    7.9540 C   0  0  0  0  0  0  0  0  0  0  0  0
   23.5300   14.8230    9.4240 C   0  0  0  0  0  0  0  0  0  0  0  0
   23.9130   13.4690   10.0450 C   0  0  0  0  0  0  0  0  0  0  0  0
   22.8830   12.4380    9.7080 N   0  0  0  0  0  0  0  0  0  0  0  0
   23.9560   13.5630   11.5630 C   0  0  0  0  0  0  0  0  0  0  0  0
   24.1720   12.4980   12.1730 O   0  0  0  0  0  0  0  0  0  0  0  0
   23.7570   14.6740   12.1580 O   0  0  0  0  0  0  0  0  0  0  0  0
   25.2160   12.9430    9.4100 C   0  0  0  0  0  0  0  0  0  0  0  0
   21.9077   18.7450    8.3780 H   0  0  0  0  0  0  0  0  0  0  0  0
   21.5194   16.4124    8.0507 H   0  0  0  0  0  0  0  0  0  0  0  0
   21.2117   14.7740    6.6127 H   0  0  0  0  0  0  0  0  0  0  0  0
   20.8884   16.0277    5.5391 H   0  0  0  0  0  0  0  0  0  0  0  0
   24.1336   16.4944    6.4379 H   0  0  0  0  0  0  0  0  0  0  0  0
   23.8858   17.1018    8.1442 H   0  0  0  0  0  0  0  0  0  0  0  0
   23.4167   14.2068    7.3619 H   0  0  0  0  0  0  0  0  0  0  0  0
   25.0316   14.8494    7.8958 H   0  0  0  0  0  0  0  0  0  0  0  0
   24.0200   15.6201   10.0025 H   0  0  0  0  0  0  0  0  0  0  0  0
   22.4325   14.8898    9.4571 H   0  0  0  0  0  0  0  0  0  0  0  0
   22.4920   12.0466   10.5768 H   0  0  0  0  0  0  0  0  0  0  0  0
   22.1289   12.8731    9.1576 H   0  0  0  0  0  0  0  0  0  0  0  0
   24.1744   12.4863   13.1629 H   0  0  0  0  0  0  0  0  0  0  0  0
   25.9219   12.6581   10.2041 H   0  0  0  0  0  0  0  0  0  0  0  0
   24.9916   12.0650    8.7865 H   0  0  0  0  0  0  0  0  0  0  0  0
   25.6640   13.7307    8.7865 H   0  0  0  0  0  0  0  0  0  0  0  0
  1  2  1  0
  2  3  2  0
  2  4  1  0
  4  5  1  0
  4  6  1  0
  6  7  1  0
  7  8  1  0
  8  9  1  0
  9 10  1  0
  9 11  1  0
  9 14  1  0
 11 12  1  0
 11 13  2  0
  1 15  1  0
  4 16  1  0
  5 17  1  0
  5 18  1  0
  6 19  1  0
  6 20  1  0
  7 21  1  0
  7 22  1  0
  8 23  1  0
  8 24  1  0
 10 25  1  0
 10 26  1  0
 12 27  1  0
 14 28  1  0
 14 29  1  0
 14 30  1  0
A    1
OAE
A    2
CAP
A    3
OAG
A    4
CAS
A    5
NAB
A    6
CAK
A    7
CAJ
A    8
CAM
A    9
CAT
A   10
NAC
A   11
CAQ
A   12
OAH
A   13
OAF
A   14
CAN
M  END
