3EL3_EL3_A_501
     RDKit          3D

 39 41  0  0  0  0  0  0  0  0999 V2000
  -35.5750   -4.9820  -24.0630 C   0  0  0  0  0  0  0  0  0  0  0  0
  -34.2520   -4.7120  -23.3510 C   0  0  0  0  0  0  0  0  0  0  0  0
  -33.6200   -3.6990  -24.3060 C   0  0  0  0  0  0  0  0  0  0  0  0
  -34.7920   -2.7450  -24.5570 C   0  0  0  0  0  0  0  0  0  0  0  0
  -36.0530   -3.5320  -24.1740 C   0  0  0  0  0  0  0  0  0  0  0  0
  -36.5930   -3.0510  -22.8230 C   0  0  0  0  0  0  0  0  0  0  0  0
  -36.8560   -1.5460  -22.8800 C   0  0  0  0  0  0  0  0  0  0  0  0
  -37.8880   -3.7970  -22.4770 C   0  0  0  0  0  0  0  0  0  0  0  0
  -35.5640   -3.2880  -21.7140 C   0  0  0  0  0  0  0  0  0  0  0  0
  -35.7510   -2.6190  -20.3480 C   0  0  0  0  0  0  0  0  0  0  0  0
  -34.4820   -4.1240  -21.9660 C   0  0  0  0  0  0  0  0  0  0  0  0
  -33.3830   -4.6550  -21.0340 C   0  0  0  0  0  0  0  0  0  0  0  0
  -32.4460   -5.3910  -22.0040 C   0  0  0  0  0  0  0  0  0  0  0  0
  -33.3990   -5.9500  -23.0490 C   0  0  0  0  0  0  0  0  0  0  0  0
  -32.6890   -6.4970  -24.2980 C   0  0  0  0  0  0  0  0  0  0  0  0
  -35.4308   -5.4503  -25.0478 H   0  0  0  0  0  0  0  0  0  0  0  0
  -36.2608   -5.6806  -23.5614 H   0  0  0  0  0  0  0  0  0  0  0  0
  -32.7718   -3.1790  -23.8367 H   0  0  0  0  0  0  0  0  0  0  0  0
  -33.2005   -4.1448  -25.2199 H   0  0  0  0  0  0  0  0  0  0  0  0
  -34.6958   -1.8454  -23.9313 H   0  0  0  0  0  0  0  0  0  0  0  0
  -34.8250   -2.4067  -25.6032 H   0  0  0  0  0  0  0  0  0  0  0  0
  -36.8646   -3.4067  -24.9059 H   0  0  0  0  0  0  0  0  0  0  0  0
  -36.9257   -1.1470  -21.8573 H   0  0  0  0  0  0  0  0  0  0  0  0
  -36.0310   -1.0495  -23.4119 H   0  0  0  0  0  0  0  0  0  0  0  0
  -37.8005   -1.3587  -23.4119 H   0  0  0  0  0  0  0  0  0  0  0  0
  -37.9948   -3.8585  -21.3839 H   0  0  0  0  0  0  0  0  0  0  0  0
  -38.7472   -3.2554  -22.8995 H   0  0  0  0  0  0  0  0  0  0  0  0
  -37.8506   -4.8119  -22.8995 H   0  0  0  0  0  0  0  0  0  0  0  0
  -35.5469   -3.3492  -19.5511 H   0  0  0  0  0  0  0  0  0  0  0  0
  -35.0552   -1.7720  -20.2562 H   0  0  0  0  0  0  0  0  0  0  0  0
  -36.7852   -2.2556  -20.2562 H   0  0  0  0  0  0  0  0  0  0  0  0
  -32.8607   -3.8307  -20.5263 H   0  0  0  0  0  0  0  0  0  0  0  0
  -33.7668   -5.2957  -20.2264 H   0  0  0  0  0  0  0  0  0  0  0  0
  -31.7245   -4.6965  -22.4591 H   0  0  0  0  0  0  0  0  0  0  0  0
  -31.8396   -6.1668  -21.5136 H   0  0  0  0  0  0  0  0  0  0  0  0
  -33.9682   -6.8259  -22.7044 H   0  0  0  0  0  0  0  0  0  0  0  0
  -31.8522   -7.1417  -23.9913 H   0  0  0  0  0  0  0  0  0  0  0  0
  -33.4015   -7.0818  -24.8982 H   0  0  0  0  0  0  0  0  0  0  0  0
  -32.3053   -5.6589  -24.8982 H   0  0  0  0  0  0  0  0  0  0  0  0
  1  2  1  0
  1  5  1  0
  2  3  1  0
  2 11  1  0
  2 14  1  0
  3  4  1  0
  4  5  1  0
  5  6  1  0
  6  7  1  0
  6  8  1  0
  6  9  1  0
  9 10  1  0
  9 11  2  0
 11 12  1  0
 12 13  1  0
 13 14  1  0
 14 15  1  0
  1 16  1  0
  1 17  1  0
  3 18  1  0
  3 19  1  0
  4 20  1  0
  4 21  1  0
  5 22  1  0
  7 23  1  0
  7 24  1  0
  7 25  1  0
  8 26  1  0
  8 27  1  0
  8 28  1  0
 10 29  1  0
 10 30  1  0
 10 31  1  0
 12 32  1  0
 12 33  1  0
 13 34  1  0
 13 35  1  0
 14 36  1  0
 15 37  1  0
 15 38  1  0
 15 39  1  0
A    1
CAI
A    2
CAO
A    3
CAH
A    4
CAG
A    5
CAM
A    6
CAN
A    7
CAC
A    8
CAD
A    9
CAJ
A   10
CAA
A   11
CAK
A   12
CAE
A   13
CAF
A   14
CAL
A   15
CAB
M  END
