3EL7_PD3_A_601
     RDKit          3D

 60 64  0  0  0  0  0  0  0  0999 V2000
   22.6960   -8.9030    9.7520 C   0  0  0  0  0  0  0  0  0  0  0  0
   22.6130   -7.7310    9.0170 C   0  0  0  0  0  0  0  0  0  0  0  0
   23.7800   -7.1830    8.5050 C   0  0  0  0  0  0  0  0  0  0  0  0
   24.9450   -7.8060    8.7410 N   0  0  0  0  0  0  0  0  0  0  0  0
   23.8910   -9.4750    9.9530 N   0  0  0  0  0  0  0  0  0  0  0  0
   21.1820  -10.0410   12.4380 C   0  0  0  0  0  0  0  0  0  0  0  0
   21.8820  -11.2720   13.0210 C   0  0  0  0  0  0  0  0  0  0  0  0
   21.6280  -12.3470   11.9630 C   0  0  0  0  0  0  0  0  0  0  0  0
   21.9840  -11.5420   10.7140 C   0  0  0  0  0  0  0  0  0  0  0  0
   21.0690  -10.3370   10.9390 C   0  0  0  0  0  0  0  0  0  0  0  0
   21.4460   -9.1770   10.1190 N   0  0  0  0  0  0  0  0  0  0  0  0
   20.6420   -8.3410    9.7030 N   0  0  0  0  0  0  0  0  0  0  0  0
   24.9830   -8.9210    9.4500 C   0  0  0  0  0  0  0  0  0  0  0  0
   23.7430   -6.0530    7.8040 N   0  0  0  0  0  0  0  0  0  0  0  0
   21.2650   -7.3910    9.0070 C   0  0  0  0  0  0  0  0  0  0  0  0
   20.6350   -6.1460    8.3790 C   0  0  0  0  0  0  0  0  0  0  0  0
   19.4340   -6.5250    7.5090 C   0  0  0  0  0  0  0  0  0  0  0  0
   18.2840   -5.7420    7.5010 C   0  0  0  0  0  0  0  0  0  0  0  0
   19.5090   -7.6680    6.7230 C   0  0  0  0  0  0  0  0  0  0  0  0
   18.4320   -8.0360    5.9250 C   0  0  0  0  0  0  0  0  0  0  0  0
   17.2830   -7.2540    5.9230 C   0  0  0  0  0  0  0  0  0  0  0  0
   17.2030   -6.1110    6.7080 C   0  0  0  0  0  0  0  0  0  0  0  0
   16.0700   -5.4150    6.6320 N   0  0  0  0  0  0  0  0  0  0  0  0
   15.7620   -4.2740    7.2430 C   0  0  0  0  0  0  0  0  0  0  0  0
   16.5390   -3.6750    7.9830 O   0  0  0  0  0  0  0  0  0  0  0  0
   14.5280   -3.8560    6.9740 N   0  0  0  0  0  0  0  0  0  0  0  0
   13.9180   -2.7510    7.4010 C   0  0  0  0  0  0  0  0  0  0  0  0
   14.5650   -1.7560    8.1250 C   0  0  0  0  0  0  0  0  0  0  0  0
   12.6030   -2.5630    6.9970 C   0  0  0  0  0  0  0  0  0  0  0  0
   11.9230   -1.3920    7.3080 C   0  0  0  0  0  0  0  0  0  0  0  0
   12.5730   -0.3970    8.0290 C   0  0  0  0  0  0  0  0  0  0  0  0
   13.8890   -0.5800    8.4300 C   0  0  0  0  0  0  0  0  0  0  0  0
   14.5910    0.5740    9.1510 C   0  0  0  0  0  0  0  0  0  0  0  0
   15.6780    0.1370    9.7750 F   0  0  0  0  0  0  0  0  0  0  0  0
   14.9410    1.4920    8.2590 F   0  0  0  0  0  0  0  0  0  0  0  0
   13.7600    1.1110   10.0360 F   0  0  0  0  0  0  0  0  0  0  0  0
   21.7810   -9.1348   12.6112 H   0  0  0  0  0  0  0  0  0  0  0  0
   20.2020   -9.8581   12.9030 H   0  0  0  0  0  0  0  0  0  0  0  0
   22.9593  -11.0903   13.1491 H   0  0  0  0  0  0  0  0  0  0  0  0
   21.5104  -11.5497   14.0184 H   0  0  0  0  0  0  0  0  0  0  0  0
   22.2867  -13.2182   12.0938 H   0  0  0  0  0  0  0  0  0  0  0  0
   20.6206  -12.7888   11.9699 H   0  0  0  0  0  0  0  0  0  0  0  0
   23.0460  -11.2561   10.6961 H   0  0  0  0  0  0  0  0  0  0  0  0
   21.8484  -12.0675    9.7572 H   0  0  0  0  0  0  0  0  0  0  0  0
   20.0345  -10.5539   10.6344 H   0  0  0  0  0  0  0  0  0  0  0  0
   25.9547   -9.4048    9.6280 H   0  0  0  0  0  0  0  0  0  0  0  0
   23.7133   -5.1457    8.2907 H   0  0  0  0  0  0  0  0  0  0  0  0
   23.7441   -6.0853    6.7745 H   0  0  0  0  0  0  0  0  0  0  0  0
   20.3016   -5.4681    9.1786 H   0  0  0  0  0  0  0  0  0  0  0  0
   21.3867   -5.6512    7.7464 H   0  0  0  0  0  0  0  0  0  0  0  0
   18.2301   -4.8342    8.1198 H   0  0  0  0  0  0  0  0  0  0  0  0
   20.4214   -8.2823    6.7321 H   0  0  0  0  0  0  0  0  0  0  0  0
   18.4886   -8.9393    5.2998 H   0  0  0  0  0  0  0  0  0  0  0  0
   16.4286   -7.5432    5.2935 H   0  0  0  0  0  0  0  0  0  0  0  0
   15.3395   -5.8103    6.0229 H   0  0  0  0  0  0  0  0  0  0  0  0
   13.9727   -4.4649    6.3561 H   0  0  0  0  0  0  0  0  0  0  0  0
   15.6049   -1.8982    8.4543 H   0  0  0  0  0  0  0  0  0  0  0  0
   12.0931   -3.3511    6.4235 H   0  0  0  0  0  0  0  0  0  0  0  0
   10.8801   -1.2536    6.9867 H   0  0  0  0  0  0  0  0  0  0  0  0
   12.0449    0.5343    8.2814 H   0  0  0  0  0  0  0  0  0  0  0  0
  2  1  1  0
  1  5  2  0
  1 11  1  0
  3  2  2  0
 15  2  1  0
 14  3  1  0
  3  4  1  0
  4 13  2  0
 13  5  1  0
 10  6  1  0
  6  7  1  0
  8  7  1  0
  9  8  1  0
  9 10  1  0
 11 10  1  0
 12 11  1  0
 15 12  2  0
 16 15  1  0
 17 16  1  0
 19 17  1  0
 18 17  2  0
 22 18  1  0
 20 19  2  0
 20 21  1  0
 21 22  2  0
 23 22  1  0
 23 24  1  0
 26 24  1  0
 24 25  2  0
 26 27  1  0
 29 27  1  0
 27 28  2  0
 28 32  1  0
 29 30  2  0
 30 31  1  0
 31 32  2  0
 32 33  1  0
 35 33  1  0
 33 34  1  0
 33 36  1  0
  6 37  1  0
  6 38  1  0
  7 39  1  0
  7 40  1  0
  8 41  1  0
  8 42  1  0
  9 43  1  0
  9 44  1  0
 10 45  1  0
 13 46  1  0
 14 47  1  0
 14 48  1  0
 16 49  1  0
 16 50  1  0
 18 51  1  0
 19 52  1  0
 20 53  1  0
 21 54  1  0
 23 55  1  0
 26 56  1  0
 28 57  1  0
 29 58  1  0
 30 59  1  0
 31 60  1  0
A    1
C4
A    2
C5
A    3
C6
A    4
N1
A    5
N3
A    6
CAQ
A    7
CAO
A    8
CAP
A    9
CAR
A   10
CBH
A   11
NBI
A   12
NAV
A   13
C2
A   14
NAA
A   15
CBE
A   16
CAS
A   17
CAZ
A   18
CAM
A   19
CAH
A   20
CAF
A   21
CAI
A   22
CBB
A   23
NAW
A   24
CAY
A   25
OAB
A   26
NAX
A   27
CBC
A   28
CAN
A   29
CAJ
A   30
CAG
A   31
CAK
A   32
CBD
A   33
CBJ
A   34
FAD
A   35
FAE
A   36
FAC
M  END
