3EL8_PD5_A_601
     RDKit          3D

 53 56  0  0  0  0  0  0  0  0999 V2000
    6.2140    8.2230    6.7640 C   0  0  0  0  0  0  0  0  0  0  0  0
    5.5660    7.2160    7.4560 C   0  0  0  0  0  0  0  0  0  0  0  0
    6.3210    6.1690    7.9710 C   0  0  0  0  0  0  0  0  0  0  0  0
    7.6450    6.1770    7.7750 N   0  0  0  0  0  0  0  0  0  0  0  0
    7.5500    8.1660    6.6060 N   0  0  0  0  0  0  0  0  0  0  0  0
    4.5340   11.3850    5.9670 C   0  0  0  0  0  0  0  0  0  0  0  0
    5.5470   10.2950    5.6080 C   0  0  0  0  0  0  0  0  0  0  0  0
    5.4760    9.9560    4.1170 C   0  0  0  0  0  0  0  0  0  0  0  0
    5.2760    9.0850    6.3950 N   0  0  0  0  0  0  0  0  0  0  0  0
    4.1520    8.7370    6.7720 N   0  0  0  0  0  0  0  0  0  0  0  0
    8.2340    7.1580    7.1080 C   0  0  0  0  0  0  0  0  0  0  0  0
    5.7480    5.1820    8.6540 N   0  0  0  0  0  0  0  0  0  0  0  0
    4.2290    7.5870    7.4340 C   0  0  0  0  0  0  0  0  0  0  0  0
    3.1800    6.8750    8.0070 C   0  0  0  0  0  0  0  0  0  0  0  0
    2.2670    7.5370    8.8170 C   0  0  0  0  0  0  0  0  0  0  0  0
    1.1220    6.8810    9.2590 C   0  0  0  0  0  0  0  0  0  0  0  0
    2.9520    5.5450    7.6680 C   0  0  0  0  0  0  0  0  0  0  0  0
    1.8060    4.8880    8.1080 C   0  0  0  0  0  0  0  0  0  0  0  0
    0.8780    5.5610    8.8950 C   0  0  0  0  0  0  0  0  0  0  0  0
   -0.3080    5.0370    9.2080 N   0  0  0  0  0  0  0  0  0  0  0  0
   -0.7220    3.8010    8.9400 C   0  0  0  0  0  0  0  0  0  0  0  0
   -0.0200    2.9710    8.3680 O   0  0  0  0  0  0  0  0  0  0  0  0
   -1.9640    3.5470    9.3470 N   0  0  0  0  0  0  0  0  0  0  0  0
   -2.6380    2.4050    9.2120 C   0  0  0  0  0  0  0  0  0  0  0  0
   -2.1110    1.2750    8.5990 C   0  0  0  0  0  0  0  0  0  0  0  0
   -3.9360    2.3690    9.7040 C   0  0  0  0  0  0  0  0  0  0  0  0
   -4.7120    1.2210    9.5860 C   0  0  0  0  0  0  0  0  0  0  0  0
   -4.1780    0.0970    8.9700 C   0  0  0  0  0  0  0  0  0  0  0  0
   -2.8790    0.1200    8.4760 C   0  0  0  0  0  0  0  0  0  0  0  0
   -2.3200   -1.1450    7.8190 C   0  0  0  0  0  0  0  0  0  0  0  0
   -2.2560   -2.1120    8.7290 F   0  0  0  0  0  0  0  0  0  0  0  0
   -3.1270   -1.5200    6.8320 F   0  0  0  0  0  0  0  0  0  0  0  0
   -1.1040   -0.9320    7.3280 F   0  0  0  0  0  0  0  0  0  0  0  0
    4.4569   11.4679    7.0612 H   0  0  0  0  0  0  0  0  0  0  0  0
    4.8665   12.3466    5.5489 H   0  0  0  0  0  0  0  0  0  0  0  0
    3.5507   11.1238    5.5489 H   0  0  0  0  0  0  0  0  0  0  0  0
    6.5548   10.6712    5.8379 H   0  0  0  0  0  0  0  0  0  0  0  0
    5.2519    8.8861    3.9945 H   0  0  0  0  0  0  0  0  0  0  0  0
    4.6835   10.5533    3.6425 H   0  0  0  0  0  0  0  0  0  0  0  0
    6.4416   10.1851    3.6425 H   0  0  0  0  0  0  0  0  0  0  0  0
    9.3249    7.1304    6.9693 H   0  0  0  0  0  0  0  0  0  0  0  0
    5.7561    5.1960    9.6839 H   0  0  0  0  0  0  0  0  0  0  0  0
    5.2961    4.4037    8.1531 H   0  0  0  0  0  0  0  0  0  0  0  0
    2.4490    8.5816    9.1098 H   0  0  0  0  0  0  0  0  0  0  0  0
    0.4037    7.4110    9.9018 H   0  0  0  0  0  0  0  0  0  0  0  0
    3.6837    5.0077    7.0468 H   0  0  0  0  0  0  0  0  0  0  0  0
    1.6348    3.8368    7.8331 H   0  0  0  0  0  0  0  0  0  0  0  0
   -0.9689    5.6498    9.7066 H   0  0  0  0  0  0  0  0  0  0  0  0
   -2.4585    4.3180    9.8181 H   0  0  0  0  0  0  0  0  0  0  0  0
   -1.0826    1.2928    8.2091 H   0  0  0  0  0  0  0  0  0  0  0  0
   -4.3559    3.2601   10.1935 H   0  0  0  0  0  0  0  0  0  0  0  0
   -5.7399    1.2036    9.9773 H   0  0  0  0  0  0  0  0  0  0  0  0
   -4.7852   -0.8150    8.8726 H   0  0  0  0  0  0  0  0  0  0  0  0
  9  1  1  0
  5  1  2  0
  1  2  1  0
 13  2  1  0
  2  3  2  0
  4  3  1  0
  3 12  1  0
 11  4  2  0
  5 11  1  0
  7  6  1  0
  8  7  1  0
  7  9  1  0
  9 10  1  0
 10 13  2  0
 13 14  1  0
 17 14  1  0
 14 15  2  0
 15 16  1  0
 19 16  2  0
 17 18  2  0
 18 19  1  0
 19 20  1  0
 21 20  1  0
 22 21  2  0
 21 23  1  0
 24 23  1  0
 25 24  2  0
 24 26  1  0
 29 25  1  0
 27 26  2  0
 28 27  1  0
 29 28  2  0
 30 29  1  0
 32 30  1  0
 33 30  1  0
 30 31  1  0
  6 34  1  0
  6 35  1  0
  6 36  1  0
  7 37  1  0
  8 38  1  0
  8 39  1  0
  8 40  1  0
 11 41  1  0
 12 42  1  0
 12 43  1  0
 15 44  1  0
 16 45  1  0
 17 46  1  0
 18 47  1  0
 20 48  1  0
 23 49  1  0
 25 50  1  0
 26 51  1  0
 27 52  1  0
 28 53  1  0
A    1
C4
A    2
C5
A    3
C6
A    4
N1
A    5
N3
A    6
CAA
A    7
CBE
A    8
CAB
A    9
NBF
A   10
NAS
A   11
C2
A   12
NAC
A   13
CBB
A   14
CAZ
A   15
CAO
A   16
CAM
A   17
CAN
A   18
CAL
A   19
CAX
A   20
NAT
A   21
CAV
A   22
OAD
A   23
NAU
A   24
CAY
A   25
CAP
A   26
CAJ
A   27
CAH
A   28
CAK
A   29
CBA
A   30
CBG
A   31
FAF
A   32
FAG
A   33
FAE
M  END
