3ELM_24F_A_400
     RDKit          3D

 64 66  0  0  0  0  0  0  0  0999 V2000
   -7.5790   26.9970   49.8780 C   0  0  0  0  0  0  0  0  0  0  0  0
   -8.0950   26.1190   50.8740 C   0  0  0  0  0  0  0  0  0  0  0  0
   -7.5510   26.1020   52.1930 C   0  0  0  0  0  0  0  0  0  0  0  0
   -6.4640   26.9750   52.5560 C   0  0  0  0  0  0  0  0  0  0  0  0
   -5.9410   27.8600   51.5590 C   0  0  0  0  0  0  0  0  0  0  0  0
   -6.4910   27.8690   50.2350 C   0  0  0  0  0  0  0  0  0  0  0  0
   -8.1090   27.0050   48.5990 O   0  0  0  0  0  0  0  0  0  0  0  0
   -8.0170   28.1520   47.7540 C   0  0  0  0  0  0  0  0  0  0  0  0
   -5.9000   26.9610   53.9320 C   0  0  0  0  0  0  0  0  0  0  0  0
   -5.9740   25.8410   54.7730 C   0  0  0  0  0  0  0  0  0  0  0  0
   -5.3350   26.1260   56.0440 C   0  0  0  0  0  0  0  0  0  0  0  0
   -4.8300   27.4220   56.0690 C   0  0  0  0  0  0  0  0  0  0  0  0
   -5.0920   28.3290   54.6290 S   0  0  0  0  0  0  0  0  0  0  0  0
   -3.9670   28.0830   57.4390 S   0  0  0  0  0  0  0  0  0  0  0  0
   -2.3530   27.8490   57.2420 N   0  0  0  0  0  0  0  0  0  0  0  0
   -4.1350   29.5430   57.4550 O   0  0  0  0  0  0  0  0  0  0  0  0
   -4.3450   27.3800   58.6630 O   0  0  0  0  0  0  0  0  0  0  0  0
   -1.7920   26.4810   57.1910 C   0  0  0  0  0  0  0  0  0  0  0  0
   -1.8480   26.0310   55.7020 C   0  0  0  0  0  0  0  0  0  0  0  0
   -2.0740   24.8350   55.4590 O   0  0  0  0  0  0  0  0  0  0  0  0
   -1.6420   26.9130   54.8550 O   0  0  0  0  0  0  0  0  0  0  0  0
   -0.3560   26.5080   57.7490 C   0  0  0  0  0  0  0  0  0  0  0  0
    0.5420   25.3180   57.3170 C   0  0  0  0  0  0  0  0  0  0  0  0
    1.9640   25.4310   57.8870 C   0  0  0  0  0  0  0  0  0  0  0  0
    1.9080   25.5400   59.3640 N   0  0  0  0  0  0  0  0  0  0  0  0
    1.1010   26.6730   59.8880 C   0  0  0  0  0  0  0  0  0  0  0  0
   -0.3400   26.6740   59.2960 C   0  0  0  0  0  0  0  0  0  0  0  0
   -9.0200   27.9780   46.6140 C   0  0  0  0  0  0  0  0  0  0  0  0
    2.3420   24.5960   60.1860 C   0  0  0  0  0  0  0  0  0  0  0  0
    3.2310   23.6930   59.5330 O   0  0  0  0  0  0  0  0  0  0  0  0
    2.0640   24.4380   61.3780 O   0  0  0  0  0  0  0  0  0  0  0  0
    3.4580   22.3860   60.0790 C   0  0  0  0  0  0  0  0  0  0  0  0
    4.8450   21.9030   59.6360 C   0  0  0  0  0  0  0  0  0  0  0  0
    2.3730   21.4370   59.5600 C   0  0  0  0  0  0  0  0  0  0  0  0
   -8.9259   25.4435   50.6223 H   0  0  0  0  0  0  0  0  0  0  0  0
   -7.9672   25.4131   52.9428 H   0  0  0  0  0  0  0  0  0  0  0  0
   -5.1117   28.5374   51.8107 H   0  0  0  0  0  0  0  0  0  0  0  0
   -6.0751   28.5528   49.4804 H   0  0  0  0  0  0  0  0  0  0  0  0
   -8.2573   29.0591   48.3279 H   0  0  0  0  0  0  0  0  0  0  0  0
   -6.9970   28.2526   47.3546 H   0  0  0  0  0  0  0  0  0  0  0  0
   -6.4481   24.8846   54.5073 H   0  0  0  0  0  0  0  0  0  0  0  0
   -5.2598   25.4120   56.8774 H   0  0  0  0  0  0  0  0  0  0  0  0
   -2.0947   28.3068   56.3562 H   0  0  0  0  0  0  0  0  0  0  0  0
   -2.3584   25.7652   57.8048 H   0  0  0  0  0  0  0  0  0  0  0  0
   -2.1953   24.1931   56.2029 H   0  0  0  0  0  0  0  0  0  0  0  0
    0.0945   27.3976   57.2845 H   0  0  0  0  0  0  0  0  0  0  0  0
    0.0888   24.3826   57.6770 H   0  0  0  0  0  0  0  0  0  0  0  0
    0.6149   25.3294   56.2195 H   0  0  0  0  0  0  0  0  0  0  0  0
    2.5406   24.5365   57.6089 H   0  0  0  0  0  0  0  0  0  0  0  0
    2.4489   26.3286   57.4757 H   0  0  0  0  0  0  0  0  0  0  0  0
    1.0369   26.5890   60.9829 H   0  0  0  0  0  0  0  0  0  0  0  0
    1.5941   27.6112   59.5937 H   0  0  0  0  0  0  0  0  0  0  0  0
   -0.8246   27.6277   59.5522 H   0  0  0  0  0  0  0  0  0  0  0  0
   -0.8759   25.8154   59.7269 H   0  0  0  0  0  0  0  0  0  0  0  0
  -10.0228   27.8040   47.0313 H   0  0  0  0  0  0  0  0  0  0  0  0
   -9.0331   28.8873   45.9951 H   0  0  0  0  0  0  0  0  0  0  0  0
   -8.7260   27.1174   45.9951 H   0  0  0  0  0  0  0  0  0  0  0  0
    3.4169   22.4113   61.1779 H   0  0  0  0  0  0  0  0  0  0  0  0
    5.4593   21.6891   60.5230 H   0  0  0  0  0  0  0  0  0  0  0  0
    4.7397   20.9886   59.0337 H   0  0  0  0  0  0  0  0  0  0  0  0
    5.3305   22.6850   59.0337 H   0  0  0  0  0  0  0  0  0  0  0  0
    1.8489   20.9786   60.4116 H   0  0  0  0  0  0  0  0  0  0  0  0
    1.6542   22.0016   58.9479 H   0  0  0  0  0  0  0  0  0  0  0  0
    2.8368   20.6495   58.9479 H   0  0  0  0  0  0  0  0  0  0  0  0
  6  1  2  0
  7  1  1  0
  1  2  1  0
  2  3  2  0
  4  3  1  0
  5  4  2  0
  4  9  1  0
  6  5  1  0
  8  7  1  0
 28  8  1  0
 13  9  1  0
  9 10  2  0
 10 11  1  0
 12 11  2  0
 13 12  1  0
 12 14  1  0
 15 14  1  0
 16 14  2  0
 14 17  2  0
 18 15  1  0
 19 18  1  0
 22 18  1  0
 21 19  2  0
 19 20  1  0
 23 22  1  0
 22 27  1  0
 24 23  1  0
 24 25  1  0
 25 29  1  0
 25 26  1  0
 26 27  1  0
 30 29  1  0
 29 31  2  0
 30 32  1  0
 33 32  1  0
 32 34  1  0
  2 35  1  0
  3 36  1  0
  5 37  1  0
  6 38  1  0
  8 39  1  0
  8 40  1  0
 10 41  1  0
 11 42  1  0
 15 43  1  0
 18 44  1  0
 20 45  1  0
 22 46  1  0
 23 47  1  0
 23 48  1  0
 24 49  1  0
 24 50  1  0
 26 51  1  0
 26 52  1  0
 27 53  1  0
 27 54  1  0
 28 55  1  0
 28 56  1  0
 28 57  1  0
 32 58  1  0
 33 59  1  0
 33 60  1  0
 33 61  1  0
 34 62  1  0
 34 63  1  0
 34 64  1  0
A    1
C01
A    2
C02
A    3
C03
A    4
C04
A    5
C05
A    6
C06
A    7
O07
A    8
C08
A    9
C09
A   10
C10
A   11
C11
A   12
C12
A   13
S13
A   14
S14
A   15
N15
A   16
O16
A   17
O17
A   18
C18
A   19
C19
A   20
OM0
A   21
O21
A   22
C22
A   23
C23
A   24
C24
A   25
N25
A   26
C26
A   27
C27
A   28
C28
A   29
C29
A   30
O30
A   31
O31
A   32
C32
A   33
C33
A   34
C34
M  END
