3EN5_KS4_A_1
     RDKit          3D

 43 46  0  0  0  0  0  0  0  0999 V2000
    5.3110    9.9510    5.1620 C   0  0  0  0  0  0  0  0  0  0  0  0
    5.1010    9.9370    3.6450 C   0  0  0  0  0  0  0  0  0  0  0  0
    5.7750    8.5680    3.5580 C   0  0  0  0  0  0  0  0  0  0  0  0
    6.3590    8.8330    4.9590 C   0  0  0  0  0  0  0  0  0  0  0  0
    6.1360    7.6280    5.7950 N   0  0  0  0  0  0  0  0  0  0  0  0
    5.0420    7.2640    6.2470 N   0  0  0  0  0  0  0  0  0  0  0  0
    7.1240    6.8010    6.0810 C   0  0  0  0  0  0  0  0  0  0  0  0
    8.4380    6.8120    5.7910 N   0  0  0  0  0  0  0  0  0  0  0  0
    9.2310    5.8390    6.2240 C   0  0  0  0  0  0  0  0  0  0  0  0
    8.7360    4.8460    6.9460 N   0  0  0  0  0  0  0  0  0  0  0  0
    7.4250    4.7820    7.2690 C   0  0  0  0  0  0  0  0  0  0  0  0
    6.9970    3.7630    8.0080 N   0  0  0  0  0  0  0  0  0  0  0  0
    6.5600    5.7870    6.8280 C   0  0  0  0  0  0  0  0  0  0  0  0
    5.1930    6.1230    6.8940 C   0  0  0  0  0  0  0  0  0  0  0  0
    4.1650    5.5070    7.6000 C   0  0  0  0  0  0  0  0  0  0  0  0
    4.2640    5.5710    8.9940 C   0  0  0  0  0  0  0  0  0  0  0  0
    3.0280    4.9360    7.0370 C   0  0  0  0  0  0  0  0  0  0  0  0
    2.0520    4.3990    7.8930 C   0  0  0  0  0  0  0  0  0  0  0  0
    2.1620    4.4380    9.3010 C   0  0  0  0  0  0  0  0  0  0  0  0
    1.2150    3.9070   10.1810 O   0  0  0  0  0  0  0  0  0  0  0  0
   -0.0310    3.4020    9.6350 C   0  0  0  0  0  0  0  0  0  0  0  0
    3.2930    5.0360    9.8550 C   0  0  0  0  0  0  0  0  0  0  0  0
    3.4120    5.0800   11.2390 O   0  0  0  0  0  0  0  0  0  0  0  0
    4.7290    5.2260   11.8130 C   0  0  0  0  0  0  0  0  0  0  0  0
    5.7162   10.8928    5.5604 H   0  0  0  0  0  0  0  0  0  0  0  0
    4.4714    9.8367    5.8635 H   0  0  0  0  0  0  0  0  0  0  0  0
    4.0445    9.9366    3.3388 H   0  0  0  0  0  0  0  0  0  0  0  0
    5.4614   10.7729    3.0274 H   0  0  0  0  0  0  0  0  0  0  0  0
    5.0791    7.7177    3.5056 H   0  0  0  0  0  0  0  0  0  0  0  0
    6.4178    8.2953    2.7080 H   0  0  0  0  0  0  0  0  0  0  0  0
    7.4183    9.0620    5.1471 H   0  0  0  0  0  0  0  0  0  0  0  0
   10.3038    5.8582    5.9817 H   0  0  0  0  0  0  0  0  0  0  0  0
    7.0232    3.8254    9.0358 H   0  0  0  0  0  0  0  0  0  0  0  0
    6.6392    2.9112    7.5527 H   0  0  0  0  0  0  0  0  0  0  0  0
    5.1431    6.0631    9.4356 H   0  0  0  0  0  0  0  0  0  0  0  0
    2.8961    4.9057    5.9454 H   0  0  0  0  0  0  0  0  0  0  0  0
    1.1635    3.9277    7.4476 H   0  0  0  0  0  0  0  0  0  0  0  0
   -0.7075    3.1278   10.4579 H   0  0  0  0  0  0  0  0  0  0  0  0
   -0.5024    4.1801    9.0166 H   0  0  0  0  0  0  0  0  0  0  0  0
    0.1723    2.5153    9.0166 H   0  0  0  0  0  0  0  0  0  0  0  0
    4.6537    5.2176   12.9104 H   0  0  0  0  0  0  0  0  0  0  0  0
    5.3672    4.3931   11.4829 H   0  0  0  0  0  0  0  0  0  0  0  0
    5.1693    6.1785   11.4829 H   0  0  0  0  0  0  0  0  0  0  0  0
  1  2  1  0
  1  4  1  0
  2  3  1  0
  3  4  1  0
  4  5  1  0
  5  6  1  0
  5  7  1  0
  6 14  2  0
  7  8  2  0
  7 13  1  0
  8  9  1  0
  9 10  2  0
 10 11  1  0
 11 12  1  0
 11 13  2  0
 13 14  1  0
 14 15  1  0
 15 16  2  0
 15 17  1  0
 16 22  1  0
 17 18  2  0
 18 19  1  0
 19 20  1  0
 19 22  2  0
 20 21  1  0
 22 23  1  0
 23 24  1  0
  1 25  1  0
  1 26  1  0
  2 27  1  0
  2 28  1  0
  3 29  1  0
  3 30  1  0
  4 31  1  0
  9 32  1  0
 12 33  1  0
 12 34  1  0
 16 35  1  0
 17 36  1  0
 18 37  1  0
 21 38  1  0
 21 39  1  0
 21 40  1  0
 24 41  1  0
 24 42  1  0
 24 43  1  0
A    1
CAI
A    2
CAH
A    3
CAJ
A    4
CAW
A    5
NAX
A    6
NAM
A    7
C4
A    8
N3
A    9
C2
A   10
N1
A   11
C6
A   12
NAC
A   13
C5
A   14
CAT
A   15
CAP
A   16
CAG
A   17
CAD
A   18
CAE
A   19
CAR
A   20
OAN
A   21
CAA
A   22
CAS
A   23
OAO
A   24
CAB
M  END
