1O8B_ABF_A_1269
     RDKit          3D

 25 25  0  0  0  0  0  0  0  0999 V2000
    0.6630   -4.9800    1.2720 C   0  0  0  0  0  0  0  0  0  0  0  0
    0.4110   -6.4130    1.3660 O   0  0  0  0  0  0  0  0  0  0  0  0
    0.4150   -4.4570    2.5050 C   0  0  0  0  0  0  0  0  0  0  0  0
    0.4240   -3.1760    2.7380 O   0  0  0  0  0  0  0  0  0  0  0  0
   -0.4830   -5.2770    3.1150 C   0  0  0  0  0  0  0  0  0  0  0  0
   -0.5770   -5.3040    4.3740 O   0  0  0  0  0  0  0  0  0  0  0  0
   -0.5590   -6.4580    2.4310 C   0  0  0  0  0  0  0  0  0  0  0  0
   -1.8990   -6.9600    1.9000 C   0  0  0  0  0  0  0  0  0  0  0  0
   -1.7400   -8.3360    1.4750 O   0  0  0  0  0  0  0  0  0  0  0  0
   -2.8900   -9.2380    0.8040 P   0  0  0  0  0  0  0  0  0  0  0  0
   -4.1190   -9.2330    1.6790 O   0  0  0  0  0  0  0  0  0  0  0  0
   -3.2350   -8.6880   -0.5730 O   0  0  0  0  0  0  0  0  0  0  0  0
   -2.2090  -10.5880    0.7990 O   0  0  0  0  0  0  0  0  0  0  0  0
    0.0510   -4.4870    0.2720 O   0  0  0  0  0  0  0  0  0  0  0  0
    1.7061   -4.7164    1.0431 H   0  0  0  0  0  0  0  0  0  0  0  0
    1.3624   -4.4512    3.0639 H   0  0  0  0  0  0  0  0  0  0  0  0
    0.4251   -3.0184    3.7154 H   0  0  0  0  0  0  0  0  0  0  0  0
   -1.4505   -4.7610    3.0270 H   0  0  0  0  0  0  0  0  0  0  0  0
    0.2928   -5.0541    4.7753 H   0  0  0  0  0  0  0  0  0  0  0  0
   -0.3608   -7.2096    3.2093 H   0  0  0  0  0  0  0  0  0  0  0  0
   -2.6577   -6.9025    2.6944 H   0  0  0  0  0  0  0  0  0  0  0  0
   -2.2242   -6.3393    1.0521 H   0  0  0  0  0  0  0  0  0  0  0  0
   -3.7584   -7.8536   -0.4734 H   0  0  0  0  0  0  0  0  0  0  0  0
   -2.0590  -10.8854    1.7313 H   0  0  0  0  0  0  0  0  0  0  0  0
   -0.6793   -3.8987    0.5893 H   0  0  0  0  0  0  0  0  0  0  0  0
  1  2  1  0
  1  3  1  0
  1 14  1  0
  2  7  1  0
  3  4  1  0
  3  5  1  0
  5  6  1  0
  5  7  1  0
  7  8  1  0
  8  9  1  0
  9 10  1  0
 10 11  2  0
 10 12  1  0
 10 13  1  0
  1 15  1  0
  3 16  1  0
  4 17  1  0
  5 18  1  0
  6 19  1  0
  7 20  1  0
  8 21  1  0
  8 22  1  0
 12 23  1  0
 13 24  1  0
 14 25  1  0
A    1
C1'
A    2
O1'
A    3
C2'
A    4
O2'
A    5
C3'
A    6
O3'
A    7
C4'
A    8
C5'
A    9
O5'
A   10
P'
A   11
O1X
A   12
O2X
A   13
O3X
A   14
O1
M  END
