3EOC_T2A_A_501
     RDKit          3D

 50 53  0  0  0  0  0  0  0  0999 V2000
    0.0510   91.8050   30.5140 N   0  0  0  0  0  0  0  0  0  0  0  0
    0.6360   91.9280   32.8490 C   0  0  0  0  0  0  0  0  0  0  0  0
    0.4750   91.2270   31.6810 C   0  0  0  0  0  0  0  0  0  0  0  0
    0.6800   89.9050   31.3650 C   0  0  0  0  0  0  0  0  0  0  0  0
   -0.4080   91.1640   28.0970 C   0  0  0  0  0  0  0  0  0  0  0  0
   -1.0430   91.5730   25.4700 C   0  0  0  0  0  0  0  0  0  0  0  0
   -1.6450   91.6780   27.7820 C   0  0  0  0  0  0  0  0  0  0  0  0
   -0.6700   96.9130   28.5480 C   0  0  0  0  0  0  0  0  0  0  0  0
   -1.5440   97.9240   28.8830 C   0  0  0  0  0  0  0  0  0  0  0  0
   -2.0090   98.0210   30.1790 C   0  0  0  0  0  0  0  0  0  0  0  0
   -0.2530   93.2240   30.5070 N   0  0  0  0  0  0  0  0  0  0  0  0
   -0.0710   93.8260   31.6920 C   0  0  0  0  0  0  0  0  0  0  0  0
    0.3520   93.2350   32.8200 N   0  0  0  0  0  0  0  0  0  0  0  0
    0.3580   89.7700   30.0290 N   0  0  0  0  0  0  0  0  0  0  0  0
   -0.0260   90.9350   29.5040 C   0  0  0  0  0  0  0  0  0  0  0  0
    0.5120   90.8520   27.1190 C   0  0  0  0  0  0  0  0  0  0  0  0
    0.1940   91.0590   25.7960 C   0  0  0  0  0  0  0  0  0  0  0  0
   -1.9580   91.8800   26.4550 C   0  0  0  0  0  0  0  0  0  0  0  0
    1.1310   88.7590   32.1470 C   0  0  0  0  0  0  0  0  0  0  0  0
   -0.3290   95.2020   31.8210 N   0  0  0  0  0  0  0  0  0  0  0  0
   -0.7180   96.0940   30.8040 C   0  0  0  0  0  0  0  0  0  0  0  0
   -0.2560   96.0090   29.5070 C   0  0  0  0  0  0  0  0  0  0  0  0
   -1.5920   97.1090   31.1270 C   0  0  0  0  0  0  0  0  0  0  0  0
   -2.8960   99.0400   30.5040 O   0  0  0  0  0  0  0  0  0  0  0  0
   -2.7070   99.3690   31.8750 C   0  0  0  0  0  0  0  0  0  0  0  0
   -1.9560   98.8260   27.9150 O   0  0  0  0  0  0  0  0  0  0  0  0
   -1.0530   99.9230   27.9700 C   0  0  0  0  0  0  0  0  0  0  0  0
   -0.2110   96.8350   27.2440 O   0  0  0  0  0  0  0  0  0  0  0  0
    0.2610   95.5090   27.0460 C   0  0  0  0  0  0  0  0  0  0  0  0
    0.9836   91.4367   33.7698 H   0  0  0  0  0  0  0  0  0  0  0  0
   -1.3026   91.7398   24.4142 H   0  0  0  0  0  0  0  0  0  0  0  0
   -2.3692   91.9226   28.5730 H   0  0  0  0  0  0  0  0  0  0  0  0
    1.4942   90.4402   27.3942 H   0  0  0  0  0  0  0  0  0  0  0  0
    0.9201   90.8166   25.0061 H   0  0  0  0  0  0  0  0  0  0  0  0
   -2.9420   92.2879   26.1804 H   0  0  0  0  0  0  0  0  0  0  0  0
    1.0408   88.9883   33.2191 H   0  0  0  0  0  0  0  0  0  0  0  0
    0.5104   87.8834   31.9058 H   0  0  0  0  0  0  0  0  0  0  0  0
    2.1819   88.5412   31.9058 H   0  0  0  0  0  0  0  0  0  0  0  0
   -0.2214   95.6016   32.7642 H   0  0  0  0  0  0  0  0  0  0  0  0
    0.4506   95.2117   29.2331 H   0  0  0  0  0  0  0  0  0  0  0  0
   -1.9639   97.1939   32.1587 H   0  0  0  0  0  0  0  0  0  0  0  0
   -3.1562   98.5871   32.5050 H   0  0  0  0  0  0  0  0  0  0  0  0
   -1.6306   99.4398   32.0901 H   0  0  0  0  0  0  0  0  0  0  0  0
   -3.1881  100.3345   32.0901 H   0  0  0  0  0  0  0  0  0  0  0  0
   -0.8456  100.1749   29.0205 H   0  0  0  0  0  0  0  0  0  0  0  0
   -0.1140   99.6506   27.4660 H   0  0  0  0  0  0  0  0  0  0  0  0
   -1.5008  100.7922   27.4660 H   0  0  0  0  0  0  0  0  0  0  0  0
    0.4312   95.0308   28.0219 H   0  0  0  0  0  0  0  0  0  0  0  0
   -0.4876   94.9338   26.4814 H   0  0  0  0  0  0  0  0  0  0  0  0
    1.2047   95.5362   26.4814 H   0  0  0  0  0  0  0  0  0  0  0  0
  3  1  1  0
 11  1  1  0
  1 15  1  0
 13  2  2  0
  2  3  1  0
  3  4  2  0
 19  4  1  0
  4 14  1  0
 15  5  1  0
  7  5  2  0
  5 16  1  0
 18  6  2  0
  6 17  1  0
  7 18  1  0
  9  8  2  0
 22  8  1  0
  8 28  1  0
 10  9  1  0
  9 26  1  0
 24 10  1  0
 23 10  2  0
 12 11  2  0
 13 12  1  0
 20 12  1  0
 14 15  2  0
 16 17  2  0
 20 21  1  0
 23 21  1  0
 21 22  2  0
 25 24  1  0
 26 27  1  0
 28 29  1  0
  2 30  1  0
  6 31  1  0
  7 32  1  0
 16 33  1  0
 17 34  1  0
 18 35  1  0
 19 36  1  0
 19 37  1  0
 19 38  1  0
 20 39  1  0
 22 40  1  0
 23 41  1  0
 25 42  1  0
 25 43  1  0
 25 44  1  0
 27 45  1  0
 27 46  1  0
 27 47  1  0
 29 48  1  0
 29 49  1  0
 29 50  1  0
A    1
N1
A    2
C5
A    3
C6
A    4
C7
A    5
C10
A    6
C13
A    7
C15
A    8
C20
A    9
C21
A   10
C22
A   11
N2
A   12
C3
A   13
N4
A   14
N8
A   15
C9
A   16
C11
A   17
C12
A   18
C14
A   19
C16
A   20
N17
A   21
C18
A   22
C19
A   23
C23
A   24
O24
A   25
C25
A   26
O26
A   27
C27
A   28
O28
A   29
C29
M  END
