3EPN_IRN_A_1001
     RDKit          3D

 31 32  0  0  0  0  0  0  0  0999 V2000
   42.1140   41.1980    4.1620 C   0  0  0  0  0  0  0  0  0  0  0  0
   41.2850   41.6430    5.1010 C   0  0  0  0  0  0  0  0  0  0  0  0
   40.9580   42.9030    4.8070 N   0  0  0  0  0  0  0  0  0  0  0  0
   41.5970   43.2460    3.6890 C   0  0  0  0  0  0  0  0  0  0  0  0
   42.3120   42.1940    3.2950 N   0  0  0  0  0  0  0  0  0  0  0  0
   43.1540   42.1190    2.0990 C   0  0  0  0  0  0  0  0  0  0  0  0
   43.5910   43.4060    1.5450 O   0  0  0  0  0  0  0  0  0  0  0  0
   42.3620   41.4290    0.9880 C   0  0  0  0  0  0  0  0  0  0  0  0
   42.4380   40.0130    1.1650 O   0  0  0  0  0  0  0  0  0  0  0  0
   43.2120   41.8200   -0.1870 C   0  0  0  0  0  0  0  0  0  0  0  0
   44.4610   41.1360   -0.0330 O   0  0  0  0  0  0  0  0  0  0  0  0
   43.4230   43.3070    0.0940 C   0  0  0  0  0  0  0  0  0  0  0  0
   42.2470   44.1750   -0.3850 C   0  0  0  0  0  0  0  0  0  0  0  0
   42.5060   45.5330   -0.0160 O   0  0  0  0  0  0  0  0  0  0  0  0
   41.4920   46.7930   -0.2690 P   0  0  0  0  0  0  0  0  0  0  0  0
   41.0840   46.7890   -1.8110 O   0  0  0  0  0  0  0  0  0  0  0  0
   42.4380   48.0680    0.0020 O   0  0  0  0  0  0  0  0  0  0  0  0
   40.3020   46.7500    0.6100 O   0  0  0  0  0  0  0  0  0  0  0  0
   42.5564   40.1923    4.1089 H   0  0  0  0  0  0  0  0  0  0  0  0
   40.9296   41.0710    5.9708 H   0  0  0  0  0  0  0  0  0  0  0  0
   41.5435   44.2214    3.1833 H   0  0  0  0  0  0  0  0  0  0  0  0
   44.0551   41.5787    2.4248 H   0  0  0  0  0  0  0  0  0  0  0  0
   41.2956   41.6909    0.9240 H   0  0  0  0  0  0  0  0  0  0  0  0
   42.4494   39.8015    2.1321 H   0  0  0  0  0  0  0  0  0  0  0  0
   42.7999   41.6017   -1.1832 H   0  0  0  0  0  0  0  0  0  0  0  0
   44.6607   41.0266    0.9305 H   0  0  0  0  0  0  0  0  0  0  0  0
   44.2971   43.6856   -0.4560 H   0  0  0  0  0  0  0  0  0  0  0  0
   42.1509   44.0993   -1.4782 H   0  0  0  0  0  0  0  0  0  0  0  0
   41.3107   43.8303    0.0781 H   0  0  0  0  0  0  0  0  0  0  0  0
   40.0973   46.7793   -1.8913 H   0  0  0  0  0  0  0  0  0  0  0  0
   40.5906   46.7604    1.5569 H   0  0  0  0  0  0  0  0  0  0  0  0
  5  1  1  0
  1  2  2  0
  2  3  1  0
  4  3  2  0
  5  4  1  0
  6  5  1  0
  7  6  1  0
  6  8  1  0
  7 12  1  0
 10  8  1  0
  8  9  1  0
 11 10  1  0
 12 10  1  0
 12 13  1  0
 14 13  1  0
 14 15  1  0
 17 15  2  0
 15 16  1  0
 15 18  1  0
  1 19  1  0
  2 20  1  0
  4 21  1  0
  6 22  1  0
  8 23  1  0
  9 24  1  0
 10 25  1  0
 11 26  1  0
 12 27  1  0
 13 28  1  0
 13 29  1  0
 16 30  1  0
 18 31  1  0
A    1
C5
A    2
C4
A    3
N3
A    4
C2
A    5
N1
A    6
C1'
A    7
O4'
A    8
C2'
A    9
O2'
A   10
C3'
A   11
O3'
A   12
C4'
A   13
C5'
A   14
O5'
A   15
P
A   16
O6
A   17
O7
A   18
O8
M  END
