3EQH_5BM_A_1
     RDKit          3D

 42 43  0  0  0  0  0  0  0  0999 V2000
   -1.3930   57.2140   33.8100 C   0  0  0  0  0  0  0  0  0  0  0  0
   -0.3030   56.2970   33.8790 C   0  0  0  0  0  0  0  0  0  0  0  0
    0.5780   55.5650   33.9350 N   0  0  0  0  0  0  0  0  0  0  0  0
   -2.6050   56.6980   33.5330 C   0  0  0  0  0  0  0  0  0  0  0  0
   -3.8140   57.3410   33.4220 N   0  0  0  0  0  0  0  0  0  0  0  0
   -2.7680   54.9500   33.2910 S   0  0  0  0  0  0  0  0  0  0  0  0
   -3.7050   54.6440   31.8110 C   0  0  0  0  0  0  0  0  0  0  0  0
   -4.8210   53.7630   31.8450 C   0  0  0  0  0  0  0  0  0  0  0  0
   -5.5490   53.5100   30.6600 C   0  0  0  0  0  0  0  0  0  0  0  0
   -5.1600   54.1170   29.4590 C   0  0  0  0  0  0  0  0  0  0  0  0
   -4.0480   54.9890   29.4230 C   0  0  0  0  0  0  0  0  0  0  0  0
   -3.3200   55.2470   30.5950 C   0  0  0  0  0  0  0  0  0  0  0  0
   -5.2110   53.1700   32.9850 N   0  0  0  0  0  0  0  0  0  0  0  0
   -1.1740   58.4790   34.4540 C   0  0  0  0  0  0  0  0  0  0  0  0
   -2.0020   58.7300   35.5890 C   0  0  0  0  0  0  0  0  0  0  0  0
   -2.7190   58.8910   36.5040 N   0  0  0  0  0  0  0  0  0  0  0  0
   -0.0730   59.2340   34.2070 C   0  0  0  0  0  0  0  0  0  0  0  0
    0.8360   59.1210   33.1460 N   0  0  0  0  0  0  0  0  0  0  0  0
    0.3960   60.5360   35.2570 S   0  0  0  0  0  0  0  0  0  0  0  0
    1.2360   61.7500   34.3370 C   0  0  0  0  0  0  0  0  0  0  0  0
    0.5120   62.7550   33.6100 C   0  0  0  0  0  0  0  0  0  0  0  0
    1.2480   63.7260   32.9010 C   0  0  0  0  0  0  0  0  0  0  0  0
    2.6680   63.6810   32.9300 C   0  0  0  0  0  0  0  0  0  0  0  0
    3.3470   62.6940   33.6610 C   0  0  0  0  0  0  0  0  0  0  0  0
    2.6340   61.7370   34.3620 C   0  0  0  0  0  0  0  0  0  0  0  0
   -0.8360   62.7920   33.5870 N   0  0  0  0  0  0  0  0  0  0  0  0
   -4.3308   57.6159   34.2695 H   0  0  0  0  0  0  0  0  0  0  0  0
   -4.2036   57.5482   32.4913 H   0  0  0  0  0  0  0  0  0  0  0  0
   -6.4194   52.8377   30.6810 H   0  0  0  0  0  0  0  0  0  0  0  0
   -5.7241   53.9136   28.5369 H   0  0  0  0  0  0  0  0  0  0  0  0
   -3.7532   55.4654   28.4764 H   0  0  0  0  0  0  0  0  0  0  0  0
   -2.4497   55.9190   30.5654 H   0  0  0  0  0  0  0  0  0  0  0  0
   -4.9445   53.5753   33.8936 H   0  0  0  0  0  0  0  0  0  0  0  0
   -5.7767   52.3099   32.9507 H   0  0  0  0  0  0  0  0  0  0  0  0
    1.8400   58.9962   33.3391 H   0  0  0  0  0  0  0  0  0  0  0  0
    0.4999   59.1628   32.1733 H   0  0  0  0  0  0  0  0  0  0  0  0
    0.7284   64.5104   32.3312 H   0  0  0  0  0  0  0  0  0  0  0  0
    3.2445   64.4322   32.3702 H   0  0  0  0  0  0  0  0  0  0  0  0
    4.4468   62.6810   33.6768 H   0  0  0  0  0  0  0  0  0  0  0  0
    3.1669   60.9665   34.9385 H   0  0  0  0  0  0  0  0  0  0  0  0
   -1.3659   62.8065   34.4701 H   0  0  0  0  0  0  0  0  0  0  0  0
   -1.3355   62.8057   32.6863 H   0  0  0  0  0  0  0  0  0  0  0  0
  1  2  1  0
  1  4  2  0
  1 14  1  0
  2  3  3  0
  4  5  1  0
  4  6  1  0
  6  7  1  0
  7  8  2  0
  7 12  1  0
  8  9  1  0
  8 13  1  0
  9 10  2  0
 10 11  1  0
 11 12  2  0
 14 15  1  0
 14 17  2  0
 15 16  3  0
 17 18  1  0
 17 19  1  0
 19 20  1  0
 20 21  2  0
 20 25  1  0
 21 22  1  0
 21 26  1  0
 22 23  2  0
 23 24  1  0
 24 25  2  0
  5 27  1  0
  5 28  1  0
  9 29  1  0
 10 30  1  0
 11 31  1  0
 12 32  1  0
 13 33  1  0
 13 34  1  0
 18 35  1  0
 18 36  1  0
 22 37  1  0
 23 38  1  0
 24 39  1  0
 25 40  1  0
 26 41  1  0
 26 42  1  0
A    1
C01
A    2
C02
A    3
N03
A    4
C04
A    5
N05
A    6
S06
A    7
C07
A    8
C08
A    9
C09
A   10
C10
A   11
C11
A   12
C12
A   13
N13
A   14
C21
A   15
C22
A   16
N23
A   17
C24
A   18
N25
A   19
S26
A   20
C27
A   21
C28
A   22
C29
A   23
C30
A   24
C31
A   25
C32
A   26
N33
M  END
