3ETR_LUZ_C_1
     RDKit          3D

 16 17  0  0  0  0  0  0  0  0999 V2000
    8.6390  -20.0560   22.0770 N   0  0  0  0  0  0  0  0  0  0  0  0
    8.4080  -21.3410   22.4600 C   0  0  0  0  0  0  0  0  0  0  0  0
    9.3130  -19.7820   20.9490 C   0  0  0  0  0  0  0  0  0  0  0  0
    7.7850  -21.5970   23.5180 O   0  0  0  0  0  0  0  0  0  0  0  0
    8.8380  -22.3840   21.7360 N   0  0  0  0  0  0  0  0  0  0  0  0
    9.5100  -22.1750   20.6000 C   0  0  0  0  0  0  0  0  0  0  0  0
    9.8440  -23.1840   19.9650 O   0  0  0  0  0  0  0  0  0  0  0  0
    9.7840  -20.8570   20.1630 C   0  0  0  0  0  0  0  0  0  0  0  0
   10.4700  -20.6130   19.0120 N   0  0  0  0  0  0  0  0  0  0  0  0
   10.6890  -19.3240   18.6480 C   0  0  0  0  0  0  0  0  0  0  0  0
   10.2350  -18.2600   19.4600 C   0  0  0  0  0  0  0  0  0  0  0  0
    9.5440  -18.4920   20.6010 N   0  0  0  0  0  0  0  0  0  0  0  0
    8.2916  -19.2821   22.6612 H   0  0  0  0  0  0  0  0  0  0  0  0
    8.6507  -23.3453   22.0549 H   0  0  0  0  0  0  0  0  0  0  0  0
   11.2247  -19.1054   17.7125 H   0  0  0  0  0  0  0  0  0  0  0  0
   10.4471  -17.2234   19.1592 H   0  0  0  0  0  0  0  0  0  0  0  0
  1  2  1  0
  1  3  1  0
  2  4  2  0
  2  5  1  0
  3  8  2  0
  3 12  1  0
  5  6  1  0
  6  7  2  0
  6  8  1  0
  8  9  1  0
  9 10  2  0
 10 11  1  0
 11 12  2  0
  1 13  1  0
  5 14  1  0
 10 15  1  0
 11 16  1  0
A    1
N1
A    2
C2
A    3
C10
A    4
O2
A    5
N3
A    6
C4
A    7
O4
A    8
C4A
A    9
N5
A   10
C5A
A   11
C9A
A   12
N10
M  END
