3EWJ_642_B_1
     RDKit          3D

 59 64  0  0  0  0  0  0  0  0999 V2000
   48.3220   34.1510   39.5790 C   0  0  0  0  0  0  0  0  0  0  0  0
   48.3980   32.6310   39.5670 C   0  0  0  0  0  0  0  0  0  0  0  0
   48.3980   33.4070   38.2620 C   0  0  0  0  0  0  0  0  0  0  0  0
   49.4750   34.9150   40.1700 C   0  0  0  0  0  0  0  0  0  0  0  0
   50.6700   34.3040   39.9480 O   0  0  0  0  0  0  0  0  0  0  0  0
   49.4350   35.9670   40.8560 O   0  0  0  0  0  0  0  0  0  0  0  0
   47.1830   31.8040   39.8720 C   0  0  0  0  0  0  0  0  0  0  0  0
   47.5150   30.6990   40.5540 N   0  0  0  0  0  0  0  0  0  0  0  0
   46.0630   32.1100   39.5240 O   0  0  0  0  0  0  0  0  0  0  0  0
   48.9610   30.6530   40.8380 C   0  0  0  0  0  0  0  0  0  0  0  0
   49.5960   31.7490   39.9430 C   0  0  0  0  0  0  0  0  0  0  0  0
   49.1120   30.9790   42.3220 C   0  0  0  0  0  0  0  0  0  0  0  0
   50.1630   30.4550   43.0890 C   0  0  0  0  0  0  0  0  0  0  0  0
   50.2390   30.7420   44.4530 C   0  0  0  0  0  0  0  0  0  0  0  0
   49.2570   31.5740   45.0810 C   0  0  0  0  0  0  0  0  0  0  0  0
   48.2280   32.1270   44.3000 C   0  0  0  0  0  0  0  0  0  0  0  0
   48.1490   31.8260   42.9370 C   0  0  0  0  0  0  0  0  0  0  0  0
   49.2970   31.8520   46.4360 O   0  0  0  0  0  0  0  0  0  0  0  0
   50.2610   31.1670   47.2500 C   0  0  0  0  0  0  0  0  0  0  0  0
   49.8780   29.6820   47.4790 C   0  0  0  0  0  0  0  0  0  0  0  0
   49.1090   26.9690   47.9050 N   0  0  0  0  0  0  0  0  0  0  0  0
   48.1960   27.9230   47.5620 C   0  0  0  0  0  0  0  0  0  0  0  0
   48.5380   29.3010   47.3140 C   0  0  0  0  0  0  0  0  0  0  0  0
   50.3850   27.3250   48.0150 C   0  0  0  0  0  0  0  0  0  0  0  0
   50.8130   28.6620   47.8330 C   0  0  0  0  0  0  0  0  0  0  0  0
   52.2000   28.9310   48.0070 C   0  0  0  0  0  0  0  0  0  0  0  0
   53.1150   27.9380   48.3400 C   0  0  0  0  0  0  0  0  0  0  0  0
   52.7110   26.6380   48.4990 C   0  0  0  0  0  0  0  0  0  0  0  0
   51.3400   26.3560   48.3600 C   0  0  0  0  0  0  0  0  0  0  0  0
   46.7990   27.5130   47.3460 C   0  0  0  0  0  0  0  0  0  0  0  0
   46.4000   26.1670   47.3220 C   0  0  0  0  0  0  0  0  0  0  0  0
   45.0380   25.8520   47.0900 C   0  0  0  0  0  0  0  0  0  0  0  0
   44.0980   26.8570   46.8400 C   0  0  0  0  0  0  0  0  0  0  0  0
   44.4950   28.1810   46.8370 C   0  0  0  0  0  0  0  0  0  0  0  0
   45.8260   28.5170   47.0930 C   0  0  0  0  0  0  0  0  0  0  0  0
   47.6393   34.9245   39.9607 H   0  0  0  0  0  0  0  0  0  0  0  0
   47.5198   33.3697   37.6007 H   0  0  0  0  0  0  0  0  0  0  0  0
   49.0588   33.4489   37.3836 H   0  0  0  0  0  0  0  0  0  0  0  0
   49.4370   35.9137   41.8446 H   0  0  0  0  0  0  0  0  0  0  0  0
   46.8441   29.9730   40.8434 H   0  0  0  0  0  0  0  0  0  0  0  0
   49.4416   29.6852   40.6323 H   0  0  0  0  0  0  0  0  0  0  0  0
   50.0580   31.3083   39.0473 H   0  0  0  0  0  0  0  0  0  0  0  0
   50.4003   32.3052   40.4467 H   0  0  0  0  0  0  0  0  0  0  0  0
   50.9260   29.8190   42.6165 H   0  0  0  0  0  0  0  0  0  0  0  0
   51.0619   30.3247   45.0518 H   0  0  0  0  0  0  0  0  0  0  0  0
   47.4858   32.7957   44.7603 H   0  0  0  0  0  0  0  0  0  0  0  0
   47.3326   32.2491   42.3332 H   0  0  0  0  0  0  0  0  0  0  0  0
   51.2404   31.2082   46.7510 H   0  0  0  0  0  0  0  0  0  0  0  0
   50.2925   31.6647   48.2305 H   0  0  0  0  0  0  0  0  0  0  0  0
   47.7738   30.0296   47.0056 H   0  0  0  0  0  0  0  0  0  0  0  0
   52.5611   29.9614   47.8733 H   0  0  0  0  0  0  0  0  0  0  0  0
   54.1748   28.1989   48.4773 H   0  0  0  0  0  0  0  0  0  0  0  0
   53.4347   25.8418   48.7277 H   0  0  0  0  0  0  0  0  0  0  0  0
   50.9991   25.3241   48.5302 H   0  0  0  0  0  0  0  0  0  0  0  0
   47.1366   25.3658   47.4815 H   0  0  0  0  0  0  0  0  0  0  0  0
   44.7150   24.8006   47.1068 H   0  0  0  0  0  0  0  0  0  0  0  0
   43.0473   26.5949   46.6466 H   0  0  0  0  0  0  0  0  0  0  0  0
   43.7596   28.9730   46.6322 H   0  0  0  0  0  0  0  0  0  0  0  0
   46.1258   29.5753   47.0989 H   0  0  0  0  0  0  0  0  0  0  0  0
  3  1  1  0
  2  1  1  0
  1  4  1  0
  3  2  1  0
  2  7  1  0
  2 11  1  0
  5  4  2  0
  4  6  1  0
  9  7  2  0
  7  8  1  0
  8 10  1  0
 11 10  1  0
 10 12  1  0
 12 17  1  0
 12 13  2  0
 13 14  1  0
 14 15  2  0
 16 15  1  0
 15 18  1  0
 17 16  2  0
 18 19  1  0
 19 20  1  0
 23 20  2  0
 20 25  1  0
 22 21  2  0
 21 24  1  0
 23 22  1  0
 30 22  1  0
 25 24  2  0
 24 29  1  0
 25 26  1  0
 26 27  2  0
 27 28  1  0
 29 28  2  0
 35 30  1  0
 31 30  2  0
 32 31  1  0
 33 32  2  0
 34 33  1  0
 34 35  2  0
  1 36  1  0
  3 37  1  0
  3 38  1  0
  6 39  1  0
  8 40  1  0
 10 41  1  0
 11 42  1  0
 11 43  1  0
 13 44  1  0
 14 45  1  0
 16 46  1  0
 17 47  1  0
 19 48  1  0
 19 49  1  0
 23 50  1  0
 26 51  1  0
 27 52  1  0
 28 53  1  0
 29 54  1  0
 31 55  1  0
 32 56  1  0
 33 57  1  0
 34 58  1  0
 35 59  1  0
A    1
C1
A    2
C2
A    3
C3
A    4
C4
A    5
O1
A    6
O2
A    7
C5
A    8
N1
A    9
O3
A   10
C6
A   11
C7
A   12
C8
A   13
C9
A   14
C10
A   15
C11
A   16
C12
A   17
C13
A   18
O4
A   19
C14
A   20
C15
A   21
N2
A   22
C16
A   23
C17
A   24
C18
A   25
C19
A   26
C20
A   27
C21
A   28
C22
A   29
C23
A   30
C24
A   31
C25
A   32
C26
A   33
C27
A   34
C28
A   35
C29
M  END
