3EZR_EZR_A_300
     RDKit          3D

 61 66  0  0  0  0  0  0  0  0999 V2000
   -2.5790   33.9250   11.9540 C   0  0  0  0  0  0  0  0  0  0  0  0
    4.6110   28.1650    5.9080 C   0  0  0  0  0  0  0  0  0  0  0  0
    4.3960   26.1670    7.2380 C   0  0  0  0  0  0  0  0  0  0  0  0
   -3.4190   34.5520   12.8420 C   0  0  0  0  0  0  0  0  0  0  0  0
   -1.3160   32.9490    9.6090 C   0  0  0  0  0  0  0  0  0  0  0  0
    0.1260   31.1070    8.9290 C   0  0  0  0  0  0  0  0  0  0  0  0
    2.9850   27.9640    7.7160 C   0  0  0  0  0  0  0  0  0  0  0  0
   -0.3300   32.4030    8.8280 C   0  0  0  0  0  0  0  0  0  0  0  0
   -4.5760   33.9270   13.2500 C   0  0  0  0  0  0  0  0  0  0  0  0
    2.0200   29.8720    7.6570 C   0  0  0  0  0  0  0  0  0  0  0  0
    2.8920   26.5480   10.3570 C   0  0  0  0  0  0  0  0  0  0  0  0
    3.1370   24.5010    9.0020 C   0  0  0  0  0  0  0  0  0  0  0  0
    3.4500   23.9300   10.3750 C   0  0  0  0  0  0  0  0  0  0  0  0
   -5.6460   30.5640   11.9180 C   0  0  0  0  0  0  0  0  0  0  0  0
    4.9910   26.8800    6.2230 C   0  0  0  0  0  0  0  0  0  0  0  0
   -0.4560   30.2590    9.8570 C   0  0  0  0  0  0  0  0  0  0  0  0
   -1.4650   30.7970   10.6320 C   0  0  0  0  0  0  0  0  0  0  0  0
   -4.8700   32.6810   12.7480 C   0  0  0  0  0  0  0  0  0  0  0  0
   -1.8880   32.1060   10.5320 C   0  0  0  0  0  0  0  0  0  0  0  0
   -2.8620   32.6750   11.4360 C   0  0  0  0  0  0  0  0  0  0  0  0
    3.5950   28.6620    6.6930 C   0  0  0  0  0  0  0  0  0  0  0  0
    3.3830   26.6720    8.0280 C   0  0  0  0  0  0  0  0  0  0  0  0
   -4.0230   32.0620   11.8520 C   0  0  0  0  0  0  0  0  0  0  0  0
    1.1540   31.0270    7.9520 C   0  0  0  0  0  0  0  0  0  0  0  0
    1.9520   25.7920   11.2700 C   0  0  0  0  0  0  0  0  0  0  0  0
    1.5410   23.4300   11.8880 C   0  0  0  0  0  0  0  0  0  0  0  0
    2.0120   28.7310    8.3070 N   0  0  0  0  0  0  0  0  0  0  0  0
    1.3350   32.1770    7.3000 N   0  0  0  0  0  0  0  0  0  0  0  0
    2.9660   29.8700    6.6760 N   0  0  0  0  0  0  0  0  0  0  0  0
    0.4230   32.9860    7.8550 N   0  0  0  0  0  0  0  0  0  0  0  0
    2.7890   25.9170    9.0580 N   0  0  0  0  0  0  0  0  0  0  0  0
   -5.4480   34.5370   14.1590 N   0  0  0  0  0  0  0  0  0  0  0  0
    2.5290   24.4330   11.4400 N   0  0  0  0  0  0  0  0  0  0  0  0
   -4.3580   30.8110   11.3760 O   0  0  0  0  0  0  0  0  0  0  0  0
   -1.6533   34.4330   11.6459 H   0  0  0  0  0  0  0  0  0  0  0  0
    5.0788   28.7449    5.0987 H   0  0  0  0  0  0  0  0  0  0  0  0
    4.7455   25.1418    7.4299 H   0  0  0  0  0  0  0  0  0  0  0  0
   -3.1677   35.5516   13.2264 H   0  0  0  0  0  0  0  0  0  0  0  0
   -1.6302   33.9979    9.5034 H   0  0  0  0  0  0  0  0  0  0  0  0
    2.5929   27.6046   10.2923 H   0  0  0  0  0  0  0  0  0  0  0  0
    3.9248   26.5212   10.7345 H   0  0  0  0  0  0  0  0  0  0  0  0
    4.0205   24.3789    8.3582 H   0  0  0  0  0  0  0  0  0  0  0  0
    2.2695   23.9566    8.6006 H   0  0  0  0  0  0  0  0  0  0  0  0
    3.3651   22.8343   10.3268 H   0  0  0  0  0  0  0  0  0  0  0  0
    4.4678   24.2513   10.6411 H   0  0  0  0  0  0  0  0  0  0  0  0
   -5.5898   30.5748   13.0165 H   0  0  0  0  0  0  0  0  0  0  0  0
   -6.3425   31.3449   11.5788 H   0  0  0  0  0  0  0  0  0  0  0  0
   -6.0042   29.5808   11.5788 H   0  0  0  0  0  0  0  0  0  0  0  0
    5.7977   26.4073    5.6435 H   0  0  0  0  0  0  0  0  0  0  0  0
   -0.1322   29.2139    9.9706 H   0  0  0  0  0  0  0  0  0  0  0  0
   -1.9580   30.1460   11.3690 H   0  0  0  0  0  0  0  0  0  0  0  0
   -5.7920   32.1715   13.0648 H   0  0  0  0  0  0  0  0  0  0  0  0
    1.8794   26.2983   12.2438 H   0  0  0  0  0  0  0  0  0  0  0  0
    0.9388   25.7430   10.8446 H   0  0  0  0  0  0  0  0  0  0  0  0
    1.5165   23.4051   12.9874 H   0  0  0  0  0  0  0  0  0  0  0  0
    0.5456   23.6993   11.5051 H   0  0  0  0  0  0  0  0  0  0  0  0
    1.8253   22.4388   11.5051 H   0  0  0  0  0  0  0  0  0  0  0  0
    3.1701   30.6480    6.0326 H   0  0  0  0  0  0  0  0  0  0  0  0
    0.3014   33.9681    7.5692 H   0  0  0  0  0  0  0  0  0  0  0  0
   -5.2941   34.4294   15.1717 H   0  0  0  0  0  0  0  0  0  0  0  0
   -6.2436   35.0936   13.8152 H   0  0  0  0  0  0  0  0  0  0  0  0
  1  4  2  0
  1 20  1  0
  2 15  2  0
  2 21  1  0
  3 15  1  0
  3 22  2  0
  4  9  1  0
  5  8  2  0
  5 19  1  0
  6  8  1  0
  6 16  2  0
  6 24  1  0
  7 21  2  0
  7 22  1  0
  7 27  1  0
  8 30  1  0
  9 18  2  0
  9 32  1  0
 10 24  1  0
 10 27  2  0
 10 29  1  0
 11 25  1  0
 11 31  1  0
 12 13  1  0
 12 31  1  0
 13 33  1  0
 14 34  1  0
 16 17  1  0
 17 19  2  0
 18 23  1  0
 19 20  1  0
 20 23  2  0
 21 29  1  0
 22 31  1  0
 23 34  1  0
 24 28  2  0
 25 33  1  0
 26 33  1  0
 28 30  1  0
  1 35  1  0
  2 36  1  0
  3 37  1  0
  4 38  1  0
  5 39  1  0
 11 40  1  0
 11 41  1  0
 12 42  1  0
 12 43  1  0
 13 44  1  0
 13 45  1  0
 14 46  1  0
 14 47  1  0
 14 48  1  0
 15 49  1  0
 16 50  1  0
 17 51  1  0
 18 52  1  0
 25 53  1  0
 25 54  1  0
 26 55  1  0
 26 56  1  0
 26 57  1  0
 29 58  1  0
 30 59  1  0
 32 60  1  0
 32 61  1  0
A    1
C4
A    2
C5
A    3
C6
A    4
C7
A    5
C8
A    6
C10
A    7
C13
A    8
C15
A    9
C17
A   10
C20
A   11
C21
A   12
C22
A   13
C24
A   14
C26
A   15
C1
A   16
C2
A   17
C3
A   18
C9
A   19
C11
A   20
C12
A   21
C14
A   22
C16
A   23
C18
A   24
C19
A   25
C23
A   26
C25
A   27
N27
A   28
N28
A   29
N29
A   30
N30
A   31
N31
A   32
N32
A   33
N33
A   34
O34
M  END
