3F07_AGE_A_500
     RDKit          3D

 37 38  0  0  0  0  0  0  0  0999 V2000
  -27.3910   31.0390  -40.1790 N   0  0  0  0  0  0  0  0  0  0  0  0
  -22.6810   31.9490  -45.4140 C   0  0  0  0  0  0  0  0  0  0  0  0
  -29.3170   25.1940  -38.5060 N   0  0  0  0  0  0  0  0  0  0  0  0
  -21.6490   32.1850  -43.1150 C   0  0  0  0  0  0  0  0  0  0  0  0
  -22.8920   31.7590  -42.4440 C   0  0  0  0  0  0  0  0  0  0  0  0
  -24.0350   31.4280  -43.3290 C   0  0  0  0  0  0  0  0  0  0  0  0
  -30.3160   24.3350  -38.3920 O   0  0  0  0  0  0  0  0  0  0  0  0
  -30.6400   26.8100  -39.2920 O   0  0  0  0  0  0  0  0  0  0  0  0
  -23.3360   31.4600  -38.5510 O   0  0  0  0  0  0  0  0  0  0  0  0
  -23.9330   31.5200  -44.7930 C   0  0  0  0  0  0  0  0  0  0  0  0
  -21.5320   32.2840  -44.5650 C   0  0  0  0  0  0  0  0  0  0  0  0
  -22.7960   31.7270  -40.8910 C   0  0  0  0  0  0  0  0  0  0  0  0
  -23.7630   31.3790  -39.6860 C   0  0  0  0  0  0  0  0  0  0  0  0
  -25.2330   30.9450  -39.7890 C   0  0  0  0  0  0  0  0  0  0  0  0
  -26.2540   31.7800  -40.2470 C   0  0  0  0  0  0  0  0  0  0  0  0
  -28.6860   31.6210  -40.5910 C   0  0  0  0  0  0  0  0  0  0  0  0
  -27.2160   29.7150  -39.6950 C   0  0  0  0  0  0  0  0  0  0  0  0
  -25.8260   29.6680  -39.4450 C   0  0  0  0  0  0  0  0  0  0  0  0
  -28.3030   28.6660  -39.5160 C   0  0  0  0  0  0  0  0  0  0  0  0
  -28.2540   27.3420  -39.0520 C   0  0  0  0  0  0  0  0  0  0  0  0
  -29.5150   26.4580  -38.9710 C   0  0  0  0  0  0  0  0  0  0  0  0
  -22.6009   32.0201  -46.5088 H   0  0  0  0  0  0  0  0  0  0  0  0
  -28.3673   24.8999  -38.2368 H   0  0  0  0  0  0  0  0  0  0  0  0
  -20.7753   32.4381  -42.4964 H   0  0  0  0  0  0  0  0  0  0  0  0
  -24.9849   31.1049  -42.8780 H   0  0  0  0  0  0  0  0  0  0  0  0
  -30.5043   24.1731  -37.4336 H   0  0  0  0  0  0  0  0  0  0  0  0
  -24.7994   31.2658  -45.4214 H   0  0  0  0  0  0  0  0  0  0  0  0
  -20.5852   32.6089  -45.0211 H   0  0  0  0  0  0  0  0  0  0  0  0
  -21.9532   31.0407  -40.7217 H   0  0  0  0  0  0  0  0  0  0  0  0
  -22.9201   32.8144  -40.7812 H   0  0  0  0  0  0  0  0  0  0  0  0
  -26.1580   32.8204  -40.5910 H   0  0  0  0  0  0  0  0  0  0  0  0
  -29.2708   31.8838  -39.6972 H   0  0  0  0  0  0  0  0  0  0  0  0
  -28.5072   32.5253  -41.1912 H   0  0  0  0  0  0  0  0  0  0  0  0
  -29.2436   30.8869  -41.1912 H   0  0  0  0  0  0  0  0  0  0  0  0
  -25.2796   28.7984  -39.0510 H   0  0  0  0  0  0  0  0  0  0  0  0
  -29.3092   29.0064  -39.8018 H   0  0  0  0  0  0  0  0  0  0  0  0
  -27.2872   26.9225  -38.7368 H   0  0  0  0  0  0  0  0  0  0  0  0
  1 17  1  0
  2 10  2  0
  2 11  1  0
  3  7  1  0
  4  5  1  0
  5 12  1  0
  6  5  2  0
  8 21  2  0
 10  6  1  0
 11  4  2  0
 12 13  1  0
 13  9  2  0
 14 13  1  0
 14 18  1  0
 15  1  1  0
 15 14  2  0
 16  1  1  0
 17 19  1  0
 17 18  2  0
 19 20  2  0
 20 21  1  0
 21  3  1  0
  2 22  1  0
  3 23  1  0
  4 24  1  0
  6 25  1  0
  7 26  1  0
 10 27  1  0
 11 28  1  0
 12 29  1  0
 12 30  1  0
 15 31  1  0
 16 32  1  0
 16 33  1  0
 16 34  1  0
 18 35  1  0
 19 36  1  0
 20 37  1  0
A    1
N1
A    2
C2
A    3
N2
A    4
C4
A    5
C5
A    6
C6
A    7
O1
A    8
O2
A    9
O3
A   10
C1
A   11
C3
A   12
C7
A   13
C8
A   14
C9
A   15
C10
A   16
C11
A   17
C12
A   18
C13
A   19
C14
A   20
C15
A   21
C16
M  END
