3F15_HS1_A_0
     RDKit          3D

 38 38  0  0  0  0  0  0  0  0999 V2000
   -1.9550   -5.0850   -3.7950 N   0  0  0  0  0  0  0  0  0  0  0  0
   -4.9290   -6.6750   -6.9970 C   0  0  0  0  0  0  0  0  0  0  0  0
   -1.6140   -2.1030   -5.3110 N   0  0  0  0  0  0  0  0  0  0  0  0
   -4.7400   -5.8430   -8.1050 C   0  0  0  0  0  0  0  0  0  0  0  0
   -2.5590   -5.1750   -7.2270 C   0  0  0  0  0  0  0  0  0  0  0  0
   -1.6090   -5.9850   -1.3390 C   0  0  0  0  0  0  0  0  0  0  0  0
   -1.6050   -7.5090   -4.5700 O   0  0  0  0  0  0  0  0  0  0  0  0
   -0.3230   -5.8060   -5.5920 O   0  0  0  0  0  0  0  0  0  0  0  0
   -5.6780   -5.7400   -9.1140 O   0  0  0  0  0  0  0  0  0  0  0  0
   -1.5030   -8.3040   -1.8940 O   0  0  0  0  0  0  0  0  0  0  0  0
   -3.2590   -2.8540   -4.0040 O   0  0  0  0  0  0  0  0  0  0  0  0
   -2.0750   -2.8940   -4.3480 C   0  0  0  0  0  0  0  0  0  0  0  0
   -2.4990   -1.1930   -5.8960 O   0  0  0  0  0  0  0  0  0  0  0  0
   -1.1100   -3.8820   -3.7080 C   0  0  0  0  0  0  0  0  0  0  0  0
   -2.4980   -5.6870   -2.5450 C   0  0  0  0  0  0  0  0  0  0  0  0
   -0.8500   -4.8410   -0.9580 O   0  0  0  0  0  0  0  0  0  0  0  0
   -0.6870   -7.1540   -1.6500 C   0  0  0  0  0  0  0  0  0  0  0  0
   -1.5910   -6.1300   -4.9960 S   0  0  0  0  0  0  0  0  0  0  0  0
   -2.7440   -5.9980   -6.1110 C   0  0  0  0  0  0  0  0  0  0  0  0
   -3.5520   -5.0970   -8.2130 C   0  0  0  0  0  0  0  0  0  0  0  0
   -6.6590   -6.7570   -9.3570 C   0  0  0  0  0  0  0  0  0  0  0  0
   -3.9320   -6.7500   -6.0100 C   0  0  0  0  0  0  0  0  0  0  0  0
   -5.8514   -7.2663   -6.8990 H   0  0  0  0  0  0  0  0  0  0  0  0
   -1.6339   -4.5889   -7.3307 H   0  0  0  0  0  0  0  0  0  0  0  0
   -2.2582   -6.2524   -0.4922 H   0  0  0  0  0  0  0  0  0  0  0  0
   -1.7833   -8.6990   -1.0306 H   0  0  0  0  0  0  0  0  0  0  0  0
   -0.8710   -3.6158   -2.6678 H   0  0  0  0  0  0  0  0  0  0  0  0
   -0.1170   -3.9564   -4.1753 H   0  0  0  0  0  0  0  0  0  0  0  0
   -3.2817   -5.0024   -2.1885 H   0  0  0  0  0  0  0  0  0  0  0  0
   -2.7820   -6.6961   -2.8783 H   0  0  0  0  0  0  0  0  0  0  0  0
   -0.8122   -4.7840    0.0296 H   0  0  0  0  0  0  0  0  0  0  0  0
   -0.0839   -6.9275   -2.5416 H   0  0  0  0  0  0  0  0  0  0  0  0
   -0.0052   -7.3395   -0.8070 H   0  0  0  0  0  0  0  0  0  0  0  0
   -3.4003   -4.4428   -9.0842 H   0  0  0  0  0  0  0  0  0  0  0  0
   -7.0319   -7.1436   -8.3971 H   0  0  0  0  0  0  0  0  0  0  0  0
   -7.4953   -6.3303   -9.9302 H   0  0  0  0  0  0  0  0  0  0  0  0
   -6.2024   -7.5774   -9.9302 H   0  0  0  0  0  0  0  0  0  0  0  0
   -4.0813   -7.4083   -5.1415 H   0  0  0  0  0  0  0  0  0  0  0  0
  1 14  1  0
  1 15  1  0
  1 18  1  0
  2  4  2  0
  2 22  1  0
  3 12  1  0
  3 13  2  0
  4  9  1  0
  4 20  1  0
  5 19  1  0
  5 20  2  0
  6 15  1  0
  6 16  1  0
  6 17  1  0
  7 18  2  0
  8 18  2  0
  9 21  1  0
 10 17  1  0
 11 12  2  0
 12 14  1  0
 18 19  1  0
 19 22  2  0
  2 23  1  0
  5 24  1  0
  6 25  1  0
 10 26  1  0
 14 27  1  0
 14 28  1  0
 15 29  1  0
 15 30  1  0
 16 31  1  0
 17 32  1  0
 17 33  1  0
 20 34  1  0
 21 35  1  0
 21 36  1  0
 21 37  1  0
 22 38  1  0
A    1
N1
A    2
C2
A    3
N2
A    4
C4
A    5
C5
A    6
C6
A    7
O1
A    8
O2
A    9
O3
A   10
O4
A   11
O7
A   12
C9
A   13
O5
A   14
C11
A   15
C8
A   16
O6
A   17
C12
A   18
S1
A   19
C3
A   20
C7
A   21
C10
A   22
C1
M  END
