3F16_HS3_A_0
     RDKit          3D

 31 31  0  0  0  0  0  0  0  0999 V2000
   -4.0330   -3.1390   -4.2650 O   0  0  0  0  0  0  0  0  0  0  0  0
   -2.8350   -3.2600   -4.3480 C   0  0  0  0  0  0  0  0  0  0  0  0
   -2.1170   -2.5480   -5.2300 N   0  0  0  0  0  0  0  0  0  0  0  0
   -2.7970   -1.5770   -5.9840 O   0  0  0  0  0  0  0  0  0  0  0  0
   -1.7820   -4.2410   -3.7640 C   0  0  0  0  0  0  0  0  0  0  0  0
   -1.3610   -4.0100   -2.4770 C   0  0  0  0  0  0  0  0  0  0  0  0
   -2.5240   -3.6340   -1.6980 O   0  0  0  0  0  0  0  0  0  0  0  0
   -2.3020   -5.6730   -3.6680 N   0  0  0  0  0  0  0  0  0  0  0  0
   -1.9000   -6.4430   -5.0230 S   0  0  0  0  0  0  0  0  0  0  0  0
   -1.8310   -7.8360   -4.6690 O   0  0  0  0  0  0  0  0  0  0  0  0
   -0.6020   -5.9870   -5.4460 O   0  0  0  0  0  0  0  0  0  0  0  0
   -2.9500   -6.2610   -6.2420 C   0  0  0  0  0  0  0  0  0  0  0  0
   -4.0980   -7.0610   -6.3130 C   0  0  0  0  0  0  0  0  0  0  0  0
   -5.0090   -6.9350   -7.3650 C   0  0  0  0  0  0  0  0  0  0  0  0
   -4.7760   -6.0080   -8.3880 C   0  0  0  0  0  0  0  0  0  0  0  0
   -3.6300   -5.2120   -8.3300 C   0  0  0  0  0  0  0  0  0  0  0  0
   -2.7210   -5.3390   -7.2740 C   0  0  0  0  0  0  0  0  0  0  0  0
   -5.6410   -5.8620   -9.4510 O   0  0  0  0  0  0  0  0  0  0  0  0
   -6.7410   -6.7420   -9.6840 C   0  0  0  0  0  0  0  0  0  0  0  0
   -0.9632   -4.0820   -4.4812 H   0  0  0  0  0  0  0  0  0  0  0  0
   -0.9091   -4.9223   -2.0604 H   0  0  0  0  0  0  0  0  0  0  0  0
   -0.6053   -3.2110   -2.4545 H   0  0  0  0  0  0  0  0  0  0  0  0
   -2.3115   -3.7027   -0.7335 H   0  0  0  0  0  0  0  0  0  0  0  0
   -1.8757   -6.1457   -2.8582 H   0  0  0  0  0  0  0  0  0  0  0  0
   -4.2861   -7.8040   -5.5239 H   0  0  0  0  0  0  0  0  0  0  0  0
   -5.9104   -7.5650   -7.3894 H   0  0  0  0  0  0  0  0  0  0  0  0
   -3.4396   -4.4757   -9.1247 H   0  0  0  0  0  0  0  0  0  0  0  0
   -1.8187   -4.7102   -7.2529 H   0  0  0  0  0  0  0  0  0  0  0  0
   -7.1556   -7.0737   -8.7206 H   0  0  0  0  0  0  0  0  0  0  0  0
   -7.5185   -6.2138  -10.2554 H   0  0  0  0  0  0  0  0  0  0  0  0
   -6.3963   -7.6165  -10.2554 H   0  0  0  0  0  0  0  0  0  0  0  0
  1  2  2  0
  2  3  1  0
  2  5  1  0
  3  4  2  0
  5  6  1  0
  5  8  1  0
  6  7  1  0
  8  9  1  0
  9 10  2  0
  9 11  2  0
  9 12  1  0
 12 13  2  0
 12 17  1  0
 13 14  1  0
 14 15  2  0
 15 16  1  0
 15 18  1  0
 16 17  2  0
 18 19  1  0
  5 20  1  0
  6 21  1  0
  6 22  1  0
  7 23  1  0
  8 24  1  0
 13 25  1  0
 14 26  1  0
 16 27  1  0
 17 28  1  0
 19 29  1  0
 19 30  1  0
 19 31  1  0
A    1
O3
A    2
C8
A    3
N1
A    4
O6
A    5
C9
A    6
C7
A    7
O4
A    8
N2
A    9
S1
A   10
O1
A   11
O2
A   12
C3
A   13
C6
A   14
C5
A   15
C4
A   16
C2
A   17
C1
A   18
O5
A   19
C10
M  END
