3F17_HS4_A_0
     RDKit          3D

 33 34  0  0  0  0  0  0  0  0999 V2000
   -0.2930   -5.3680    5.1730 O   0  0  0  0  0  0  0  0  0  0  0  0
    0.7070   -5.9110    4.2810 S   0  0  0  0  0  0  0  0  0  0  0  0
    0.4190   -7.0990    3.6070 O   0  0  0  0  0  0  0  0  0  0  0  0
    0.7600   -4.7210    3.2140 N   0  0  0  0  0  0  0  0  0  0  0  0
    0.5100   -3.3290    3.4630 C   0  0  0  0  0  0  0  0  0  0  0  0
    1.6640   -2.6940    4.1890 C   0  0  0  0  0  0  0  0  0  0  0  0
    2.8140   -2.6850    3.7560 O   0  0  0  0  0  0  0  0  0  0  0  0
    1.3410   -2.1240    5.3270 N   0  0  0  0  0  0  0  0  0  0  0  0
    2.3260   -1.4820    6.0380 O   0  0  0  0  0  0  0  0  0  0  0  0
    1.8640   -6.0310    5.3800 C   0  0  0  0  0  0  0  0  0  0  0  0
    2.9560   -6.8100    4.9840 C   0  0  0  0  0  0  0  0  0  0  0  0
    4.0380   -7.0280    5.8320 C   0  0  0  0  0  0  0  0  0  0  0  0
    1.8870   -5.4460    6.6500 C   0  0  0  0  0  0  0  0  0  0  0  0
    2.9740   -5.6630    7.5010 C   0  0  0  0  0  0  0  0  0  0  0  0
    4.0660   -6.4360    7.0930 C   0  0  0  0  0  0  0  0  0  0  0  0
    5.2040   -6.7240    8.0100 C   0  0  0  0  0  0  0  0  0  0  0  0
    6.5320   -6.7750    7.6000 C   0  0  0  0  0  0  0  0  0  0  0  0
    7.5390   -7.0950    8.5130 C   0  0  0  0  0  0  0  0  0  0  0  0
    7.2220   -7.3960    9.8310 C   0  0  0  0  0  0  0  0  0  0  0  0
    5.8940   -7.3770   10.2380 C   0  0  0  0  0  0  0  0  0  0  0  0
    4.8940   -7.0580    9.3310 C   0  0  0  0  0  0  0  0  0  0  0  0
    1.7132   -4.7547    2.8251 H   0  0  0  0  0  0  0  0  0  0  0  0
    0.3617   -2.8131    2.5029 H   0  0  0  0  0  0  0  0  0  0  0  0
   -0.3889   -3.2419    4.0910 H   0  0  0  0  0  0  0  0  0  0  0  0
    2.9598   -7.2603    3.9804 H   0  0  0  0  0  0  0  0  0  0  0  0
    4.8714   -7.6679    5.5065 H   0  0  0  0  0  0  0  0  0  0  0  0
    1.0487   -4.8145    6.9794 H   0  0  0  0  0  0  0  0  0  0  0  0
    2.9708   -5.2190    8.5074 H   0  0  0  0  0  0  0  0  0  0  0  0
    6.7902   -6.5624    6.5521 H   0  0  0  0  0  0  0  0  0  0  0  0
    8.5893   -7.1087    8.1863 H   0  0  0  0  0  0  0  0  0  0  0  0
    8.0173   -7.6478   10.5480 H   0  0  0  0  0  0  0  0  0  0  0  0
    5.6351   -7.6151   11.2803 H   0  0  0  0  0  0  0  0  0  0  0  0
    3.8431   -7.0681    9.6560 H   0  0  0  0  0  0  0  0  0  0  0  0
  1  2  2  0
  2  3  2  0
  2  4  1  0
  2 10  1  0
  4  5  1  0
  5  6  1  0
  6  7  2  0
  6  8  1  0
  8  9  2  0
 10 11  2  0
 10 13  1  0
 11 12  1  0
 12 15  2  0
 13 14  2  0
 14 15  1  0
 15 16  1  0
 16 17  2  0
 16 21  1  0
 17 18  1  0
 18 19  2  0
 19 20  1  0
 20 21  2  0
  4 22  1  0
  5 23  1  0
  5 24  1  0
 11 25  1  0
 12 26  1  0
 13 27  1  0
 14 28  1  0
 17 29  1  0
 18 30  1  0
 19 31  1  0
 20 32  1  0
 21 33  1  0
A    1
O4
A    2
S1
A    3
O3
A    4
N1
A    5
C12
A    6
C14
A    7
O1
A    8
N2
A    9
O2
A   10
C13
A   11
C10
A   12
C5
A   13
C11
A   14
C8
A   15
C2
A   16
C1
A   17
C4
A   18
C7
A   19
C9
A   20
C6
A   21
C3
M  END
