3F19_HS6_A_0
     RDKit          3D

 23 23  0  0  0  0  0  0  0  0999 V2000
  -12.9780   -7.5960  -20.0250 O   0  0  0  0  0  0  0  0  0  0  0  0
  -12.9230   -6.2390  -19.5440 S   0  0  0  0  0  0  0  0  0  0  0  0
  -14.1240   -5.8720  -18.8490 O   0  0  0  0  0  0  0  0  0  0  0  0
  -12.7500   -5.2670  -20.8100 N   0  0  0  0  0  0  0  0  0  0  0  0
  -13.3220   -3.9340  -20.8330 C   0  0  0  0  0  0  0  0  0  0  0  0
  -12.3690   -2.9560  -20.2060 C   0  0  0  0  0  0  0  0  0  0  0  0
  -11.2230   -2.8560  -20.6180 O   0  0  0  0  0  0  0  0  0  0  0  0
  -12.8300   -2.2370  -19.1900 N   0  0  0  0  0  0  0  0  0  0  0  0
  -11.9550   -1.3660  -18.5540 O   0  0  0  0  0  0  0  0  0  0  0  0
  -11.7010   -6.1350  -18.4930 C   0  0  0  0  0  0  0  0  0  0  0  0
  -10.5230   -6.8620  -18.7060 C   0  0  0  0  0  0  0  0  0  0  0  0
  -11.8020   -5.3490  -17.3350 C   0  0  0  0  0  0  0  0  0  0  0  0
  -10.7460   -5.2850  -16.4220 C   0  0  0  0  0  0  0  0  0  0  0  0
   -9.5760   -6.0130  -16.6540 C   0  0  0  0  0  0  0  0  0  0  0  0
   -8.5510   -5.9650  -15.7780 F   0  0  0  0  0  0  0  0  0  0  0  0
   -9.4640   -6.8000  -17.7970 C   0  0  0  0  0  0  0  0  0  0  0  0
  -11.7361   -5.1493  -20.9481 H   0  0  0  0  0  0  0  0  0  0  0  0
  -13.5149   -3.6381  -21.8747 H   0  0  0  0  0  0  0  0  0  0  0  0
  -14.2643   -3.9351  -20.2654 H   0  0  0  0  0  0  0  0  0  0  0  0
  -10.4302   -7.4917  -19.6031 H   0  0  0  0  0  0  0  0  0  0  0  0
  -12.7221   -4.7772  -17.1439 H   0  0  0  0  0  0  0  0  0  0  0  0
  -10.8358   -4.6613  -15.5204 H   0  0  0  0  0  0  0  0  0  0  0  0
   -8.5432   -7.3720  -17.9840 H   0  0  0  0  0  0  0  0  0  0  0  0
  1  2  2  0
  2  3  2  0
  2  4  1  0
  2 10  1  0
  4  5  1  0
  5  6  1  0
  6  7  2  0
  6  8  1  0
  8  9  2  0
 10 11  2  0
 10 12  1  0
 11 16  1  0
 12 13  2  0
 13 14  1  0
 14 15  1  0
 14 16  2  0
  4 17  1  0
  5 18  1  0
  5 19  1  0
 11 20  1  0
 12 21  1  0
 13 22  1  0
 16 23  1  0
A    1
O4
A    2
S1
A    3
O3
A    4
N1
A    5
C6
A    6
C8
A    7
O2
A    8
N2
A    9
O1
A   10
C3
A   11
C1
A   12
C5
A   13
C7
A   14
C4
A   15
F1
A   16
C2
M  END
