3F1A_HS7_A_0
     RDKit          3D

 23 23  0  0  0  0  0  0  0  0999 V2000
   -3.2280   -2.8730   -4.0420 O   0  0  0  0  0  0  0  0  0  0  0  0
   -2.0720   -2.9710   -4.4410 C   0  0  0  0  0  0  0  0  0  0  0  0
   -1.6250   -2.2740   -5.4770 N   0  0  0  0  0  0  0  0  0  0  0  0
   -2.5160   -1.4250   -6.1220 O   0  0  0  0  0  0  0  0  0  0  0  0
   -1.0770   -3.8840   -3.7680 C   0  0  0  0  0  0  0  0  0  0  0  0
   -1.5600   -5.2490   -3.7800 N   0  0  0  0  0  0  0  0  0  0  0  0
   -1.3690   -6.1880   -5.0640 S   0  0  0  0  0  0  0  0  0  0  0  0
   -0.1670   -5.8050   -5.7600 O   0  0  0  0  0  0  0  0  0  0  0  0
   -1.3210   -7.5460   -4.6010 O   0  0  0  0  0  0  0  0  0  0  0  0
   -2.6150   -6.0230   -6.0660 C   0  0  0  0  0  0  0  0  0  0  0  0
   -2.4580   -5.4100   -7.3150 C   0  0  0  0  0  0  0  0  0  0  0  0
   -3.8770   -6.5050   -5.7080 C   0  0  0  0  0  0  0  0  0  0  0  0
   -4.9650   -6.3790   -6.5770 C   0  0  0  0  0  0  0  0  0  0  0  0
   -4.7910   -5.7730   -7.8210 C   0  0  0  0  0  0  0  0  0  0  0  0
   -3.5370   -5.2870   -8.1890 C   0  0  0  0  0  0  0  0  0  0  0  0
   -0.1178   -3.8337   -4.3041 H   0  0  0  0  0  0  0  0  0  0  0  0
   -0.9430   -3.5608   -2.7251 H   0  0  0  0  0  0  0  0  0  0  0  0
   -1.0959   -5.7294   -2.9959 H   0  0  0  0  0  0  0  0  0  0  0  0
   -1.4722   -5.0211   -7.6099 H   0  0  0  0  0  0  0  0  0  0  0  0
   -4.0161   -6.9896   -4.7303 H   0  0  0  0  0  0  0  0  0  0  0  0
   -5.9548   -6.7565   -6.2806 H   0  0  0  0  0  0  0  0  0  0  0  0
   -5.6423   -5.6785   -8.5112 H   0  0  0  0  0  0  0  0  0  0  0  0
   -3.3991   -4.8066   -9.1689 H   0  0  0  0  0  0  0  0  0  0  0  0
  1  2  2  0
  2  3  1  0
  2  5  1  0
  3  4  2  0
  5  6  1  0
  6  7  1  0
  7  8  2  0
  7  9  2  0
  7 10  1  0
 10 11  2  0
 10 12  1  0
 11 15  1  0
 12 13  2  0
 13 14  1  0
 14 15  2  0
  5 16  1  0
  5 17  1  0
  6 18  1  0
 11 19  1  0
 12 20  1  0
 13 21  1  0
 14 22  1  0
 15 23  1  0
A    1
O3
A    2
C7
A    3
N2
A    4
O4
A    5
C8
A    6
N1
A    7
S1
A    8
O1
A    9
O2
A   10
C3
A   11
C1
A   12
C6
A   13
C5
A   14
C4
A   15
C2
M  END
