3F2P_S3B_A_3000
     RDKit          3D

 27 27  0  0  0  0  0  0  0  0999 V2000
  -10.5700   39.7600    3.2530 C   0  0  0  0  0  0  0  0  0  0  0  0
  -10.6990   38.6000    2.5540 O   0  0  0  0  0  0  0  0  0  0  0  0
   -9.6600   37.7730    2.4030 C   0  0  0  0  0  0  0  0  0  0  0  0
   -9.9900   36.5890    1.5340 C   0  0  0  0  0  0  0  0  0  0  0  0
   -8.7310   35.8070    1.0980 C   0  0  0  0  0  0  0  0  0  0  0  0
   -8.5740   37.9510    2.9460 O   0  0  0  0  0  0  0  0  0  0  0  0
  -10.4800   40.9620    2.5260 C   0  0  0  0  0  0  0  0  0  0  0  0
  -10.4860   40.8910    0.9870 C   0  0  0  0  0  0  0  0  0  0  0  0
  -10.3900   42.1910    3.1920 C   0  0  0  0  0  0  0  0  0  0  0  0
  -10.3900   42.2030    4.5920 C   0  0  0  0  0  0  0  0  0  0  0  0
  -10.4850   41.0060    5.3160 C   0  0  0  0  0  0  0  0  0  0  0  0
  -10.5770   39.7730    4.6590 C   0  0  0  0  0  0  0  0  0  0  0  0
  -10.6230   38.4890    5.4640 C   0  0  0  0  0  0  0  0  0  0  0  0
  -11.2960   37.5050    5.0540 O   0  0  0  0  0  0  0  0  0  0  0  0
   -9.9660   38.3980    6.5330 O   0  0  0  0  0  0  0  0  0  0  0  0
  -10.6492   35.9113    2.0963 H   0  0  0  0  0  0  0  0  0  0  0  0
  -10.4803   36.9675    0.6250 H   0  0  0  0  0  0  0  0  0  0  0  0
   -8.1836   35.4670    1.9895 H   0  0  0  0  0  0  0  0  0  0  0  0
   -9.0304   34.9357    0.4971 H   0  0  0  0  0  0  0  0  0  0  0  0
   -8.0826   36.4616    0.4971 H   0  0  0  0  0  0  0  0  0  0  0  0
  -10.5747   39.8418    0.6687 H   0  0  0  0  0  0  0  0  0  0  0  0
  -11.3388   41.4659    0.5967 H   0  0  0  0  0  0  0  0  0  0  0  0
   -9.5489   41.3146    0.5967 H   0  0  0  0  0  0  0  0  0  0  0  0
  -10.3205   43.1308    2.6246 H   0  0  0  0  0  0  0  0  0  0  0  0
  -10.3148   43.1602    5.1288 H   0  0  0  0  0  0  0  0  0  0  0  0
  -10.4873   41.0360    6.4156 H   0  0  0  0  0  0  0  0  0  0  0  0
  -10.4291   38.4621    7.4056 H   0  0  0  0  0  0  0  0  0  0  0  0
  7  1  2  0
  2  1  1  0
  1 12  1  0
  3  2  1  0
  4  3  1  0
  3  6  2  0
  5  4  1  0
  8  7  1  0
  7  9  1  0
  9 10  2  0
 10 11  1  0
 12 11  2  0
 12 13  1  0
 14 13  2  0
 13 15  1  0
  4 16  1  0
  4 17  1  0
  5 18  1  0
  5 19  1  0
  5 20  1  0
  8 21  1  0
  8 22  1  0
  8 23  1  0
  9 24  1  0
 10 25  1  0
 11 26  1  0
 15 27  1  0
A    1
C1
A    2
O2
A    3
C3
A    4
C4
A    5
C5
A    6
O6
A    7
C7
A    8
C8
A    9
C9
A   10
C10
A   11
C11
A   12
C12
A   13
C13
A   14
O14
A   15
O15
M  END
