3F2R_HC6_A_603
     RDKit          3D

 64 67  0  0  0  0  0  0  0  0999 V2000
   -9.6280  -12.8690    5.3340 C   0  0  0  0  0  0  0  0  0  0  0  0
   -8.9210  -12.1390    4.2610 N   0  0  0  0  0  0  0  0  0  0  0  0
   -9.8480  -11.2960    3.4490 C   0  0  0  0  0  0  0  0  0  0  0  0
   -7.8880  -11.3100    4.8910 C   0  0  0  0  0  0  0  0  0  0  0  0
   -8.2660  -13.0890    3.3480 C   0  0  0  0  0  0  0  0  0  0  0  0
   -9.3160  -13.9440    2.6380 C   0  0  0  0  0  0  0  0  0  0  0  0
  -10.0240  -14.6870    3.6910 O   0  0  0  0  0  0  0  0  0  0  0  0
  -10.6390  -13.8910    4.7160 C   0  0  0  0  0  0  0  0  0  0  0  0
  -11.6840  -13.1350    4.0700 O   0  0  0  0  0  0  0  0  0  0  0  0
  -11.1850  -14.8540    5.8490 C   0  0  0  0  0  0  0  0  0  0  0  0
  -10.4740  -16.0000    6.1980 C   0  0  0  0  0  0  0  0  0  0  0  0
  -10.9350  -16.8530    7.2030 C   0  0  0  0  0  0  0  0  0  0  0  0
  -12.3700  -14.5940    6.5420 C   0  0  0  0  0  0  0  0  0  0  0  0
  -12.8350  -15.4460    7.5560 C   0  0  0  0  0  0  0  0  0  0  0  0
  -12.1200  -16.6120    7.8930 C   0  0  0  0  0  0  0  0  0  0  0  0
  -12.5610  -17.4700    8.9340 C   0  0  0  0  0  0  0  0  0  0  0  0
  -11.6750  -18.2670    9.6780 C   0  0  0  0  0  0  0  0  0  0  0  0
  -12.0910  -19.0970   10.7380 C   0  0  0  0  0  0  0  0  0  0  0  0
  -13.8950  -17.5100    9.3210 C   0  0  0  0  0  0  0  0  0  0  0  0
  -14.3280  -18.3280   10.3650 C   0  0  0  0  0  0  0  0  0  0  0  0
  -13.4390  -19.1350   11.0900 C   0  0  0  0  0  0  0  0  0  0  0  0
  -13.9340  -20.0180   12.2590 C   0  0  0  0  0  0  0  0  0  0  0  0
  -15.1700  -19.5810   12.8150 O   0  0  0  0  0  0  0  0  0  0  0  0
  -14.0710  -21.4940   11.8540 C   0  0  0  0  0  0  0  0  0  0  0  0
  -13.0090  -19.8720   13.3220 O   0  0  0  0  0  0  0  0  0  0  0  0
  -13.3790  -20.7040   14.4530 C   0  0  0  0  0  0  0  0  0  0  0  0
  -13.4310  -22.1800   14.0320 C   0  0  0  0  0  0  0  0  0  0  0  0
  -14.4700  -22.3400   13.0110 N   0  0  0  0  0  0  0  0  0  0  0  0
  -15.8030  -21.9540   13.5620 C   0  0  0  0  0  0  0  0  0  0  0  0
  -14.5280  -23.7630   12.6260 C   0  0  0  0  0  0  0  0  0  0  0  0
   -8.8945  -13.4103    5.9496 H   0  0  0  0  0  0  0  0  0  0  0  0
  -10.1802  -12.1484    5.9551 H   0  0  0  0  0  0  0  0  0  0  0  0
  -10.4929  -10.7095    4.1199 H   0  0  0  0  0  0  0  0  0  0  0  0
   -9.2627  -10.6142    2.8144 H   0  0  0  0  0  0  0  0  0  0  0  0
  -10.4713  -11.9432    2.8144 H   0  0  0  0  0  0  0  0  0  0  0  0
   -7.9772  -11.3816    5.9850 H   0  0  0  0  0  0  0  0  0  0  0  0
   -6.8939  -11.6638    4.5802 H   0  0  0  0  0  0  0  0  0  0  0  0
   -8.0182  -10.2629    4.5802 H   0  0  0  0  0  0  0  0  0  0  0  0
   -7.6838  -12.5317    2.5994 H   0  0  0  0  0  0  0  0  0  0  0  0
   -7.5998  -13.7447    3.9278 H   0  0  0  0  0  0  0  0  0  0  0  0
  -10.0190  -13.3031    2.0857 H   0  0  0  0  0  0  0  0  0  0  0  0
   -8.8511  -14.6261    1.9110 H   0  0  0  0  0  0  0  0  0  0  0  0
  -12.2617  -12.7171    4.7568 H   0  0  0  0  0  0  0  0  0  0  0  0
   -9.5359  -16.2364    5.6744 H   0  0  0  0  0  0  0  0  0  0  0  0
  -10.3427  -17.7442    7.4577 H   0  0  0  0  0  0  0  0  0  0  0  0
  -12.9541  -13.6977    6.2862 H   0  0  0  0  0  0  0  0  0  0  0  0
  -13.7643  -15.2014    8.0913 H   0  0  0  0  0  0  0  0  0  0  0  0
  -10.6058  -18.2419    9.4208 H   0  0  0  0  0  0  0  0  0  0  0  0
  -11.3580  -19.7098   11.2831 H   0  0  0  0  0  0  0  0  0  0  0  0
  -14.6268  -16.8820    8.7918 H   0  0  0  0  0  0  0  0  0  0  0  0
  -15.3963  -18.3404   10.6268 H   0  0  0  0  0  0  0  0  0  0  0  0
  -15.1128  -19.6012   13.8031 H   0  0  0  0  0  0  0  0  0  0  0  0
  -14.8353  -21.5798   11.0676 H   0  0  0  0  0  0  0  0  0  0  0  0
  -13.0943  -21.8448   11.4893 H   0  0  0  0  0  0  0  0  0  0  0  0
  -12.6347  -20.5806   15.2535 H   0  0  0  0  0  0  0  0  0  0  0  0
  -14.3725  -20.3986   14.8131 H   0  0  0  0  0  0  0  0  0  0  0  0
  -12.4570  -22.4820   13.6197 H   0  0  0  0  0  0  0  0  0  0  0  0
  -13.6609  -22.8108   14.9033 H   0  0  0  0  0  0  0  0  0  0  0  0
  -15.7627  -21.9657   14.6612 H   0  0  0  0  0  0  0  0  0  0  0  0
  -16.0643  -20.9433   13.2154 H   0  0  0  0  0  0  0  0  0  0  0  0
  -16.5640  -22.6687   13.2154 H   0  0  0  0  0  0  0  0  0  0  0  0
  -14.5534  -24.3871   13.5315 H   0  0  0  0  0  0  0  0  0  0  0  0
  -15.4343  -23.9449   12.0297 H   0  0  0  0  0  0  0  0  0  0  0  0
  -13.6395  -24.0180   12.0297 H   0  0  0  0  0  0  0  0  0  0  0  0
  1  2  1  0
  1  8  1  0
  2  3  1  0
  2  4  1  0
  2  5  1  0
  5  6  1  0
  6  7  1  0
  7  8  1  0
  8  9  1  0
  8 10  1  0
 10 11  2  0
 10 13  1  0
 11 12  1  0
 12 15  2  0
 13 14  2  0
 14 15  1  0
 15 16  1  0
 16 17  2  0
 16 19  1  0
 17 18  1  0
 18 21  2  0
 19 20  2  0
 20 21  1  0
 21 22  1  0
 23 22  1  0
 22 24  1  0
 22 25  1  0
 24 28  1  0
 25 26  1  0
 26 27  1  0
 27 28  1  0
 28 29  1  0
 28 30  1  0
  1 31  1  0
  1 32  1  0
  3 33  1  0
  3 34  1  0
  3 35  1  0
  4 36  1  0
  4 37  1  0
  4 38  1  0
  5 39  1  0
  5 40  1  0
  6 41  1  0
  6 42  1  0
  9 43  1  0
 11 44  1  0
 12 45  1  0
 13 46  1  0
 14 47  1  0
 17 48  1  0
 18 49  1  0
 19 50  1  0
 20 51  1  0
 23 52  1  0
 24 53  1  0
 24 54  1  0
 26 55  1  0
 26 56  1  0
 27 57  1  0
 27 58  1  0
 29 59  1  0
 29 60  1  0
 29 61  1  0
 30 62  1  0
 30 63  1  0
 30 64  1  0
M  CHG  2   2   1  28   1
A    1
CAC
A    2
NAA
A    3
CBA
A    4
CBB
A    5
CAB
A    6
CAF
A    7
OAE
A    8
CAD
A    9
OBC
A   10
CAG
A   11
CAL
A   12
CAK
A   13
CAH
A   14
CAI
A   15
CAJ
A   16
CAM
A   17
CAR
A   18
CAQ
A   19
CAN
A   20
CAO
A   21
CAP
A   22
CAS
A   23
OBD
A   24
CAX
A   25
OAT
A   26
CAU
A   27
CAV
A   28
NAW
A   29
CAZ
A   30
CAY
M  END
