2EEX_CE5_A_800
     RDKit          3D

108112  0  0  0  0  0  0  0  0999 V2000
   12.4720   43.7650   -9.5600 O   0  0  0  0  0  0  0  0  0  0  0  0
   13.6750   44.5280   -9.4260 C   0  0  0  0  0  0  0  0  0  0  0  0
   14.7840   43.9070  -10.2770 C   0  0  0  0  0  0  0  0  0  0  0  0
   14.4350   44.0190  -11.6590 O   0  0  0  0  0  0  0  0  0  0  0  0
   16.0920   44.6580  -10.0230 C   0  0  0  0  0  0  0  0  0  0  0  0
   17.1590   44.0170  -10.7270 O   0  0  0  0  0  0  0  0  0  0  0  0
   16.3930   44.6670   -8.5230 C   0  0  0  0  0  0  0  0  0  0  0  0
   17.7070   45.4070   -8.2670 C   0  0  0  0  0  0  0  0  0  0  0  0
   18.0000   45.3900   -6.8670 O   0  0  0  0  0  0  0  0  0  0  0  0
   15.3210   45.3210   -7.8250 O   0  0  0  0  0  0  0  0  0  0  0  0
   14.0900   44.5910   -7.9550 C   0  0  0  0  0  0  0  0  0  0  0  0
   13.0560   45.2760   -7.2330 O   0  0  0  0  0  0  0  0  0  0  0  0
   13.2140   45.0810   -5.8200 C   0  0  0  0  0  0  0  0  0  0  0  0
   11.9930   44.3600   -5.2680 C   0  0  0  0  0  0  0  0  0  0  0  0
   12.1220   44.1570   -3.8520 O   0  0  0  0  0  0  0  0  0  0  0  0
   11.8460   43.0020   -5.9570 C   0  0  0  0  0  0  0  0  0  0  0  0
   13.0100   42.2130   -5.6920 O   0  0  0  0  0  0  0  0  0  0  0  0
   13.3450   46.4320   -5.1160 C   0  0  0  0  0  0  0  0  0  0  0  0
   14.5500   47.0800   -5.5350 O   0  0  0  0  0  0  0  0  0  0  0  0
   13.3910   46.2130   -3.6050 C   0  0  0  0  0  0  0  0  0  0  0  0
   13.3900   47.4800   -2.9420 O   0  0  0  0  0  0  0  0  0  0  0  0
   12.1710   45.4080   -3.1480 C   0  0  0  0  0  0  0  0  0  0  0  0
   12.3220   45.1880   -1.7400 O   0  0  0  0  0  0  0  0  0  0  0  0
   11.1320   44.6740   -1.1220 C   0  0  0  0  0  0  0  0  0  0  0  0
   11.0570   45.2710    0.2760 C   0  0  0  0  0  0  0  0  0  0  0  0
    9.9840   44.7100    1.0470 O   0  0  0  0  0  0  0  0  0  0  0  0
   10.8740   46.7870    0.1760 C   0  0  0  0  0  0  0  0  0  0  0  0
    9.6450   47.0740   -0.4960 O   0  0  0  0  0  0  0  0  0  0  0  0
   11.1810   43.1460   -1.0610 C   0  0  0  0  0  0  0  0  0  0  0  0
   10.9810   42.5960   -2.3670 O   0  0  0  0  0  0  0  0  0  0  0  0
   10.0820   42.6200   -0.1370 C   0  0  0  0  0  0  0  0  0  0  0  0
   10.2300   41.2070    0.0320 O   0  0  0  0  0  0  0  0  0  0  0  0
   10.1930   43.3020    1.2260 C   0  0  0  0  0  0  0  0  0  0  0  0
    9.1720   42.7630    2.0760 O   0  0  0  0  0  0  0  0  0  0  0  0
    9.3550   43.1850    3.4330 C   0  0  0  0  0  0  0  0  0  0  0  0
    9.2390   41.9610    4.3290 C   0  0  0  0  0  0  0  0  0  0  0  0
    9.1760   42.2980    5.7220 O   0  0  0  0  0  0  0  0  0  0  0  0
   10.4350   41.0440    4.0650 C   0  0  0  0  0  0  0  0  0  0  0  0
   10.3570   39.8980    4.9160 O   0  0  0  0  0  0  0  0  0  0  0  0
    8.3110   44.2500    3.7780 C   0  0  0  0  0  0  0  0  0  0  0  0
    8.6520   45.4780    3.1300 O   0  0  0  0  0  0  0  0  0  0  0  0
    8.2710   44.4810    5.2880 C   0  0  0  0  0  0  0  0  0  0  0  0
    7.1920   45.3640    5.6070 O   0  0  0  0  0  0  0  0  0  0  0  0
    8.0410   43.1360    5.9780 C   0  0  0  0  0  0  0  0  0  0  0  0
    7.8930   43.3480    7.3880 O   0  0  0  0  0  0  0  0  0  0  0  0
    6.9020   42.4460    7.9040 C   0  0  0  0  0  0  0  0  0  0  0  0
    7.5560   41.1630    8.4190 C   0  0  0  0  0  0  0  0  0  0  0  0
    8.1420   40.4450    7.3300 O   0  0  0  0  0  0  0  0  0  0  0  0
    6.5010   40.2890    9.0990 C   0  0  0  0  0  0  0  0  0  0  0  0
    7.1230   39.1340    9.6680 O   0  0  0  0  0  0  0  0  0  0  0  0
    5.8120   41.0970   10.2010 C   0  0  0  0  0  0  0  0  0  0  0  0
    4.8040   40.3000   10.8250 O   0  0  0  0  0  0  0  0  0  0  0  0
    5.1880   42.2510    9.6210 O   0  0  0  0  0  0  0  0  0  0  0  0
    6.1750   43.1260    9.0530 C   0  0  0  0  0  0  0  0  0  0  0  0
    5.4840   44.3880    8.5350 C   0  0  0  0  0  0  0  0  0  0  0  0
    4.7750   45.0130    9.6070 O   0  0  0  0  0  0  0  0  0  0  0  0
   12.1207   43.5422   -8.6616 H   0  0  0  0  0  0  0  0  0  0  0  0
   13.4974   45.5536   -9.7819 H   0  0  0  0  0  0  0  0  0  0  0  0
   14.9079   42.8467  -10.0116 H   0  0  0  0  0  0  0  0  0  0  0  0
   13.4954   44.3205  -11.7387 H   0  0  0  0  0  0  0  0  0  0  0  0
   15.9947   45.6938  -10.3804 H   0  0  0  0  0  0  0  0  0  0  0  0
   17.7991   43.6325  -10.0770 H   0  0  0  0  0  0  0  0  0  0  0  0
   16.4860   43.6327   -8.1603 H   0  0  0  0  0  0  0  0  0  0  0  0
   18.5201   44.9113   -8.8176 H   0  0  0  0  0  0  0  0  0  0  0  0
   17.6135   46.4483   -8.6090 H   0  0  0  0  0  0  0  0  0  0  0  0
   17.1556   45.4390   -6.3525 H   0  0  0  0  0  0  0  0  0  0  0  0
   14.2354   43.5751   -7.5589 H   0  0  0  0  0  0  0  0  0  0  0  0
   14.1202   44.4830   -5.6431 H   0  0  0  0  0  0  0  0  0  0  0  0
   11.1047   44.9794   -5.4607 H   0  0  0  0  0  0  0  0  0  0  0  0
   10.9554   42.4864   -5.5683 H   0  0  0  0  0  0  0  0  0  0  0  0
   11.7364   43.1473   -7.0418 H   0  0  0  0  0  0  0  0  0  0  0  0
   13.1354   42.1280   -4.7137 H   0  0  0  0  0  0  0  0  0  0  0  0
   12.4815   47.0622   -5.3751 H   0  0  0  0  0  0  0  0  0  0  0  0
   15.0686   47.3589   -4.7392 H   0  0  0  0  0  0  0  0  0  0  0  0
   14.3058   45.6561   -3.3539 H   0  0  0  0  0  0  0  0  0  0  0  0
   13.3901   47.3396   -1.9620 H   0  0  0  0  0  0  0  0  0  0  0  0
   11.2347   45.9461   -3.3572 H   0  0  0  0  0  0  0  0  0  0  0  0
   10.2390   44.9475   -1.7032 H   0  0  0  0  0  0  0  0  0  0  0  0
   11.9992   45.0318    0.7907 H   0  0  0  0  0  0  0  0  0  0  0  0
   10.8498   47.2211    1.1864 H   0  0  0  0  0  0  0  0  0  0  0  0
   11.7118   47.2216   -0.3890 H   0  0  0  0  0  0  0  0  0  0  0  0
    8.9342   47.2400    0.1728 H   0  0  0  0  0  0  0  0  0  0  0  0
   12.1668   42.8467   -0.6756 H   0  0  0  0  0  0  0  0  0  0  0  0
   10.6438   41.6687   -2.2865 H   0  0  0  0  0  0  0  0  0  0  0  0
    9.0998   42.8366   -0.5824 H   0  0  0  0  0  0  0  0  0  0  0  0
   10.2527   40.9907    0.9978 H   0  0  0  0  0  0  0  0  0  0  0  0
   11.1821   43.1328    1.6765 H   0  0  0  0  0  0  0  0  0  0  0  0
   10.3470   43.6366    3.5816 H   0  0  0  0  0  0  0  0  0  0  0  0
    8.2953   41.4507    4.0861 H   0  0  0  0  0  0  0  0  0  0  0  0
   10.4236   40.7208    3.0136 H   0  0  0  0  0  0  0  0  0  0  0  0
   11.3671   41.5902    4.2720 H   0  0  0  0  0  0  0  0  0  0  0  0
   10.3767   40.1878    5.8624 H   0  0  0  0  0  0  0  0  0  0  0  0
    7.3245   43.9033    3.4365 H   0  0  0  0  0  0  0  0  0  0  0  0
    8.8439   46.1690    3.8124 H   0  0  0  0  0  0  0  0  0  0  0  0
    9.2181   44.9266    5.6263 H   0  0  0  0  0  0  0  0  0  0  0  0
    7.1042   45.4359    6.5905 H   0  0  0  0  0  0  0  0  0  0  0  0
    7.1297   42.6546    5.5936 H   0  0  0  0  0  0  0  0  0  0  0  0
    6.1994   42.1861    7.0985 H   0  0  0  0  0  0  0  0  0  0  0  0
    8.3410   41.4233    9.1442 H   0  0  0  0  0  0  0  0  0  0  0  0
    8.7267   39.7286    7.6836 H   0  0  0  0  0  0  0  0  0  0  0  0
    5.7566   39.9671    8.3558 H   0  0  0  0  0  0  0  0  0  0  0  0
    7.0904   39.1945   10.6556 H   0  0  0  0  0  0  0  0  0  0  0  0
    6.5608   41.4022   10.9468 H   0  0  0  0  0  0  0  0  0  0  0  0
    4.8910   40.3688   11.8088 H   0  0  0  0  0  0  0  0  0  0  0  0
    6.9098   43.3832    9.8301 H   0  0  0  0  0  0  0  0  0  0  0  0
    6.2385   45.0836    8.1388 H   0  0  0  0  0  0  0  0  0  0  0  0
    4.7790   44.1195    7.7344 H   0  0  0  0  0  0  0  0  0  0  0  0
    5.1365   44.6943   10.4718 H   0  0  0  0  0  0  0  0  0  0  0  0
  1  2  1  0
  2  3  1  0
  2 11  1  0
  3  4  1  0
  3  5  1  0
  5  6  1  0
  5  7  1  0
  7  8  1  0
  7 10  1  0
  8  9  1  0
 10 11  1  0
 11 12  1  0
 12 13  1  0
 13 14  1  0
 13 18  1  0
 14 16  1  0
 14 15  1  0
 15 22  1  0
 16 17  1  0
 18 19  1  0
 18 20  1  0
 20 22  1  0
 20 21  1  0
 22 23  1  0
 23 24  1  0
 24 29  1  0
 24 25  1  0
 25 27  1  0
 25 26  1  0
 26 33  1  0
 27 28  1  0
 29 30  1  0
 29 31  1  0
 31 32  1  0
 31 33  1  0
 33 34  1  0
 34 35  1  0
 35 40  1  0
 35 36  1  0
 36 38  1  0
 36 37  1  0
 37 44  1  0
 38 39  1  0
 40 41  1  0
 40 42  1  0
 42 43  1  0
 42 44  1  0
 44 45  1  0
 45 46  1  0
 46 47  1  0
 46 54  1  0
 47 48  1  0
 47 49  1  0
 49 50  1  0
 49 51  1  0
 51 53  1  0
 51 52  1  0
 53 54  1  0
 54 55  1  0
 55 56  1  0
  1 57  1  0
  2 58  1  0
  3 59  1  0
  4 60  1  0
  5 61  1  0
  6 62  1  0
  7 63  1  0
  8 64  1  0
  8 65  1  0
  9 66  1  0
 11 67  1  0
 13 68  1  0
 14 69  1  0
 16 70  1  0
 16 71  1  0
 17 72  1  0
 18 73  1  0
 19 74  1  0
 20 75  1  0
 21 76  1  0
 22 77  1  0
 24 78  1  0
 25 79  1  0
 27 80  1  0
 27 81  1  0
 28 82  1  0
 29 83  1  0
 30 84  1  0
 31 85  1  0
 32 86  1  0
 33 87  1  0
 35 88  1  0
 36 89  1  0
 38 90  1  0
 38 91  1  0
 39 92  1  0
 40 93  1  0
 41 94  1  0
 42 95  1  0
 43 96  1  0
 44 97  1  0
 46 98  1  0
 47 99  1  0
 48100  1  0
 49101  1  0
 50102  1  0
 51103  1  0
 52104  1  0
 54105  1  0
 55106  1  0
 55107  1  0
 56108  1  0
A    1
O2E
A    2
C2E
A    3
C3E
A    4
O3E
A    5
C4E
A    6
O4E
A    7
C5E
A    8
C6E
A    9
O6E
A   10
O5E
A   11
C1E
A   12
O4D
A   13
C4D
A   14
C5D
A   15
O5D
A   16
C6D
A   17
O6D
A   18
C3D
A   19
O3D
A   20
C2D
A   21
O2D
A   22
C1D
A   23
O4C
A   24
C4C
A   25
C5C
A   26
O5C
A   27
C6C
A   28
O6C
A   29
C3C
A   30
O3C
A   31
C2C
A   32
O2C
A   33
C1C
A   34
O4B
A   35
C4B
A   36
C5B
A   37
O5B
A   38
C6B
A   39
O6B
A   40
C3B
A   41
O3B
A   42
C2B
A   43
O2B
A   44
C1B
A   45
O4A
A   46
C4A
A   47
C3A
A   48
O3A
A   49
C2A
A   50
O2A
A   51
C1A
A   52
O1A
A   53
O5A
A   54
C5A
A   55
C6A
A   56
O6A
M  END
