3F66_IHX_A_1
     RDKit          3D

 47 50  0  0  0  0  0  0  0  0999 V2000
   -1.2730  -19.8400   31.0320 C   0  0  0  0  0  0  0  0  0  0  0  0
   -1.3350  -21.2170   30.9190 C   0  0  0  0  0  0  0  0  0  0  0  0
   -1.3180  -19.0680   29.8830 C   0  0  0  0  0  0  0  0  0  0  0  0
   -1.4740  -21.8150   29.6760 C   0  0  0  0  0  0  0  0  0  0  0  0
   -1.4340  -19.6750   28.6330 C   0  0  0  0  0  0  0  0  0  0  0  0
   -1.5140  -21.0620   28.5160 C   0  0  0  0  0  0  0  0  0  0  0  0
   -1.5620  -23.2760   29.6370 C   0  0  0  0  0  0  0  0  0  0  0  0
   -0.8940  -24.0720   28.7190 C   0  0  0  0  0  0  0  0  0  0  0  0
   -2.4040  -23.8800   30.5600 C   0  0  0  0  0  0  0  0  0  0  0  0
   -2.5700  -25.2610   30.5600 C   0  0  0  0  0  0  0  0  0  0  0  0
    0.6150  -24.3380   26.9130 C   0  0  0  0  0  0  0  0  0  0  0  0
    0.4480  -25.7090   27.0320 C   0  0  0  0  0  0  0  0  0  0  0  0
    1.4250  -23.7200   25.9600 N   0  0  0  0  0  0  0  0  0  0  0  0
    3.4040  -23.8820   24.4200 C   0  0  0  0  0  0  0  0  0  0  0  0
    1.5200  -22.2460   25.9290 C   0  0  0  0  0  0  0  0  0  0  0  0
   -4.5530  -25.1880   31.8050 F   0  0  0  0  0  0  0  0  0  0  0  0
   -3.4430  -25.8770   31.6180 C   0  0  0  0  0  0  0  0  0  0  0  0
   -2.7630  -25.7790   32.7710 F   0  0  0  0  0  0  0  0  0  0  0  0
   -3.7730  -27.1450   31.3940 F   0  0  0  0  0  0  0  0  0  0  0  0
   -1.4640  -18.9110   27.5140 O   0  0  0  0  0  0  0  0  0  0  0  0
   -1.8970  -26.0450   29.6890 C   0  0  0  0  0  0  0  0  0  0  0  0
   -1.0550  -25.4600   28.7760 C   0  0  0  0  0  0  0  0  0  0  0  0
   -0.3800  -26.2800   27.9430 N   0  0  0  0  0  0  0  0  0  0  0  0
   -0.0500  -23.5130   27.7810 N   0  0  0  0  0  0  0  0  0  0  0  0
    2.7810  -21.6770   25.2400 C   0  0  0  0  0  0  0  0  0  0  0  0
    3.2360  -22.4640   24.0730 N   0  0  0  0  0  0  0  0  0  0  0  0
    4.5280  -21.9420   23.6090 C   0  0  0  0  0  0  0  0  0  0  0  0
    2.0680  -24.4680   24.8500 C   0  0  0  0  0  0  0  0  0  0  0  0
   -1.1891  -19.3647   32.0204 H   0  0  0  0  0  0  0  0  0  0  0  0
   -1.2736  -21.8423   31.8219 H   0  0  0  0  0  0  0  0  0  0  0  0
   -1.2620  -17.9719   29.9568 H   0  0  0  0  0  0  0  0  0  0  0  0
   -1.6061  -21.5431   27.5311 H   0  0  0  0  0  0  0  0  0  0  0  0
   -2.9426  -23.2638   31.2950 H   0  0  0  0  0  0  0  0  0  0  0  0
    1.0141  -26.3659   26.3552 H   0  0  0  0  0  0  0  0  0  0  0  0
    3.7784  -24.4308   23.5433 H   0  0  0  0  0  0  0  0  0  0  0  0
    4.1233  -23.9711   25.2475 H   0  0  0  0  0  0  0  0  0  0  0  0
    0.6387  -21.8603   25.3956 H   0  0  0  0  0  0  0  0  0  0  0  0
    1.5773  -21.9240   26.9792 H   0  0  0  0  0  0  0  0  0  0  0  0
   -1.5027  -17.9246   27.5890 H   0  0  0  0  0  0  0  0  0  0  0  0
   -2.0222  -27.1376   29.7113 H   0  0  0  0  0  0  0  0  0  0  0  0
    2.5587  -20.6541   24.9019 H   0  0  0  0  0  0  0  0  0  0  0  0
    3.5920  -21.7109   25.9824 H   0  0  0  0  0  0  0  0  0  0  0  0
    5.1543  -21.6889   24.4771 H   0  0  0  0  0  0  0  0  0  0  0  0
    5.0351  -22.7058   23.0012 H   0  0  0  0  0  0  0  0  0  0  0  0
    4.3622  -21.0403   23.0012 H   0  0  0  0  0  0  0  0  0  0  0  0
    2.2316  -25.5053   25.1775 H   0  0  0  0  0  0  0  0  0  0  0  0
    1.3930  -24.4067   23.9837 H   0  0  0  0  0  0  0  0  0  0  0  0
  1  2  2  0
  1  3  1  0
  2  4  1  0
  3  5  2  0
  4  6  2  0
  4  7  1  0
  5  6  1  0
  5 20  1  0
  7  8  1  0
  7  9  2  0
  8 22  2  0
  8 24  1  0
  9 10  1  0
 10 17  1  0
 10 21  2  0
 11 12  1  0
 11 13  1  0
 11 24  2  0
 12 23  2  0
 13 15  1  0
 13 28  1  0
 14 26  1  0
 14 28  1  0
 15 25  1  0
 16 17  1  0
 17 18  1  0
 17 19  1  0
 21 22  1  0
 22 23  1  0
 25 26  1  0
 26 27  1  0
  1 29  1  0
  2 30  1  0
  3 31  1  0
  6 32  1  0
  9 33  1  0
 12 34  1  0
 14 35  1  0
 14 36  1  0
 15 37  1  0
 15 38  1  0
 20 39  1  0
 21 40  1  0
 25 41  1  0
 25 42  1  0
 27 43  1  0
 27 44  1  0
 27 45  1  0
 28 46  1  0
 28 47  1  0
A    1
C1
A    2
C2
A    3
C3
A    4
C4
A    5
C5
A    6
C6
A    7
C7
A    8
C8
A    9
C11
A   10
C12
A   11
C18
A   12
C19
A   13
N22
A   14
C24
A   15
C27
A   16
F17
A   17
C14
A   18
F15
A   19
F16
A   20
O13
A   21
C10
A   22
C9
A   23
N21
A   24
N20
A   25
C25
A   26
N23
A   27
C28
A   28
C26
M  END
