2CBI_GBL_A_1627
     RDKit          3D

 12 12  0  0  0  0  0  0  0  0999 V2000
   57.3480   -0.9930   62.0290 C   0  0  0  0  0  0  0  0  0  0  0  0
   57.9930    0.3340   61.7920 C   0  0  0  0  0  0  0  0  0  0  0  0
   57.4240    1.4030   61.9830 O   0  0  0  0  0  0  0  0  0  0  0  0
   58.3760   -1.9650   61.4190 C   0  0  0  0  0  0  0  0  0  0  0  0
   59.6660   -1.1770   61.3460 C   0  0  0  0  0  0  0  0  0  0  0  0
   59.2830    0.2320   61.3260 O   0  0  0  0  0  0  0  0  0  0  0  0
   57.2078   -1.1826   63.1034 H   0  0  0  0  0  0  0  0  0  0  0  0
   56.3424   -1.0807   61.5919 H   0  0  0  0  0  0  0  0  0  0  0  0
   58.4994   -2.8498   62.0608 H   0  0  0  0  0  0  0  0  0  0  0  0
   58.0607   -2.3332   60.4316 H   0  0  0  0  0  0  0  0  0  0  0  0
   60.2926   -1.3893   62.2248 H   0  0  0  0  0  0  0  0  0  0  0  0
   60.2497   -1.4461   60.4533 H   0  0  0  0  0  0  0  0  0  0  0  0
  1  2  1  0
  1  4  1  0
  2  3  2  0
  2  6  1  0
  4  5  1  0
  5  6  1  0
  1  7  1  0
  1  8  1  0
  4  9  1  0
  4 10  1  0
  5 11  1  0
  5 12  1  0
A    1
CA
A    2
C
A    3
O
A    4
CB
A    5
CG
A    6
OD
M  END
