3F7B_AG5_A_302
     RDKit          3D

 47 49  0  0  0  0  0  0  0  0999 V2000
  -53.4040  -62.2710    5.6680 O   0  0  0  0  0  0  0  0  0  0  0  0
  -52.4270  -62.9370    5.2580 C   0  0  0  0  0  0  0  0  0  0  0  0
  -52.6110  -64.1860    4.7250 N   0  0  0  0  0  0  0  0  0  0  0  0
  -53.9380  -64.8760    4.6420 C   0  0  0  0  0  0  0  0  0  0  0  0
  -54.3440  -65.4740    5.9960 C   0  0  0  0  0  0  0  0  0  0  0  0
  -53.1530  -66.0220    6.8030 C   0  0  0  0  0  0  0  0  0  0  0  0
  -52.5430  -65.2000    7.6680 C   0  0  0  0  0  0  0  0  0  0  0  0
  -51.4880  -65.6160    8.3660 C   0  0  0  0  0  0  0  0  0  0  0  0
  -50.9520  -66.8520    8.2310 C   0  0  0  0  0  0  0  0  0  0  0  0
  -51.5540  -67.7360    7.3820 C   0  0  0  0  0  0  0  0  0  0  0  0
  -52.6650  -67.2870    6.6670 C   0  0  0  0  0  0  0  0  0  0  0  0
  -51.0330  -62.3260    5.2850 C   0  0  0  0  0  0  0  0  0  0  0  0
  -49.8600  -63.0710    5.3730 C   0  0  0  0  0  0  0  0  0  0  0  0
  -50.9740  -60.9450    5.0790 C   0  0  0  0  0  0  0  0  0  0  0  0
  -49.8310  -60.3190    5.0570 N   0  0  0  0  0  0  0  0  0  0  0  0
  -48.7000  -60.9940    5.2100 C   0  0  0  0  0  0  0  0  0  0  0  0
  -48.6950  -62.3600    5.3970 C   0  0  0  0  0  0  0  0  0  0  0  0
  -47.1010  -63.1280    5.5880 S   0  0  0  0  0  0  0  0  0  0  0  0
  -46.5410  -63.0810    4.2480 O   0  0  0  0  0  0  0  0  0  0  0  0
  -46.4500  -62.4200    6.6570 O   0  0  0  0  0  0  0  0  0  0  0  0
  -47.3530  -64.7470    6.0440 N   0  0  0  0  0  0  0  0  0  0  0  0
  -52.4770  -60.0170    4.8350 S   0  0  0  0  0  0  0  0  0  0  0  0
  -52.0820  -58.3510    4.5350 C   0  0  0  0  0  0  0  0  0  0  0  0
  -51.4040  -58.0270    3.3540 C   0  0  0  0  0  0  0  0  0  0  0  0
  -51.1230  -56.6970    3.0900 C   0  0  0  0  0  0  0  0  0  0  0  0
  -51.5000  -55.7090    4.0090 C   0  0  0  0  0  0  0  0  0  0  0  0
  -52.1710  -56.0470    5.1910 C   0  0  0  0  0  0  0  0  0  0  0  0
  -52.4910  -57.3830    5.4710 C   0  0  0  0  0  0  0  0  0  0  0  0
  -51.7855  -64.6812    4.3587 H   0  0  0  0  0  0  0  0  0  0  0  0
  -54.7010  -64.1480    4.3291 H   0  0  0  0  0  0  0  0  0  0  0  0
  -53.8573  -65.6950    3.9121 H   0  0  0  0  0  0  0  0  0  0  0  0
  -54.8367  -64.6901    6.5899 H   0  0  0  0  0  0  0  0  0  0  0  0
  -55.0142  -66.3214    5.7894 H   0  0  0  0  0  0  0  0  0  0  0  0
  -52.9165  -64.1741    7.8024 H   0  0  0  0  0  0  0  0  0  0  0  0
  -51.0302  -64.9224    9.0866 H   0  0  0  0  0  0  0  0  0  0  0  0
  -50.0508  -67.1380    8.7932 H   0  0  0  0  0  0  0  0  0  0  0  0
  -51.1774  -68.7630    7.2661 H   0  0  0  0  0  0  0  0  0  0  0  0
  -53.1634  -67.9772    5.9704 H   0  0  0  0  0  0  0  0  0  0  0  0
  -49.8715  -64.1699    5.4205 H   0  0  0  0  0  0  0  0  0  0  0  0
  -47.7434  -60.4515    5.1872 H   0  0  0  0  0  0  0  0  0  0  0  0
  -47.3638  -64.8166    7.0716 H   0  0  0  0  0  0  0  0  0  0  0  0
  -48.2549  -65.0731    5.6683 H   0  0  0  0  0  0  0  0  0  0  0  0
  -51.1000  -58.8144    2.6486 H   0  0  0  0  0  0  0  0  0  0  0  0
  -50.6050  -56.4169    2.1609 H   0  0  0  0  0  0  0  0  0  0  0  0
  -51.2661  -54.6547    3.7996 H   0  0  0  0  0  0  0  0  0  0  0  0
  -52.4491  -55.2580    5.9053 H   0  0  0  0  0  0  0  0  0  0  0  0
  -53.0383  -57.6626    6.3833 H   0  0  0  0  0  0  0  0  0  0  0  0
  1  2  2  0
  2  3  1  0
  2 12  1  0
  3  4  1  0
  4  5  1  0
  5  6  1  0
  6  7  2  0
  6 11  1  0
  7  8  1  0
  8  9  2  0
  9 10  1  0
 10 11  2  0
 12 13  2  0
 12 14  1  0
 13 17  1  0
 14 15  2  0
 14 22  1  0
 15 16  1  0
 16 17  2  0
 17 18  1  0
 18 19  2  0
 18 20  2  0
 18 21  1  0
 22 23  1  0
 23 24  2  0
 23 28  1  0
 24 25  1  0
 25 26  2  0
 26 27  1  0
 27 28  2  0
  3 29  1  0
  4 30  1  0
  4 31  1  0
  5 32  1  0
  5 33  1  0
  7 34  1  0
  8 35  1  0
  9 36  1  0
 10 37  1  0
 11 38  1  0
 13 39  1  0
 16 40  1  0
 21 41  1  0
 21 42  1  0
 24 43  1  0
 25 44  1  0
 26 45  1  0
 27 46  1  0
 28 47  1  0
A    1
O14
A    2
C1
A    3
N15
A    4
C16
A    5
C17
A    6
C18
A    7
C24
A    8
C25
A    9
C26
A   10
C27
A   11
C28
A   12
C6
A   13
C7
A   14
C5
A   15
N4
A   16
C3
A   17
C2
A   18
S8
A   19
O11
A   20
O12
A   21
N9
A   22
S10
A   23
C13
A   24
C19
A   25
C20
A   26
C21
A   27
C22
A   28
C23
M  END
