3F7I_G13_A_1
     RDKit          3D

 73 76  0  0  0  0  0  0  0  0999 V2000
   75.6050   61.0330   15.5380 O   0  0  0  0  0  0  0  0  0  0  0  0
   75.8890   62.0910   16.0720 C   0  0  0  0  0  0  0  0  0  0  0  0
   75.4480   62.3850   17.4890 C   0  0  0  0  0  0  0  0  0  0  0  0
   76.4370   62.7600   18.3930 C   0  0  0  0  0  0  0  0  0  0  0  0
   76.1240   63.0660   19.7170 C   0  0  0  0  0  0  0  0  0  0  0  0
   74.8000   62.9990   20.1410 C   0  0  0  0  0  0  0  0  0  0  0  0
   73.8030   62.6310   19.2380 C   0  0  0  0  0  0  0  0  0  0  0  0
   72.4830   62.5710   19.6830 C   0  0  0  0  0  0  0  0  0  0  0  0
   74.1160   62.3260   17.9120 C   0  0  0  0  0  0  0  0  0  0  0  0
   73.0820   61.9610   17.0380 C   0  0  0  0  0  0  0  0  0  0  0  0
   71.7640   61.9030   17.4860 C   0  0  0  0  0  0  0  0  0  0  0  0
   71.4620   62.2070   18.8100 C   0  0  0  0  0  0  0  0  0  0  0  0
   76.5930   63.0400   15.4490 N   0  0  0  0  0  0  0  0  0  0  0  0
   77.3110   62.8560   14.2020 C   0  0  0  0  0  0  0  0  0  0  0  0
   78.5740   63.7180   14.2000 C   0  0  0  0  0  0  0  0  0  0  0  0
   78.3230   64.9030   13.2880 C   0  0  0  0  0  0  0  0  0  0  0  0
   77.0360   64.6260   12.5160 C   0  0  0  0  0  0  0  0  0  0  0  0
   76.4460   63.3210   13.0430 C   0  0  0  0  0  0  0  0  0  0  0  0
   79.5300   65.0110   12.3800 C   0  0  0  0  0  0  0  0  0  0  0  0
   80.1300   63.6170   12.3500 C   0  0  0  0  0  0  0  0  0  0  0  0
   79.7220   63.0090   13.6160 N   0  0  0  0  0  0  0  0  0  0  0  0
   80.2750   61.9800   14.2710 C   0  0  0  0  0  0  0  0  0  0  0  0
   79.8970   61.6720   15.3930 O   0  0  0  0  0  0  0  0  0  0  0  0
   81.3950   61.1890   13.6420 C   0  0  0  0  0  0  0  0  0  0  0  0
   80.8600   59.9620   12.8930 C   0  0  0  0  0  0  0  0  0  0  0  0
   79.9820   60.4060   11.7290 C   0  0  0  0  0  0  0  0  0  0  0  0
   80.0280   59.0690   13.8070 C   0  0  0  0  0  0  0  0  0  0  0  0
   82.0090   59.1490   12.3040 C   0  0  0  0  0  0  0  0  0  0  0  0
   82.3420   60.7950   14.6760 N   0  0  0  0  0  0  0  0  0  0  0  0
   83.6660   60.8280   14.5370 C   0  0  0  0  0  0  0  0  0  0  0  0
   84.2240   61.2350   13.5300 O   0  0  0  0  0  0  0  0  0  0  0  0
   84.4640   60.2990   15.6980 C   0  0  0  0  0  0  0  0  0  0  0  0
   84.5920   61.3500   16.7970 C   0  0  0  0  0  0  0  0  0  0  0  0
   85.7750   59.8490   15.2740 N   0  0  0  0  0  0  0  0  0  0  0  0
   85.8940   58.6740   14.4260 C   0  0  0  0  0  0  0  0  0  0  0  0
   77.4832   62.8160   18.0577 H   0  0  0  0  0  0  0  0  0  0  0  0
   76.9173   63.3581   20.4208 H   0  0  0  0  0  0  0  0  0  0  0  0
   74.5412   63.2353   21.1837 H   0  0  0  0  0  0  0  0  0  0  0  0
   72.2472   62.8127   20.7299 H   0  0  0  0  0  0  0  0  0  0  0  0
   73.3133   61.7185   15.9903 H   0  0  0  0  0  0  0  0  0  0  0  0
   70.9604   61.6163   16.7917 H   0  0  0  0  0  0  0  0  0  0  0  0
   70.4218   62.1599   19.1647 H   0  0  0  0  0  0  0  0  0  0  0  0
   76.6287   63.9717   15.8866 H   0  0  0  0  0  0  0  0  0  0  0  0
   77.5658   61.7908   14.1001 H   0  0  0  0  0  0  0  0  0  0  0  0
   78.7941   63.9942   15.2418 H   0  0  0  0  0  0  0  0  0  0  0  0
   78.1957   65.8542   13.8256 H   0  0  0  0  0  0  0  0  0  0  0  0
   76.3224   65.4486   12.6712 H   0  0  0  0  0  0  0  0  0  0  0  0
   77.2444   64.5455   11.4389 H   0  0  0  0  0  0  0  0  0  0  0  0
   76.4466   62.5616   12.2472 H   0  0  0  0  0  0  0  0  0  0  0  0
   75.4085   63.4743   13.3747 H   0  0  0  0  0  0  0  0  0  0  0  0
   79.2262   65.3223   11.3696 H   0  0  0  0  0  0  0  0  0  0  0  0
   80.2497   65.7612   12.7395 H   0  0  0  0  0  0  0  0  0  0  0  0
   79.7347   63.0429   11.4990 H   0  0  0  0  0  0  0  0  0  0  0  0
   81.2234   63.6374   12.2318 H   0  0  0  0  0  0  0  0  0  0  0  0
   81.9062   61.8220   12.9018 H   0  0  0  0  0  0  0  0  0  0  0  0
   79.0640   60.8702   12.1185 H   0  0  0  0  0  0  0  0  0  0  0  0
   80.5295   61.1356   11.1142 H   0  0  0  0  0  0  0  0  0  0  0  0
   79.7189   59.5326   11.1142 H   0  0  0  0  0  0  0  0  0  0  0  0
   80.2517   59.3091   14.8569 H   0  0  0  0  0  0  0  0  0  0  0  0
   78.9589   59.2391   13.6117 H   0  0  0  0  0  0  0  0  0  0  0  0
   80.2732   58.0146   13.6117 H   0  0  0  0  0  0  0  0  0  0  0  0
   82.6119   58.7224   13.1192 H   0  0  0  0  0  0  0  0  0  0  0  0
   81.6029   58.3361   11.6841 H   0  0  0  0  0  0  0  0  0  0  0  0
   82.6405   59.8024   11.6841 H   0  0  0  0  0  0  0  0  0  0  0  0
   81.9618   60.4687   15.5759 H   0  0  0  0  0  0  0  0  0  0  0  0
   83.9209   59.4337   16.1057 H   0  0  0  0  0  0  0  0  0  0  0  0
   84.5325   60.8611   17.7806 H   0  0  0  0  0  0  0  0  0  0  0  0
   85.5595   61.8646   16.7013 H   0  0  0  0  0  0  0  0  0  0  0  0
   83.7763   62.0818   16.7013 H   0  0  0  0  0  0  0  0  0  0  0  0
   86.2084   60.6312   14.7630 H   0  0  0  0  0  0  0  0  0  0  0  0
   85.9850   57.7759   15.0546 H   0  0  0  0  0  0  0  0  0  0  0  0
   85.0000   58.5881   13.7909 H   0  0  0  0  0  0  0  0  0  0  0  0
   86.7871   58.7691   13.7909 H   0  0  0  0  0  0  0  0  0  0  0  0
  1  2  2  0
  2  3  1  0
  2 13  1  0
  3  4  2  0
  3  9  1  0
  4  5  1  0
  5  6  2  0
  6  7  1  0
  7  8  1  0
  7  9  2  0
  8 12  2  0
  9 10  1  0
 10 11  2  0
 11 12  1  0
 13 14  1  0
 14 15  1  0
 14 18  1  0
 15 16  1  0
 15 21  1  0
 16 17  1  0
 16 19  1  0
 17 18  1  0
 19 20  1  0
 20 21  1  0
 21 22  1  0
 22 23  2  0
 22 24  1  0
 24 25  1  0
 24 29  1  0
 25 26  1  0
 25 27  1  0
 25 28  1  0
 29 30  1  0
 30 31  2  0
 30 32  1  0
 32 33  1  0
 32 34  1  0
 34 35  1  0
  4 36  1  0
  5 37  1  0
  6 38  1  0
  8 39  1  0
 10 40  1  0
 11 41  1  0
 12 42  1  0
 13 43  1  0
 14 44  1  0
 15 45  1  0
 16 46  1  0
 17 47  1  0
 17 48  1  0
 18 49  1  0
 18 50  1  0
 19 51  1  0
 19 52  1  0
 20 53  1  0
 20 54  1  0
 24 55  1  0
 26 56  1  0
 26 57  1  0
 26 58  1  0
 27 59  1  0
 27 60  1  0
 27 61  1  0
 28 62  1  0
 28 63  1  0
 28 64  1  0
 29 65  1  0
 32 66  1  0
 33 67  1  0
 33 68  1  0
 33 69  1  0
 34 70  1  0
 35 71  1  0
 35 72  1  0
 35 73  1  0
A    1
O25
A    2
C24
A    3
C26
A    4
C27
A    5
C28
A    6
C29
A    7
C30
A    8
C32
A    9
C31
A   10
C35
A   11
C34
A   12
C33
A   13
N23
A   14
C20
A   15
C16
A   16
C17
A   17
C22
A   18
C21
A   19
C18
A   20
C19
A   21
N15
A   22
C13
A   23
O14
A   24
C8
A   25
C9
A   26
C12
A   27
C11
A   28
C10
A   29
N7
A   30
C5
A   31
O6
A   32
C3
A   33
C4
A   34
N2
A   35
C1
M  END
