3F88_3HT_A_999
     RDKit          3D

 35 38  0  0  0  0  0  0  0  0999 V2000
    4.1670  -14.3600   32.5100 C   0  0  0  0  0  0  0  0  0  0  0  0
    4.1380  -13.9590   33.8450 C   0  0  0  0  0  0  0  0  0  0  0  0
    5.0490  -14.3420   34.8370 C   0  0  0  0  0  0  0  0  0  0  0  0
    6.0660  -15.1780   34.3760 C   0  0  0  0  0  0  0  0  0  0  0  0
    6.1360  -15.6100   33.0360 C   0  0  0  0  0  0  0  0  0  0  0  0
    3.6740  -14.0180   36.6710 C   0  0  0  0  0  0  0  0  0  0  0  0
    5.5120  -12.0330   38.9920 C   0  0  0  0  0  0  0  0  0  0  0  0
    7.5190  -11.8660   37.6910 C   0  0  0  0  0  0  0  0  0  0  0  0
    5.6800  -13.0980   36.8050 C   0  0  0  0  0  0  0  0  0  0  0  0
   10.9250  -11.2970   36.9610 C   0  0  0  0  0  0  0  0  0  0  0  0
   12.4110  -11.7090   36.1890 S   0  0  0  0  0  0  0  0  0  0  0  0
   10.7810  -10.2230   37.7490 N   0  0  0  0  0  0  0  0  0  0  0  0
    9.4310  -10.2900   38.1300 N   0  0  0  0  0  0  0  0  0  0  0  0
    9.8300  -12.0640   36.8050 O   0  0  0  0  0  0  0  0  0  0  0  0
    8.8940  -11.3910   37.5420 C   0  0  0  0  0  0  0  0  0  0  0  0
    6.8120  -11.5690   38.8550 C   0  0  0  0  0  0  0  0  0  0  0  0
    6.9810  -12.6260   36.6690 C   0  0  0  0  0  0  0  0  0  0  0  0
    4.9520  -12.8070   37.9670 C   0  0  0  0  0  0  0  0  0  0  0  0
    3.7340  -13.3880   37.8590 N   0  0  0  0  0  0  0  0  0  0  0  0
    4.8580  -13.8620   36.0830 N   0  0  0  0  0  0  0  0  0  0  0  0
    5.1840  -15.2040   32.0890 C   0  0  0  0  0  0  0  0  0  0  0  0
    5.2100  -15.5810   30.7640 O   0  0  0  0  0  0  0  0  0  0  0  0
    5.9440  -16.7150   30.2970 C   0  0  0  0  0  0  0  0  0  0  0  0
    3.3979  -14.0136   31.8040 H   0  0  0  0  0  0  0  0  0  0  0  0
    3.3262  -13.2805   34.1461 H   0  0  0  0  0  0  0  0  0  0  0  0
    6.8402  -15.5117   35.0826 H   0  0  0  0  0  0  0  0  0  0  0  0
    6.9530  -16.2785   32.7269 H   0  0  0  0  0  0  0  0  0  0  0  0
    2.8085  -14.5603   36.2625 H   0  0  0  0  0  0  0  0  0  0  0  0
    4.9282  -11.7964   39.8938 H   0  0  0  0  0  0  0  0  0  0  0  0
   11.4872   -9.5205   38.0111 H   0  0  0  0  0  0  0  0  0  0  0  0
    7.2788  -10.9746   39.6543 H   0  0  0  0  0  0  0  0  0  0  0  0
    7.5694  -12.8525   35.7676 H   0  0  0  0  0  0  0  0  0  0  0  0
    6.3164  -17.2904   31.1574 H   0  0  0  0  0  0  0  0  0  0  0  0
    5.2863  -17.3517   29.6871 H   0  0  0  0  0  0  0  0  0  0  0  0
    6.7942  -16.3757   29.6871 H   0  0  0  0  0  0  0  0  0  0  0  0
 21  1  2  0
  1  2  1  0
  2  3  2  0
  4  3  1  0
  3 20  1  0
  5  4  2  0
 21  5  1  0
 20  6  1  0
  6 19  2  0
 18  7  2  0
 16  7  1  0
 17  8  1  0
 15  8  1  0
  8 16  2  0
 20  9  1  0
 17  9  2  0
  9 18  1  0
 11 10  2  0
 14 10  1  0
 10 12  1  0
 12 13  1  0
 15 13  2  0
 14 15  1  0
 19 18  1  0
 22 21  1  0
 23 22  1  0
  1 24  1  0
  2 25  1  0
  4 26  1  0
  5 27  1  0
  6 28  1  0
  7 29  1  0
 12 30  1  0
 16 31  1  0
 17 32  1  0
 23 33  1  0
 23 34  1  0
 23 35  1  0
A    1
C4
A    2
C5
A    3
C6
A    4
C7
A    5
C8
A    6
C10
A    7
C13
A    8
C15
A    9
C17
A   10
C21
A   11
S22
A   12
N20
A   13
N19
A   14
O32
A   15
C18
A   16
C14
A   17
C16
A   18
C12
A   19
N11
A   20
N9
A   21
C3
A   22
O2
A   23
C1
M  END
