3F8S_PF2_A_900
     RDKit          3D

 50 53  0  0  0  0  0  0  0  0999 V2000
   16.1430   19.4560   40.3580 F   0  0  0  0  0  0  0  0  0  0  0  0
   17.0780   18.6120   39.9920 C   0  0  0  0  0  0  0  0  0  0  0  0
   18.1070   18.6260   40.8040 F   0  0  0  0  0  0  0  0  0  0  0  0
   17.6730   19.2050   38.7760 C   0  0  0  0  0  0  0  0  0  0  0  0
   18.4860   18.0140   38.3480 C   0  0  0  0  0  0  0  0  0  0  0  0
   16.6420   17.1730   39.6260 C   0  0  0  0  0  0  0  0  0  0  0  0
   17.4760   16.9630   38.4580 N   0  0  0  0  0  0  0  0  0  0  0  0
   17.4400   16.0360   37.5030 C   0  0  0  0  0  0  0  0  0  0  0  0
   16.6750   15.1080   37.4880 O   0  0  0  0  0  0  0  0  0  0  0  0
   18.5110   16.2140   36.4300 C   0  0  0  0  0  0  0  0  0  0  0  0
   18.7510   15.0330   35.6110 N   0  0  0  0  0  0  0  0  0  0  0  0
   19.3860   15.5360   34.3910 C   0  0  0  0  0  0  0  0  0  0  0  0
   18.1820   17.3040   35.4120 C   0  0  0  0  0  0  0  0  0  0  0  0
   19.1730   17.0500   34.3130 C   0  0  0  0  0  0  0  0  0  0  0  0
   18.7670   17.4680   32.9350 N   0  0  0  0  0  0  0  0  0  0  0  0
   19.9660   17.4090   32.0590 C   0  0  0  0  0  0  0  0  0  0  0  0
   19.5350   17.5030   30.5960 C   0  0  0  0  0  0  0  0  0  0  0  0
   18.7330   18.7120   30.4120 N   0  0  0  0  0  0  0  0  0  0  0  0
   17.8000   19.2300   31.4350 C   0  0  0  0  0  0  0  0  0  0  0  0
   18.2230   18.8440   32.8680 C   0  0  0  0  0  0  0  0  0  0  0  0
   18.8550   19.3410   29.2070 C   0  0  0  0  0  0  0  0  0  0  0  0
   19.7180   18.8310   28.2700 N   0  0  0  0  0  0  0  0  0  0  0  0
   19.8820   19.4110   27.0620 C   0  0  0  0  0  0  0  0  0  0  0  0
   19.1710   20.5640   26.7750 C   0  0  0  0  0  0  0  0  0  0  0  0
   18.2870   21.0730   27.7410 C   0  0  0  0  0  0  0  0  0  0  0  0
   18.1310   20.4650   28.9360 N   0  0  0  0  0  0  0  0  0  0  0  0
   16.9126   19.4815   38.0308 H   0  0  0  0  0  0  0  0  0  0  0  0
   18.2259   20.1457   38.9151 H   0  0  0  0  0  0  0  0  0  0  0  0
   18.8537   18.1202   37.3167 H   0  0  0  0  0  0  0  0  0  0  0  0
   19.3994   17.8416   38.9362 H   0  0  0  0  0  0  0  0  0  0  0  0
   16.8719   16.4573   40.4290 H   0  0  0  0  0  0  0  0  0  0  0  0
   15.5627   17.0368   39.4627 H   0  0  0  0  0  0  0  0  0  0  0  0
   19.3893   16.4632   37.0437 H   0  0  0  0  0  0  0  0  0  0  0  0
   19.3759   14.3756   36.0991 H   0  0  0  0  0  0  0  0  0  0  0  0
   20.4632   15.3149   34.4166 H   0  0  0  0  0  0  0  0  0  0  0  0
   18.9413   15.0498   33.5101 H   0  0  0  0  0  0  0  0  0  0  0  0
   17.1500   17.2035   35.0448 H   0  0  0  0  0  0  0  0  0  0  0  0
   18.2474   18.3200   35.8284 H   0  0  0  0  0  0  0  0  0  0  0  0
   20.0724   17.6635   34.4698 H   0  0  0  0  0  0  0  0  0  0  0  0
   20.6361   18.2479   32.2982 H   0  0  0  0  0  0  0  0  0  0  0  0
   20.4939   16.4583   32.2247 H   0  0  0  0  0  0  0  0  0  0  0  0
   20.4253   17.5496   29.9516 H   0  0  0  0  0  0  0  0  0  0  0  0
   18.9399   16.6180   30.3266 H   0  0  0  0  0  0  0  0  0  0  0  0
   17.7673   20.3269   31.3599 H   0  0  0  0  0  0  0  0  0  0  0  0
   16.8131   18.7828   31.2452 H   0  0  0  0  0  0  0  0  0  0  0  0
   17.3452   18.9112   33.5275 H   0  0  0  0  0  0  0  0  0  0  0  0
   19.0147   19.5379   33.1868 H   0  0  0  0  0  0  0  0  0  0  0  0
   20.5674   18.9759   26.3198 H   0  0  0  0  0  0  0  0  0  0  0  0
   19.2961   21.0725   25.8076 H   0  0  0  0  0  0  0  0  0  0  0  0
   17.7114   21.9838   27.5194 H   0  0  0  0  0  0  0  0  0  0  0  0
  2  1  1  0
  4  2  1  0
  6  2  1  0
  2  3  1  0
  5  4  1  0
  5  7  1  0
  7  6  1  0
  8  7  1  0
 10  8  1  0
  9  8  2  0
 13 10  1  0
 11 10  1  0
 12 11  1  0
 14 12  1  0
 14 13  1  0
 15 14  1  0
 16 15  1  0
 20 15  1  0
 17 16  1  0
 18 17  1  0
 21 18  1  0
 18 19  1  0
 19 20  1  0
 22 21  2  0
 26 21  1  0
 23 22  1  0
 24 23  2  0
 24 25  1  0
 25 26  2  0
  4 27  1  0
  4 28  1  0
  5 29  1  0
  5 30  1  0
  6 31  1  0
  6 32  1  0
 10 33  1  0
 11 34  1  0
 12 35  1  0
 12 36  1  0
 13 37  1  0
 13 38  1  0
 14 39  1  0
 16 40  1  0
 16 41  1  0
 17 42  1  0
 17 43  1  0
 19 44  1  0
 19 45  1  0
 20 46  1  0
 20 47  1  0
 23 48  1  0
 24 49  1  0
 25 50  1  0
A    1
F26
A    2
C11
A    3
F25
A    4
C10
A    5
C9
A    6
C12
A    7
N8
A    8
C6
A    9
O7
A   10
C4
A   11
N3
A   12
C2
A   13
C5
A   14
C1
A   15
N13
A   16
C18
A   17
C17
A   18
N16
A   19
C15
A   20
C14
A   21
C19
A   22
N23
A   23
C24
A   24
C22
A   25
C21
A   26
N20
M  END
