3F9N_38M_A_324
     RDKit          3D

 72 76  0  0  0  0  0  0  0  0999 V2000
   21.9150  -10.0200   26.5790 C   0  0  0  0  0  0  0  0  0  0  0  0
   22.7720  -10.4020   27.6140 C   0  0  0  0  0  0  0  0  0  0  0  0
   24.0580   -9.8790   27.6790 C   0  0  0  0  0  0  0  0  0  0  0  0
   24.4750   -8.9320   26.7520 C   0  0  0  0  0  0  0  0  0  0  0  0
   23.6520   -8.5590   25.7450 C   0  0  0  0  0  0  0  0  0  0  0  0
   22.3450   -9.1150   25.6140 C   0  0  0  0  0  0  0  0  0  0  0  0
   24.1370   -7.5530   24.7720 C   0  0  0  0  0  0  0  0  0  0  0  0
   23.3920   -7.1880   23.8960 O   0  0  0  0  0  0  0  0  0  0  0  0
   25.4080   -7.0150   24.9700 N   0  0  0  0  0  0  0  0  0  0  0  0
   25.7400   -8.3660   26.8550 N   0  0  0  0  0  0  0  0  0  0  0  0
   26.1610   -7.4120   25.9810 C   0  0  0  0  0  0  0  0  0  0  0  0
   27.7240   -6.6650   26.1310 S   0  0  0  0  0  0  0  0  0  0  0  0
   28.6690   -7.5120   27.3140 C   0  0  0  0  0  0  0  0  0  0  0  0
   27.9600   -7.4310   28.6900 C   0  0  0  0  0  0  0  0  0  0  0  0
   29.9630   -6.7130   27.2780 C   0  0  0  0  0  0  0  0  0  0  0  0
   27.6000   -6.3540   29.1270 O   0  0  0  0  0  0  0  0  0  0  0  0
   27.7420   -8.5720   29.4400 N   0  0  0  0  0  0  0  0  0  0  0  0
   31.1220   -7.4690   27.8670 C   0  0  0  0  0  0  0  0  0  0  0  0
   32.4240   -6.6460   27.7490 C   0  0  0  0  0  0  0  0  0  0  0  0
   32.6760   -5.8450   29.0350 C   0  0  0  0  0  0  0  0  0  0  0  0
   28.1920   -9.8760   28.9430 C   0  0  0  0  0  0  0  0  0  0  0  0
   29.3320  -10.3090   29.9030 C   0  0  0  0  0  0  0  0  0  0  0  0
   28.9650  -10.1700   31.4080 C   0  0  0  0  0  0  0  0  0  0  0  0
   28.1280   -8.9390   31.8260 C   0  0  0  0  0  0  0  0  0  0  0  0
   27.0810   -8.5550   30.7810 C   0  0  0  0  0  0  0  0  0  0  0  0
   29.1460   -7.8310   32.0880 C   0  0  0  0  0  0  0  0  0  0  0  0
   27.4370   -9.2580   33.1920 C   0  0  0  0  0  0  0  0  0  0  0  0
   26.8430   -8.0120   33.8000 C   0  0  0  0  0  0  0  0  0  0  0  0
   28.6570   -6.6580   32.8550 N   0  0  0  0  0  0  0  0  0  0  0  0
   27.9920   -7.0720   34.1610 C   0  0  0  0  0  0  0  0  0  0  0  0
   25.8180   -6.0450   24.1030 C   0  0  0  0  0  0  0  0  0  0  0  0
   26.9190   -6.1850   23.2330 C   0  0  0  0  0  0  0  0  0  0  0  0
   27.2750   -5.1640   22.3420 C   0  0  0  0  0  0  0  0  0  0  0  0
   26.5520   -3.9640   22.3130 C   0  0  0  0  0  0  0  0  0  0  0  0
   25.4750   -3.8430   23.1740 C   0  0  0  0  0  0  0  0  0  0  0  0
   25.0790   -4.8660   24.0640 C   0  0  0  0  0  0  0  0  0  0  0  0
   24.5440   -2.3910   23.1880 Cl  0  0  0  0  0  0  0  0  0  0  0  0
   20.8979  -10.4358   26.5270 H   0  0  0  0  0  0  0  0  0  0  0  0
   22.4292  -11.1163   28.3771 H   0  0  0  0  0  0  0  0  0  0  0  0
   24.7478  -10.2159   28.4668 H   0  0  0  0  0  0  0  0  0  0  0  0
   21.6943   -8.8356   24.7722 H   0  0  0  0  0  0  0  0  0  0  0  0
   28.8216   -8.5858   27.1304 H   0  0  0  0  0  0  0  0  0  0  0  0
   30.1971   -6.4672   26.2317 H   0  0  0  0  0  0  0  0  0  0  0  0
   29.8133   -5.8060   27.8822 H   0  0  0  0  0  0  0  0  0  0  0  0
   30.9184   -7.6734   28.9285 H   0  0  0  0  0  0  0  0  0  0  0  0
   31.2474   -8.4123   27.3152 H   0  0  0  0  0  0  0  0  0  0  0  0
   33.2690   -7.3290   27.5771 H   0  0  0  0  0  0  0  0  0  0  0  0
   32.3247   -5.9441   26.9079 H   0  0  0  0  0  0  0  0  0  0  0  0
   32.4756   -6.4821   29.9090 H   0  0  0  0  0  0  0  0  0  0  0  0
   33.7232   -5.5091   29.0585 H   0  0  0  0  0  0  0  0  0  0  0  0
   32.0097   -4.9701   29.0585 H   0  0  0  0  0  0  0  0  0  0  0  0
   27.3679  -10.6041   28.9704 H   0  0  0  0  0  0  0  0  0  0  0  0
   28.5338   -9.8212   27.8989 H   0  0  0  0  0  0  0  0  0  0  0  0
   29.5760  -11.3623   29.7004 H   0  0  0  0  0  0  0  0  0  0  0  0
   30.1838   -9.6387   29.7154 H   0  0  0  0  0  0  0  0  0  0  0  0
   28.3967  -11.0676   31.6932 H   0  0  0  0  0  0  0  0  0  0  0  0
   29.9292  -10.0419   31.9218 H   0  0  0  0  0  0  0  0  0  0  0  0
   26.6928   -7.5480   30.9935 H   0  0  0  0  0  0  0  0  0  0  0  0
   26.2402   -9.2640   30.8026 H   0  0  0  0  0  0  0  0  0  0  0  0
   29.9846   -8.2715   32.6473 H   0  0  0  0  0  0  0  0  0  0  0  0
   29.4175   -7.4409   31.0960 H   0  0  0  0  0  0  0  0  0  0  0  0
   26.6369   -9.9947   33.0273 H   0  0  0  0  0  0  0  0  0  0  0  0
   28.1933   -9.6592   33.8826 H   0  0  0  0  0  0  0  0  0  0  0  0
   26.1748   -7.5243   33.0749 H   0  0  0  0  0  0  0  0  0  0  0  0
   26.2583   -8.2645   34.6969 H   0  0  0  0  0  0  0  0  0  0  0  0
   29.4552   -6.0428   33.0679 H   0  0  0  0  0  0  0  0  0  0  0  0
   27.6045   -6.1858   34.6849 H   0  0  0  0  0  0  0  0  0  0  0  0
   28.7119   -7.5703   34.8269 H   0  0  0  0  0  0  0  0  0  0  0  0
   27.5092   -7.1130   23.2543 H   0  0  0  0  0  0  0  0  0  0  0  0
   28.1273   -5.3053   21.6611 H   0  0  0  0  0  0  0  0  0  0  0  0
   26.8304   -3.1475   21.6305 H   0  0  0  0  0  0  0  0  0  0  0  0
   24.2021   -4.7333   24.7147 H   0  0  0  0  0  0  0  0  0  0  0  0
  6  1  2  0
  1  2  1  0
  2  3  2  0
  4  3  1  0
  5  4  2  0
  4 10  1  0
  7  5  1  0
  6  5  1  0
  8  7  2  0
  7  9  1  0
 31  9  1  0
  9 11  1  0
 11 10  2  0
 11 12  1  0
 12 13  1  0
 15 13  1  0
 13 14  1  0
 14 16  2  0
 14 17  1  0
 15 18  1  0
 21 17  1  0
 17 25  1  0
 19 18  1  0
 19 20  1  0
 21 22  1  0
 22 23  1  0
 23 24  1  0
 25 24  1  0
 24 26  1  0
 24 27  1  0
 26 29  1  0
 27 28  1  0
 28 30  1  0
 29 30  1  0
 32 31  2  0
 36 31  1  0
 33 32  1  0
 34 33  2  0
 34 35  1  0
 35 37  1  0
 35 36  2  0
  1 38  1  0
  2 39  1  0
  3 40  1  0
  6 41  1  0
 13 42  1  0
 15 43  1  0
 15 44  1  0
 18 45  1  0
 18 46  1  0
 19 47  1  0
 19 48  1  0
 20 49  1  0
 20 50  1  0
 20 51  1  0
 21 52  1  0
 21 53  1  0
 22 54  1  0
 22 55  1  0
 23 56  1  0
 23 57  1  0
 25 58  1  0
 25 59  1  0
 26 60  1  0
 26 61  1  0
 27 62  1  0
 27 63  1  0
 28 64  1  0
 28 65  1  0
 29 66  1  0
 30 67  1  0
 30 68  1  0
 32 69  1  0
 33 70  1  0
 34 71  1  0
 36 72  1  0
A    1
C
A    2
C1
A    3
C2
A    4
C3
A    5
C4
A    6
C5
A    7
C6
A    8
O
A    9
N
A   10
N7
A   11
C8
A   12
S
A   13
C15
A   14
C16
A   15
C17
A   16
O18
A   17
N19
A   18
C20
A   19
C21
A   20
C22
A   21
C23
A   22
C24
A   23
C25
A   24
C26
A   25
C27
A   26
C7
A   27
C18
A   28
C19
A   29
N1
A   30
C35
A   31
C9
A   32
C10
A   33
C11
A   34
C12
A   35
C13
A   36
C14
A   37
CL
M  END
