3FAL_LO2_B_1
     RDKit          3D

 57 58  0  0  0  0  0  0  0  0999 V2000
   64.7110   37.0980   23.6580 C   0  0  0  0  0  0  0  0  0  0  0  0
   63.5030   37.6280   24.3860 C   0  0  0  0  0  0  0  0  0  0  0  0
   63.4020   39.1250   24.2140 C   0  0  0  0  0  0  0  0  0  0  0  0
   61.9590   39.5670   24.0540 C   0  0  0  0  0  0  0  0  0  0  0  0
   61.9050   40.9870   24.3490 N   0  0  0  0  0  0  0  0  0  0  0  0
   61.0470   41.4450   25.4380 C   0  0  0  0  0  0  0  0  0  0  0  0
   59.6200   41.5140   25.0180 C   0  0  0  0  0  0  0  0  0  0  0  0
   59.3590   41.4080   23.6730 C   0  0  0  0  0  0  0  0  0  0  0  0
   58.0610   41.4760   23.2480 C   0  0  0  0  0  0  0  0  0  0  0  0
   57.7150   41.3560   21.5800 Cl  0  0  0  0  0  0  0  0  0  0  0  0
   57.0260   41.6440   24.1320 C   0  0  0  0  0  0  0  0  0  0  0  0
   55.7440   41.7120   23.6110 O   0  0  0  0  0  0  0  0  0  0  0  0
   54.9280   40.9180   24.4550 C   0  0  0  0  0  0  0  0  0  0  0  0
   57.2800   41.7480   25.4820 C   0  0  0  0  0  0  0  0  0  0  0  0
   56.1990   41.9280   26.3490 O   0  0  0  0  0  0  0  0  0  0  0  0
   56.5170   41.2990   27.5800 C   0  0  0  0  0  0  0  0  0  0  0  0
   58.5870   41.6840   25.9260 C   0  0  0  0  0  0  0  0  0  0  0  0
   62.1960   41.8840   23.2770 C   0  0  0  0  0  0  0  0  0  0  0  0
   62.0300   43.2470   23.4090 C   0  0  0  0  0  0  0  0  0  0  0  0
   62.3170   44.1310   22.3850 C   0  0  0  0  0  0  0  0  0  0  0  0
   62.7860   43.6820   21.1710 C   0  0  0  0  0  0  0  0  0  0  0  0
   62.9540   42.3210   21.0260 C   0  0  0  0  0  0  0  0  0  0  0  0
   62.6730   41.4440   22.0570 C   0  0  0  0  0  0  0  0  0  0  0  0
   63.0700   44.6560   20.0540 C   0  0  0  0  0  0  0  0  0  0  0  0
   63.1990   45.9790   20.5740 O   0  0  0  0  0  0  0  0  0  0  0  0
   64.3590   44.3730   19.3020 C   0  0  0  0  0  0  0  0  0  0  0  0
   64.2430   43.2940   18.4870 F   0  0  0  0  0  0  0  0  0  0  0  0
   64.6870   45.4340   18.5120 F   0  0  0  0  0  0  0  0  0  0  0  0
   65.3930   44.1390   20.1520 F   0  0  0  0  0  0  0  0  0  0  0  0
   61.8800   44.6250   19.0890 C   0  0  0  0  0  0  0  0  0  0  0  0
   60.7630   45.1340   19.6780 F   0  0  0  0  0  0  0  0  0  0  0  0
   62.1180   45.3420   17.9570 F   0  0  0  0  0  0  0  0  0  0  0  0
   61.5660   43.3730   18.6590 F   0  0  0  0  0  0  0  0  0  0  0  0
   65.4638   36.7677   24.3888 H   0  0  0  0  0  0  0  0  0  0  0  0
   64.4147   36.2472   23.0268 H   0  0  0  0  0  0  0  0  0  0  0  0
   65.1364   37.8922   23.0268 H   0  0  0  0  0  0  0  0  0  0  0  0
   62.5974   37.1541   23.9793 H   0  0  0  0  0  0  0  0  0  0  0  0
   63.6009   37.3968   25.4570 H   0  0  0  0  0  0  0  0  0  0  0  0
   63.8311   39.6169   25.0994 H   0  0  0  0  0  0  0  0  0  0  0  0
   63.9538   39.4075   23.3053 H   0  0  0  0  0  0  0  0  0  0  0  0
   61.6218   39.3840   23.0231 H   0  0  0  0  0  0  0  0  0  0  0  0
   61.3026   39.0038   24.7336 H   0  0  0  0  0  0  0  0  0  0  0  0
   61.1375   40.7457   26.2823 H   0  0  0  0  0  0  0  0  0  0  0  0
   61.3697   42.4554   25.7293 H   0  0  0  0  0  0  0  0  0  0  0  0
   60.1784   41.2711   22.9521 H   0  0  0  0  0  0  0  0  0  0  0  0
   55.1595   41.1433   25.5065 H   0  0  0  0  0  0  0  0  0  0  0  0
   53.8692   41.1409   24.2568 H   0  0  0  0  0  0  0  0  0  0  0  0
   55.1219   39.8535   24.2568 H   0  0  0  0  0  0  0  0  0  0  0  0
   56.1931   41.9396   28.4135 H   0  0  0  0  0  0  0  0  0  0  0  0
   56.0007   40.3296   27.6406 H   0  0  0  0  0  0  0  0  0  0  0  0
   57.6038   41.1400   27.6406 H   0  0  0  0  0  0  0  0  0  0  0  0
   58.8075   41.7680   27.0004 H   0  0  0  0  0  0  0  0  0  0  0  0
   61.6557   43.6453   24.3636 H   0  0  0  0  0  0  0  0  0  0  0  0
   62.1683   45.2094   22.5429 H   0  0  0  0  0  0  0  0  0  0  0  0
   63.3201   41.9240   20.0677 H   0  0  0  0  0  0  0  0  0  0  0  0
   62.8334   40.3669   21.9020 H   0  0  0  0  0  0  0  0  0  0  0  0
   63.1958   45.9464   21.5635 H   0  0  0  0  0  0  0  0  0  0  0  0
  1  2  1  0
  3  2  1  0
  4  3  1  0
  4  5  1  0
 18  5  1  0
  5  6  1  0
  7  6  1  0
  8  7  2  0
  7 17  1  0
  9  8  1  0
 10  9  1  0
  9 11  2  0
 12 11  1  0
 11 14  1  0
 12 13  1  0
 14 17  2  0
 14 15  1  0
 15 16  1  0
 23 18  1  0
 18 19  2  0
 20 19  1  0
 21 20  2  0
 24 21  1  0
 22 21  1  0
 22 23  2  0
 30 24  1  0
 26 24  1  0
 24 25  1  0
 27 26  1  0
 28 26  1  0
 26 29  1  0
 32 30  1  0
 33 30  1  0
 30 31  1  0
  1 34  1  0
  1 35  1  0
  1 36  1  0
  2 37  1  0
  2 38  1  0
  3 39  1  0
  3 40  1  0
  4 41  1  0
  4 42  1  0
  6 43  1  0
  6 44  1  0
  8 45  1  0
 13 46  1  0
 13 47  1  0
 13 48  1  0
 16 49  1  0
 16 50  1  0
 16 51  1  0
 17 52  1  0
 19 53  1  0
 20 54  1  0
 22 55  1  0
 23 56  1  0
 25 57  1  0
A    1
C1
A    2
C2
A    3
C3
A    4
C4
A    5
N5
A    6
C6
A    7
C7
A    8
C8
A    9
C9
A   10
CL10
A   11
C11
A   12
O12
A   13
C13
A   14
C14
A   15
O15
A   16
C16
A   17
C17
A   18
C18
A   19
C19
A   20
C20
A   21
C21
A   22
C22
A   23
C23
A   24
C24
A   25
O25
A   26
C26
A   27
F27
A   28
F28
A   29
F29
A   30
C30
A   31
F31
A   32
F32
A   33
F33
M  END
