1FTM_AMQ_A_428
     RDKit          3D

 23 23  0  0  0  0  0  0  0  0999 V2000
   75.0740   27.4930   42.9170 N   0  0  0  0  0  0  0  0  0  0  0  0
   76.1360   26.4300   42.9670 C   0  0  0  0  0  0  0  0  0  0  0  0
   76.4420   26.0550   44.4560 C   0  0  0  0  0  0  0  0  0  0  0  0
   77.3630   25.2540   44.6680 O   0  0  0  0  0  0  0  0  0  0  0  0
   75.7220   26.5630   45.3460 O   0  0  0  0  0  0  0  0  0  0  0  0
   77.4080   26.9270   42.2440 C   0  0  0  0  0  0  0  0  0  0  0  0
   77.2430   27.1260   40.7540 C   0  0  0  0  0  0  0  0  0  0  0  0
   77.4330   26.1680   39.7080 C   0  0  0  0  0  0  0  0  0  0  0  0
   76.8220   28.2030   40.0390 C   0  0  0  0  0  0  0  0  0  0  0  0
   76.3770   29.5860   40.4000 C   0  0  0  0  0  0  0  0  0  0  0  0
   77.8230   24.9460   40.0650 O   0  0  0  0  0  0  0  0  0  0  0  0
   77.1790   26.5320   38.4750 N   0  0  0  0  0  0  0  0  0  0  0  0
   76.7700   27.9040   38.6870 O   0  0  0  0  0  0  0  0  0  0  0  0
   74.8087   27.7586   43.8761 H   0  0  0  0  0  0  0  0  0  0  0  0
   75.4378   28.3187   42.4203 H   0  0  0  0  0  0  0  0  0  0  0  0
   75.7784   25.5263   42.4518 H   0  0  0  0  0  0  0  0  0  0  0  0
   75.9353   26.4125   46.3010 H   0  0  0  0  0  0  0  0  0  0  0  0
   77.7028   27.8889   42.6889 H   0  0  0  0  0  0  0  0  0  0  0  0
   78.1688   26.1432   42.3734 H   0  0  0  0  0  0  0  0  0  0  0  0
   76.3446   29.6867   41.4949 H   0  0  0  0  0  0  0  0  0  0  0  0
   77.0847   30.3189   39.9852 H   0  0  0  0  0  0  0  0  0  0  0  0
   75.3747   29.7687   39.9852 H   0  0  0  0  0  0  0  0  0  0  0  0
   77.8981   24.7107   41.0237 H   0  0  0  0  0  0  0  0  0  0  0  0
  1  2  1  0
  2  3  1  0
  2  6  1  0
  3  4  2  0
  3  5  1  0
  6  7  1  0
  7  8  1  0
  7  9  2  0
  8 11  1  0
  8 12  2  0
  9 10  1  0
  9 13  1  0
 12 13  1  0
  1 14  1  0
  1 15  1  0
  2 16  1  0
  5 17  1  0
  6 18  1  0
  6 19  1  0
 10 20  1  0
 10 21  1  0
 10 22  1  0
 11 23  1  0
A    1
N
A    2
CA
A    3
C
A    4
OT1
A    5
OT2
A    6
CB
A    7
CG
A    8
CD1
A    9
CD2
A   10
CE2
A   11
OE1
A   12
NE1
A   13
OE2
M  END
