3FC8_IFA_A_3000
     RDKit          3D

 39 40  0  0  0  0  0  0  0  0999 V2000
   21.2200   -2.3560   -7.9650 F   0  0  0  0  0  0  0  0  0  0  0  0
   21.1810   -1.1600   -8.5630 C   0  0  0  0  0  0  0  0  0  0  0  0
   21.2000   -1.1490   -9.9590 C   0  0  0  0  0  0  0  0  0  0  0  0
   21.1510    0.0470  -10.6530 C   0  0  0  0  0  0  0  0  0  0  0  0
   21.1690    0.0430  -12.0020 F   0  0  0  0  0  0  0  0  0  0  0  0
   21.0970    1.2400   -9.9270 C   0  0  0  0  0  0  0  0  0  0  0  0
   21.0980    1.2210   -8.5210 C   0  0  0  0  0  0  0  0  0  0  0  0
   21.1210    0.0130   -7.7990 C   0  0  0  0  0  0  0  0  0  0  0  0
   21.1330   -0.0300   -6.3630 C   0  0  0  0  0  0  0  0  0  0  0  0
   20.1650    0.6540   -5.6100 C   0  0  0  0  0  0  0  0  0  0  0  0
   22.0610   -0.7330   -5.5650 C   0  0  0  0  0  0  0  0  0  0  0  0
   22.1000   -0.7980   -4.1120 C   0  0  0  0  0  0  0  0  0  0  0  0
   23.6320   -1.9410   -3.2100 I   0  0  0  0  0  0  0  0  0  0  0  0
   21.2140   -0.0970   -3.1990 C   0  0  0  0  0  0  0  0  0  0  0  0
   21.0660   -0.0590   -1.9720 O   0  0  0  0  0  0  0  0  0  0  0  0
   20.1730    0.6250   -4.1500 C   0  0  0  0  0  0  0  0  0  0  0  0
   18.9600    1.4680   -3.6130 C   0  0  0  0  0  0  0  0  0  0  0  0
   18.0810    2.0320   -4.3060 O   0  0  0  0  0  0  0  0  0  0  0  0
   18.8540    1.5080   -2.2750 N   0  0  0  0  0  0  0  0  0  0  0  0
   17.8470    2.1350   -1.4090 C   0  0  0  0  0  0  0  0  0  0  0  0
   16.6480    1.1860   -1.4740 C   0  0  0  0  0  0  0  0  0  0  0  0
   15.9400    0.9830   -0.1530 C   0  0  0  0  0  0  0  0  0  0  0  0
   16.0840    1.7740    0.7700 O   0  0  0  0  0  0  0  0  0  0  0  0
   15.0680   -0.1700    0.0360 O   0  0  0  0  0  0  0  0  0  0  0  0
   13.9880   -0.1250    0.9740 C   0  0  0  0  0  0  0  0  0  0  0  0
   21.2544   -2.0986  -10.5115 H   0  0  0  0  0  0  0  0  0  0  0  0
   21.0534    2.2014  -10.4597 H   0  0  0  0  0  0  0  0  0  0  0  0
   21.0804    2.1739   -7.9717 H   0  0  0  0  0  0  0  0  0  0  0  0
   19.3828    1.2247   -6.1319 H   0  0  0  0  0  0  0  0  0  0  0  0
   22.8410   -1.2938   -6.1009 H   0  0  0  0  0  0  0  0  0  0  0  0
   21.8308   -0.2554   -1.3748 H   0  0  0  0  0  0  0  0  0  0  0  0
   19.6056    1.0160   -1.7710 H   0  0  0  0  0  0  0  0  0  0  0  0
   18.2197    2.2218   -0.3777 H   0  0  0  0  0  0  0  0  0  0  0  0
   17.5929    3.1556   -1.7310 H   0  0  0  0  0  0  0  0  0  0  0  0
   15.9236    1.5956   -2.1933 H   0  0  0  0  0  0  0  0  0  0  0  0
   17.0411    0.2034   -1.7739 H   0  0  0  0  0  0  0  0  0  0  0  0
   14.3904   -0.1418    1.9976 H   0  0  0  0  0  0  0  0  0  0  0  0
   13.4091    0.7980    0.8227 H   0  0  0  0  0  0  0  0  0  0  0  0
   13.3344   -0.9967    0.8227 H   0  0  0  0  0  0  0  0  0  0  0  0
  1  2  1  0
  2  3  2  0
  2  8  1  0
  3  4  1  0
  4  5  1  0
  4  6  2  0
  6  7  1  0
  7  8  2  0
  8  9  1  0
  9 10  2  0
  9 11  1  0
 10 16  1  0
 11 12  2  0
 12 13  1  0
 12 14  1  0
 14 16  2  0
 14 15  1  0
 16 17  1  0
 17 18  2  0
 17 19  1  0
 19 20  1  0
 20 21  1  0
 21 22  1  0
 22 24  1  0
 22 23  2  0
 24 25  1  0
  3 26  1  0
  6 27  1  0
  7 28  1  0
 10 29  1  0
 11 30  1  0
 15 31  1  0
 19 32  1  0
 20 33  1  0
 20 34  1  0
 21 35  1  0
 21 36  1  0
 25 37  1  0
 25 38  1  0
 25 39  1  0
A    1
FAF
A    2
CAT
A    3
CAJ
A    4
CAS
A    5
FAE
A    6
CAH
A    7
CAI
A    8
CAY
A    9
CAW
A   10
CAL
A   11
CAK
A   12
CAU
A   13
IAG
A   14
CAV
A   15
OAD
A   16
CAX
A   17
CAR
A   18
OAC
A   19
NAO
A   20
CAM
A   21
CAN
A   22
CAQ
A   23
OAB
A   24
OAP
A   25
CAA
M  END
