3FCF_FCF_A_1
     RDKit          3D

 39 40  0  0  0  0  0  0  0  0999 V2000
  -11.8940   -7.5360   -1.4420 O   0  0  0  0  0  0  0  0  0  0  0  0
  -12.4150   -7.3750   -2.7660 C   0  0  0  0  0  0  0  0  0  0  0  0
  -12.6310   -8.3610   -3.5070 O   0  0  0  0  0  0  0  0  0  0  0  0
  -12.7200   -5.9920   -3.2720 C   0  0  0  0  0  0  0  0  0  0  0  0
  -13.0780   -5.7900   -4.6080 C   0  0  0  0  0  0  0  0  0  0  0  0
  -13.3650   -4.5070   -5.0760 C   0  0  0  0  0  0  0  0  0  0  0  0
  -12.6520   -4.9010   -2.4020 C   0  0  0  0  0  0  0  0  0  0  0  0
  -12.9360   -3.6160   -2.8660 C   0  0  0  0  0  0  0  0  0  0  0  0
  -13.2930   -3.4220   -4.2040 C   0  0  0  0  0  0  0  0  0  0  0  0
  -12.8570   -2.4720   -1.9260 C   0  0  0  0  0  0  0  0  0  0  0  0
  -13.2000   -1.3080   -2.2730 N   0  0  0  0  0  0  0  0  0  0  0  0
  -13.1210   -0.2820   -1.3880 O   0  0  0  0  0  0  0  0  0  0  0  0
  -13.4680    1.0450   -1.7900 C   0  0  0  0  0  0  0  0  0  0  0  0
  -14.9770    1.2460   -1.6660 C   0  0  0  0  0  0  0  0  0  0  0  0
  -15.3010    1.9220   -0.4470 O   0  0  0  0  0  0  0  0  0  0  0  0
  -15.1160    1.3030    0.7470 N   0  0  0  0  0  0  0  0  0  0  0  0
  -15.8180    1.5900    1.7550 C   0  0  0  0  0  0  0  0  0  0  0  0
  -15.5660    0.8790    3.0270 C   0  0  0  0  0  0  0  0  0  0  0  0
  -14.9970   -0.3370    2.9960 N   0  0  0  0  0  0  0  0  0  0  0  0
  -15.9080    1.4510    4.2490 C   0  0  0  0  0  0  0  0  0  0  0  0
  -15.6410    0.7250    5.4090 C   0  0  0  0  0  0  0  0  0  0  0  0
  -15.9250    1.1920    6.5320 O   0  0  0  0  0  0  0  0  0  0  0  0
  -15.0700   -0.4870    5.3190 N   0  0  0  0  0  0  0  0  0  0  0  0
  -14.7480   -1.0130    4.1270 C   0  0  0  0  0  0  0  0  0  0  0  0
  -14.2130   -2.1410    4.0700 O   0  0  0  0  0  0  0  0  0  0  0  0
  -12.4713   -7.3576   -0.6578 H   0  0  0  0  0  0  0  0  0  0  0  0
  -13.1338   -6.6476   -5.2946 H   0  0  0  0  0  0  0  0  0  0  0  0
  -13.6467   -4.3527   -6.1281 H   0  0  0  0  0  0  0  0  0  0  0  0
  -12.3740   -5.0553   -1.3490 H   0  0  0  0  0  0  0  0  0  0  0  0
  -13.5179   -2.4093   -4.5698 H   0  0  0  0  0  0  0  0  0  0  0  0
  -12.4910   -2.6417   -0.9026 H   0  0  0  0  0  0  0  0  0  0  0  0
  -12.9490    1.7693   -1.1450 H   0  0  0  0  0  0  0  0  0  0  0  0
  -13.1664    1.1976   -2.8368 H   0  0  0  0  0  0  0  0  0  0  0  0
  -15.3320    1.8463   -2.5167 H   0  0  0  0  0  0  0  0  0  0  0  0
  -15.4650    0.2602   -1.6630 H   0  0  0  0  0  0  0  0  0  0  0  0
  -16.6044    2.3563    1.6890 H   0  0  0  0  0  0  0  0  0  0  0  0
  -14.7479   -0.7571    2.0891 H   0  0  0  0  0  0  0  0  0  0  0  0
  -16.3748    2.4458    4.2981 H   0  0  0  0  0  0  0  0  0  0  0  0
  -14.8761   -1.0212    6.1780 H   0  0  0  0  0  0  0  0  0  0  0  0
  2  1  1  0
  3  2  2  0
  4  2  1  0
  4  7  2  0
  5  4  1  0
  6  5  2  0
  6  9  1  0
  8  7  1  0
  8 10  1  0
  9  8  2  0
 11 10  2  0
 11 12  1  0
 13 12  1  0
 13 14  1  0
 14 15  1  0
 15 16  1  0
 16 17  2  0
 17 18  1  0
 18 20  2  0
 19 18  1  0
 19 24  1  0
 20 21  1  0
 21 22  2  0
 23 21  1  0
 24 23  1  0
 25 24  2  0
  1 26  1  0
  5 27  1  0
  6 28  1  0
  7 29  1  0
  9 30  1  0
 10 31  1  0
 13 32  1  0
 13 33  1  0
 14 34  1  0
 14 35  1  0
 17 36  1  0
 19 37  1  0
 20 38  1  0
 23 39  1  0
A    1
O40
A    2
C38
A    3
O39
A    4
C5
A    5
C6
A    6
C1
A    7
C4
A    8
C3
A    9
C2
A   10
C17
A   11
N18
A   12
O21
A   13
C22
A   14
C23
A   15
O27
A   16
N31
A   17
C30
A   18
C16
A   19
N11
A   20
C15
A   21
C14
A   22
O33
A   23
N13
A   24
C12
A   25
O34
M  END
