3BW3_NIE_A_371
     RDKit          3D

 10  9  0  0  0  0  0  0  0  0999 V2000
    9.3960   71.2510  -60.4300 N   0  0  0  0  0  0  0  0  0  0  0  0
    9.9270   70.1110  -62.5660 C   0  0  0  0  0  0  0  0  0  0  0  0
    9.7990   69.9850  -61.0420 C   0  0  0  0  0  0  0  0  0  0  0  0
    8.2860   71.3470  -59.9340 O   0  0  0  0  0  0  0  0  0  0  0  0
   10.1620   72.2030  -60.3950 O   0  0  0  0  0  0  0  0  0  0  0  0
   10.6916   70.8636  -62.8088 H   0  0  0  0  0  0  0  0  0  0  0  0
   10.2206   69.1398  -62.9908 H   0  0  0  0  0  0  0  0  0  0  0  0
    8.9605   70.4199  -62.9908 H   0  0  0  0  0  0  0  0  0  0  0  0
   10.7707   69.6805  -60.6259 H   0  0  0  0  0  0  0  0  0  0  0  0
    9.0255   69.2344  -60.8221 H   0  0  0  0  0  0  0  0  0  0  0  0
  1  3  1  0
  1  4  2  0
  1  5  1  0
  2  3  1  0
  2  6  1  0
  2  7  1  0
  2  8  1  0
  3  9  1  0
  3 10  1  0
M  CHG  2   1   1   5  -1
A    1
N3
A    2
C1
A    3
C2
A    4
O4
A    5
O5
M  END
