3FCK_FCK_B_1
     RDKit          3D

 43 44  0  0  0  0  0  0  0  0999 V2000
  -18.0920   -2.4200    9.2670 C   0  0  0  0  0  0  0  0  0  0  0  0
  -17.3120   -1.7000    8.3680 C   0  0  0  0  0  0  0  0  0  0  0  0
  -17.4500   -1.8990    6.9970 C   0  0  0  0  0  0  0  0  0  0  0  0
  -18.3790   -2.8250    6.5370 C   0  0  0  0  0  0  0  0  0  0  0  0
  -19.1630   -3.5500    7.4280 C   0  0  0  0  0  0  0  0  0  0  0  0
  -19.0170   -3.3450    8.7980 C   0  0  0  0  0  0  0  0  0  0  0  0
  -16.8390    0.3650    4.0530 C   0  0  0  0  0  0  0  0  0  0  0  0
  -20.2450   -4.7070    5.7370 O   0  0  0  0  0  0  0  0  0  0  0  0
  -20.1320   -4.5210    6.9090 C   0  0  0  0  0  0  0  0  0  0  0  0
  -20.8660   -5.1690    7.8290 O   0  0  0  0  0  0  0  0  0  0  0  0
  -16.6190   -1.1330    6.0060 C   0  0  0  0  0  0  0  0  0  0  0  0
  -17.4370   -0.1610    5.2810 N   0  0  0  0  0  0  0  0  0  0  0  0
  -17.0630   -0.5600    2.8500 C   0  0  0  0  0  0  0  0  0  0  0  0
  -16.4860    0.0100    1.5520 C   0  0  0  0  0  0  0  0  0  0  0  0
  -16.7490   -0.8900    0.5000 O   0  0  0  0  0  0  0  0  0  0  0  0
  -15.8620   -0.8430   -0.7620 N   0  0  0  0  0  0  0  0  0  0  0  0
  -16.4230   -1.0440   -1.8730 C   0  0  0  0  0  0  0  0  0  0  0  0
  -15.8400   -0.5190   -3.1330 C   0  0  0  0  0  0  0  0  0  0  0  0
  -15.1420    0.6320   -3.1460 N   0  0  0  0  0  0  0  0  0  0  0  0
  -16.0230   -1.2210   -4.3230 C   0  0  0  0  0  0  0  0  0  0  0  0
  -15.4740   -0.7110   -5.4960 C   0  0  0  0  0  0  0  0  0  0  0  0
  -15.6180   -1.3140   -6.5800 O   0  0  0  0  0  0  0  0  0  0  0  0
  -14.7850    0.4380   -5.4550 N   0  0  0  0  0  0  0  0  0  0  0  0
  -14.6210    1.0980   -4.2980 C   0  0  0  0  0  0  0  0  0  0  0  0
  -13.9740    2.1640   -4.3060 O   0  0  0  0  0  0  0  0  0  0  0  0
  -17.9767   -2.2572   10.3488 H   0  0  0  0  0  0  0  0  0  0  0  0
  -16.5811   -0.9684    8.7429 H   0  0  0  0  0  0  0  0  0  0  0  0
  -18.4955   -2.9863    5.4551 H   0  0  0  0  0  0  0  0  0  0  0  0
  -19.6337   -3.9151    9.5084 H   0  0  0  0  0  0  0  0  0  0  0  0
  -17.2877    1.3450    3.8333 H   0  0  0  0  0  0  0  0  0  0  0  0
  -15.7542    0.4456    4.2164 H   0  0  0  0  0  0  0  0  0  0  0  0
  -20.6963   -5.0192    8.7928 H   0  0  0  0  0  0  0  0  0  0  0  0
  -15.8182   -0.6019    6.5415 H   0  0  0  0  0  0  0  0  0  0  0  0
  -16.1916   -1.8426    5.2823 H   0  0  0  0  0  0  0  0  0  0  0  0
  -17.6215    0.6328    5.9108 H   0  0  0  0  0  0  0  0  0  0  0  0
  -16.5806   -1.5271    3.0549 H   0  0  0  0  0  0  0  0  0  0  0  0
  -18.1488   -0.6687    2.7117 H   0  0  0  0  0  0  0  0  0  0  0  0
  -16.9563    0.9802    1.3339 H   0  0  0  0  0  0  0  0  0  0  0  0
  -15.4003    0.1514    1.6580 H   0  0  0  0  0  0  0  0  0  0  0  0
  -17.3605   -1.6182   -1.9092 H   0  0  0  0  0  0  0  0  0  0  0  0
  -15.0056    1.1588   -2.2715 H   0  0  0  0  0  0  0  0  0  0  0  0
  -16.5918   -2.1624   -4.3350 H   0  0  0  0  0  0  0  0  0  0  0  0
  -14.3770    0.8185   -6.3208 H   0  0  0  0  0  0  0  0  0  0  0  0
  2  1  2  0
  3  2  1  0
  4  3  2  0
  4  5  1  0
  5  6  2  0
  6  1  1  0
  7 12  1  0
  8  9  2  0
  9  5  1  0
  9 10  1  0
 11  3  1  0
 12 11  1  0
 13  7  1  0
 14 13  1  0
 15 14  1  0
 16 15  1  0
 17 16  2  0
 18 17  1  0
 19 18  1  0
 20 18  2  0
 21 20  1  0
 21 23  1  0
 22 21  2  0
 23 24  1  0
 24 19  1  0
 25 24  2  0
  1 26  1  0
  2 27  1  0
  4 28  1  0
  6 29  1  0
  7 30  1  0
  7 31  1  0
 10 32  1  0
 11 33  1  0
 11 34  1  0
 12 35  1  0
 13 36  1  0
 13 37  1  0
 14 38  1  0
 14 39  1  0
 17 40  1  0
 19 41  1  0
 20 42  1  0
 23 43  1  0
A    1
C1
A    2
C2
A    3
C3
A    4
C4
A    5
C5
A    6
C6
A    7
C7
A    8
O39
A    9
C38
A   10
O40
A   11
C17
A   12
N18
A   13
C22
A   14
C23
A   15
O27
A   16
N31
A   17
C30
A   18
C16
A   19
N11
A   20
C15
A   21
C14
A   22
O33
A   23
N13
A   24
C12
A   25
O34
M  END
