3FCL_3FL_A_1
     RDKit          3D

 47 48  0  0  0  0  0  0  0  0999 V2000
   35.0190    4.6120   19.0000 C   0  0  0  0  0  0  0  0  0  0  0  0
   40.9530    1.0470   14.9850 C   0  0  0  0  0  0  0  0  0  0  0  0
   41.5200    2.3120   14.8690 C   0  0  0  0  0  0  0  0  0  0  0  0
   39.3140    3.2920   14.8070 C   0  0  0  0  0  0  0  0  0  0  0  0
   39.5670    0.8960   15.0060 C   0  0  0  0  0  0  0  0  0  0  0  0
   41.8780   -0.8370   16.0430 O   0  0  0  0  0  0  0  0  0  0  0  0
   41.8590   -0.1460   15.0620 C   0  0  0  0  0  0  0  0  0  0  0  0
   42.6280   -0.3970   14.0100 O   0  0  0  0  0  0  0  0  0  0  0  0
   40.7010    3.4350   14.7830 C   0  0  0  0  0  0  0  0  0  0  0  0
   38.7480    2.0250   14.9180 C   0  0  0  0  0  0  0  0  0  0  0  0
   37.2440    1.8880   14.9510 C   0  0  0  0  0  0  0  0  0  0  0  0
   36.8120    1.6570   16.3170 N   0  0  0  0  0  0  0  0  0  0  0  0
   36.8750    2.7140   17.3040 C   0  0  0  0  0  0  0  0  0  0  0  0
   36.0250    2.3820   18.5220 C   0  0  0  0  0  0  0  0  0  0  0  0
   35.9790    3.5420   19.5040 C   0  0  0  0  0  0  0  0  0  0  0  0
   33.8040    4.6370   19.7300 N   0  0  0  0  0  0  0  0  0  0  0  0
   33.1230    5.8270   19.3690 C   0  0  0  0  0  0  0  0  0  0  0  0
   31.8710    5.4740   18.6000 C   0  0  0  0  0  0  0  0  0  0  0  0
   31.9660    4.8730   17.3990 N   0  0  0  0  0  0  0  0  0  0  0  0
   30.6260    5.7740   19.1360 C   0  0  0  0  0  0  0  0  0  0  0  0
   29.5030    5.4370   18.3910 C   0  0  0  0  0  0  0  0  0  0  0  0
   28.3620    5.6830   18.8290 O   0  0  0  0  0  0  0  0  0  0  0  0
   29.6490    4.8340   17.1970 N   0  0  0  0  0  0  0  0  0  0  0  0
   30.8640    4.5560   16.7020 C   0  0  0  0  0  0  0  0  0  0  0  0
   30.9640    3.9900   15.5920 O   0  0  0  0  0  0  0  0  0  0  0  0
   35.5058    5.5942   19.0911 H   0  0  0  0  0  0  0  0  0  0  0  0
   34.7758    4.3774   17.9532 H   0  0  0  0  0  0  0  0  0  0  0  0
   42.6139    2.4251   14.8452 H   0  0  0  0  0  0  0  0  0  0  0  0
   38.6678    4.1795   14.7383 H   0  0  0  0  0  0  0  0  0  0  0  0
   39.1209   -0.1058   15.0913 H   0  0  0  0  0  0  0  0  0  0  0  0
   41.8666   -0.4214   16.9415 H   0  0  0  0  0  0  0  0  0  0  0  0
   41.1486    4.4360   14.6960 H   0  0  0  0  0  0  0  0  0  0  0  0
   36.7827    2.8116   14.5712 H   0  0  0  0  0  0  0  0  0  0  0  0
   36.9378    1.0406   14.3200 H   0  0  0  0  0  0  0  0  0  0  0  0
   35.8269    1.3602   16.2672 H   0  0  0  0  0  0  0  0  0  0  0  0
   37.9199    2.8467   17.6212 H   0  0  0  0  0  0  0  0  0  0  0  0
   36.4868    3.6377   16.8500 H   0  0  0  0  0  0  0  0  0  0  0  0
   35.0011    2.1531   18.1914 H   0  0  0  0  0  0  0  0  0  0  0  0
   36.4754    1.5172   19.0311 H   0  0  0  0  0  0  0  0  0  0  0  0
   36.9856    3.9739   19.6053 H   0  0  0  0  0  0  0  0  0  0  0  0
   35.6310    3.1752   20.4809 H   0  0  0  0  0  0  0  0  0  0  0  0
   33.2309    3.8156   19.4897 H   0  0  0  0  0  0  0  0  0  0  0  0
   32.8510    6.3844   20.2775 H   0  0  0  0  0  0  0  0  0  0  0  0
   33.7774    6.4492   18.7408 H   0  0  0  0  0  0  0  0  0  0  0  0
   32.8947    4.6541   17.0110 H   0  0  0  0  0  0  0  0  0  0  0  0
   30.5320    6.2620   20.1173 H   0  0  0  0  0  0  0  0  0  0  0  0
   28.8118    4.5812   16.6529 H   0  0  0  0  0  0  0  0  0  0  0  0
  1 15  1  0
  1 16  1  0
  2  5  2  0
  2  7  1  0
  3  2  1  0
  4 10  2  0
  7  6  1  0
  8  7  2  0
  9  3  2  0
  9  4  1  0
 10  5  1  0
 10 11  1  0
 11 12  1  0
 12 13  1  0
 13 14  1  0
 14 15  1  0
 17 16  1  0
 18 17  1  0
 18 20  2  0
 19 18  1  0
 21 20  1  0
 21 22  2  0
 23 21  1  0
 24 19  1  0
 24 23  1  0
 25 24  2  0
  1 26  1  0
  1 27  1  0
  3 28  1  0
  4 29  1  0
  5 30  1  0
  6 31  1  0
  9 32  1  0
 11 33  1  0
 11 34  1  0
 12 35  1  0
 13 36  1  0
 13 37  1  0
 14 38  1  0
 14 39  1  0
 15 40  1  0
 15 41  1  0
 16 42  1  0
 17 43  1  0
 17 44  1  0
 19 45  1  0
 20 46  1  0
 23 47  1  0
A    1
C8
A    2
C5
A    3
C6
A    4
C2
A    5
C4
A    6
O40
A    7
C38
A    8
O39
A    9
C1
A   10
C3
A   11
C17
A   12
N18
A   13
C7
A   14
C22
A   15
C23
A   16
N31
A   17
C30
A   18
C16
A   19
N11
A   20
C15
A   21
C14
A   22
O33
A   23
N13
A   24
C12
A   25
O34
M  END
