3FEI_CTM_A_1
     RDKit          3D

 51 53  0  0  0  0  0  0  0  0999 V2000
   48.0770   31.0950   35.1900 N   0  0  0  0  0  0  0  0  0  0  0  0
   48.3560   31.4880   36.4230 C   0  0  0  0  0  0  0  0  0  0  0  0
   47.3110   32.7150   37.0750 S   0  0  0  0  0  0  0  0  0  0  0  0
   46.9890   31.7680   34.7000 C   0  0  0  0  0  0  0  0  0  0  0  0
   46.4480   32.6790   35.5610 C   0  0  0  0  0  0  0  0  0  0  0  0
   48.4710   38.0940   28.5530 C   0  0  0  0  0  0  0  0  0  0  0  0
   46.3480   35.4980   30.2460 C   0  0  0  0  0  0  0  0  0  0  0  0
   46.6050   36.4950   29.1620 C   0  0  0  0  0  0  0  0  0  0  0  0
   49.4190   31.0020   37.2940 C   0  0  0  0  0  0  0  0  0  0  0  0
   45.4390   35.7820   31.2780 C   0  0  0  0  0  0  0  0  0  0  0  0
   47.8950   37.2030   29.6000 C   0  0  0  0  0  0  0  0  0  0  0  0
   45.2200   34.8520   32.2780 C   0  0  0  0  0  0  0  0  0  0  0  0
   48.2400   39.2980   28.4940 O   0  0  0  0  0  0  0  0  0  0  0  0
   47.0560   34.2920   30.2290 C   0  0  0  0  0  0  0  0  0  0  0  0
   49.5380   31.5550   38.5760 C   0  0  0  0  0  0  0  0  0  0  0  0
   50.3150   30.0000   36.8960 C   0  0  0  0  0  0  0  0  0  0  0  0
   46.3950   31.5680   33.3200 C   0  0  0  0  0  0  0  0  0  0  0  0
   45.9290   33.6560   32.2320 C   0  0  0  0  0  0  0  0  0  0  0  0
   45.6680   32.7760   33.2350 O   0  0  0  0  0  0  0  0  0  0  0  0
   49.2860   37.5030   27.6590 O   0  0  0  0  0  0  0  0  0  0  0  0
   51.4260   30.1400   39.0380 C   0  0  0  0  0  0  0  0  0  0  0  0
   46.8460   33.3470   31.2280 C   0  0  0  0  0  0  0  0  0  0  0  0
   50.5380   31.1330   39.4460 C   0  0  0  0  0  0  0  0  0  0  0  0
   51.3150   29.5760   37.7670 C   0  0  0  0  0  0  0  0  0  0  0  0
   52.6980   29.5990   40.1390 Cl  0  0  0  0  0  0  0  0  0  0  0  0
   47.6990   37.9910   30.7720 O   0  0  0  0  0  0  0  0  0  0  0  0
   44.6710   37.0660   31.3160 C   0  0  0  0  0  0  0  0  0  0  0  0
   48.9290   38.6250   31.1170 C   0  0  0  0  0  0  0  0  0  0  0  0
   48.6920   39.6220   32.2510 C   0  0  0  0  0  0  0  0  0  0  0  0
   45.5777   33.3103   35.3287 H   0  0  0  0  0  0  0  0  0  0  0  0
   46.7456   35.9915   28.1941 H   0  0  0  0  0  0  0  0  0  0  0  0
   45.7666   37.1937   29.0246 H   0  0  0  0  0  0  0  0  0  0  0  0
   48.5996   36.3816   29.7975 H   0  0  0  0  0  0  0  0  0  0  0  0
   44.5039   35.0528   33.0885 H   0  0  0  0  0  0  0  0  0  0  0  0
   47.7794   34.0906   29.4252 H   0  0  0  0  0  0  0  0  0  0  0  0
   48.8310   32.3334   38.8988 H   0  0  0  0  0  0  0  0  0  0  0  0
   50.2281   29.5491   35.8964 H   0  0  0  0  0  0  0  0  0  0  0  0
   47.1685   31.4928   32.5415 H   0  0  0  0  0  0  0  0  0  0  0  0
   45.8126   30.6459   33.1769 H   0  0  0  0  0  0  0  0  0  0  0  0
   50.0465   36.9515   27.9714 H   0  0  0  0  0  0  0  0  0  0  0  0
   47.3852   32.3882   31.2260 H   0  0  0  0  0  0  0  0  0  0  0  0
   50.6269   31.5794   40.4474 H   0  0  0  0  0  0  0  0  0  0  0  0
   52.0204   28.7931   37.4516 H   0  0  0  0  0  0  0  0  0  0  0  0
   44.4964   37.3580   32.3621 H   0  0  0  0  0  0  0  0  0  0  0  0
   45.2469   37.8529   30.8069 H   0  0  0  0  0  0  0  0  0  0  0  0
   43.7053   36.9308   30.8069 H   0  0  0  0  0  0  0  0  0  0  0  0
   49.6537   37.8646   31.4436 H   0  0  0  0  0  0  0  0  0  0  0  0
   49.3241   39.1575   30.2393 H   0  0  0  0  0  0  0  0  0  0  0  0
   48.8131   39.1126   33.2184 H   0  0  0  0  0  0  0  0  0  0  0  0
   49.4200   40.4432   32.1754 H   0  0  0  0  0  0  0  0  0  0  0  0
   47.6724   40.0278   32.1754 H   0  0  0  0  0  0  0  0  0  0  0  0
  1  2  2  0
  1  4  1  0
  2  3  1  0
  2  9  1  0
  3  5  1  0
  4  5  2  0
  4 17  1  0
  6 11  1  0
  6 13  2  0
  6 20  1  0
  7  8  1  0
  7 10  2  0
  7 14  1  0
  8 11  1  0
  9 15  2  0
  9 16  1  0
 10 12  1  0
 10 27  1  0
 11 26  1  0
 12 18  2  0
 14 22  2  0
 15 23  1  0
 16 24  2  0
 17 19  1  0
 18 19  1  0
 18 22  1  0
 21 23  2  0
 21 24  1  0
 21 25  1  0
 26 28  1  0
 28 29  1  0
  5 30  1  0
  8 31  1  0
  8 32  1  0
 11 33  1  0
 12 34  1  0
 14 35  1  0
 15 36  1  0
 16 37  1  0
 17 38  1  0
 17 39  1  0
 20 40  1  0
 22 41  1  0
 23 42  1  0
 24 43  1  0
 27 44  1  0
 27 45  1  0
 27 46  1  0
 28 47  1  0
 28 48  1  0
 29 49  1  0
 29 50  1  0
 29 51  1  0
A    1
N1
A    2
C2
A    3
S3
A    4
C4
A    5
C5
A    6
C6
A    7
C7
A    8
C8
A    9
C9
A   10
C10
A   11
C11
A   12
C12
A   13
O13
A   14
C14
A   15
C15
A   16
C16
A   17
C17
A   18
C18
A   19
O19
A   20
O20
A   21
C21
A   22
C22
A   23
C23
A   24
C24
A   25
CL25
A   26
O26
A   27
C27
A   28
C28
A   29
C29
M  END
