3FFI_3OB_A_561
     RDKit          3D

 56 59  0  0  0  0  0  0  0  0999 V2000
   48.6190   63.8630   20.7320 C   0  0  0  0  0  0  0  0  0  0  0  0
   48.5080   62.4830   20.8980 C   0  0  0  0  0  0  0  0  0  0  0  0
   48.1230   61.7030   19.8270 C   0  0  0  0  0  0  0  0  0  0  0  0
   47.8470   62.2710   18.5980 C   0  0  0  0  0  0  0  0  0  0  0  0
   47.9620   63.6440   18.4290 C   0  0  0  0  0  0  0  0  0  0  0  0
   48.3460   64.4440   19.4940 C   0  0  0  0  0  0  0  0  0  0  0  0
   47.6850   64.2140   17.2260 O   0  0  0  0  0  0  0  0  0  0  0  0
   49.0150   64.6880   21.8260 C   0  0  0  0  0  0  0  0  0  0  0  0
   47.9750   59.9890   20.0030 Cl  0  0  0  0  0  0  0  0  0  0  0  0
   48.3090   63.8110   16.0840 C   0  0  0  0  0  0  0  0  0  0  0  0
   49.7140   63.9190   15.9430 C   0  0  0  0  0  0  0  0  0  0  0  0
   50.2950   63.5100   14.7910 C   0  0  0  0  0  0  0  0  0  0  0  0
   49.5540   63.0090   13.7630 N   0  0  0  0  0  0  0  0  0  0  0  0
   48.2120   62.8890   13.8460 C   0  0  0  0  0  0  0  0  0  0  0  0
   47.5530   63.2930   15.0290 C   0  0  0  0  0  0  0  0  0  0  0  0
   46.1530   63.1870   15.1500 N   0  0  0  0  0  0  0  0  0  0  0  0
   47.5830   62.4340   12.8970 O   0  0  0  0  0  0  0  0  0  0  0  0
   45.5280   61.9500   15.6250 C   0  0  0  0  0  0  0  0  0  0  0  0
   45.3150   64.3300   14.7920 C   0  0  0  0  0  0  0  0  0  0  0  0
   51.7860   63.6210   14.6200 C   0  0  0  0  0  0  0  0  0  0  0  0
   49.3260   65.3520   22.6920 N   0  0  0  0  0  0  0  0  0  0  0  0
   52.0170   64.8270   13.7520 C   0  0  0  0  0  0  0  0  0  0  0  0
   51.7240   64.7630   12.5780 O   0  0  0  0  0  0  0  0  0  0  0  0
   52.5050   65.9780   14.2560 N   0  0  0  0  0  0  0  0  0  0  0  0
   52.6990   67.1310   13.3600 C   0  0  0  0  0  0  0  0  0  0  0  0
   52.2280   67.3180   16.3390 C   0  0  0  0  0  0  0  0  0  0  0  0
   52.8750   66.0950   15.6860 C   0  0  0  0  0  0  0  0  0  0  0  0
   52.2750   68.5340   15.4360 C   0  0  0  0  0  0  0  0  0  0  0  0
   52.4830   68.4470   14.0680 C   0  0  0  0  0  0  0  0  0  0  0  0
   52.5140   69.6100   13.2950 C   0  0  0  0  0  0  0  0  0  0  0  0
   52.3290   70.8520   13.8880 C   0  0  0  0  0  0  0  0  0  0  0  0
   52.1160   70.9380   15.2590 C   0  0  0  0  0  0  0  0  0  0  0  0
   52.0900   69.7860   16.0290 C   0  0  0  0  0  0  0  0  0  0  0  0
   48.7251   62.0211   21.8724 H   0  0  0  0  0  0  0  0  0  0  0  0
   47.5367   61.6362   17.7549 H   0  0  0  0  0  0  0  0  0  0  0  0
   48.4350   65.5326   19.3631 H   0  0  0  0  0  0  0  0  0  0  0  0
   50.3256   64.3302   16.7596 H   0  0  0  0  0  0  0  0  0  0  0  0
   50.0309   62.7138   12.8991 H   0  0  0  0  0  0  0  0  0  0  0  0
   45.5232   61.9405   16.7249 H   0  0  0  0  0  0  0  0  0  0  0  0
   44.4941   61.8954   15.2533 H   0  0  0  0  0  0  0  0  0  0  0  0
   46.0974   61.0853   15.2533 H   0  0  0  0  0  0  0  0  0  0  0  0
   44.9546   64.8215   15.7077 H   0  0  0  0  0  0  0  0  0  0  0  0
   45.9042   65.0453   14.1994 H   0  0  0  0  0  0  0  0  0  0  0  0
   44.4556   63.9832   14.1994 H   0  0  0  0  0  0  0  0  0  0  0  0
   52.2735   63.7546   15.5970 H   0  0  0  0  0  0  0  0  0  0  0  0
   52.2074   62.7121   14.1659 H   0  0  0  0  0  0  0  0  0  0  0  0
   53.7259   67.1049   12.9666 H   0  0  0  0  0  0  0  0  0  0  0  0
   51.9578   67.0577   12.5505 H   0  0  0  0  0  0  0  0  0  0  0  0
   51.1774   67.0850   16.5668 H   0  0  0  0  0  0  0  0  0  0  0  0
   52.7907   67.5523   17.2547 H   0  0  0  0  0  0  0  0  0  0  0  0
   52.5423   65.1901   16.2156 H   0  0  0  0  0  0  0  0  0  0  0  0
   53.9672   66.2095   15.7496 H   0  0  0  0  0  0  0  0  0  0  0  0
   52.6859   69.5417   12.2107 H   0  0  0  0  0  0  0  0  0  0  0  0
   52.3509   71.7649   13.2747 H   0  0  0  0  0  0  0  0  0  0  0  0
   51.9682   71.9198   15.7324 H   0  0  0  0  0  0  0  0  0  0  0  0
   51.9227   69.8575   17.1138 H   0  0  0  0  0  0  0  0  0  0  0  0
  1  2  2  0
  1  6  1  0
  1  8  1  0
  2  3  1  0
  3  4  2  0
  3  9  1  0
  4  5  1  0
  5  6  2  0
  5  7  1  0
  7 10  1  0
  8 21  3  0
 10 11  1  0
 10 15  2  0
 11 12  2  0
 12 13  1  0
 12 20  1  0
 13 14  1  0
 14 15  1  0
 14 17  2  0
 15 16  1  0
 16 18  1  0
 16 19  1  0
 20 22  1  0
 22 23  2  0
 22 24  1  0
 24 25  1  0
 24 27  1  0
 25 29  1  0
 26 27  1  0
 26 28  1  0
 28 29  2  0
 28 33  1  0
 29 30  1  0
 30 31  2  0
 31 32  1  0
 32 33  2  0
  2 34  1  0
  4 35  1  0
  6 36  1  0
 11 37  1  0
 13 38  1  0
 18 39  1  0
 18 40  1  0
 18 41  1  0
 19 42  1  0
 19 43  1  0
 19 44  1  0
 20 45  1  0
 20 46  1  0
 25 47  1  0
 25 48  1  0
 26 49  1  0
 26 50  1  0
 27 51  1  0
 27 52  1  0
 30 53  1  0
 31 54  1  0
 32 55  1  0
 33 56  1  0
A    1
C1
A    2
C2
A    3
C3
A    4
C4
A    5
C5
A    6
C6
A    7
O7
A    8
C8
A    9
CL9
A   10
C10
A   11
C11
A   12
C12
A   13
N13
A   14
C14
A   15
C15
A   16
N16
A   17
O17
A   18
C18
A   19
C19
A   20
C20
A   21
N21
A   22
C22
A   23
O23
A   24
N24
A   25
C25
A   26
C26
A   27
C27
A   28
C28
A   29
C29
A   30
C30
A   31
C31
A   32
C32
A   33
C33
M  END
