3FH5_24P_A_611
     RDKit          3D

 41 43  0  0  0  0  0  0  0  0999 V2000
   24.3950   -2.0670   -2.0270 C   0  0  0  0  0  0  0  0  0  0  0  0
   23.9350   -2.8640   -3.0830 C   0  0  0  0  0  0  0  0  0  0  0  0
   23.6910   -2.3030   -4.3390 C   0  0  0  0  0  0  0  0  0  0  0  0
   23.8970   -0.9370   -4.5260 C   0  0  0  0  0  0  0  0  0  0  0  0
   24.3560   -0.1410   -3.4790 C   0  0  0  0  0  0  0  0  0  0  0  0
   24.6140   -0.6960   -2.2150 C   0  0  0  0  0  0  0  0  0  0  0  0
   25.0970    0.1980   -1.0710 C   0  0  0  0  0  0  0  0  0  0  0  0
   26.5030   -0.1370   -0.5410 C   0  0  0  0  0  0  0  0  0  0  0  0
   26.6720   -0.6300    0.7550 C   0  0  0  0  0  0  0  0  0  0  0  0
   27.9540   -0.9140    1.2530 C   0  0  0  0  0  0  0  0  0  0  0  0
   27.6150    0.0910   -1.3530 C   0  0  0  0  0  0  0  0  0  0  0  0
   28.8870   -0.1970   -0.8590 C   0  0  0  0  0  0  0  0  0  0  0  0
   29.0690   -0.7040    0.4320 C   0  0  0  0  0  0  0  0  0  0  0  0
   30.3560   -0.9740    0.8340 O   0  0  0  0  0  0  0  0  0  0  0  0
   30.5630   -1.8210    2.0050 C   0  0  0  0  0  0  0  0  0  0  0  0
   31.8900   -2.5840    1.8320 C   0  0  0  0  0  0  0  0  0  0  0  0
   31.9690   -3.4260    0.5540 C   0  0  0  0  0  0  0  0  0  0  0  0
   33.4780   -3.7040    0.4740 C   0  0  0  0  0  0  0  0  0  0  0  0
   34.1210   -2.5540    1.2500 C   0  0  0  0  0  0  0  0  0  0  0  0
   33.0190   -1.6570    1.6630 N   0  0  0  0  0  0  0  0  0  0  0  0
   24.5856   -2.5207   -1.0432 H   0  0  0  0  0  0  0  0  0  0  0  0
   23.7647   -3.9388   -2.9223 H   0  0  0  0  0  0  0  0  0  0  0  0
   23.3404   -2.9318   -5.1707 H   0  0  0  0  0  0  0  0  0  0  0  0
   23.6955   -0.4841   -5.5080 H   0  0  0  0  0  0  0  0  0  0  0  0
   24.5182    0.9344   -3.6441 H   0  0  0  0  0  0  0  0  0  0  0  0
   25.1049    1.2381   -1.4291 H   0  0  0  0  0  0  0  0  0  0  0  0
   24.4026    0.0331   -0.2340 H   0  0  0  0  0  0  0  0  0  0  0  0
   25.7913   -0.7976    1.3924 H   0  0  0  0  0  0  0  0  0  0  0  0
   28.0810   -1.2970    2.2763 H   0  0  0  0  0  0  0  0  0  0  0  0
   27.4898    0.4926   -2.3694 H   0  0  0  0  0  0  0  0  0  0  0  0
   29.7653   -0.0219   -1.4977 H   0  0  0  0  0  0  0  0  0  0  0  0
   30.6095   -1.1972    2.9098 H   0  0  0  0  0  0  0  0  0  0  0  0
   29.7306   -2.5331    2.1053 H   0  0  0  0  0  0  0  0  0  0  0  0
   31.9356   -3.2075    2.7371 H   0  0  0  0  0  0  0  0  0  0  0  0
   31.3917   -4.3576    0.6485 H   0  0  0  0  0  0  0  0  0  0  0  0
   31.5521   -2.9345   -0.3375 H   0  0  0  0  0  0  0  0  0  0  0  0
   33.7205   -4.6707    0.9396 H   0  0  0  0  0  0  0  0  0  0  0  0
   33.8383   -3.7613   -0.5638 H   0  0  0  0  0  0  0  0  0  0  0  0
   34.6480   -2.9406    2.1348 H   0  0  0  0  0  0  0  0  0  0  0  0
   34.8576   -2.0201    0.6317 H   0  0  0  0  0  0  0  0  0  0  0  0
   32.8181   -0.9566    0.9350 H   0  0  0  0  0  0  0  0  0  0  0  0
  1  2  2  0
  1  6  1  0
  2  3  1  0
  3  4  2  0
  4  5  1  0
  5  6  2  0
  6  7  1  0
  7  8  1  0
  8  9  2  0
  8 11  1  0
  9 10  1  0
 10 13  2  0
 11 12  2  0
 12 13  1  0
 13 14  1  0
 14 15  1  0
 15 16  1  0
 16 17  1  0
 16 20  1  0
 17 18  1  0
 18 19  1  0
 19 20  1  0
  1 21  1  0
  2 22  1  0
  3 23  1  0
  4 24  1  0
  5 25  1  0
  7 26  1  0
  7 27  1  0
  9 28  1  0
 10 29  1  0
 11 30  1  0
 12 31  1  0
 15 32  1  0
 15 33  1  0
 16 34  1  0
 17 35  1  0
 17 36  1  0
 18 37  1  0
 18 38  1  0
 19 39  1  0
 19 40  1  0
 20 41  1  0
A    1
CAB
A    2
CAA
A    3
CAF
A    4
CAE
A    5
CAD
A    6
CAC
A    7
CAG
A    8
CAH
A    9
CAM
A   10
CAL
A   11
CAI
A   12
CAJ
A   13
CAK
A   14
OAN
A   15
CAO
A   16
CAP
A   17
CAQ
A   18
CAR
A   19
CAS
A   20
NAT
M  END
