3FH7_25P_A_612
     RDKit          3D

 50 52  0  0  0  0  0  0  0  0999 V2000
   24.5860   87.3330   -2.8990 C   0  0  0  0  0  0  0  0  0  0  0  0
   24.0210   86.6650   -3.9770 C   0  0  0  0  0  0  0  0  0  0  0  0
   23.7390   85.3130   -3.8610 C   0  0  0  0  0  0  0  0  0  0  0  0
   23.0740   84.5200   -5.2140 Cl  0  0  0  0  0  0  0  0  0  0  0  0
   23.9910   84.5890   -2.7020 C   0  0  0  0  0  0  0  0  0  0  0  0
   24.5470   85.2560   -1.6180 C   0  0  0  0  0  0  0  0  0  0  0  0
   24.8440   86.6230   -1.7370 C   0  0  0  0  0  0  0  0  0  0  0  0
   25.3730   87.3030   -0.7060 O   0  0  0  0  0  0  0  0  0  0  0  0
   26.5830   86.9350   -0.2250 C   0  0  0  0  0  0  0  0  0  0  0  0
   27.7310   86.9390   -1.0300 C   0  0  0  0  0  0  0  0  0  0  0  0
   28.9660   86.5830   -0.4510 C   0  0  0  0  0  0  0  0  0  0  0  0
   26.6650   86.6090    1.1210 C   0  0  0  0  0  0  0  0  0  0  0  0
   27.8890   86.2660    1.7010 C   0  0  0  0  0  0  0  0  0  0  0  0
   29.0440   86.2410    0.9070 C   0  0  0  0  0  0  0  0  0  0  0  0
   30.2150   85.8980    1.5100 O   0  0  0  0  0  0  0  0  0  0  0  0
   31.1990   85.3340    0.6580 C   0  0  0  0  0  0  0  0  0  0  0  0
   32.0800   84.7140    1.7380 C   0  0  0  0  0  0  0  0  0  0  0  0
   32.7380   85.7800    2.6020 C   0  0  0  0  0  0  0  0  0  0  0  0
   34.0700   85.1580    2.9390 C   0  0  0  0  0  0  0  0  0  0  0  0
   34.4490   84.4730    1.6470 C   0  0  0  0  0  0  0  0  0  0  0  0
   33.1830   83.8610    1.2130 N   0  0  0  0  0  0  0  0  0  0  0  0
   33.1610   83.6650   -0.2320 C   0  0  0  0  0  0  0  0  0  0  0  0
   33.8160   82.3290   -0.4970 C   0  0  0  0  0  0  0  0  0  0  0  0
   35.2170   82.5700   -1.0570 C   0  0  0  0  0  0  0  0  0  0  0  0
   35.1820   83.0630   -2.4900 C   0  0  0  0  0  0  0  0  0  0  0  0
   34.1680   82.7770   -3.1800 O   0  0  0  0  0  0  0  0  0  0  0  0
   36.1980   83.6550   -2.8830 O   0  0  0  0  0  0  0  0  0  0  0  0
   24.8242   88.4048   -2.9658 H   0  0  0  0  0  0  0  0  0  0  0  0
   23.8000   87.2019   -4.9113 H   0  0  0  0  0  0  0  0  0  0  0  0
   23.7563   83.5159   -2.6446 H   0  0  0  0  0  0  0  0  0  0  0  0
   24.7518   84.7206   -0.6792 H   0  0  0  0  0  0  0  0  0  0  0  0
   27.6691   87.2147   -2.0931 H   0  0  0  0  0  0  0  0  0  0  0  0
   29.8758   86.5734   -1.0692 H   0  0  0  0  0  0  0  0  0  0  0  0
   25.7552   86.6207    1.7392 H   0  0  0  0  0  0  0  0  0  0  0  0
   27.9458   86.0178    2.7711 H   0  0  0  0  0  0  0  0  0  0  0  0
   30.7786   84.5785   -0.0220 H   0  0  0  0  0  0  0  0  0  0  0  0
   31.6975   86.0300   -0.0327 H   0  0  0  0  0  0  0  0  0  0  0  0
   31.3831   84.0882    2.3148 H   0  0  0  0  0  0  0  0  0  0  0  0
   32.8685   86.7185    2.0433 H   0  0  0  0  0  0  0  0  0  0  0  0
   32.1456   86.0502    3.4886 H   0  0  0  0  0  0  0  0  0  0  0  0
   34.8088   85.9254    3.2133 H   0  0  0  0  0  0  0  0  0  0  0  0
   34.0291   84.4756    3.8008 H   0  0  0  0  0  0  0  0  0  0  0  0
   34.8112   85.2002    0.9054 H   0  0  0  0  0  0  0  0  0  0  0  0
   35.2644   83.7443    1.7657 H   0  0  0  0  0  0  0  0  0  0  0  0
   32.1238   83.6584   -0.5983 H   0  0  0  0  0  0  0  0  0  0  0  0
   33.6922   84.4768   -0.7504 H   0  0  0  0  0  0  0  0  0  0  0  0
   33.8859   81.7589    0.4412 H   0  0  0  0  0  0  0  0  0  0  0  0
   33.2176   81.7564   -1.2208 H   0  0  0  0  0  0  0  0  0  0  0  0
   35.7227   83.3234   -0.4351 H   0  0  0  0  0  0  0  0  0  0  0  0
   35.7570   81.6118   -1.0418 H   0  0  0  0  0  0  0  0  0  0  0  0
  1  2  2  0
  1  7  1  0
  2  3  1  0
  3  4  1  0
  3  5  2  0
  5  6  1  0
  6  7  2  0
  7  8  1  0
  8  9  1  0
  9 10  2  0
  9 12  1  0
 10 11  1  0
 11 14  2  0
 12 13  2  0
 13 14  1  0
 14 15  1  0
 15 16  1  0
 16 17  1  0
 17 18  1  0
 17 21  1  0
 18 19  1  0
 19 20  1  0
 20 21  1  0
 21 22  1  0
 22 23  1  0
 23 24  1  0
 24 25  1  0
 25 26  1  0
 25 27  2  0
  1 28  1  0
  2 29  1  0
  5 30  1  0
  6 31  1  0
 10 32  1  0
 11 33  1  0
 12 34  1  0
 13 35  1  0
 16 36  1  0
 16 37  1  0
 17 38  1  0
 18 39  1  0
 18 40  1  0
 19 41  1  0
 19 42  1  0
 20 43  1  0
 20 44  1  0
 22 45  1  0
 22 46  1  0
 23 47  1  0
 23 48  1  0
 24 49  1  0
 24 50  1  0
M  CHG  1  26  -1
A    1
CAD
A    2
CAC
A    3
CAB
A    4
CLAG
A    5
CAA
A    6
CAF
A    7
CAE
A    8
OAH
A    9
CAI
A   10
CAN
A   11
CAM
A   12
CAJ
A   13
CAK
A   14
CAL
A   15
OAO
A   16
CAP
A   17
CAQ
A   18
CAR
A   19
CAS
A   20
CAT
A   21
NAU
A   22
CAV
A   23
CAW
A   24
CAX
A   25
CAY
A   26
OBA
A   27
OAZ
M  END
