3FHE_28P_A_612
     RDKit          3D

 49 50  0  0  0  0  0  0  0  0999 V2000
   24.1120   86.4030   -3.9430 C   0  0  0  0  0  0  0  0  0  0  0  0
   23.8000   85.5770   -5.0040 C   0  0  0  0  0  0  0  0  0  0  0  0
   23.5280   84.2400   -4.7880 C   0  0  0  0  0  0  0  0  0  0  0  0
   23.5630   83.7290   -3.4950 C   0  0  0  0  0  0  0  0  0  0  0  0
   23.8800   84.5550   -2.4300 C   0  0  0  0  0  0  0  0  0  0  0  0
   24.1680   85.8970   -2.6570 C   0  0  0  0  0  0  0  0  0  0  0  0
   24.5000   86.8410   -1.4840 C   0  0  0  0  0  0  0  0  0  0  0  0
   25.9490   86.7050   -0.9790 C   0  0  0  0  0  0  0  0  0  0  0  0
   26.1770   86.0680    0.2100 C   0  0  0  0  0  0  0  0  0  0  0  0
   27.4560   85.9300    0.7090 C   0  0  0  0  0  0  0  0  0  0  0  0
   27.0110   87.2410   -1.6830 C   0  0  0  0  0  0  0  0  0  0  0  0
   28.3060   87.1150   -1.2060 C   0  0  0  0  0  0  0  0  0  0  0  0
   28.5250   86.4650   -0.0070 C   0  0  0  0  0  0  0  0  0  0  0  0
   29.7900   86.3700    0.4380 O   0  0  0  0  0  0  0  0  0  0  0  0
   29.9940   85.6300    1.7010 C   0  0  0  0  0  0  0  0  0  0  0  0
   31.4980   85.3090    1.7410 C   0  0  0  0  0  0  0  0  0  0  0  0
   32.0900   84.8360    0.3810 C   0  0  0  0  0  0  0  0  0  0  0  0
   33.2070   83.8840    0.5490 N   0  0  0  0  0  0  0  0  0  0  0  0
   34.3100   84.3640    1.3920 C   0  0  0  0  0  0  0  0  0  0  0  0
   33.6480   83.3420   -0.7560 C   0  0  0  0  0  0  0  0  0  0  0  0
   34.8580   84.0770   -1.2860 C   0  0  0  0  0  0  0  0  0  0  0  0
   35.3020   83.4900   -2.6490 C   0  0  0  0  0  0  0  0  0  0  0  0
   34.4670   83.1540   -3.5190 O   0  0  0  0  0  0  0  0  0  0  0  0
   36.5090   83.3700   -2.8650 O   0  0  0  0  0  0  0  0  0  0  0  0
   24.3171   87.4689   -4.1211 H   0  0  0  0  0  0  0  0  0  0  0  0
   23.7678   85.9848   -6.0251 H   0  0  0  0  0  0  0  0  0  0  0  0
   23.2847   83.5821   -5.6353 H   0  0  0  0  0  0  0  0  0  0  0  0
   23.3385   82.6668   -3.3181 H   0  0  0  0  0  0  0  0  0  0  0  0
   23.9041   84.1512   -1.4071 H   0  0  0  0  0  0  0  0  0  0  0  0
   24.3425   87.8779   -1.8158 H   0  0  0  0  0  0  0  0  0  0  0  0
   23.8386   86.5659   -0.6492 H   0  0  0  0  0  0  0  0  0  0  0  0
   25.3275   85.6595    0.7770 H   0  0  0  0  0  0  0  0  0  0  0  0
   27.6295   85.4045    1.6597 H   0  0  0  0  0  0  0  0  0  0  0  0
   26.8268   87.7715   -2.6289 H   0  0  0  0  0  0  0  0  0  0  0  0
   29.1509   87.5284   -1.7763 H   0  0  0  0  0  0  0  0  0  0  0  0
   29.7090   86.2515    2.5627 H   0  0  0  0  0  0  0  0  0  0  0  0
   29.3777   84.7201    1.7490 H   0  0  0  0  0  0  0  0  0  0  0  0
   32.0355   86.2165    2.0534 H   0  0  0  0  0  0  0  0  0  0  0  0
   31.6225   84.4736    2.4456 H   0  0  0  0  0  0  0  0  0  0  0  0
   31.2937   84.3463   -0.1988 H   0  0  0  0  0  0  0  0  0  0  0  0
   32.4827   85.7227   -0.1383 H   0  0  0  0  0  0  0  0  0  0  0  0
   34.0396   84.2463    2.4517 H   0  0  0  0  0  0  0  0  0  0  0  0
   35.2166   83.7790    1.1778 H   0  0  0  0  0  0  0  0  0  0  0  0
   34.4998   85.4261    1.1778 H   0  0  0  0  0  0  0  0  0  0  0  0
   33.9022   82.2789   -0.6330 H   0  0  0  0  0  0  0  0  0  0  0  0
   32.8263   83.4699   -1.4760 H   0  0  0  0  0  0  0  0  0  0  0  0
   34.6066   85.1400   -1.4154 H   0  0  0  0  0  0  0  0  0  0  0  0
   35.6829   83.9645   -0.5671 H   0  0  0  0  0  0  0  0  0  0  0  0
   37.1435   83.3069   -2.1077 H   0  0  0  0  0  0  0  0  0  0  0  0
  2  1  2  0
  1  6  1  0
  2  3  1  0
  3  4  2  0
  4  5  1  0
  6  5  2  0
  6  7  1  0
  7  8  1  0
 11  8  1  0
  8  9  2  0
  9 10  1  0
 13 10  2  0
 11 12  2  0
 12 13  1  0
 13 14  1  0
 14 15  1  0
 15 16  1  0
 17 16  1  0
 17 18  1  0
 20 18  1  0
 18 19  1  0
 21 20  1  0
 22 21  1  0
 23 22  2  0
 24 22  1  0
  1 25  1  0
  2 26  1  0
  3 27  1  0
  4 28  1  0
  5 29  1  0
  7 30  1  0
  7 31  1  0
  9 32  1  0
 10 33  1  0
 11 34  1  0
 12 35  1  0
 15 36  1  0
 15 37  1  0
 16 38  1  0
 16 39  1  0
 17 40  1  0
 17 41  1  0
 19 42  1  0
 19 43  1  0
 19 44  1  0
 20 45  1  0
 20 46  1  0
 21 47  1  0
 21 48  1  0
 24 49  1  0
A    1
CAQ
A    2
CAR
A    3
CAS
A    4
CAT
A    5
CAU
A    6
CAP
A    7
CAO
A    8
CAN
A    9
CAV
A   10
CAW
A   11
CAM
A   12
CAL
A   13
CAK
A   14
OAJ
A   15
CAI
A   16
CAH
A   17
CAG
A   18
N1
A   19
CAX
A   20
CAB
A   21
CAC
A   22
CAD
A   23
OAF
A   24
OAE
M  END
