1TD2_PXL_A_288
     RDKit          3D

 21 21  0  0  0  0  0  0  0  0999 V2000
   16.0850   -1.0290   31.4250 O   0  0  0  0  0  0  0  0  0  0  0  0
   16.3190   -2.4180   31.6030 C   0  0  0  0  0  0  0  0  0  0  0  0
   15.0780   -3.2410   31.2450 C   0  0  0  0  0  0  0  0  0  0  0  0
   14.7310   -3.3920   29.8780 C   0  0  0  0  0  0  0  0  0  0  0  0
   13.5910   -4.1550   29.5330 N   0  0  0  0  0  0  0  0  0  0  0  0
   12.8020   -4.7610   30.5040 C   0  0  0  0  0  0  0  0  0  0  0  0
   13.1120   -4.6190   31.9090 C   0  0  0  0  0  0  0  0  0  0  0  0
   14.2750   -3.8500   32.3010 C   0  0  0  0  0  0  0  0  0  0  0  0
   14.6900   -3.6940   33.7680 C   0  0  0  0  0  0  0  0  0  0  0  0
   13.5260   -3.6210   34.5790 O   0  0  0  0  0  0  0  0  0  0  0  0
   12.2710   -5.2370   32.8550 O   0  0  0  0  0  0  0  0  0  0  0  0
   11.5850   -5.5970   30.0820 C   0  0  0  0  0  0  0  0  0  0  0  0
   16.0112   -0.5908   32.3096 H   0  0  0  0  0  0  0  0  0  0  0  0
   17.1530   -2.7269   30.9556 H   0  0  0  0  0  0  0  0  0  0  0  0
   16.5612   -2.5968   32.6610 H   0  0  0  0  0  0  0  0  0  0  0  0
   15.3421   -2.9206   29.0942 H   0  0  0  0  0  0  0  0  0  0  0  0
   15.7258   -3.6461   34.1351 H   0  0  0  0  0  0  0  0  0  0  0  0
   12.4395   -5.1132   33.8227 H   0  0  0  0  0  0  0  0  0  0  0  0
   11.0595   -5.9580   30.9784 H   0  0  0  0  0  0  0  0  0  0  0  0
   10.9033   -4.9756   29.4827 H   0  0  0  0  0  0  0  0  0  0  0  0
   11.9204   -6.4562   29.4827 H   0  0  0  0  0  0  0  0  0  0  0  0
  1  2  1  0
  2  3  1  0
  3  4  2  0
  3  8  1  0
  4  5  1  0
  5  6  2  0
  6  7  1  0
  6 12  1  0
  7  8  2  0
  7 11  1  0
  8  9  1  0
  9 10  2  0
  1 13  1  0
  2 14  1  0
  2 15  1  0
  4 16  1  0
  9 17  1  0
 11 18  1  0
 12 19  1  0
 12 20  1  0
 12 21  1  0
A    1
OP4
A    2
C5A
A    3
C5
A    4
C6
A    5
N1
A    6
C2
A    7
C3
A    8
C4
A    9
C4A
A   10
O4A
A   11
O3
A   12
C2A
M  END
