3FK1_GPF_A_429
     RDKit          3D

 18 17  0  0  0  0  0  0  0  0999 V2000
   60.1760    7.9310   28.2330 C   0  0  0  0  0  0  0  0  0  0  0  0
   60.4590    7.9900   30.6950 C   0  0  0  0  0  0  0  0  0  0  0  0
   60.9730    8.8470   31.7490 C   0  0  0  0  0  0  0  0  0  0  0  0
   60.6310   10.2720   27.1240 O   0  0  0  0  0  0  0  0  0  0  0  0
   59.5320    8.3940   25.8470 O   0  0  0  0  0  0  0  0  0  0  0  0
   62.0050    8.2870   26.4600 O   0  0  0  0  0  0  0  0  0  0  0  0
   61.5270    9.9790   31.4260 O   0  0  0  0  0  0  0  0  0  0  0  0
   60.6030    8.7900   26.8280 P   0  0  0  0  0  0  0  0  0  0  0  0
   60.8270    8.4300   32.8680 O   0  0  0  0  0  0  0  0  0  0  0  0
   60.7100    8.5820   29.3970 N   0  0  0  0  0  0  0  0  0  0  0  0
   59.0797    7.8873   28.3125 H   0  0  0  0  0  0  0  0  0  0  0  0
   60.5901    6.9139   28.1703 H   0  0  0  0  0  0  0  0  0  0  0  0
   59.3753    7.8589   30.8304 H   0  0  0  0  0  0  0  0  0  0  0  0
   60.9665    7.0155   30.7475 H   0  0  0  0  0  0  0  0  0  0  0  0
   60.6337   10.4128   28.1039 H   0  0  0  0  0  0  0  0  0  0  0  0
   62.5173    8.1032   27.2870 H   0  0  0  0  0  0  0  0  0  0  0  0
   61.0304    9.0111   33.6433 H   0  0  0  0  0  0  0  0  0  0  0  0
   61.7319    8.6300   29.2769 H   0  0  0  0  0  0  0  0  0  0  0  0
  8  1  1  0
  1 10  1  0
 10  2  1  0
  2  3  1  0
  7  3  2  0
  3  9  1  0
  8  4  1  0
  5  8  2  0
  6  8  1  0
  1 11  1  0
  1 12  1  0
  2 13  1  0
  2 14  1  0
  4 15  1  0
  6 16  1  0
  9 17  1  0
 10 18  1  0
A    1
C1
A    2
C2
A    3
C3
A    4
O1
A    5
O2
A    6
O3
A    7
O4
A    8
P1
A    9
O5
A   10
N1
M  END
