1RCA_CGP_A_150
     RDKit          3D

 10  9  0  0  0  0  0  0  0  0999 V2000
   29.7120   16.9790    6.2560 P   0  0  0  0  0  0  0  0  0  0  0  0
   28.7850   16.7540    5.1410 O   0  0  0  0  0  0  0  0  0  0  0  0
   29.7390   15.7440    7.3170 O   0  0  0  0  0  0  0  0  0  0  0  0
   31.1940   17.0990    5.9550 O   0  0  0  0  0  0  0  0  0  0  0  0
   30.4570   18.0280    7.0000 C   0  0  0  0  0  0  0  0  0  0  0  0
   29.2514   18.0391    6.6465 H   0  0  0  0  0  0  0  0  0  0  0  0
   29.7312   16.1017    8.2401 H   0  0  0  0  0  0  0  0  0  0  0  0
   30.7122   17.7063    8.0205 H   0  0  0  0  0  0  0  0  0  0  0  0
   30.7766   19.0703    6.8534 H   0  0  0  0  0  0  0  0  0  0  0  0
   29.3693   17.9539    6.8534 H   0  0  0  0  0  0  0  0  0  0  0  0
  1  2  2  0
  1  3  1  0
  1  4  1  0
  4  5  1  0
  1  6  1  0
  3  7  1  0
  5  8  1  0
  5  9  1  0
  5 10  1  0
A    1
P
A    2
O1P
A    3
O3B
A    4
O5D
A    5
C5D
M  END
