3FLW_FLW_A_361
     RDKit          3D

 49 51  0  0  0  0  0  0  0  0999 V2000
   15.9000   10.6230   32.1000 C   0  0  0  0  0  0  0  0  0  0  0  0
   15.1650   10.8850   30.9430 C   0  0  0  0  0  0  0  0  0  0  0  0
   27.1330    7.6970   32.7050 C   0  0  0  0  0  0  0  0  0  0  0  0
   27.1160    8.3200   34.0920 C   0  0  0  0  0  0  0  0  0  0  0  0
   27.0140    8.6080   30.4120 C   0  0  0  0  0  0  0  0  0  0  0  0
   23.7670   12.6340   32.1910 C   0  0  0  0  0  0  0  0  0  0  0  0
   17.8750   10.9100   33.3780 F   0  0  0  0  0  0  0  0  0  0  0  0
   17.1690   11.1810   32.2600 C   0  0  0  0  0  0  0  0  0  0  0  0
   13.9460   10.3480   30.7830 F   0  0  0  0  0  0  0  0  0  0  0  0
   15.6880   11.7060   29.9440 C   0  0  0  0  0  0  0  0  0  0  0  0
   16.9520   12.2650   30.1100 C   0  0  0  0  0  0  0  0  0  0  0  0
   17.6970   11.9980   31.2590 C   0  0  0  0  0  0  0  0  0  0  0  0
   18.9430   12.5690   31.3680 O   0  0  0  0  0  0  0  0  0  0  0  0
   20.1320   11.8610   31.4390 C   0  0  0  0  0  0  0  0  0  0  0  0
   20.2050   10.4800   31.2110 C   0  0  0  0  0  0  0  0  0  0  0  0
   21.4230    9.8020   31.2990 C   0  0  0  0  0  0  0  0  0  0  0  0
   21.4990    8.4260   31.0680 C   0  0  0  0  0  0  0  0  0  0  0  0
   22.6790    7.7910   31.1640 N   0  0  0  0  0  0  0  0  0  0  0  0
   21.2930   12.5620   31.7590 C   0  0  0  0  0  0  0  0  0  0  0  0
   21.2200   13.7950   31.9640 O   0  0  0  0  0  0  0  0  0  0  0  0
   22.5430   11.8910   31.8540 N   0  0  0  0  0  0  0  0  0  0  0  0
   22.5940   10.4950   31.6200 C   0  0  0  0  0  0  0  0  0  0  0  0
   23.7650    9.8170   31.7040 N   0  0  0  0  0  0  0  0  0  0  0  0
   23.8130    8.4780   31.4800 C   0  0  0  0  0  0  0  0  0  0  0  0
   24.9910    7.8180   31.5620 N   0  0  0  0  0  0  0  0  0  0  0  0
   26.2670    8.4950   31.7390 C   0  0  0  0  0  0  0  0  0  0  0  0
   26.3920    9.6070   29.4390 C   0  0  0  0  0  0  0  0  0  0  0  0
   26.4760   10.9270   29.9880 O   0  0  0  0  0  0  0  0  0  0  0  0
   26.8070    7.3130   35.0610 O   0  0  0  0  0  0  0  0  0  0  0  0
   15.4795    9.9773   32.8850 H   0  0  0  0  0  0  0  0  0  0  0  0
   28.1673    7.6795   32.3309 H   0  0  0  0  0  0  0  0  0  0  0  0
   26.7316    6.6752   32.7742 H   0  0  0  0  0  0  0  0  0  0  0  0
   28.1035    8.7513   34.3129 H   0  0  0  0  0  0  0  0  0  0  0  0
   26.3543    9.1127   34.1297 H   0  0  0  0  0  0  0  0  0  0  0  0
   28.0467    8.9241   30.6209 H   0  0  0  0  0  0  0  0  0  0  0  0
   26.9658    7.6197   29.9315 H   0  0  0  0  0  0  0  0  0  0  0  0
   23.8690   12.6959   33.2845 H   0  0  0  0  0  0  0  0  0  0  0  0
   24.6397   12.1131   31.7702 H   0  0  0  0  0  0  0  0  0  0  0  0
   23.7076   13.6486   31.7702 H   0  0  0  0  0  0  0  0  0  0  0  0
   15.1066   11.9100   29.0328 H   0  0  0  0  0  0  0  0  0  0  0  0
   17.3660   12.9213   29.3304 H   0  0  0  0  0  0  0  0  0  0  0  0
   19.2907    9.9226   30.9594 H   0  0  0  0  0  0  0  0  0  0  0  0
   20.5914    7.8619   30.8072 H   0  0  0  0  0  0  0  0  0  0  0  0
   24.9845    6.7901   31.4962 H   0  0  0  0  0  0  0  0  0  0  0  0
   26.0677    9.5030   32.1316 H   0  0  0  0  0  0  0  0  0  0  0  0
   26.9343    9.5729   28.4826 H   0  0  0  0  0  0  0  0  0  0  0  0
   25.3363    9.3466   29.2727 H   0  0  0  0  0  0  0  0  0  0  0  0
   26.4726   10.8741   30.9766 H   0  0  0  0  0  0  0  0  0  0  0  0
   26.9211    7.6849   35.9713 H   0  0  0  0  0  0  0  0  0  0  0  0
  1  2  2  0
  1  8  1  0
  2  9  1  0
  2 10  1  0
  3  4  1  0
  3 26  1  0
  4 29  1  0
  5 26  1  0
  5 27  1  0
  6 21  1  0
  7  8  1  0
  8 12  2  0
 10 11  2  0
 11 12  1  0
 12 13  1  0
 13 14  1  0
 14 15  2  0
 14 19  1  0
 15 16  1  0
 16 17  2  0
 16 22  1  0
 17 18  1  0
 18 24  2  0
 19 20  2  0
 19 21  1  0
 21 22  1  0
 22 23  2  0
 23 24  1  0
 24 25  1  0
 25 26  1  0
 27 28  1  0
  1 30  1  0
  3 31  1  0
  3 32  1  0
  4 33  1  0
  4 34  1  0
  5 35  1  0
  5 36  1  0
  6 37  1  0
  6 38  1  0
  6 39  1  0
 10 40  1  0
 11 41  1  0
 15 42  1  0
 17 43  1  0
 25 44  1  0
 26 45  1  0
 27 46  1  0
 27 47  1  0
 28 48  1  0
 29 49  1  0
A    1
C14
A    2
C15
A    3
C20
A    4
C21
A    5
C23
A    6
C29
A    7
F28
A    8
C13
A    9
F27
A   10
C16
A   11
C17
A   12
C12
A   13
O11
A   14
C9
A   15
C10
A   16
C5
A   17
C4
A   18
N1
A   19
C8
A   20
O26
A   21
N7
A   22
C6
A   23
N3
A   24
C2
A   25
N18
A   26
C19
A   27
C24
A   28
O25
A   29
O22
M  END
