3FMZ_2T1_A_184
     RDKit          3D

 47 49  0  0  0  0  0  0  0  0999 V2000
   11.1400  -20.3900    3.3340 N   0  0  0  0  0  0  0  0  0  0  0  0
    9.9020  -18.9950    1.9970 N   0  0  0  0  0  0  0  0  0  0  0  0
   13.8960  -24.8360    3.0400 C   0  0  0  0  0  0  0  0  0  0  0  0
   14.0900  -26.0940    2.4800 C   0  0  0  0  0  0  0  0  0  0  0  0
   13.3850  -26.4850    1.3470 C   0  0  0  0  0  0  0  0  0  0  0  0
   12.7650  -22.6200    3.0230 C   0  0  0  0  0  0  0  0  0  0  0  0
   12.6340  -21.5770    1.9180 C   0  0  0  0  0  0  0  0  0  0  0  0
   11.2730  -21.2750    4.4790 C   0  0  0  0  0  0  0  0  0  0  0  0
    8.7200  -18.3300    1.6170 C   0  0  0  0  0  0  0  0  0  0  0  0
    8.7750  -17.1760    0.8480 C   0  0  0  0  0  0  0  0  0  0  0  0
    7.4780  -18.8400    1.9860 C   0  0  0  0  0  0  0  0  0  0  0  0
   10.0830  -16.5860    0.4170 C   0  0  0  0  0  0  0  0  0  0  0  0
   11.1540  -17.1040    0.8100 O   0  0  0  0  0  0  0  0  0  0  0  0
   10.0560  -15.5810   -0.3290 O   0  0  0  0  0  0  0  0  0  0  0  0
    7.6050  -16.5340    0.4670 C   0  0  0  0  0  0  0  0  0  0  0  0
    6.3720  -17.0450    0.8460 C   0  0  0  0  0  0  0  0  0  0  0  0
    6.3070  -18.2000    1.6090 C   0  0  0  0  0  0  0  0  0  0  0  0
    9.9830  -19.8010    3.0580 C   0  0  0  0  0  0  0  0  0  0  0  0
    9.0330  -20.0010    3.7880 O   0  0  0  0  0  0  0  0  0  0  0  0
   11.4870  -22.6410    3.8510 C   0  0  0  0  0  0  0  0  0  0  0  0
   12.3410  -20.2100    2.5250 C   0  0  0  0  0  0  0  0  0  0  0  0
   12.9900  -23.9630    2.4490 C   0  0  0  0  0  0  0  0  0  0  0  0
   12.2840  -24.3500    1.3140 C   0  0  0  0  0  0  0  0  0  0  0  0
   12.4820  -25.6100    0.7620 C   0  0  0  0  0  0  0  0  0  0  0  0
   14.6930  -24.4550    4.2640 C   0  0  0  0  0  0  0  0  0  0  0  0
   15.9570  -24.3490    3.9010 F   0  0  0  0  0  0  0  0  0  0  0  0
   14.5860  -25.3880    5.1910 F   0  0  0  0  0  0  0  0  0  0  0  0
   14.2970  -23.3040    4.7810 F   0  0  0  0  0  0  0  0  0  0  0  0
   10.7477  -18.8520    1.4267 H   0  0  0  0  0  0  0  0  0  0  0  0
   14.8097  -26.7880    2.9387 H   0  0  0  0  0  0  0  0  0  0  0  0
   13.5430  -27.4848    0.9163 H   0  0  0  0  0  0  0  0  0  0  0  0
   13.6245  -22.3545    3.6561 H   0  0  0  0  0  0  0  0  0  0  0  0
   13.5740  -21.5291    1.3487 H   0  0  0  0  0  0  0  0  0  0  0  0
   11.8077  -21.8604    1.2495 H   0  0  0  0  0  0  0  0  0  0  0  0
   12.1352  -20.9883    5.0990 H   0  0  0  0  0  0  0  0  0  0  0  0
   10.3999  -21.2437    5.1473 H   0  0  0  0  0  0  0  0  0  0  0  0
    7.4251  -19.7618    2.5839 H   0  0  0  0  0  0  0  0  0  0  0  0
   11.3350  -17.1916    1.7794 H   0  0  0  0  0  0  0  0  0  0  0  0
    7.6554  -15.6165   -0.1378 H   0  0  0  0  0  0  0  0  0  0  0  0
    5.4469  -16.5338    0.5411 H   0  0  0  0  0  0  0  0  0  0  0  0
    5.3316  -18.6070    1.9140 H   0  0  0  0  0  0  0  0  0  0  0  0
   10.6329  -22.8850    3.2022 H   0  0  0  0  0  0  0  0  0  0  0  0
   11.5729  -23.4007    4.6419 H   0  0  0  0  0  0  0  0  0  0  0  0
   12.1628  -19.4681    1.7326 H   0  0  0  0  0  0  0  0  0  0  0  0
   13.1855  -19.8417    3.1259 H   0  0  0  0  0  0  0  0  0  0  0  0
   11.5665  -23.6560    0.8519 H   0  0  0  0  0  0  0  0  0  0  0  0
   11.9240  -25.9124   -0.1364 H   0  0  0  0  0  0  0  0  0  0  0  0
 21  1  1  0
 18  1  1  0
  1  8  1  0
  9  2  1  0
  2 18  1  0
 22  3  2  0
  4  3  1  0
  3 25  1  0
  5  4  2  0
 24  5  1  0
  7  6  1  0
 22  6  1  0
  6 20  1  0
  7 21  1  0
 20  8  1  0
 10  9  2  0
  9 11  1  0
 12 10  1  0
 15 10  1  0
 17 11  2  0
 14 12  2  0
 12 13  1  0
 15 16  2  0
 16 17  1  0
 18 19  2  0
 23 22  1  0
 24 23  2  0
 26 25  1  0
 25 28  1  0
 25 27  1  0
  2 29  1  0
  4 30  1  0
  5 31  1  0
  6 32  1  0
  7 33  1  0
  7 34  1  0
  8 35  1  0
  8 36  1  0
 11 37  1  0
 13 38  1  0
 15 39  1  0
 16 40  1  0
 17 41  1  0
 20 42  1  0
 20 43  1  0
 21 44  1  0
 21 45  1  0
 23 46  1  0
 24 47  1  0
A    1
N1
A    2
N3
A    3
C4
A    4
C5
A    5
C6
A    6
C7
A    7
C8
A    8
C10
A    9
C13
A   10
C15
A   11
C17
A   12
C21
A   13
O3
A   14
O2
A   15
C16
A   16
C19
A   17
C18
A   18
C14
A   19
O1
A   20
C11
A   21
C9
A   22
C3
A   23
C2
A   24
C1
A   25
C12
A   26
F1
A   27
F3
A   28
F2
M  END
