2OP1_8PC_A_500
     RDKit          3D

 36 38  0  0  0  0  0  0  0  0999 V2000
   54.9230   88.6760   31.9720 Cl  0  0  0  0  0  0  0  0  0  0  0  0
   53.7990   89.6830   32.9480 C   0  0  0  0  0  0  0  0  0  0  0  0
   53.0670   89.0950   33.9740 C   0  0  0  0  0  0  0  0  0  0  0  0
   52.1960   89.8580   34.7450 C   0  0  0  0  0  0  0  0  0  0  0  0
   51.2430   89.1130   36.0840 Cl  0  0  0  0  0  0  0  0  0  0  0  0
   52.0510   91.2060   34.4660 C   0  0  0  0  0  0  0  0  0  0  0  0
   52.7970   91.8100   33.4560 C   0  0  0  0  0  0  0  0  0  0  0  0
   53.6620   91.0430   32.6840 C   0  0  0  0  0  0  0  0  0  0  0  0
   51.2130   91.9520   35.2480 O   0  0  0  0  0  0  0  0  0  0  0  0
   50.6230   93.0970   34.7880 C   0  0  0  0  0  0  0  0  0  0  0  0
   50.9070   94.2610   35.4840 C   0  0  0  0  0  0  0  0  0  0  0  0
   50.3550   95.4650   35.0940 C   0  0  0  0  0  0  0  0  0  0  0  0
   49.4950   95.5080   34.0080 C   0  0  0  0  0  0  0  0  0  0  0  0
   49.2050   94.3430   33.3090 C   0  0  0  0  0  0  0  0  0  0  0  0
   49.7670   93.1290   33.6940 C   0  0  0  0  0  0  0  0  0  0  0  0
   49.4700   91.9970   32.9930 O   0  0  0  0  0  0  0  0  0  0  0  0
   48.8850   96.8140   33.5660 C   0  0  0  0  0  0  0  0  0  0  0  0
   49.9690   97.8450   33.3490 C   0  0  0  0  0  0  0  0  0  0  0  0
   50.0150   98.5030   32.1700 N   0  0  0  0  0  0  0  0  0  0  0  0
   50.9460   99.4310   31.9250 C   0  0  0  0  0  0  0  0  0  0  0  0
   51.8970   99.7440   32.8900 C   0  0  0  0  0  0  0  0  0  0  0  0
   51.8820   99.0840   34.1120 C   0  0  0  0  0  0  0  0  0  0  0  0
   50.9020   98.1320   34.3420 C   0  0  0  0  0  0  0  0  0  0  0  0
   53.1775   88.0196   34.1772 H   0  0  0  0  0  0  0  0  0  0  0  0
   52.7018   92.8900   33.2702 H   0  0  0  0  0  0  0  0  0  0  0  0
   54.2353   91.5083   31.8687 H   0  0  0  0  0  0  0  0  0  0  0  0
   51.5781   94.2255   36.3548 H   0  0  0  0  0  0  0  0  0  0  0  0
   50.5969   96.3868   35.6433 H   0  0  0  0  0  0  0  0  0  0  0  0
   48.5259   94.3801   32.4444 H   0  0  0  0  0  0  0  0  0  0  0  0
   49.2504   91.1601   33.4742 H   0  0  0  0  0  0  0  0  0  0  0  0
   48.3359   96.6595   32.6254 H   0  0  0  0  0  0  0  0  0  0  0  0
   48.1970   97.1728   34.3457 H   0  0  0  0  0  0  0  0  0  0  0  0
   50.9597   99.9495   30.9550 H   0  0  0  0  0  0  0  0  0  0  0  0
   52.6583  100.5114   32.6863 H   0  0  0  0  0  0  0  0  0  0  0  0
   52.6334   99.3126   34.8821 H   0  0  0  0  0  0  0  0  0  0  0  0
   50.8611   97.6044   35.3063 H   0  0  0  0  0  0  0  0  0  0  0  0
  1  2  1  0
  2  8  2  0
  2  3  1  0
  3  4  2  0
  4  6  1  0
  4  5  1  0
  6  7  2  0
  6  9  1  0
  7  8  1  0
  9 10  1  0
 10 15  1  0
 10 11  2  0
 11 12  1  0
 12 13  2  0
 13 14  1  0
 13 17  1  0
 14 15  2  0
 15 16  1  0
 17 18  1  0
 18 19  2  0
 18 23  1  0
 19 20  1  0
 20 21  2  0
 21 22  1  0
 22 23  2  0
  3 24  1  0
  7 25  1  0
  8 26  1  0
 11 27  1  0
 12 28  1  0
 14 29  1  0
 16 30  1  0
 17 31  1  0
 17 32  1  0
 20 33  1  0
 21 34  1  0
 22 35  1  0
 23 36  1  0
A    1
CL1
A    2
C17
A    3
C16
A    4
C15
A    5
CL2
A    6
C14
A    7
C19
A    8
C22
A    9
O13
A   10
C2
A   11
C3
A   12
C4
A   13
C5
A   14
C6
A   15
C1
A   16
O22
A   17
C7
A   18
C23
A   19
N24
A   20
C25
A   21
C26
A   22
C27
A   23
C28
M  END
