3FNF_JPM_A_400
     RDKit          3D

 37 39  0  0  0  0  0  0  0  0999 V2000
   28.0880    3.9000   12.1270 C   0  0  0  0  0  0  0  0  0  0  0  0
   28.1620    2.6800   11.4630 C   0  0  0  0  0  0  0  0  0  0  0  0
   28.8110    2.5930   10.2290 C   0  0  0  0  0  0  0  0  0  0  0  0
   29.3730    3.7510    9.6810 C   0  0  0  0  0  0  0  0  0  0  0  0
   26.0740   -0.2270   12.3290 C   0  0  0  0  0  0  0  0  0  0  0  0
   26.4040    0.9770   11.6880 C   0  0  0  0  0  0  0  0  0  0  0  0
   25.5760    1.4810   10.6970 C   0  0  0  0  0  0  0  0  0  0  0  0
   24.3970    0.7840   10.3580 C   0  0  0  0  0  0  0  0  0  0  0  0
   24.0320   -0.4140   10.9810 C   0  0  0  0  0  0  0  0  0  0  0  0
   24.8860   -0.9170   11.9880 C   0  0  0  0  0  0  0  0  0  0  0  0
   27.6610    7.4270    6.3210 C   0  0  0  0  0  0  0  0  0  0  0  0
   27.1030    7.5400    7.5820 C   0  0  0  0  0  0  0  0  0  0  0  0
   29.9360    6.2360    9.7590 C   0  0  0  0  0  0  0  0  0  0  0  0
   29.7040    6.5460    7.2790 C   0  0  0  0  0  0  0  0  0  0  0  0
   27.4480    3.9580   13.3250 O   0  0  0  0  0  0  0  0  0  0  0  0
   27.5740    1.5960   12.0620 O   0  0  0  0  0  0  0  0  0  0  0  0
   27.0270   -0.7400   13.3880 Cl  0  0  0  0  0  0  0  0  0  0  0  0
   22.7710   -1.1240   10.5360 Cl  0  0  0  0  0  0  0  0  0  0  0  0
   28.6580    5.0460   11.5770 C   0  0  0  0  0  0  0  0  0  0  0  0
   29.2990    4.9810   10.3430 C   0  0  0  0  0  0  0  0  0  0  0  0
   29.1480    6.6520    8.5450 C   0  0  0  0  0  0  0  0  0  0  0  0
   27.8540    7.1460    8.6860 C   0  0  0  0  0  0  0  0  0  0  0  0
   28.9600    6.9280    6.1590 C   0  0  0  0  0  0  0  0  0  0  0  0
   28.8789    1.6320    9.6982 H   0  0  0  0  0  0  0  0  0  0  0  0
   29.8841    3.6930    8.7087 H   0  0  0  0  0  0  0  0  0  0  0  0
   25.8359    2.4162   10.1794 H   0  0  0  0  0  0  0  0  0  0  0  0
   23.7421    1.1971    9.5766 H   0  0  0  0  0  0  0  0  0  0  0  0
   24.6263   -1.8499   12.5098 H   0  0  0  0  0  0  0  0  0  0  0  0
   27.0798    7.7315    5.4382 H   0  0  0  0  0  0  0  0  0  0  0  0
   26.0840    7.9342    7.7100 H   0  0  0  0  0  0  0  0  0  0  0  0
   29.9191    7.0428   10.5065 H   0  0  0  0  0  0  0  0  0  0  0  0
   30.9802    6.0329    9.4788 H   0  0  0  0  0  0  0  0  0  0  0  0
   30.7276    6.1624    7.1565 H   0  0  0  0  0  0  0  0  0  0  0  0
   27.9674    3.9109   14.1665 H   0  0  0  0  0  0  0  0  0  0  0  0
   28.6016    6.0022   12.1178 H   0  0  0  0  0  0  0  0  0  0  0  0
   27.4155    7.2267    9.6916 H   0  0  0  0  0  0  0  0  0  0  0  0
   29.3937    6.8370    5.1522 H   0  0  0  0  0  0  0  0  0  0  0  0
  1  2  2  0
  1 15  1  0
  1 19  1  0
  2  3  1  0
  2 16  1  0
  3  4  2  0
  4 20  1  0
  5  6  2  0
  5 10  1  0
  5 17  1  0
  6  7  1  0
  6 16  1  0
  7  8  2  0
  8  9  1  0
  9 10  2  0
  9 18  1  0
 11 12  2  0
 11 23  1  0
 12 22  1  0
 13 20  1  0
 13 21  1  0
 14 21  1  0
 14 23  2  0
 19 20  2  0
 21 22  2  0
  3 24  1  0
  4 25  1  0
  7 26  1  0
  8 27  1  0
 10 28  1  0
 11 29  1  0
 12 30  1  0
 13 31  1  0
 13 32  1  0
 14 33  1  0
 15 34  1  0
 19 35  1  0
 22 36  1  0
 23 37  1  0
A    1
C2
A    2
C3
A    3
C4
A    4
C5
A    5
C7
A    6
C8
A    7
C9
A    8
C10
A    9
C11
A   10
C12
A   11
C15
A   12
C16
A   13
C18
A   14
C19
A   15
O2
A   16
O1
A   17
CL1
A   18
CL5
A   19
C1
A   20
C6
A   21
C13
A   22
C17
A   23
C14
M  END
