3FOR_ZNP_A_317
     RDKit          3D

 27 27  0  0  0  0  0  0  0  0999 V2000
   -9.6770  -37.6180   -2.7560 C   0  0  0  0  0  0  0  0  0  0  0  0
   -9.1900  -36.6720   -1.8610 C   0  0  0  0  0  0  0  0  0  0  0  0
   -9.0310  -37.0040   -0.5210 C   0  0  0  0  0  0  0  0  0  0  0  0
   -9.3600  -38.2790   -0.0750 C   0  0  0  0  0  0  0  0  0  0  0  0
   -9.8480  -39.2250   -0.9700 C   0  0  0  0  0  0  0  0  0  0  0  0
  -10.0060  -38.8930   -2.3100 C   0  0  0  0  0  0  0  0  0  0  0  0
  -10.5600  -39.9190   -3.3000 C   0  0  0  0  0  0  0  0  0  0  0  0
   -9.4650  -40.4450   -4.2310 C   0  0  0  0  0  0  0  0  0  0  0  0
   -9.9600  -40.3670   -5.6760 C   0  0  0  0  0  0  0  0  0  0  0  0
  -10.1780  -38.9520   -6.0090 N   0  0  0  0  0  0  0  0  0  0  0  0
   -9.1710  -38.0000   -5.6970 O   0  0  0  0  0  0  0  0  0  0  0  0
  -11.3890  -38.5360   -6.6240 O   0  0  0  0  0  0  0  0  0  0  0  0
   -9.0970  -41.8850   -3.8680 C   0  0  0  0  0  0  0  0  0  0  0  0
   -8.8330  -42.2010   -2.7080 O   0  0  0  0  0  0  0  0  0  0  0  0
   -9.0810  -42.7360   -4.8900 N   0  0  0  0  0  0  0  0  0  0  0  0
   -9.8020  -37.3575   -3.8174 H   0  0  0  0  0  0  0  0  0  0  0  0
   -8.9310  -35.6625   -2.2130 H   0  0  0  0  0  0  0  0  0  0  0  0
   -8.6443  -36.2570    0.1878 H   0  0  0  0  0  0  0  0  0  0  0  0
   -9.2343  -38.5397    0.9862 H   0  0  0  0  0  0  0  0  0  0  0  0
  -10.1084  -40.2340   -0.6178 H   0  0  0  0  0  0  0  0  0  0  0  0
  -10.9883  -40.7626   -2.7389 H   0  0  0  0  0  0  0  0  0  0  0  0
  -11.3293  -39.4274   -3.9137 H   0  0  0  0  0  0  0  0  0  0  0  0
   -8.5620  -39.8270   -4.1188 H   0  0  0  0  0  0  0  0  0  0  0  0
   -9.2063  -40.7971   -6.3519 H   0  0  0  0  0  0  0  0  0  0  0  0
  -10.8962  -40.9334   -5.7889 H   0  0  0  0  0  0  0  0  0  0  0  0
   -9.0619  -43.7508   -4.7149 H   0  0  0  0  0  0  0  0  0  0  0  0
   -9.0877  -42.3802   -5.8566 H   0  0  0  0  0  0  0  0  0  0  0  0
  1  2  2  0
  1  6  1  0
  2  3  1  0
  3  4  2  0
  4  5  1  0
  5  6  2  0
  6  7  1  0
  7  8  1  0
  8  9  1  0
  8 13  1  0
  9 10  1  0
 10 11  1  0
 10 12  2  0
 13 14  2  0
 13 15  1  0
  1 16  1  0
  2 17  1  0
  3 18  1  0
  4 19  1  0
  5 20  1  0
  7 21  1  0
  7 22  1  0
  8 23  1  0
  9 24  1  0
  9 25  1  0
 15 26  1  0
 15 27  1  0
M  CHG  2  10   1  11  -1
A    1
CAF
A    2
CAG
A    3
CAH
A    4
CAI
A    5
CAJ
A    6
CAE
A    7
CAD
A    8
CAB
A    9
CAA
A   10
NAK
A   11
OAN
A   12
OAM
A   13
CAC
A   14
OAO
A   15
NAL
M  END
