3FPM_793_A_1
     RDKit          3D

 37 39  0  0  0  0  0  0  0  0999 V2000
  232.7380   76.9440  187.1310 C   0  0  0  0  0  0  0  0  0  0  0  0
  232.0570   77.8620  186.1110 C   0  0  0  0  0  0  0  0  0  0  0  0
  231.3810   77.1050  184.9760 C   0  0  0  0  0  0  0  0  0  0  0  0
  229.9790   77.0030  184.8990 C   0  0  0  0  0  0  0  0  0  0  0  0
  229.3670   76.3040  183.8510 C   0  0  0  0  0  0  0  0  0  0  0  0
  230.1460   75.6990  182.8620 C   0  0  0  0  0  0  0  0  0  0  0  0
  232.1270   81.6970  184.1110 C   0  0  0  0  0  0  0  0  0  0  0  0
  231.4240   80.5540  184.6870 C   0  0  0  0  0  0  0  0  0  0  0  0
  235.1630   82.6740  183.7030 C   0  0  0  0  0  0  0  0  0  0  0  0
  234.4520   83.8650  183.4950 C   0  0  0  0  0  0  0  0  0  0  0  0
  235.1200   84.9720  182.9800 C   0  0  0  0  0  0  0  0  0  0  0  0
  237.1120   83.8260  182.8700 C   0  0  0  0  0  0  0  0  0  0  0  0
  236.5320   82.6690  183.3790 C   0  0  0  0  0  0  0  0  0  0  0  0
  231.5400   75.7910  182.9210 C   0  0  0  0  0  0  0  0  0  0  0  0
  232.1540   76.4890  183.9700 C   0  0  0  0  0  0  0  0  0  0  0  0
  233.0240   78.8160  185.5670 N   0  0  0  0  0  0  0  0  0  0  0  0
  232.7350   79.9590  184.9900 C   0  0  0  0  0  0  0  0  0  0  0  0
  233.3990   81.0330  184.4480 C   0  0  0  0  0  0  0  0  0  0  0  0
  231.6850   82.6960  183.6080 O   0  0  0  0  0  0  0  0  0  0  0  0
  230.2450   80.3470  184.7860 O   0  0  0  0  0  0  0  0  0  0  0  0
  234.6190   81.4720  184.2250 N   0  0  0  0  0  0  0  0  0  0  0  0
  236.4350   84.9790  182.6640 N   0  0  0  0  0  0  0  0  0  0  0  0
  232.4896   77.2789  188.1489 H   0  0  0  0  0  0  0  0  0  0  0  0
  232.3854   75.9119  186.9882 H   0  0  0  0  0  0  0  0  0  0  0  0
  233.8280   76.9821  186.9882 H   0  0  0  0  0  0  0  0  0  0  0  0
  231.2626   78.3958  186.6532 H   0  0  0  0  0  0  0  0  0  0  0  0
  229.3565   77.4782  185.6715 H   0  0  0  0  0  0  0  0  0  0  0  0
  228.2703   76.2313  183.8066 H   0  0  0  0  0  0  0  0  0  0  0  0
  229.6640   75.1515  182.0387 H   0  0  0  0  0  0  0  0  0  0  0  0
  233.3803   83.9233  183.7358 H   0  0  0  0  0  0  0  0  0  0  0  0
  234.5445   85.8958  182.8206 H   0  0  0  0  0  0  0  0  0  0  0  0
  238.1831   83.8022  182.6205 H   0  0  0  0  0  0  0  0  0  0  0  0
  237.1360   81.7615  183.5264 H   0  0  0  0  0  0  0  0  0  0  0  0
  232.1554   75.3151  182.1433 H   0  0  0  0  0  0  0  0  0  0  0  0
  233.2512   76.5571  184.0090 H   0  0  0  0  0  0  0  0  0  0  0  0
  234.0208   78.5684  185.6437 H   0  0  0  0  0  0  0  0  0  0  0  0
  235.3430   80.7886  184.4891 H   0  0  0  0  0  0  0  0  0  0  0  0
  1  2  1  0
  2  3  1  0
  2 16  1  0
  3  4  2  0
  3 15  1  0
  4  5  1  0
  5  6  2  0
  6 14  1  0
  7  8  1  0
  7 18  1  0
  7 19  2  0
  8 17  1  0
  8 20  2  0
  9 10  2  0
  9 13  1  0
  9 21  1  0
 10 11  1  0
 11 22  2  0
 12 13  2  0
 12 22  1  0
 14 15  2  0
 16 17  1  0
 17 18  2  0
 18 21  1  0
  1 23  1  0
  1 24  1  0
  1 25  1  0
  2 26  1  0
  4 27  1  0
  5 28  1  0
  6 29  1  0
 10 30  1  0
 11 31  1  0
 12 32  1  0
 13 33  1  0
 14 34  1  0
 15 35  1  0
 16 36  1  0
 21 37  1  0
A    1
C1
A    2
C2
A    3
C3
A    4
C4
A    5
C5
A    6
C6
A    7
C11
A    8
C12
A    9
C13
A   10
C14
A   11
C15
A   12
C16
A   13
C17
A   14
C7
A   15
C8
A   16
N1
A   17
C9
A   18
C10
A   19
O1
A   20
O2
A   21
N2
A   22
N3
M  END
