3FQC_55V_A_219
     RDKit          3D

 50 51  0  0  0  0  0  0  0  0999 V2000
  -31.9070   20.5770    7.6420 C   0  0  0  0  0  0  0  0  0  0  0  0
  -32.6620   19.7770    8.6100 O   0  0  0  0  0  0  0  0  0  0  0  0
  -31.9080   18.9540    9.4110 C   0  0  0  0  0  0  0  0  0  0  0  0
  -30.5190   18.8670    9.2400 C   0  0  0  0  0  0  0  0  0  0  0  0
  -32.5450   18.1960   10.4090 C   0  0  0  0  0  0  0  0  0  0  0  0
  -33.9260   18.2340   10.5770 O   0  0  0  0  0  0  0  0  0  0  0  0
  -34.4580   19.3420   11.3340 C   0  0  0  0  0  0  0  0  0  0  0  0
  -31.7760   17.3590   11.2220 C   0  0  0  0  0  0  0  0  0  0  0  0
  -32.3960   16.6200   12.1860 O   0  0  0  0  0  0  0  0  0  0  0  0
  -31.5750   15.6020   12.7830 C   0  0  0  0  0  0  0  0  0  0  0  0
  -30.3890   17.2890   11.0410 C   0  0  0  0  0  0  0  0  0  0  0  0
  -29.7510   18.0340   10.0510 C   0  0  0  0  0  0  0  0  0  0  0  0
  -28.2160   17.9420    9.8740 C   0  0  0  0  0  0  0  0  0  0  0  0
  -27.8470   17.7970    8.3840 C   0  0  0  0  0  0  0  0  0  0  0  0
  -27.5820   19.1880   10.4820 C   0  0  0  0  0  0  0  0  0  0  0  0
  -27.6430   16.7100   10.4540 C   0  0  0  0  0  0  0  0  0  0  0  0
  -27.2210   15.6260   10.8680 C   0  0  0  0  0  0  0  0  0  0  0  0
  -26.8290   14.2990   11.2600 C   0  0  0  0  0  0  0  0  0  0  0  0
  -27.4730   13.2120   10.6600 C   0  0  0  0  0  0  0  0  0  0  0  0
  -28.5760   13.4040    9.6080 C   0  0  0  0  0  0  0  0  0  0  0  0
  -27.1180   11.9640   11.0000 N   0  0  0  0  0  0  0  0  0  0  0  0
  -26.1700   11.7440   11.9110 C   0  0  0  0  0  0  0  0  0  0  0  0
  -25.8400   10.5010   12.2310 N   0  0  0  0  0  0  0  0  0  0  0  0
  -25.5410   12.7720   12.4940 N   0  0  0  0  0  0  0  0  0  0  0  0
  -25.8320   14.0410   12.2000 C   0  0  0  0  0  0  0  0  0  0  0  0
  -25.1510   14.9930   12.8290 N   0  0  0  0  0  0  0  0  0  0  0  0
  -31.2478   21.2755    8.1783 H   0  0  0  0  0  0  0  0  0  0  0  0
  -31.3000   19.9116    7.0105 H   0  0  0  0  0  0  0  0  0  0  0  0
  -32.6064   21.1445    7.0105 H   0  0  0  0  0  0  0  0  0  0  0  0
  -30.0297   19.4636    8.4560 H   0  0  0  0  0  0  0  0  0  0  0  0
  -34.3577   19.1332   12.4093 H   0  0  0  0  0  0  0  0  0  0  0  0
  -33.9012   20.2573   11.0848 H   0  0  0  0  0  0  0  0  0  0  0  0
  -35.5205   19.4798   11.0848 H   0  0  0  0  0  0  0  0  0  0  0  0
  -31.6360   15.6776   13.8787 H   0  0  0  0  0  0  0  0  0  0  0  0
  -31.9295   14.6109   12.4635 H   0  0  0  0  0  0  0  0  0  0  0  0
  -30.5313   15.7386   12.4635 H   0  0  0  0  0  0  0  0  0  0  0  0
  -29.7921   16.6338   11.6924 H   0  0  0  0  0  0  0  0  0  0  0  0
  -26.8265   17.3960    8.2963 H   0  0  0  0  0  0  0  0  0  0  0  0
  -28.5541   17.1099    7.8963 H   0  0  0  0  0  0  0  0  0  0  0  0
  -27.8972   18.7817    7.8963 H   0  0  0  0  0  0  0  0  0  0  0  0
  -27.6171   19.1190   11.5793 H   0  0  0  0  0  0  0  0  0  0  0  0
  -26.5352   19.2647   10.1527 H   0  0  0  0  0  0  0  0  0  0  0  0
  -28.1362   20.0793   10.1527 H   0  0  0  0  0  0  0  0  0  0  0  0
  -29.5389   13.5716   10.1127 H   0  0  0  0  0  0  0  0  0  0  0  0
  -28.3354   14.2738    8.9790 H   0  0  0  0  0  0  0  0  0  0  0  0
  -28.6435   12.5041    8.9790 H   0  0  0  0  0  0  0  0  0  0  0  0
  -25.7670   10.2261   13.2210 H   0  0  0  0  0  0  0  0  0  0  0  0
  -25.6565    9.8098   11.4897 H   0  0  0  0  0  0  0  0  0  0  0  0
  -25.1327   15.0185   13.8585 H   0  0  0  0  0  0  0  0  0  0  0  0
  -24.6414   15.7054   12.2870 H   0  0  0  0  0  0  0  0  0  0  0  0
  1  2  1  0
  2  3  1  0
  4  3  2  0
  3  5  1  0
  4 12  1  0
  5  6  1  0
  5  8  2  0
  6  7  1  0
 11  8  1  0
  8  9  1  0
  9 10  1  0
 12 11  2  0
 13 12  1  0
 14 13  1  0
 13 16  1  0
 13 15  1  0
 16 17  3  0
 17 18  1  0
 19 18  2  0
 18 25  1  0
 20 19  1  0
 19 21  1  0
 21 22  2  0
 22 23  1  0
 22 24  1  0
 25 24  2  0
 25 26  1  0
  1 27  1  0
  1 28  1  0
  1 29  1  0
  4 30  1  0
  7 31  1  0
  7 32  1  0
  7 33  1  0
 10 34  1  0
 10 35  1  0
 10 36  1  0
 11 37  1  0
 14 38  1  0
 14 39  1  0
 14 40  1  0
 15 41  1  0
 15 42  1  0
 15 43  1  0
 20 44  1  0
 20 45  1  0
 20 46  1  0
 23 47  1  0
 23 48  1  0
 26 49  1  0
 26 50  1  0
A    1
C1P
A    2
O1O
A    3
C1N
A    4
C1M
A    5
C1Q
A    6
O1V
A    7
C1W
A    8
C1R
A    9
O1T
A   10
C1U
A   11
C1S
A   12
C1L
A   13
C1J
A   14
C1K
A   15
C1X
A   16
C1I
A   17
C1H
A   18
C5
A   19
C4
A   20
C1Y
A   21
N3
A   22
C2
A   23
N1Z
A   24
N1
A   25
C6
A   26
N1G
M  END
