3FQH_057_A_1
     RDKit          3D

 49 52  0  0  0  0  0  0  0  0999 V2000
   -7.4760   -5.9830   10.0950 O   0  0  0  0  0  0  0  0  0  0  0  0
   -6.3320   -5.5830   10.3080 C   0  0  0  0  0  0  0  0  0  0  0  0
   -5.2660   -6.1510    9.7190 N   0  0  0  0  0  0  0  0  0  0  0  0
   -5.3000   -7.2850    8.7720 C   0  0  0  0  0  0  0  0  0  0  0  0
   -6.1700   -8.4520    9.2410 C   0  0  0  0  0  0  0  0  0  0  0  0
   -5.8510   -6.8400    7.4120 C   0  0  0  0  0  0  0  0  0  0  0  0
   -3.8720   -7.8080    8.5770 C   0  0  0  0  0  0  0  0  0  0  0  0
   -3.7830   -8.9780    7.7340 O   0  0  0  0  0  0  0  0  0  0  0  0
   -6.1710   -4.4170   11.2640 C   0  0  0  0  0  0  0  0  0  0  0  0
   -7.3220   -3.9040   11.8780 C   0  0  0  0  0  0  0  0  0  0  0  0
   -7.2430   -2.8290   12.7660 C   0  0  0  0  0  0  0  0  0  0  0  0
   -6.0090   -2.2430   13.0620 C   0  0  0  0  0  0  0  0  0  0  0  0
   -5.6610   -1.2140   13.8750 N   0  0  0  0  0  0  0  0  0  0  0  0
   -6.5910   -0.3970   14.6990 C   0  0  0  0  0  0  0  0  0  0  0  0
   -4.3280   -1.0210   13.8240 C   0  0  0  0  0  0  0  0  0  0  0  0
   -4.9210   -3.8370   11.5570 C   0  0  0  0  0  0  0  0  0  0  0  0
   -4.8600   -2.7570   12.4470 C   0  0  0  0  0  0  0  0  0  0  0  0
   -3.8340   -1.9740   12.9510 C   0  0  0  0  0  0  0  0  0  0  0  0
   -2.4630   -2.0520   12.6570 C   0  0  0  0  0  0  0  0  0  0  0  0
   -1.6660   -0.9760   12.8130 N   0  0  0  0  0  0  0  0  0  0  0  0
   -1.8280   -3.1940   12.2020 C   0  0  0  0  0  0  0  0  0  0  0  0
   -0.4980   -2.6690   12.1010 C   0  0  0  0  0  0  0  0  0  0  0  0
    0.6540   -3.3310   11.6690 C   0  0  0  0  0  0  0  0  0  0  0  0
    1.8610   -2.6270   11.6320 C   0  0  0  0  0  0  0  0  0  0  0  0
   -0.4200   -1.3350   12.4750 C   0  0  0  0  0  0  0  0  0  0  0  0
    0.7610   -0.6660   12.4210 N   0  0  0  0  0  0  0  0  0  0  0  0
    1.8890   -1.2890   12.0190 C   0  0  0  0  0  0  0  0  0  0  0  0
   -4.3410   -5.7604    9.9485 H   0  0  0  0  0  0  0  0  0  0  0  0
   -6.1885   -8.4768   10.3406 H   0  0  0  0  0  0  0  0  0  0  0  0
   -7.1937   -8.3225    8.8599 H   0  0  0  0  0  0  0  0  0  0  0  0
   -5.7536   -9.3961    8.8599 H   0  0  0  0  0  0  0  0  0  0  0  0
   -6.6984   -6.1557    7.5658 H   0  0  0  0  0  0  0  0  0  0  0  0
   -5.0607   -6.3238    6.8473 H   0  0  0  0  0  0  0  0  0  0  0  0
   -6.1893   -7.7213    6.8473 H   0  0  0  0  0  0  0  0  0  0  0  0
   -3.2700   -7.0077    8.1220 H   0  0  0  0  0  0  0  0  0  0  0  0
   -3.5037   -8.1037    9.5704 H   0  0  0  0  0  0  0  0  0  0  0  0
   -3.7214   -9.7883    8.2995 H   0  0  0  0  0  0  0  0  0  0  0  0
   -8.3010   -4.3544   11.6573 H   0  0  0  0  0  0  0  0  0  0  0  0
   -8.1586   -2.4406   13.2359 H   0  0  0  0  0  0  0  0  0  0  0  0
   -6.3886   -0.5748   15.7655 H   0  0  0  0  0  0  0  0  0  0  0  0
   -6.4434    0.6688   14.4705 H   0  0  0  0  0  0  0  0  0  0  0  0
   -7.6289   -0.6807   14.4705 H   0  0  0  0  0  0  0  0  0  0  0  0
   -3.7494   -0.2592   14.3671 H   0  0  0  0  0  0  0  0  0  0  0  0
   -4.0037   -4.2276   11.0923 H   0  0  0  0  0  0  0  0  0  0  0  0
   -1.9622   -0.0435   13.1349 H   0  0  0  0  0  0  0  0  0  0  0  0
   -2.2228   -4.1974   11.9844 H   0  0  0  0  0  0  0  0  0  0  0  0
    0.6119   -4.3869   11.3636 H   0  0  0  0  0  0  0  0  0  0  0  0
    2.7830   -3.1263   11.2994 H   0  0  0  0  0  0  0  0  0  0  0  0
    2.8391   -0.7351   11.9968 H   0  0  0  0  0  0  0  0  0  0  0  0
  1  2  2  0
  2  3  1  0
  2  9  1  0
  3  4  1  0
  4  5  1  0
  4  6  1  0
  4  7  1  0
  7  8  1  0
  9 10  2  0
  9 16  1  0
 10 11  1  0
 11 12  2  0
 12 13  1  0
 12 17  1  0
 13 14  1  0
 13 15  1  0
 15 18  2  0
 16 17  2  0
 17 18  1  0
 18 19  1  0
 19 20  1  0
 19 21  2  0
 20 25  1  0
 21 22  1  0
 22 23  1  0
 22 25  2  0
 23 24  2  0
 24 27  1  0
 25 26  1  0
 26 27  2  0
  3 28  1  0
  5 29  1  0
  5 30  1  0
  5 31  1  0
  6 32  1  0
  6 33  1  0
  6 34  1  0
  7 35  1  0
  7 36  1  0
  8 37  1  0
 10 38  1  0
 11 39  1  0
 14 40  1  0
 14 41  1  0
 14 42  1  0
 15 43  1  0
 16 44  1  0
 20 45  1  0
 21 46  1  0
 23 47  1  0
 24 48  1  0
 27 49  1  0
A    1
O21
A    2
C20
A    3
N22
A    4
C23
A    5
C26
A    6
C27
A    7
C24
A    8
O25
A    9
C15
A   10
C16
A   11
C18
A   12
C13
A   13
N11
A   14
C19
A   15
C12
A   16
C17
A   17
C14
A   18
C10
A   19
C9
A   20
N5
A   21
C8
A   22
C7
A   23
C3
A   24
C2
A   25
C6
A   26
N4
A   27
C1
M  END
