3FR0_AJB_A_501
     RDKit          3D

 37 39  0  0  0  0  0  0  0  0999 V2000
   41.0350   16.0210   64.6390 C   0  0  0  0  0  0  0  0  0  0  0  0
   39.6260   15.7020   62.2470 C   0  0  0  0  0  0  0  0  0  0  0  0
   35.7760   20.0650   59.7670 C   0  0  0  0  0  0  0  0  0  0  0  0
   44.2660   11.9360   62.0330 C   0  0  0  0  0  0  0  0  0  0  0  0
   36.5390   19.5590   58.7390 C   0  0  0  0  0  0  0  0  0  0  0  0
   40.1050   17.0030   64.2540 C   0  0  0  0  0  0  0  0  0  0  0  0
   42.4110   12.9830   61.6400 C   0  0  0  0  0  0  0  0  0  0  0  0
   36.2780   19.7340   57.3050 C   0  0  0  0  0  0  0  0  0  0  0  0
   42.2310   10.8640   62.9820 C   0  0  0  0  0  0  0  0  0  0  0  0
   41.2580   14.8830   63.8320 C   0  0  0  0  0  0  0  0  0  0  0  0
   40.5390   14.7150   62.6330 C   0  0  0  0  0  0  0  0  0  0  0  0
   39.4140   16.8200   63.0470 C   0  0  0  0  0  0  0  0  0  0  0  0
   37.6920   18.7990   60.4710 C   0  0  0  0  0  0  0  0  0  0  0  0
   38.4480   17.8270   62.5870 C   0  0  0  0  0  0  0  0  0  0  0  0
   39.8670   18.1190   65.0650 N   0  0  0  0  0  0  0  0  0  0  0  0
   44.5520   13.0310   61.3350 N   0  0  0  0  0  0  0  0  0  0  0  0
   37.6500   18.8230   59.1470 N   0  0  0  0  0  0  0  0  0  0  0  0
   43.3580   13.7030   61.0870 N   0  0  0  0  0  0  0  0  0  0  0  0
   38.6660   18.1700   61.2500 N   0  0  0  0  0  0  0  0  0  0  0  0
   42.9400   11.8930   62.2500 N   0  0  0  0  0  0  0  0  0  0  0  0
   37.5970   18.2470   63.3640 O   0  0  0  0  0  0  0  0  0  0  0  0
   36.4280   19.6340   61.2750 S   0  0  0  0  0  0  0  0  0  0  0  0
   40.7030   13.2730   61.6030 S   0  0  0  0  0  0  0  0  0  0  0  0
   41.5948   16.1401   65.5784 H   0  0  0  0  0  0  0  0  0  0  0  0
   39.0713   15.5932   61.3034 H   0  0  0  0  0  0  0  0  0  0  0  0
   34.8660   20.6677   59.6302 H   0  0  0  0  0  0  0  0  0  0  0  0
   44.9952   11.1876   62.3767 H   0  0  0  0  0  0  0  0  0  0  0  0
   35.3714   20.3419   57.1688 H   0  0  0  0  0  0  0  0  0  0  0  0
   37.1337   20.2416   56.8358 H   0  0  0  0  0  0  0  0  0  0  0  0
   36.1333   18.7496   56.8358 H   0  0  0  0  0  0  0  0  0  0  0  0
   42.3489   11.0351   64.0622 H   0  0  0  0  0  0  0  0  0  0  0  0
   41.1632   10.8972   62.7199 H   0  0  0  0  0  0  0  0  0  0  0  0
   42.6424    9.8781   62.7199 H   0  0  0  0  0  0  0  0  0  0  0  0
   41.9947   14.1268   64.1409 H   0  0  0  0  0  0  0  0  0  0  0  0
   39.8872   18.0242   66.0904 H   0  0  0  0  0  0  0  0  0  0  0  0
   39.6717   19.0349   64.6363 H   0  0  0  0  0  0  0  0  0  0  0  0
   39.5777   17.9511   60.8236 H   0  0  0  0  0  0  0  0  0  0  0  0
  1  6  2  0
  1 10  1  0
  2 11  1  0
  2 12  2  0
  3  5  2  0
  3 22  1  0
  4 16  2  0
  4 20  1  0
  5  8  1  0
  5 17  1  0
  6 12  1  0
  6 15  1  0
  7 18  2  0
  7 20  1  0
  7 23  1  0
  9 20  1  0
 10 11  2  0
 11 23  1  0
 12 14  1  0
 13 17  2  0
 13 19  1  0
 13 22  1  0
 14 19  1  0
 14 21  2  0
 16 18  1  0
  1 24  1  0
  2 25  1  0
  3 26  1  0
  4 27  1  0
  8 28  1  0
  8 29  1  0
  8 30  1  0
  9 31  1  0
  9 32  1  0
  9 33  1  0
 10 34  1  0
 15 35  1  0
 15 36  1  0
 19 37  1  0
A    1
C4
A    2
C5
A    3
C6
A    4
C7
A    5
C8
A    6
C10
A    7
C13
A    8
C1
A    9
C2
A   10
C3
A   11
C9
A   12
C11
A   13
C12
A   14
C14
A   15
N15
A   16
N16
A   17
N17
A   18
N18
A   19
N19
A   20
N20
A   21
O21
A   22
S22
A   23
S23
M  END
