3FR5_I4A_A_132
     RDKit          3D

 49 52  0  0  0  0  0  0  0  0999 V2000
   16.9070    4.7650    2.8130 O   0  0  0  0  0  0  0  0  0  0  0  0
   17.5870    5.7870    2.7560 C   0  0  0  0  0  0  0  0  0  0  0  0
   17.2000    6.7600    1.9360 O   0  0  0  0  0  0  0  0  0  0  0  0
   18.8160    5.9430    3.5890 C   0  0  0  0  0  0  0  0  0  0  0  0
   20.0840    5.2170    3.3170 C   0  0  0  0  0  0  0  0  0  0  0  0
   21.2260    5.4290    4.2370 C   0  0  0  0  0  0  0  0  0  0  0  0
   22.3000    4.5840    3.6710 C   0  0  0  0  0  0  0  0  0  0  0  0
   23.7130    4.3500    4.1200 C   0  0  0  0  0  0  0  0  0  0  0  0
   24.6820    4.6820    2.9900 C   0  0  0  0  0  0  0  0  0  0  0  0
   24.8500    3.6190    1.9050 C   0  0  0  0  0  0  0  0  0  0  0  0
   23.5870    3.6330    1.0130 C   0  0  0  0  0  0  0  0  0  0  0  0
   22.3440    2.9480    1.5820 C   0  0  0  0  0  0  0  0  0  0  0  0
   21.6590    3.9210    2.4900 C   0  0  0  0  0  0  0  0  0  0  0  0
   21.0790    6.2990    5.3200 C   0  0  0  0  0  0  0  0  0  0  0  0
   19.8700    6.9620    5.5400 C   0  0  0  0  0  0  0  0  0  0  0  0
   18.7760    6.7830    4.6900 C   0  0  0  0  0  0  0  0  0  0  0  0
   20.3970    4.3160    2.3490 N   0  0  0  0  0  0  0  0  0  0  0  0
   19.5810    3.8280    1.2600 C   0  0  0  0  0  0  0  0  0  0  0  0
   19.9060    4.4160   -0.0950 C   0  0  0  0  0  0  0  0  0  0  0  0
   19.6180    3.6300   -1.1970 C   0  0  0  0  0  0  0  0  0  0  0  0
   19.9060    4.0940   -2.4740 C   0  0  0  0  0  0  0  0  0  0  0  0
   19.6230    3.2120   -3.6530 C   0  0  0  0  0  0  0  0  0  0  0  0
   20.2560    3.5060   -4.7760 N   0  0  0  0  0  0  0  0  0  0  0  0
   18.8790    2.2320   -3.5540 O   0  0  0  0  0  0  0  0  0  0  0  0
   20.4610    5.3610   -2.6760 C   0  0  0  0  0  0  0  0  0  0  0  0
   20.7220    6.1590   -1.5630 C   0  0  0  0  0  0  0  0  0  0  0  0
   20.4640    5.6840   -0.2710 C   0  0  0  0  0  0  0  0  0  0  0  0
   16.6551    4.3864    3.6924 H   0  0  0  0  0  0  0  0  0  0  0  0
   23.9307    4.9916    4.9866 H   0  0  0  0  0  0  0  0  0  0  0  0
   23.8325    3.2926    4.3987 H   0  0  0  0  0  0  0  0  0  0  0  0
   24.3269    5.6029    2.5043 H   0  0  0  0  0  0  0  0  0  0  0  0
   25.6689    4.7706    3.4678 H   0  0  0  0  0  0  0  0  0  0  0  0
   25.7379    3.8456    1.2964 H   0  0  0  0  0  0  0  0  0  0  0  0
   24.9802    2.6272    2.3626 H   0  0  0  0  0  0  0  0  0  0  0  0
   23.3288    4.6838    0.8152 H   0  0  0  0  0  0  0  0  0  0  0  0
   23.8557    3.0531    0.1177 H   0  0  0  0  0  0  0  0  0  0  0  0
   21.6677    2.6605    0.7635 H   0  0  0  0  0  0  0  0  0  0  0  0
   22.6257    2.0399    2.1351 H   0  0  0  0  0  0  0  0  0  0  0  0
   21.9233    6.4632    6.0057 H   0  0  0  0  0  0  0  0  0  0  0  0
   19.7770    7.6399    6.4013 H   0  0  0  0  0  0  0  0  0  0  0  0
   17.8461    7.3306    4.9032 H   0  0  0  0  0  0  0  0  0  0  0  0
   19.7104    2.7374    1.1987 H   0  0  0  0  0  0  0  0  0  0  0  0
   18.5491    4.1331    1.4882 H   0  0  0  0  0  0  0  0  0  0  0  0
   19.1613    2.6385   -1.0616 H   0  0  0  0  0  0  0  0  0  0  0  0
   21.1897    3.9396   -4.7426 H   0  0  0  0  0  0  0  0  0  0  0  0
   19.8154    3.3014   -5.6843 H   0  0  0  0  0  0  0  0  0  0  0  0
   20.6868    5.7205   -3.6908 H   0  0  0  0  0  0  0  0  0  0  0  0
   21.1338    7.1697   -1.7007 H   0  0  0  0  0  0  0  0  0  0  0  0
   20.7004    6.3084    0.6032 H   0  0  0  0  0  0  0  0  0  0  0  0
  2  1  1  0
  3  2  2  0
  2  4  1  0
  5  4  2  0
  4 16  1  0
 17  5  1  0
  5  6  1  0
  7  6  1  0
  6 14  2  0
 13  7  2  0
  7  8  1  0
  9  8  1  0
 10  9  1  0
 11 10  1  0
 11 12  1  0
 12 13  1  0
 17 13  1  0
 14 15  1  0
 16 15  2  0
 18 17  1  0
 19 18  1  0
 20 19  2  0
 27 19  1  0
 21 20  1  0
 22 21  1  0
 25 21  2  0
 23 22  1  0
 22 24  2  0
 25 26  1  0
 26 27  2  0
  1 28  1  0
  8 29  1  0
  8 30  1  0
  9 31  1  0
  9 32  1  0
 10 33  1  0
 10 34  1  0
 11 35  1  0
 11 36  1  0
 12 37  1  0
 12 38  1  0
 14 39  1  0
 15 40  1  0
 16 41  1  0
 18 42  1  0
 18 43  1  0
 20 44  1  0
 23 45  1  0
 23 46  1  0
 25 47  1  0
 26 48  1  0
 27 49  1  0
A    1
O27
A    2
C25
A    3
O26
A    4
C4
A    5
C6
A    6
C7
A    7
C9
A    8
C10
A    9
C12
A   10
C14
A   11
C13
A   12
C11
A   13
C8
A   14
C3
A   15
C2
A   16
C1
A   17
N5
A   18
C15
A   19
C16
A   20
C17
A   21
C18
A   22
C22
A   23
N24
A   24
O23
A   25
C19
A   26
C20
A   27
C21
M  END
