3FRA_I2H_X_300
     RDKit          3D

 48 51  0  0  0  0  0  0  0  0999 V2000
   26.4260   11.8010   39.2590 N   0  0  0  0  0  0  0  0  0  0  0  0
   27.0090   10.7910   40.2020 C   0  0  0  0  0  0  0  0  0  0  0  0
   26.6170    9.4620   40.1110 N   0  0  0  0  0  0  0  0  0  0  0  0
   27.1390    8.5010   40.9710 C   0  0  0  0  0  0  0  0  0  0  0  0
   26.6930    7.0770   40.8490 N   0  0  0  0  0  0  0  0  0  0  0  0
   28.0590    8.8480   41.9250 N   0  0  0  0  0  0  0  0  0  0  0  0
   28.4750   10.2080   42.0390 C   0  0  0  0  0  0  0  0  0  0  0  0
   27.9270   11.1800   41.1460 C   0  0  0  0  0  0  0  0  0  0  0  0
   28.3270   12.5540   41.2310 C   0  0  0  0  0  0  0  0  0  0  0  0
   29.4960   12.7380   42.1770 C   0  0  0  0  0  0  0  0  0  0  0  0
   29.4310   13.6130   43.2590 C   0  0  0  0  0  0  0  0  0  0  0  0
   30.5600   13.7660   44.1370 C   0  0  0  0  0  0  0  0  0  0  0  0
   30.4770   14.6800   45.2640 O   0  0  0  0  0  0  0  0  0  0  0  0
   29.1090   14.9630   45.8380 C   0  0  0  0  0  0  0  0  0  0  0  0
   30.7470   11.9840   41.9530 C   0  0  0  0  0  0  0  0  0  0  0  0
   31.8760   12.1750   42.8800 C   0  0  0  0  0  0  0  0  0  0  0  0
   33.0060   11.4750   42.6640 O   0  0  0  0  0  0  0  0  0  0  0  0
   31.7750   13.0240   43.9100 C   0  0  0  0  0  0  0  0  0  0  0  0
   32.8430   13.1700   44.7430 O   0  0  0  0  0  0  0  0  0  0  0  0
   33.9100   12.3970   44.5610 C   0  0  0  0  0  0  0  0  0  0  0  0
   30.8560   11.0320   40.7910 C   0  0  0  0  0  0  0  0  0  0  0  0
   32.2130   10.3330   40.7380 C   0  0  0  0  0  0  0  0  0  0  0  0
   33.3220   11.1960   41.3090 C   0  0  0  0  0  0  0  0  0  0  0  0
   34.6610   10.4500   41.2260 C   0  0  0  0  0  0  0  0  0  0  0  0
   34.6470    8.9720   40.9610 C   0  0  0  0  0  0  0  0  0  0  0  0
   35.0960    9.9240   39.8880 C   0  0  0  0  0  0  0  0  0  0  0  0
   25.9454   12.6336   39.6288 H   0  0  0  0  0  0  0  0  0  0  0  0
   26.5062   11.6621   38.2416 H   0  0  0  0  0  0  0  0  0  0  0  0
   26.5179    6.5178   41.6961 H   0  0  0  0  0  0  0  0  0  0  0  0
   26.5613    6.6565   39.9180 H   0  0  0  0  0  0  0  0  0  0  0  0
   29.2077   10.5044   42.8040 H   0  0  0  0  0  0  0  0  0  0  0  0
   28.6199   12.9029   40.2298 H   0  0  0  0  0  0  0  0  0  0  0  0
   27.4773   13.1360   41.6174 H   0  0  0  0  0  0  0  0  0  0  0  0
   28.5123   14.1894   43.4427 H   0  0  0  0  0  0  0  0  0  0  0  0
   29.1629   14.9519   46.9366 H   0  0  0  0  0  0  0  0  0  0  0  0
   28.7658   15.9512   45.4977 H   0  0  0  0  0  0  0  0  0  0  0  0
   28.4019   14.1921   45.4977 H   0  0  0  0  0  0  0  0  0  0  0  0
   34.3191   12.1007   45.5382 H   0  0  0  0  0  0  0  0  0  0  0  0
   33.6198   11.4982   43.9972 H   0  0  0  0  0  0  0  0  0  0  0  0
   34.6736   12.9529   43.9972 H   0  0  0  0  0  0  0  0  0  0  0  0
   30.0496   10.8596   40.0630 H   0  0  0  0  0  0  0  0  0  0  0  0
   32.3679    9.3220   40.3331 H   0  0  0  0  0  0  0  0  0  0  0  0
   33.4109   12.1316   40.7374 H   0  0  0  0  0  0  0  0  0  0  0  0
   35.1107   11.0945   41.9956 H   0  0  0  0  0  0  0  0  0  0  0  0
   33.6893    8.4405   40.8592 H   0  0  0  0  0  0  0  0  0  0  0  0
   35.0845    8.0897   41.4510 H   0  0  0  0  0  0  0  0  0  0  0  0
   36.1564    9.9662   39.5986 H   0  0  0  0  0  0  0  0  0  0  0  0
   34.8039   10.1144   38.8447 H   0  0  0  0  0  0  0  0  0  0  0  0
  1  2  1  0
 26 25  1  0
 26 24  1  0
  3  2  2  0
  3  4  1  0
  2  8  1  0
 22 21  2  0
 22 23  1  0
 21 15  1  0
  5  4  1  0
 25 24  1  0
  4  6  2  0
  8  9  1  0
  8  7  2  0
 24 23  1  0
  9 10  1  0
 23 17  1  0
  6  7  1  0
 15 10  1  0
 15 16  2  0
 10 11  2  0
 17 16  1  0
 16 18  1  0
 11 12  1  0
 18 12  2  0
 18 19  1  0
 12 13  1  0
 20 19  1  0
 13 14  1  0
  1 27  1  0
  1 28  1  0
  5 29  1  0
  5 30  1  0
  7 31  1  0
  9 32  1  0
  9 33  1  0
 11 34  1  0
 14 35  1  0
 14 36  1  0
 14 37  1  0
 20 38  1  0
 20 39  1  0
 20 40  1  0
 21 41  1  0
 22 42  1  0
 23 43  1  0
 24 44  1  0
 25 45  1  0
 25 46  1  0
 26 47  1  0
 26 48  1  0
A    1
N7
A    2
C6
A    3
N5
A    4
C3
A    5
N4
A    6
N2
A    7
C1
A    8
C8
A    9
C9
A   10
C10
A   11
C21
A   12
C18
A   13
O19
A   14
C20
A   15
C11
A   16
C12
A   17
O13
A   18
C15
A   19
O16
A   20
C17
A   21
C27
A   22
C28
A   23
C14
A   24
C24
A   25
C26
A   26
C25
M  END
