3FRZ_AG0_A_577
     RDKit          3D

 74 78  0  0  0  0  0  0  0  0999 V2000
   44.3910   15.1730   53.4050 O   0  0  0  0  0  0  0  0  0  0  0  0
   43.3270   14.6420   53.3930 C   0  0  0  0  0  0  0  0  0  0  0  0
   43.0870   13.5250   52.4850 C   0  0  0  0  0  0  0  0  0  0  0  0
   41.8380   12.9230   52.5130 C   0  0  0  0  0  0  0  0  0  0  0  0
   41.5840   11.8920   51.6950 O   0  0  0  0  0  0  0  0  0  0  0  0
   44.2620   13.0230   51.5630 C   0  0  0  0  0  0  0  0  0  0  0  0
   44.5410   13.8790   50.3340 C   0  0  0  0  0  0  0  0  0  0  0  0
   45.7290   14.0770   49.8250 N   0  0  0  0  0  0  0  0  0  0  0  0
   43.5340   14.5690   49.6350 N   0  0  0  0  0  0  0  0  0  0  0  0
   44.1590   15.1600   48.6940 C   0  0  0  0  0  0  0  0  0  0  0  0
   45.4790   14.8470   48.8200 N   0  0  0  0  0  0  0  0  0  0  0  0
   46.3370   15.3880   47.9440 C   0  0  0  0  0  0  0  0  0  0  0  0
   45.8850   16.2230   46.9550 C   0  0  0  0  0  0  0  0  0  0  0  0
   47.7950   15.0410   48.0970 C   0  0  0  0  0  0  0  0  0  0  0  0
   43.6220   15.9730   47.7660 N   0  0  0  0  0  0  0  0  0  0  0  0
   44.5030   16.4880   46.8930 C   0  0  0  0  0  0  0  0  0  0  0  0
   43.9820   17.4050   45.8200 C   0  0  0  0  0  0  0  0  0  0  0  0
   42.3030   15.0680   54.1570 O   0  0  0  0  0  0  0  0  0  0  0  0
   41.0500   14.4180   54.3730 C   0  0  0  0  0  0  0  0  0  0  0  0
   40.6630   13.3270   53.3690 C   0  0  0  0  0  0  0  0  0  0  0  0
   39.9540   15.4580   54.7220 C   0  0  0  0  0  0  0  0  0  0  0  0
   38.6510   14.9170   55.3320 C   0  0  0  0  0  0  0  0  0  0  0  0
   39.5430   16.3050   53.5470 C   0  0  0  0  0  0  0  0  0  0  0  0
   38.1800   16.9360   53.9030 C   0  0  0  0  0  0  0  0  0  0  0  0
   37.6030   15.9930   54.9470 C   0  0  0  0  0  0  0  0  0  0  0  0
   41.3930   13.5900   55.6550 C   0  0  0  0  0  0  0  0  0  0  0  0
   41.9230   14.4070   56.8880 C   0  0  0  0  0  0  0  0  0  0  0  0
   42.2090   13.4780   58.0000 C   0  0  0  0  0  0  0  0  0  0  0  0
   43.4390   12.7680   58.1400 C   0  0  0  0  0  0  0  0  0  0  0  0
   41.2750   13.2220   58.9650 C   0  0  0  0  0  0  0  0  0  0  0  0
   41.4860   12.3590   59.9760 C   0  0  0  0  0  0  0  0  0  0  0  0
   40.3700   12.1700   60.9790 C   0  0  0  0  0  0  0  0  0  0  0  0
   40.6310   12.9700   62.2710 C   0  0  0  0  0  0  0  0  0  0  0  0
   42.6520   11.6790   60.1470 N   0  0  0  0  0  0  0  0  0  0  0  0
   43.5830   11.9150   59.2220 C   0  0  0  0  0  0  0  0  0  0  0  0
   44.8850   11.1630   59.3880 C   0  0  0  0  0  0  0  0  0  0  0  0
   44.9860   10.0280   58.3810 C   0  0  0  0  0  0  0  0  0  0  0  0
   41.3650   11.0032   52.0721 H   0  0  0  0  0  0  0  0  0  0  0  0
   45.1791   12.9912   52.1695 H   0  0  0  0  0  0  0  0  0  0  0  0
   43.9489   12.0397   51.1822 H   0  0  0  0  0  0  0  0  0  0  0  0
   46.5809   16.6726   46.2314 H   0  0  0  0  0  0  0  0  0  0  0  0
   48.0474   14.9809   49.1660 H   0  0  0  0  0  0  0  0  0  0  0  0
   47.9931   14.0706   47.6184 H   0  0  0  0  0  0  0  0  0  0  0  0
   48.4090   15.8181   47.6184 H   0  0  0  0  0  0  0  0  0  0  0  0
   43.4897   18.2716   46.2855 H   0  0  0  0  0  0  0  0  0  0  0  0
   44.8186   17.7506   45.1950 H   0  0  0  0  0  0  0  0  0  0  0  0
   43.2568   16.8633   45.1950 H   0  0  0  0  0  0  0  0  0  0  0  0
   39.8610   13.7072   52.7192 H   0  0  0  0  0  0  0  0  0  0  0  0
   40.3251   12.4440   53.9312 H   0  0  0  0  0  0  0  0  0  0  0  0
   40.4785   16.0411   55.4933 H   0  0  0  0  0  0  0  0  0  0  0  0
   38.3895   13.9399   54.8997 H   0  0  0  0  0  0  0  0  0  0  0  0
   38.7199   14.7522   56.4174 H   0  0  0  0  0  0  0  0  0  0  0  0
   40.2896   17.0930   53.3694 H   0  0  0  0  0  0  0  0  0  0  0  0
   39.4690   15.6990   52.6320 H   0  0  0  0  0  0  0  0  0  0  0  0
   38.3126   17.9459   54.3183 H   0  0  0  0  0  0  0  0  0  0  0  0
   37.5244   17.0524   53.0274 H   0  0  0  0  0  0  0  0  0  0  0  0
   37.3262   16.5680   55.8430 H   0  0  0  0  0  0  0  0  0  0  0  0
   36.7140   15.4964   54.5309 H   0  0  0  0  0  0  0  0  0  0  0  0
   40.4795   13.0637   55.9689 H   0  0  0  0  0  0  0  0  0  0  0  0
   42.2208   12.9267   55.3639 H   0  0  0  0  0  0  0  0  0  0  0  0
   42.8436   14.9399   56.6079 H   0  0  0  0  0  0  0  0  0  0  0  0
   41.1620   15.1364   57.2025 H   0  0  0  0  0  0  0  0  0  0  0  0
   44.2508   12.8946   57.4086 H   0  0  0  0  0  0  0  0  0  0  0  0
   40.3084   13.7444   58.9128 H   0  0  0  0  0  0  0  0  0  0  0  0
   39.4252   12.5120   60.5314 H   0  0  0  0  0  0  0  0  0  0  0  0
   40.3160   11.1024   61.2387 H   0  0  0  0  0  0  0  0  0  0  0  0
   40.4235   12.3341   63.1442 H   0  0  0  0  0  0  0  0  0  0  0  0
   41.6817   13.2948   62.2952 H   0  0  0  0  0  0  0  0  0  0  0  0
   39.9740   13.8519   62.2952 H   0  0  0  0  0  0  0  0  0  0  0  0
   45.7244   11.8571   59.2342 H   0  0  0  0  0  0  0  0  0  0  0  0
   44.9197   10.7383   60.4021 H   0  0  0  0  0  0  0  0  0  0  0  0
   45.0712    9.0703   58.9153 H   0  0  0  0  0  0  0  0  0  0  0  0
   44.0853   10.0167   57.7496 H   0  0  0  0  0  0  0  0  0  0  0  0
   45.8745   10.1760   57.7496 H   0  0  0  0  0  0  0  0  0  0  0  0
  2  1  2  0
  2 18  1  0
  3  2  1  0
  3  4  2  0
  4 20  1  0
  5  4  1  0
  6  3  1  0
  7  6  1  0
  8  7  2  0
  9  7  1  0
 10  9  2  0
 10 11  1  0
 11  8  1  0
 12 11  1  0
 12 14  1  0
 13 12  2  0
 15 10  1  0
 16 13  1  0
 16 15  2  0
 17 16  1  0
 18 19  1  0
 19 21  1  0
 19 26  1  0
 20 19  1  0
 21 22  1  0
 23 21  1  0
 23 24  1  0
 24 25  1  0
 25 22  1  0
 26 27  1  0
 27 28  1  0
 28 29  2  0
 28 30  1  0
 29 35  1  0
 30 31  2  0
 31 34  1  0
 31 32  1  0
 32 33  1  0
 35 34  2  0
 35 36  1  0
 37 36  1  0
  5 38  1  0
  6 39  1  0
  6 40  1  0
 13 41  1  0
 14 42  1  0
 14 43  1  0
 14 44  1  0
 17 45  1  0
 17 46  1  0
 17 47  1  0
 20 48  1  0
 20 49  1  0
 21 50  1  0
 22 51  1  0
 22 52  1  0
 23 53  1  0
 23 54  1  0
 24 55  1  0
 24 56  1  0
 25 57  1  0
 25 58  1  0
 26 59  1  0
 26 60  1  0
 27 61  1  0
 27 62  1  0
 29 63  1  0
 30 64  1  0
 32 65  1  0
 32 66  1  0
 33 67  1  0
 33 68  1  0
 33 69  1  0
 36 70  1  0
 36 71  1  0
 37 72  1  0
 37 73  1  0
 37 74  1  0
A    1
O19
A    2
C17
A    3
C18
A    4
C13
A    5
O20
A    6
C1
A    7
C9
A    8
N8
A    9
N10
A   10
C4
A   11
N5
A   12
C6
A   13
C7
A   14
C12
A   15
N3
A   16
C2
A   17
C11
A   18
O16
A   19
C15
A   20
C14
A   21
C27
A   22
C23
A   23
C26
A   24
C25
A   25
C24
A   26
C21
A   27
C22
A   28
C29
A   29
C30
A   30
C28
A   31
C33
A   32
C34
A   33
C35
A   34
N32
A   35
C31
A   36
C36
A   37
C37
M  END
