2FZH_DH1_A_208
     RDKit          3D

 47 48  0  0  0  0  0  0  0  0999 V2000
   34.3140    8.8990   14.2890 C   0  0  0  0  0  0  0  0  0  0  0  0
   33.4200    8.2990   13.3310 O   0  0  0  0  0  0  0  0  0  0  0  0
   33.1690    9.0690   12.1830 C   0  0  0  0  0  0  0  0  0  0  0  0
   34.2230    9.3630   11.2700 C   0  0  0  0  0  0  0  0  0  0  0  0
   34.0100   10.1380   10.0930 C   0  0  0  0  0  0  0  0  0  0  0  0
   32.7230   10.6130    9.8430 C   0  0  0  0  0  0  0  0  0  0  0  0
   32.5190   11.3730    8.6790 O   0  0  0  0  0  0  0  0  0  0  0  0
   31.8360   12.6420    8.8650 C   0  0  0  0  0  0  0  0  0  0  0  0
   32.0610   13.5300    7.6030 C   0  0  0  0  0  0  0  0  0  0  0  0
   32.0200   12.7690    6.2310 C   0  0  0  0  0  0  0  0  0  0  0  0
   30.6750   12.1240    5.8800 C   0  0  0  0  0  0  0  0  0  0  0  0
   29.5050   13.0720    6.0270 C   0  0  0  0  0  0  0  0  0  0  0  0
   28.6160   12.8270    6.8330 O   0  0  0  0  0  0  0  0  0  0  0  0
   29.4410   14.0820    5.3380 O   0  0  0  0  0  0  0  0  0  0  0  0
   31.6250   10.3280   10.7470 C   0  0  0  0  0  0  0  0  0  0  0  0
   31.8480    9.5510   11.9200 C   0  0  0  0  0  0  0  0  0  0  0  0
   30.7120    9.2130   12.9170 C   0  0  0  0  0  0  0  0  0  0  0  0
   29.9510    7.8830   12.6480 C   0  0  0  0  0  0  0  0  0  0  0  0
   30.2200    6.9960   11.5620 C   0  0  0  0  0  0  0  0  0  0  0  0
   29.5000    5.8300   11.3950 N   0  0  0  0  0  0  0  0  0  0  0  0
   28.5130    5.4760   12.2480 C   0  0  0  0  0  0  0  0  0  0  0  0
   27.7900    4.2720   12.0570 N   0  0  0  0  0  0  0  0  0  0  0  0
   28.2030    6.2690   13.3000 N   0  0  0  0  0  0  0  0  0  0  0  0
   28.9020    7.4880   13.5320 C   0  0  0  0  0  0  0  0  0  0  0  0
   28.5730    8.2280   14.5610 N   0  0  0  0  0  0  0  0  0  0  0  0
   33.9690    8.6675   15.3075 H   0  0  0  0  0  0  0  0  0  0  0  0
   35.3282    8.4980   14.1453 H   0  0  0  0  0  0  0  0  0  0  0  0
   34.3272    9.9895   14.1453 H   0  0  0  0  0  0  0  0  0  0  0  0
   35.2324    8.9798   11.4802 H   0  0  0  0  0  0  0  0  0  0  0  0
   34.8374   10.3553    9.4014 H   0  0  0  0  0  0  0  0  0  0  0  0
   30.7593   12.4644    9.0037 H   0  0  0  0  0  0  0  0  0  0  0  0
   32.2354   13.1520    9.7540 H   0  0  0  0  0  0  0  0  0  0  0  0
   31.2777   14.3021    7.5868 H   0  0  0  0  0  0  0  0  0  0  0  0
   33.0790   13.9365    7.6949 H   0  0  0  0  0  0  0  0  0  0  0  0
   32.2701   13.4873    5.4363 H   0  0  0  0  0  0  0  0  0  0  0  0
   32.7399   11.9421    6.3201 H   0  0  0  0  0  0  0  0  0  0  0  0
   30.7150   11.7766    4.8371 H   0  0  0  0  0  0  0  0  0  0  0  0
   30.5154   11.2947    6.5849 H   0  0  0  0  0  0  0  0  0  0  0  0
   28.8006   12.8779    7.8043 H   0  0  0  0  0  0  0  0  0  0  0  0
   30.6183   10.7126   10.5264 H   0  0  0  0  0  0  0  0  0  0  0  0
   31.1524    9.1527   13.9232 H   0  0  0  0  0  0  0  0  0  0  0  0
   29.9659   10.0133   12.8035 H   0  0  0  0  0  0  0  0  0  0  0  0
   31.0158    7.2464   10.8450 H   0  0  0  0  0  0  0  0  0  0  0  0
   27.4654    3.7315   12.8715 H   0  0  0  0  0  0  0  0  0  0  0  0
   27.5892    3.9376   11.1037 H   0  0  0  0  0  0  0  0  0  0  0  0
   28.7284    7.8785   15.5174 H   0  0  0  0  0  0  0  0  0  0  0  0
   28.1588    9.1595   14.4140 H   0  0  0  0  0  0  0  0  0  0  0  0
  1  2  1  0
  2  3  1  0
  3  4  2  0
  3 16  1  0
  4  5  1  0
  5  6  2  0
  6  7  1  0
  6 15  1  0
  7  8  1  0
  8  9  1  0
  9 10  1  0
 10 11  1  0
 11 12  1  0
 12 13  1  0
 12 14  2  0
 15 16  2  0
 16 17  1  0
 17 18  1  0
 18 19  2  0
 18 24  1  0
 19 20  1  0
 20 21  2  0
 21 22  1  0
 21 23  1  0
 23 24  2  0
 24 25  1  0
  1 26  1  0
  1 27  1  0
  1 28  1  0
  4 29  1  0
  5 30  1  0
  8 31  1  0
  8 32  1  0
  9 33  1  0
  9 34  1  0
 10 35  1  0
 10 36  1  0
 11 37  1  0
 11 38  1  0
 13 39  1  0
 15 40  1  0
 17 41  1  0
 17 42  1  0
 19 43  1  0
 22 44  1  0
 22 45  1  0
 25 46  1  0
 25 47  1  0
A    1
C16
A    2
O1
A    3
C2'
A    4
C3'
A    5
C4'
A    6
C5'
A    7
O5'
A    8
C52
A    9
C1
A   10
C3
A   11
C7
A   12
C8
A   13
O9
A   14
O10
A   15
C6'
A   16
C1'
A   17
C51
A   18
C5
A   19
C6
A   20
N1
A   21
C2
A   22
N2
A   23
N3
A   24
C4
A   25
N4
M  END
