3FSF_FSS_A_450
     RDKit          3D

 60 63  0  0  0  0  0  0  0  0999 V2000
   23.1060   10.3110   32.9590 N   0  0  0  0  0  0  0  0  0  0  0  0
   23.3890    9.0890   32.4780 C   0  0  0  0  0  0  0  0  0  0  0  0
   21.4030    8.9260   31.2220 C   0  0  0  0  0  0  0  0  0  0  0  0
   21.0040   10.2470   31.6870 C   0  0  0  0  0  0  0  0  0  0  0  0
   21.9550   10.9040   32.5940 C   0  0  0  0  0  0  0  0  0  0  0  0
   20.4090   12.8830   32.7560 C   0  0  0  0  0  0  0  0  0  0  0  0
   17.0560   12.4150   32.3290 C   0  0  0  0  0  0  0  0  0  0  0  0
   15.6700   13.9120   30.9360 C   0  0  0  0  0  0  0  0  0  0  0  0
   25.6300    9.1570   33.7480 C   0  0  0  0  0  0  0  0  0  0  0  0
   28.0060    9.6550   34.1730 C   0  0  0  0  0  0  0  0  0  0  0  0
   26.2290   10.5280   35.7030 C   0  0  0  0  0  0  0  0  0  0  0  0
   24.6390    8.4960   32.8980 N   0  0  0  0  0  0  0  0  0  0  0  0
   27.0090    9.0290   33.3750 C   0  0  0  0  0  0  0  0  0  0  0  0
   27.6170   10.4040   35.3390 C   0  0  0  0  0  0  0  0  0  0  0  0
   28.6230   10.9930   36.0860 O   0  0  0  0  0  0  0  0  0  0  0  0
   28.3650   11.7630   37.2670 C   0  0  0  0  0  0  0  0  0  0  0  0
   29.4090   11.5420   38.2960 N   0  0  0  0  0  0  0  0  0  0  0  0
   28.8830   10.7780   39.4580 C   0  0  0  0  0  0  0  0  0  0  0  0
   29.5870    9.4220   39.6120 C   0  0  0  0  0  0  0  0  0  0  0  0
   29.9280   12.8580   38.7380 C   0  0  0  0  0  0  0  0  0  0  0  0
   31.4390   12.9800   38.4860 C   0  0  0  0  0  0  0  0  0  0  0  0
   25.2470    9.9080   34.9140 C   0  0  0  0  0  0  0  0  0  0  0  0
   22.5580    8.3810   31.6150 N   0  0  0  0  0  0  0  0  0  0  0  0
   21.6450   12.1960   33.1050 N   0  0  0  0  0  0  0  0  0  0  0  0
   22.5980   12.8750   34.0250 C   0  0  0  0  0  0  0  0  0  0  0  0
   20.1180   14.0220   33.2050 O   0  0  0  0  0  0  0  0  0  0  0  0
   19.4790   12.1820   31.8440 N   0  0  0  0  0  0  0  0  0  0  0  0
   18.2380   12.7700   31.5110 C   0  0  0  0  0  0  0  0  0  0  0  0
   17.1940   11.2920   33.6540 Cl  0  0  0  0  0  0  0  0  0  0  0  0
   15.7950   12.9960   32.0190 C   0  0  0  0  0  0  0  0  0  0  0  0
   16.8040   14.2680   30.1330 C   0  0  0  0  0  0  0  0  0  0  0  0
   18.0810   13.7190   30.3980 C   0  0  0  0  0  0  0  0  0  0  0  0
   19.4260   14.1650   29.4120 Cl  0  0  0  0  0  0  0  0  0  0  0  0
   19.7960   10.8710   31.3190 C   0  0  0  0  0  0  0  0  0  0  0  0
   20.7450    8.3695   30.5383 H   0  0  0  0  0  0  0  0  0  0  0  0
   14.6879   14.3538   30.7115 H   0  0  0  0  0  0  0  0  0  0  0  0
   29.0682    9.5673   33.9007 H   0  0  0  0  0  0  0  0  0  0  0  0
   25.9400   11.1050   36.5938 H   0  0  0  0  0  0  0  0  0  0  0  0
   24.8468    7.5400   32.5759 H   0  0  0  0  0  0  0  0  0  0  0  0
   27.2923    8.4531   32.4817 H   0  0  0  0  0  0  0  0  0  0  0  0
   28.3449   12.8302   37.0011 H   0  0  0  0  0  0  0  0  0  0  0  0
   27.3971   11.4457   37.6824 H   0  0  0  0  0  0  0  0  0  0  0  0
   29.0408   11.3675   40.3732 H   0  0  0  0  0  0  0  0  0  0  0  0
   27.8122   10.5912   39.2891 H   0  0  0  0  0  0  0  0  0  0  0  0
   29.7072    9.1905   40.6806 H   0  0  0  0  0  0  0  0  0  0  0  0
   28.9819    8.6382   39.1328 H   0  0  0  0  0  0  0  0  0  0  0  0
   30.5762    9.4659   39.1328 H   0  0  0  0  0  0  0  0  0  0  0  0
   29.4076   13.6524   38.1829 H   0  0  0  0  0  0  0  0  0  0  0  0
   29.7491   12.9546   39.8191 H   0  0  0  0  0  0  0  0  0  0  0  0
   31.9690   13.0228   39.4489 H   0  0  0  0  0  0  0  0  0  0  0  0
   31.7871   12.1070   37.9143 H   0  0  0  0  0  0  0  0  0  0  0  0
   31.6425   13.8975   37.9143 H   0  0  0  0  0  0  0  0  0  0  0  0
   24.1851    9.9964   35.1872 H   0  0  0  0  0  0  0  0  0  0  0  0
   22.3107   12.6703   35.0669 H   0  0  0  0  0  0  0  0  0  0  0  0
   23.6149   12.4968   33.8440 H   0  0  0  0  0  0  0  0  0  0  0  0
   22.5726   13.9597   33.8440 H   0  0  0  0  0  0  0  0  0  0  0  0
   14.9110   12.7360   32.6197 H   0  0  0  0  0  0  0  0  0  0  0  0
   16.6794   14.9766   29.3009 H   0  0  0  0  0  0  0  0  0  0  0  0
   19.8033   10.9593   30.2226 H   0  0  0  0  0  0  0  0  0  0  0  0
   19.0263   10.2231   31.7637 H   0  0  0  0  0  0  0  0  0  0  0  0
  2  1  2  0
  5  1  1  0
 23  2  1  0
  2 12  1  0
  3 23  2  0
  3  4  1  0
 34  4  1  0
  4  5  2  0
  5 24  1  0
 27  6  1  0
  6 24  1  0
  6 26  2  0
 28  7  2  0
 30  7  1  0
  7 29  1  0
 31  8  1  0
  8 30  2  0
 12  9  1  0
 13  9  1  0
  9 22  2  0
 13 10  2  0
 10 14  1  0
 22 11  1  0
 14 11  2  0
 14 15  1  0
 15 16  1  0
 16 17  1  0
 17 20  1  0
 17 18  1  0
 18 19  1  0
 21 20  1  0
 24 25  1  0
 34 27  1  0
 28 27  1  0
 32 28  1  0
 31 32  2  0
 33 32  1  0
  3 35  1  0
  8 36  1  0
 10 37  1  0
 11 38  1  0
 12 39  1  0
 13 40  1  0
 16 41  1  0
 16 42  1  0
 18 43  1  0
 18 44  1  0
 19 45  1  0
 19 46  1  0
 19 47  1  0
 20 48  1  0
 20 49  1  0
 21 50  1  0
 21 51  1  0
 21 52  1  0
 22 53  1  0
 25 54  1  0
 25 55  1  0
 25 56  1  0
 30 57  1  0
 31 58  1  0
 34 59  1  0
 34 60  1  0
A    1
N3
A    2
C4
A    3
C6
A    4
C7
A    5
C8
A    6
C10
A    7
C15
A    8
C17
A    9
C22
A   10
C24
A   11
C26
A   12
N38
A   13
C23
A   14
C25
A   15
O28
A   16
C29
A   17
N30
A   18
C32
A   19
C33
A   20
C31
A   21
C34
A   22
C27
A   23
N5
A   24
N9
A   25
C37
A   26
O34
A   27
N11
A   28
C14
A   29
CL36
A   30
C16
A   31
C18
A   32
C19
A   33
CL35
A   34
C12
M  END
