3FSK_RO6_A_450
     RDKit          3D

 46 49  0  0  0  0  0  0  0  0999 V2000
   23.5360    8.4010   31.7410 C   0  0  0  0  0  0  0  0  0  0  0  0
   23.2670    9.6410   32.0740 N   0  0  0  0  0  0  0  0  0  0  0  0
   22.0190   10.1650   31.7380 C   0  0  0  0  0  0  0  0  0  0  0  0
   21.7980   11.5240   32.1670 N   0  0  0  0  0  0  0  0  0  0  0  0
   20.5680   12.2030   31.9400 C   0  0  0  0  0  0  0  0  0  0  0  0
   20.4230   13.3380   32.3460 O   0  0  0  0  0  0  0  0  0  0  0  0
   19.5240   11.4630   31.2390 N   0  0  0  0  0  0  0  0  0  0  0  0
   18.2200   12.0470   31.0050 C   0  0  0  0  0  0  0  0  0  0  0  0
   17.9570   12.9200   29.9340 C   0  0  0  0  0  0  0  0  0  0  0  0
   16.6380   13.4420   29.7840 C   0  0  0  0  0  0  0  0  0  0  0  0
   15.6070   13.0990   30.6930 C   0  0  0  0  0  0  0  0  0  0  0  0
   15.8630   12.2250   31.7710 C   0  0  0  0  0  0  0  0  0  0  0  0
   17.1660   11.6960   31.9340 C   0  0  0  0  0  0  0  0  0  0  0  0
   17.4820   10.6110   33.2750 Cl  0  0  0  0  0  0  0  0  0  0  0  0
   19.7060   10.0630   30.7520 C   0  0  0  0  0  0  0  0  0  0  0  0
   21.0470    9.4840   31.0760 C   0  0  0  0  0  0  0  0  0  0  0  0
   22.6210    7.5830   31.0500 N   0  0  0  0  0  0  0  0  0  0  0  0
   21.2840    8.0630   30.6510 C   0  0  0  0  0  0  0  0  0  0  0  0
   24.7520    7.7960   32.0420 N   0  0  0  0  0  0  0  0  0  0  0  0
   25.8130    8.5310   32.7450 C   0  0  0  0  0  0  0  0  0  0  0  0
   26.9150    8.9120   31.7240 C   0  0  0  0  0  0  0  0  0  0  0  0
   28.0510    9.6910   32.4280 C   0  0  0  0  0  0  0  0  0  0  0  0
   28.6460    8.8690   33.6000 C   0  0  0  0  0  0  0  0  0  0  0  0
   29.6710    9.6050   34.2470 O   0  0  0  0  0  0  0  0  0  0  0  0
   27.5450    8.4590   34.6270 C   0  0  0  0  0  0  0  0  0  0  0  0
   26.4110    7.6710   33.9060 C   0  0  0  0  0  0  0  0  0  0  0  0
   22.5571   12.0207   32.6549 H   0  0  0  0  0  0  0  0  0  0  0  0
   18.7528   13.1948   29.2260 H   0  0  0  0  0  0  0  0  0  0  0  0
   16.4177   14.1225   28.9483 H   0  0  0  0  0  0  0  0  0  0  0  0
   14.5987   13.5173   30.5574 H   0  0  0  0  0  0  0  0  0  0  0  0
   15.0610   11.9584   32.4751 H   0  0  0  0  0  0  0  0  0  0  0  0
   18.9337    9.4310   31.2147 H   0  0  0  0  0  0  0  0  0  0  0  0
   19.6237   10.0904   29.6554 H   0  0  0  0  0  0  0  0  0  0  0  0
   20.5482    7.4526   30.1069 H   0  0  0  0  0  0  0  0  0  0  0  0
   24.9115    6.8162   31.7675 H   0  0  0  0  0  0  0  0  0  0  0  0
   25.3916    9.4432   33.1926 H   0  0  0  0  0  0  0  0  0  0  0  0
   27.3267    7.9959   31.2754 H   0  0  0  0  0  0  0  0  0  0  0  0
   26.4748    9.5486   30.9424 H   0  0  0  0  0  0  0  0  0  0  0  0
   28.8462    9.9047   31.6986 H   0  0  0  0  0  0  0  0  0  0  0  0
   27.6362   10.6264   32.8316 H   0  0  0  0  0  0  0  0  0  0  0  0
   29.0755    7.9475   33.1801 H   0  0  0  0  0  0  0  0  0  0  0  0
   29.5636    9.5279   35.2281 H   0  0  0  0  0  0  0  0  0  0  0  0
   27.9918    7.8236   35.4059 H   0  0  0  0  0  0  0  0  0  0  0  0
   27.1210    9.3657   35.0832 H   0  0  0  0  0  0  0  0  0  0  0  0
   25.6168    7.4333   34.6290 H   0  0  0  0  0  0  0  0  0  0  0  0
   26.8273    6.7424   33.4884 H   0  0  0  0  0  0  0  0  0  0  0  0
 17  1  1  0
  1 19  1  0
  1  2  2  0
  3  2  1  0
 16  3  2  0
  3  4  1  0
  5  4  1  0
  7  5  1  0
  5  6  2  0
 15  7  1  0
  8  7  1  0
  9  8  2  0
  8 13  1  0
 10  9  1  0
 10 11  2  0
 11 12  1  0
 12 13  2  0
 13 14  1  0
 15 16  1  0
 18 16  1  0
 18 17  2  0
 19 20  1  0
 21 20  1  0
 20 26  1  0
 21 22  1  0
 22 23  1  0
 23 24  1  0
 23 25  1  0
 26 25  1  0
  4 27  1  0
  9 28  1  0
 10 29  1  0
 11 30  1  0
 12 31  1  0
 15 32  1  0
 15 33  1  0
 18 34  1  0
 19 35  1  0
 20 36  1  0
 21 37  1  0
 21 38  1  0
 22 39  1  0
 22 40  1  0
 23 41  1  0
 24 42  1  0
 25 43  1  0
 25 44  1  0
 26 45  1  0
 26 46  1  0
A    1
C1
A    2
N11
A    3
C12
A    4
N15
A    5
C16
A    6
O19
A    7
N17
A    8
C20
A    9
C21
A   10
C22
A   11
C23
A   12
C24
A   13
C25
A   14
CL26
A   15
C18
A   16
C14
A   17
N10
A   18
C13
A   19
N2
A   20
C3
A   21
C4
A   22
C5
A   23
C6
A   24
O9
A   25
C7
A   26
C8
M  END
