3FT8_MOJ_A_237
     RDKit          3D

 45 48  0  0  0  0  0  0  0  0999 V2000
    8.3260   10.2340   22.3600 F   0  0  0  0  0  0  0  0  0  0  0  0
    7.1430   10.3840   22.9920 C   0  0  0  0  0  0  0  0  0  0  0  0
    6.8600   11.5880   23.6500 C   0  0  0  0  0  0  0  0  0  0  0  0
    5.6620   11.8060   24.3170 C   0  0  0  0  0  0  0  0  0  0  0  0
    5.4690   13.1210   25.0240 C   0  0  0  0  0  0  0  0  0  0  0  0
    6.4780   13.5900   25.8690 C   0  0  0  0  0  0  0  0  0  0  0  0
    6.3380   14.7650   26.4970 N   0  0  0  0  0  0  0  0  0  0  0  0
    5.2340   15.5240   26.3250 C   0  0  0  0  0  0  0  0  0  0  0  0
    4.2030   15.1320   25.4920 C   0  0  0  0  0  0  0  0  0  0  0  0
    4.3300   13.8980   24.8410 C   0  0  0  0  0  0  0  0  0  0  0  0
    6.2090    9.3620   22.9690 C   0  0  0  0  0  0  0  0  0  0  0  0
    4.9790    9.5180   23.6320 C   0  0  0  0  0  0  0  0  0  0  0  0
    4.6640   10.7000   24.3170 C   0  0  0  0  0  0  0  0  0  0  0  0
    3.3520   10.8200   25.0090 C   0  0  0  0  0  0  0  0  0  0  0  0
    3.2900    9.6380   25.9780 C   0  0  0  0  0  0  0  0  0  0  0  0
    1.9180    9.4860   26.6280 C   0  0  0  0  0  0  0  0  0  0  0  0
    1.8130    8.7360   27.6370 N   0  0  0  0  0  0  0  0  0  0  0  0
    2.9330    8.1470   28.2360 O   0  0  0  0  0  0  0  0  0  0  0  0
    0.6880   10.1230   26.0110 C   0  0  0  0  0  0  0  0  0  0  0  0
    2.1850   10.7750   24.0050 C   0  0  0  0  0  0  0  0  0  0  0  0
    0.8350   10.7550   24.6940 C   0  0  0  0  0  0  0  0  0  0  0  0
   -0.2430   11.3250   24.1240 N   0  0  0  0  0  0  0  0  0  0  0  0
   -1.4580   11.2810   24.7170 C   0  0  0  0  0  0  0  0  0  0  0  0
   -2.5010   11.8300   24.0650 N   0  0  0  0  0  0  0  0  0  0  0  0
   -1.6590   10.7360   25.9440 N   0  0  0  0  0  0  0  0  0  0  0  0
   -0.6500   10.1520   26.6400 C   0  0  0  0  0  0  0  0  0  0  0  0
   -0.9440    9.5570   27.9910 C   0  0  0  0  0  0  0  0  0  0  0  0
    7.6137   12.3891   23.6378 H   0  0  0  0  0  0  0  0  0  0  0  0
    7.3896   12.9929   26.0190 H   0  0  0  0  0  0  0  0  0  0  0  0
    5.1532   16.4803   26.8626 H   0  0  0  0  0  0  0  0  0  0  0  0
    3.3157   15.7655   25.3457 H   0  0  0  0  0  0  0  0  0  0  0  0
    3.5248   13.5418   24.1817 H   0  0  0  0  0  0  0  0  0  0  0  0
    6.4294    8.4277   22.4318 H   0  0  0  0  0  0  0  0  0  0  0  0
    4.2487    8.6956   23.6129 H   0  0  0  0  0  0  0  0  0  0  0  0
    3.2612   11.7815   25.5357 H   0  0  0  0  0  0  0  0  0  0  0  0
    3.5223    8.7160   25.4249 H   0  0  0  0  0  0  0  0  0  0  0  0
    4.0204    9.8242   26.7792 H   0  0  0  0  0  0  0  0  0  0  0  0
    3.0043    8.1095   29.2227 H   0  0  0  0  0  0  0  0  0  0  0  0
    2.2395   11.6636   23.3590 H   0  0  0  0  0  0  0  0  0  0  0  0
    2.2788    9.8477   23.4207 H   0  0  0  0  0  0  0  0  0  0  0  0
   -3.2819   12.2410   24.5963 H   0  0  0  0  0  0  0  0  0  0  0  0
   -2.5177   11.8388   23.0352 H   0  0  0  0  0  0  0  0  0  0  0  0
   -0.6033   10.2466   28.7774 H   0  0  0  0  0  0  0  0  0  0  0  0
   -2.0270    9.3927   28.0915 H   0  0  0  0  0  0  0  0  0  0  0  0
   -0.4166    8.5969   28.0915 H   0  0  0  0  0  0  0  0  0  0  0  0
  1  2  1  0
 11  2  2  0
  2  3  1  0
  3  4  2  0
  4 13  1  0
  4  5  1  0
 10  5  1  0
  5  6  2  0
  6  7  1  0
  8  7  2  0
  9  8  1  0
 10  9  2  0
 11 12  1  0
 12 13  2  0
 13 14  1  0
 20 14  1  0
 14 15  1  0
 15 16  1  0
 19 16  1  0
 16 17  2  0
 17 18  1  0
 21 19  2  0
 19 26  1  0
 20 21  1  0
 22 21  1  0
 22 23  2  0
 24 23  1  0
 23 25  1  0
 25 26  2  0
 26 27  1  0
  3 28  1  0
  6 29  1  0
  8 30  1  0
  9 31  1  0
 10 32  1  0
 11 33  1  0
 12 34  1  0
 14 35  1  0
 15 36  1  0
 15 37  1  0
 18 38  1  0
 20 39  1  0
 20 40  1  0
 24 41  1  0
 24 42  1  0
 27 43  1  0
 27 44  1  0
 27 45  1  0
A    1
F23
A    2
C14
A    3
C13
A    4
C12
A    5
C17
A    6
C22
A    7
N21
A    8
C20
A    9
C19
A   10
C18
A   11
C15
A   12
C16
A   13
C11
A   14
C9
A   15
C8
A   16
C7
A   17
N24
A   18
O25
A   19
C2
A   20
C10
A   21
C3
A   22
N4
A   23
C5
A   24
N27
A   25
N6
A   26
C1
A   27
C26
M  END
