3FTU_RE2_A_710
     RDKit          3D

 31 32  0  0  0  0  0  0  0  0999 V2000
   22.4510   -2.8540   -4.4560 C   0  0  0  0  0  0  0  0  0  0  0  0
   22.1970   -1.7950   -5.3160 C   0  0  0  0  0  0  0  0  0  0  0  0
   22.7080   -0.5380   -5.0300 C   0  0  0  0  0  0  0  0  0  0  0  0
   25.2740    0.1880   -1.6330 C   0  0  0  0  0  0  0  0  0  0  0  0
   24.5630   -1.1840   -1.7440 C   0  0  0  0  0  0  0  0  0  0  0  0
   23.4660   -0.3490   -3.8850 C   0  0  0  0  0  0  0  0  0  0  0  0
   23.7110   -1.3940   -3.0030 C   0  0  0  0  0  0  0  0  0  0  0  0
   23.1920   -2.6480   -3.2970 C   0  0  0  0  0  0  0  0  0  0  0  0
   22.4690    0.5210   -5.8800 O   0  0  0  0  0  0  0  0  0  0  0  0
   21.9240   -4.0800   -4.7300 O   0  0  0  0  0  0  0  0  0  0  0  0
   26.3430    0.0110   -0.5700 C   0  0  0  0  0  0  0  0  0  0  0  0
   26.0100   -0.2870    0.7480 C   0  0  0  0  0  0  0  0  0  0  0  0
   27.0200   -0.4690    1.7060 C   0  0  0  0  0  0  0  0  0  0  0  0
   28.3740   -0.3470    1.3620 C   0  0  0  0  0  0  0  0  0  0  0  0
   29.3840   -0.5230    2.3020 O   0  0  0  0  0  0  0  0  0  0  0  0
   28.6920   -0.0350    0.0490 C   0  0  0  0  0  0  0  0  0  0  0  0
   27.6790    0.1520   -0.9140 C   0  0  0  0  0  0  0  0  0  0  0  0
   21.5924   -1.9521   -6.2214 H   0  0  0  0  0  0  0  0  0  0  0  0
   25.7313    0.4621   -2.5951 H   0  0  0  0  0  0  0  0  0  0  0  0
   24.5692    0.9908   -1.3707 H   0  0  0  0  0  0  0  0  0  0  0  0
   25.3353   -1.9671   -1.7245 H   0  0  0  0  0  0  0  0  0  0  0  0
   23.8616   -1.2267   -0.8977 H   0  0  0  0  0  0  0  0  0  0  0  0
   23.8812    0.6468   -3.6708 H   0  0  0  0  0  0  0  0  0  0  0  0
   23.3685   -3.4862   -2.6069 H   0  0  0  0  0  0  0  0  0  0  0  0
   22.2668    1.4168   -5.5101 H   0  0  0  0  0  0  0  0  0  0  0  0
   21.6644   -4.6839   -3.9897 H   0  0  0  0  0  0  0  0  0  0  0  0
   24.9535   -0.3801    1.0397 H   0  0  0  0  0  0  0  0  0  0  0  0
   26.7448   -0.7112    2.7431 H   0  0  0  0  0  0  0  0  0  0  0  0
   29.1726   -0.4862    3.2685 H   0  0  0  0  0  0  0  0  0  0  0  0
   29.7470    0.0679   -0.2450 H   0  0  0  0  0  0  0  0  0  0  0  0
   27.9510    0.4121   -1.9476 H   0  0  0  0  0  0  0  0  0  0  0  0
  2  1  2  0
 10  1  1  0
  1  8  1  0
  2  3  1  0
  9  3  1  0
  3  6  2  0
  5  4  1  0
  4 11  1  0
  7  5  1  0
  6  7  1  0
  8  7  2  0
 17 11  1  0
 11 12  2  0
 12 13  1  0
 14 13  2  0
 16 14  1  0
 14 15  1  0
 17 16  2  0
  2 18  1  0
  4 19  1  0
  4 20  1  0
  5 21  1  0
  5 22  1  0
  6 23  1  0
  8 24  1  0
  9 25  1  0
 10 26  1  0
 12 27  1  0
 13 28  1  0
 15 29  1  0
 16 30  1  0
 17 31  1  0
A    1
C2
A    2
C3
A    3
C4
A    4
C8
A    5
C7
A    6
C5
A    7
C6
A    8
C1
A    9
O17
A   10
O16
A   11
C9
A   12
C14
A   13
C13
A   14
C12
A   15
O15
A   16
C11
A   17
C10
M  END
