3EJ0_11X_A_176
     RDKit          3D

 26 27  0  0  0  0  0  0  0  0999 V2000
   11.7460  -23.2570  -29.0760 N   0  0  0  0  0  0  0  0  0  0  0  0
    5.1910  -23.8870  -27.4260 C   0  0  0  0  0  0  0  0  0  0  0  0
    3.9830  -23.2190  -27.3530 C   0  0  0  0  0  0  0  0  0  0  0  0
    5.9740  -23.7960  -28.5660 C   0  0  0  0  0  0  0  0  0  0  0  0
    5.5670  -23.0270  -29.6430 C   0  0  0  0  0  0  0  0  0  0  0  0
    3.5710  -22.4630  -28.4370 C   0  0  0  0  0  0  0  0  0  0  0  0
    4.3560  -22.3600  -29.5800 C   0  0  0  0  0  0  0  0  0  0  0  0
   10.6070  -23.6860  -29.6590 C   0  0  0  0  0  0  0  0  0  0  0  0
    9.3430  -23.0960  -27.7070 C   0  0  0  0  0  0  0  0  0  0  0  0
   10.5330  -22.6630  -27.1370 C   0  0  0  0  0  0  0  0  0  0  0  0
   11.7290  -22.7530  -27.8390 C   0  0  0  0  0  0  0  0  0  0  0  0
    8.1170  -24.0920  -29.6560 C   0  0  0  0  0  0  0  0  0  0  0  0
    9.3870  -23.6100  -28.9920 C   0  0  0  0  0  0  0  0  0  0  0  0
    7.1490  -24.4480  -28.6280 N   0  0  0  0  0  0  0  0  0  0  0  0
    5.5327  -24.4941  -26.5747 H   0  0  0  0  0  0  0  0  0  0  0  0
    3.3598  -23.2870  -26.4491 H   0  0  0  0  0  0  0  0  0  0  0  0
    6.1996  -22.9470  -30.5394 H   0  0  0  0  0  0  0  0  0  0  0  0
    2.6069  -21.9352  -28.3934 H   0  0  0  0  0  0  0  0  0  0  0  0
    4.0160  -21.7510  -30.4306 H   0  0  0  0  0  0  0  0  0  0  0  0
   10.6429  -24.1021  -30.6766 H   0  0  0  0  0  0  0  0  0  0  0  0
    8.3940  -23.0326  -27.1543 H   0  0  0  0  0  0  0  0  0  0  0  0
   10.5289  -22.2446  -26.1197 H   0  0  0  0  0  0  0  0  0  0  0  0
   12.6646  -22.4081  -27.3746 H   0  0  0  0  0  0  0  0  0  0  0  0
    7.7053  -23.2919  -30.2887 H   0  0  0  0  0  0  0  0  0  0  0  0
    8.3352  -24.9707  -30.2807 H   0  0  0  0  0  0  0  0  0  0  0  0
    7.3629  -25.1951  -27.9519 H   0  0  0  0  0  0  0  0  0  0  0  0
  1  8  2  0
  1 11  1  0
  2  3  2  0
  2  4  1  0
  3  6  1  0
  4  5  2  0
  4 14  1  0
  5  7  1  0
  6  7  2  0
  8 13  1  0
  9 10  1  0
  9 13  2  0
 10 11  2  0
 12 13  1  0
 12 14  1  0
  2 15  1  0
  3 16  1  0
  5 17  1  0
  6 18  1  0
  7 19  1  0
  8 20  1  0
  9 21  1  0
 10 22  1  0
 11 23  1  0
 12 24  1  0
 12 25  1  0
 14 26  1  0
A    1
N1
A    2
C10
A    3
C11
A    4
C9
A    5
C14
A    6
C12
A    7
C13
A    8
C2
A    9
C4
A   10
C5
A   11
C6
A   12
C7
A   13
C3
A   14
N8
M  END
