3FU0_22F_A_710
     RDKit          3D

 23 24  0  0  0  0  0  0  0  0999 V2000
   29.6910   -0.7530    1.3560 F   0  0  0  0  0  0  0  0  0  0  0  0
   28.5660   -0.6370    0.6190 C   0  0  0  0  0  0  0  0  0  0  0  0
   28.5360   -0.0180   -0.6350 C   0  0  0  0  0  0  0  0  0  0  0  0
   27.3520    0.0850   -1.3830 C   0  0  0  0  0  0  0  0  0  0  0  0
   27.3950   -1.1530    1.1220 C   0  0  0  0  0  0  0  0  0  0  0  0
   26.2330   -1.0510    0.3660 C   0  0  0  0  0  0  0  0  0  0  0  0
   26.1810   -0.4690   -0.8880 C   0  0  0  0  0  0  0  0  0  0  0  0
   24.8210   -0.4170   -1.5570 C   0  0  0  0  0  0  0  0  0  0  0  0
   24.0040    0.2620   -0.9700 O   0  0  0  0  0  0  0  0  0  0  0  0
   24.2950   -1.1060   -2.8090 C   0  0  0  0  0  0  0  0  0  0  0  0
   23.9340   -2.4480   -2.8180 C   0  0  0  0  0  0  0  0  0  0  0  0
   23.4180   -3.0300   -3.9750 C   0  0  0  0  0  0  0  0  0  0  0  0
   23.2340   -2.3150   -5.0910 N   0  0  0  0  0  0  0  0  0  0  0  0
   23.5400   -1.0170   -5.1120 C   0  0  0  0  0  0  0  0  0  0  0  0
   24.0580   -0.3890   -3.9770 C   0  0  0  0  0  0  0  0  0  0  0  0
   29.4664    0.4000   -1.0470 H   0  0  0  0  0  0  0  0  0  0  0  0
   27.3534    0.6013   -2.3543 H   0  0  0  0  0  0  0  0  0  0  0  0
   27.3780   -1.6395    2.1084 H   0  0  0  0  0  0  0  0  0  0  0  0
   25.3018   -1.4561    0.7889 H   0  0  0  0  0  0  0  0  0  0  0  0
   24.0560   -3.0538   -1.9080 H   0  0  0  0  0  0  0  0  0  0  0  0
   23.1569   -4.0985   -3.9704 H   0  0  0  0  0  0  0  0  0  0  0  0
   23.3829   -0.4353   -6.0323 H   0  0  0  0  0  0  0  0  0  0  0  0
   24.2816    0.6876   -4.0073 H   0  0  0  0  0  0  0  0  0  0  0  0
  2  1  1  0
  3  2  2  0
  2  5  1  0
  4  3  1  0
  4  7  2  0
  6  5  2  0
  7  6  1  0
  8  7  1  0
 10  8  1  0
  8  9  2  0
 15 10  1  0
 11 10  2  0
 12 11  1  0
 13 12  2  0
 14 13  1  0
 14 15  2  0
  3 16  1  0
  4 17  1  0
  5 18  1  0
  6 19  1  0
 11 20  1  0
 12 21  1  0
 14 22  1  0
 15 23  1  0
A    1
F15
A    2
C12
A    3
C11
A    4
C10
A    5
C13
A    6
C14
A    7
C9
A    8
C7
A    9
O8
A   10
C1
A   11
C6
A   12
C5
A   13
N4
A   14
C3
A   15
C2
M  END
