3FU5_492_A_710
     RDKit          3D

 21 22  0  0  0  0  0  0  0  0999 V2000
   34.3770    1.4710    1.6840 N   0  0  0  0  0  0  0  0  0  0  0  0
   34.2750    2.3060    0.4980 C   0  0  0  0  0  0  0  0  0  0  0  0
   33.0110    1.9750   -0.2540 C   0  0  0  0  0  0  0  0  0  0  0  0
   31.6320    1.4920    0.7720 S   0  0  0  0  0  0  0  0  0  0  0  0
   30.6100    1.2580   -0.6670 C   0  0  0  0  0  0  0  0  0  0  0  0
   31.3010    1.5490   -1.8430 C   0  0  0  0  0  0  0  0  0  0  0  0
   32.6370    1.9430   -1.6030 C   0  0  0  0  0  0  0  0  0  0  0  0
   29.1780    0.8230   -0.5700 C   0  0  0  0  0  0  0  0  0  0  0  0
   27.9840    0.9590   -1.8720 S   0  0  0  0  0  0  0  0  0  0  0  0
   26.6880    0.2600   -0.8360 C   0  0  0  0  0  0  0  0  0  0  0  0
   27.2530   -0.0370    0.4070 C   0  0  0  0  0  0  0  0  0  0  0  0
   28.6110    0.2650    0.5660 C   0  0  0  0  0  0  0  0  0  0  0  0
   34.3050    2.0601    2.5258 H   0  0  0  0  0  0  0  0  0  0  0  0
   33.6143    0.7787    1.6831 H   0  0  0  0  0  0  0  0  0  0  0  0
   34.2550    3.3643    0.7974 H   0  0  0  0  0  0  0  0  0  0  0  0
   35.1428    2.1203   -0.1519 H   0  0  0  0  0  0  0  0  0  0  0  0
   30.8555    1.4796   -2.8464 H   0  0  0  0  0  0  0  0  0  0  0  0
   33.3310    2.2049   -2.4152 H   0  0  0  0  0  0  0  0  0  0  0  0
   25.6404    0.0963   -1.1287 H   0  0  0  0  0  0  0  0  0  0  0  0
   26.6613   -0.4850    1.2189 H   0  0  0  0  0  0  0  0  0  0  0  0
   29.1698    0.0791    1.4951 H   0  0  0  0  0  0  0  0  0  0  0  0
  2  1  1  0
  3  2  1  0
  7  3  2  0
  3  4  1  0
  5  4  1  0
  6  5  2  0
  5  8  1  0
  6  7  1  0
  9  8  1  0
  8 12  2  0
  9 10  1  0
 10 11  2  0
 11 12  1  0
  1 13  1  0
  1 14  1  0
  2 15  1  0
  2 16  1  0
  6 17  1  0
  7 18  1  0
 10 19  1  0
 11 20  1  0
 12 21  1  0
A    1
N18
A    2
C17
A    3
C8
A    4
S7
A    5
C6
A    6
C10
A    7
C9
A    8
C1
A    9
S2
A   10
C3
A   11
C4
A   12
C5
M  END
