3FU7_3DM_A_3900
     RDKit          3D

 21 21  0  0  0  0  0  0  0  0999 V2000
  -16.5780   31.8570   20.5590 O   0  0  0  0  0  0  0  0  0  0  0  0
  -15.2850   31.7760   20.2070 C   0  0  0  0  0  0  0  0  0  0  0  0
  -14.9100   31.7940   18.7680 C   0  0  0  0  0  0  0  0  0  0  0  0
  -15.8850   31.8920   17.8140 O   0  0  0  0  0  0  0  0  0  0  0  0
  -16.1440   30.7960   16.9500 C   0  0  0  0  0  0  0  0  0  0  0  0
  -13.5670   31.7060   18.3920 C   0  0  0  0  0  0  0  0  0  0  0  0
  -12.5530   31.6070   19.3470 C   0  0  0  0  0  0  0  0  0  0  0  0
  -12.8540   31.5900   20.7120 C   0  0  0  0  0  0  0  0  0  0  0  0
  -14.1640   31.6710   21.1970 C   0  0  0  0  0  0  0  0  0  0  0  0
  -14.3130   31.6510   22.5720 O   0  0  0  0  0  0  0  0  0  0  0  0
  -15.5340   31.8030   23.2990 C   0  0  0  0  0  0  0  0  0  0  0  0
  -16.8304   31.8728   21.5162 H   0  0  0  0  0  0  0  0  0  0  0  0
  -16.3561   29.8985   17.5496 H   0  0  0  0  0  0  0  0  0  0  0  0
  -17.0124   31.0266   16.3154 H   0  0  0  0  0  0  0  0  0  0  0  0
  -15.2642   30.6135   16.3154 H   0  0  0  0  0  0  0  0  0  0  0  0
  -13.3037   31.7149   17.3240 H   0  0  0  0  0  0  0  0  0  0  0  0
  -11.5044   31.5416   19.0211 H   0  0  0  0  0  0  0  0  0  0  0  0
  -12.0278   31.5097   21.4338 H   0  0  0  0  0  0  0  0  0  0  0  0
  -15.3237   31.7768   24.3784 H   0  0  0  0  0  0  0  0  0  0  0  0
  -15.9981   32.7658   23.0391 H   0  0  0  0  0  0  0  0  0  0  0  0
  -16.2200   30.9833   23.0391 H   0  0  0  0  0  0  0  0  0  0  0  0
  2  1  1  0
  3  2  2  0
  2  9  1  0
  4  3  1  0
  6  3  1  0
  5  4  1  0
  6  7  2  0
  7  8  1  0
  8  9  2  0
  9 10  1  0
 10 11  1  0
  1 12  1  0
  5 13  1  0
  5 14  1  0
  5 15  1  0
  6 16  1  0
  7 17  1  0
  8 18  1  0
 11 19  1  0
 11 20  1  0
 11 21  1  0
A    1
O1
A    2
C1
A    3
C2
A    4
O2
A    5
C7
A    6
C3
A    7
C4
A    8
C5
A    9
C6
A   10
O3
A   11
C8
M  END
