3FU9_KIB_A_1001
     RDKit          3D

 22 22  0  0  0  0  0  0  0  0999 V2000
  -16.4060   31.3170   21.3590 O   0  0  0  0  0  0  0  0  0  0  0  0
  -15.1610   31.2550   21.1520 C   0  0  0  0  0  0  0  0  0  0  0  0
  -14.3080   31.2340   22.3280 C   0  0  0  0  0  0  0  0  0  0  0  0
  -14.9470   31.2640   23.5710 O   0  0  0  0  0  0  0  0  0  0  0  0
  -14.2430   31.0900   24.8060 C   0  0  0  0  0  0  0  0  0  0  0  0
  -12.9240   31.1580   22.1100 C   0  0  0  0  0  0  0  0  0  0  0  0
  -14.5260   31.2150   19.7900 C   0  0  0  0  0  0  0  0  0  0  0  0
  -15.3420   31.2390   18.6990 O   0  0  0  0  0  0  0  0  0  0  0  0
  -14.8550   31.0010   17.3750 C   0  0  0  0  0  0  0  0  0  0  0  0
  -13.1510   31.1580   19.6660 C   0  0  0  0  0  0  0  0  0  0  0  0
  -12.3560   31.1090   20.8180 C   0  0  0  0  0  0  0  0  0  0  0  0
  -11.0880   31.0420   20.6810 O   0  0  0  0  0  0  0  0  0  0  0  0
  -16.7534   31.3343   22.2859 H   0  0  0  0  0  0  0  0  0  0  0  0
  -14.9309   31.2600   25.6473 H   0  0  0  0  0  0  0  0  0  0  0  0
  -13.8442   30.0663   24.8596 H   0  0  0  0  0  0  0  0  0  0  0  0
  -13.4132   31.8101   24.8596 H   0  0  0  0  0  0  0  0  0  0  0  0
  -12.2535   31.1357   22.9818 H   0  0  0  0  0  0  0  0  0  0  0  0
  -13.8679   30.5186   17.4286 H   0  0  0  0  0  0  0  0  0  0  0  0
  -15.5557   30.3438   16.8392 H   0  0  0  0  0  0  0  0  0  0  0  0
  -14.7670   31.9576   16.8392 H   0  0  0  0  0  0  0  0  0  0  0  0
  -12.6843   31.1512   18.6699 H   0  0  0  0  0  0  0  0  0  0  0  0
  -10.5047   31.0112   21.4803 H   0  0  0  0  0  0  0  0  0  0  0  0
  2  1  1  0
  3  2  2  0
  2  7  1  0
  4  3  1  0
  6  3  1  0
  4  5  1  0
  6 11  2  0
 10  7  2  0
  7  8  1  0
  8  9  1  0
 11 10  1  0
 11 12  1  0
  1 13  1  0
  5 14  1  0
  5 15  1  0
  5 16  1  0
  6 17  1  0
  9 18  1  0
  9 19  1  0
  9 20  1  0
 10 21  1  0
 12 22  1  0
A    1
O1
A    2
C1
A    3
C6
A    4
O3
A    5
C7
A    6
C5
A    7
C2
A    8
O4
A    9
C8
A   10
C3
A   11
C4
A   12
O2
M  END
