1GW6_BES_A_1611
     RDKit          3D

 46 46  0  0  0  0  0  0  0  0999 V2000
   34.6100    1.4230    1.6300 N   0  0  0  0  0  0  0  0  0  0  0  0
   34.2170    2.8410    1.7180 C   0  0  0  0  0  0  0  0  0  0  0  0
   33.6920    3.3170    0.3490 C   0  0  0  0  0  0  0  0  0  0  0  0
   32.5340    2.4470   -0.1630 C   0  0  0  0  0  0  0  0  0  0  0  0
   32.6050    1.8810   -1.4530 C   0  0  0  0  0  0  0  0  0  0  0  0
   31.3930    2.2310    0.6380 C   0  0  0  0  0  0  0  0  0  0  0  0
   31.5350    1.1040   -1.9430 C   0  0  0  0  0  0  0  0  0  0  0  0
   30.3180    1.4520    0.1490 C   0  0  0  0  0  0  0  0  0  0  0  0
   30.3880    0.8880   -1.1470 C   0  0  0  0  0  0  0  0  0  0  0  0
   35.4130    3.6840    2.1880 C   0  0  0  0  0  0  0  0  0  0  0  0
   36.0110    3.0670    3.3200 O   0  0  0  0  0  0  0  0  0  0  0  0
   34.9570    5.0890    2.5590 C   0  0  0  0  0  0  0  0  0  0  0  0
   34.2660    5.2770    3.5510 O   0  0  0  0  0  0  0  0  0  0  0  0
   35.3910    6.0560    1.7480 N   0  0  0  0  0  0  0  0  0  0  0  0
   35.0480    7.4850    1.9210 C   0  0  0  0  0  0  0  0  0  0  0  0
   36.1920    8.2770    2.5890 C   0  0  0  0  0  0  0  0  0  0  0  0
   36.0900    8.2860    4.1260 C   0  0  0  0  0  0  0  0  0  0  0  0
   34.7360    8.8490    4.5850 C   0  0  0  0  0  0  0  0  0  0  0  0
   37.2170    9.1620    4.7100 C   0  0  0  0  0  0  0  0  0  0  0  0
   34.7780    8.1040    0.5570 C   0  0  0  0  0  0  0  0  0  0  0  0
   35.2600    7.5140   -0.4380 O   0  0  0  0  0  0  0  0  0  0  0  0
   34.1130    9.1610    0.5390 O   0  0  0  0  0  0  0  0  0  0  0  0
   34.7170    1.0369    2.5789 H   0  0  0  0  0  0  0  0  0  0  0  0
   33.8834    0.8960    1.1248 H   0  0  0  0  0  0  0  0  0  0  0  0
   33.4089    2.9611    2.4546 H   0  0  0  0  0  0  0  0  0  0  0  0
   33.3396    4.3545    0.4460 H   0  0  0  0  0  0  0  0  0  0  0  0
   34.5172    3.2404   -0.3743 H   0  0  0  0  0  0  0  0  0  0  0  0
   33.4956    2.0458   -2.0772 H   0  0  0  0  0  0  0  0  0  0  0  0
   31.3390    2.6694    1.6454 H   0  0  0  0  0  0  0  0  0  0  0  0
   31.5937    0.6641   -2.9495 H   0  0  0  0  0  0  0  0  0  0  0  0
   29.4292    1.2850    0.7752 H   0  0  0  0  0  0  0  0  0  0  0  0
   29.5533    0.2843   -1.5328 H   0  0  0  0  0  0  0  0  0  0  0  0
   36.1450    3.7510    1.3697 H   0  0  0  0  0  0  0  0  0  0  0  0
   35.6324    3.4576    4.1472 H   0  0  0  0  0  0  0  0  0  0  0  0
   35.9980    5.7932    0.9584 H   0  0  0  0  0  0  0  0  0  0  0  0
   34.1602    7.5362    2.5685 H   0  0  0  0  0  0  0  0  0  0  0  0
   37.1506    7.8198    2.3026 H   0  0  0  0  0  0  0  0  0  0  0  0
   36.1197    9.3193    2.2450 H   0  0  0  0  0  0  0  0  0  0  0  0
   36.1840    7.2500    4.4835 H   0  0  0  0  0  0  0  0  0  0  0  0
   34.6990    8.8644    5.6843 H   0  0  0  0  0  0  0  0  0  0  0  0
   34.6147    9.8721    4.1997 H   0  0  0  0  0  0  0  0  0  0  0  0
   33.9250    8.2135    4.1997 H   0  0  0  0  0  0  0  0  0  0  0  0
   37.1749    9.1293    5.8087 H   0  0  0  0  0  0  0  0  0  0  0  0
   38.1912    8.7816    4.3689 H   0  0  0  0  0  0  0  0  0  0  0  0
   37.0888   10.1999    4.3689 H   0  0  0  0  0  0  0  0  0  0  0  0
   35.8811    6.7538   -0.3098 H   0  0  0  0  0  0  0  0  0  0  0  0
  1  2  1  0
  2  3  1  0
  2 10  1  0
  3  4  1  0
  4  5  2  0
  4  6  1  0
  5  7  1  0
  6  8  2  0
  7  9  2  0
  8  9  1  0
 10 11  1  0
 10 12  1  0
 12 13  2  0
 12 14  1  0
 14 15  1  0
 15 16  1  0
 15 20  1  0
 16 17  1  0
 17 18  1  0
 17 19  1  0
 20 21  1  0
 20 22  2  0
  1 23  1  0
  1 24  1  0
  2 25  1  0
  3 26  1  0
  3 27  1  0
  5 28  1  0
  6 29  1  0
  7 30  1  0
  8 31  1  0
  9 32  1  0
 10 33  1  0
 11 34  1  0
 14 35  1  0
 15 36  1  0
 16 37  1  0
 16 38  1  0
 17 39  1  0
 18 40  1  0
 18 41  1  0
 18 42  1  0
 19 43  1  0
 19 44  1  0
 19 45  1  0
 21 46  1  0
A    1
N2
A    2
C1
A    3
C6
A    4
C7
A    5
C8
A    6
C12
A    7
C9
A    8
C11
A    9
C10
A   10
C2
A   11
O2
A   12
C3
A   13
O3
A   14
N1
A   15
C4
A   16
C13
A   17
C14
A   18
C15
A   19
C16
A   20
C5
A   21
O1
A   22
O4
M  END
