3FUE_11S_A_710
     RDKit          3D

 16 17  0  0  0  0  0  0  0  0999 V2000
   22.4820   -3.0260   -5.5770 C   0  0  0  0  0  0  0  0  0  0  0  0
   22.8700   -3.2290   -4.2550 C   0  0  0  0  0  0  0  0  0  0  0  0
   24.3200    0.0370   -4.8090 C   0  0  0  0  0  0  0  0  0  0  0  0
   24.9350    0.3370   -3.6040 C   0  0  0  0  0  0  0  0  0  0  0  0
   24.8990   -0.5280   -2.5340 C   0  0  0  0  0  0  0  0  0  0  0  0
   24.2210   -1.7530   -2.6250 C   0  0  0  0  0  0  0  0  0  0  0  0
   23.6020   -2.0660   -3.8510 C   0  0  0  0  0  0  0  0  0  0  0  0
   23.6500   -1.1810   -4.9230 C   0  0  0  0  0  0  0  0  0  0  0  0
   25.7670    0.1420   -1.1100 Cl  0  0  0  0  0  0  0  0  0  0  0  0
   22.9650   -1.7820   -5.9480 N   0  0  0  0  0  0  0  0  0  0  0  0
   21.9037   -3.7196   -6.2052 H   0  0  0  0  0  0  0  0  0  0  0  0
   22.6552   -4.1142   -3.6383 H   0  0  0  0  0  0  0  0  0  0  0  0
   24.3592    0.7409   -5.6534 H   0  0  0  0  0  0  0  0  0  0  0  0
   25.4673    1.2940   -3.4996 H   0  0  0  0  0  0  0  0  0  0  0  0
   24.1745   -2.4437   -1.7702 H   0  0  0  0  0  0  0  0  0  0  0  0
   22.8270   -1.3608   -6.8777 H   0  0  0  0  0  0  0  0  0  0  0  0
 10  1  1  0
  1  2  2  0
  2  7  1  0
  8  3  2  0
  3  4  1  0
  4  5  2  0
  6  5  1  0
  5  9  1  0
  7  6  2  0
  8  7  1  0
 10  8  1  0
  1 11  1  0
  2 12  1  0
  3 13  1  0
  4 14  1  0
  6 15  1  0
 10 16  1  0
A    1
C8
A    2
C9
A    3
C1
A    4
C2
A    5
C3
A    6
C4
A    7
C5
A    8
C6
A    9
CL10
A   10
N7
M  END
