3FUI_812_A_710
     RDKit          3D

 43 45  0  0  0  0  0  0  0  0999 V2000
    4.8220   -2.2950   -1.0420 C   0  0  0  0  0  0  0  0  0  0  0  0
    5.7930   -1.6680   -1.9290 N   0  0  0  0  0  0  0  0  0  0  0  0
    5.4830   -3.5610   -0.5080 C   0  0  0  0  0  0  0  0  0  0  0  0
    6.9640   -3.3400   -0.7850 C   0  0  0  0  0  0  0  0  0  0  0  0
    6.9990   -2.4690   -2.0290 C   0  0  0  0  0  0  0  0  0  0  0  0
    8.3120   -1.7020   -2.2240 C   0  0  0  0  0  0  0  0  0  0  0  0
    8.6590   -0.7850   -1.1960 O   0  0  0  0  0  0  0  0  0  0  0  0
    9.9770   -0.6380   -0.7700 C   0  0  0  0  0  0  0  0  0  0  0  0
   11.0440   -0.8880   -1.6430 C   0  0  0  0  0  0  0  0  0  0  0  0
   12.3510   -0.7670   -1.1790 C   0  0  0  0  0  0  0  0  0  0  0  0
   12.6150   -0.3970    0.1560 C   0  0  0  0  0  0  0  0  0  0  0  0
   11.5380   -0.1390    1.0060 C   0  0  0  0  0  0  0  0  0  0  0  0
   10.2270   -0.2510    0.5530 C   0  0  0  0  0  0  0  0  0  0  0  0
   13.9100   -0.2820    0.5850 N   0  0  0  0  0  0  0  0  0  0  0  0
   14.2820    0.2420    1.8950 C   0  0  0  0  0  0  0  0  0  0  0  0
   14.7580   -0.8630    2.8540 C   0  0  0  0  0  0  0  0  0  0  0  0
   15.1470   -0.5440    4.1590 C   0  0  0  0  0  0  0  0  0  0  0  0
   15.5790   -1.5280    5.0390 C   0  0  0  0  0  0  0  0  0  0  0  0
   15.6360   -2.8400    4.6190 C   0  0  0  0  0  0  0  0  0  0  0  0
   15.2540   -3.1770    3.3250 C   0  0  0  0  0  0  0  0  0  0  0  0
   14.8240   -2.2010    2.4390 C   0  0  0  0  0  0  0  0  0  0  0  0
    4.5713   -1.6176   -0.2124 H   0  0  0  0  0  0  0  0  0  0  0  0
    3.8871   -2.5265   -1.5733 H   0  0  0  0  0  0  0  0  0  0  0  0
    5.3772   -1.5667   -2.8659 H   0  0  0  0  0  0  0  0  0  0  0  0
    5.2985   -3.6748    0.5704 H   0  0  0  0  0  0  0  0  0  0  0  0
    5.0935   -4.4759   -0.9783 H   0  0  0  0  0  0  0  0  0  0  0  0
    7.4444   -2.8269    0.0612 H   0  0  0  0  0  0  0  0  0  0  0  0
    7.5066   -4.2866   -0.9249 H   0  0  0  0  0  0  0  0  0  0  0  0
    6.9961   -3.0550   -2.9599 H   0  0  0  0  0  0  0  0  0  0  0  0
    9.1237   -2.4401   -2.3039 H   0  0  0  0  0  0  0  0  0  0  0  0
    8.1661   -1.0916   -3.1274 H   0  0  0  0  0  0  0  0  0  0  0  0
   10.8506   -1.1775   -2.6864 H   0  0  0  0  0  0  0  0  0  0  0  0
   13.1896   -0.9628   -1.8634 H   0  0  0  0  0  0  0  0  0  0  0  0
   11.7283    0.1569    2.0482 H   0  0  0  0  0  0  0  0  0  0  0  0
    9.3888   -0.0361    1.2322 H   0  0  0  0  0  0  0  0  0  0  0  0
   14.6624   -0.5816   -0.0514 H   0  0  0  0  0  0  0  0  0  0  0  0
   15.0946    0.9721    1.7659 H   0  0  0  0  0  0  0  0  0  0  0  0
   13.3886    0.7078    2.3364 H   0  0  0  0  0  0  0  0  0  0  0  0
   15.1102    0.5031    4.4939 H   0  0  0  0  0  0  0  0  0  0  0  0
   15.8739   -1.2621    6.0648 H   0  0  0  0  0  0  0  0  0  0  0  0
   15.9846   -3.6223    5.3093 H   0  0  0  0  0  0  0  0  0  0  0  0
   15.2933   -4.2276    3.0014 H   0  0  0  0  0  0  0  0  0  0  0  0
   14.5355   -2.4754    1.4136 H   0  0  0  0  0  0  0  0  0  0  0  0
  2  1  1  0
  1  3  1  0
  5  2  1  0
  4  3  1  0
  5  4  1  0
  6  5  1  0
  6  7  1  0
  7  8  1  0
  9  8  2  0
  8 13  1  0
  9 10  1  0
 10 11  2  0
 11 14  1  0
 11 12  1  0
 13 12  2  0
 14 15  1  0
 15 16  1  0
 21 16  1  0
 16 17  2  0
 17 18  1  0
 19 18  2  0
 20 19  1  0
 21 20  2  0
  1 22  1  0
  1 23  1  0
  2 24  1  0
  3 25  1  0
  3 26  1  0
  4 27  1  0
  4 28  1  0
  5 29  1  0
  6 30  1  0
  6 31  1  0
  9 32  1  0
 10 33  1  0
 12 34  1  0
 13 35  1  0
 14 36  1  0
 15 37  1  0
 15 38  1  0
 17 39  1  0
 18 40  1  0
 19 41  1  0
 20 42  1  0
 21 43  1  0
A    1
C1S
A    2
N1T
A    3
C1R
A    4
C1Q
A    5
C1P
A    6
C1O
A    7
O1N
A    8
C1K
A    9
C1J
A   10
C1I
A   11
C1H
A   12
C1M
A   13
C1L
A   14
N1
A   15
C1G
A   16
C1C
A   17
C1D
A   18
C1E
A   19
C1F
A   20
C1A
A   21
C1B
M  END
