3FUM_80A_A_710
     RDKit          3D

 44 46  0  0  0  0  0  0  0  0999 V2000
  -27.1110   -0.3150   -1.5110 C   0  0  0  0  0  0  0  0  0  0  0  0
  -28.1710   -0.1470   -0.6170 C   0  0  0  0  0  0  0  0  0  0  0  0
  -27.9010    0.5350    0.5600 C   0  0  0  0  0  0  0  0  0  0  0  0
  -26.6120    1.0170    0.8040 C   0  0  0  0  0  0  0  0  0  0  0  0
  -25.5680    0.8570   -0.0960 C   0  0  0  0  0  0  0  0  0  0  0  0
  -25.8240    0.2040   -1.2730 C   0  0  0  0  0  0  0  0  0  0  0  0
  -24.6990   -0.0210   -2.2340 C   0  0  0  0  0  0  0  0  0  0  0  0
  -25.1410   -1.1170   -3.0620 O   0  0  0  0  0  0  0  0  0  0  0  0
  -24.1390    1.0830   -3.0920 C   0  0  0  0  0  0  0  0  0  0  0  0
  -23.7850    0.8120   -4.4140 C   0  0  0  0  0  0  0  0  0  0  0  0
  -23.2530    1.7700   -5.2400 C   0  0  0  0  0  0  0  0  0  0  0  0
  -23.0390    2.9810   -4.7410 N   0  0  0  0  0  0  0  0  0  0  0  0
  -23.3370    3.2930   -3.4720 C   0  0  0  0  0  0  0  0  0  0  0  0
  -23.8820    2.3530   -2.6040 C   0  0  0  0  0  0  0  0  0  0  0  0
  -28.8360    0.7540    1.5350 O   0  0  0  0  0  0  0  0  0  0  0  0
  -30.1870    0.9140    1.2060 C   0  0  0  0  0  0  0  0  0  0  0  0
  -30.8960    1.8310    2.1880 C   0  0  0  0  0  0  0  0  0  0  0  0
  -32.0240    2.3380    1.4070 N   0  0  0  0  0  0  0  0  0  0  0  0
  -33.3710    1.9340    1.7270 C   0  0  0  0  0  0  0  0  0  0  0  0
  -34.2220    2.7990    0.7780 C   0  0  0  0  0  0  0  0  0  0  0  0
  -33.3240    3.7760    0.0550 C   0  0  0  0  0  0  0  0  0  0  0  0
  -31.8980    3.2600    0.2810 C   0  0  0  0  0  0  0  0  0  0  0  0
  -27.2892   -0.8764   -2.4400 H   0  0  0  0  0  0  0  0  0  0  0  0
  -29.1753   -0.5383   -0.8368 H   0  0  0  0  0  0  0  0  0  0  0  0
  -26.4169    1.5452    1.7489 H   0  0  0  0  0  0  0  0  0  0  0  0
  -24.5631    1.2436    0.1292 H   0  0  0  0  0  0  0  0  0  0  0  0
  -23.8201   -0.1795   -1.5919 H   0  0  0  0  0  0  0  0  0  0  0  0
  -25.4424   -1.8644   -2.4869 H   0  0  0  0  0  0  0  0  0  0  0  0
  -23.9375   -0.2038   -4.8075 H   0  0  0  0  0  0  0  0  0  0  0  0
  -23.0103    1.5403   -6.2880 H   0  0  0  0  0  0  0  0  0  0  0  0
  -23.1465    4.3139   -3.1095 H   0  0  0  0  0  0  0  0  0  0  0  0
  -24.1030    2.6115   -1.5579 H   0  0  0  0  0  0  0  0  0  0  0  0
  -30.2601    1.3462    0.1971 H   0  0  0  0  0  0  0  0  0  0  0  0
  -30.6705   -0.0732    1.2460 H   0  0  0  0  0  0  0  0  0  0  0  0
  -31.2443    1.2730    3.0696 H   0  0  0  0  0  0  0  0  0  0  0  0
  -30.2485    2.6277    2.5829 H   0  0  0  0  0  0  0  0  0  0  0  0
  -33.5211    0.8626    1.5280 H   0  0  0  0  0  0  0  0  0  0  0  0
  -33.6263    2.0718    2.7881 H   0  0  0  0  0  0  0  0  0  0  0  0
  -34.7275    2.1527    0.0454 H   0  0  0  0  0  0  0  0  0  0  0  0
  -34.9763    3.3507    1.3581 H   0  0  0  0  0  0  0  0  0  0  0  0
  -33.5611    3.7948   -1.0190 H   0  0  0  0  0  0  0  0  0  0  0  0
  -33.4519    4.8030    0.4277 H   0  0  0  0  0  0  0  0  0  0  0  0
  -31.2183    4.0884    0.5294 H   0  0  0  0  0  0  0  0  0  0  0  0
  -31.4783    2.7770   -0.6137 H   0  0  0  0  0  0  0  0  0  0  0  0
  1  6  2  0
  1  2  1  0
  2  3  2  0
  3  4  1  0
  3 15  1  0
  5  4  2  0
  6  5  1  0
  7  6  1  0
  9  7  1  0
  8  7  1  0
 10  9  2  0
  9 14  1  0
 11 10  1  0
 11 12  2  0
 12 13  1  0
 13 14  2  0
 16 15  1  0
 16 17  1  0
 18 17  1  0
 22 18  1  0
 18 19  1  0
 20 19  1  0
 21 20  1  0
 21 22  1  0
  1 23  1  0
  2 24  1  0
  4 25  1  0
  5 26  1  0
  7 27  1  0
  8 28  1  0
 10 29  1  0
 11 30  1  0
 13 31  1  0
 14 32  1  0
 16 33  1  0
 16 34  1  0
 17 35  1  0
 17 36  1  0
 19 37  1  0
 19 38  1  0
 20 39  1  0
 20 40  1  0
 21 41  1  0
 21 42  1  0
 22 43  1  0
 22 44  1  0
A    1
C1
A    2
C2
A    3
C3
A    4
C4
A    5
C5
A    6
C6
A    7
C7
A    8
O8
A    9
C9
A   10
C14
A   11
C13
A   12
N12
A   13
C11
A   14
C10
A   15
O15
A   16
C16
A   17
C17
A   18
N23
A   19
C19
A   20
C20
A   21
C21
A   22
C22
M  END
