3FUR_Z12_A_1
     RDKit          3D

 43 46  0  0  0  0  0  0  0  0999 V2000
    2.1080    5.0210   27.2770 Cl  0  0  0  0  0  0  0  0  0  0  0  0
    3.7200    4.9400   28.0550 C   0  0  0  0  0  0  0  0  0  0  0  0
    3.6880    4.9240   29.4520 C   0  0  0  0  0  0  0  0  0  0  0  0
    4.8650    4.8410   30.1890 C   0  0  0  0  0  0  0  0  0  0  0  0
    4.7320    4.8240   31.9820 Cl  0  0  0  0  0  0  0  0  0  0  0  0
    6.0920    4.7980   29.5130 C   0  0  0  0  0  0  0  0  0  0  0  0
    6.1210    4.8310   28.1070 C   0  0  0  0  0  0  0  0  0  0  0  0
    4.9390    4.8990   27.3460 C   0  0  0  0  0  0  0  0  0  0  0  0
    5.0330    4.8850   25.7120 S   0  0  0  0  0  0  0  0  0  0  0  0
    4.2050    3.8090   25.2180 O   0  0  0  0  0  0  0  0  0  0  0  0
    6.4030    4.6910   25.3230 O   0  0  0  0  0  0  0  0  0  0  0  0
    4.4560    6.2160   25.0500 N   0  0  0  0  0  0  0  0  0  0  0  0
    4.9750    7.4640   25.1130 C   0  0  0  0  0  0  0  0  0  0  0  0
    4.1680    8.4970   24.6460 C   0  0  0  0  0  0  0  0  0  0  0  0
    4.6280    9.7950   24.6660 C   0  0  0  0  0  0  0  0  0  0  0  0
    3.5620   11.0820   24.0410 Cl  0  0  0  0  0  0  0  0  0  0  0  0
    5.8880   10.0820   25.1740 C   0  0  0  0  0  0  0  0  0  0  0  0
    6.6860    9.0610   25.6370 C   0  0  0  0  0  0  0  0  0  0  0  0
    8.2940    9.4900   26.2750 Cl  0  0  0  0  0  0  0  0  0  0  0  0
    6.2420    7.7410   25.6070 C   0  0  0  0  0  0  0  0  0  0  0  0
    6.3780   11.3610   25.2170 O   0  0  0  0  0  0  0  0  0  0  0  0
    6.3470   12.1650   26.3470 C   0  0  0  0  0  0  0  0  0  0  0  0
    6.1810   11.6570   27.6440 C   0  0  0  0  0  0  0  0  0  0  0  0
    6.1820   12.5630   28.7240 C   0  0  0  0  0  0  0  0  0  0  0  0
    6.0270   12.1070   30.0290 C   0  0  0  0  0  0  0  0  0  0  0  0
    6.5120   13.5400   26.1820 C   0  0  0  0  0  0  0  0  0  0  0  0
    6.5030   14.3810   27.2240 N   0  0  0  0  0  0  0  0  0  0  0  0
    6.3420   13.9330   28.4850 C   0  0  0  0  0  0  0  0  0  0  0  0
    6.3440   14.8480   29.5370 C   0  0  0  0  0  0  0  0  0  0  0  0
    6.1800   14.3840   30.8330 C   0  0  0  0  0  0  0  0  0  0  0  0
    6.0270   13.0150   31.0820 C   0  0  0  0  0  0  0  0  0  0  0  0
    2.7216    4.9776   29.9746 H   0  0  0  0  0  0  0  0  0  0  0  0
    7.0318    4.7385   30.0816 H   0  0  0  0  0  0  0  0  0  0  0  0
    7.0913    4.8030   27.5896 H   0  0  0  0  0  0  0  0  0  0  0  0
    3.5847    6.1136   24.5103 H   0  0  0  0  0  0  0  0  0  0  0  0
    3.1616    8.2766   24.2605 H   0  0  0  0  0  0  0  0  0  0  0  0
    6.8878    6.9281   25.9704 H   0  0  0  0  0  0  0  0  0  0  0  0
    6.0531   10.5778   27.8142 H   0  0  0  0  0  0  0  0  0  0  0  0
    5.9049   11.0319   30.2272 H   0  0  0  0  0  0  0  0  0  0  0  0
    6.6533   13.9444   25.1689 H   0  0  0  0  0  0  0  0  0  0  0  0
    6.4738   15.9227   29.3414 H   0  0  0  0  0  0  0  0  0  0  0  0
    6.1700   15.0963   31.6712 H   0  0  0  0  0  0  0  0  0  0  0  0
    5.9063   12.6562   32.1148 H   0  0  0  0  0  0  0  0  0  0  0  0
  1  2  1  0
  2  3  2  0
  2  8  1  0
  3  4  1  0
  4  5  1  0
  4  6  2  0
  6  7  1  0
  7  8  2  0
  8  9  1  0
  9 10  2  0
  9 11  2  0
  9 12  1  0
 12 13  1  0
 13 14  2  0
 13 20  1  0
 14 15  1  0
 15 16  1  0
 15 17  2  0
 17 18  1  0
 17 21  1  0
 18 19  1  0
 18 20  2  0
 21 22  1  0
 22 23  2  0
 22 26  1  0
 23 24  1  0
 24 25  2  0
 24 28  1  0
 25 31  1  0
 26 27  2  0
 27 28  1  0
 28 29  2  0
 29 30  1  0
 30 31  2  0
  3 32  1  0
  6 33  1  0
  7 34  1  0
 12 35  1  0
 14 36  1  0
 20 37  1  0
 23 38  1  0
 25 39  1  0
 26 40  1  0
 29 41  1  0
 30 42  1  0
 31 43  1  0
A    1
CL32
A    2
C31
A    3
C30
A    4
C28
A    5
CL29
A    6
C27
A    7
C26
A    8
C25
A    9
S20
A   10
O21
A   11
O22
A   12
N23
A   13
C13
A   14
C14
A   15
C15
A   16
CL16
A   17
C17
A   18
C18
A   19
CL19
A   20
C12
A   21
O11
A   22
C8
A   23
C7
A   24
C6
A   25
C1
A   26
C9
A   27
N10
A   28
C5
A   29
C4
A   30
C3
A   31
C2
M  END
