3FVF_1JZ_B_1
     RDKit          3D

 23 23  0  0  0  0  0  0  0  0999 V2000
   10.2680   35.9920   -0.8710 C   0  0  0  0  0  0  0  0  0  0  0  0
   11.7830   35.9470    3.6720 C   0  0  0  0  0  0  0  0  0  0  0  0
   11.6480   34.5650    1.2880 C   0  0  0  0  0  0  0  0  0  0  0  0
   12.2120   33.9730    2.4040 C   0  0  0  0  0  0  0  0  0  0  0  0
   12.8770   34.0810    4.8140 C   0  0  0  0  0  0  0  0  0  0  0  0
   12.1100   34.1850    5.8230 O   0  0  0  0  0  0  0  0  0  0  0  0
   12.2920   34.6660    3.5950 C   0  0  0  0  0  0  0  0  0  0  0  0
   11.1210   35.8530    1.3560 C   0  0  0  0  0  0  0  0  0  0  0  0
   11.1840   36.5190    2.5520 C   0  0  0  0  0  0  0  0  0  0  0  0
   10.6110   36.5090    0.2940 N   0  0  0  0  0  0  0  0  0  0  0  0
   10.0060   34.6690   -0.8720 N   0  0  0  0  0  0  0  0  0  0  0  0
   10.0230   36.7210   -1.9580 N   0  0  0  0  0  0  0  0  0  0  0  0
   11.8501   36.5130    4.6128 H   0  0  0  0  0  0  0  0  0  0  0  0
   11.6153   34.0131    0.3371 H   0  0  0  0  0  0  0  0  0  0  0  0
   12.5986   32.9450    2.3419 H   0  0  0  0  0  0  0  0  0  0  0  0
   13.0772   33.0148    4.6320 H   0  0  0  0  0  0  0  0  0  0  0  0
   13.8005   34.6345    5.0391 H   0  0  0  0  0  0  0  0  0  0  0  0
   12.6448   34.1125    6.6529 H   0  0  0  0  0  0  0  0  0  0  0  0
   10.7520   37.5277    2.6293 H   0  0  0  0  0  0  0  0  0  0  0  0
   10.4742   37.5239    0.4039 H   0  0  0  0  0  0  0  0  0  0  0  0
    9.9058   34.1632    0.0196 H   0  0  0  0  0  0  0  0  0  0  0  0
    9.9061   34.1645   -1.7644 H   0  0  0  0  0  0  0  0  0  0  0  0
   10.2234   37.7313   -1.9564 H   0  0  0  0  0  0  0  0  0  0  0  0
 12  1  2  3
 11  1  1  0
  1 10  1  0
  9  2  2  0
  7  2  1  0
  3  8  2  0
  3  4  1  0
  4  7  2  0
  7  5  1  0
  5  6  1  0
 10  8  1  0
  8  9  1  0
  2 13  1  0
  3 14  1  0
  4 15  1  0
  5 16  1  0
  5 17  1  0
  6 18  1  0
  9 19  1  0
 10 20  1  0
 11 21  1  0
 11 22  1  0
 12 23  1  0
A    1
C10
A    2
C12
A    3
C8
A    4
C7
A    5
C5
A    6
O2
A    7
C6
A    8
C9
A    9
C11
A   10
N3
A   11
N4
A   12
N5
M  END
