3FVI_OSF_A_127
     RDKit          3D

 30 29  0  0  0  0  0  0  0  0999 V2000
   -6.7000   21.4040   12.1990 S   0  0  0  0  0  0  0  0  0  0  0  0
   -5.3660   22.2510   12.8220 O   0  0  0  0  0  0  0  0  0  0  0  0
   -7.8050   21.0680   13.4440 O   0  0  0  0  0  0  0  0  0  0  0  0
   -6.1720   19.9550   11.5090 O   0  0  0  0  0  0  0  0  0  0  0  0
   -7.4550   22.3490   11.0170 O   0  0  0  0  0  0  0  0  0  0  0  0
   -4.5060   22.5030   11.7520 C   0  0  0  0  0  0  0  0  0  0  0  0
   -3.2350   23.2420   12.1440 C   0  0  0  0  0  0  0  0  0  0  0  0
   -2.3980   22.4430   13.1560 C   0  0  0  0  0  0  0  0  0  0  0  0
   -1.0990   23.1990   13.4820 C   0  0  0  0  0  0  0  0  0  0  0  0
   -0.2670   23.3790   12.1890 C   0  0  0  0  0  0  0  0  0  0  0  0
    1.0470   24.1350   12.4220 C   0  0  0  0  0  0  0  0  0  0  0  0
    1.9560   23.4030   13.4050 C   0  0  0  0  0  0  0  0  0  0  0  0
    3.2420   24.1990   13.5940 C   0  0  0  0  0  0  0  0  0  0  0  0
   -4.2221   21.5404   11.3016 H   0  0  0  0  0  0  0  0  0  0  0  0
   -5.0502   23.1529   11.0509 H   0  0  0  0  0  0  0  0  0  0  0  0
   -2.6313   23.4154   11.2410 H   0  0  0  0  0  0  0  0  0  0  0  0
   -3.5244   24.1929   12.6153 H   0  0  0  0  0  0  0  0  0  0  0  0
   -2.9793   22.3038   14.0794 H   0  0  0  0  0  0  0  0  0  0  0  0
   -2.1455   21.4646   12.7213 H   0  0  0  0  0  0  0  0  0  0  0  0
   -1.3447   24.1863   13.9001 H   0  0  0  0  0  0  0  0  0  0  0  0
   -0.5152   22.6243   14.2161 H   0  0  0  0  0  0  0  0  0  0  0  0
   -0.0317   22.3844   11.7823 H   0  0  0  0  0  0  0  0  0  0  0  0
   -0.8707   23.9764   11.4899 H   0  0  0  0  0  0  0  0  0  0  0  0
    1.5726   24.2397   11.4614 H   0  0  0  0  0  0  0  0  0  0  0  0
    0.8039   25.1190   12.8493 H   0  0  0  0  0  0  0  0  0  0  0  0
    1.4428   23.2997   14.3724 H   0  0  0  0  0  0  0  0  0  0  0  0
    2.1963   22.4048   13.0101 H   0  0  0  0  0  0  0  0  0  0  0  0
    3.4420   24.3228   14.6686 H   0  0  0  0  0  0  0  0  0  0  0  0
    4.0787   23.6606   13.1249 H   0  0  0  0  0  0  0  0  0  0  0  0
    3.1333   25.1880   13.1249 H   0  0  0  0  0  0  0  0  0  0  0  0
  1  2  1  0
  1  3  2  0
  1  4  1  0
  1  5  2  0
  2  6  1  0
  6  7  1  0
  7  8  1  0
  8  9  1  0
  9 10  1  0
 10 11  1  0
 11 12  1  0
 12 13  1  0
  6 14  1  0
  6 15  1  0
  7 16  1  0
  7 17  1  0
  8 18  1  0
  8 19  1  0
  9 20  1  0
  9 21  1  0
 10 22  1  0
 10 23  1  0
 11 24  1  0
 11 25  1  0
 12 26  1  0
 12 27  1  0
 13 28  1  0
 13 29  1  0
 13 30  1  0
M  CHG  1   4  -1
A    1
S
A    2
O1
A    3
O2
A    4
O3
A    5
O4
A    6
C1
A    7
C2
A    8
C3
A    9
C4
A   10
C5
A   11
C6
A   12
C7
A   13
C8
M  END
