3FVN_9DX_A_1
     RDKit          3D

 36 37  0  0  0  0  0  0  0  0999 V2000
   -7.0560   17.7670   19.4970 O   0  0  0  0  0  0  0  0  0  0  0  0
   -7.7730   16.7380   19.4510 C   0  0  0  0  0  0  0  0  0  0  0  0
   -8.8810   16.6960   18.8790 O   0  0  0  0  0  0  0  0  0  0  0  0
   -7.2700   15.4580   20.1610 C   0  0  0  0  0  0  0  0  0  0  0  0
   -5.8130   15.1900   19.8510 C   0  0  0  0  0  0  0  0  0  0  0  0
   -5.4930   15.1160   18.3530 C   0  0  0  0  0  0  0  0  0  0  0  0
   -5.8840   13.7970   17.7580 N   0  0  0  0  0  0  0  0  0  0  0  0
   -4.0270   15.3480   18.1550 C   0  0  0  0  0  0  0  0  0  0  0  0
   -3.5180   16.3880   18.6220 O   0  0  0  0  0  0  0  0  0  0  0  0
   -3.3600   14.4930   17.4890 O   0  0  0  0  0  0  0  0  0  0  0  0
   -8.0700   14.3160   19.7840 O   0  0  0  0  0  0  0  0  0  0  0  0
   -8.7900   13.8130   20.8890 C   0  0  0  0  0  0  0  0  0  0  0  0
  -10.2510   13.5930   20.4770 C   0  0  0  0  0  0  0  0  0  0  0  0
  -10.7390   14.5670   19.5530 O   0  0  0  0  0  0  0  0  0  0  0  0
  -11.1930   13.7490   21.6840 C   0  0  0  0  0  0  0  0  0  0  0  0
  -11.0600   15.1750   22.3040 C   0  0  0  0  0  0  0  0  0  0  0  0
   -9.8210   15.7880   21.8970 O   0  0  0  0  0  0  0  0  0  0  0  0
   -8.6820   14.8890   21.9620 C   0  0  0  0  0  0  0  0  0  0  0  0
   -7.4360   15.6590   21.6690 C   0  0  0  0  0  0  0  0  0  0  0  0
   -6.7912   18.1471   20.3719 H   0  0  0  0  0  0  0  0  0  0  0  0
   -5.2118   15.9984   20.2928 H   0  0  0  0  0  0  0  0  0  0  0  0
   -5.5759   14.2028   20.2743 H   0  0  0  0  0  0  0  0  0  0  0  0
   -6.0780   15.8930   17.8391 H   0  0  0  0  0  0  0  0  0  0  0  0
   -6.0831   13.1253   18.5130 H   0  0  0  0  0  0  0  0  0  0  0  0
   -6.7251   13.9187   17.1761 H   0  0  0  0  0  0  0  0  0  0  0  0
   -2.8246   13.8066   17.9605 H   0  0  0  0  0  0  0  0  0  0  0  0
   -8.4009   12.8504   21.2525 H   0  0  0  0  0  0  0  0  0  0  0  0
  -10.2497   12.5855   20.0355 H   0  0  0  0  0  0  0  0  0  0  0  0
  -11.1222   15.3318   20.0514 H   0  0  0  0  0  0  0  0  0  0  0  0
  -12.2310   13.5933   21.3549 H   0  0  0  0  0  0  0  0  0  0  0  0
  -10.9195   13.0042   22.4459 H   0  0  0  0  0  0  0  0  0  0  0  0
  -11.9008   15.7975   21.9641 H   0  0  0  0  0  0  0  0  0  0  0  0
  -11.0713   15.0890   23.4006 H   0  0  0  0  0  0  0  0  0  0  0  0
   -8.6598   14.4353   22.9638 H   0  0  0  0  0  0  0  0  0  0  0  0
   -6.5770   15.2505   22.2215 H   0  0  0  0  0  0  0  0  0  0  0  0
   -7.4934   16.7163   21.9670 H   0  0  0  0  0  0  0  0  0  0  0  0
  1  2  1  0
  2  3  2  0
  2  4  1  0
  4  5  1  0
  4 11  1  0
  4 19  1  0
  5  6  1  0
  6  7  1  0
  6  8  1  0
  8  9  2  0
  8 10  1  0
 11 12  1  0
 12 13  1  0
 12 18  1  0
 13 14  1  0
 13 15  1  0
 15 16  1  0
 16 17  1  0
 17 18  1  0
 18 19  1  0
  1 20  1  0
  5 21  1  0
  5 22  1  0
  6 23  1  0
  7 24  1  0
  7 25  1  0
 10 26  1  0
 12 27  1  0
 13 28  1  0
 14 29  1  0
 15 30  1  0
 15 31  1  0
 16 32  1  0
 16 33  1  0
 18 34  1  0
 19 35  1  0
 19 36  1  0
A    1
OAC
A    2
CAN
A    3
OAE
A    4
CAS
A    5
CB
A    6
CA
A    7
N
A    8
C
A    9
OXT
A   10
O
A   11
OAL
A   12
CAR
A   13
CAP
A   14
OAF
A   15
CAH
A   16
CAG
A   17
OAK
A   18
CAQ
A   19
CAJ
M  END
