3FW0_HH3_A_1
     RDKit          3D

 23 23  0  0  0  0  0  0  0  0999 V2000
   -0.4780    4.8440   27.2980 O   0  0  0  0  0  0  0  0  0  0  0  0
    0.8440    7.5630   27.3920 O   0  0  0  0  0  0  0  0  0  0  0  0
   -1.9440    3.2200   22.8220 C   0  0  0  0  0  0  0  0  0  0  0  0
   -2.6030    2.9660   24.0270 C   0  0  0  0  0  0  0  0  0  0  0  0
   -2.2700    3.6950   25.1680 C   0  0  0  0  0  0  0  0  0  0  0  0
   -1.2800    4.6740   25.1050 C   0  0  0  0  0  0  0  0  0  0  0  0
   -0.6190    4.9250   23.9030 C   0  0  0  0  0  0  0  0  0  0  0  0
   -0.9510    4.1980   22.7600 C   0  0  0  0  0  0  0  0  0  0  0  0
   -0.9230    5.4520   26.3370 C   0  0  0  0  0  0  0  0  0  0  0  0
   -1.1050    6.7730   26.3440 N   0  0  0  0  0  0  0  0  0  0  0  0
   -0.5860    7.6210   27.4040 C   0  0  0  0  0  0  0  0  0  0  0  0
   -1.0750    9.0440   27.3330 C   0  0  0  0  0  0  0  0  0  0  0  0
   -2.2150    9.2940   27.7750 O   0  0  0  0  0  0  0  0  0  0  0  0
   -0.3410    9.9260   26.8470 O   0  0  0  0  0  0  0  0  0  0  0  0
    1.1815    7.5493   28.3226 H   0  0  0  0  0  0  0  0  0  0  0  0
   -2.2084    2.6480   21.9204 H   0  0  0  0  0  0  0  0  0  0  0  0
   -3.3833    2.1922   24.0758 H   0  0  0  0  0  0  0  0  0  0  0  0
   -2.7886    3.4975   26.1178 H   0  0  0  0  0  0  0  0  0  0  0  0
    0.1640    5.6962   23.8564 H   0  0  0  0  0  0  0  0  0  0  0  0
   -0.4307    4.3954   21.8111 H   0  0  0  0  0  0  0  0  0  0  0  0
   -1.6311    7.2070   25.5721 H   0  0  0  0  0  0  0  0  0  0  0  0
   -0.9716    7.2314   28.3577 H   0  0  0  0  0  0  0  0  0  0  0  0
   -2.3706    9.3281   28.7521 H   0  0  0  0  0  0  0  0  0  0  0  0
  9  1  2  0
  2 11  1  0
  8  3  2  0
  3  4  1  0
  4  5  2  0
  6  5  1  0
  7  6  2  0
  6  9  1  0
  8  7  1  0
  9 10  1  0
 10 11  1  0
 12 11  1  0
 14 12  2  0
 12 13  1  0
  2 15  1  0
  3 16  1  0
  4 17  1  0
  5 18  1  0
  7 19  1  0
  8 20  1  0
 10 21  1  0
 11 22  1  0
 13 23  1  0
A    1
O1
A    2
O2
A    3
C1
A    4
C6
A    5
C5
A    6
C4
A    7
C3
A    8
C2
A    9
C7
A   10
N1
A   11
C9
A   12
C10
A   13
O3
A   14
O4
M  END
