1CIL_ETS_A_263
     RDKit          3D

 35 36  0  0  0  0  0  0  0  0999 V2000
   -6.1860    3.6410   15.7000 S   0  0  0  0  0  0  0  0  0  0  0  0
   -5.2590    2.2490   15.9490 C   0  0  0  0  0  0  0  0  0  0  0  0
   -3.9920    2.3040   15.3640 C   0  0  0  0  0  0  0  0  0  0  0  0
   -3.8200    3.5480   14.6840 C   0  0  0  0  0  0  0  0  0  0  0  0
   -2.6000    3.9180   13.9220 C   0  0  0  0  0  0  0  0  0  0  0  0
   -2.5630    5.4380   13.6650 C   0  0  0  0  0  0  0  0  0  0  0  0
   -3.8020    6.0150   13.0230 C   0  0  0  0  0  0  0  0  0  0  0  0
   -5.0600    6.0120   14.2810 S   0  0  0  0  0  0  0  0  0  0  0  0
   -4.9690    4.3680   14.7880 C   0  0  0  0  0  0  0  0  0  0  0  0
   -5.8850    0.9410   16.8910 S   0  0  0  0  0  0  0  0  0  0  0  0
   -7.3100    0.9870   16.7290 O   0  0  0  0  0  0  0  0  0  0  0  0
   -5.3490    1.0410   18.2200 O   0  0  0  0  0  0  0  0  0  0  0  0
   -5.3270   -0.5200   16.1920 N   0  0  0  0  0  0  0  0  0  0  0  0
   -2.6210    3.1750   12.6490 N   0  0  0  0  0  0  0  0  0  0  0  0
   -3.5160    7.4560   12.5630 C   0  0  0  0  0  0  0  0  0  0  0  0
   -6.3310    6.2230   13.6410 O   0  0  0  0  0  0  0  0  0  0  0  0
   -4.6970    6.8100   15.4220 O   0  0  0  0  0  0  0  0  0  0  0  0
   -1.3550    3.2200   11.9060 C   0  0  0  0  0  0  0  0  0  0  0  0
   -1.4350    2.1450   10.8200 C   0  0  0  0  0  0  0  0  0  0  0  0
   -3.2370    1.5059   15.4190 H   0  0  0  0  0  0  0  0  0  0  0  0
   -1.6983    3.6596   14.4966 H   0  0  0  0  0  0  0  0  0  0  0  0
   -2.4148    5.9424   14.6312 H   0  0  0  0  0  0  0  0  0  0  0  0
   -1.7442    5.6054   12.9498 H   0  0  0  0  0  0  0  0  0  0  0  0
   -4.1173    5.4329   12.1445 H   0  0  0  0  0  0  0  0  0  0  0  0
   -5.0738   -1.1830   16.9385 H   0  0  0  0  0  0  0  0  0  0  0  0
   -6.0715   -0.9278   15.6086 H   0  0  0  0  0  0  0  0  0  0  0  0
   -2.8410    2.1897   12.8534 H   0  0  0  0  0  0  0  0  0  0  0  0
   -3.3876    8.1032   13.4431 H   0  0  0  0  0  0  0  0  0  0  0  0
   -2.5971    7.4724   11.9586 H   0  0  0  0  0  0  0  0  0  0  0  0
   -4.3590    7.8221   11.9586 H   0  0  0  0  0  0  0  0  0  0  0  0
   -1.2211    4.2109   11.4475 H   0  0  0  0  0  0  0  0  0  0  0  0
   -0.5007    3.0393   12.5749 H   0  0  0  0  0  0  0  0  0  0  0  0
   -1.5088    1.1534   11.2904 H   0  0  0  0  0  0  0  0  0  0  0  0
   -2.3225    2.3211   10.1945 H   0  0  0  0  0  0  0  0  0  0  0  0
   -0.5312    2.1878   10.1945 H   0  0  0  0  0  0  0  0  0  0  0  0
  1  2  1  0
  1  9  1  0
  2  3  2  0
  2 10  1  0
  3  4  1  0
  4  5  1  0
  4  9  2  0
  5  6  1  0
  5 14  1  0
  6  7  1  0
  7  8  1  0
  7 15  1  0
  8  9  1  0
  8 16  2  0
  8 17  2  0
 10 11  2  0
 10 12  2  0
 10 13  1  0
 14 18  1  0
 18 19  1  0
  3 20  1  0
  5 21  1  0
  6 22  1  0
  6 23  1  0
  7 24  1  0
 13 25  1  0
 13 26  1  0
 14 27  1  0
 15 28  1  0
 15 29  1  0
 15 30  1  0
 18 31  1  0
 18 32  1  0
 19 33  1  0
 19 34  1  0
 19 35  1  0
A    1
S1
A    2
C2
A    3
C3
A    4
C4
A    5
C5
A    6
C6
A    7
C7
A    8
S8
A    9
C9
A   10
S10
A   11
O11
A   12
O12
A   13
N13
A   14
N14
A   15
C15
A   16
O16
A   17
O17
A   18
C18
A   19
C19
M  END
