3FXV_643_A_1
     RDKit          3D

 63 67  0  0  0  0  0  0  0  0999 V2000
  -13.8000   57.1460   -1.9320 C   0  0  0  0  0  0  0  0  0  0  0  0
  -12.0690   57.2600   -3.9210 C   0  0  0  0  0  0  0  0  0  0  0  0
  -12.7840   56.6970   -2.7670 C   0  0  0  0  0  0  0  0  0  0  0  0
  -12.2310   55.4300   -2.5690 C   0  0  0  0  0  0  0  0  0  0  0  0
  -10.4500   54.0450   -3.6530 C   0  0  0  0  0  0  0  0  0  0  0  0
  -14.2810   54.6930    1.6650 C   0  0  0  0  0  0  0  0  0  0  0  0
  -14.3890   52.8530    0.1390 C   0  0  0  0  0  0  0  0  0  0  0  0
  -18.1310   50.7520    3.6850 C   0  0  0  0  0  0  0  0  0  0  0  0
  -17.8000   49.9020    2.6430 C   0  0  0  0  0  0  0  0  0  0  0  0
  -19.0000   51.8000    3.4160 C   0  0  0  0  0  0  0  0  0  0  0  0
  -16.3670   51.2430    5.4760 C   0  0  0  0  0  0  0  0  0  0  0  0
  -14.2580   56.3550   -0.9200 C   0  0  0  0  0  0  0  0  0  0  0  0
  -13.7170   55.0870   -0.7190 C   0  0  0  0  0  0  0  0  0  0  0  0
  -12.7010   54.6360   -1.5400 C   0  0  0  0  0  0  0  0  0  0  0  0
  -11.2650   55.2440   -3.5190 N   0  0  0  0  0  0  0  0  0  0  0  0
  -11.1730   56.3210   -4.3100 C   0  0  0  0  0  0  0  0  0  0  0  0
  -12.2520   58.5680   -4.5470 C   0  0  0  0  0  0  0  0  0  0  0  0
  -13.0770   59.3370   -4.1340 O   0  0  0  0  0  0  0  0  0  0  0  0
  -11.4730   58.9180   -5.5730 O   0  0  0  0  0  0  0  0  0  0  0  0
  -14.6610   53.8640    2.6900 C   0  0  0  0  0  0  0  0  0  0  0  0
  -14.1550   54.1970    0.3770 C   0  0  0  0  0  0  0  0  0  0  0  0
  -14.7710   52.0280    1.1650 C   0  0  0  0  0  0  0  0  0  0  0  0
  -14.9040   52.5310    2.4390 C   0  0  0  0  0  0  0  0  0  0  0  0
  -15.2740   51.6930    3.4240 O   0  0  0  0  0  0  0  0  0  0  0  0
  -18.3490   50.1140    1.4020 C   0  0  0  0  0  0  0  0  0  0  0  0
  -19.1730   51.1120    1.1990 N   0  0  0  0  0  0  0  0  0  0  0  0
  -19.5080   51.9460    2.1510 C   0  0  0  0  0  0  0  0  0  0  0  0
  -17.5400   50.5840    5.0280 C   0  0  0  0  0  0  0  0  0  0  0  0
  -16.2030   50.7980    6.7290 C   0  0  0  0  0  0  0  0  0  0  0  0
  -17.2070   49.9600    6.9600 O   0  0  0  0  0  0  0  0  0  0  0  0
  -17.9390   49.8480    6.0170 N   0  0  0  0  0  0  0  0  0  0  0  0
  -16.7270   48.5950    2.9310 Cl  0  0  0  0  0  0  0  0  0  0  0  0
  -15.1060   51.1890    7.6790 C   0  0  0  0  0  0  0  0  0  0  0  0
  -15.6650   52.1500    8.7210 C   0  0  0  0  0  0  0  0  0  0  0  0
  -14.5620   49.9520    8.3870 C   0  0  0  0  0  0  0  0  0  0  0  0
  -15.5070   52.2150    4.7210 C   0  0  0  0  0  0  0  0  0  0  0  0
  -19.4440   52.8740    4.6820 Cl  0  0  0  0  0  0  0  0  0  0  0  0
  -14.2510   52.2940   -1.2460 C   0  0  0  0  0  0  0  0  0  0  0  0
  -14.2366   58.1435   -2.0880 H   0  0  0  0  0  0  0  0  0  0  0  0
  -10.1911   53.6641   -2.6541 H   0  0  0  0  0  0  0  0  0  0  0  0
  -11.0144   53.2776   -4.2031 H   0  0  0  0  0  0  0  0  0  0  0  0
   -9.5288   54.2874   -4.2031 H   0  0  0  0  0  0  0  0  0  0  0  0
  -14.0757   55.7548    1.8661 H   0  0  0  0  0  0  0  0  0  0  0  0
  -15.0583   56.7198   -0.2593 H   0  0  0  0  0  0  0  0  0  0  0  0
  -12.2642   53.6402   -1.3737 H   0  0  0  0  0  0  0  0  0  0  0  0
  -10.4729   56.4275   -5.1517 H   0  0  0  0  0  0  0  0  0  0  0  0
  -10.5831   59.3178   -5.4050 H   0  0  0  0  0  0  0  0  0  0  0  0
  -14.7714   54.2623    3.7094 H   0  0  0  0  0  0  0  0  0  0  0  0
  -14.9712   50.9641    0.9700 H   0  0  0  0  0  0  0  0  0  0  0  0
  -18.0945   49.4397    0.5710 H   0  0  0  0  0  0  0  0  0  0  0  0
  -20.2028   52.7707    1.9341 H   0  0  0  0  0  0  0  0  0  0  0  0
  -14.2950   51.6715    7.1138 H   0  0  0  0  0  0  0  0  0  0  0  0
  -15.4429   51.7682    9.7284 H   0  0  0  0  0  0  0  0  0  0  0  0
  -15.2015   53.1394    8.5934 H   0  0  0  0  0  0  0  0  0  0  0  0
  -16.7542   52.2362    8.5934 H   0  0  0  0  0  0  0  0  0  0  0  0
  -14.6250   50.0953    9.4758 H   0  0  0  0  0  0  0  0  0  0  0  0
  -15.1565   49.0728    8.0978 H   0  0  0  0  0  0  0  0  0  0  0  0
  -13.5122   49.7960    8.0978 H   0  0  0  0  0  0  0  0  0  0  0  0
  -16.0213   53.1843    4.6444 H   0  0  0  0  0  0  0  0  0  0  0  0
  -14.5518   52.3616    5.2465 H   0  0  0  0  0  0  0  0  0  0  0  0
  -13.9877   51.2276   -1.1865 H   0  0  0  0  0  0  0  0  0  0  0  0
  -15.2040   52.4069   -1.7836 H   0  0  0  0  0  0  0  0  0  0  0  0
  -13.4601   52.8375   -1.7836 H   0  0  0  0  0  0  0  0  0  0  0  0
  1  3  2  0
  1 12  1  0
  2  3  1  0
  2 16  2  0
  2 17  1  0
  3  4  1  0
  4 14  2  0
  4 15  1  0
  5 15  1  0
  6 20  2  0
  6 21  1  0
  7 21  2  0
  7 22  1  0
  7 38  1  0
  8  9  2  0
  8 10  1  0
  8 28  1  0
  9 25  1  0
  9 32  1  0
 10 27  2  0
 10 37  1  0
 11 28  1  0
 11 29  2  0
 11 36  1  0
 12 13  2  0
 13 14  1  0
 13 21  1  0
 15 16  1  0
 17 18  2  0
 17 19  1  0
 20 23  1  0
 22 23  2  0
 23 24  1  0
 24 36  1  0
 25 26  2  0
 26 27  1  0
 28 31  2  0
 29 30  1  0
 29 33  1  0
 30 31  1  0
 33 34  1  0
 33 35  1  0
  1 39  1  0
  5 40  1  0
  5 41  1  0
  5 42  1  0
  6 43  1  0
 12 44  1  0
 14 45  1  0
 16 46  1  0
 19 47  1  0
 20 48  1  0
 22 49  1  0
 25 50  1  0
 27 51  1  0
 33 52  1  0
 34 53  1  0
 34 54  1  0
 34 55  1  0
 35 56  1  0
 35 57  1  0
 35 58  1  0
 36 59  1  0
 36 60  1  0
 38 61  1  0
 38 62  1  0
 38 63  1  0
A    1
C4
A    2
C5
A    3
C6
A    4
C7
A    5
C10
A    6
C15
A    7
C17
A    8
C21
A    9
C22
A   10
C26
A   11
C28
A   12
C1
A   13
C2
A   14
C3
A   15
N8
A   16
C9
A   17
C11
A   18
O12
A   19
O13
A   20
C14
A   21
C16
A   22
C18
A   23
C19
A   24
O20
A   25
C23
A   26
N24
A   27
C25
A   28
C27
A   29
C29
A   30
O30
A   31
N31
A   32
CL32
A   33
C33
A   34
C34
A   35
C35
A   36
C36
A   37
CL37
A   38
C38
M  END
