2P3G_F10_X_401
     RDKit          3D

 37 40  0  0  0  0  0  0  0  0999 V2000
   87.7620  260.1570  111.6410 N   0  0  0  0  0  0  0  0  0  0  0  0
   88.5970  260.7450  109.5390 O   0  0  0  0  0  0  0  0  0  0  0  0
   79.0800  262.6050  106.2230 C   0  0  0  0  0  0  0  0  0  0  0  0
   81.9920  261.2230  107.9860 C   0  0  0  0  0  0  0  0  0  0  0  0
   77.7060  262.6780  106.1980 C   0  0  0  0  0  0  0  0  0  0  0  0
   85.7050  260.9450  108.6950 C   0  0  0  0  0  0  0  0  0  0  0  0
   86.6550  260.2380  112.5800 C   0  0  0  0  0  0  0  0  0  0  0  0
   85.3990  259.5690  112.0610 C   0  0  0  0  0  0  0  0  0  0  0  0
   86.2930  260.4980  109.8980 C   0  0  0  0  0  0  0  0  0  0  0  0
   87.6680  260.4790  110.3000 C   0  0  0  0  0  0  0  0  0  0  0  0
   83.8470  261.5410  106.5510 C   0  0  0  0  0  0  0  0  0  0  0  0
   82.9710  261.9010  105.5620 C   0  0  0  0  0  0  0  0  0  0  0  0
   85.2640  260.0900  110.7060 C   0  0  0  0  0  0  0  0  0  0  0  0
   83.3580  261.1890  107.7880 C   0  0  0  0  0  0  0  0  0  0  0  0
   84.3350  260.8050  108.7880 C   0  0  0  0  0  0  0  0  0  0  0  0
   81.1820  261.5950  106.9290 C   0  0  0  0  0  0  0  0  0  0  0  0
   79.7360  261.6530  106.9730 C   0  0  0  0  0  0  0  0  0  0  0  0
   78.9540  260.7770  107.6960 C   0  0  0  0  0  0  0  0  0  0  0  0
   77.5790  260.8360  107.6910 C   0  0  0  0  0  0  0  0  0  0  0  0
   76.9480  261.7910  106.9300 C   0  0  0  0  0  0  0  0  0  0  0  0
   79.5220  259.8280  108.4410 F   0  0  0  0  0  0  0  0  0  0  0  0
   84.0890  260.2640  110.0260 N   0  0  0  0  0  0  0  0  0  0  0  0
   81.6500  261.9320  105.7220 N   0  0  0  0  0  0  0  0  0  0  0  0
   88.6746  259.8394  111.9977 H   0  0  0  0  0  0  0  0  0  0  0  0
   79.6676  263.3224  105.6313 H   0  0  0  0  0  0  0  0  0  0  0  0
   81.5582  260.9602  108.9621 H   0  0  0  0  0  0  0  0  0  0  0  0
   77.2103  263.4491  105.5900 H   0  0  0  0  0  0  0  0  0  0  0  0
   86.2499  261.3405  107.8251 H   0  0  0  0  0  0  0  0  0  0  0  0
   86.9529  259.7477  113.5186 H   0  0  0  0  0  0  0  0  0  0  0  0
   86.4257  261.3029  112.7327 H   0  0  0  0  0  0  0  0  0  0  0  0
   85.5129  258.4750  112.0510 H   0  0  0  0  0  0  0  0  0  0  0  0
   84.5175  259.7742  112.6862 H   0  0  0  0  0  0  0  0  0  0  0  0
   84.9300  261.5333  106.3586 H   0  0  0  0  0  0  0  0  0  0  0  0
   83.3819  262.1801  104.5806 H   0  0  0  0  0  0  0  0  0  0  0  0
   76.9906  260.1256  108.2903 H   0  0  0  0  0  0  0  0  0  0  0  0
   75.8497  261.8463  106.9058 H   0  0  0  0  0  0  0  0  0  0  0  0
   83.1558  260.0240  110.3900 H   0  0  0  0  0  0  0  0  0  0  0  0
  1 10  1  0
  1  7  1  0
  2 10  2  0
  3  5  2  0
  3 17  1  0
  4 16  2  0
  4 14  1  0
  5 20  1  0
  6 15  2  0
  6  9  1  0
  7  8  1  0
  8 13  1  0
  9 10  1  0
  9 13  2  0
 11 12  1  0
 11 14  2  0
 12 23  2  0
 13 22  1  0
 14 15  1  0
 15 22  1  0
 16 23  1  0
 16 17  1  0
 17 18  2  0
 18 19  1  0
 18 21  1  0
 19 20  2  0
  1 24  1  0
  3 25  1  0
  4 26  1  0
  5 27  1  0
  6 28  1  0
  7 29  1  0
  7 30  1  0
  8 31  1  0
  8 32  1  0
 11 33  1  0
 12 34  1  0
 19 35  1  0
 20 36  1  0
 22 37  1  0
A    1
N1
A    2
O3
A    3
C10
A    4
C11
A    5
C9
A    6
C14
A    7
C17
A    8
C18
A    9
C15
A   10
C16
A   11
C21
A   12
C22
A   13
C19
A   14
C12
A   15
C13
A   16
C2
A   17
C4
A   18
C5
A   19
C7
A   20
C8
A   21
F6
A   22
N20
A   23
N23
M  END
