1HKI_NA1_A_1387
     RDKit          3D

 32 32  0  0  0  0  0  0  0  0999 V2000
    0.9780   61.6450   -1.8740 C   0  0  0  0  0  0  0  0  0  0  0  0
   -0.4520   61.8930   -2.3890 C   0  0  0  0  0  0  0  0  0  0  0  0
   -1.2670   60.5920   -2.3370 C   0  0  0  0  0  0  0  0  0  0  0  0
   -0.5350   59.4900   -3.1070 C   0  0  0  0  0  0  0  0  0  0  0  0
    0.8860   59.3250   -2.5460 C   0  0  0  0  0  0  0  0  0  0  0  0
    1.6310   58.2120   -3.2980 C   0  0  0  0  0  0  0  0  0  0  0  0
   -1.4200   64.1520   -2.0910 C   0  0  0  0  0  0  0  0  0  0  0  0
   -2.0770   65.1250   -1.1040 C   0  0  0  0  0  0  0  0  0  0  0  0
   -1.0980   62.9570   -1.5810 N   0  0  0  0  0  0  0  0  0  0  0  0
   -1.4180   60.1920   -0.9750 O   0  0  0  0  0  0  0  0  0  0  0  0
   -1.2430   58.2540   -2.9880 O   0  0  0  0  0  0  0  0  0  0  0  0
    1.6040   60.5900   -2.6630 O   0  0  0  0  0  0  0  0  0  0  0  0
    3.0180   58.1000   -2.8700 O   0  0  0  0  0  0  0  0  0  0  0  0
    3.1080   57.6330   -1.5110 C   0  0  0  0  0  0  0  0  0  0  0  0
   -1.2270   64.4780   -3.2610 O   0  0  0  0  0  0  0  0  0  0  0  0
    1.5663   62.5698   -1.9664 H   0  0  0  0  0  0  0  0  0  0  0  0
    0.9390   61.3385   -0.8183 H   0  0  0  0  0  0  0  0  0  0  0  0
   -0.4092   62.2269   -3.4362 H   0  0  0  0  0  0  0  0  0  0  0  0
   -2.2539   60.7594   -2.7930 H   0  0  0  0  0  0  0  0  0  0  0  0
   -0.4806   59.7715   -4.1690 H   0  0  0  0  0  0  0  0  0  0  0  0
    0.8266   59.0416   -1.4848 H   0  0  0  0  0  0  0  0  0  0  0  0
    1.1228   57.2547   -3.1103 H   0  0  0  0  0  0  0  0  0  0  0  0
    1.6246   58.4619   -4.3692 H   0  0  0  0  0  0  0  0  0  0  0  0
   -1.8606   64.8045   -0.0742 H   0  0  0  0  0  0  0  0  0  0  0  0
   -1.6764   66.1368   -1.2650 H   0  0  0  0  0  0  0  0  0  0  0  0
   -3.1651   65.1315   -1.2650 H   0  0  0  0  0  0  0  0  0  0  0  0
   -1.3065   62.7688   -0.5900 H   0  0  0  0  0  0  0  0  0  0  0  0
   -1.1384   60.9327   -0.3806 H   0  0  0  0  0  0  0  0  0  0  0  0
   -1.3678   58.0361   -2.0304 H   0  0  0  0  0  0  0  0  0  0  0  0
    2.9457   58.4753   -0.8224 H   0  0  0  0  0  0  0  0  0  0  0  0
    2.3416   56.8635   -1.3362 H   0  0  0  0  0  0  0  0  0  0  0  0
    4.1055   57.2034   -1.3362 H   0  0  0  0  0  0  0  0  0  0  0  0
  1  2  1  0
  1 12  1  0
  2  3  1  0
  2  9  1  0
  3  4  1  0
  3 10  1  0
  4  5  1  0
  4 11  1  0
  5  6  1  0
  5 12  1  0
  6 13  1  0
  7  8  1  0
  7  9  1  0
  7 15  2  0
 13 14  1  0
  1 16  1  0
  1 17  1  0
  2 18  1  0
  3 19  1  0
  4 20  1  0
  5 21  1  0
  6 22  1  0
  6 23  1  0
  8 24  1  0
  8 25  1  0
  8 26  1  0
  9 27  1  0
 10 28  1  0
 11 29  1  0
 14 30  1  0
 14 31  1  0
 14 32  1  0
A    1
C1
A    2
C2
A    3
C3
A    4
C4
A    5
C5
A    6
C6
A    7
C7
A    8
C8
A    9
N2
A   10
O3
A   11
O4
A   12
O5
A   13
O6
A   14
C9
A   15
O7
M  END
