3FZH_3BH_A_401
     RDKit          3D

 34 36  0  0  0  0  0  0  0  0999 V2000
   15.9160   -5.3510    3.1300 O   0  0  0  0  0  0  0  0  0  0  0  0
   15.9470   -3.9030    3.1510 C   0  0  0  0  0  0  0  0  0  0  0  0
   14.7780   -3.2770    3.9140 C   0  0  0  0  0  0  0  0  0  0  0  0
   13.5330   -3.9900    3.7370 O   0  0  0  0  0  0  0  0  0  0  0  0
   14.6390   -1.8890    3.2480 C   0  0  0  0  0  0  0  0  0  0  0  0
   15.2800   -0.7010    4.0290 C   0  0  0  0  0  0  0  0  0  0  0  0
   16.6750   -0.9280    4.1560 O   0  0  0  0  0  0  0  0  0  0  0  0
   15.3510   -1.9280    1.9970 O   0  0  0  0  0  0  0  0  0  0  0  0
   15.7270   -3.2920    1.7640 C   0  0  0  0  0  0  0  0  0  0  0  0
   16.9620   -3.3650    0.9470 N   0  0  0  0  0  0  0  0  0  0  0  0
   17.0630   -4.1270   -0.1340 C   0  0  0  0  0  0  0  0  0  0  0  0
   16.1600   -4.9360   -0.7340 N   0  0  0  0  0  0  0  0  0  0  0  0
   16.4810   -5.6110   -1.8150 C   0  0  0  0  0  0  0  0  0  0  0  0
   17.7620   -5.4950   -2.3750 N   0  0  0  0  0  0  0  0  0  0  0  0
   18.7110   -4.6560   -1.7980 C   0  0  0  0  0  0  0  0  0  0  0  0
   19.9280   -4.5680   -2.3410 N   0  0  0  0  0  0  0  0  0  0  0  0
   18.3500   -3.9550   -0.6520 C   0  0  0  0  0  0  0  0  0  0  0  0
   18.9780   -3.0870    0.1330 N   0  0  0  0  0  0  0  0  0  0  0  0
   18.1310   -2.7340    1.1000 C   0  0  0  0  0  0  0  0  0  0  0  0
   18.4350   -1.8760    2.0790 N   0  0  0  0  0  0  0  0  0  0  0  0
   15.9086   -5.6944    4.0585 H   0  0  0  0  0  0  0  0  0  0  0  0
   16.9316   -3.7000    3.5976 H   0  0  0  0  0  0  0  0  0  0  0  0
   14.9706   -3.2724    4.9970 H   0  0  0  0  0  0  0  0  0  0  0  0
   13.1496   -4.2096    4.6230 H   0  0  0  0  0  0  0  0  0  0  0  0
   13.5556   -1.7113    3.1796 H   0  0  0  0  0  0  0  0  0  0  0  0
   15.1078    0.2365    3.4799 H   0  0  0  0  0  0  0  0  0  0  0  0
   14.8244   -0.6248    5.0273 H   0  0  0  0  0  0  0  0  0  0  0  0
   16.9170   -0.9674    5.1152 H   0  0  0  0  0  0  0  0  0  0  0  0
   14.9530   -3.8370    1.2038 H   0  0  0  0  0  0  0  0  0  0  0  0
   15.7386   -6.2728   -2.2849 H   0  0  0  0  0  0  0  0  0  0  0  0
   20.7590   -4.5079   -1.7354 H   0  0  0  0  0  0  0  0  0  0  0  0
   20.0356   -4.5602   -3.3653 H   0  0  0  0  0  0  0  0  0  0  0  0
   18.3339   -2.1612    3.0636 H   0  0  0  0  0  0  0  0  0  0  0  0
   18.7703   -0.9297    1.8488 H   0  0  0  0  0  0  0  0  0  0  0  0
  1  2  1  0
  2  3  1  0
  2  9  1  0
  3  4  1  0
  3  5  1  0
  5  6  1  0
  5  8  1  0
  6  7  1  0
  8  9  1  0
  9 10  1  0
 10 11  1  0
 10 19  1  0
 11 12  2  0
 11 17  1  0
 12 13  1  0
 13 14  2  0
 14 15  1  0
 15 16  1  0
 15 17  2  0
 17 18  1  0
 18 19  2  0
 19 20  1  0
  1 21  1  0
  2 22  1  0
  3 23  1  0
  4 24  1  0
  5 25  1  0
  6 26  1  0
  6 27  1  0
  7 28  1  0
  9 29  1  0
 13 30  1  0
 16 31  1  0
 16 32  1  0
 20 33  1  0
 20 34  1  0
A    1
O15
A    2
C8
A    3
C14
A    4
O19
A    5
C13
A    6
C18
A    7
O20
A    8
O7
A    9
C3
A   10
N1
A   11
C2
A   12
N6
A   13
C12
A   14
N16
A   15
C11
A   16
N17
A   17
C5
A   18
N9
A   19
C4
A   20
N10
M  END
