3FZM_3GO_A_401
     RDKit          3D

 66 71  0  0  0  0  0  0  0  0999 V2000
   20.6320   -3.1070    3.8350 C   0  0  0  0  0  0  0  0  0  0  0  0
   21.4440   -3.8510    4.6870 C   0  0  0  0  0  0  0  0  0  0  0  0
   20.8790   -4.6590    5.6670 C   0  0  0  0  0  0  0  0  0  0  0  0
   21.7080   -5.3940    6.4990 C   0  0  0  0  0  0  0  0  0  0  0  0
   23.0940   -5.3020    6.3420 C   0  0  0  0  0  0  0  0  0  0  0  0
   23.6240   -4.5150    5.3880 N   0  0  0  0  0  0  0  0  0  0  0  0
   22.8290   -3.7920    4.5580 C   0  0  0  0  0  0  0  0  0  0  0  0
   23.3990   -2.9850    3.5790 C   0  0  0  0  0  0  0  0  0  0  0  0
   22.5810   -2.2380    2.7240 C   0  0  0  0  0  0  0  0  0  0  0  0
   21.2010   -2.3040    2.8500 C   0  0  0  0  0  0  0  0  0  0  0  0
   20.3040   -1.4800    1.9120 C   0  0  0  0  0  0  0  0  0  0  0  0
   18.9400   -2.0780    1.8550 N   0  0  0  0  0  0  0  0  0  0  0  0
   18.6090   -2.9060    0.8550 C   0  0  0  0  0  0  0  0  0  0  0  0
   19.4270   -3.3130   -0.1280 N   0  0  0  0  0  0  0  0  0  0  0  0
   18.7400   -4.1200   -0.9270 C   0  0  0  0  0  0  0  0  0  0  0  0
   19.0840   -4.8210   -2.0650 C   0  0  0  0  0  0  0  0  0  0  0  0
   20.3260   -4.7450   -2.5600 N   0  0  0  0  0  0  0  0  0  0  0  0
   18.1320   -5.5930   -2.6900 N   0  0  0  0  0  0  0  0  0  0  0  0
   16.8480   -5.6560   -2.1650 C   0  0  0  0  0  0  0  0  0  0  0  0
   16.5350   -4.9750   -1.0610 N   0  0  0  0  0  0  0  0  0  0  0  0
   17.4590   -4.2140   -0.4310 C   0  0  0  0  0  0  0  0  0  0  0  0
   17.3970   -3.4770    0.6610 N   0  0  0  0  0  0  0  0  0  0  0  0
   16.1980   -3.2950    1.5040 C   0  0  0  0  0  0  0  0  0  0  0  0
   15.9350   -1.8970    1.6440 O   0  0  0  0  0  0  0  0  0  0  0  0
   16.4860   -3.7500    2.9100 C   0  0  0  0  0  0  0  0  0  0  0  0
   16.3280   -5.1810    3.0120 O   0  0  0  0  0  0  0  0  0  0  0  0
   15.4170   -3.0530    3.7110 C   0  0  0  0  0  0  0  0  0  0  0  0
   14.2410   -3.8550    3.7470 O   0  0  0  0  0  0  0  0  0  0  0  0
   15.1350   -1.7640    2.9050 C   0  0  0  0  0  0  0  0  0  0  0  0
   15.6620   -0.5800    3.6700 C   0  0  0  0  0  0  0  0  0  0  0  0
   17.0940   -0.6270    3.6440 O   0  0  0  0  0  0  0  0  0  0  0  0
   17.6000    0.2950    4.4940 C   0  0  0  0  0  0  0  0  0  0  0  0
   18.9010    0.0150    5.2340 C   0  0  0  0  0  0  0  0  0  0  0  0
   20.0110    0.8220    5.0170 C   0  0  0  0  0  0  0  0  0  0  0  0
   21.1950    0.5650    5.6890 C   0  0  0  0  0  0  0  0  0  0  0  0
   21.2670   -0.4990    6.5940 C   0  0  0  0  0  0  0  0  0  0  0  0
   22.4870   -0.7620    7.3000 C   0  0  0  0  0  0  0  0  0  0  0  0
   23.4510   -0.9730    7.8660 N   0  0  0  0  0  0  0  0  0  0  0  0
   20.1540   -1.3010    6.8130 C   0  0  0  0  0  0  0  0  0  0  0  0
   18.9720   -1.0450    6.1290 C   0  0  0  0  0  0  0  0  0  0  0  0
   19.5381   -3.1537    3.9404 H   0  0  0  0  0  0  0  0  0  0  0  0
   19.7863   -4.7142    5.7806 H   0  0  0  0  0  0  0  0  0  0  0  0
   21.2794   -6.0440    7.2760 H   0  0  0  0  0  0  0  0  0  0  0  0
   23.7571   -5.8780    7.0042 H   0  0  0  0  0  0  0  0  0  0  0  0
   24.4931   -2.9340    3.4768 H   0  0  0  0  0  0  0  0  0  0  0  0
   23.0325   -1.5981    1.9515 H   0  0  0  0  0  0  0  0  0  0  0  0
   20.2341   -0.4486    2.2880 H   0  0  0  0  0  0  0  0  0  0  0  0
   20.7408   -1.4804    0.9024 H   0  0  0  0  0  0  0  0  0  0  0  0
   18.2500   -1.8542    2.5863 H   0  0  0  0  0  0  0  0  0  0  0  0
   21.1327   -4.6956   -1.9215 H   0  0  0  0  0  0  0  0  0  0  0  0
   20.4745   -4.7359   -3.5792 H   0  0  0  0  0  0  0  0  0  0  0  0
   16.0839   -6.2713   -2.6625 H   0  0  0  0  0  0  0  0  0  0  0  0
   15.3716   -3.8525    1.0389 H   0  0  0  0  0  0  0  0  0  0  0  0
   17.5082   -3.5207    3.2455 H   0  0  0  0  0  0  0  0  0  0  0  0
   16.2991   -5.4426    3.9664 H   0  0  0  0  0  0  0  0  0  0  0  0
   15.7193   -2.8586    4.7506 H   0  0  0  0  0  0  0  0  0  0  0  0
   13.9880   -4.0276    4.6884 H   0  0  0  0  0  0  0  0  0  0  0  0
   14.0602   -1.6273    2.7149 H   0  0  0  0  0  0  0  0  0  0  0  0
   15.3121    0.3514    3.2008 H   0  0  0  0  0  0  0  0  0  0  0  0
   15.3012   -0.6096    4.7087 H   0  0  0  0  0  0  0  0  0  0  0  0
   17.7585    1.2130    3.9091 H   0  0  0  0  0  0  0  0  0  0  0  0
   16.8531    0.3322    5.3007 H   0  0  0  0  0  0  0  0  0  0  0  0
   19.9498    1.6643    4.3122 H   0  0  0  0  0  0  0  0  0  0  0  0
   22.0775    1.1971    5.5110 H   0  0  0  0  0  0  0  0  0  0  0  0
   20.2084   -2.1367    7.5262 H   0  0  0  0  0  0  0  0  0  0  0  0
   18.0913   -1.6825    6.2964 H   0  0  0  0  0  0  0  0  0  0  0  0
  1  2  2  0
  1 10  1  0
  2  3  1  0
  2  7  1  0
  3  4  2  0
  4  5  1  0
  5  6  2  0
  6  7  1  0
  7  8  2  0
  8  9  1  0
  9 10  2  0
 10 11  1  0
 11 12  1  0
 12 13  1  0
 13 14  2  0
 13 22  1  0
 14 15  1  0
 15 16  2  0
 15 21  1  0
 16 17  1  0
 16 18  1  0
 18 19  2  0
 19 20  1  0
 20 21  2  0
 21 22  1  0
 22 23  1  0
 23 24  1  0
 23 25  1  0
 24 29  1  0
 25 26  1  0
 25 27  1  0
 27 28  1  0
 27 29  1  0
 29 30  1  0
 30 31  1  0
 31 32  1  0
 32 33  1  0
 33 34  2  0
 33 40  1  0
 34 35  1  0
 35 36  2  0
 36 37  1  0
 36 39  1  0
 37 38  3  0
 39 40  2  0
  1 41  1  0
  3 42  1  0
  4 43  1  0
  5 44  1  0
  8 45  1  0
  9 46  1  0
 11 47  1  0
 11 48  1  0
 12 49  1  0
 17 50  1  0
 17 51  1  0
 19 52  1  0
 23 53  1  0
 25 54  1  0
 26 55  1  0
 27 56  1  0
 28 57  1  0
 29 58  1  0
 30 59  1  0
 30 60  1  0
 32 61  1  0
 32 62  1  0
 34 63  1  0
 35 64  1  0
 39 65  1  0
 40 66  1  0
A    1
C28
A    2
C35
A    3
C40
A    4
C39
A    5
C38
A    6
N37
A    7
C36
A    8
C27
A    9
C26
A   10
C25
A   11
C24
A   12
N23
A   13
C6
A   14
N7
A   15
C8
A   16
C4
A   17
N10
A   18
N1
A   19
C2
A   20
N3
A   21
C9
A   22
N5
A   23
C11
A   24
O12
A   25
C31
A   26
O34
A   27
C32
A   28
O33
A   29
C13
A   30
C14
A   31
O15
A   32
C16
A   33
C17
A   34
C18
A   35
C19
A   36
C20
A   37
C29
A   38
N30
A   39
C21
A   40
C22
M  END
