3G0G_RUM_A_800
     RDKit          3D

 42 44  0  0  0  0  0  0  0  0999 V2000
   40.8130    0.4950   16.4140 N   0  0  0  0  0  0  0  0  0  0  0  0
   40.4010    1.2910   15.6730 C   0  0  0  0  0  0  0  0  0  0  0  0
   39.9170    2.1800   14.8700 C   0  0  0  0  0  0  0  0  0  0  0  0
   38.5340    2.3950   14.8540 C   0  0  0  0  0  0  0  0  0  0  0  0
   37.9740    3.3670   14.0090 C   0  0  0  0  0  0  0  0  0  0  0  0
   38.7730    4.1230   13.1510 C   0  0  0  0  0  0  0  0  0  0  0  0
   40.1580    3.9300   13.1180 C   0  0  0  0  0  0  0  0  0  0  0  0
   40.7780    2.9860   13.9430 C   0  0  0  0  0  0  0  0  0  0  0  0
   42.2850    2.8530   13.8750 C   0  0  0  0  0  0  0  0  0  0  0  0
   42.7440    1.4640   13.7100 N   0  0  0  0  0  0  0  0  0  0  0  0
   43.6600    0.8340   14.6250 C   0  0  0  0  0  0  0  0  0  0  0  0
   44.0640   -0.4440   14.4070 N   0  0  0  0  0  0  0  0  0  0  0  0
   43.6390   -1.1970   13.3730 C   0  0  0  0  0  0  0  0  0  0  0  0
   42.7360   -0.6770   12.4460 C   0  0  0  0  0  0  0  0  0  0  0  0
   42.0940   -1.6440   10.9430 Br  0  0  0  0  0  0  0  0  0  0  0  0
   42.2650    0.7120   12.6090 C   0  0  0  0  0  0  0  0  0  0  0  0
   41.4640    1.1520   11.7540 O   0  0  0  0  0  0  0  0  0  0  0  0
   44.2560    1.5000   15.7160 N   0  0  0  0  0  0  0  0  0  0  0  0
   44.2280    0.9590   17.0860 C   0  0  0  0  0  0  0  0  0  0  0  0
   44.4610    2.0740   18.1230 C   0  0  0  0  0  0  0  0  0  0  0  0
   43.2740    2.8910   18.2360 N   0  0  0  0  0  0  0  0  0  0  0  0
   45.6340    2.9730   17.7330 C   0  0  0  0  0  0  0  0  0  0  0  0
   45.2490    3.6920   16.4490 C   0  0  0  0  0  0  0  0  0  0  0  0
   45.0000    2.7070   15.3120 C   0  0  0  0  0  0  0  0  0  0  0  0
   37.8810    1.7984   15.5080 H   0  0  0  0  0  0  0  0  0  0  0  0
   36.8870    3.5350   14.0240 H   0  0  0  0  0  0  0  0  0  0  0  0
   38.3107    4.8761   12.4959 H   0  0  0  0  0  0  0  0  0  0  0  0
   40.7708    4.5317   12.4306 H   0  0  0  0  0  0  0  0  0  0  0  0
   42.6487    3.4438   13.0214 H   0  0  0  0  0  0  0  0  0  0  0  0
   42.6858    3.2151   14.8333 H   0  0  0  0  0  0  0  0  0  0  0  0
   44.0065   -2.2276   13.2596 H   0  0  0  0  0  0  0  0  0  0  0  0
   43.2476    0.4954   17.2700 H   0  0  0  0  0  0  0  0  0  0  0  0
   45.0307    0.2135   17.1856 H   0  0  0  0  0  0  0  0  0  0  0  0
   44.6925    1.5890   19.0828 H   0  0  0  0  0  0  0  0  0  0  0  0
   43.0546    3.0420   19.2310 H   0  0  0  0  0  0  0  0  0  0  0  0
   43.4376    3.7993   17.7788 H   0  0  0  0  0  0  0  0  0  0  0  0
   45.8276    3.7055   18.5305 H   0  0  0  0  0  0  0  0  0  0  0  0
   46.5473    2.3778   17.5859 H   0  0  0  0  0  0  0  0  0  0  0  0
   44.3322    4.2735   16.6257 H   0  0  0  0  0  0  0  0  0  0  0  0
   46.0803    4.3515   16.1594 H   0  0  0  0  0  0  0  0  0  0  0  0
   45.9733    2.3937   14.9065 H   0  0  0  0  0  0  0  0  0  0  0  0
   44.3796    3.2293   14.5688 H   0  0  0  0  0  0  0  0  0  0  0  0
  1  2  3  0
  2  3  1  0
  3  8  2  0
  4  3  1  0
  4  5  2  0
  5  6  1  0
  6  7  2  0
  8  7  1  0
  8  9  1  0
 10  9  1  0
 10 16  1  0
 11 10  1  0
 12 11  2  0
 12 13  1  0
 13 14  2  0
 14 16  1  0
 14 15  1  0
 16 17  2  0
 18 11  1  0
 18 24  1  0
 19 18  1  0
 20 19  1  0
 20 22  1  0
 21 20  1  0
 22 23  1  0
 23 24  1  0
  4 25  1  0
  5 26  1  0
  6 27  1  0
  7 28  1  0
  9 29  1  0
  9 30  1  0
 13 31  1  0
 19 32  1  0
 19 33  1  0
 20 34  1  0
 21 35  1  0
 21 36  1  0
 22 37  1  0
 22 38  1  0
 23 39  1  0
 23 40  1  0
 24 41  1  0
 24 42  1  0
A    1
N17
A    2
C16
A    3
C15
A    4
C14
A    5
C13
A    6
C12
A    7
C11
A    8
C10
A    9
C9
A   10
N2
A   11
C3
A   12
N4
A   13
C5
A   14
C6
A   15
BR7
A   16
C1
A   17
O8
A   18
N18
A   19
C23
A   20
C22
A   21
N24
A   22
C21
A   23
C20
A   24
C19
M  END
