3G0W_LGB_A_1
     RDKit          3D

 37 39  0  0  0  0  0  0  0  0999 V2000
   55.1480   -1.1510    3.5980 C   0  0  0  0  0  0  0  0  0  0  0  0
   55.7450   -0.1600    4.5290 N   0  0  0  0  0  0  0  0  0  0  0  0
   57.2010   -0.2970    4.4980 C   0  0  0  0  0  0  0  0  0  0  0  0
   57.5270   -1.0260    3.1770 C   0  0  0  0  0  0  0  0  0  0  0  0
   56.2840   -1.9610    2.9720 C   0  0  0  0  0  0  0  0  0  0  0  0
   55.5680    1.2330    4.3680 C   0  0  0  0  0  0  0  0  0  0  0  0
   56.6750    1.9120    4.6940 O   0  0  0  0  0  0  0  0  0  0  0  0
   57.7870    1.0940    4.7280 C   0  0  0  0  0  0  0  0  0  0  0  0
   54.4330    1.8000    3.9440 N   0  0  0  0  0  0  0  0  0  0  0  0
   54.1190    3.1190    3.9100 C   0  0  0  0  0  0  0  0  0  0  0  0
   52.7650    3.4810    4.0750 C   0  0  0  0  0  0  0  0  0  0  0  0
   52.4540    4.8370    4.0380 C   0  0  0  0  0  0  0  0  0  0  0  0
   53.4380    5.8270    3.8440 C   0  0  0  0  0  0  0  0  0  0  0  0
   54.7610    5.4800    3.6840 C   0  0  0  0  0  0  0  0  0  0  0  0
   55.1000    4.1260    3.7180 C   0  0  0  0  0  0  0  0  0  0  0  0
   51.7030    2.4280    4.2830 C   0  0  0  0  0  0  0  0  0  0  0  0
   50.8370    5.3070    4.2320 Cl  0  0  0  0  0  0  0  0  0  0  0  0
   58.7040   -1.7810    3.2710 O   0  0  0  0  0  0  0  0  0  0  0  0
   53.1470    7.2040    3.8050 C   0  0  0  0  0  0  0  0  0  0  0  0
   52.7850    8.2870    3.7920 N   0  0  0  0  0  0  0  0  0  0  0  0
   58.3190    1.2380    6.1410 C   0  0  0  0  0  0  0  0  0  0  0  0
   59.3640    0.4310    6.2720 F   0  0  0  0  0  0  0  0  0  0  0  0
   57.4070    0.9410    7.0770 F   0  0  0  0  0  0  0  0  0  0  0  0
   58.6840    2.4840    6.3220 F   0  0  0  0  0  0  0  0  0  0  0  0
   54.5841   -0.6298    2.8104 H   0  0  0  0  0  0  0  0  0  0  0  0
   54.4601   -1.8164    4.1403 H   0  0  0  0  0  0  0  0  0  0  0  0
   57.6623   -0.9104    5.2860 H   0  0  0  0  0  0  0  0  0  0  0  0
   57.6992   -0.3291    2.3435 H   0  0  0  0  0  0  0  0  0  0  0  0
   56.4198   -2.9211    3.4914 H   0  0  0  0  0  0  0  0  0  0  0  0
   56.1042   -2.2240    1.9191 H   0  0  0  0  0  0  0  0  0  0  0  0
   58.5881    1.3078    4.0052 H   0  0  0  0  0  0  0  0  0  0  0  0
   55.5315    6.2504    3.5332 H   0  0  0  0  0  0  0  0  0  0  0  0
   56.1528    3.8329    3.5929 H   0  0  0  0  0  0  0  0  0  0  0  0
   51.5466    2.2729    5.3607 H   0  0  0  0  0  0  0  0  0  0  0  0
   50.7620    2.7598    3.8199 H   0  0  0  0  0  0  0  0  0  0  0  0
   52.0268    1.4842    3.8199 H   0  0  0  0  0  0  0  0  0  0  0  0
   58.9284   -1.9250    4.2244 H   0  0  0  0  0  0  0  0  0  0  0  0
  5  1  1  0
  1  2  1  0
  6  2  1  0
  3  2  1  0
  4  3  1  0
  3  8  1  0
  5  4  1  0
  4 18  1  0
  9  6  2  0
  6  7  1  0
  7  8  1  0
  8 21  1  0
 10  9  1  0
 15 10  1  0
 10 11  2  0
 12 11  1  0
 11 16  1  0
 13 12  2  0
 12 17  1  0
 14 13  1  0
 19 13  1  0
 14 15  2  0
 20 19  3  0
 21 22  1  0
 21 24  1  0
 21 23  1  0
  1 25  1  0
  1 26  1  0
  3 27  1  0
  4 28  1  0
  5 29  1  0
  5 30  1  0
  8 31  1  0
 14 32  1  0
 15 33  1  0
 16 34  1  0
 16 35  1  0
 16 36  1  0
 18 37  1  0
A    1
C1
A    2
N2
A    3
C3
A    4
C4
A    5
C5
A    6
C6
A    7
O7
A    8
C8
A    9
N9
A   10
C10
A   11
C11
A   12
C12
A   13
C13
A   14
C14
A   15
C15
A   16
C16
A   17
CL17
A   18
O18
A   19
C19
A   20
N20
A   21
C21
A   22
F22
A   23
F23
A   24
F24
M  END
