3G0X_MD7_A_2
     RDKit          3D

 39 41  0  0  0  0  0  0  0  0999 V2000
    2.5830  -41.5180   -1.0030 C   0  0  0  0  0  0  0  0  0  0  0  0
    1.6290  -40.7510   -1.9810 C   0  0  0  0  0  0  0  0  0  0  0  0
    2.2670  -40.0040   -0.8300 C   0  0  0  0  0  0  0  0  0  0  0  0
    3.1990  -38.8140   -1.3090 C   0  0  0  0  0  0  0  0  0  0  0  0
    3.8340  -38.1160   -0.2990 O   0  0  0  0  0  0  0  0  0  0  0  0
    3.4540  -38.2680   -2.7880 C   0  0  0  0  0  0  0  0  0  0  0  0
    2.9620  -38.7750   -4.0380 C   0  0  0  0  0  0  0  0  0  0  0  0
    2.6420  -39.0340   -5.1130 N   0  0  0  0  0  0  0  0  0  0  0  0
    4.3560  -36.9890   -2.9570 C   0  0  0  0  0  0  0  0  0  0  0  0
    4.5520  -36.4700   -4.0690 O   0  0  0  0  0  0  0  0  0  0  0  0
    4.7430  -36.4430   -1.8120 N   0  0  0  0  0  0  0  0  0  0  0  0
    5.5270  -35.3730   -1.6640 C   0  0  0  0  0  0  0  0  0  0  0  0
    6.4690  -35.0600   -2.6560 C   0  0  0  0  0  0  0  0  0  0  0  0
    7.3130  -33.9650   -2.4030 C   0  0  0  0  0  0  0  0  0  0  0  0
    5.4380  -34.5850   -0.4800 C   0  0  0  0  0  0  0  0  0  0  0  0
    6.2790  -33.4850   -0.2230 C   0  0  0  0  0  0  0  0  0  0  0  0
    7.1870  -33.1570   -1.2420 C   0  0  0  0  0  0  0  0  0  0  0  0
    8.1720  -32.1970   -1.0690 C   0  0  0  0  0  0  0  0  0  0  0  0
    8.7690  -32.2600    0.1970 C   0  0  0  0  0  0  0  0  0  0  0  0
    9.8390  -31.4360    0.5120 C   0  0  0  0  0  0  0  0  0  0  0  0
   10.3650  -30.5770   -0.4650 C   0  0  0  0  0  0  0  0  0  0  0  0
    9.8100  -30.5540   -1.7590 C   0  0  0  0  0  0  0  0  0  0  0  0
    8.7300  -31.3970   -2.0870 C   0  0  0  0  0  0  0  0  0  0  0  0
    2.1767  -42.2548   -0.2945 H   0  0  0  0  0  0  0  0  0  0  0  0
    3.4926  -42.1283   -1.1039 H   0  0  0  0  0  0  0  0  0  0  0  0
    1.9509  -40.5465   -3.0128 H   0  0  0  0  0  0  0  0  0  0  0  0
    0.5963  -40.8993   -2.3297 H   0  0  0  0  0  0  0  0  0  0  0  0
    1.9817  -39.4508    0.0770 H   0  0  0  0  0  0  0  0  0  0  0  0
    3.6398  -38.3294    0.6480 H   0  0  0  0  0  0  0  0  0  0  0  0
    4.4038  -36.8905   -0.9485 H   0  0  0  0  0  0  0  0  0  0  0  0
    6.5432  -35.6430   -3.5858 H   0  0  0  0  0  0  0  0  0  0  0  0
    8.1010  -33.7248   -3.1319 H   0  0  0  0  0  0  0  0  0  0  0  0
    4.6763  -34.8484    0.2687 H   0  0  0  0  0  0  0  0  0  0  0  0
    6.2275  -32.9179    0.7181 H   0  0  0  0  0  0  0  0  0  0  0  0
    8.3862  -32.9683    0.9465 H   0  0  0  0  0  0  0  0  0  0  0  0
   10.2732  -31.4557    1.5225 H   0  0  0  0  0  0  0  0  0  0  0  0
   11.2126  -29.9202   -0.2196 H   0  0  0  0  0  0  0  0  0  0  0  0
   10.2224  -29.8735   -2.5185 H   0  0  0  0  0  0  0  0  0  0  0  0
    8.3320  -31.4302   -3.1119 H   0  0  0  0  0  0  0  0  0  0  0  0
  1  2  1  0
  1  3  1  0
  2  3  1  0
  3  4  1  0
  4  5  1  0
  4  6  2  0
  6  7  1  0
  6  9  1  0
  7  8  3  0
  9 10  2  0
  9 11  1  0
 11 12  1  0
 12 13  2  0
 12 15  1  0
 13 14  1  0
 14 17  2  0
 15 16  2  0
 16 17  1  0
 17 18  1  0
 18 19  2  0
 18 23  1  0
 19 20  1  0
 20 21  2  0
 21 22  1  0
 22 23  2  0
  1 24  1  0
  1 25  1  0
  2 26  1  0
  2 27  1  0
  3 28  1  0
  5 29  1  0
 11 30  1  0
 13 31  1  0
 14 32  1  0
 15 33  1  0
 16 34  1  0
 19 35  1  0
 20 36  1  0
 21 37  1  0
 22 38  1  0
 23 39  1  0
A    1
CAN
A    2
CAO
A    3
CAW
A    4
CAS
A    5
OAC
A    6
CAR
A    7
CAD
A    8
NAA
A    9
CAQ
A   10
OAB
A   11
NAP
A   12
CAT
A   13
CAK
A   14
CAM
A   15
CAJ
A   16
CAL
A   17
CAV
A   18
CAU
A   19
CAH
A   20
CAF
A   21
CAE
A   22
CAG
A   23
CAI
M  END
