3G0Y_P9A_A_413
     RDKit          3D

 61 65  0  0  0  0  0  0  0  0999 V2000
  -25.3850   30.3450    5.3420 O   0  0  0  0  0  0  0  0  0  0  0  0
  -23.1250   33.4700    0.7190 O   0  0  0  0  0  0  0  0  0  0  0  0
  -23.6970   36.5430    3.8610 O   0  0  0  0  0  0  0  0  0  0  0  0
  -26.4230   37.0760    7.1560 O   0  0  0  0  0  0  0  0  0  0  0  0
  -21.8290   36.1680    6.3160 O   0  0  0  0  0  0  0  0  0  0  0  0
  -20.1100   37.6940    7.6670 O   0  0  0  0  0  0  0  0  0  0  0  0
  -21.0000   39.4760    8.7290 O   0  0  0  0  0  0  0  0  0  0  0  0
  -24.3220   35.4960    5.8110 N   0  0  0  0  0  0  0  0  0  0  0  0
  -24.1170   35.5070    4.4580 C   0  0  0  0  0  0  0  0  0  0  0  0
  -24.4140   34.2240    3.7020 C   0  0  0  0  0  0  0  0  0  0  0  0
  -23.1530   33.3820    3.8510 C   0  0  0  0  0  0  0  0  0  0  0  0
  -22.9990   32.1790    2.8980 C   0  0  0  0  0  0  0  0  0  0  0  0
  -23.2410   32.4070    1.3400 C   0  0  0  0  0  0  0  0  0  0  0  0
  -23.6440   31.2190    0.5720 C   0  0  0  0  0  0  0  0  0  0  0  0
  -24.9160   30.6240    1.1520 C   0  0  0  0  0  0  0  0  0  0  0  0
  -24.6950   30.1600    2.5450 C   0  0  0  0  0  0  0  0  0  0  0  0
  -24.1890   31.3220    3.4380 C   0  0  0  0  0  0  0  0  0  0  0  0
  -24.0750   30.8150    4.8880 C   0  0  0  0  0  0  0  0  0  0  0  0
  -23.2270   29.5400    4.9920 C   0  0  0  0  0  0  0  0  0  0  0  0
  -24.1550   28.5790    4.2480 C   0  0  0  0  0  0  0  0  0  0  0  0
  -23.8330   28.8440    2.7580 C   0  0  0  0  0  0  0  0  0  0  0  0
  -26.0470   29.7530    3.1750 C   0  0  0  0  0  0  0  0  0  0  0  0
  -25.6020   29.1600    4.5300 C   0  0  0  0  0  0  0  0  0  0  0  0
  -26.6110   28.2420    5.2430 C   0  0  0  0  0  0  0  0  0  0  0  0
  -21.5280   31.5760    2.9960 C   0  0  0  0  0  0  0  0  0  0  0  0
  -21.0500   38.3840    8.0810 C   0  0  0  0  0  0  0  0  0  0  0  0
  -22.4780   38.0080    7.8270 C   0  0  0  0  0  0  0  0  0  0  0  0
  -22.7540   36.9390    6.9670 C   0  0  0  0  0  0  0  0  0  0  0  0
  -24.0980   36.6190    6.7330 C   0  0  0  0  0  0  0  0  0  0  0  0
  -25.1040   37.3610    7.3570 C   0  0  0  0  0  0  0  0  0  0  0  0
  -24.8070   38.4260    8.2180 C   0  0  0  0  0  0  0  0  0  0  0  0
  -23.5260   38.7410    8.4520 C   0  0  0  0  0  0  0  0  0  0  0  0
  -27.0250   36.9459    7.9311 H   0  0  0  0  0  0  0  0  0  0  0  0
  -21.1813   35.6281    6.8348 H   0  0  0  0  0  0  0  0  0  0  0  0
  -21.0005   39.4646    9.7189 H   0  0  0  0  0  0  0  0  0  0  0  0
  -24.6661   34.6169    6.2228 H   0  0  0  0  0  0  0  0  0  0  0  0
  -25.2793   33.7067    4.1420 H   0  0  0  0  0  0  0  0  0  0  0  0
  -24.6645   34.4125    2.6476 H   0  0  0  0  0  0  0  0  0  0  0  0
  -22.2901   34.0451    3.6908 H   0  0  0  0  0  0  0  0  0  0  0  0
  -23.2192   32.9431    4.8575 H   0  0  0  0  0  0  0  0  0  0  0  0
  -23.8221   31.5065   -0.4747 H   0  0  0  0  0  0  0  0  0  0  0  0
  -22.8411   30.4689    0.6248 H   0  0  0  0  0  0  0  0  0  0  0  0
  -25.7062   31.3892    1.1481 H   0  0  0  0  0  0  0  0  0  0  0  0
  -25.2138   29.7621    0.5369 H   0  0  0  0  0  0  0  0  0  0  0  0
  -24.9506   32.1152    3.4083 H   0  0  0  0  0  0  0  0  0  0  0  0
  -23.6512   31.6524    5.4616 H   0  0  0  0  0  0  0  0  0  0  0  0
  -22.2549   29.6482    4.4887 H   0  0  0  0  0  0  0  0  0  0  0  0
  -22.9490   29.2368    6.0122 H   0  0  0  0  0  0  0  0  0  0  0  0
  -24.0656   27.5169    4.5198 H   0  0  0  0  0  0  0  0  0  0  0  0
  -24.1706   28.0211    2.1108 H   0  0  0  0  0  0  0  0  0  0  0  0
  -22.7641   28.9354    2.5150 H   0  0  0  0  0  0  0  0  0  0  0  0
  -26.7015   30.6258    3.3159 H   0  0  0  0  0  0  0  0  0  0  0  0
  -26.6337   29.0575    2.5569 H   0  0  0  0  0  0  0  0  0  0  0  0
  -26.4960   28.3466    6.3320 H   0  0  0  0  0  0  0  0  0  0  0  0
  -27.6335   28.5260    4.9533 H   0  0  0  0  0  0  0  0  0  0  0  0
  -26.4246   27.1973    4.9533 H   0  0  0  0  0  0  0  0  0  0  0  0
  -21.2484   31.4614    4.0537 H   0  0  0  0  0  0  0  0  0  0  0  0
  -21.5005   30.5941    2.5010 H   0  0  0  0  0  0  0  0  0  0  0  0
  -20.8192   32.2561    2.5010 H   0  0  0  0  0  0  0  0  0  0  0  0
  -25.6165   38.9969    8.6963 H   0  0  0  0  0  0  0  0  0  0  0  0
  -23.2826   39.5712    9.1313 H   0  0  0  0  0  0  0  0  0  0  0  0
 23  1  1  0
 18  1  1  0
  2 13  2  0
  3  9  2  0
  4 30  1  0
  5 28  1  0
  6 26  2  0
 26  7  1  0
  9  8  1  0
  8 29  1  0
 10  9  1  0
 10 11  1  0
 12 11  1  0
 13 12  1  0
 12 25  1  0
 12 17  1  0
 14 13  1  0
 14 15  1  0
 15 16  1  0
 16 21  1  0
 16 22  1  0
 16 17  1  0
 17 18  1  0
 18 19  1  0
 20 19  1  0
 21 20  1  0
 20 23  1  0
 22 23  1  0
 23 24  1  0
 27 26  1  0
 28 27  2  0
 27 32  1  0
 29 28  1  0
 29 30  2  0
 30 31  1  0
 31 32  2  0
  4 33  1  0
  5 34  1  0
  7 35  1  0
  8 36  1  0
 10 37  1  0
 10 38  1  0
 11 39  1  0
 11 40  1  0
 14 41  1  0
 14 42  1  0
 15 43  1  0
 15 44  1  0
 17 45  1  0
 18 46  1  0
 19 47  1  0
 19 48  1  0
 20 49  1  0
 21 50  1  0
 21 51  1  0
 22 52  1  0
 22 53  1  0
 24 54  1  0
 24 55  1  0
 24 56  1  0
 25 57  1  0
 25 58  1  0
 25 59  1  0
 31 60  1  0
 32 61  1  0
A    1
O16
A    2
O19
A    3
O20
A    4
O30
A    5
O31
A    6
O32
A    7
O33
A    8
N28
A    9
C1
A   10
C2
A   11
C3
A   12
C4
A   13
C5
A   14
C6
A   15
C7
A   16
C8
A   17
C9
A   18
C10
A   19
C11
A   20
C12
A   21
C13
A   22
C14
A   23
C15
A   24
C17
A   25
C18
A   26
C21
A   27
C22
A   28
C23
A   29
C24
A   30
C25
A   31
C26
A   32
C27
M  END
