3G11_P9C_A_413
     RDKit          3D

 71 76  0  0  0  0  0  0  0  0999 V2000
   62.7990   37.4710   43.7220 O   0  0  0  0  0  0  0  0  0  0  0  0
   59.0270   36.7280   48.2770 O   0  0  0  0  0  0  0  0  0  0  0  0
   56.5480   38.7060   45.0310 O   0  0  0  0  0  0  0  0  0  0  0  0
   57.7000   41.4350   41.8620 O   0  0  0  0  0  0  0  0  0  0  0  0
   55.9800   37.0530   42.6090 O   0  0  0  0  0  0  0  0  0  0  0  0
   53.7920   36.3060   41.3510 O   0  0  0  0  0  0  0  0  0  0  0  0
   52.7080   37.7870   40.0380 O   0  0  0  0  0  0  0  0  0  0  0  0
   57.8700   38.9170   43.1510 N   0  0  0  0  0  0  0  0  0  0  0  0
   57.7010   38.6580   44.4670 C   0  0  0  0  0  0  0  0  0  0  0  0
   58.9020   38.3010   45.3290 C   0  0  0  0  0  0  0  0  0  0  0  0
   58.9420   36.7930   45.3160 C   0  0  0  0  0  0  0  0  0  0  0  0
   60.1280   36.1770   46.1680 C   0  0  0  0  0  0  0  0  0  0  0  0
   60.0730   36.5950   47.6810 C   0  0  0  0  0  0  0  0  0  0  0  0
   61.3430   36.8420   48.4240 C   0  0  0  0  0  0  0  0  0  0  0  0
   62.5040   35.9830   47.9060 C   0  0  0  0  0  0  0  0  0  0  0  0
   62.7520   36.1400   46.3850 C   0  0  0  0  0  0  0  0  0  0  0  0
   61.4630   36.7380   45.6140 C   0  0  0  0  0  0  0  0  0  0  0  0
   61.7030   36.5690   44.0630 C   0  0  0  0  0  0  0  0  0  0  0  0
   62.2010   35.2010   43.5870 C   0  0  0  0  0  0  0  0  0  0  0  0
   63.6180   35.2180   44.2590 C   0  0  0  0  0  0  0  0  0  0  0  0
   63.2650   34.7510   45.7530 C   0  0  0  0  0  0  0  0  0  0  0  0
   63.8510   37.0930   45.8810 C   0  0  0  0  0  0  0  0  0  0  0  0
   63.9380   36.7580   44.3380 C   0  0  0  0  0  0  0  0  0  0  0  0
   65.2550   37.3590   43.6230 C   0  0  0  0  0  0  0  0  0  0  0  0
   60.0520   34.6220   46.0820 C   0  0  0  0  0  0  0  0  0  0  0  0
   53.6510   37.4430   40.7990 C   0  0  0  0  0  0  0  0  0  0  0  0
   54.6830   38.5960   41.0070 C   0  0  0  0  0  0  0  0  0  0  0  0
   55.7930   38.2800   41.9340 C   0  0  0  0  0  0  0  0  0  0  0  0
   56.7490   39.2750   42.1940 C   0  0  0  0  0  0  0  0  0  0  0  0
   56.6800   40.5280   41.5620 C   0  0  0  0  0  0  0  0  0  0  0  0
   55.6030   40.8450   40.6410 C   0  0  0  0  0  0  0  0  0  0  0  0
   54.6100   39.8660   40.3890 C   0  0  0  0  0  0  0  0  0  0  0  0
   64.2980   37.3670   49.1840 C   0  0  0  0  0  0  0  0  0  0  0  0
   64.3390   34.9000   49.2500 C   0  0  0  0  0  0  0  0  0  0  0  0
   65.4790   37.4850   50.0400 C   0  0  0  0  0  0  0  0  0  0  0  0
   66.0470   36.2790   50.4600 C   0  0  0  0  0  0  0  0  0  0  0  0
   65.5150   35.0040   50.0880 C   0  0  0  0  0  0  0  0  0  0  0  0
   63.7640   36.0770   48.8250 C   0  0  0  0  0  0  0  0  0  0  0  0
   57.9237   41.6340   42.8056 H   0  0  0  0  0  0  0  0  0  0  0  0
   55.9838   37.0281   43.5987 H   0  0  0  0  0  0  0  0  0  0  0  0
   53.8011   36.2328   42.3382 H   0  0  0  0  0  0  0  0  0  0  0  0
   58.8264   38.8678   42.7719 H   0  0  0  0  0  0  0  0  0  0  0  0
   59.8255   38.7181   44.9009 H   0  0  0  0  0  0  0  0  0  0  0  0
   58.8214   38.7083   46.3476 H   0  0  0  0  0  0  0  0  0  0  0  0
   57.9914   36.4174   45.7226 H   0  0  0  0  0  0  0  0  0  0  0  0
   59.1043   36.4859   44.2723 H   0  0  0  0  0  0  0  0  0  0  0  0
   61.6138   37.9027   48.3166 H   0  0  0  0  0  0  0  0  0  0  0  0
   61.1719   36.5726   49.4767 H   0  0  0  0  0  0  0  0  0  0  0  0
   62.1976   34.9297   47.9879 H   0  0  0  0  0  0  0  0  0  0  0  0
   61.3496   37.8154   45.8045 H   0  0  0  0  0  0  0  0  0  0  0  0
   60.7223   36.7475   43.5979 H   0  0  0  0  0  0  0  0  0  0  0  0
   61.5745   34.3788   43.9631 H   0  0  0  0  0  0  0  0  0  0  0  0
   62.1921   35.0434   42.4984 H   0  0  0  0  0  0  0  0  0  0  0  0
   64.4160   34.6319   43.7797 H   0  0  0  0  0  0  0  0  0  0  0  0
   64.1525   34.3694   46.2790 H   0  0  0  0  0  0  0  0  0  0  0  0
   62.5405   33.9256   45.8147 H   0  0  0  0  0  0  0  0  0  0  0  0
   63.5666   38.1434   46.0414 H   0  0  0  0  0  0  0  0  0  0  0  0
   64.8090   36.9635   46.4058 H   0  0  0  0  0  0  0  0  0  0  0  0
   65.9719   37.6861   44.3905 H   0  0  0  0  0  0  0  0  0  0  0  0
   65.7180   36.5831   42.9957 H   0  0  0  0  0  0  0  0  0  0  0  0
   64.9723   38.2172   42.9957 H   0  0  0  0  0  0  0  0  0  0  0  0
   60.0313   34.1992   47.0973 H   0  0  0  0  0  0  0  0  0  0  0  0
   59.1384   34.3287   45.5440 H   0  0  0  0  0  0  0  0  0  0  0  0
   60.9326   34.2410   45.5440 H   0  0  0  0  0  0  0  0  0  0  0  0
   55.5588   41.8273   40.1479 H   0  0  0  0  0  0  0  0  0  0  0  0
   53.7769   40.0953   39.7083 H   0  0  0  0  0  0  0  0  0  0  0  0
   63.8094   38.2781   48.8081 H   0  0  0  0  0  0  0  0  0  0  0  0
   63.9225   33.9226   48.9649 H   0  0  0  0  0  0  0  0  0  0  0  0
   65.8933   38.4606   50.3341 H   0  0  0  0  0  0  0  0  0  0  0  0
   66.9392   36.3114   51.1026 H   0  0  0  0  0  0  0  0  0  0  0  0
   66.0077   34.0875   50.4446 H   0  0  0  0  0  0  0  0  0  0  0  0
  1 18  1  0
  1 23  1  0
 13  2  2  0
  9  3  2  0
 30  4  1  0
 28  5  1  0
 26  6  1  0
  7 26  2  0
 29  8  1  0
  8  9  1  0
  9 10  1  0
 10 11  1  0
 11 12  1  0
 17 12  1  0
 25 12  1  0
 12 13  1  0
 13 14  1  0
 15 14  1  0
 16 15  1  0
 15 38  1  0
 17 16  1  0
 21 16  1  0
 22 16  1  0
 18 17  1  0
 19 18  1  0
 19 20  1  0
 20 23  1  0
 20 21  1  0
 23 22  1  0
 24 23  1  0
 26 27  1  0
 32 27  2  0
 27 28  1  0
 28 29  2  0
 30 29  1  0
 31 30  2  0
 32 31  1  0
 38 33  2  0
 33 35  1  0
 38 34  1  0
 34 37  2  0
 35 36  2  0
 37 36  1  0
  4 39  1  0
  5 40  1  0
  6 41  1  0
  8 42  1  0
 10 43  1  0
 10 44  1  0
 11 45  1  0
 11 46  1  0
 14 47  1  0
 14 48  1  0
 15 49  1  0
 17 50  1  0
 18 51  1  0
 19 52  1  0
 19 53  1  0
 20 54  1  0
 21 55  1  0
 21 56  1  0
 22 57  1  0
 22 58  1  0
 24 59  1  0
 24 60  1  0
 24 61  1  0
 25 62  1  0
 25 63  1  0
 25 64  1  0
 31 65  1  0
 32 66  1  0
 33 67  1  0
 34 68  1  0
 35 69  1  0
 36 70  1  0
 37 71  1  0
A    1
O16
A    2
O19
A    3
O20
A    4
O30
A    5
O31
A    6
O32
A    7
O33
A    8
N28
A    9
C1
A   10
C2
A   11
C3
A   12
C4
A   13
C5
A   14
C6
A   15
C7
A   16
C8
A   17
C9
A   18
C10
A   19
C11
A   20
C12
A   21
C13
A   22
C14
A   23
C15
A   24
C17
A   25
C18
A   26
C21
A   27
C22
A   28
C23
A   29
C24
A   30
C25
A   31
C26
A   32
C27
A   33
C34
A   34
C35
A   35
C36
A   36
C37
A   37
C38
A   38
C39
M  END
