3G3N_TC8_A_3
     RDKit          3D

 31 33  0  0  0  0  0  0  0  0999 V2000
  -43.5720  -26.3710   10.6320 C   0  0  0  0  0  0  0  0  0  0  0  0
  -44.7600  -25.2300    9.9550 S   0  0  0  0  0  0  0  0  0  0  0  0
  -45.9510  -26.2090    9.1310 C   0  0  0  0  0  0  0  0  0  0  0  0
  -45.8890  -27.5450    9.2300 N   0  0  0  0  0  0  0  0  0  0  0  0
  -46.7790  -28.3350    8.6130 C   0  0  0  0  0  0  0  0  0  0  0  0
  -46.6700  -29.7160    8.7320 C   0  0  0  0  0  0  0  0  0  0  0  0
  -47.5800  -30.5440    8.0850 C   0  0  0  0  0  0  0  0  0  0  0  0
  -48.6020  -29.9930    7.3190 C   0  0  0  0  0  0  0  0  0  0  0  0
  -48.7130  -28.6120    7.2010 C   0  0  0  0  0  0  0  0  0  0  0  0
  -47.8010  -27.7850    7.8480 C   0  0  0  0  0  0  0  0  0  0  0  0
  -47.8970  -26.4030    7.7260 C   0  0  0  0  0  0  0  0  0  0  0  0
  -48.8080  -25.8980    7.0710 O   0  0  0  0  0  0  0  0  0  0  0  0
  -46.9570  -25.5960    8.3750 N   0  0  0  0  0  0  0  0  0  0  0  0
  -47.0160  -24.1990    8.2800 C   0  0  0  0  0  0  0  0  0  0  0  0
  -47.7030  -23.4660    9.2430 C   0  0  0  0  0  0  0  0  0  0  0  0
  -48.3140  -24.0950   10.2670 F   0  0  0  0  0  0  0  0  0  0  0  0
  -47.7620  -22.0800    9.1580 C   0  0  0  0  0  0  0  0  0  0  0  0
  -47.1360  -21.4170    8.1090 C   0  0  0  0  0  0  0  0  0  0  0  0
  -46.4480  -22.1460    7.1450 C   0  0  0  0  0  0  0  0  0  0  0  0
  -46.3870  -23.5320    7.2330 C   0  0  0  0  0  0  0  0  0  0  0  0
  -45.6910  -24.2180    6.3050 F   0  0  0  0  0  0  0  0  0  0  0  0
  -43.6117  -26.3328   11.7306 H   0  0  0  0  0  0  0  0  0  0  0  0
  -43.8074  -27.3902   10.2918 H   0  0  0  0  0  0  0  0  0  0  0  0
  -42.5631  -26.0947   10.2918 H   0  0  0  0  0  0  0  0  0  0  0  0
  -45.8633  -30.1536    9.3384 H   0  0  0  0  0  0  0  0  0  0  0  0
  -47.4918  -31.6364    8.1789 H   0  0  0  0  0  0  0  0  0  0  0  0
  -49.3215  -30.6490    6.8072 H   0  0  0  0  0  0  0  0  0  0  0  0
  -49.5211  -28.1741    6.5967 H   0  0  0  0  0  0  0  0  0  0  0  0
  -48.3056  -21.5062    9.9230 H   0  0  0  0  0  0  0  0  0  0  0  0
  -47.1846  -20.3201    8.0416 H   0  0  0  0  0  0  0  0  0  0  0  0
  -45.9519  -21.6256    6.3125 H   0  0  0  0  0  0  0  0  0  0  0  0
  1  2  1  0
  2  3  1  0
  3  4  2  0
  3 13  1  0
  4  5  1  0
  5  6  2  0
  5 10  1  0
  6  7  1  0
  7  8  2  0
  8  9  1  0
  9 10  2  0
 10 11  1  0
 11 12  2  0
 11 13  1  0
 13 14  1  0
 14 15  2  0
 14 20  1  0
 15 16  1  0
 15 17  1  0
 17 18  2  0
 18 19  1  0
 19 20  2  0
 20 21  1  0
  1 22  1  0
  1 23  1  0
  1 24  1  0
  6 25  1  0
  7 26  1  0
  8 27  1  0
  9 28  1  0
 17 29  1  0
 18 30  1  0
 19 31  1  0
A    1
C1
A    2
S2
A    3
C3
A    4
N4
A    5
C5
A    6
C6
A    7
C7
A    8
C8
A    9
C9
A   10
C10
A   11
C11
A   12
O12
A   13
N13
A   14
C14
A   15
C15
A   16
F16
A   17
C17
A   18
C18
A   19
C19
A   20
C20
A   21
F21
M  END
