3G42_792_A_1
     RDKit          3D

 49 51  0  0  0  0  0  0  0  0999 V2000
   56.1730   33.8870   99.6560 C   0  0  0  0  0  0  0  0  0  0  0  0
   56.2650   33.2780  100.9540 C   0  0  0  0  0  0  0  0  0  0  0  0
   55.2550   32.3460  101.4160 C   0  0  0  0  0  0  0  0  0  0  0  0
   54.1450   32.0320  100.5520 C   0  0  0  0  0  0  0  0  0  0  0  0
   54.0660   32.6450   99.2580 C   0  0  0  0  0  0  0  0  0  0  0  0
   55.0700   33.5690   98.8080 C   0  0  0  0  0  0  0  0  0  0  0  0
   54.0920   32.5660  107.2620 S   0  0  0  0  0  0  0  0  0  0  0  0
   52.4070   33.1170  107.4550 C   0  0  0  0  0  0  0  0  0  0  0  0
   51.3710   32.1540  107.6780 C   0  0  0  0  0  0  0  0  0  0  0  0
   50.0210   32.5950  107.8320 C   0  0  0  0  0  0  0  0  0  0  0  0
   49.7080   33.9880  107.7660 C   0  0  0  0  0  0  0  0  0  0  0  0
   50.7540   34.9670  107.5410 C   0  0  0  0  0  0  0  0  0  0  0  0
   52.1110   34.5270  107.3850 C   0  0  0  0  0  0  0  0  0  0  0  0
   48.3410   34.3300  107.9240 O   0  0  0  0  0  0  0  0  0  0  0  0
   47.9380   35.1790  109.0130 C   0  0  0  0  0  0  0  0  0  0  0  0
   48.0140   34.4930  110.3260 C   0  0  0  0  0  0  0  0  0  0  0  0
   48.0940   33.9860  111.4000 C   0  0  0  0  0  0  0  0  0  0  0  0
   54.9420   33.5390  107.8800 O   0  0  0  0  0  0  0  0  0  0  0  0
   54.1780   31.2360  107.8120 O   0  0  0  0  0  0  0  0  0  0  0  0
   57.1980   33.3900  101.9730 N   0  0  0  0  0  0  0  0  0  0  0  0
   56.8380   32.6060  103.0180 C   0  0  0  0  0  0  0  0  0  0  0  0
   55.6390   31.9210  102.7590 C   0  0  0  0  0  0  0  0  0  0  0  0
   54.9230   30.9430  103.7130 C   0  0  0  0  0  0  0  0  0  0  0  0
   53.8490   31.5800  104.6630 C   0  0  0  0  0  0  0  0  0  0  0  0
   52.7730   32.2770  103.8560 C   0  0  0  0  0  0  0  0  0  0  0  0
   54.4980   32.4920  105.6450 N   0  0  0  0  0  0  0  0  0  0  0  0
   52.8860   33.4840  103.6660 O   0  0  0  0  0  0  0  0  0  0  0  0
   51.8520   31.6040  103.3960 O   0  0  0  0  0  0  0  0  0  0  0  0
   52.9310   32.3210   98.3790 C   0  0  0  0  0  0  0  0  0  0  0  0
   56.9464   34.5926   99.3185 H   0  0  0  0  0  0  0  0  0  0  0  0
   53.3660   31.3290  100.8820 H   0  0  0  0  0  0  0  0  0  0  0  0
   54.9888   34.0301   97.8126 H   0  0  0  0  0  0  0  0  0  0  0  0
   51.6130   31.0822  107.7304 H   0  0  0  0  0  0  0  0  0  0  0  0
   49.2201   31.8604  108.0019 H   0  0  0  0  0  0  0  0  0  0  0  0
   50.5092   36.0382  107.4903 H   0  0  0  0  0  0  0  0  0  0  0  0
   52.9162   35.2566  107.2140 H   0  0  0  0  0  0  0  0  0  0  0  0
   48.5969   36.0595  109.0363 H   0  0  0  0  0  0  0  0  0  0  0  0
   46.8888   35.4634  108.8446 H   0  0  0  0  0  0  0  0  0  0  0  0
   48.1679   33.5175  112.3925 H   0  0  0  0  0  0  0  0  0  0  0  0
   58.0405   33.9817  101.9407 H   0  0  0  0  0  0  0  0  0  0  0  0
   57.4124   32.5171  103.9519 H   0  0  0  0  0  0  0  0  0  0  0  0
   54.4213   30.1798  103.0999 H   0  0  0  0  0  0  0  0  0  0  0  0
   55.7061   30.5421  104.3733 H   0  0  0  0  0  0  0  0  0  0  0  0
   53.3573   30.7808  105.2370 H   0  0  0  0  0  0  0  0  0  0  0  0
   54.3558   33.4438  105.2779 H   0  0  0  0  0  0  0  0  0  0  0  0
   52.9440   34.1031  104.4364 H   0  0  0  0  0  0  0  0  0  0  0  0
   52.0526   32.0702   98.9918 H   0  0  0  0  0  0  0  0  0  0  0  0
   52.6995   33.1889   97.7441 H   0  0  0  0  0  0  0  0  0  0  0  0
   53.1926   31.4616   97.7441 H   0  0  0  0  0  0  0  0  0  0  0  0
  6  1  2  0
  1  2  1  0
  3  2  2  0
  2 20  1  0
  4  3  1  0
  3 22  1  0
  5  4  2  0
 29  5  1  0
  5  6  1  0
 26  7  1  0
 19  7  2  0
  7  8  1  0
  7 18  2  0
  9  8  2  0
  8 13  1  0
  9 10  1  0
 10 11  2  0
 11 14  1  0
 11 12  1  0
 13 12  2  0
 14 15  1  0
 15 16  1  0
 16 17  3  0
 21 20  1  0
 22 21  2  0
 23 22  1  0
 23 24  1  0
 24 25  1  0
 24 26  1  0
 28 25  2  0
 25 27  1  0
  1 30  1  0
  4 31  1  0
  6 32  1  0
  9 33  1  0
 10 34  1  0
 12 35  1  0
 13 36  1  0
 15 37  1  0
 15 38  1  0
 17 39  1  0
 20 40  1  0
 21 41  1  0
 23 42  1  0
 23 43  1  0
 24 44  1  0
 26 45  1  0
 27 46  1  0
 29 47  1  0
 29 48  1  0
 29 49  1  0
A    1
C1
A    2
C2
A    3
C3
A    4
C4
A    5
C5
A    6
C6
A    7
S7
A    8
C8
A    9
C9
A   10
C10
A   11
C11
A   12
C12
A   13
C13
A   14
O14
A   15
C15
A   16
C16
A   17
C17
A   18
O19
A   19
O20
A   20
N21
A   21
C22
A   22
C23
A   23
C24
A   24
C25
A   25
C26
A   26
N27
A   27
O28
A   28
O29
A   29
C48
M  END
