3G4U_0CL_A_151
     RDKit          3D

 11 10  0  0  0  0  0  0  0  0999 V2000
   37.2790   -0.4540   35.3780 Cl  0  0  0  0  0  0  0  0  0  0  0  0
   38.7150   -0.6480   34.3150 C   0  0  0  0  0  0  0  0  0  0  0  0
   38.3880   -0.1120   32.9240 C   0  0  0  0  0  0  0  0  0  0  0  0
   39.6420   -0.2780   32.0430 C   0  0  0  0  0  0  0  0  0  0  0  0
   40.5880    1.2510   32.1160 Cl  0  0  0  0  0  0  0  0  0  0  0  0
   39.5622   -0.0864   34.7355 H   0  0  0  0  0  0  0  0  0  0  0  0
   38.9820   -1.7129   34.2465 H   0  0  0  0  0  0  0  0  0  0  0  0
   37.5506   -0.6799   32.4924 H   0  0  0  0  0  0  0  0  0  0  0  0
   38.0984    0.9477   32.9810 H   0  0  0  0  0  0  0  0  0  0  0  0
   40.2530   -1.1120   32.4186 H   0  0  0  0  0  0  0  0  0  0  0  0
   39.3505   -0.4949   31.0047 H   0  0  0  0  0  0  0  0  0  0  0  0
  2  1  1  0
  3  2  1  0
  4  3  1  0
  4  5  1  0
  2  6  1  0
  2  7  1  0
  3  8  1  0
  3  9  1  0
  4 10  1  0
  4 11  1  0
A    1
CL1
A    2
C2
A    3
C3
A    4
C4
A    5
CL5
M  END
