3G52_CEE_A_150
     RDKit          3D

 18 18  0  0  0  0  0  0  0  0999 V2000
   39.9020    0.4410   32.8410 C   0  0  0  0  0  0  0  0  0  0  0  0
   39.8160    1.1220   31.6250 C   0  0  0  0  0  0  0  0  0  0  0  0
   40.5670    2.3170   31.4220 C   0  0  0  0  0  0  0  0  0  0  0  0
   41.4170    2.8380   32.4490 C   0  0  0  0  0  0  0  0  0  0  0  0
   41.4920    2.1470   33.6960 C   0  0  0  0  0  0  0  0  0  0  0  0
   40.7480    0.9670   33.8910 C   0  0  0  0  0  0  0  0  0  0  0  0
   39.1000   -0.7960   33.0390 C   0  0  0  0  0  0  0  0  0  0  0  0
   38.2720   -0.3110   34.2370 C   0  0  0  0  0  0  0  0  0  0  0  0
   37.0660   -1.3740   34.8590 Cl  0  0  0  0  0  0  0  0  0  0  0  0
   39.1687    0.7365   30.8235 H   0  0  0  0  0  0  0  0  0  0  0  0
   40.4919    2.8468   30.4609 H   0  0  0  0  0  0  0  0  0  0  0  0
   42.0019    3.7543   32.2805 H   0  0  0  0  0  0  0  0  0  0  0  0
   42.1300    2.5356   34.5035 H   0  0  0  0  0  0  0  0  0  0  0  0
   40.8107    0.4384   34.8536 H   0  0  0  0  0  0  0  0  0  0  0  0
   38.4739   -1.0329   32.1661 H   0  0  0  0  0  0  0  0  0  0  0  0
   39.6683   -1.7264   33.1849 H   0  0  0  0  0  0  0  0  0  0  0  0
   38.9740   -0.0952   35.0559 H   0  0  0  0  0  0  0  0  0  0  0  0
   37.7104    0.5544   33.8553 H   0  0  0  0  0  0  0  0  0  0  0  0
  2  1  2  0
  1  7  1  0
  1  6  1  0
  3  2  1  0
  3  4  2  0
  4  5  1  0
  5  6  2  0
  7  8  1  0
  8  9  1  0
  2 10  1  0
  3 11  1  0
  4 12  1  0
  5 13  1  0
  6 14  1  0
  7 15  1  0
  7 16  1  0
  8 17  1  0
  8 18  1  0
A    1
C1
A    2
C2
A    3
C3
A    4
C4
A    5
C5
A    6
C6
A    7
C1'
A    8
C2'
A    9
CL1
M  END
