3G53_LT1_A_150
     RDKit          3D

 21 21  0  0  0  0  0  0  0  0999 V2000
   37.3760   -1.0870   34.7760 C   0  0  0  0  0  0  0  0  0  0  0  0
   38.3330   -0.0320   34.2960 C   0  0  0  0  0  0  0  0  0  0  0  0
   38.9130   -0.4800   32.9680 C   0  0  0  0  0  0  0  0  0  0  0  0
   39.7800    0.6520   32.5410 C   0  0  0  0  0  0  0  0  0  0  0  0
   39.3150    1.4520   31.5140 C   0  0  0  0  0  0  0  0  0  0  0  0
   40.0640    2.5360   31.1080 C   0  0  0  0  0  0  0  0  0  0  0  0
   41.2700    2.8280   31.7220 C   0  0  0  0  0  0  0  0  0  0  0  0
   41.7380    2.0120   32.7500 C   0  0  0  0  0  0  0  0  0  0  0  0
   40.9910    0.9150   33.1710 C   0  0  0  0  0  0  0  0  0  0  0  0
   36.7430   -0.4940   36.3390 Cl  0  0  0  0  0  0  0  0  0  0  0  0
   36.5556   -1.2169   34.0548 H   0  0  0  0  0  0  0  0  0  0  0  0
   37.8702   -2.0638   34.8833 H   0  0  0  0  0  0  0  0  0  0  0  0
   37.8001    0.9215   34.1659 H   0  0  0  0  0  0  0  0  0  0  0  0
   39.1385    0.1103   35.0314 H   0  0  0  0  0  0  0  0  0  0  0  0
   39.5054   -1.3985   33.0922 H   0  0  0  0  0  0  0  0  0  0  0  0
   38.1335   -0.7131   32.2277 H   0  0  0  0  0  0  0  0  0  0  0  0
   38.3560    1.2258   31.0251 H   0  0  0  0  0  0  0  0  0  0  0  0
   39.7003    3.1743   30.2893 H   0  0  0  0  0  0  0  0  0  0  0  0
   41.8566    3.7009   31.3995 H   0  0  0  0  0  0  0  0  0  0  0  0
   42.7017    2.2355   33.2310 H   0  0  0  0  0  0  0  0  0  0  0  0
   41.3517    0.2696   33.9855 H   0  0  0  0  0  0  0  0  0  0  0  0
  2  1  1  0
  1 10  1  0
  3  2  1  0
  4  3  1  0
  5  4  2  0
  4  9  1  0
  6  5  1  0
  6  7  2  0
  7  8  1  0
  8  9  2  0
  1 11  1  0
  1 12  1  0
  2 13  1  0
  2 14  1  0
  3 15  1  0
  3 16  1  0
  5 17  1  0
  6 18  1  0
  7 19  1  0
  8 20  1  0
  9 21  1  0
A    1
C1
A    2
C2
A    3
C3
A    4
C4
A    5
C5
A    6
C6
A    7
C7
A    8
C8
A    9
C9
A   10
CL1
M  END
