3G5E_Q74_A_320
     RDKit          3D

 36 39  0  0  0  0  0  0  0  0999 V2000
   16.5870   -2.4300    9.0210 F   0  0  0  0  0  0  0  0  0  0  0  0
   16.5340   -3.3660   10.0020 C   0  0  0  0  0  0  0  0  0  0  0  0
   17.6910   -3.6870   10.7120 C   0  0  0  0  0  0  0  0  0  0  0  0
   18.8640   -3.1110   10.4600 F   0  0  0  0  0  0  0  0  0  0  0  0
   15.3340   -3.9930   10.3260 C   0  0  0  0  0  0  0  0  0  0  0  0
   15.3240   -4.9500   11.3660 C   0  0  0  0  0  0  0  0  0  0  0  0
   14.1550   -5.5460   11.6490 F   0  0  0  0  0  0  0  0  0  0  0  0
   16.5120   -5.2520   12.0580 C   0  0  0  0  0  0  0  0  0  0  0  0
   17.6920   -4.6030   11.7310 C   0  0  0  0  0  0  0  0  0  0  0  0
   18.7280   -5.0260   12.5130 N   0  0  0  0  0  0  0  0  0  0  0  0
   16.6510   -6.3490   13.3560 S   0  0  0  0  0  0  0  0  0  0  0  0
   18.3670   -5.9540   13.4130 C   0  0  0  0  0  0  0  0  0  0  0  0
   19.2440   -6.6510   14.4600 C   0  0  0  0  0  0  0  0  0  0  0  0
   18.4030   -7.2780   15.5330 C   0  0  0  0  0  0  0  0  0  0  0  0
   17.9140   -8.5710   15.5830 C   0  0  0  0  0  0  0  0  0  0  0  0
   18.0370   -9.6880   14.7510 C   0  0  0  0  0  0  0  0  0  0  0  0
   17.9230   -6.6200   16.6720 C   0  0  0  0  0  0  0  0  0  0  0  0
   17.1720   -7.4430   17.4160 N   0  0  0  0  0  0  0  0  0  0  0  0
   16.5000   -7.1210   18.6850 C   0  0  0  0  0  0  0  0  0  0  0  0
   15.4390   -6.0850   18.4190 C   0  0  0  0  0  0  0  0  0  0  0  0
   15.1320   -5.8080   17.2450 O   0  0  0  0  0  0  0  0  0  0  0  0
   14.9180   -5.5410   19.3960 O   0  0  0  0  0  0  0  0  0  0  0  0
   17.1160   -8.6470   16.8210 C   0  0  0  0  0  0  0  0  0  0  0  0
   16.5130   -9.8070   17.1450 N   0  0  0  0  0  0  0  0  0  0  0  0
   16.6340  -10.8930   16.3380 C   0  0  0  0  0  0  0  0  0  0  0  0
   17.3810  -10.8530   15.1560 C   0  0  0  0  0  0  0  0  0  0  0  0
   14.4098   -3.7479    9.7821 H   0  0  0  0  0  0  0  0  0  0  0  0
   19.8403   -7.4330   13.9671 H   0  0  0  0  0  0  0  0  0  0  0  0
   19.9013   -5.9003   14.9231 H   0  0  0  0  0  0  0  0  0  0  0  0
   18.6230   -9.6511   13.8208 H   0  0  0  0  0  0  0  0  0  0  0  0
   18.1339   -5.5698   16.9220 H   0  0  0  0  0  0  0  0  0  0  0  0
   16.0361   -8.0284   19.0991 H   0  0  0  0  0  0  0  0  0  0  0  0
   17.2313   -6.7320   19.4088 H   0  0  0  0  0  0  0  0  0  0  0  0
   14.4095   -5.1561   17.0629 H   0  0  0  0  0  0  0  0  0  0  0  0
   16.1310  -11.8292   16.6217 H   0  0  0  0  0  0  0  0  0  0  0  0
   17.4533  -11.7567   14.5331 H   0  0  0  0  0  0  0  0  0  0  0  0
  1  2  1  0
  2  3  2  0
  2  5  1  0
  3  4  1  0
  3  9  1  0
  5  6  2  0
  6  7  1  0
  6  8  1  0
  8  9  2  0
  8 11  1  0
  9 10  1  0
 10 12  2  0
 11 12  1  0
 12 13  1  0
 13 14  1  0
 14 15  1  0
 14 17  2  0
 15 16  2  0
 15 23  1  0
 16 26  1  0
 17 18  1  0
 18 19  1  0
 18 23  1  0
 19 20  1  0
 20 21  1  0
 20 22  2  0
 23 24  2  0
 24 25  1  0
 25 26  2  0
  5 27  1  0
 13 28  1  0
 13 29  1  0
 16 30  1  0
 17 31  1  0
 19 32  1  0
 19 33  1  0
 21 34  1  0
 25 35  1  0
 26 36  1  0
A    1
F1
A    2
C2
A    3
C3
A    4
F4
A    5
C5
A    6
C6
A    7
F7
A    8
C8
A    9
C9
A   10
N10
A   11
S11
A   12
C12
A   13
C13
A   14
C14
A   15
C15
A   16
C16
A   17
C17
A   18
N18
A   19
C19
A   20
C20
A   21
O21
A   22
O22
A   23
C23
A   24
N24
A   25
C25
A   26
C26
M  END
