3G70_A5T_A_342
     RDKit          3D

 75 80  0  0  0  0  0  0  0  0999 V2000
   -2.3890    5.6060    3.9480 Cl  0  0  0  0  0  0  0  0  0  0  0  0
   -0.6840    5.6200    4.4970 C   0  0  0  0  0  0  0  0  0  0  0  0
    0.3190    5.4440    3.5600 C   0  0  0  0  0  0  0  0  0  0  0  0
   -0.1150    5.1910    1.8440 Cl  0  0  0  0  0  0  0  0  0  0  0  0
   -0.3540    5.8280    5.8400 C   0  0  0  0  0  0  0  0  0  0  0  0
    0.9810    5.8310    6.2450 C   0  0  0  0  0  0  0  0  0  0  0  0
    1.9830    5.6330    5.2910 C   0  0  0  0  0  0  0  0  0  0  0  0
    1.6550    5.4450    3.9530 C   0  0  0  0  0  0  0  0  0  0  0  0
    2.6910    5.2330    2.8780 C   0  0  0  0  0  0  0  0  0  0  0  0
    4.0510    5.6960    3.1270 N   0  0  0  0  0  0  0  0  0  0  0  0
    4.2690    7.0630    2.5970 C   0  0  0  0  0  0  0  0  0  0  0  0
    3.4040    8.0690    3.3630 C   0  0  0  0  0  0  0  0  0  0  0  0
    4.8810    7.9540    3.6740 C   0  0  0  0  0  0  0  0  0  0  0  0
    4.9680    4.8770    3.6990 C   0  0  0  0  0  0  0  0  0  0  0  0
    4.6410    3.7320    4.0830 O   0  0  0  0  0  0  0  0  0  0  0  0
    6.3890    5.2640    3.9070 C   0  0  0  0  0  0  0  0  0  0  0  0
    6.8960    5.2820    5.3310 C   0  0  0  0  0  0  0  0  0  0  0  0
    8.0530    6.1670    5.4800 N   0  0  0  0  0  0  0  0  0  0  0  0
    9.1410    5.7470    4.6250 C   0  0  0  0  0  0  0  0  0  0  0  0
    8.7220    5.8900    3.1520 C   0  0  0  0  0  0  0  0  0  0  0  0
    7.2750    3.8680    5.7810 C   0  0  0  0  0  0  0  0  0  0  0  0
    8.3870    3.3880    4.9600 N   0  0  0  0  0  0  0  0  0  0  0  0
    9.5380    4.3010    4.9800 C   0  0  0  0  0  0  0  0  0  0  0  0
    7.2500    5.5370    2.8780 C   0  0  0  0  0  0  0  0  0  0  0  0
    6.8720    5.5410    1.4050 C   0  0  0  0  0  0  0  0  0  0  0  0
    6.0470    4.5670    0.8310 C   0  0  0  0  0  0  0  0  0  0  0  0
    5.7350    4.6150   -0.5280 C   0  0  0  0  0  0  0  0  0  0  0  0
    7.3920    6.5440    0.5780 C   0  0  0  0  0  0  0  0  0  0  0  0
    7.1070    6.5900   -0.7810 C   0  0  0  0  0  0  0  0  0  0  0  0
    6.2780    5.6180   -1.3380 C   0  0  0  0  0  0  0  0  0  0  0  0
    5.9510    5.6690   -2.7840 C   0  0  0  0  0  0  0  0  0  0  0  0
    4.7380    6.0670   -3.1990 C   0  0  0  0  0  0  0  0  0  0  0  0
    3.8590    6.9630   -2.3650 C   0  0  0  0  0  0  0  0  0  0  0  0
    3.2180    8.0010   -3.1320 O   0  0  0  0  0  0  0  0  0  0  0  0
    1.8610    8.0410   -2.8180 C   0  0  0  0  0  0  0  0  0  0  0  0
    1.3300    7.8870   -1.5340 C   0  0  0  0  0  0  0  0  0  0  0  0
    2.1240    7.6740   -0.4840 F   0  0  0  0  0  0  0  0  0  0  0  0
    0.9770    8.2530   -3.8470 C   0  0  0  0  0  0  0  0  0  0  0  0
    1.7120    8.4620   -5.4750 Cl  0  0  0  0  0  0  0  0  0  0  0  0
   -0.3990    8.3000   -3.6140 C   0  0  0  0  0  0  0  0  0  0  0  0
   -1.2690    8.5130   -4.6110 F   0  0  0  0  0  0  0  0  0  0  0  0
   -0.9170    8.1460   -2.3410 C   0  0  0  0  0  0  0  0  0  0  0  0
   -0.0420    7.9250   -1.2960 C   0  0  0  0  0  0  0  0  0  0  0  0
   -1.1510    5.9900    6.5807 H   0  0  0  0  0  0  0  0  0  0  0  0
    1.2418    5.9873    7.3022 H   0  0  0  0  0  0  0  0  0  0  0  0
    3.0384    5.6258    5.6008 H   0  0  0  0  0  0  0  0  0  0  0  0
    2.7453    4.1511    2.6870 H   0  0  0  0  0  0  0  0  0  0  0  0
    2.3425    5.8536    2.0393 H   0  0  0  0  0  0  0  0  0  0  0  0
    4.4792    6.8476    1.5390 H   0  0  0  0  0  0  0  0  0  0  0  0
    3.0179    8.9633    2.8519 H   0  0  0  0  0  0  0  0  0  0  0  0
    2.4783    8.0065    3.9539 H   0  0  0  0  0  0  0  0  0  0  0  0
    5.2081    7.5153    4.6282 H   0  0  0  0  0  0  0  0  0  0  0  0
    5.7228    8.6612    3.7082 H   0  0  0  0  0  0  0  0  0  0  0  0
    6.0823    5.6653    5.9642 H   0  0  0  0  0  0  0  0  0  0  0  0
    7.7775    7.1268    5.2274 H   0  0  0  0  0  0  0  0  0  0  0  0
   10.0232    6.3852    4.7815 H   0  0  0  0  0  0  0  0  0  0  0  0
    8.8894    6.9331    2.8454 H   0  0  0  0  0  0  0  0  0  0  0  0
    9.3305    5.1746    2.5794 H   0  0  0  0  0  0  0  0  0  0  0  0
    7.5784    3.8865    6.8382 H   0  0  0  0  0  0  0  0  0  0  0  0
    6.4110    3.1972    5.6647 H   0  0  0  0  0  0  0  0  0  0  0  0
    8.6879    2.4696    5.3163 H   0  0  0  0  0  0  0  0  0  0  0  0
   10.2821    3.9488    4.2504 H   0  0  0  0  0  0  0  0  0  0  0  0
    9.9481    4.3046    6.0007 H   0  0  0  0  0  0  0  0  0  0  0  0
    5.6416    3.7576    1.4560 H   0  0  0  0  0  0  0  0  0  0  0  0
    5.0608    3.8628   -0.9634 H   0  0  0  0  0  0  0  0  0  0  0  0
    8.0429    7.3154    1.0155 H   0  0  0  0  0  0  0  0  0  0  0  0
    7.5314    7.3856   -1.4110 H   0  0  0  0  0  0  0  0  0  0  0  0
    6.6804    6.3497   -3.2472 H   0  0  0  0  0  0  0  0  0  0  0  0
    5.9751    4.6093   -3.0782 H   0  0  0  0  0  0  0  0  0  0  0  0
    4.8967    6.5931   -4.1519 H   0  0  0  0  0  0  0  0  0  0  0  0
    4.1731    5.1231   -3.1945 H   0  0  0  0  0  0  0  0  0  0  0  0
    3.0807    6.3468   -1.8912 H   0  0  0  0  0  0  0  0  0  0  0  0
    4.5041    7.4555   -1.6225 H   0  0  0  0  0  0  0  0  0  0  0  0
   -2.0016    8.1984   -2.1650 H   0  0  0  0  0  0  0  0  0  0  0  0
   -0.4280    7.7791   -0.2764 H   0  0  0  0  0  0  0  0  0  0  0  0
  1  2  1  0
  3  2  2  0
  2  5  1  0
  4  3  1  0
  3  8  1  0
  5  6  2  0
  7  6  1  0
  8  7  2  0
  9  8  1  0
  9 10  1  0
 11 10  1  0
 10 14  1  0
 11 12  1  0
 11 13  1  0
 12 13  1  0
 14 16  1  0
 14 15  2  0
 24 16  2  0
 16 17  1  0
 17 18  1  0
 17 21  1  0
 19 18  1  0
 20 19  1  0
 19 23  1  0
 24 20  1  0
 22 21  1  0
 22 23  1  0
 25 24  1  0
 28 25  1  0
 26 25  2  0
 27 26  1  0
 30 27  2  0
 29 28  2  0
 30 29  1  0
 31 30  1  0
 32 31  1  0
 32 33  1  0
 34 33  1  0
 34 35  1  0
 38 35  1  0
 35 36  2  0
 36 43  1  0
 36 37  1  0
 39 38  1  0
 38 40  2  0
 41 40  1  0
 40 42  1  0
 42 43  2  0
  5 44  1  0
  6 45  1  0
  7 46  1  0
  9 47  1  0
  9 48  1  0
 11 49  1  0
 12 50  1  0
 12 51  1  0
 13 52  1  0
 13 53  1  0
 17 54  1  0
 18 55  1  0
 19 56  1  0
 20 57  1  0
 20 58  1  0
 21 59  1  0
 21 60  1  0
 22 61  1  0
 23 62  1  0
 23 63  1  0
 26 64  1  0
 27 65  1  0
 28 66  1  0
 29 67  1  0
 31 68  1  0
 31 69  1  0
 32 70  1  0
 32 71  1  0
 33 72  1  0
 33 73  1  0
 42 74  1  0
 43 75  1  0
A    1
CLA
A    2
C36
A    3
C33
A    4
CLR3
A    5
C38
A    6
C37
A    7
C34
A    8
C32
A    9
C29
A   10
N26
A   11
C28
A   12
C31
A   13
C30
A   14
C22
A   15
O25
A   16
C20
A   17
C23
A   18
N27
A   19
C24
A   20
C21
A   21
C
A   22
NB
A   23
CA
A   24
C19
A   25
C18
A   26
C16
A   27
C14
A   28
C17
A   29
C15
A   30
C13
A   31
C12
A   32
C10
A   33
C8
A   34
O5
A   35
C3
A   36
C6
A   37
F1
A   38
C2
A   39
CL11
A   40
C4
A   41
F2
A   42
C7
A   43
C9
M  END
