3G72_A6T_A_343
     RDKit          3D

 75 80  0  0  0  0  0  0  0  0999 V2000
    7.1870    5.3190    6.1650 C   0  0  0  0  0  0  0  0  0  0  0  0
   -2.2450    5.1660    3.8450 Cl  0  0  0  0  0  0  0  0  0  0  0  0
   -0.5760    5.3190    4.4240 C   0  0  0  0  0  0  0  0  0  0  0  0
    0.4240    5.2500    3.5040 C   0  0  0  0  0  0  0  0  0  0  0  0
    0.0580    4.9520    1.7810 Cl  0  0  0  0  0  0  0  0  0  0  0  0
   -0.3130    5.5370    5.7700 C   0  0  0  0  0  0  0  0  0  0  0  0
    1.0020    5.6510    6.1710 C   0  0  0  0  0  0  0  0  0  0  0  0
    2.0240    5.5680    5.2260 C   0  0  0  0  0  0  0  0  0  0  0  0
    1.7380    5.3490    3.8920 C   0  0  0  0  0  0  0  0  0  0  0  0
    2.7880    5.2340    2.7950 C   0  0  0  0  0  0  0  0  0  0  0  0
    4.1940    5.4940    3.0970 N   0  0  0  0  0  0  0  0  0  0  0  0
    4.6970    6.8420    2.6580 C   0  0  0  0  0  0  0  0  0  0  0  0
    3.8720    7.9590    3.2880 C   0  0  0  0  0  0  0  0  0  0  0  0
    5.2810    7.7450    3.7780 C   0  0  0  0  0  0  0  0  0  0  0  0
    4.9270    4.4760    3.6020 C   0  0  0  0  0  0  0  0  0  0  0  0
    4.4040    3.3870    3.8660 O   0  0  0  0  0  0  0  0  0  0  0  0
    6.3590    4.5190    3.8640 C   0  0  0  0  0  0  0  0  0  0  0  0
    6.8610    4.1420    5.2340 C   0  0  0  0  0  0  0  0  0  0  0  0
    8.0500    3.3150    4.9840 N   0  0  0  0  0  0  0  0  0  0  0  0
    9.1450    4.0800    4.3840 C   0  0  0  0  0  0  0  0  0  0  0  0
    8.7390    4.7210    3.0550 C   0  0  0  0  0  0  0  0  0  0  0  0
    8.4300    6.0140    5.7820 N   0  0  0  0  0  0  0  0  0  0  0  0
    9.5370    5.1810    5.3580 C   0  0  0  0  0  0  0  0  0  0  0  0
    7.2200    4.7560    2.8530 C   0  0  0  0  0  0  0  0  0  0  0  0
    6.8530    5.0520    1.4300 C   0  0  0  0  0  0  0  0  0  0  0  0
    6.0080    4.1720    0.7560 C   0  0  0  0  0  0  0  0  0  0  0  0
    5.6890    4.3660   -0.5790 C   0  0  0  0  0  0  0  0  0  0  0  0
    7.4330    6.1390    0.7380 C   0  0  0  0  0  0  0  0  0  0  0  0
    7.1170    6.3420   -0.6110 C   0  0  0  0  0  0  0  0  0  0  0  0
    6.2600    5.4380   -1.2760 C   0  0  0  0  0  0  0  0  0  0  0  0
    5.9110    5.6080   -2.7100 C   0  0  0  0  0  0  0  0  0  0  0  0
    5.2370    6.6920   -3.0800 C   0  0  0  0  0  0  0  0  0  0  0  0
    3.7780    6.6370   -2.7460 C   0  0  0  0  0  0  0  0  0  0  0  0
    3.1840    7.8770   -3.1070 O   0  0  0  0  0  0  0  0  0  0  0  0
    1.8410    7.8440   -2.8070 C   0  0  0  0  0  0  0  0  0  0  0  0
    1.3630    7.6550   -1.5140 C   0  0  0  0  0  0  0  0  0  0  0  0
    2.2120    7.4620   -0.4910 F   0  0  0  0  0  0  0  0  0  0  0  0
    0.9550    8.0440   -3.8350 C   0  0  0  0  0  0  0  0  0  0  0  0
    1.6670    8.3270   -5.4690 Cl  0  0  0  0  0  0  0  0  0  0  0  0
   -0.4080    8.0150   -3.5690 C   0  0  0  0  0  0  0  0  0  0  0  0
   -1.3030    8.2060   -4.5420 F   0  0  0  0  0  0  0  0  0  0  0  0
   -0.8930    7.8210   -2.2900 C   0  0  0  0  0  0  0  0  0  0  0  0
    0.0020    7.6480   -1.2600 C   0  0  0  0  0  0  0  0  0  0  0  0
    6.3553    6.0380    6.1292 H   0  0  0  0  0  0  0  0  0  0  0  0
    7.3285    4.9147    7.1782 H   0  0  0  0  0  0  0  0  0  0  0  0
   -1.1332    5.6168    6.4986 H   0  0  0  0  0  0  0  0  0  0  0  0
    1.2436    5.8069    7.2328 H   0  0  0  0  0  0  0  0  0  0  0  0
    3.0705    5.6782    5.5464 H   0  0  0  0  0  0  0  0  0  0  0  0
    2.7315    4.2057    2.4084 H   0  0  0  0  0  0  0  0  0  0  0  0
    2.5232    6.0496    2.1061 H   0  0  0  0  0  0  0  0  0  0  0  0
    5.0473    6.5488    1.6573 H   0  0  0  0  0  0  0  0  0  0  0  0
    3.6294    8.8563    2.6997 H   0  0  0  0  0  0  0  0  0  0  0  0
    2.8875    8.0051    3.7764 H   0  0  0  0  0  0  0  0  0  0  0  0
    5.4581    7.3320    4.7820 H   0  0  0  0  0  0  0  0  0  0  0  0
    6.1745    8.3782    3.8819 H   0  0  0  0  0  0  0  0  0  0  0  0
    6.0645    3.6166    5.7814 H   0  0  0  0  0  0  0  0  0  0  0  0
    8.3732    2.9210    5.8791 H   0  0  0  0  0  0  0  0  0  0  0  0
    9.9809    3.3938    4.1831 H   0  0  0  0  0  0  0  0  0  0  0  0
    9.1208    5.7523    3.0309 H   0  0  0  0  0  0  0  0  0  0  0  0
    9.1669    4.1090    2.2473 H   0  0  0  0  0  0  0  0  0  0  0  0
    8.2043    6.6521    5.0056 H   0  0  0  0  0  0  0  0  0  0  0  0
    9.9790    4.7127    6.2498 H   0  0  0  0  0  0  0  0  0  0  0  0
   10.2446    5.8367    4.8293 H   0  0  0  0  0  0  0  0  0  0  0  0
    5.5871    3.3089    1.2925 H   0  0  0  0  0  0  0  0  0  0  0  0
    4.9925    3.6829   -1.0871 H   0  0  0  0  0  0  0  0  0  0  0  0
    8.1263    6.8194    1.2542 H   0  0  0  0  0  0  0  0  0  0  0  0
    7.5355    7.2038   -1.1515 H   0  0  0  0  0  0  0  0  0  0  0  0
    6.8547    5.6054   -3.2751 H   0  0  0  0  0  0  0  0  0  0  0  0
    5.2168    4.7798   -2.9152 H   0  0  0  0  0  0  0  0  0  0  0  0
    5.6766    7.5639   -2.5735 H   0  0  0  0  0  0  0  0  0  0  0  0
    5.3137    6.7600   -4.1752 H   0  0  0  0  0  0  0  0  0  0  0  0
    3.3000    5.8199   -3.3062 H   0  0  0  0  0  0  0  0  0  0  0  0
    3.6451    6.4556   -1.6692 H   0  0  0  0  0  0  0  0  0  0  0  0
   -1.9761    7.8052   -2.0987 H   0  0  0  0  0  0  0  0  0  0  0  0
   -0.3641    7.5038   -0.2328 H   0  0  0  0  0  0  0  0  0  0  0  0
 18  1  1  0
 22  1  1  0
  2  3  1  0
  4  3  2  0
  3  6  1  0
  5  4  1  0
  4  9  1  0
  6  7  2  0
  8  7  1  0
  9  8  2  0
 10  9  1  0
 10 11  1  0
 12 11  1  0
 11 15  1  0
 12 13  1  0
 12 14  1  0
 13 14  1  0
 15 17  1  0
 15 16  2  0
 24 17  2  0
 17 18  1  0
 19 18  1  0
 20 19  1  0
 21 20  1  0
 20 23  1  0
 24 21  1  0
 23 22  1  0
 25 24  1  0
 28 25  1  0
 26 25  2  0
 27 26  1  0
 30 27  2  0
 29 28  2  0
 30 29  1  0
 31 30  1  0
 32 31  1  0
 32 33  1  0
 34 33  1  0
 34 35  1  0
 38 35  1  0
 35 36  2  0
 36 43  1  0
 36 37  1  0
 39 38  1  0
 38 40  2  0
 41 40  1  0
 40 42  1  0
 42 43  2  0
  1 44  1  0
  1 45  1  0
  6 46  1  0
  7 47  1  0
  8 48  1  0
 10 49  1  0
 10 50  1  0
 12 51  1  0
 13 52  1  0
 13 53  1  0
 14 54  1  0
 14 55  1  0
 18 56  1  0
 19 57  1  0
 20 58  1  0
 21 59  1  0
 21 60  1  0
 22 61  1  0
 23 62  1  0
 23 63  1  0
 26 64  1  0
 27 65  1  0
 28 66  1  0
 29 67  1  0
 31 68  1  0
 31 69  1  0
 32 70  1  0
 32 71  1  0
 33 72  1  0
 33 73  1  0
 42 74  1  0
 43 75  1  0
A    1
C
A    2
CLA
A    3
C36
A    4
C33
A    5
CLR3
A    6
C38
A    7
C37
A    8
C34
A    9
C32
A   10
C29
A   11
N26
A   12
C28
A   13
C31
A   14
C30
A   15
C22
A   16
O25
A   17
C20
A   18
C23
A   19
N27
A   20
C24
A   21
C21
A   22
NB
A   23
CA
A   24
C19
A   25
C18
A   26
C16
A   27
C14
A   28
C17
A   29
C15
A   30
C13
A   31
C12
A   32
C10
A   33
C8
A   34
O5
A   35
C3
A   36
C6
A   37
F1
A   38
C2
A   39
CL11
A   40
C4
A   41
F2
A   42
C7
A   43
C9
M  END
