3G75_B48_A_2
     RDKit          3D

 29 31  0  0  0  0  0  0  0  0999 V2000
   44.9580   -1.1430   18.5580 C   0  0  0  0  0  0  0  0  0  0  0  0
   46.3590   -1.3040   19.7030 S   0  0  0  0  0  0  0  0  0  0  0  0
   47.6140   -2.0930   18.7460 C   0  0  0  0  0  0  0  0  0  0  0  0
   48.8560   -2.5240   19.2270 C   0  0  0  0  0  0  0  0  0  0  0  0
   49.5510   -3.0880   18.1640 C   0  0  0  0  0  0  0  0  0  0  0  0
   48.7310   -2.9910   17.0800 N   0  0  0  0  0  0  0  0  0  0  0  0
   47.5450   -2.3730   17.4720 N   0  0  0  0  0  0  0  0  0  0  0  0
   50.9230   -3.7000   18.1430 C   0  0  0  0  0  0  0  0  0  0  0  0
   51.4650   -4.7890   16.8670 S   0  0  0  0  0  0  0  0  0  0  0  0
   53.0370   -4.9580   17.6340 C   0  0  0  0  0  0  0  0  0  0  0  0
   53.0650   -4.2400   18.7230 N   0  0  0  0  0  0  0  0  0  0  0  0
   51.9810   -3.5610   19.0350 C   0  0  0  0  0  0  0  0  0  0  0  0
   51.9510   -2.7040   20.2870 C   0  0  0  0  0  0  0  0  0  0  0  0
   54.1400   -5.7820   17.1170 C   0  0  0  0  0  0  0  0  0  0  0  0
   55.4520   -5.6690   17.4750 C   0  0  0  0  0  0  0  0  0  0  0  0
   56.2860   -6.5630   16.8440 C   0  0  0  0  0  0  0  0  0  0  0  0
   55.6910   -7.4010   15.9820 C   0  0  0  0  0  0  0  0  0  0  0  0
   53.9620   -7.0790   15.9290 S   0  0  0  0  0  0  0  0  0  0  0  0
   44.0258   -1.0359   19.1320 H   0  0  0  0  0  0  0  0  0  0  0  0
   45.1025   -0.2555   17.9243 H   0  0  0  0  0  0  0  0  0  0  0  0
   44.8974   -2.0401   17.9243 H   0  0  0  0  0  0  0  0  0  0  0  0
   49.2174   -2.4325   20.2619 H   0  0  0  0  0  0  0  0  0  0  0  0
   48.9511   -3.3198   16.1290 H   0  0  0  0  0  0  0  0  0  0  0  0
   51.9737   -3.3520   21.1756 H   0  0  0  0  0  0  0  0  0  0  0  0
   52.8264   -2.0380   20.2965 H   0  0  0  0  0  0  0  0  0  0  0  0
   51.0312   -2.1008   20.2965 H   0  0  0  0  0  0  0  0  0  0  0  0
   55.8113   -4.9280   18.2042 H   0  0  0  0  0  0  0  0  0  0  0  0
   57.3692   -6.5889   17.0339 H   0  0  0  0  0  0  0  0  0  0  0  0
   56.2075   -8.1749   15.3952 H   0  0  0  0  0  0  0  0  0  0  0  0
  2  1  1  0
  2  3  1  0
  4  3  1  0
  3  7  2  0
  4  5  2  0
  8  5  1  0
  5  6  1  0
  7  6  1  0
 12  8  2  0
  8  9  1  0
 10  9  1  0
 11 10  2  0
 10 14  1  0
 12 11  1  0
 13 12  1  0
 15 14  2  0
 14 18  1  0
 15 16  1  0
 16 17  2  0
 17 18  1  0
  1 19  1  0
  1 20  1  0
  1 21  1  0
  4 22  1  0
  6 23  1  0
 13 24  1  0
 13 25  1  0
 13 26  1  0
 15 27  1  0
 16 28  1  0
 17 29  1  0
A    1
C1
A    2
S2
A    3
C3
A    4
C4
A    5
C5
A    6
N6
A    7
N8
A    8
C9
A    9
S10
A   10
C11
A   11
N12
A   12
C13
A   13
C14
A   14
C15
A   15
C16
A   16
C17
A   17
C18
A   18
S19
M  END
