3G76_CZ3_A_600
     RDKit          3D

128133  0  0  0  0  0  0  0  0999 V2000
   18.7870   29.4510    5.3180 C   0  0  0  0  0  0  0  0  0  0  0  0
   18.2510   30.1210    4.1650 C   0  0  0  0  0  0  0  0  0  0  0  0
   19.0030   31.1320    3.5540 C   0  0  0  0  0  0  0  0  0  0  0  0
   20.2610   31.4900    4.0490 C   0  0  0  0  0  0  0  0  0  0  0  0
   20.7770   30.8380    5.1690 C   0  0  0  0  0  0  0  0  0  0  0  0
   20.0490   29.8200    5.7940 C   0  0  0  0  0  0  0  0  0  0  0  0
   20.7210   29.0230    7.1980 S   0  0  0  0  0  0  0  0  0  0  0  0
   20.2570   30.2100    8.3630 C   0  0  0  0  0  0  0  0  0  0  0  0
   19.6760   31.3860    8.1560 N   0  0  0  0  0  0  0  0  0  0  0  0
   19.5310   31.8810    9.2800 N   0  0  0  0  0  0  0  0  0  0  0  0
   19.9670   31.1220   10.1630 N   0  0  0  0  0  0  0  0  0  0  0  0
   20.4160   30.0920    9.6500 N   0  0  0  0  0  0  0  0  0  0  0  0
   21.0170   28.9200   10.3120 C   0  0  0  0  0  0  0  0  0  0  0  0
   20.1370   28.4120   11.4710 C   0  0  0  0  0  0  0  0  0  0  0  0
   20.2930   29.3630   12.6660 C   0  0  0  0  0  0  0  0  0  0  0  0
   20.2680   28.4410   13.8740 C   0  0  0  0  0  0  0  0  0  0  0  0
   21.0340   27.2170   13.3870 C   0  0  0  0  0  0  0  0  0  0  0  0
   20.6750   27.1380   11.9620 N   0  0  0  0  0  0  0  0  0  0  0  0
   20.8230   26.0420   11.2210 C   0  0  0  0  0  0  0  0  0  0  0  0
   20.4930   26.0310   10.0350 O   0  0  0  0  0  0  0  0  0  0  0  0
   21.4190   24.7900   11.8290 C   0  0  0  0  0  0  0  0  0  0  0  0
   20.6980   23.6610   11.2070 N   0  0  0  0  0  0  0  0  0  0  0  0
   19.9620   22.8270   11.9440 C   0  0  0  0  0  0  0  0  0  0  0  0
   19.8480   22.9070   13.1690 O   0  0  0  0  0  0  0  0  0  0  0  0
   19.2540   21.7110   11.1780 C   0  0  0  0  0  0  0  0  0  0  0  0
   17.9010   22.2300   10.7120 C   0  0  0  0  0  0  0  0  0  0  0  0
   19.0460   20.5570   12.0630 N   0  0  0  0  0  0  0  0  0  0  0  0
   20.3220   20.0490   12.6090 C   0  0  0  0  0  0  0  0  0  0  0  0
   22.9500   24.8230   11.5500 C   0  0  0  0  0  0  0  0  0  0  0  0
   23.6230   23.4840   11.8960 C   0  0  0  0  0  0  0  0  0  0  0  0
   23.2350   25.2410   10.1620 O   0  0  0  0  0  0  0  0  0  0  0  0
   24.4660   26.0260    9.9920 C   0  0  0  0  0  0  0  0  0  0  0  0
   24.2970   27.4850    9.6280 C   0  0  0  0  0  0  0  0  0  0  0  0
   24.5400   28.7310    9.4730 C   0  0  0  0  0  0  0  0  0  0  0  0
   24.4100   30.1670    9.5830 C   0  0  0  0  0  0  0  0  0  0  0  0
   24.5070   31.3150   10.1630 C   0  0  0  0  0  0  0  0  0  0  0  0
   24.2740   32.4970   11.0420 C   0  0  0  0  0  0  0  0  0  0  0  0
   25.4100   32.7190   11.9570 O   0  0  0  0  0  0  0  0  0  0  0  0
   25.1130   33.4960   13.1840 C   0  0  0  0  0  0  0  0  0  0  0  0
   24.2280   34.7290   12.8690 C   0  0  0  0  0  0  0  0  0  0  0  0
   26.3860   33.9480   13.9770 C   0  0  0  0  0  0  0  0  0  0  0  0
   26.9830   35.1530   13.3510 N   0  0  0  0  0  0  0  0  0  0  0  0
   27.0970   36.3590   13.9320 C   0  0  0  0  0  0  0  0  0  0  0  0
   27.5990   37.3290   13.3600 O   0  0  0  0  0  0  0  0  0  0  0  0
   26.5730   36.5010   15.3720 C   0  0  0  0  0  0  0  0  0  0  0  0
   25.2730   37.3170   15.3750 C   0  0  0  0  0  0  0  0  0  0  0  0
   27.5810   37.1810   16.2030 N   0  0  0  0  0  0  0  0  0  0  0  0
   27.6760   36.5460   17.5310 C   0  0  0  0  0  0  0  0  0  0  0  0
   27.4720   32.8450   14.1220 C   0  0  0  0  0  0  0  0  0  0  0  0
   27.8210   32.1760   13.1510 O   0  0  0  0  0  0  0  0  0  0  0  0
   28.0720   32.5990   15.3010 N   0  0  0  0  0  0  0  0  0  0  0  0
   27.8020   33.2960   16.5710 C   0  0  0  0  0  0  0  0  0  0  0  0
   29.0460   33.0540   17.4430 C   0  0  0  0  0  0  0  0  0  0  0  0
   29.9990   32.2080   16.5860 C   0  0  0  0  0  0  0  0  0  0  0  0
   29.1140   31.5790   15.5070 C   0  0  0  0  0  0  0  0  0  0  0  0
   28.4970   30.2750   16.0390 C   0  0  0  0  0  0  0  0  0  0  0  0
   29.2680   29.1010   15.6000 N   0  0  0  0  0  0  0  0  0  0  0  0
   30.2030   28.5800   16.2070 N   0  0  0  0  0  0  0  0  0  0  0  0
   30.6250   27.6120   15.5550 N   0  0  0  0  0  0  0  0  0  0  0  0
   29.9920   27.4580   14.5020 N   0  0  0  0  0  0  0  0  0  0  0  0
   29.0900   28.4240   14.4840 C   0  0  0  0  0  0  0  0  0  0  0  0
   27.8800   28.7190   13.2430 S   0  0  0  0  0  0  0  0  0  0  0  0
   26.4880   28.1270   14.1300 C   0  0  0  0  0  0  0  0  0  0  0  0
   25.2480   28.7460   13.9840 C   0  0  0  0  0  0  0  0  0  0  0  0
   24.1600   28.2600   14.7070 C   0  0  0  0  0  0  0  0  0  0  0  0
   24.2970   27.1700   15.5680 C   0  0  0  0  0  0  0  0  0  0  0  0
   25.5370   26.5540   15.7150 C   0  0  0  0  0  0  0  0  0  0  0  0
   26.6300   27.0380   14.9960 C   0  0  0  0  0  0  0  0  0  0  0  0
   18.2121   28.6584    5.8194 H   0  0  0  0  0  0  0  0  0  0  0  0
   17.2635   29.8434    3.7679 H   0  0  0  0  0  0  0  0  0  0  0  0
   18.5987   31.6516    2.6728 H   0  0  0  0  0  0  0  0  0  0  0  0
   20.8420   32.2836    3.5565 H   0  0  0  0  0  0  0  0  0  0  0  0
   21.7627   31.1262    5.5633 H   0  0  0  0  0  0  0  0  0  0  0  0
   21.1351   28.1137    9.5731 H   0  0  0  0  0  0  0  0  0  0  0  0
   21.9918   29.2192   10.7247 H   0  0  0  0  0  0  0  0  0  0  0  0
   19.1007   28.3313   11.1110 H   0  0  0  0  0  0  0  0  0  0  0  0
   21.2466   29.9085   12.6099 H   0  0  0  0  0  0  0  0  0  0  0  0
   19.5059   30.1305   12.7023 H   0  0  0  0  0  0  0  0  0  0  0  0
   20.7704   28.9047   14.7357 H   0  0  0  0  0  0  0  0  0  0  0  0
   19.2503   28.2064   14.2192 H   0  0  0  0  0  0  0  0  0  0  0  0
   22.1180   27.3546   13.5132 H   0  0  0  0  0  0  0  0  0  0  0  0
   20.7843   26.3026   13.9452 H   0  0  0  0  0  0  0  0  0  0  0  0
   21.3082   24.6989   12.9196 H   0  0  0  0  0  0  0  0  0  0  0  0
   20.7643   23.5153   10.1895 H   0  0  0  0  0  0  0  0  0  0  0  0
   19.8656   21.4025   10.3174 H   0  0  0  0  0  0  0  0  0  0  0  0
   17.2787   22.4687   11.5871 H   0  0  0  0  0  0  0  0  0  0  0  0
   18.0450   23.1367   10.1061 H   0  0  0  0  0  0  0  0  0  0  0  0
   17.4016   21.4596   10.1061 H   0  0  0  0  0  0  0  0  0  0  0  0
   18.4382   20.8411   12.8445 H   0  0  0  0  0  0  0  0  0  0  0  0
   20.2826   20.0647   13.7082 H   0  0  0  0  0  0  0  0  0  0  0  0
   20.4843   19.0177   12.2626 H   0  0  0  0  0  0  0  0  0  0  0  0
   21.1488   20.6866   12.2626 H   0  0  0  0  0  0  0  0  0  0  0  0
   23.3892   25.5804   12.2159 H   0  0  0  0  0  0  0  0  0  0  0  0
   23.6787   23.3732   12.9890 H   0  0  0  0  0  0  0  0  0  0  0  0
   23.0333   22.6572   11.4732 H   0  0  0  0  0  0  0  0  0  0  0  0
   24.6383   23.4639   11.4732 H   0  0  0  0  0  0  0  0  0  0  0  0
   25.0233   25.9812   10.9393 H   0  0  0  0  0  0  0  0  0  0  0  0
   24.9821   25.5718    9.1333 H   0  0  0  0  0  0  0  0  0  0  0  0
   24.1408   33.3899   10.4135 H   0  0  0  0  0  0  0  0  0  0  0  0
   23.3745   32.3075   11.6461 H   0  0  0  0  0  0  0  0  0  0  0  0
   24.5638   32.8006   13.8358 H   0  0  0  0  0  0  0  0  0  0  0  0
   23.8958   35.1919   13.8099 H   0  0  0  0  0  0  0  0  0  0  0  0
   24.8097   35.4588   12.2868 H   0  0  0  0  0  0  0  0  0  0  0  0
   23.3505   34.4113   12.2868 H   0  0  0  0  0  0  0  0  0  0  0  0
   26.0346   34.1743   14.9945 H   0  0  0  0  0  0  0  0  0  0  0  0
   27.3403   35.0570   12.3897 H   0  0  0  0  0  0  0  0  0  0  0  0
   26.3753   35.4998   15.7826 H   0  0  0  0  0  0  0  0  0  0  0  0
   24.9642   37.5109   16.4128 H   0  0  0  0  0  0  0  0  0  0  0  0
   25.4391   38.2732   14.8572 H   0  0  0  0  0  0  0  0  0  0  0  0
   24.4841   36.7518   14.8572 H   0  0  0  0  0  0  0  0  0  0  0  0
   28.4973   37.1263   15.7357 H   0  0  0  0  0  0  0  0  0  0  0  0
   27.5615   37.3116   18.3125 H   0  0  0  0  0  0  0  0  0  0  0  0
   26.8804   35.7936   17.6354 H   0  0  0  0  0  0  0  0  0  0  0  0
   28.6569   36.0593   17.6354 H   0  0  0  0  0  0  0  0  0  0  0  0
   27.6582   34.3724   16.3961 H   0  0  0  0  0  0  0  0  0  0  0  0
   26.8858   32.9254   17.0540 H   0  0  0  0  0  0  0  0  0  0  0  0
   29.5184   34.0107   17.7104 H   0  0  0  0  0  0  0  0  0  0  0  0
   28.7884   32.5459   18.3840 H   0  0  0  0  0  0  0  0  0  0  0  0
   30.7731   32.8420   16.1291 H   0  0  0  0  0  0  0  0  0  0  0  0
   30.5243   31.4477   17.1826 H   0  0  0  0  0  0  0  0  0  0  0  0
   29.6521   31.3200   14.5833 H   0  0  0  0  0  0  0  0  0  0  0  0
   28.4863   30.3061   17.1385 H   0  0  0  0  0  0  0  0  0  0  0  0
   27.4748   30.1873   15.6424 H   0  0  0  0  0  0  0  0  0  0  0  0
   25.1296   29.6056   13.3080 H   0  0  0  0  0  0  0  0  0  0  0  0
   23.1779   28.7431   14.5973 H   0  0  0  0  0  0  0  0  0  0  0  0
   23.4270   26.7984   16.1293 H   0  0  0  0  0  0  0  0  0  0  0  0
   25.6536   25.6943   16.3913 H   0  0  0  0  0  0  0  0  0  0  0  0
   27.6132   26.5585   15.1113 H   0  0  0  0  0  0  0  0  0  0  0  0
  1  2  2  0
  1  6  1  0
  2  3  1  0
  3  4  2  0
  4  5  1  0
  5  6  2  0
  6  7  1  0
  7  8  1  0
  8  9  2  0
  8 12  1  0
  9 10  1  0
 10 11  2  0
 11 12  1  0
 12 13  1  0
 13 14  1  0
 14 15  1  0
 14 18  1  0
 15 16  1  0
 16 17  1  0
 17 18  1  0
 18 19  1  0
 19 20  2  0
 19 21  1  0
 21 22  1  0
 21 29  1  0
 22 23  1  0
 23 24  2  0
 23 25  1  0
 25 26  1  0
 25 27  1  0
 27 28  1  0
 29 30  1  0
 29 31  1  0
 31 32  1  0
 32 33  1  0
 33 34  3  0
 34 35  1  0
 35 36  3  0
 36 37  1  0
 37 38  1  0
 38 39  1  0
 39 40  1  0
 39 41  1  0
 41 42  1  0
 41 49  1  0
 42 43  1  0
 43 44  2  0
 43 45  1  0
 45 46  1  0
 45 47  1  0
 47 48  1  0
 49 50  2  0
 49 51  1  0
 51 52  1  0
 51 55  1  0
 52 53  1  0
 53 54  1  0
 54 55  1  0
 55 56  1  0
 56 57  1  0
 57 58  1  0
 57 61  1  0
 58 59  2  0
 59 60  1  0
 60 61  2  0
 61 62  1  0
 62 63  1  0
 63 64  2  0
 63 68  1  0
 64 65  1  0
 65 66  2  0
 66 67  1  0
 67 68  2  0
  1 69  1  0
  2 70  1  0
  3 71  1  0
  4 72  1  0
  5 73  1  0
 13 74  1  0
 13 75  1  0
 14 76  1  0
 15 77  1  0
 15 78  1  0
 16 79  1  0
 16 80  1  0
 17 81  1  0
 17 82  1  0
 21 83  1  0
 22 84  1  0
 25 85  1  0
 26 86  1  0
 26 87  1  0
 26 88  1  0
 27 89  1  0
 28 90  1  0
 28 91  1  0
 28 92  1  0
 29 93  1  0
 30 94  1  0
 30 95  1  0
 30 96  1  0
 32 97  1  0
 32 98  1  0
 37 99  1  0
 37100  1  0
 39101  1  0
 40102  1  0
 40103  1  0
 40104  1  0
 41105  1  0
 42106  1  0
 45107  1  0
 46108  1  0
 46109  1  0
 46110  1  0
 47111  1  0
 48112  1  0
 48113  1  0
 48114  1  0
 52115  1  0
 52116  1  0
 53117  1  0
 53118  1  0
 54119  1  0
 54120  1  0
 55121  1  0
 56122  1  0
 56123  1  0
 64124  1  0
 65125  1  0
 66126  1  0
 67127  1  0
 68128  1  0
A    1
CAU
A    2
CAQ
A    3
CAO
A    4
CAR
A    5
CAV
A    6
CCA
A    7
SBU
A    8
CCC
A    9
NBK
A   10
NBI
A   11
NBM
A   12
NCO
A   13
CBG
A   14
CCI
A   15
CBC
A   16
CBA
A   17
CBE
A   18
NCM
A   19
CBY
A   20
OAI
A   21
CCK
A   22
NBO
A   23
C
A   24
O
A   25
CA
A   26
CB
A   27
N
A   28
CAA
A   29
CCG
A   30
CAE
A   31
OBS
A   32
CAY
A   33
CAM
A   34
CAK
A   35
CAL
A   36
CAN
A   37
CAZ
A   38
OBT
A   39
CCH
A   40
CAF
A   41
CCL
A   42
NBP
A   43
CBX
A   44
OAH
A   45
CCF
A   46
CAD
A   47
NBR
A   48
CAB
A   49
CBZ
A   50
OAJ
A   51
NCN
A   52
CBF
A   53
CBB
A   54
CBD
A   55
CCJ
A   56
CBH
A   57
NCP
A   58
NBN
A   59
NBJ
A   60
NBL
A   61
CCD
A   62
SBV
A   63
CCB
A   64
CAW
A   65
CAS
A   66
CAP
A   67
CAT
A   68
CAX
M  END
