3G7B_B47_A_1
     RDKit          3D

 52 55  0  0  0  0  0  0  0  0999 V2000
   47.1380   -0.7270   23.6080 C   0  0  0  0  0  0  0  0  0  0  0  0
   46.0820   -0.6540   22.6030 O   0  0  0  0  0  0  0  0  0  0  0  0
   46.4190   -0.3680   21.3230 C   0  0  0  0  0  0  0  0  0  0  0  0
   47.3480    0.4020   21.0670 O   0  0  0  0  0  0  0  0  0  0  0  0
   45.7100   -0.9440   20.3230 N   0  0  0  0  0  0  0  0  0  0  0  0
   46.0120   -0.6830   18.9050 C   0  0  0  0  0  0  0  0  0  0  0  0
   46.9180   -1.7650   18.3760 C   0  0  0  0  0  0  0  0  0  0  0  0
   48.2210   -1.9450   18.7000 C   0  0  0  0  0  0  0  0  0  0  0  0
   48.6920   -3.0650   17.9860 C   0  0  0  0  0  0  0  0  0  0  0  0
   47.6820   -3.5230   17.2610 N   0  0  0  0  0  0  0  0  0  0  0  0
   46.5690   -2.7220   17.4960 N   0  0  0  0  0  0  0  0  0  0  0  0
   50.0560   -3.6670   17.9970 C   0  0  0  0  0  0  0  0  0  0  0  0
   50.4440   -5.1000   17.0760 S   0  0  0  0  0  0  0  0  0  0  0  0
   52.1050   -5.0640   17.6370 C   0  0  0  0  0  0  0  0  0  0  0  0
   52.2730   -4.0520   18.4370 N   0  0  0  0  0  0  0  0  0  0  0  0
   51.2260   -3.2680   18.6740 C   0  0  0  0  0  0  0  0  0  0  0  0
   51.3230   -2.1320   19.5370 N   0  0  0  0  0  0  0  0  0  0  0  0
   52.7090   -1.5770   19.5590 C   0  0  0  0  0  0  0  0  0  0  0  0
   52.7550   -0.2400   20.3480 C   0  0  0  0  0  0  0  0  0  0  0  0
   52.1310   -0.4040   21.7590 C   0  0  0  0  0  0  0  0  0  0  0  0
   51.9610    0.8900   22.3430 O   0  0  0  0  0  0  0  0  0  0  0  0
   50.7380   -1.1040   21.6830 C   0  0  0  0  0  0  0  0  0  0  0  0
   50.8660   -2.4290   20.9120 C   0  0  0  0  0  0  0  0  0  0  0  0
   53.1480   -6.0360   17.2430 C   0  0  0  0  0  0  0  0  0  0  0  0
   54.5280   -5.7400   17.4640 C   0  0  0  0  0  0  0  0  0  0  0  0
   55.5160   -6.6710   17.0730 C   0  0  0  0  0  0  0  0  0  0  0  0
   55.1420   -7.8940   16.4650 C   0  0  0  0  0  0  0  0  0  0  0  0
   53.7790   -8.1920   16.2470 C   0  0  0  0  0  0  0  0  0  0  0  0
   52.7820   -7.2710   16.6320 C   0  0  0  0  0  0  0  0  0  0  0  0
   46.6909   -0.6961   24.6126 H   0  0  0  0  0  0  0  0  0  0  0  0
   47.6975   -1.6660   23.4844 H   0  0  0  0  0  0  0  0  0  0  0  0
   47.8214    0.1260   23.4844 H   0  0  0  0  0  0  0  0  0  0  0  0
   44.9377   -1.5827   20.5608 H   0  0  0  0  0  0  0  0  0  0  0  0
   45.0763   -0.6733   18.3268 H   0  0  0  0  0  0  0  0  0  0  0  0
   46.5121    0.2922   18.8105 H   0  0  0  0  0  0  0  0  0  0  0  0
   48.8070   -1.3271   19.3963 H   0  0  0  0  0  0  0  0  0  0  0  0
   47.7153   -4.3358   16.6293 H   0  0  0  0  0  0  0  0  0  0  0  0
   53.3807   -2.3031   20.0403 H   0  0  0  0  0  0  0  0  0  0  0  0
   53.0293   -1.3869   18.5240 H   0  0  0  0  0  0  0  0  0  0  0  0
   53.8023    0.0796   20.4530 H   0  0  0  0  0  0  0  0  0  0  0  0
   52.1753    0.5132   19.7943 H   0  0  0  0  0  0  0  0  0  0  0  0
   52.8047   -1.0258   22.3669 H   0  0  0  0  0  0  0  0  0  0  0  0
   51.9714    0.8107   23.3298 H   0  0  0  0  0  0  0  0  0  0  0  0
   50.3745   -1.3069   22.7012 H   0  0  0  0  0  0  0  0  0  0  0  0
   50.0272   -0.4460   21.1618 H   0  0  0  0  0  0  0  0  0  0  0  0
   49.8891   -2.9334   20.8771 H   0  0  0  0  0  0  0  0  0  0  0  0
   51.5893   -3.0881   21.4145 H   0  0  0  0  0  0  0  0  0  0  0  0
   54.8202   -4.7908   17.9368 H   0  0  0  0  0  0  0  0  0  0  0  0
   56.5793   -6.4451   17.2414 H   0  0  0  0  0  0  0  0  0  0  0  0
   55.9159   -8.6144   16.1615 H   0  0  0  0  0  0  0  0  0  0  0  0
   53.4940   -9.1443   15.7760 H   0  0  0  0  0  0  0  0  0  0  0  0
   51.7212   -7.5061   16.4606 H   0  0  0  0  0  0  0  0  0  0  0  0
  1  2  1  0
  2  3  1  0
  3  4  2  0
  3  5  1  0
  5  6  1  0
  6  7  1  0
  8  7  1  0
  7 11  2  0
  8  9  2  0
 12  9  1  0
  9 10  1  0
 11 10  1  0
 16 12  2  0
 12 13  1  0
 14 13  1  0
 15 14  2  0
 14 24  1  0
 16 15  1  0
 17 16  1  0
 23 17  1  0
 17 18  1  0
 19 18  1  0
 20 19  1  0
 21 20  1  0
 22 20  1  0
 22 23  1  0
 25 24  2  0
 24 29  1  0
 25 26  1  0
 26 27  2  0
 27 28  1  0
 29 28  2  0
  1 30  1  0
  1 31  1  0
  1 32  1  0
  5 33  1  0
  6 34  1  0
  6 35  1  0
  8 36  1  0
 10 37  1  0
 18 38  1  0
 18 39  1  0
 19 40  1  0
 19 41  1  0
 20 42  1  0
 21 43  1  0
 22 44  1  0
 22 45  1  0
 23 46  1  0
 23 47  1  0
 25 48  1  0
 26 49  1  0
 27 50  1  0
 28 51  1  0
 29 52  1  0
A    1
C1
A    2
O2
A    3
C3
A    4
O4
A    5
N5
A    6
C6
A    7
C7
A    8
C8
A    9
C9
A   10
N10
A   11
N11
A   12
C13
A   13
S14
A   14
C15
A   15
N16
A   16
C17
A   17
N18
A   18
C19
A   19
C20
A   20
C21
A   21
O22
A   22
C23
A   23
C24
A   24
C25
A   25
C26
A   26
C27
A   27
C28
A   28
C29
A   29
C30
M  END
