3G82_MI3_A_100
     RDKit          3D

 63 66  0  0  0  0  0  0  0  0999 V2000
   66.5470  -14.3830  -15.5650 C   0  0  0  0  0  0  0  0  0  0  0  0
   65.1000  -14.6510  -15.6650 N   0  0  0  0  0  0  0  0  0  0  0  0
   64.5680  -15.8620  -15.4720 C   0  0  0  0  0  0  0  0  0  0  0  0
   65.5100  -17.0330  -15.1270 C   0  0  0  0  0  0  0  0  0  0  0  0
   64.8260  -18.2390  -14.9480 C   0  0  0  0  0  0  0  0  0  0  0  0
   63.4430  -18.3650  -15.0700 C   0  0  0  0  0  0  0  0  0  0  0  0
   62.6330  -17.2770  -15.3860 C   0  0  0  0  0  0  0  0  0  0  0  0
   63.1840  -16.0120  -15.5900 C   0  0  0  0  0  0  0  0  0  0  0  0
   62.2360  -14.8460  -15.9390 C   0  0  0  0  0  0  0  0  0  0  0  0
   62.7120  -13.5850  -16.1470 O   0  0  0  0  0  0  0  0  0  0  0  0
   60.9000  -15.1220  -16.0280 O   0  0  0  0  0  0  0  0  0  0  0  0
   60.0420  -14.0330  -16.3850 C   0  0  0  0  0  0  0  0  0  0  0  0
   58.9620  -14.4910  -17.3630 C   0  0  0  0  0  0  0  0  0  0  0  0
   59.4780  -15.3430  -18.3920 O   0  0  0  0  0  0  0  0  0  0  0  0
   59.2480  -13.7510  -15.1230 C   0  0  0  0  0  0  0  0  0  0  0  0
   59.1360  -12.2250  -14.9220 C   0  0  0  0  0  0  0  0  0  0  0  0
   57.7600  -11.7970  -14.8170 O   0  0  0  0  0  0  0  0  0  0  0  0
   57.2710  -10.3600  -15.4110 P   0  0  0  0  0  0  0  0  0  0  0  0
   57.8620  -10.2430  -16.9310 O   0  0  0  0  0  0  0  0  0  0  0  0
   55.7920  -10.2370  -15.4140 O   0  0  0  0  0  0  0  0  0  0  0  0
   58.0030   -9.2420  -14.5130 O   0  0  0  0  0  0  0  0  0  0  0  0
   57.2400   -8.6290  -13.2370 P   0  0  0  0  0  0  0  0  0  0  0  0
   55.8980   -9.5030  -13.0190 O   0  0  0  0  0  0  0  0  0  0  0  0
   56.9310   -7.1900  -13.4450 O   0  0  0  0  0  0  0  0  0  0  0  0
   58.1650   -8.9410  -11.9610 O   0  0  0  0  0  0  0  0  0  0  0  0
   59.2390   -7.7710  -11.4560 P   0  0  0  0  0  0  0  0  0  0  0  0
   60.4420   -8.1580  -10.5340 O   0  0  0  0  0  0  0  0  0  0  0  0
   59.7300   -6.5300  -12.2880 O   0  0  0  0  0  0  0  0  0  0  0  0
   58.0290   -7.4570  -10.6420 O   0  0  0  0  0  0  0  0  0  0  0  0
   57.9570  -14.4150  -15.3150 O   0  0  0  0  0  0  0  0  0  0  0  0
   58.1400  -15.3200  -16.4150 C   0  0  0  0  0  0  0  0  0  0  0  0
   56.8990  -15.7310  -17.0940 N   0  0  0  0  0  0  0  0  0  0  0  0
   55.7830  -15.0160  -17.2190 C   0  0  0  0  0  0  0  0  0  0  0  0
   54.8820  -15.7310  -17.8890 N   0  0  0  0  0  0  0  0  0  0  0  0
   55.4260  -16.9020  -18.1870 C   0  0  0  0  0  0  0  0  0  0  0  0
   56.7150  -16.9050  -17.6820 C   0  0  0  0  0  0  0  0  0  0  0  0
   57.5140  -17.9740  -17.8320 N   0  0  0  0  0  0  0  0  0  0  0  0
   57.0990  -19.0540  -18.4690 C   0  0  0  0  0  0  0  0  0  0  0  0
   55.8060  -19.1170  -19.0060 N   0  0  0  0  0  0  0  0  0  0  0  0
   54.9590  -18.0180  -18.8590 C   0  0  0  0  0  0  0  0  0  0  0  0
   53.8210  -18.0340  -19.3170 O   0  0  0  0  0  0  0  0  0  0  0  0
   66.8376  -14.3292  -14.5054 H   0  0  0  0  0  0  0  0  0  0  0  0
   67.1048  -15.1931  -16.0575 H   0  0  0  0  0  0  0  0  0  0  0  0
   66.7777  -13.4269  -16.0575 H   0  0  0  0  0  0  0  0  0  0  0  0
   64.4703  -13.8688  -15.8942 H   0  0  0  0  0  0  0  0  0  0  0  0
   66.6011  -16.9306  -15.0321 H   0  0  0  0  0  0  0  0  0  0  0  0
   65.4104  -19.1366  -14.6975 H   0  0  0  0  0  0  0  0  0  0  0  0
   62.9792  -19.3499  -14.9125 H   0  0  0  0  0  0  0  0  0  0  0  0
   61.5456  -17.4170  -15.4758 H   0  0  0  0  0  0  0  0  0  0  0  0
   60.6378  -13.2072  -16.8010 H   0  0  0  0  0  0  0  0  0  0  0  0
   58.4580  -13.6721  -17.8973 H   0  0  0  0  0  0  0  0  0  0  0  0
   59.9443  -16.1130  -17.9799 H   0  0  0  0  0  0  0  0  0  0  0  0
   59.7218  -14.1353  -14.2077 H   0  0  0  0  0  0  0  0  0  0  0  0
   59.6665  -11.9476  -13.9992 H   0  0  0  0  0  0  0  0  0  0  0  0
   59.5817  -11.7312  -15.7981 H   0  0  0  0  0  0  0  0  0  0  0  0
   58.8325  -10.0509  -16.8939 H   0  0  0  0  0  0  0  0  0  0  0  0
   55.7295   -9.6127  -12.0496 H   0  0  0  0  0  0  0  0  0  0  0  0
   60.1721   -8.0712   -9.5855 H   0  0  0  0  0  0  0  0  0  0  0  0
   60.0147   -5.8105  -11.6705 H   0  0  0  0  0  0  0  0  0  0  0  0
   58.5841  -16.2667  -16.0737 H   0  0  0  0  0  0  0  0  0  0  0  0
   55.6300  -13.9981  -16.8310 H   0  0  0  0  0  0  0  0  0  0  0  0
   57.7760  -19.9139  -18.5793 H   0  0  0  0  0  0  0  0  0  0  0  0
   55.4860  -19.9614  -19.5014 H   0  0  0  0  0  0  0  0  0  0  0  0
  1  2  1  0
  2  3  1  0
  3  4  2  0
  3  8  1  0
  4  5  1  0
  5  6  2  0
  6  7  1  0
  7  8  2  0
  8  9  1  0
  9 10  2  0
  9 11  1  0
 11 12  1  0
 12 13  1  0
 12 15  1  0
 13 14  1  0
 13 31  1  0
 15 16  1  0
 15 30  1  0
 16 17  1  0
 17 18  1  0
 18 19  1  0
 18 20  2  0
 18 21  1  0
 21 22  1  0
 22 23  1  0
 22 24  2  0
 22 25  1  0
 25 26  1  0
 26 27  1  0
 26 28  1  0
 26 29  2  0
 30 31  1  0
 31 32  1  0
 32 33  1  0
 32 36  1  0
 33 34  2  0
 34 35  1  0
 35 36  2  0
 35 40  1  0
 36 37  1  0
 37 38  2  0
 38 39  1  0
 39 40  1  0
 40 41  2  0
  1 42  1  0
  1 43  1  0
  1 44  1  0
  2 45  1  0
  4 46  1  0
  5 47  1  0
  6 48  1  0
  7 49  1  0
 12 50  1  0
 13 51  1  0
 14 52  1  0
 15 53  1  0
 16 54  1  0
 16 55  1  0
 19 56  1  0
 23 57  1  0
 27 58  1  0
 28 59  1  0
 31 60  1  0
 33 61  1  0
 38 62  1  0
 39 63  1  0
A    1
CA7
A    2
NA1
A    3
CA6
A    4
CA5
A    5
CA4
A    6
CA3
A    7
CA2
A    8
CA1
A    9
CA
A   10
OA
A   11
O3'
A   12
C3'
A   13
C2'
A   14
O2'
A   15
C4'
A   16
C5'
A   17
O5'
A   18
PA
A   19
O3A
A   20
O2A
A   21
O1A
A   22
PB
A   23
O3B
A   24
O2B
A   25
O1B
A   26
PG
A   27
O3G
A   28
O1G
A   29
O2G
A   30
O4'
A   31
C1'
A   32
N9
A   33
C8
A   34
N7
A   35
C5
A   36
C4
A   37
N3
A   38
C2
A   39
N1
A   40
C6
A   41
O6
M  END
