3G86_T18_A_571
     RDKit          3D

 57 61  0  0  0  0  0  0  0  0999 V2000
   -9.0130    9.9200  -16.2850 C   0  0  0  0  0  0  0  0  0  0  0  0
   -9.7650    9.0210  -17.0540 C   0  0  0  0  0  0  0  0  0  0  0  0
   -8.8250    9.7360  -14.9250 C   0  0  0  0  0  0  0  0  0  0  0  0
  -10.3490    7.9360  -16.4060 C   0  0  0  0  0  0  0  0  0  0  0  0
   -9.3920    8.6270  -14.2840 C   0  0  0  0  0  0  0  0  0  0  0  0
  -10.1480    7.7330  -15.0510 C   0  0  0  0  0  0  0  0  0  0  0  0
  -10.8310    6.2830  -14.3010 S   0  0  0  0  0  0  0  0  0  0  0  0
  -10.7810    6.6650  -12.5730 C   0  0  0  0  0  0  0  0  0  0  0  0
   -9.9380    7.6060  -12.0930 C   0  0  0  0  0  0  0  0  0  0  0  0
   -9.1820    8.4290  -12.9150 N   0  0  0  0  0  0  0  0  0  0  0  0
   -9.9580    9.2510  -18.4400 N   0  0  0  0  0  0  0  0  0  0  0  0
  -10.3320    8.1130  -19.5940 S   0  0  0  0  0  0  0  0  0  0  0  0
  -12.1510    8.0910  -19.5850 C   0  0  0  0  0  0  0  0  0  0  0  0
   -9.8450    8.6690  -20.8110 O   0  0  0  0  0  0  0  0  0  0  0  0
   -9.7540    6.8770  -19.1720 O   0  0  0  0  0  0  0  0  0  0  0  0
  -12.1800    6.1680  -14.7510 O   0  0  0  0  0  0  0  0  0  0  0  0
   -9.9050    5.2190  -14.6000 O   0  0  0  0  0  0  0  0  0  0  0  0
  -12.0850    7.2630   -6.3170 C   0  0  0  0  0  0  0  0  0  0  0  0
  -11.5330    8.4550   -5.8400 C   0  0  0  0  0  0  0  0  0  0  0  0
  -10.7030    9.1990   -6.6570 C   0  0  0  0  0  0  0  0  0  0  0  0
  -11.8080    6.8000   -7.5770 C   0  0  0  0  0  0  0  0  0  0  0  0
  -10.9040    7.5040   -8.3840 C   0  0  0  0  0  0  0  0  0  0  0  0
  -10.3720    8.7320   -7.9390 C   0  0  0  0  0  0  0  0  0  0  0  0
   -9.5820    9.4850   -8.7900 N   0  0  0  0  0  0  0  0  0  0  0  0
   -9.4890    9.1620  -10.1190 C   0  0  0  0  0  0  0  0  0  0  0  0
  -10.0500    7.9340  -10.6460 C   0  0  0  0  0  0  0  0  0  0  0  0
  -10.7040    7.0600   -9.7580 C   0  0  0  0  0  0  0  0  0  0  0  0
  -12.8920    6.5400   -5.5510 F   0  0  0  0  0  0  0  0  0  0  0  0
  -11.2180    5.8580  -10.1090 O   0  0  0  0  0  0  0  0  0  0  0  0
   -8.9690   10.7110   -8.2510 C   0  0  0  0  0  0  0  0  0  0  0  0
   -8.8330    9.9070  -10.8560 O   0  0  0  0  0  0  0  0  0  0  0  0
   -7.6580   10.2440   -7.6600 C   0  0  0  0  0  0  0  0  0  0  0  0
   -6.6770    9.7180   -8.5010 C   0  0  0  0  0  0  0  0  0  0  0  0
   -5.2310    9.3290   -6.6300 C   0  0  0  0  0  0  0  0  0  0  0  0
   -6.1920    9.8560   -5.7620 C   0  0  0  0  0  0  0  0  0  0  0  0
   -5.4660    9.2720   -8.0000 C   0  0  0  0  0  0  0  0  0  0  0  0
   -7.4070   10.3190   -6.2850 C   0  0  0  0  0  0  0  0  0  0  0  0
   -4.0450    8.8740   -6.1550 F   0  0  0  0  0  0  0  0  0  0  0  0
   -8.5602   10.7948  -16.7746 H   0  0  0  0  0  0  0  0  0  0  0  0
   -8.2308   10.4604  -14.3487 H   0  0  0  0  0  0  0  0  0  0  0  0
  -10.9756    7.2338  -16.9754 H   0  0  0  0  0  0  0  0  0  0  0  0
  -11.4458    6.1286  -11.8799 H   0  0  0  0  0  0  0  0  0  0  0  0
   -8.3991    8.9378  -12.4802 H   0  0  0  0  0  0  0  0  0  0  0  0
   -9.8561   10.2229  -18.7656 H   0  0  0  0  0  0  0  0  0  0  0  0
  -12.5125    8.0866  -18.5461 H   0  0  0  0  0  0  0  0  0  0  0  0
  -12.5311    8.9846  -20.1017 H   0  0  0  0  0  0  0  0  0  0  0  0
  -12.5093    7.1885  -20.1017 H   0  0  0  0  0  0  0  0  0  0  0  0
  -11.7579    8.7992   -4.8197 H   0  0  0  0  0  0  0  0  0  0  0  0
  -10.3008   10.1593   -6.3020 H   0  0  0  0  0  0  0  0  0  0  0  0
  -12.2905    5.8850   -7.9511 H   0  0  0  0  0  0  0  0  0  0  0  0
  -11.4934    5.2140   -9.4093 H   0  0  0  0  0  0  0  0  0  0  0  0
   -8.7960   11.4448   -9.0520 H   0  0  0  0  0  0  0  0  0  0  0  0
   -9.6100   11.2107   -7.5098 H   0  0  0  0  0  0  0  0  0  0  0  0
   -6.8693    9.6565   -9.5823 H   0  0  0  0  0  0  0  0  0  0  0  0
   -5.9966    9.9067   -4.6807 H   0  0  0  0  0  0  0  0  0  0  0  0
   -4.6965    8.8761   -8.6791 H   0  0  0  0  0  0  0  0  0  0  0  0
   -8.1667   10.7432   -5.6120 H   0  0  0  0  0  0  0  0  0  0  0  0
  1  2  2  0
  1  3  1  0
  2  4  1  0
  2 11  1  0
  3  5  2  0
  4  6  2  0
  5  6  1  0
  5 10  1  0
  6  7  1  0
  7  8  1  0
  7 16  2  0
  7 17  2  0
  8  9  2  0
  9 10  1  0
  9 26  1  0
 11 12  1  0
 12 13  1  0
 12 14  2  0
 12 15  2  0
 18 19  2  0
 18 21  1  0
 18 28  1  0
 19 20  1  0
 20 23  2  0
 21 22  2  0
 22 23  1  0
 22 27  1  0
 23 24  1  0
 24 25  1  0
 24 30  1  0
 25 26  1  0
 25 31  2  0
 26 27  2  0
 27 29  1  0
 30 32  1  0
 32 33  2  0
 32 37  1  0
 33 36  1  0
 34 35  1  0
 34 36  2  0
 34 38  1  0
 35 37  2  0
  1 39  1  0
  3 40  1  0
  4 41  1  0
  8 42  1  0
 10 43  1  0
 11 44  1  0
 13 45  1  0
 13 46  1  0
 13 47  1  0
 19 48  1  0
 20 49  1  0
 21 50  1  0
 29 51  1  0
 30 52  1  0
 30 53  1  0
 33 54  1  0
 35 55  1  0
 36 56  1  0
 37 57  1  0
A    1
C1
A    2
C2
A    3
C3
A    4
C4
A    5
C5
A    6
C6
A    7
S7
A    8
C8
A    9
C9
A   10
N10
A   11
N11
A   12
S12
A   13
C13
A   14
O14
A   15
O15
A   16
O16
A   17
O17
A   18
C18
A   19
C19
A   20
C20
A   21
C21
A   22
C22
A   23
C23
A   24
N24
A   25
C25
A   26
C26
A   27
C27
A   28
F28
A   29
O29
A   30
C30
A   31
O31
A   32
C32
A   33
C33
A   34
C34
A   35
C35
A   36
C36
A   37
C37
A   38
F38
M  END
