3G8I_RO7_A_1
     RDKit          3D

 54 57  0  0  0  0  0  0  0  0999 V2000
   45.5950   33.3750   37.1100 C   0  0  0  0  0  0  0  0  0  0  0  0
   46.7530   32.4120   37.1250 C   0  0  0  0  0  0  0  0  0  0  0  0
   47.7480   32.5800   38.0350 O   0  0  0  0  0  0  0  0  0  0  0  0
   48.6300   31.5530   37.7480 C   0  0  0  0  0  0  0  0  0  0  0  0
   49.8280   31.1940   38.3710 C   0  0  0  0  0  0  0  0  0  0  0  0
   50.5750   30.0860   37.9470 C   0  0  0  0  0  0  0  0  0  0  0  0
   51.7760   29.7400   38.5810 C   0  0  0  0  0  0  0  0  0  0  0  0
   52.2240   30.5280   39.6630 C   0  0  0  0  0  0  0  0  0  0  0  0
   51.4860   31.6320   40.0920 C   0  0  0  0  0  0  0  0  0  0  0  0
   50.2900   31.9670   39.4470 C   0  0  0  0  0  0  0  0  0  0  0  0
   48.2380   30.7570   36.7070 N   0  0  0  0  0  0  0  0  0  0  0  0
   47.0720   31.2530   36.2680 C   0  0  0  0  0  0  0  0  0  0  0  0
   46.1820   30.7880   35.1620 C   0  0  0  0  0  0  0  0  0  0  0  0
   46.4810   31.5270   33.8790 C   0  0  0  0  0  0  0  0  0  0  0  0
   45.6220   32.6470   33.8060 O   0  0  0  0  0  0  0  0  0  0  0  0
   45.8420   33.6110   32.8740 C   0  0  0  0  0  0  0  0  0  0  0  0
   46.6850   33.4120   31.7720 C   0  0  0  0  0  0  0  0  0  0  0  0
   46.8820   34.4300   30.8210 C   0  0  0  0  0  0  0  0  0  0  0  0
   45.1200   34.8690   33.0480 C   0  0  0  0  0  0  0  0  0  0  0  0
   44.2050   35.1840   34.1210 C   0  0  0  0  0  0  0  0  0  0  0  0
   43.7710   36.4980   33.8890 C   0  0  0  0  0  0  0  0  0  0  0  0
   45.3020   35.9310   32.0820 C   0  0  0  0  0  0  0  0  0  0  0  0
   44.4160   37.2470   32.4990 S   0  0  0  0  0  0  0  0  0  0  0  0
   46.2250   35.6790   30.9340 C   0  0  0  0  0  0  0  0  0  0  0  0
   46.5010   36.7250   29.8760 C   0  0  0  0  0  0  0  0  0  0  0  0
   47.7790   37.4680   30.2810 C   0  0  0  0  0  0  0  0  0  0  0  0
   47.4970   38.3590   31.3810 O   0  0  0  0  0  0  0  0  0  0  0  0
   48.6880   39.0080   31.8670 C   0  0  0  0  0  0  0  0  0  0  0  0
   48.3050   38.1990   29.0840 C   0  0  0  0  0  0  0  0  0  0  0  0
   49.0280   37.5890   28.2940 O   0  0  0  0  0  0  0  0  0  0  0  0
   47.9770   39.3710   28.8980 O   0  0  0  0  0  0  0  0  0  0  0  0
   45.3052   33.6160   38.1434 H   0  0  0  0  0  0  0  0  0  0  0  0
   45.8913   34.2967   36.5878 H   0  0  0  0  0  0  0  0  0  0  0  0
   44.7428   32.9156   36.5878 H   0  0  0  0  0  0  0  0  0  0  0  0
   50.2130   29.4791   37.1040 H   0  0  0  0  0  0  0  0  0  0  0  0
   52.3585   28.8707   38.2418 H   0  0  0  0  0  0  0  0  0  0  0  0
   53.1638   30.2694   40.1729 H   0  0  0  0  0  0  0  0  0  0  0  0
   51.8442   32.2387   40.9368 H   0  0  0  0  0  0  0  0  0  0  0  0
   49.7105   32.8389   39.7846 H   0  0  0  0  0  0  0  0  0  0  0  0
   46.3398   29.7112   35.0020 H   0  0  0  0  0  0  0  0  0  0  0  0
   45.1379   30.9867   35.4455 H   0  0  0  0  0  0  0  0  0  0  0  0
   47.5292   31.8605   33.8766 H   0  0  0  0  0  0  0  0  0  0  0  0
   46.3208   30.8673   33.0135 H   0  0  0  0  0  0  0  0  0  0  0  0
   47.1992   32.4474   31.6491 H   0  0  0  0  0  0  0  0  0  0  0  0
   47.5598   34.2520   29.9731 H   0  0  0  0  0  0  0  0  0  0  0  0
   43.9086   34.5267   34.9517 H   0  0  0  0  0  0  0  0  0  0  0  0
   43.0633   37.0099   34.5577 H   0  0  0  0  0  0  0  0  0  0  0  0
   46.6422   36.2413   28.8982 H   0  0  0  0  0  0  0  0  0  0  0  0
   45.6563   37.4250   29.7953 H   0  0  0  0  0  0  0  0  0  0  0  0
   48.5501   36.7623   30.6236 H   0  0  0  0  0  0  0  0  0  0  0  0
   48.6839   39.0058   32.9670 H   0  0  0  0  0  0  0  0  0  0  0  0
   49.5744   38.4682   31.5025 H   0  0  0  0  0  0  0  0  0  0  0  0
   48.7149   40.0455   31.5025 H   0  0  0  0  0  0  0  0  0  0  0  0
   49.7384   36.9896   28.6348 H   0  0  0  0  0  0  0  0  0  0  0  0
  1  2  1  0
  2  3  1  0
  2 12  2  0
  3  4  1  0
  4  5  1  0
  4 11  2  0
  5  6  2  0
  5 10  1  0
  6  7  1  0
  7  8  2  0
  8  9  1  0
  9 10  2  0
 11 12  1  0
 12 13  1  0
 13 14  1  0
 14 15  1  0
 15 16  1  0
 16 17  2  0
 16 19  1  0
 17 18  1  0
 18 24  2  0
 19 20  1  0
 19 22  2  0
 20 21  2  0
 21 23  1  0
 22 23  1  0
 22 24  1  0
 24 25  1  0
 25 26  1  0
 26 27  1  0
 26 29  1  0
 27 28  1  0
 29 30  1  0
 29 31  2  0
  1 32  1  0
  1 33  1  0
  1 34  1  0
  6 35  1  0
  7 36  1  0
  8 37  1  0
  9 38  1  0
 10 39  1  0
 13 40  1  0
 13 41  1  0
 14 42  1  0
 14 43  1  0
 17 44  1  0
 18 45  1  0
 20 46  1  0
 21 47  1  0
 25 48  1  0
 25 49  1  0
 26 50  1  0
 28 51  1  0
 28 52  1  0
 28 53  1  0
 30 54  1  0
A    1
C25
A    2
C7
A    3
O3
A    4
C2
A    5
C16
A    6
C26
A    7
C29
A    8
C31
A    9
C30
A   10
C27
A   11
N1
A   12
C4
A   13
C20
A   14
C23
A   15
O22
A   16
C13
A   17
C19
A   18
C17
A   19
C5
A   20
C15
A   21
C12
A   22
C6
A   23
S9
A   24
C8
A   25
C11
A   26
C14
A   27
O24
A   28
C28
A   29
C10
A   30
O21
A   31
O18
M  END
