3G8O_30X_A_1
     RDKit          3D

 40 40  0  0  0  0  0  0  0  0999 V2000
   -3.9950   -7.4150   26.4570 C   0  0  0  0  0  0  0  0  0  0  0  0
   -3.7480   -9.8240   29.3570 C   0  0  0  0  0  0  0  0  0  0  0  0
   -2.1880   -9.4800   27.3460 C   0  0  0  0  0  0  0  0  0  0  0  0
   -1.9400   -8.7520   26.1500 C   0  0  0  0  0  0  0  0  0  0  0  0
   -1.1540  -10.5800   27.7410 C   0  0  0  0  0  0  0  0  0  0  0  0
   -3.7970   -5.2590   20.6200 C   0  0  0  0  0  0  0  0  0  0  0  0
   -4.8770   -6.6730   22.4470 C   0  0  0  0  0  0  0  0  0  0  0  0
   -2.0080   -4.6930   25.2740 C   0  0  0  0  0  0  0  0  0  0  0  0
   -2.9840   -5.5600   24.4390 C   0  0  0  0  0  0  0  0  0  0  0  0
   -2.5310   -6.9980   24.4150 N   0  0  0  0  0  0  0  0  0  0  0  0
   -1.0750   -7.1030   24.0600 C   0  0  0  0  0  0  0  0  0  0  0  0
   -0.8690   -8.0270   22.8410 C   0  0  0  0  0  0  0  0  0  0  0  0
   -1.6980   -7.6830   21.8710 F   0  0  0  0  0  0  0  0  0  0  0  0
    0.3860   -7.9070   22.4100 F   0  0  0  0  0  0  0  0  0  0  0  0
   -1.1090   -9.2930   23.1740 F   0  0  0  0  0  0  0  0  0  0  0  0
   -2.8250   -7.7150   25.6830 C   0  0  0  0  0  0  0  0  0  0  0  0
   -4.2650   -8.1240   27.6570 C   0  0  0  0  0  0  0  0  0  0  0  0
   -3.3900   -9.1510   28.1190 C   0  0  0  0  0  0  0  0  0  0  0  0
   -4.0370  -10.3590   30.3370 N   0  0  0  0  0  0  0  0  0  0  0  0
   -0.7140  -11.1890   26.6510 F   0  0  0  0  0  0  0  0  0  0  0  0
   -1.6750  -11.5230   28.5170 F   0  0  0  0  0  0  0  0  0  0  0  0
   -0.1210  -10.0170   28.3500 F   0  0  0  0  0  0  0  0  0  0  0  0
   -3.0460   -5.0620   22.9740 C   0  0  0  0  0  0  0  0  0  0  0  0
   -2.3330   -4.1130   22.6290 O   0  0  0  0  0  0  0  0  0  0  0  0
   -3.8770   -5.6470   22.0510 N   0  0  0  0  0  0  0  0  0  0  0  0
   -4.6876   -6.6303   26.1184 H   0  0  0  0  0  0  0  0  0  0  0  0
   -1.0416   -8.9885   25.5609 H   0  0  0  0  0  0  0  0  0  0  0  0
   -3.5754   -4.1843   20.5433 H   0  0  0  0  0  0  0  0  0  0  0  0
   -2.9985   -5.8340   20.1283 H   0  0  0  0  0  0  0  0  0  0  0  0
   -4.7578   -5.4713   20.1283 H   0  0  0  0  0  0  0  0  0  0  0  0
   -4.9308   -6.7282   23.5443 H   0  0  0  0  0  0  0  0  0  0  0  0
   -5.8633   -6.3981   22.0449 H   0  0  0  0  0  0  0  0  0  0  0  0
   -4.5769   -7.6519   22.0449 H   0  0  0  0  0  0  0  0  0  0  0  0
   -2.1948   -4.8590   26.3452 H   0  0  0  0  0  0  0  0  0  0  0  0
   -0.9717   -4.9738   25.0347 H   0  0  0  0  0  0  0  0  0  0  0  0
   -2.1647   -3.6308   25.0347 H   0  0  0  0  0  0  0  0  0  0  0  0
   -3.9748   -5.4792   24.9099 H   0  0  0  0  0  0  0  0  0  0  0  0
   -0.6897   -6.1008   23.8211 H   0  0  0  0  0  0  0  0  0  0  0  0
   -0.5345   -7.5288   24.9182 H   0  0  0  0  0  0  0  0  0  0  0  0
   -5.1643   -7.8770   28.2403 H   0  0  0  0  0  0  0  0  0  0  0  0
 16  1  2  0
  1 17  1  0
 18  2  1  0
  2 19  3  0
  4  3  2  0
  3  5  1  0
  3 18  1  0
 16  4  1  0
 20  5  1  0
  5 22  1  0
  5 21  1  0
  6 25  1  0
 25  7  1  0
  9  8  1  0
 23  9  1  0
 10  9  1  0
 11 10  1  0
 10 16  1  0
 12 11  1  0
 13 12  1  0
 14 12  1  0
 12 15  1  0
 17 18  2  0
 25 23  1  0
 24 23  2  0
  1 26  1  0
  4 27  1  0
  6 28  1  0
  6 29  1  0
  6 30  1  0
  7 31  1  0
  7 32  1  0
  7 33  1  0
  8 34  1  0
  8 35  1  0
  8 36  1  0
  9 37  1  0
 11 38  1  0
 11 39  1  0
 17 40  1  0
A    1
C10
A    2
C13
A    3
C15
A    4
C16
A    5
C17
A    6
C24
A    7
C25
A    8
C1
A    9
C2
A   10
N3
A   11
C4
A   12
C5
A   13
F6
A   14
F7
A   15
F8
A   16
C9
A   17
C11
A   18
C12
A   19
N14
A   20
F18
A   21
F19
A   22
F20
A   23
C21
A   24
O22
A   25
N23
M  END
