3G9N_J88_A_359
     RDKit          3D

 47 51  0  0  0  0  0  0  0  0999 V2000
   18.0180   29.6100   20.8440 O   0  0  0  0  0  0  0  0  0  0  0  0
   18.7760   28.4110   20.8220 N   0  0  0  0  0  0  0  0  0  0  0  0
   19.9320   28.3700   21.4380 C   0  0  0  0  0  0  0  0  0  0  0  0
   20.4830   29.4920   22.2080 C   0  0  0  0  0  0  0  0  0  0  0  0
   19.9650   30.5860   22.2730 O   0  0  0  0  0  0  0  0  0  0  0  0
   21.5930   29.0600   22.8140 N   0  0  0  0  0  0  0  0  0  0  0  0
   22.4190   29.8590   23.7080 C   0  0  0  0  0  0  0  0  0  0  0  0
   23.2760   30.8480   22.9880 C   0  0  0  0  0  0  0  0  0  0  0  0
   22.7090   31.7570   22.1190 C   0  0  0  0  0  0  0  0  0  0  0  0
   23.5110   32.6720   21.4710 C   0  0  0  0  0  0  0  0  0  0  0  0
   22.9400   33.5430   20.6200 F   0  0  0  0  0  0  0  0  0  0  0  0
   24.8860   32.6860   21.7000 C   0  0  0  0  0  0  0  0  0  0  0  0
   25.4490   31.7710   22.5800 C   0  0  0  0  0  0  0  0  0  0  0  0
   26.9300   31.7660   22.8420 C   0  0  0  0  0  0  0  0  0  0  0  0
   27.1540   31.1600   24.1240 O   0  0  0  0  0  0  0  0  0  0  0  0
   26.5980   29.8390   24.2180 C   0  0  0  0  0  0  0  0  0  0  0  0
   25.1690   29.9360   24.1060 O   0  0  0  0  0  0  0  0  0  0  0  0
   24.6430   30.8480   23.2330 C   0  0  0  0  0  0  0  0  0  0  0  0
   21.8800   27.7400   22.5000 C   0  0  0  0  0  0  0  0  0  0  0  0
   22.9540   26.9210   22.8790 C   0  0  0  0  0  0  0  0  0  0  0  0
   23.0500   25.6160   22.4170 C   0  0  0  0  0  0  0  0  0  0  0  0
   22.0790   25.1210   21.5710 C   0  0  0  0  0  0  0  0  0  0  0  0
   20.9930   25.9130   21.1620 C   0  0  0  0  0  0  0  0  0  0  0  0
   20.9020   27.2520   21.6200 C   0  0  0  0  0  0  0  0  0  0  0  0
   19.9810   25.3210   20.2350 C   0  0  0  0  0  0  0  0  0  0  0  0
   18.9930   26.0990   19.6240 C   0  0  0  0  0  0  0  0  0  0  0  0
   18.0710   25.5410   18.7630 C   0  0  0  0  0  0  0  0  0  0  0  0
   18.1240   24.1850   18.4880 C   0  0  0  0  0  0  0  0  0  0  0  0
   19.0870   23.3860   19.0790 C   0  0  0  0  0  0  0  0  0  0  0  0
   20.0080   23.9520   19.9450 C   0  0  0  0  0  0  0  0  0  0  0  0
   17.7606   30.0171   21.7089 H   0  0  0  0  0  0  0  0  0  0  0  0
   21.7598   30.4048   24.3991 H   0  0  0  0  0  0  0  0  0  0  0  0
   23.0909   29.1681   24.2382 H   0  0  0  0  0  0  0  0  0  0  0  0
   21.6230   31.7517   21.9441 H   0  0  0  0  0  0  0  0  0  0  0  0
   25.5234   33.4199   21.1850 H   0  0  0  0  0  0  0  0  0  0  0  0
   27.4449   31.1873   22.0610 H   0  0  0  0  0  0  0  0  0  0  0  0
   27.3222   32.7937   22.8325 H   0  0  0  0  0  0  0  0  0  0  0  0
   26.9921   29.2120   23.4046 H   0  0  0  0  0  0  0  0  0  0  0  0
   26.8701   29.3836   25.1816 H   0  0  0  0  0  0  0  0  0  0  0  0
   23.7295   27.3181   23.5506 H   0  0  0  0  0  0  0  0  0  0  0  0
   23.8942   24.9807   22.7231 H   0  0  0  0  0  0  0  0  0  0  0  0
   22.1567   24.0851   21.2093 H   0  0  0  0  0  0  0  0  0  0  0  0
   18.9500   27.1779   19.8341 H   0  0  0  0  0  0  0  0  0  0  0  0
   17.2979   26.1699   18.2974 H   0  0  0  0  0  0  0  0  0  0  0  0
   17.3953   23.7396   17.7947 H   0  0  0  0  0  0  0  0  0  0  0  0
   19.1208   22.3081   18.8624 H   0  0  0  0  0  0  0  0  0  0  0  0
   20.7733   23.3150   20.4126 H   0  0  0  0  0  0  0  0  0  0  0  0
  1  2  1  0
  2  3  2  0
  3  4  1  0
  3 24  1  0
  4  5  2  0
  4  6  1  0
  6  7  1  0
  6 19  1  0
  7  8  1  0
  8  9  2  0
  8 18  1  0
  9 10  1  0
 10 11  1  0
 10 12  2  0
 12 13  1  0
 13 14  1  0
 13 18  2  0
 14 15  1  0
 15 16  1  0
 16 17  1  0
 17 18  1  0
 19 20  2  0
 19 24  1  0
 20 21  1  0
 21 22  2  0
 22 23  1  0
 23 24  2  0
 23 25  1  0
 25 26  2  0
 25 30  1  0
 26 27  1  0
 27 28  2  0
 28 29  1  0
 29 30  2  0
  1 31  1  0
  7 32  1  0
  7 33  1  0
  9 34  1  0
 12 35  1  0
 14 36  1  0
 14 37  1  0
 16 38  1  0
 16 39  1  0
 20 40  1  0
 21 41  1  0
 22 42  1  0
 26 43  1  0
 27 44  1  0
 28 45  1  0
 29 46  1  0
 30 47  1  0
A    1
O1
A    2
N2
A    3
C3
A    4
C4
A    5
O5
A    6
N6
A    7
C7
A    8
C8
A    9
C9
A   10
C10
A   11
F11
A   12
C12
A   13
C13
A   14
C14
A   15
O15
A   16
C16
A   17
O17
A   18
C18
A   19
C19
A   20
C20
A   21
C21
A   22
C22
A   23
C23
A   24
C24
A   25
C25
A   26
C26
A   27
C27
A   28
C28
A   29
C29
A   30
C30
M  END
