3GB2_G3B_A_999
     RDKit          3D

 38 41  0  0  0  0  0  0  0  0999 V2000
   25.2600   15.3140    4.4490 O   0  0  0  0  0  0  0  0  0  0  0  0
   26.5780   14.6940    4.7990 S   0  0  0  0  0  0  0  0  0  0  0  0
   26.7030   13.0690    4.0250 C   0  0  0  0  0  0  0  0  0  0  0  0
   27.8280   15.8350    4.1750 C   0  0  0  0  0  0  0  0  0  0  0  0
   27.4840   16.7070    3.1400 C   0  0  0  0  0  0  0  0  0  0  0  0
   29.1080   15.8460    4.7080 C   0  0  0  0  0  0  0  0  0  0  0  0
   30.0420   16.7360    4.2050 C   0  0  0  0  0  0  0  0  0  0  0  0
   29.6960   17.5970    3.1690 C   0  0  0  0  0  0  0  0  0  0  0  0
   28.4170   17.5990    2.6300 C   0  0  0  0  0  0  0  0  0  0  0  0
   30.7110   18.5390    2.6470 C   0  0  0  0  0  0  0  0  0  0  0  0
   32.0350   18.1740    2.0450 C   0  0  0  0  0  0  0  0  0  0  0  0
   32.6450   19.4440    1.7090 C   0  0  0  0  0  0  0  0  0  0  0  0
   31.7880   20.4900    2.0660 O   0  0  0  0  0  0  0  0  0  0  0  0
   30.5670   19.9290    2.6610 C   0  0  0  0  0  0  0  0  0  0  0  0
   33.8830   19.5230    1.1300 C   0  0  0  0  0  0  0  0  0  0  0  0
   32.6880   16.9870    1.7830 C   0  0  0  0  0  0  0  0  0  0  0  0
   33.9400   17.0860    1.2030 C   0  0  0  0  0  0  0  0  0  0  0  0
   34.5070   18.3150    0.8760 C   0  0  0  0  0  0  0  0  0  0  0  0
   34.6890   15.8600    0.8600 C   0  0  0  0  0  0  0  0  0  0  0  0
   34.4080   14.5910    1.2630 O   0  0  0  0  0  0  0  0  0  0  0  0
   35.3360   13.7940    0.6560 C   0  0  0  0  0  0  0  0  0  0  0  0
   35.2290   12.3230    0.9530 C   0  0  0  0  0  0  0  0  0  0  0  0
   36.1750   14.5050   -0.1110 N   0  0  0  0  0  0  0  0  0  0  0  0
   35.7450   15.8300    0.0230 N   0  0  0  0  0  0  0  0  0  0  0  0
   26.7625   12.2952    4.8045 H   0  0  0  0  0  0  0  0  0  0  0  0
   25.8158   12.8917    3.3993 H   0  0  0  0  0  0  0  0  0  0  0  0
   27.6068   13.0294    3.3993 H   0  0  0  0  0  0  0  0  0  0  0  0
   26.4653   16.6868    2.7255 H   0  0  0  0  0  0  0  0  0  0  0  0
   29.3783   15.1559    5.5208 H   0  0  0  0  0  0  0  0  0  0  0  0
   31.0583   16.7620    4.6251 H   0  0  0  0  0  0  0  0  0  0  0  0
   28.1492   18.2910    1.8180 H   0  0  0  0  0  0  0  0  0  0  0  0
   29.7049   20.4948    3.0440 H   0  0  0  0  0  0  0  0  0  0  0  0
   34.3520   20.4867    0.8823 H   0  0  0  0  0  0  0  0  0  0  0  0
   32.2366   16.0130    2.0228 H   0  0  0  0  0  0  0  0  0  0  0  0
   35.4957   18.3257    0.3940 H   0  0  0  0  0  0  0  0  0  0  0  0
   35.2178   12.1687    2.0421 H   0  0  0  0  0  0  0  0  0  0  0  0
   34.2997   11.9276    0.5170 H   0  0  0  0  0  0  0  0  0  0  0  0
   36.0913   11.7972    0.5170 H   0  0  0  0  0  0  0  0  0  0  0  0
  1  2  2  0
  2  3  1  0
  2  4  1  0
  4  5  2  0
  4  6  1  0
  5  9  1  0
  6  7  2  0
  7  8  1  0
  8  9  2  0
  8 10  1  0
 10 11  1  0
 10 14  2  0
 11 12  2  0
 11 16  1  0
 12 13  1  0
 12 15  1  0
 13 14  1  0
 15 18  2  0
 16 17  2  0
 17 18  1  0
 17 19  1  0
 19 20  1  0
 19 24  2  0
 20 21  1  0
 21 22  1  0
 21 23  2  0
 23 24  1  0
  3 25  1  0
  3 26  1  0
  3 27  1  0
  5 28  1  0
  6 29  1  0
  7 30  1  0
  9 31  1  0
 14 32  1  0
 15 33  1  0
 16 34  1  0
 18 35  1  0
 22 36  1  0
 22 37  1  0
 22 38  1  0
A    1
O21
A    2
S24
A    3
C18
A    4
C14
A    5
C5
A    6
C6
A    7
C3
A    8
C10
A    9
C2
A   10
C12
A   11
C9
A   12
C13
A   13
O22
A   14
C8
A   15
C4
A   16
C7
A   17
C11
A   18
C1
A   19
C15
A   20
O23
A   21
C16
A   22
C17
A   23
N20
A   24
N19
M  END
