3GC4_AAQ_A_395
     RDKit          3D

 48 51  0  0  0  0  0  0  0  0999 V2000
   19.1940   17.7830   18.0840 N   0  0  0  0  0  0  0  0  0  0  0  0
   18.4630   17.4240   19.1900 C   0  0  0  0  0  0  0  0  0  0  0  0
   18.7390   17.4460   20.5560 C   0  0  0  0  0  0  0  0  0  0  0  0
   17.6900   17.0930   21.4020 C   0  0  0  0  0  0  0  0  0  0  0  0
   16.4550   16.6170   20.9130 C   0  0  0  0  0  0  0  0  0  0  0  0
   16.2410   16.5210   19.5190 C   0  0  0  0  0  0  0  0  0  0  0  0
   14.9170   16.1430   18.8990 C   0  0  0  0  0  0  0  0  0  0  0  0
   15.0480   14.7270   18.3610 C   0  0  0  0  0  0  0  0  0  0  0  0
   14.1730   14.5010   17.1950 N   0  0  0  0  0  0  0  0  0  0  0  0
   12.7390   14.3210   17.5730 C   0  0  0  0  0  0  0  0  0  0  0  0
   11.9520   15.4770   17.0370 C   0  0  0  0  0  0  0  0  0  0  0  0
   11.7080   16.5890   17.8340 C   0  0  0  0  0  0  0  0  0  0  0  0
   10.9800   17.6800   17.3630 C   0  0  0  0  0  0  0  0  0  0  0  0
   10.4960   17.6270   16.0620 C   0  0  0  0  0  0  0  0  0  0  0  0
   10.7350   16.5180   15.2530 C   0  0  0  0  0  0  0  0  0  0  0  0
   11.4640   15.4320   15.7310 C   0  0  0  0  0  0  0  0  0  0  0  0
   17.2660   16.9660   18.6650 C   0  0  0  0  0  0  0  0  0  0  0  0
   17.2590   17.0560   17.2950 N   0  0  0  0  0  0  0  0  0  0  0  0
   18.3810   17.6530   16.9790 C   0  0  0  0  0  0  0  0  0  0  0  0
   18.9100   17.8630   15.7620 N   0  0  0  0  0  0  0  0  0  0  0  0
   18.0740   17.7240   14.5990 C   0  0  0  0  0  0  0  0  0  0  0  0
   15.4210   16.3180   21.8320 N   0  0  0  0  0  0  0  0  0  0  0  0
   15.5640   16.5040   23.1180 C   0  0  0  0  0  0  0  0  0  0  0  0
   14.6120   16.0810   24.0300 N   0  0  0  0  0  0  0  0  0  0  0  0
   16.7650   16.9430   23.6460 N   0  0  0  0  0  0  0  0  0  0  0  0
   17.8760   17.2060   22.8550 C   0  0  0  0  0  0  0  0  0  0  0  0
   18.9780   17.5150   23.3130 O   0  0  0  0  0  0  0  0  0  0  0  0
   20.1758   18.0942   18.0811 H   0  0  0  0  0  0  0  0  0  0  0  0
   19.7293   17.7263   20.9442 H   0  0  0  0  0  0  0  0  0  0  0  0
   14.1222   16.1836   19.6584 H   0  0  0  0  0  0  0  0  0  0  0  0
   14.6565   16.8409   18.0896 H   0  0  0  0  0  0  0  0  0  0  0  0
   16.0923   14.5552   18.0611 H   0  0  0  0  0  0  0  0  0  0  0  0
   14.7452   14.0297   19.1561 H   0  0  0  0  0  0  0  0  0  0  0  0
   14.2479   15.3126   16.5653 H   0  0  0  0  0  0  0  0  0  0  0  0
   12.3579   13.3829   17.1433 H   0  0  0  0  0  0  0  0  0  0  0  0
   12.6428   14.2778   18.6679 H   0  0  0  0  0  0  0  0  0  0  0  0
   12.0991   16.6085   18.8619 H   0  0  0  0  0  0  0  0  0  0  0  0
   10.7944   18.5561   18.0017 H   0  0  0  0  0  0  0  0  0  0  0  0
    9.9157   18.4728   15.6647 H   0  0  0  0  0  0  0  0  0  0  0  0
   10.3434   16.5001   14.2252 H   0  0  0  0  0  0  0  0  0  0  0  0
   11.6512   14.5566   15.0918 H   0  0  0  0  0  0  0  0  0  0  0  0
   19.9023   18.1205   15.6626 H   0  0  0  0  0  0  0  0  0  0  0  0
   17.0342   17.5511   14.9134 H   0  0  0  0  0  0  0  0  0  0  0  0
   18.1271   18.6433   13.9973 H   0  0  0  0  0  0  0  0  0  0  0  0
   18.4217   16.8713   13.9973 H   0  0  0  0  0  0  0  0  0  0  0  0
   14.7948   16.1622   25.0404 H   0  0  0  0  0  0  0  0  0  0  0  0
   13.7209   15.6851   23.6981 H   0  0  0  0  0  0  0  0  0  0  0  0
   16.8381   17.0800   24.6642 H   0  0  0  0  0  0  0  0  0  0  0  0
  1  2  1  0
  1 19  1  0
  2  3  2  0
  2 17  1  0
  3  4  1  0
  4  5  2  0
  4 26  1  0
  5  6  1  0
  5 22  1  0
  6  7  1  0
  6 17  2  0
  7  8  1  0
  8  9  1  0
  9 10  1  0
 10 11  1  0
 11 12  2  0
 11 16  1  0
 12 13  1  0
 13 14  2  0
 14 15  1  0
 15 16  2  0
 17 18  1  0
 18 19  2  0
 19 20  1  0
 20 21  1  0
 22 23  2  0
 23 24  1  0
 23 25  1  0
 25 26  1  0
 26 27  2  0
  1 28  1  0
  3 29  1  0
  7 30  1  0
  7 31  1  0
  8 32  1  0
  8 33  1  0
  9 34  1  0
 10 35  1  0
 10 36  1  0
 12 37  1  0
 13 38  1  0
 14 39  1  0
 15 40  1  0
 16 41  1  0
 20 42  1  0
 21 43  1  0
 21 44  1  0
 21 45  1  0
 24 46  1  0
 24 47  1  0
 25 48  1  0
A    1
N1
A    2
C3
A    3
C2
A    4
C4
A    5
C5
A    6
C6
A    7
C7
A    8
C8
A    9
N2
A   10
C9
A   11
C10
A   12
C11
A   13
C12
A   14
C13
A   15
C14
A   16
C15
A   17
C16
A   18
N3
A   19
C17
A   20
N4
A   21
C1
A   22
N5
A   23
C18
A   24
N6
A   25
N7
A   26
C19
A   27
O1
M  END
