3GC5_2MQ_A_400
     RDKit          3D

 35 37  0  0  0  0  0  0  0  0999 V2000
   17.7530   17.0200   23.2150 C   0  0  0  0  0  0  0  0  0  0  0  0
   18.8610   17.3540   23.6670 O   0  0  0  0  0  0  0  0  0  0  0  0
   16.7300   16.6860   23.9790 N   0  0  0  0  0  0  0  0  0  0  0  0
   15.5830   16.2690   23.4620 C   0  0  0  0  0  0  0  0  0  0  0  0
   14.5810   15.9940   24.2690 N   0  0  0  0  0  0  0  0  0  0  0  0
   15.4180   16.1260   22.1830 N   0  0  0  0  0  0  0  0  0  0  0  0
   16.3800   16.4370   21.2420 C   0  0  0  0  0  0  0  0  0  0  0  0
   16.1120   16.4660   19.8640 C   0  0  0  0  0  0  0  0  0  0  0  0
   14.7760   16.0480   19.2000 C   0  0  0  0  0  0  0  0  0  0  0  0
   14.9090   14.5750   18.6350 C   0  0  0  0  0  0  0  0  0  0  0  0
   13.8940   14.3930   17.5800 N   0  0  0  0  0  0  0  0  0  0  0  0
   17.1210   16.9270   19.0120 C   0  0  0  0  0  0  0  0  0  0  0  0
   17.1880   17.0350   17.6650 N   0  0  0  0  0  0  0  0  0  0  0  0
   18.3380   17.5260   17.3620 C   0  0  0  0  0  0  0  0  0  0  0  0
   18.7880   17.7640   16.1430 N   0  0  0  0  0  0  0  0  0  0  0  0
   18.0510   17.6040   14.9130 C   0  0  0  0  0  0  0  0  0  0  0  0
   19.1160   17.6320   18.4150 N   0  0  0  0  0  0  0  0  0  0  0  0
   18.3990   17.2280   19.4760 C   0  0  0  0  0  0  0  0  0  0  0  0
   18.6570   17.2870   20.8440 C   0  0  0  0  0  0  0  0  0  0  0  0
   17.6060   16.9260   21.7080 C   0  0  0  0  0  0  0  0  0  0  0  0
   16.8253   16.7510   25.0025 H   0  0  0  0  0  0  0  0  0  0  0  0
   14.7164   16.0312   25.2894 H   0  0  0  0  0  0  0  0  0  0  0  0
   13.6611   15.7415   23.8804 H   0  0  0  0  0  0  0  0  0  0  0  0
   13.9683   16.0836   19.9459 H   0  0  0  0  0  0  0  0  0  0  0  0
   14.5430   16.7384   18.3760 H   0  0  0  0  0  0  0  0  0  0  0  0
   15.9144   14.4269   18.2140 H   0  0  0  0  0  0  0  0  0  0  0  0
   14.7544   13.8431   19.4415 H   0  0  0  0  0  0  0  0  0  0  0  0
   12.9742   14.2281   18.0133 H   0  0  0  0  0  0  0  0  0  0  0  0
   13.8511   15.2397   16.9951 H   0  0  0  0  0  0  0  0  0  0  0  0
   16.4482   16.7705   16.9990 H   0  0  0  0  0  0  0  0  0  0  0  0
   19.7597   18.0962   16.0628 H   0  0  0  0  0  0  0  0  0  0  0  0
   16.9997   17.3758   15.1425 H   0  0  0  0  0  0  0  0  0  0  0  0
   18.1052   18.5348   14.3294 H   0  0  0  0  0  0  0  0  0  0  0  0
   18.4862   16.7794   14.3294 H   0  0  0  0  0  0  0  0  0  0  0  0
   19.6374   17.6014   21.2312 H   0  0  0  0  0  0  0  0  0  0  0  0
  1  2  2  0
  1  3  1  0
  1 20  1  0
  3  4  1  0
  4  5  1  0
  4  6  2  0
  6  7  1  0
  7  8  1  0
  7 20  2  0
  8  9  1  0
  8 12  2  0
  9 10  1  0
 10 11  1  0
 12 13  1  0
 12 18  1  0
 13 14  1  0
 14 15  1  0
 14 17  2  0
 15 16  1  0
 17 18  1  0
 18 19  2  0
 19 20  1  0
  3 21  1  0
  5 22  1  0
  5 23  1  0
  9 24  1  0
  9 25  1  0
 10 26  1  0
 10 27  1  0
 11 28  1  0
 11 29  1  0
 13 30  1  0
 15 31  1  0
 16 32  1  0
 16 33  1  0
 16 34  1  0
 19 35  1  0
A    1
C2
A    2
O19
A    3
N3
A    4
C4
A    5
N20
A    6
N5
A    7
C6
A    8
C10
A    9
C16
A   10
C17
A   11
N18
A   12
C9
A   13
N11
A   14
C12
A   15
N14
A   16
C15
A   17
N13
A   18
C8
A   19
C7
A   20
C1
M  END
