3GDX_4BD_A_346
     RDKit          3D

 48 49  0  0  0  0  0  0  0  0999 V2000
    5.1880    5.4400   14.9440 P   0  0  0  0  0  0  0  0  0  0  0  0
    4.0110    5.4470   15.8570 O   0  0  0  0  0  0  0  0  0  0  0  0
    6.4510    6.0540   15.4280 O   0  0  0  0  0  0  0  0  0  0  0  0
    5.5170    3.7630   14.3640 C   0  0  0  0  0  0  0  0  0  0  0  0
    6.3430    3.8310   13.3270 F   0  0  0  0  0  0  0  0  0  0  0  0
    6.1620    3.1230   15.3440 F   0  0  0  0  0  0  0  0  0  0  0  0
    4.7230    6.3770   13.7330 O   0  0  0  0  0  0  0  0  0  0  0  0
    4.1160    2.7560   13.8790 P   0  0  0  0  0  0  0  0  0  0  0  0
    4.2810    2.3140   12.4710 O   0  0  0  0  0  0  0  0  0  0  0  0
    2.8410    3.3870   14.2820 O   0  0  0  0  0  0  0  0  0  0  0  0
    4.2320    1.4840   14.6840 O   0  0  0  0  0  0  0  0  0  0  0  0
    4.0000    1.2770   16.1690 P   0  0  0  0  0  0  0  0  0  0  0  0
    5.1930    0.5570   16.6850 O   0  0  0  0  0  0  0  0  0  0  0  0
    2.6620    0.6740   16.3720 O   0  0  0  0  0  0  0  0  0  0  0  0
    4.0020    2.6150   16.8250 O   0  0  0  0  0  0  0  0  0  0  0  0
    3.5120    6.1430   13.0170 C   0  0  0  0  0  0  0  0  0  0  0  0
    3.7130    6.3780   11.5380 C   0  0  0  0  0  0  0  0  0  0  0  0
    4.5470    7.5410   11.2790 O   0  0  0  0  0  0  0  0  0  0  0  0
    5.2900    7.3370   10.0880 C   0  0  0  0  0  0  0  0  0  0  0  0
    6.7370    7.4700   10.3900 N   0  0  0  0  0  0  0  0  0  0  0  0
    7.2190    7.1630   11.6450 C   0  0  0  0  0  0  0  0  0  0  0  0
    7.5940    7.8740    9.3780 C   0  0  0  0  0  0  0  0  0  0  0  0
    7.2180    8.2020    8.2650 O   0  0  0  0  0  0  0  0  0  0  0  0
    8.9230    7.8770    9.7240 N   0  0  0  0  0  0  0  0  0  0  0  0
    9.4710    7.5310   10.9420 C   0  0  0  0  0  0  0  0  0  0  0  0
   10.6880    7.5260   11.0790 O   0  0  0  0  0  0  0  0  0  0  0  0
    8.5170    7.1740   11.9730 C   0  0  0  0  0  0  0  0  0  0  0  0
    9.0220    6.5730   13.2470 C   0  0  0  0  0  0  0  0  0  0  0  0
    4.9210    5.9430    9.5630 C   0  0  0  0  0  0  0  0  0  0  0  0
    4.4360    5.2520   10.8370 C   0  0  0  0  0  0  0  0  0  0  0  0
    3.4920    4.2220   10.5940 O   0  0  0  0  0  0  0  0  0  0  0  0
    4.3223    5.4451   16.7968 H   0  0  0  0  0  0  0  0  0  0  0  0
    2.7844    3.4150   15.2700 H   0  0  0  0  0  0  0  0  0  0  0  0
    5.1804    0.5646   17.6749 H   0  0  0  0  0  0  0  0  0  0  0  0
    4.0018    2.5004   17.8083 H   0  0  0  0  0  0  0  0  0  0  0  0
    3.1928    5.1026   13.1774 H   0  0  0  0  0  0  0  0  0  0  0  0
    2.7433    6.8386   13.3847 H   0  0  0  0  0  0  0  0  0  0  0  0
    2.6856    6.4912   11.1616 H   0  0  0  0  0  0  0  0  0  0  0  0
    5.0572    8.0827    9.3135 H   0  0  0  0  0  0  0  0  0  0  0  0
    6.4920    6.8923   12.4249 H   0  0  0  0  0  0  0  0  0  0  0  0
    9.5852    8.1706    8.9918 H   0  0  0  0  0  0  0  0  0  0  0  0
    8.5777    7.1017   14.1032 H   0  0  0  0  0  0  0  0  0  0  0  0
    8.7421    5.5100   13.2871 H   0  0  0  0  0  0  0  0  0  0  0  0
   10.1174    6.6655   13.2871 H   0  0  0  0  0  0  0  0  0  0  0  0
    4.1234    5.9970    8.8074 H   0  0  0  0  0  0  0  0  0  0  0  0
    5.7481    5.4218    9.0589 H   0  0  0  0  0  0  0  0  0  0  0  0
    5.2669    4.7785   11.3805 H   0  0  0  0  0  0  0  0  0  0  0  0
    3.1643    3.8644   11.4570 H   0  0  0  0  0  0  0  0  0  0  0  0
  7  1  1  0
  4  1  1  0
  1  3  2  0
  1  2  1  0
  5  4  1  0
  8  4  1  0
  4  6  1  0
 16  7  1  0
  9  8  2  0
  8 10  1  0
  8 11  1  0
 11 12  1  0
 12 14  2  0
 12 13  1  0
 12 15  1  0
 17 16  1  0
 30 17  1  0
 18 17  1  0
 19 18  1  0
 29 19  1  0
 19 20  1  0
 22 20  1  0
 20 21  1  0
 21 27  2  0
 23 22  2  0
 22 24  1  0
 24 25  1  0
 25 26  2  0
 25 27  1  0
 27 28  1  0
 29 30  1  0
 31 30  1  0
  2 32  1  0
 10 33  1  0
 13 34  1  0
 15 35  1  0
 16 36  1  0
 16 37  1  0
 17 38  1  0
 19 39  1  0
 21 40  1  0
 24 41  1  0
 28 42  1  0
 28 43  1  0
 28 44  1  0
 29 45  1  0
 29 46  1  0
 30 47  1  0
 31 48  1  0
A    1
PA
A    2
O1A
A    3
O2A
A    4
C3A
A    5
F1A
A    6
F2A
A    7
O5'
A    8
PB
A    9
O1B
A   10
O2B
A   11
O3B
A   12
PG
A   13
O1G
A   14
O2G
A   15
O3G
A   16
C5'
A   17
C4'
A   18
O4'
A   19
C1'
A   20
N1
A   21
C6
A   22
C2
A   23
O2
A   24
N3
A   25
C4
A   26
O4
A   27
C5
A   28
C5M
A   29
C2'
A   30
C3'
A   31
O3'
M  END
