3GHC_GHC_A_187
     RDKit          3D

 52 54  0  0  0  0  0  0  0  0999 V2000
   -2.9520   19.3000   -1.3210 C   0  0  0  0  0  0  0  0  0  0  0  0
   -3.5210   18.0430   -1.1240 C   0  0  0  0  0  0  0  0  0  0  0  0
   -4.0120   17.3420   -2.2520 C   0  0  0  0  0  0  0  0  0  0  0  0
   -2.7770   18.6450    2.5800 C   0  0  0  0  0  0  0  0  0  0  0  0
   -3.6780   17.9290   -3.4970 N   0  0  0  0  0  0  0  0  0  0  0  0
   -2.8680   19.6190   -4.8550 N   0  0  0  0  0  0  0  0  0  0  0  0
   -3.0220   18.7390    1.0400 C   0  0  0  0  0  0  0  0  0  0  0  0
   -2.7530   19.8960   -2.5800 N   0  0  0  0  0  0  0  0  0  0  0  0
   -1.4070   17.9220    2.8460 C   0  0  0  0  0  0  0  0  0  0  0  0
   -2.4740   20.0610    0.1120 S   0  0  0  0  0  0  0  0  0  0  0  0
   -3.0940   19.1500   -3.5890 C   0  0  0  0  0  0  0  0  0  0  0  0
   -4.5980   16.2580   -2.2680 O   0  0  0  0  0  0  0  0  0  0  0  0
   -3.5560   17.7600    0.2640 C   0  0  0  0  0  0  0  0  0  0  0  0
   -4.2810   16.2880    0.9860 S   0  0  0  0  0  0  0  0  0  0  0  0
   -2.9360   15.1210    0.8720 C   0  0  0  0  0  0  0  0  0  0  0  0
   -1.8900   15.3450    0.0510 C   0  0  0  0  0  0  0  0  0  0  0  0
   -0.8500   14.4050    0.0140 C   0  0  0  0  0  0  0  0  0  0  0  0
   -2.9900   13.9820    1.6730 C   0  0  0  0  0  0  0  0  0  0  0  0
   -1.9940   13.0250    1.6360 C   0  0  0  0  0  0  0  0  0  0  0  0
   -0.9200   13.2720    0.8330 C   0  0  0  0  0  0  0  0  0  0  0  0
    0.2200   12.2840    0.8400 C   0  0  0  0  0  0  0  0  0  0  0  0
    0.0740   11.1650    1.4150 O   0  0  0  0  0  0  0  0  0  0  0  0
    1.3310   12.5960    0.1940 N   0  0  0  0  0  0  0  0  0  0  0  0
    2.5210   11.7040    0.1930 C   0  0  0  0  0  0  0  0  0  0  0  0
    3.6960   12.5700   -0.1970 C   0  0  0  0  0  0  0  0  0  0  0  0
    4.8520   12.0830   -0.0270 O   0  0  0  0  0  0  0  0  0  0  0  0
    3.5080   13.7520   -0.6140 O   0  0  0  0  0  0  0  0  0  0  0  0
    2.3750   10.5870   -0.8070 C   0  0  0  0  0  0  0  0  0  0  0  0
    2.2290   11.0600   -2.2640 C   0  0  0  0  0  0  0  0  0  0  0  0
    1.7460    9.9460   -3.2270 C   0  0  0  0  0  0  0  0  0  0  0  0
    0.7600    9.2700   -2.9140 O   0  0  0  0  0  0  0  0  0  0  0  0
    2.1990   10.0290   -4.3120 O   0  0  0  0  0  0  0  0  0  0  0  0
   -2.7476   19.6572    3.0096 H   0  0  0  0  0  0  0  0  0  0  0  0
   -3.5919   18.0732    3.0481 H   0  0  0  0  0  0  0  0  0  0  0  0
   -3.8857   17.4108   -4.3626 H   0  0  0  0  0  0  0  0  0  0  0  0
   -2.4248   20.5386   -4.9920 H   0  0  0  0  0  0  0  0  0  0  0  0
   -3.1411   19.0523   -5.6706 H   0  0  0  0  0  0  0  0  0  0  0  0
   -1.2426   17.8353    3.9302 H   0  0  0  0  0  0  0  0  0  0  0  0
   -1.4290   16.9181    2.3970 H   0  0  0  0  0  0  0  0  0  0  0  0
   -0.5906   18.5067    2.3970 H   0  0  0  0  0  0  0  0  0  0  0  0
   -1.8532   16.2472   -0.5773 H   0  0  0  0  0  0  0  0  0  0  0  0
    0.0122   14.5565   -0.6520 H   0  0  0  0  0  0  0  0  0  0  0  0
   -3.8452   13.8415    2.3504 H   0  0  0  0  0  0  0  0  0  0  0  0
   -2.0646   12.1018    2.2299 H   0  0  0  0  0  0  0  0  0  0  0  0
    1.3735   13.4848   -0.3248 H   0  0  0  0  0  0  0  0  0  0  0  0
    2.6492   11.2407    1.1824 H   0  0  0  0  0  0  0  0  0  0  0  0
    5.1979   11.9373    0.8891 H   0  0  0  0  0  0  0  0  0  0  0  0
    3.2661    9.9455   -0.7402 H   0  0  0  0  0  0  0  0  0  0  0  0
    1.4466   10.0546   -0.5529 H   0  0  0  0  0  0  0  0  0  0  0  0
    1.5014   11.8845   -2.2917 H   0  0  0  0  0  0  0  0  0  0  0  0
    3.2265   11.3742   -2.6050 H   0  0  0  0  0  0  0  0  0  0  0  0
    0.5442    9.1220   -1.9592 H   0  0  0  0  0  0  0  0  0  0  0  0
  8  1  1  0
  1  2  2  0
  1 10  1  0
  3  2  1  0
  2 13  1  0
  5  3  1  0
 12  3  2  0
  7  4  1  0
  4  9  1  0
 11  5  1  0
  6 11  1  0
 10  7  1  0
 13  7  2  0
 11  8  2  0
 13 14  1  0
 15 14  1  0
 16 15  2  0
 15 18  1  0
 17 16  1  0
 17 20  2  0
 19 18  2  0
 20 19  1  0
 20 21  1  0
 23 21  1  0
 21 22  2  0
 24 23  1  0
 28 24  1  0
 25 24  1  0
 27 25  2  0
 25 26  1  0
 29 28  1  0
 30 29  1  0
 32 30  2  0
 30 31  1  0
  4 33  1  0
  4 34  1  0
  5 35  1  0
  6 36  1  0
  6 37  1  0
  9 38  1  0
  9 39  1  0
  9 40  1  0
 16 41  1  0
 17 42  1  0
 18 43  1  0
 19 44  1  0
 23 45  1  0
 24 46  1  0
 26 47  1  0
 28 48  1  0
 28 49  1  0
 29 50  1  0
 29 51  1  0
 31 52  1  0
A    1
C4
A    2
C5
A    3
C6
A    4
C13
A    5
N1
A    6
N2
A    7
C3
A    8
N3
A    9
C29
A   10
S4
A   11
C2
A   12
O6
A   13
C1
A   14
SAT
A   15
CAZ
A   16
CAJ
A   17
CAL
A   18
CAI
A   19
CAK
A   20
CBA
A   21
CAX
A   22
OAE
A   23
NAS
A   24
CAP
A   25
CAW
A   26
OAG
A   27
OAD
A   28
CBG
A   29
CAN
A   30
CAV
A   31
OAF
A   32
OAC
M  END
