3GLZ_1BD_A_500
     RDKit          3D

 28 28  0  0  0  0  0  0  0  0999 V2000
   20.6420   40.1350   10.0390 C   0  0  0  0  0  0  0  0  0  0  0  0
   20.7540   40.7040    8.7480 C   0  0  0  0  0  0  0  0  0  0  0  0
   20.9490   42.0430    8.5120 C   0  0  0  0  0  0  0  0  0  0  0  0
   21.1060   42.9500    9.6370 C   0  0  0  0  0  0  0  0  0  0  0  0
   20.9830   42.3560   10.9250 C   0  0  0  0  0  0  0  0  0  0  0  0
   20.7570   40.9710   11.1390 C   0  0  0  0  0  0  0  0  0  0  0  0
   21.0480   42.6030    7.0230 C   0  0  0  0  0  0  0  0  0  0  0  0
   21.1060   41.8880    6.0930 N   0  0  0  0  0  0  0  0  0  0  0  0
   21.3050   42.3300    4.8600 O   0  0  0  0  0  0  0  0  0  0  0  0
   20.8530   41.6700    3.7900 C   0  0  0  0  0  0  0  0  0  0  0  0
   19.2990   41.8530    3.5930 C   0  0  0  0  0  0  0  0  0  0  0  0
   18.8250   40.8680    2.5870 C   0  0  0  0  0  0  0  0  0  0  0  0
   19.8290   40.4400    1.6960 O   0  0  0  0  0  0  0  0  0  0  0  0
   17.6980   40.4720    2.5350 O   0  0  0  0  0  0  0  0  0  0  0  0
   21.3680   44.5030    9.4910 C   0  0  0  0  0  0  0  0  0  0  0  0
   22.4850   44.7740    8.6660 F   0  0  0  0  0  0  0  0  0  0  0  0
   21.6030   45.0640   10.6600 F   0  0  0  0  0  0  0  0  0  0  0  0
   20.3050   45.1400    8.9230 F   0  0  0  0  0  0  0  0  0  0  0  0
   20.4680   39.0563   10.1665 H   0  0  0  0  0  0  0  0  0  0  0  0
   20.6803   40.0324    7.8799 H   0  0  0  0  0  0  0  0  0  0  0  0
   21.0681   43.0088   11.8063 H   0  0  0  0  0  0  0  0  0  0  0  0
   20.6746   40.5683   12.1593 H   0  0  0  0  0  0  0  0  0  0  0  0
   21.0624   43.6910    6.8617 H   0  0  0  0  0  0  0  0  0  0  0  0
   21.3708   42.0472    2.8958 H   0  0  0  0  0  0  0  0  0  0  0  0
   21.0512   40.5990    3.9439 H   0  0  0  0  0  0  0  0  0  0  0  0
   18.7825   41.6827    4.5491 H   0  0  0  0  0  0  0  0  0  0  0  0
   19.0838   42.8745    3.2463 H   0  0  0  0  0  0  0  0  0  0  0  0
   17.1963   40.2957    3.3700 H   0  0  0  0  0  0  0  0  0  0  0  0
  2  1  2  0
  1  6  1  0
  3  2  1  0
  7  3  1  0
  3  4  2  0
 15  4  1  0
  4  5  1  0
  5  6  2  0
  8  7  2  0
  9  8  1  0
 10  9  1  0
 11 10  1  0
 12 11  1  0
 13 12  2  0
 14 12  1  0
 16 15  1  0
 18 15  1  0
 15 17  1  0
  1 19  1  0
  2 20  1  0
  5 21  1  0
  6 22  1  0
  7 23  1  0
 10 24  1  0
 10 25  1  0
 11 26  1  0
 11 27  1  0
 14 28  1  0
A    1
C1
A    2
C2
A    3
C3
A    4
C4
A    5
C5
A    6
C6
A    7
C7
A    8
N8
A    9
O9
A   10
C10
A   11
C11
A   12
C12
A   13
O13
A   14
O14
A   15
C15
A   16
F16
A   17
F17
A   18
F18
M  END
