1M9V_DMO_A_824
     RDKit          3D

 21 20  0  0  0  0  0  0  0  0999 V2000
    2.5000   15.4800    4.7200 C   0  0  0  0  0  0  0  0  0  0  0  0
    1.6000   14.8280    5.5000 C   0  0  0  0  0  0  0  0  0  0  0  0
    2.5720   16.8920    4.8320 N   0  0  0  0  0  0  0  0  0  0  0  0
    3.4680   14.7880    3.7680 C   0  0  0  0  0  0  0  0  0  0  0  0
    3.3560   13.2560    3.7600 C   0  0  0  0  0  0  0  0  0  0  0  0
    4.4320   12.5520    2.9320 C   0  0  0  0  0  0  0  0  0  0  0  0
    4.1760   11.1160    2.9360 N   0  0  0  0  0  0  0  0  0  0  0  0
    1.7416   15.5814    3.9297 H   0  0  0  0  0  0  0  0  0  0  0  0
    1.8394   15.0015    6.5595 H   0  0  0  0  0  0  0  0  0  0  0  0
    0.5888   15.2045    5.2862 H   0  0  0  0  0  0  0  0  0  0  0  0
    1.6426   13.7498    5.2862 H   0  0  0  0  0  0  0  0  0  0  0  0
    2.5855   17.1572    5.8272 H   0  0  0  0  0  0  0  0  0  0  0  0
    3.4313   17.2293    4.3751 H   0  0  0  0  0  0  0  0  0  0  0  0
    3.2708   15.1537    2.7495 H   0  0  0  0  0  0  0  0  0  0  0  0
    4.4825   15.0290    4.1183 H   0  0  0  0  0  0  0  0  0  0  0  0
    3.4313   12.8994    4.7979 H   0  0  0  0  0  0  0  0  0  0  0  0
    2.3897   13.0126    3.2942 H   0  0  0  0  0  0  0  0  0  0  0  0
    4.4057   12.9277    1.8985 H   0  0  0  0  0  0  0  0  0  0  0  0
    5.4228   12.7524    3.3659 H   0  0  0  0  0  0  0  0  0  0  0  0
    4.1162   10.7806    3.9080 H   0  0  0  0  0  0  0  0  0  0  0  0
    3.2876   10.9243    2.4514 H   0  0  0  0  0  0  0  0  0  0  0  0
  1  2  1  0
  1  3  1  0
  1  4  1  0
  4  5  1  0
  5  6  1  0
  6  7  1  0
  1  8  1  0
  2  9  1  0
  2 10  1  0
  2 11  1  0
  3 12  1  0
  3 13  1  0
  4 14  1  0
  4 15  1  0
  5 16  1  0
  5 17  1  0
  6 18  1  0
  6 19  1  0
  7 20  1  0
  7 21  1  0
A    1
CAO
A    2
CO
A    3
NO
A    4
CBO
A    5
CGO
A    6
CDO
A    7
NEO
M  END
