3GN7_3GN_A_900
     RDKit          3D

 34 36  0  0  0  0  0  0  0  0999 V2000
   26.5090   65.4040    9.3900 C   0  0  0  0  0  0  0  0  0  0  0  0
   26.9340   66.1890   10.4440 C   0  0  0  0  0  0  0  0  0  0  0  0
   28.2340   66.0460   10.8660 C   0  0  0  0  0  0  0  0  0  0  0  0
   25.4300   64.4350    7.8210 C   0  0  0  0  0  0  0  0  0  0  0  0
   26.0620   67.1560   11.1150 C   0  0  0  0  0  0  0  0  0  0  0  0
   24.4130   63.9970    6.8530 C   0  0  0  0  0  0  0  0  0  0  0  0
   23.1140   65.8710    6.0270 C   0  0  0  0  0  0  0  0  0  0  0  0
   24.8540   64.2600    5.4360 C   0  0  0  0  0  0  0  0  0  0  0  0
   29.0900   65.1440   10.2740 C   0  0  0  0  0  0  0  0  0  0  0  0
   28.7020   64.3570    9.2150 C   0  0  0  0  0  0  0  0  0  0  0  0
   27.4010   64.5340    8.8050 C   0  0  0  0  0  0  0  0  0  0  0  0
   26.6920   63.9290    7.8070 N   0  0  0  0  0  0  0  0  0  0  0  0
   25.2860   65.3350    8.7730 N   0  0  0  0  0  0  0  0  0  0  0  0
   24.7270   66.9820   10.8570 N   0  0  0  0  0  0  0  0  0  0  0  0
   26.5500   68.0350   11.8080 O   0  0  0  0  0  0  0  0  0  0  0  0
   23.1610   64.7760    7.0210 N   0  0  0  0  0  0  0  0  0  0  0  0
   24.0620   65.4430    4.9320 C   0  0  0  0  0  0  0  0  0  0  0  0
   24.0960   62.5400    7.0200 C   0  0  0  0  0  0  0  0  0  0  0  0
   28.5998   66.6671   11.6969 H   0  0  0  0  0  0  0  0  0  0  0  0
   22.0947   65.9910    5.6313 H   0  0  0  0  0  0  0  0  0  0  0  0
   23.3971   66.8397    6.4645 H   0  0  0  0  0  0  0  0  0  0  0  0
   25.9295   64.4895    5.4128 H   0  0  0  0  0  0  0  0  0  0  0  0
   24.6804   63.3769    4.8036 H   0  0  0  0  0  0  0  0  0  0  0  0
   30.1157   65.0501   10.6601 H   0  0  0  0  0  0  0  0  0  0  0  0
   29.3815   63.6394    8.7318 H   0  0  0  0  0  0  0  0  0  0  0  0
   24.4375   65.8712    9.0040 H   0  0  0  0  0  0  0  0  0  0  0  0
   24.0590   66.8949   11.6361 H   0  0  0  0  0  0  0  0  0  0  0  0
   24.3919   66.9383    9.8840 H   0  0  0  0  0  0  0  0  0  0  0  0
   22.3509   64.1548    6.8838 H   0  0  0  0  0  0  0  0  0  0  0  0
   23.4921   65.1562    4.0359 H   0  0  0  0  0  0  0  0  0  0  0  0
   24.7373   66.2697    4.6666 H   0  0  0  0  0  0  0  0  0  0  0  0
   24.0431   62.2967    8.0915 H   0  0  0  0  0  0  0  0  0  0  0  0
   23.1286   62.3185    6.5455 H   0  0  0  0  0  0  0  0  0  0  0  0
   24.8839   61.9366    6.5455 H   0  0  0  0  0  0  0  0  0  0  0  0
  1  2  2  0
  1 11  1  0
  1 13  1  0
  2  3  1  0
  2  5  1  0
  3  9  2  0
  4  6  1  0
  4 12  2  0
  4 13  1  0
  5 14  1  0
  5 15  2  0
  6  8  1  0
  6 16  1  0
  6 18  1  0
  7 16  1  0
  7 17  1  0
  8 17  1  0
  9 10  1  0
 10 11  2  0
 11 12  1  0
  3 19  1  0
  7 20  1  0
  7 21  1  0
  8 22  1  0
  8 23  1  0
  9 24  1  0
 10 25  1  0
 13 26  1  0
 14 27  1  0
 14 28  1  0
 16 29  1  0
 17 30  1  0
 17 31  1  0
 18 32  1  0
 18 33  1  0
 18 34  1  0
A    1
C4
A    2
C5
A    3
C6
A    4
C8
A    5
C10
A    6
C13
A    7
C15
A    8
C17
A    9
C1
A   10
C2
A   11
C3
A   12
N7
A   13
N9
A   14
N11
A   15
O12
A   16
N14
A   17
C16
A   18
C18
M  END
