2JBO_P4O_A_1348
     RDKit          3D

 42 46  0  0  0  0  0  0  0  0999 V2000
  238.7100   82.5570  184.3310 C   0  0  0  0  0  0  0  0  0  0  0  0
  240.0870   82.5030  184.4560 C   0  0  0  0  0  0  0  0  0  0  0  0
  240.6770   81.6990  185.4610 C   0  0  0  0  0  0  0  0  0  0  0  0
  242.0680   81.6300  185.5780 C   0  0  0  0  0  0  0  0  0  0  0  0
  242.8590   82.3760  184.6830 C   0  0  0  0  0  0  0  0  0  0  0  0
  242.2770   83.1840  183.6910 C   0  0  0  0  0  0  0  0  0  0  0  0
  240.8790   83.2520  183.5760 C   0  0  0  0  0  0  0  0  0  0  0  0
  240.3050   84.0120  182.6250 N   0  0  0  0  0  0  0  0  0  0  0  0
  238.9860   84.0740  182.5080 C   0  0  0  0  0  0  0  0  0  0  0  0
  238.1380   83.3530  183.3540 C   0  0  0  0  0  0  0  0  0  0  0  0
  236.7370   83.4480  183.2370 C   0  0  0  0  0  0  0  0  0  0  0  0
  235.9010   82.4200  183.6750 C   0  0  0  0  0  0  0  0  0  0  0  0
  236.2050   84.5760  182.7390 N   0  0  0  0  0  0  0  0  0  0  0  0
  234.9080   84.7320  182.6130 C   0  0  0  0  0  0  0  0  0  0  0  0
  234.0300   83.7360  183.0090 C   0  0  0  0  0  0  0  0  0  0  0  0
  234.5300   82.5580  183.5370 C   0  0  0  0  0  0  0  0  0  0  0  0
  233.6580   81.5490  183.9320 C   0  0  0  0  0  0  0  0  0  0  0  0
  232.3460   81.5060  183.6830 C   0  0  0  0  0  0  0  0  0  0  0  0
  231.8450   80.4050  184.2380 C   0  0  0  0  0  0  0  0  0  0  0  0
  230.5730   79.8520  184.3170 C   0  0  0  0  0  0  0  0  0  0  0  0
  229.5960   80.5450  184.0770 O   0  0  0  0  0  0  0  0  0  0  0  0
  230.4150   78.5170  184.7020 N   0  0  0  0  0  0  0  0  0  0  0  0
  231.6120   77.6180  185.0130 C   0  0  0  0  0  0  0  0  0  0  0  0
  232.7830   78.4170  185.5990 C   0  0  0  0  0  0  0  0  0  0  0  0
  232.8980   79.7480  184.8610 C   0  0  0  0  0  0  0  0  0  0  0  0
  233.9970   80.4660  184.6400 N   0  0  0  0  0  0  0  0  0  0  0  0
  238.0716   81.9687  185.0065 H   0  0  0  0  0  0  0  0  0  0  0  0
  240.0392   81.1274  186.1513 H   0  0  0  0  0  0  0  0  0  0  0  0
  242.5355   81.0056  186.3536 H   0  0  0  0  0  0  0  0  0  0  0  0
  243.9550   82.3253  184.7619 H   0  0  0  0  0  0  0  0  0  0  0  0
  242.9151   83.7618  183.0062 H   0  0  0  0  0  0  0  0  0  0  0  0
  238.5471   84.7095  181.7247 H   0  0  0  0  0  0  0  0  0  0  0  0
  236.3262   81.5106  184.1247 H   0  0  0  0  0  0  0  0  0  0  0  0
  234.5127   85.6661  182.1873 H   0  0  0  0  0  0  0  0  0  0  0  0
  232.9445   83.8801  182.9047 H   0  0  0  0  0  0  0  0  0  0  0  0
  231.7755   82.2552  183.1145 H   0  0  0  0  0  0  0  0  0  0  0  0
  229.4644   78.1279  184.7783 H   0  0  0  0  0  0  0  0  0  0  0  0
  231.3036   76.8521  185.7398 H   0  0  0  0  0  0  0  0  0  0  0  0
  231.9479   77.1559  184.0730 H   0  0  0  0  0  0  0  0  0  0  0  0
  232.6036   78.6029  186.6682 H   0  0  0  0  0  0  0  0  0  0  0  0
  233.7163   77.8466  185.4822 H   0  0  0  0  0  0  0  0  0  0  0  0
  234.9467   80.2281  184.9598 H   0  0  0  0  0  0  0  0  0  0  0  0
  1  2  2  0
  1 10  1  0
  2  3  1  0
  2  7  1  0
  3  4  2  0
  4  5  1  0
  5  6  2  0
  6  7  1  0
  7  8  2  0
  8  9  1  0
  9 10  2  0
 10 11  1  0
 11 12  2  0
 11 13  1  0
 12 16  1  0
 13 14  2  0
 14 15  1  0
 15 16  2  0
 16 17  1  0
 17 18  2  0
 17 26  1  0
 18 19  1  0
 19 20  1  0
 19 25  2  0
 20 21  2  0
 20 22  1  0
 22 23  1  0
 23 24  1  0
 24 25  1  0
 25 26  1  0
  1 27  1  0
  3 28  1  0
  4 29  1  0
  5 30  1  0
  6 31  1  0
  9 32  1  0
 12 33  1  0
 14 34  1  0
 15 35  1  0
 18 36  1  0
 22 37  1  0
 23 38  1  0
 23 39  1  0
 24 40  1  0
 24 41  1  0
 26 42  1  0
A    1
C19
A    2
C20
A    3
C25
A    4
C24
A    5
C23
A    6
C22
A    7
C21
A    8
N16
A    9
C17
A   10
C18
A   11
C14
A   12
C13
A   13
N15
A   14
C10
A   15
C11
A   16
C12
A   17
C2
A   18
C3
A   19
C4
A   20
C6
A   21
O26
A   22
N7
A   23
C8
A   24
C9
A   25
C5
A   26
N1
M  END
