3GQL_GQL_A_1
     RDKit          3D

 41 44  0  0  0  0  0  0  0  0999 V2000
   49.4450   -6.0890   -0.3860 C   0  0  0  0  0  0  0  0  0  0  0  0
   49.8820   -7.1260    0.4330 C   0  0  0  0  0  0  0  0  0  0  0  0
   49.0650   -8.1840    0.8270 C   0  0  0  0  0  0  0  0  0  0  0  0
   51.2220   -7.1540    0.8110 C   0  0  0  0  0  0  0  0  0  0  0  0
   52.0870   -6.1630    0.3560 C   0  0  0  0  0  0  0  0  0  0  0  0
   50.3600   -5.1300   -0.8130 C   0  0  0  0  0  0  0  0  0  0  0  0
   48.4330   -4.5910   -1.6730 C   0  0  0  0  0  0  0  0  0  0  0  0
   48.2380   -5.6910   -0.9550 C   0  0  0  0  0  0  0  0  0  0  0  0
   46.8600   -6.3240   -0.7450 C   0  0  0  0  0  0  0  0  0  0  0  0
   45.6920   -5.8700   -1.6240 C   0  0  0  0  0  0  0  0  0  0  0  0
   45.5120   -6.4240   -2.8900 C   0  0  0  0  0  0  0  0  0  0  0  0
   44.4720   -5.9820   -3.7020 C   0  0  0  0  0  0  0  0  0  0  0  0
   43.3270   -2.1570   -1.8680 C   0  0  0  0  0  0  0  0  0  0  0  0
   42.9260   -3.4850   -1.5180 O   0  0  0  0  0  0  0  0  0  0  0  0
   43.7880   -4.4300   -1.9840 C   0  0  0  0  0  0  0  0  0  0  0  0
   44.8300   -4.8750   -1.1720 C   0  0  0  0  0  0  0  0  0  0  0  0
   43.6110   -4.9840   -3.2490 C   0  0  0  0  0  0  0  0  0  0  0  0
   46.6730   -7.1450    0.1520 O   0  0  0  0  0  0  0  0  0  0  0  0
   49.7170   -4.2540   -1.5830 N   0  0  0  0  0  0  0  0  0  0  0  0
   51.6440   -5.1980   -0.4310 N   0  0  0  0  0  0  0  0  0  0  0  0
   48.7020   -8.3190    2.1640 C   0  0  0  0  0  0  0  0  0  0  0  0
   47.9150   -9.3940    2.5710 C   0  0  0  0  0  0  0  0  0  0  0  0
   47.5700   -9.5460    3.8640 F   0  0  0  0  0  0  0  0  0  0  0  0
   47.4790  -10.3360    1.6490 C   0  0  0  0  0  0  0  0  0  0  0  0
   47.8400  -10.2030    0.3130 C   0  0  0  0  0  0  0  0  0  0  0  0
   47.4220  -11.1410   -0.5580 F   0  0  0  0  0  0  0  0  0  0  0  0
   48.6290   -9.1320   -0.0970 C   0  0  0  0  0  0  0  0  0  0  0  0
   51.5950   -7.9553    1.4659 H   0  0  0  0  0  0  0  0  0  0  0  0
   53.1459   -6.1831    0.6533 H   0  0  0  0  0  0  0  0  0  0  0  0
   47.6641   -4.0506   -2.2447 H   0  0  0  0  0  0  0  0  0  0  0  0
   46.1923   -7.2110   -3.2475 H   0  0  0  0  0  0  0  0  0  0  0  0
   44.3295   -6.4200   -4.7009 H   0  0  0  0  0  0  0  0  0  0  0  0
   43.5031   -1.5738   -0.9521 H   0  0  0  0  0  0  0  0  0  0  0  0
   44.2529   -2.1977   -2.4605 H   0  0  0  0  0  0  0  0  0  0  0  0
   42.5333   -1.6785   -2.4605 H   0  0  0  0  0  0  0  0  0  0  0  0
   44.9713   -4.4390   -0.1721 H   0  0  0  0  0  0  0  0  0  0  0  0
   42.7902   -4.6334   -3.8920 H   0  0  0  0  0  0  0  0  0  0  0  0
   46.7366   -6.8658    1.0997 H   0  0  0  0  0  0  0  0  0  0  0  0
   49.0375   -7.5748    2.9012 H   0  0  0  0  0  0  0  0  0  0  0  0
   46.8531  -11.1806    1.9729 H   0  0  0  0  0  0  0  0  0  0  0  0
   48.9099   -9.0333   -1.1559 H   0  0  0  0  0  0  0  0  0  0  0  0
  1  2  1  0
  1  6  2  0
  1  8  1  0
  2  3  1  0
  2  4  2  0
  3 21  2  0
  3 27  1  0
  4  5  1  0
  5 20  2  0
  6 19  1  0
  6 20  1  0
  7  8  1  0
  7 19  2  0
  8  9  2  0
  9 10  1  0
  9 18  1  0
 10 11  2  0
 10 16  1  0
 11 12  1  0
 12 17  2  0
 13 14  1  0
 14 15  1  0
 15 16  2  0
 15 17  1  0
 21 22  1  0
 22 23  1  0
 22 24  2  0
 24 25  1  0
 25 26  1  0
 25 27  2  0
  4 28  1  0
  5 29  1  0
  7 30  1  0
 11 31  1  0
 12 32  1  0
 13 33  1  0
 13 34  1  0
 13 35  1  0
 16 36  1  0
 17 37  1  0
 18 38  1  0
 21 39  1  0
 24 40  1  0
 27 41  1  0
A    1
C1
A    2
C2
A    3
C3
A    4
C4
A    5
C5
A    6
C7
A    7
C9
A    8
C10
A    9
C11
A   10
C13
A   11
C14
A   12
C15
A   13
C19
A   14
O18
A   15
C17
A   16
C20
A   17
C16
A   18
O12
A   19
N8
A   20
N6
A   21
C27
A   22
C25
A   23
F26
A   24
C24
A   25
C22
A   26
F23
A   27
C21
M  END
