3GR4_DYY_A_550
     RDKit          3D

 48 51  0  0  0  0  0  0  0  0999 V2000
   14.0650    5.6540   12.9670 C   0  0  0  0  0  0  0  0  0  0  0  0
   15.2220    5.5450   12.1980 C   0  0  0  0  0  0  0  0  0  0  0  0
   15.4140    6.4340   11.1780 O   0  0  0  0  0  0  0  0  0  0  0  0
   16.8010    6.7510   10.9700 C   0  0  0  0  0  0  0  0  0  0  0  0
   17.6070    5.4640   10.8160 C   0  0  0  0  0  0  0  0  0  0  0  0
   17.3000    4.3860   11.7590 O   0  0  0  0  0  0  0  0  0  0  0  0
   16.1460    4.5420   12.4790 C   0  0  0  0  0  0  0  0  0  0  0  0
   15.8980    3.6650   13.5370 C   0  0  0  0  0  0  0  0  0  0  0  0
   14.7450    3.7760   14.2950 C   0  0  0  0  0  0  0  0  0  0  0  0
   13.8170    4.7630   14.0080 C   0  0  0  0  0  0  0  0  0  0  0  0
   12.3620    4.9190   14.9800 S   0  0  0  0  0  0  0  0  0  0  0  0
   11.9410    6.3550   14.9780 O   0  0  0  0  0  0  0  0  0  0  0  0
   12.6970    4.5390   16.3800 O   0  0  0  0  0  0  0  0  0  0  0  0
   11.0170    4.0090   14.4520 N   0  0  0  0  0  0  0  0  0  0  0  0
   11.1180    2.5730   14.8180 C   0  0  0  0  0  0  0  0  0  0  0  0
    9.7720    1.8630   14.5470 C   0  0  0  0  0  0  0  0  0  0  0  0
   10.6770    4.1410   13.0130 C   0  0  0  0  0  0  0  0  0  0  0  0
    9.3420    3.4130   12.7510 C   0  0  0  0  0  0  0  0  0  0  0  0
    9.4910    1.9810   13.1010 N   0  0  0  0  0  0  0  0  0  0  0  0
    8.2290    1.0110   12.5350 S   0  0  0  0  0  0  0  0  0  0  0  0
    8.6690   -0.4090   12.6430 O   0  0  0  0  0  0  0  0  0  0  0  0
    7.9560    1.3580   11.1040 O   0  0  0  0  0  0  0  0  0  0  0  0
    6.6950    1.1590   13.4030 C   0  0  0  0  0  0  0  0  0  0  0  0
    5.7260    2.0530   12.9430 C   0  0  0  0  0  0  0  0  0  0  0  0
    5.9760    2.8280   11.8590 F   0  0  0  0  0  0  0  0  0  0  0  0
    4.5100    2.1570   13.6220 C   0  0  0  0  0  0  0  0  0  0  0  0
    4.2500    1.3660   14.7400 C   0  0  0  0  0  0  0  0  0  0  0  0
    5.2160    0.4670   15.1910 C   0  0  0  0  0  0  0  0  0  0  0  0
    6.4270    0.3610   14.5120 C   0  0  0  0  0  0  0  0  0  0  0  0
    7.3600   -0.5060   14.9430 F   0  0  0  0  0  0  0  0  0  0  0  0
   13.3401    6.4522   12.7494 H   0  0  0  0  0  0  0  0  0  0  0  0
   16.9043    7.3581   10.0585 H   0  0  0  0  0  0  0  0  0  0  0  0
   17.1788    7.3153   11.8354 H   0  0  0  0  0  0  0  0  0  0  0  0
   17.4328    5.0796    9.8002 H   0  0  0  0  0  0  0  0  0  0  0  0
   18.6497    5.7458   11.0241 H   0  0  0  0  0  0  0  0  0  0  0  0
   16.6280    2.8761   13.7710 H   0  0  0  0  0  0  0  0  0  0  0  0
   14.5656    3.0789   15.1268 H   0  0  0  0  0  0  0  0  0  0  0  0
   11.9077    2.0985   14.2170 H   0  0  0  0  0  0  0  0  0  0  0  0
   11.3619    2.4890   15.8873 H   0  0  0  0  0  0  0  0  0  0  0  0
    9.8430    0.8025   14.8305 H   0  0  0  0  0  0  0  0  0  0  0  0
    8.9656    2.3228   15.1372 H   0  0  0  0  0  0  0  0  0  0  0  0
   10.5756    5.2050   12.7527 H   0  0  0  0  0  0  0  0  0  0  0  0
   11.4731    3.6966   12.3976 H   0  0  0  0  0  0  0  0  0  0  0  0
    8.5505    3.8623   13.3688 H   0  0  0  0  0  0  0  0  0  0  0  0
    9.0717    3.5076   11.6889 H   0  0  0  0  0  0  0  0  0  0  0  0
    3.7497    2.8703   13.2710 H   0  0  0  0  0  0  0  0  0  0  0  0
    3.2867    1.4506   15.2644 H   0  0  0  0  0  0  0  0  0  0  0  0
    5.0225   -0.1546   16.0777 H   0  0  0  0  0  0  0  0  0  0  0  0
  2  1  2  0
  1 10  1  0
  3  2  1  0
  2  7  1  0
  4  3  1  0
  5  4  1  0
  5  6  1  0
  6  7  1  0
  7  8  2  0
  8  9  1  0
 10  9  2  0
 10 11  1  0
 14 11  1  0
 12 11  2  0
 11 13  2  0
 17 14  1  0
 14 15  1  0
 16 15  1  0
 19 16  1  0
 18 17  1  0
 18 19  1  0
 20 19  1  0
 22 20  2  0
 20 21  2  0
 20 23  1  0
 24 23  2  0
 23 29  1  0
 25 24  1  0
 24 26  1  0
 26 27  2  0
 27 28  1  0
 29 28  2  0
 29 30  1  0
  1 31  1  0
  4 32  1  0
  4 33  1  0
  5 34  1  0
  5 35  1  0
  8 36  1  0
  9 37  1  0
 15 38  1  0
 15 39  1  0
 16 40  1  0
 16 41  1  0
 17 42  1  0
 17 43  1  0
 18 44  1  0
 18 45  1  0
 26 46  1  0
 27 47  1  0
 28 48  1  0
A    1
CAY
A    2
CAZ
A    3
OBA
A    4
CBB
A    5
CAO
A    6
OAN
A    7
CAM
A    8
CAL
A    9
CAK
A   10
CAX
A   11
SAW
A   12
OBD
A   13
OAJ
A   14
NAV
A   15
CAU
A   16
CAT
A   17
CAI
A   18
CAH
A   19
NAG
A   20
SAF
A   21
OAS
A   22
OAB
A   23
CAE
A   24
CAD
A   25
FAA
A   26
CAC
A   27
CAP
A   28
CAQ
A   29
CAR
A   30
FBC
M  END
