3GS0_6BD_A_128
     RDKit          3D

 36 38  0  0  0  0  0  0  0  0999 V2000
   20.8160   42.3030    4.6940 C   0  0  0  0  0  0  0  0  0  0  0  0
   19.6950   41.4720    5.0050 C   0  0  0  0  0  0  0  0  0  0  0  0
   18.9990   40.9710    3.9230 C   0  0  0  0  0  0  0  0  0  0  0  0
   19.4150   41.2890    2.5560 C   0  0  0  0  0  0  0  0  0  0  0  0
   20.5360   42.1200    2.2450 C   0  0  0  0  0  0  0  0  0  0  0  0
   21.2320   42.6210    3.3260 C   0  0  0  0  0  0  0  0  0  0  0  0
   22.3440   43.4450    3.3250 C   0  0  0  0  0  0  0  0  0  0  0  0
   23.1420   44.0550    2.2310 C   0  0  0  0  0  0  0  0  0  0  0  0
   24.2250   44.8640    2.5360 C   0  0  0  0  0  0  0  0  0  0  0  0
   24.5110   45.0670    3.9030 C   0  0  0  0  0  0  0  0  0  0  0  0
   23.7190   44.4630    4.9860 C   0  0  0  0  0  0  0  0  0  0  0  0
   22.6300   43.6490    4.6930 C   0  0  0  0  0  0  0  0  0  0  0  0
   21.6820   42.9260    5.5190 C   0  0  0  0  0  0  0  0  0  0  0  0
   21.5800   42.8300    6.8810 N   0  0  0  0  0  0  0  0  0  0  0  0
   22.3340   43.5600    7.6780 O   0  0  0  0  0  0  0  0  0  0  0  0
   22.5080   42.8990    8.9930 C   0  0  0  0  0  0  0  0  0  0  0  0
   22.4430   43.5410   10.3350 C   0  0  0  0  0  0  0  0  0  0  0  0
   21.6670   42.6550   11.3920 C   0  0  0  0  0  0  0  0  0  0  0  0
   21.8340   44.9170   10.1010 C   0  0  0  0  0  0  0  0  0  0  0  0
   22.1670   45.7710   10.9600 O   0  0  0  0  0  0  0  0  0  0  0  0
   21.0690   45.1080    9.0990 O   0  0  0  0  0  0  0  0  0  0  0  0
   19.4051   41.2459    6.0417 H   0  0  0  0  0  0  0  0  0  0  0  0
   18.1233   40.3266    4.0898 H   0  0  0  0  0  0  0  0  0  0  0  0
   18.8339   40.8659    1.7234 H   0  0  0  0  0  0  0  0  0  0  0  0
   20.8257   42.3460    1.2082 H   0  0  0  0  0  0  0  0  0  0  0  0
   22.8740   43.8651    1.1812 H   0  0  0  0  0  0  0  0  0  0  0  0
   24.8352   45.3278    1.7469 H   0  0  0  0  0  0  0  0  0  0  0  0
   25.3652   45.7061    4.1711 H   0  0  0  0  0  0  0  0  0  0  0  0
   23.9900   44.6565    6.0344 H   0  0  0  0  0  0  0  0  0  0  0  0
   21.7401   42.1118    9.0181 H   0  0  0  0  0  0  0  0  0  0  0  0
   23.5881   42.6959    8.9468 H   0  0  0  0  0  0  0  0  0  0  0  0
   23.4391   43.6439   10.7903 H   0  0  0  0  0  0  0  0  0  0  0  0
   21.9436   42.9708   12.4087 H   0  0  0  0  0  0  0  0  0  0  0  0
   20.5834   42.7809   11.2510 H   0  0  0  0  0  0  0  0  0  0  0  0
   21.9346   41.5974   11.2510 H   0  0  0  0  0  0  0  0  0  0  0  0
   20.1183   45.3454    9.2402 H   0  0  0  0  0  0  0  0  0  0  0  0
  1  6  1  0
  2  1  2  0
  2  3  1  0
  3  4  2  0
  4  5  1  0
  6  5  2  0
  7  6  1  0
  7  8  2  0
  9  8  1  0
 10  9  2  0
 11 10  1  0
 11 12  2  0
 12  7  1  0
 13  1  1  0
 13 12  1  0
 14 13  2  0
 15 14  1  0
 16 15  1  0
 17 16  1  0
 17 19  1  0
 18 17  1  0
 19 21  1  0
 20 19  2  0
  2 22  1  0
  3 23  1  0
  4 24  1  0
  5 25  1  0
  8 26  1  0
  9 27  1  0
 10 28  1  0
 11 29  1  0
 16 30  1  0
 16 31  1  0
 17 32  1  0
 18 33  1  0
 18 34  1  0
 18 35  1  0
 21 36  1  0
A    1
CAQ
A    2
CAH
A    3
CAD
A    4
CAF
A    5
CAJ
A    6
CAS
A    7
CAT
A    8
CAK
A    9
CAG
A   10
CAE
A   11
CAI
A   12
CAR
A   13
CAP
A   14
NAM
A   15
OAN
A   16
CAL
A   17
CAU
A   18
CAA
A   19
CAO
A   20
OAC
A   21
OAB
M  END
