2WCA_NP6_A_900
     RDKit          3D

 50 51  0  0  0  0  0  0  0  0999 V2000
  -11.6300  -11.9620    3.9150 C   0  0  0  0  0  0  0  0  0  0  0  0
  -10.8660  -11.3430    5.0790 C   0  0  0  0  0  0  0  0  0  0  0  0
   -9.7790  -12.2600    5.6170 C   0  0  0  0  0  0  0  0  0  0  0  0
   -9.1080  -11.5830    6.8330 C   0  0  0  0  0  0  0  0  0  0  0  0
   -9.3390  -10.4000    7.1020 O   0  0  0  0  0  0  0  0  0  0  0  0
   -8.2990  -12.3810    7.5430 N   0  0  0  0  0  0  0  0  0  0  0  0
   -7.5410  -11.9910    8.7700 C   0  0  0  0  0  0  0  0  0  0  0  0
   -8.4910  -11.6570    9.9340 C   0  0  0  0  0  0  0  0  0  0  0  0
   -8.7880  -12.8410   10.6560 O   0  0  0  0  0  0  0  0  0  0  0  0
   -7.8700  -10.6270   10.8640 C   0  0  0  0  0  0  0  0  0  0  0  0
   -8.7600  -10.3290   11.9490 O   0  0  0  0  0  0  0  0  0  0  0  0
   -7.6560   -9.3410   10.0690 C   0  0  0  0  0  0  0  0  0  0  0  0
   -7.1080   -8.1250   10.8560 C   0  0  0  0  0  0  0  0  0  0  0  0
   -5.9500   -8.4830   11.6000 O   0  0  0  0  0  0  0  0  0  0  0  0
   -6.7550   -9.5630    8.9930 O   0  0  0  0  0  0  0  0  0  0  0  0
   -6.5490  -10.8350    8.5180 C   0  0  0  0  0  0  0  0  0  0  0  0
   -5.4220  -11.0460    7.8390 N   0  0  0  0  0  0  0  0  0  0  0  0
   -4.5350  -10.0080    7.6740 O   0  0  0  0  0  0  0  0  0  0  0  0
   -3.2740  -10.4050    7.2640 C   0  0  0  0  0  0  0  0  0  0  0  0
   -2.3680   -9.5680    7.1710 O   0  0  0  0  0  0  0  0  0  0  0  0
   -3.0940  -11.7220    6.9990 N   0  0  0  0  0  0  0  0  0  0  0  0
   -2.0090  -12.3690    6.5050 C   0  0  0  0  0  0  0  0  0  0  0  0
   -2.1290  -13.7370    6.2340 C   0  0  0  0  0  0  0  0  0  0  0  0
   -1.0640  -14.4730    5.7020 C   0  0  0  0  0  0  0  0  0  0  0  0
    0.1500  -13.8360    5.4220 C   0  0  0  0  0  0  0  0  0  0  0  0
    0.2770  -12.4670    5.6660 C   0  0  0  0  0  0  0  0  0  0  0  0
   -0.7940  -11.7390    6.2020 C   0  0  0  0  0  0  0  0  0  0  0  0
  -12.4294  -12.6097    4.3042 H   0  0  0  0  0  0  0  0  0  0  0  0
  -12.0715  -11.1637    3.3003 H   0  0  0  0  0  0  0  0  0  0  0  0
  -10.9407  -12.5594    3.3003 H   0  0  0  0  0  0  0  0  0  0  0  0
  -10.4002  -10.4070    4.7370 H   0  0  0  0  0  0  0  0  0  0  0  0
  -11.5846  -11.1643    5.8924 H   0  0  0  0  0  0  0  0  0  0  0  0
  -10.2236  -13.2174    5.9264 H   0  0  0  0  0  0  0  0  0  0  0  0
   -9.0290  -12.4472    4.8344 H   0  0  0  0  0  0  0  0  0  0  0  0
   -8.1899  -13.3506    7.2132 H   0  0  0  0  0  0  0  0  0  0  0  0
   -6.9410  -12.8681    9.0540 H   0  0  0  0  0  0  0  0  0  0  0  0
   -9.4174  -11.2321    9.5203 H   0  0  0  0  0  0  0  0  0  0  0  0
   -8.7415  -12.6556   11.6274 H   0  0  0  0  0  0  0  0  0  0  0  0
   -6.9249  -11.0231   11.2639 H   0  0  0  0  0  0  0  0  0  0  0  0
   -8.2953  -10.4846   12.8092 H   0  0  0  0  0  0  0  0  0  0  0  0
   -8.6748   -9.0848    9.7427 H   0  0  0  0  0  0  0  0  0  0  0  0
   -6.8479   -7.3248   10.1475 H   0  0  0  0  0  0  0  0  0  0  0  0
   -7.8834   -7.7806   11.5561 H   0  0  0  0  0  0  0  0  0  0  0  0
   -6.1478   -8.4218   12.5681 H   0  0  0  0  0  0  0  0  0  0  0  0
   -3.9048  -12.3232    7.2040 H   0  0  0  0  0  0  0  0  0  0  0  0
   -3.0818  -14.2451    6.4439 H   0  0  0  0  0  0  0  0  0  0  0  0
   -1.1810  -15.5488    5.5046 H   0  0  0  0  0  0  0  0  0  0  0  0
    0.9961  -14.4081    5.0136 H   0  0  0  0  0  0  0  0  0  0  0  0
    1.2239  -11.9566    5.4360 H   0  0  0  0  0  0  0  0  0  0  0  0
   -0.6798  -10.6607    6.3871 H   0  0  0  0  0  0  0  0  0  0  0  0
  1  2  1  0
  2  3  1  0
  3  4  1  0
  4  5  2  0
  4  6  1  0
  6  7  1  0
  7  8  1  0
  7 16  1  0
  8  9  1  0
  8 10  1  0
 10 11  1  0
 10 12  1  0
 12 13  1  0
 12 15  1  0
 13 14  1  0
 15 16  1  0
 16 17  2  0
 17 18  1  0
 18 19  1  0
 19 20  2  0
 19 21  1  0
 21 22  1  0
 22 23  2  0
 22 27  1  0
 23 24  1  0
 24 25  2  0
 25 26  1  0
 26 27  2  0
  1 28  1  0
  1 29  1  0
  1 30  1  0
  2 31  1  0
  2 32  1  0
  3 33  1  0
  3 34  1  0
  6 35  1  0
  7 36  1  0
  8 37  1  0
  9 38  1  0
 10 39  1  0
 11 40  1  0
 12 41  1  0
 13 42  1  0
 13 43  1  0
 14 44  1  0
 21 45  1  0
 23 46  1  0
 24 47  1  0
 25 48  1  0
 26 49  1  0
 27 50  1  0
A    1
C2
A    2
C1
A    3
C3
A    4
C4
A    5
O1
A    6
N1
A    7
C5
A    8
C6
A    9
O2
A   10
C7
A   11
O3
A   12
C8
A   13
C9
A   14
O4
A   15
O5
A   16
C10
A   17
N2
A   18
O6
A   19
C11
A   20
O7
A   21
N3
A   22
C12
A   23
C13
A   24
C14
A   25
C15
A   26
C16
A   27
C17
M  END
