3GSM_VPU_A_341
     RDKit          3D

 38 38  0  0  0  0  0  0  0  0999 V2000
   -8.5710   18.5930   12.4530 C   0  0  0  0  0  0  0  0  0  0  0  0
   -7.6540   18.6200   13.6880 C   0  0  0  0  0  0  0  0  0  0  0  0
   -7.5180   17.2550   14.3460 C   0  0  0  0  0  0  0  0  0  0  0  0
   -6.0530   16.8850   14.6050 C   0  0  0  0  0  0  0  0  0  0  0  0
   -5.4560   16.2260   13.3740 C   0  0  0  0  0  0  0  0  0  0  0  0
   -6.1130   15.3870   12.7680 O   0  0  0  0  0  0  0  0  0  0  0  0
   -4.2150   16.6040   13.0080 N   0  0  0  0  0  0  0  0  0  0  0  0
   -3.5330   16.0500   11.8250 C   0  0  0  0  0  0  0  0  0  0  0  0
   -2.5770   14.9180   12.2400 C   0  0  0  0  0  0  0  0  0  0  0  0
   -3.2280   13.8420   12.9460 O   0  0  0  0  0  0  0  0  0  0  0  0
   -1.9310   14.3950   10.9520 C   0  0  0  0  0  0  0  0  0  0  0  0
   -1.2360   13.1580   11.1950 O   0  0  0  0  0  0  0  0  0  0  0  0
   -0.9710   15.4280   10.3410 C   0  0  0  0  0  0  0  0  0  0  0  0
   -0.5890   15.0110    8.9300 C   0  0  0  0  0  0  0  0  0  0  0  0
   -1.2620   15.3700    7.9730 O   0  0  0  0  0  0  0  0  0  0  0  0
   -1.5070   16.7660   10.3000 O   0  0  0  0  0  0  0  0  0  0  0  0
   -2.7410   17.0770   11.0320 C   0  0  0  0  0  0  0  0  0  0  0  0
   -3.1920   18.2580   10.9740 N   0  0  0  0  0  0  0  0  0  0  0  0
   -9.6217   18.5621   12.7771 H   0  0  0  0  0  0  0  0  0  0  0  0
   -8.3999   19.4966   11.8494 H   0  0  0  0  0  0  0  0  0  0  0  0
   -8.3470   17.7011   11.8494 H   0  0  0  0  0  0  0  0  0  0  0  0
   -6.6557   18.9627   13.3781 H   0  0  0  0  0  0  0  0  0  0  0  0
   -8.1065   19.3009   14.4240 H   0  0  0  0  0  0  0  0  0  0  0  0
   -8.0558   17.2682   15.3055 H   0  0  0  0  0  0  0  0  0  0  0  0
   -7.9418   16.5048   13.6622 H   0  0  0  0  0  0  0  0  0  0  0  0
   -5.4840   17.7961   14.8421 H   0  0  0  0  0  0  0  0  0  0  0  0
   -6.0030   16.1822   15.4498 H   0  0  0  0  0  0  0  0  0  0  0  0
   -3.7240   17.3078   13.5777 H   0  0  0  0  0  0  0  0  0  0  0  0
   -4.3367   15.6764   11.1735 H   0  0  0  0  0  0  0  0  0  0  0  0
   -1.8352   15.3184   12.9467 H   0  0  0  0  0  0  0  0  0  0  0  0
   -3.1404   13.9867   13.9214 H   0  0  0  0  0  0  0  0  0  0  0  0
   -2.7408   14.2132   10.2301 H   0  0  0  0  0  0  0  0  0  0  0  0
   -1.1539   13.0118   12.1707 H   0  0  0  0  0  0  0  0  0  0  0  0
   -0.0913   15.4499   11.0011 H   0  0  0  0  0  0  0  0  0  0  0  0
    0.4309   15.3846    8.7561 H   0  0  0  0  0  0  0  0  0  0  0  0
   -0.7402   13.9215    8.9443 H   0  0  0  0  0  0  0  0  0  0  0  0
   -2.0875   15.8103    8.2967 H   0  0  0  0  0  0  0  0  0  0  0  0
   -2.6808   18.9791   10.4453 H   0  0  0  0  0  0  0  0  0  0  0  0
  1  2  1  0
  2  3  1  0
  3  4  1  0
  4  5  1  0
  5  6  2  0
  5  7  1  0
  7  8  1  0
  8  9  1  0
  8 17  1  0
  9 10  1  0
  9 11  1  0
 11 12  1  0
 11 13  1  0
 13 14  1  0
 13 16  1  0
 14 15  1  0
 16 17  1  0
 17 18  2  3
  1 19  1  0
  1 20  1  0
  1 21  1  0
  2 22  1  0
  2 23  1  0
  3 24  1  0
  3 25  1  0
  4 26  1  0
  4 27  1  0
  7 28  1  0
  8 29  1  0
  9 30  1  0
 10 31  1  0
 11 32  1  0
 12 33  1  0
 13 34  1  0
 14 35  1  0
 14 36  1  0
 15 37  1  0
 18 38  1  0
A    1
C3
A    2
C2
A    3
C1
A    4
CAH
A    5
CAG
A    6
OAN
A    7
NAI
A    8
CAB
A    9
CAC
A   10
OAJ
A   11
CAD
A   12
OAK
A   13
CAE
A   14
CAF
A   15
OAM
A   16
OAL
A   17
CAA
A   18
NAY
M  END
