3GSY_DEH_A_2
     RDKit          3D

 42 45  0  0  0  0  0  0  0  0999 V2000
  -28.6790   -8.9820  -10.4420 C   0  0  0  0  0  0  0  0  0  0  0  0
  -28.5170   -9.9940  -11.3790 C   0  0  0  0  0  0  0  0  0  0  0  0
  -28.9630   -9.8130  -12.6480 C   0  0  0  0  0  0  0  0  0  0  0  0
  -29.5960   -8.5710  -13.0160 C   0  0  0  0  0  0  0  0  0  0  0  0
  -29.7460   -7.5670  -12.0580 C   0  0  0  0  0  0  0  0  0  0  0  0
  -30.4090   -6.2490  -12.4050 C   0  0  0  0  0  0  0  0  0  0  0  0
  -29.7580   -5.0130  -11.6250 C   0  0  0  0  0  0  0  0  0  0  0  0
  -29.5500   -5.3770  -10.1900 N   0  0  0  0  0  0  0  0  0  0  0  0
  -29.4570   -6.7440   -9.8070 C   0  0  0  0  0  0  0  0  0  0  0  0
  -29.2660   -7.0860   -8.4630 C   0  0  0  0  0  0  0  0  0  0  0  0
  -29.1550   -6.1170   -7.5300 C   0  0  0  0  0  0  0  0  0  0  0  0
  -28.9520   -6.4700   -6.1820 C   0  0  0  0  0  0  0  0  0  0  0  0
  -28.8380   -5.4830   -5.2500 C   0  0  0  0  0  0  0  0  0  0  0  0
  -28.9200   -4.1400   -5.6350 C   0  0  0  0  0  0  0  0  0  0  0  0
  -28.8080   -3.1650   -4.7160 O   0  0  0  0  0  0  0  0  0  0  0  0
  -28.5620   -3.5150   -3.3470 C   0  0  0  0  0  0  0  0  0  0  0  0
  -29.1190   -3.8030   -6.9800 C   0  0  0  0  0  0  0  0  0  0  0  0
  -29.1940   -2.4760   -7.3560 O   0  0  0  0  0  0  0  0  0  0  0  0
  -29.2340   -4.7760   -7.9020 C   0  0  0  0  0  0  0  0  0  0  0  0
  -29.2920   -7.7670  -10.7950 C   0  0  0  0  0  0  0  0  0  0  0  0
  -29.4350   -4.4170   -9.2840 C   0  0  0  0  0  0  0  0  0  0  0  0
  -28.8020  -10.7940  -13.5430 O   0  0  0  0  0  0  0  0  0  0  0  0
  -29.6440  -10.8580  -14.6960 C   0  0  0  0  0  0  0  0  0  0  0  0
  -27.9110  -11.1910  -11.0310 O   0  0  0  0  0  0  0  0  0  0  0  0
  -28.3237   -9.1327   -9.4119 H   0  0  0  0  0  0  0  0  0  0  0  0
  -29.9577   -8.4159  -14.0432 H   0  0  0  0  0  0  0  0  0  0  0  0
  -30.3074   -6.0768  -13.4867 H   0  0  0  0  0  0  0  0  0  0  0  0
  -31.4649   -6.3160  -12.1041 H   0  0  0  0  0  0  0  0  0  0  0  0
  -28.7900   -4.7607  -12.0824 H   0  0  0  0  0  0  0  0  0  0  0  0
  -30.4326   -4.1464  -11.6873 H   0  0  0  0  0  0  0  0  0  0  0  0
  -29.2064   -8.1439   -8.1675 H   0  0  0  0  0  0  0  0  0  0  0  0
  -28.8864   -7.5274   -5.8859 H   0  0  0  0  0  0  0  0  0  0  0  0
  -28.6812   -5.7422   -4.1925 H   0  0  0  0  0  0  0  0  0  0  0  0
  -29.0683   -2.7946   -2.6877 H   0  0  0  0  0  0  0  0  0  0  0  0
  -28.9493   -4.5259   -3.1517 H   0  0  0  0  0  0  0  0  0  0  0  0
  -27.4797   -3.4929   -3.1517 H   0  0  0  0  0  0  0  0  0  0  0  0
  -29.2340   -1.7674   -6.6658 H   0  0  0  0  0  0  0  0  0  0  0  0
  -29.4921   -3.3598   -9.5823 H   0  0  0  0  0  0  0  0  0  0  0  0
  -30.6943  -10.9378  -14.3790 H   0  0  0  0  0  0  0  0  0  0  0  0
  -29.5110   -9.9472  -15.2982 H   0  0  0  0  0  0  0  0  0  0  0  0
  -29.3748  -11.7383  -15.2982 H   0  0  0  0  0  0  0  0  0  0  0  0
  -27.7918  -11.4264  -10.0768 H   0  0  0  0  0  0  0  0  0  0  0  0
  1  2  2  0
  1 20  1  0
  2  3  1  0
  2 24  1  0
  3  4  2  0
  3 22  1  0
  4  5  1  0
  5  6  1  0
  5 20  2  0
  6  7  1  0
  7  8  1  0
  8  9  2  0
  8 21  1  0
  9 10  1  0
  9 20  1  0
 10 11  2  0
 11 12  1  0
 11 19  1  0
 12 13  2  0
 13 14  1  0
 14 15  1  0
 14 17  2  0
 15 16  1  0
 17 18  1  0
 17 19  1  0
 19 21  2  0
 22 23  1  0
  1 25  1  0
  4 26  1  0
  6 27  1  0
  6 28  1  0
  7 29  1  0
  7 30  1  0
 10 31  1  0
 12 32  1  0
 13 33  1  0
 16 34  1  0
 16 35  1  0
 16 36  1  0
 18 37  1  0
 21 38  1  0
 23 39  1  0
 23 40  1  0
 23 41  1  0
 24 42  1  0
M  CHG  1   8   1
A    1
C2
A    2
C3
A    3
C5
A    4
C8
A    5
C9
A    6
C10
A    7
C11
A    8
N12
A    9
C14
A   10
C16
A   11
C17
A   12
C25
A   13
C24
A   14
C21
A   15
O22
A   16
C23
A   17
C19
A   18
O20
A   19
C18
A   20
C1
A   21
C13
A   22
O6
A   23
C7
A   24
O4
M  END
