3GT3_BRV_A_301
     RDKit          3D

 20 20  0  0  0  0  0  0  0  0999 V2000
   21.7650   35.9170   10.2730 C   0  0  0  0  0  0  0  0  0  0  0  0
   18.6250   38.6470   13.0780 C   0  0  0  0  0  0  0  0  0  0  0  0
   21.6830   39.6590   11.0260 C   0  0  0  0  0  0  0  0  0  0  0  0
   22.0620   38.3950   10.5590 C   0  0  0  0  0  0  0  0  0  0  0  0
   21.3490   37.2500   10.8250 C   0  0  0  0  0  0  0  0  0  0  0  0
   20.2020   37.3130   11.6200 C   0  0  0  0  0  0  0  0  0  0  0  0
   22.3970   40.7790   10.7780 N   0  0  0  0  0  0  0  0  0  0  0  0
   19.2360   35.7160   11.9660 Br  0  0  0  0  0  0  0  0  0  0  0  0
   23.6550   38.2990    9.5220 Br  0  0  0  0  0  0  0  0  0  0  0  0
   19.9120   41.4030   12.3330 Br  0  0  0  0  0  0  0  0  0  0  0  0
   19.7940   38.5450   12.1270 C   0  0  0  0  0  0  0  0  0  0  0  0
   20.5090   39.6840   11.7980 C   0  0  0  0  0  0  0  0  0  0  0  0
   18.7620   37.9160   14.0870 O   0  0  0  0  0  0  0  0  0  0  0  0
   17.6390   39.3770   12.8800 O   0  0  0  0  0  0  0  0  0  0  0  0
   22.6080   35.2270   10.8860 O   0  0  0  0  0  0  0  0  0  0  0  0
   21.2030   35.6030    9.2010 O   0  0  0  0  0  0  0  0  0  0  0  0
   22.7571   41.3439   11.5603 H   0  0  0  0  0  0  0  0  0  0  0  0
   22.5811   41.0678    9.8066 H   0  0  0  0  0  0  0  0  0  0  0  0
   18.6890   38.3057   14.9942 H   0  0  0  0  0  0  0  0  0  0  0  0
   20.3389   35.1202    9.2180 H   0  0  0  0  0  0  0  0  0  0  0  0
  1  5  1  0
  1 15  2  0
  1 16  1  0
  2 11  1  0
  2 13  1  0
  2 14  2  0
  3  4  2  0
  3  7  1  0
  3 12  1  0
  4  5  1  0
  4  9  1  0
  5  6  2  0
  6  8  1  0
  6 11  1  0
 10 12  1  0
 11 12  2  0
  7 17  1  0
  7 18  1  0
 13 19  1  0
 16 20  1  0
A    1
C10
A    2
C7
A    3
C5
A    4
C4
A    5
C3
A    6
C2
A    7
N13
A    8
BR1
A    9
BR2
A   10
BR3
A   11
C1
A   12
C6
A   13
O8
A   14
O9
A   15
O11
A   16
O12
M  END
