3GTA_851_A_1
     RDKit          3D

 72 76  0  0  0  0  0  0  0  0999 V2000
   80.4330   61.7560   15.4270 O   0  0  0  0  0  0  0  0  0  0  0  0
   80.7700   62.1380   14.2930 C   0  0  0  0  0  0  0  0  0  0  0  0
   81.9750   61.3850   13.6660 C   0  0  0  0  0  0  0  0  0  0  0  0
   81.5290   60.2760   12.6670 C   0  0  0  0  0  0  0  0  0  0  0  0
   82.6820   59.6360   11.8340 C   0  0  0  0  0  0  0  0  0  0  0  0
   82.1550   58.5610   10.8560 C   0  0  0  0  0  0  0  0  0  0  0  0
   81.3870   57.4570   11.6180 C   0  0  0  0  0  0  0  0  0  0  0  0
   80.2200   58.0420   12.4460 C   0  0  0  0  0  0  0  0  0  0  0  0
   80.6940   59.1700   13.3930 C   0  0  0  0  0  0  0  0  0  0  0  0
   82.9150   60.8590   14.6790 N   0  0  0  0  0  0  0  0  0  0  0  0
   84.2370   61.0410   14.6090 C   0  0  0  0  0  0  0  0  0  0  0  0
   84.8010   61.5340   13.6320 O   0  0  0  0  0  0  0  0  0  0  0  0
   85.0630   60.5500   15.8170 C   0  0  0  0  0  0  0  0  0  0  0  0
   85.0360   61.5460   16.9970 C   0  0  0  0  0  0  0  0  0  0  0  0
   86.4270   60.1840   15.3400 N   0  0  0  0  0  0  0  0  0  0  0  0
   86.5950   58.9970   14.4650 C   0  0  0  0  0  0  0  0  0  0  0  0
   80.0850   63.1360   13.6710 N   0  0  0  0  0  0  0  0  0  0  0  0
   80.4050   63.7650   12.3760 C   0  0  0  0  0  0  0  0  0  0  0  0
   79.7530   65.1370   12.5130 C   0  0  0  0  0  0  0  0  0  0  0  0
   78.4790   64.8370   13.2980 C   0  0  0  0  0  0  0  0  0  0  0  0
   78.8720   63.7130   14.2760 C   0  0  0  0  0  0  0  0  0  0  0  0
   77.7280   62.7350   14.5760 C   0  0  0  0  0  0  0  0  0  0  0  0
   77.0680   62.7600   15.7460 N   0  0  0  0  0  0  0  0  0  0  0  0
   76.1040   61.7730   15.7620 C   0  0  0  0  0  0  0  0  0  0  0  0
   75.2040   61.4990   16.8200 C   0  0  0  0  0  0  0  0  0  0  0  0
   74.2910   60.4250   16.6210 C   0  0  0  0  0  0  0  0  0  0  0  0
   74.2730   59.6760   15.4400 C   0  0  0  0  0  0  0  0  0  0  0  0
   75.1600   59.9520   14.4060 C   0  0  0  0  0  0  0  0  0  0  0  0
   76.0830   61.0190   14.5860 C   0  0  0  0  0  0  0  0  0  0  0  0
   77.2660   61.5220   13.4440 S   0  0  0  0  0  0  0  0  0  0  0  0
   75.2100   62.2320   18.0220 C   0  0  0  0  0  0  0  0  0  0  0  0
   76.4280   62.5490   18.6860 C   0  0  0  0  0  0  0  0  0  0  0  0
   76.4440   63.2730   19.8790 C   0  0  0  0  0  0  0  0  0  0  0  0
   75.2470   63.6920   20.4500 C   0  0  0  0  0  0  0  0  0  0  0  0
   74.0380   63.3990   19.8310 C   0  0  0  0  0  0  0  0  0  0  0  0
   74.0100   62.6790   18.6360 C   0  0  0  0  0  0  0  0  0  0  0  0
   82.5272   62.1396   13.0866 H   0  0  0  0  0  0  0  0  0  0  0  0
   80.8970   60.7970   11.9328 H   0  0  0  0  0  0  0  0  0  0  0  0
   83.1856   60.4259   11.2573 H   0  0  0  0  0  0  0  0  0  0  0  0
   83.3797   59.1506   12.5323 H   0  0  0  0  0  0  0  0  0  0  0  0
   81.4790   59.0348   10.1290 H   0  0  0  0  0  0  0  0  0  0  0  0
   83.0115   58.1032   10.3394 H   0  0  0  0  0  0  0  0  0  0  0  0
   80.9830   56.7369   10.8912 H   0  0  0  0  0  0  0  0  0  0  0  0
   82.0873   56.9665   12.3101 H   0  0  0  0  0  0  0  0  0  0  0  0
   79.4646   58.4492   11.7578 H   0  0  0  0  0  0  0  0  0  0  0  0
   79.7998   57.2334   13.0621 H   0  0  0  0  0  0  0  0  0  0  0  0
   81.3165   58.7244   14.1829 H   0  0  0  0  0  0  0  0  0  0  0  0
   79.7940   59.6547   13.7992 H   0  0  0  0  0  0  0  0  0  0  0  0
   82.5334   60.3281   15.4749 H   0  0  0  0  0  0  0  0  0  0  0  0
   84.6059   59.6451   16.2440 H   0  0  0  0  0  0  0  0  0  0  0  0
   85.0511   60.9904   17.9462 H   0  0  0  0  0  0  0  0  0  0  0  0
   85.9167   62.2029   16.9426 H   0  0  0  0  0  0  0  0  0  0  0  0
   84.1210   62.1542   16.9426 H   0  0  0  0  0  0  0  0  0  0  0  0
   86.7913   60.9950   14.8199 H   0  0  0  0  0  0  0  0  0  0  0  0
   86.7222   58.0984   15.0865 H   0  0  0  0  0  0  0  0  0  0  0  0
   85.7044   58.8806   13.8300 H   0  0  0  0  0  0  0  0  0  0  0  0
   87.4829   59.1323   13.8300 H   0  0  0  0  0  0  0  0  0  0  0  0
   81.4922   63.8527   12.2333 H   0  0  0  0  0  0  0  0  0  0  0  0
   80.0486   63.1920   11.5073 H   0  0  0  0  0  0  0  0  0  0  0  0
   80.4038   65.8302   13.0661 H   0  0  0  0  0  0  0  0  0  0  0  0
   79.5606   65.6232   11.5452 H   0  0  0  0  0  0  0  0  0  0  0  0
   78.1440   65.7289   13.8478 H   0  0  0  0  0  0  0  0  0  0  0  0
   77.6472   64.5426   12.6411 H   0  0  0  0  0  0  0  0  0  0  0  0
   79.0841   64.0717   15.2940 H   0  0  0  0  0  0  0  0  0  0  0  0
   73.5777   60.1766   17.4207 H   0  0  0  0  0  0  0  0  0  0  0  0
   73.5470   58.8573   15.3279 H   0  0  0  0  0  0  0  0  0  0  0  0
   75.1484   59.3632   13.4769 H   0  0  0  0  0  0  0  0  0  0  0  0
   77.3803   62.2152   18.2482 H   0  0  0  0  0  0  0  0  0  0  0  0
   77.4008   63.5116   20.3664 H   0  0  0  0  0  0  0  0  0  0  0  0
   75.2574   64.2567   21.3939 H   0  0  0  0  0  0  0  0  0  0  0  0
   73.0956   63.7373   20.2865 H   0  0  0  0  0  0  0  0  0  0  0  0
   73.0431   62.4541   18.1621 H   0  0  0  0  0  0  0  0  0  0  0  0
  1  2  2  0
  2  3  1  0
  2 17  1  0
  3  4  1  0
  3 10  1  0
  4  5  1  0
  4  9  1  0
  5  6  1  0
  6  7  1  0
  7  8  1  0
  8  9  1  0
 10 11  1  0
 11 12  2  0
 11 13  1  0
 13 14  1  0
 13 15  1  0
 15 16  1  0
 17 18  1  0
 17 21  1  0
 18 19  1  0
 19 20  1  0
 20 21  1  0
 21 22  1  0
 22 23  2  0
 22 30  1  0
 23 24  1  0
 24 25  2  0
 24 29  1  0
 25 26  1  0
 25 31  1  0
 26 27  2  0
 27 28  1  0
 28 29  2  0
 29 30  1  0
 31 32  2  0
 31 36  1  0
 32 33  1  0
 33 34  2  0
 34 35  1  0
 35 36  2  0
  3 37  1  0
  4 38  1  0
  5 39  1  0
  5 40  1  0
  6 41  1  0
  6 42  1  0
  7 43  1  0
  7 44  1  0
  8 45  1  0
  8 46  1  0
  9 47  1  0
  9 48  1  0
 10 49  1  0
 13 50  1  0
 14 51  1  0
 14 52  1  0
 14 53  1  0
 15 54  1  0
 16 55  1  0
 16 56  1  0
 16 57  1  0
 18 58  1  0
 18 59  1  0
 19 60  1  0
 19 61  1  0
 20 62  1  0
 20 63  1  0
 21 64  1  0
 26 65  1  0
 27 66  1  0
 28 67  1  0
 32 68  1  0
 33 69  1  0
 34 70  1  0
 35 71  1  0
 36 72  1  0
A    1
O16
A    2
C15
A    3
C8
A    4
C9
A    5
C14
A    6
C13
A    7
C12
A    8
C11
A    9
C10
A   10
N7
A   11
C5
A   12
O6
A   13
C3
A   14
C4
A   15
N2
A   16
C1
A   17
N17
A   18
C21
A   19
C20
A   20
C19
A   21
C18
A   22
C22
A   23
N26
A   24
C25
A   25
C30
A   26
C29
A   27
C28
A   28
C27
A   29
C24
A   30
S23
A   31
C31
A   32
C36
A   33
C35
A   34
C34
A   35
C33
A   36
C32
M  END
