3GU8_3GU_A_296
     RDKit          3D

 45 48  0  0  0  0  0  0  0  0999 V2000
  -24.0270    5.0630   -7.3690 C   0  0  0  0  0  0  0  0  0  0  0  0
  -26.5150    5.4790  -10.1050 N   0  0  0  0  0  0  0  0  0  0  0  0
  -26.8660    5.1090  -11.3490 C   0  0  0  0  0  0  0  0  0  0  0  0
  -26.1060    4.2490  -12.0410 N   0  0  0  0  0  0  0  0  0  0  0  0
  -24.9700    3.7480  -11.4950 C   0  0  0  0  0  0  0  0  0  0  0  0
  -24.5780    4.1120  -10.2120 C   0  0  0  0  0  0  0  0  0  0  0  0
  -25.3980    5.0060   -9.4920 C   0  0  0  0  0  0  0  0  0  0  0  0
  -25.1620    5.4580   -8.2130 N   0  0  0  0  0  0  0  0  0  0  0  0
  -23.4050    3.4550   -9.9570 N   0  0  0  0  0  0  0  0  0  0  0  0
  -23.1110    2.7070  -11.0440 C   0  0  0  0  0  0  0  0  0  0  0  0
  -24.0540    2.9060  -11.9840 N   0  0  0  0  0  0  0  0  0  0  0  0
  -24.1500    2.2590  -13.3320 C   0  0  0  0  0  0  0  0  0  0  0  0
  -23.3720    2.9460  -14.4440 C   0  0  0  0  0  0  0  0  0  0  0  0
  -24.0490    2.6700  -15.6780 O   0  0  0  0  0  0  0  0  0  0  0  0
  -24.2010    5.7030   -5.9950 C   0  0  0  0  0  0  0  0  0  0  0  0
  -23.6400    4.7170   -4.9730 C   0  0  0  0  0  0  0  0  0  0  0  0
  -23.9270    3.3460   -5.5690 C   0  0  0  0  0  0  0  0  0  0  0  0
  -24.1910    3.5730   -7.0520 C   0  0  0  0  0  0  0  0  0  0  0  0
  -22.0510    2.2250  -14.4270 C   0  0  0  0  0  0  0  0  0  0  0  0
  -21.3580    2.3190  -15.6890 O   0  0  0  0  0  0  0  0  0  0  0  0
  -22.4590    0.8070  -14.0620 C   0  0  0  0  0  0  0  0  0  0  0  0
  -23.6160    0.9370  -13.2080 O   0  0  0  0  0  0  0  0  0  0  0  0
  -21.3660    0.0640  -13.3280 C   0  0  0  0  0  0  0  0  0  0  0  0
  -20.6480    0.9750  -12.4830 O   0  0  0  0  0  0  0  0  0  0  0  0
  -23.0868    5.3317   -7.8729 H   0  0  0  0  0  0  0  0  0  0  0  0
  -27.7828    5.5147  -11.8017 H   0  0  0  0  0  0  0  0  0  0  0  0
  -25.8364    6.1276   -7.8159 H   0  0  0  0  0  0  0  0  0  0  0  0
  -22.2405    2.0421  -11.1444 H   0  0  0  0  0  0  0  0  0  0  0  0
  -25.2113    2.3040  -13.6176 H   0  0  0  0  0  0  0  0  0  0  0  0
  -23.2694    4.0352  -14.3296 H   0  0  0  0  0  0  0  0  0  0  0  0
  -24.9484    2.3033  -15.4861 H   0  0  0  0  0  0  0  0  0  0  0  0
  -23.6483    6.6529   -5.9473 H   0  0  0  0  0  0  0  0  0  0  0  0
  -25.2602    5.9201   -5.7928 H   0  0  0  0  0  0  0  0  0  0  0  0
  -22.5579    4.8656   -4.8427 H   0  0  0  0  0  0  0  0  0  0  0  0
  -24.0916    4.8435   -3.9780 H   0  0  0  0  0  0  0  0  0  0  0  0
  -23.0603    2.6824   -5.4334 H   0  0  0  0  0  0  0  0  0  0  0  0
  -24.7873    2.8679   -5.0777 H   0  0  0  0  0  0  0  0  0  0  0  0
  -25.2153    3.2551   -7.2965 H   0  0  0  0  0  0  0  0  0  0  0  0
  -23.4771    2.9867   -7.6491 H   0  0  0  0  0  0  0  0  0  0  0  0
  -21.3228    2.6501  -13.7206 H   0  0  0  0  0  0  0  0  0  0  0  0
  -20.3905    2.4502  -15.5252 H   0  0  0  0  0  0  0  0  0  0  0  0
  -22.6662    0.2278  -14.9740 H   0  0  0  0  0  0  0  0  0  0  0  0
  -21.8131   -0.7308  -12.7129 H   0  0  0  0  0  0  0  0  0  0  0  0
  -20.6732   -0.3806  -14.0576 H   0  0  0  0  0  0  0  0  0  0  0  0
  -20.8231    0.7528  -11.5343 H   0  0  0  0  0  0  0  0  0  0  0  0
  1  8  1  0
  1 15  1  0
  1 18  1  0
  2  3  2  0
  2  7  1  0
  3  4  1  0
  4  5  2  0
  5  6  1  0
  5 11  1  0
  6  7  2  0
  6  9  1  0
  7  8  1  0
  9 10  2  0
 10 11  1  0
 11 12  1  0
 12 13  1  0
 12 22  1  0
 13 14  1  0
 13 19  1  0
 15 16  1  0
 16 17  1  0
 17 18  1  0
 19 20  1  0
 19 21  1  0
 21 22  1  0
 21 23  1  0
 23 24  1  0
  1 25  1  0
  3 26  1  0
  8 27  1  0
 10 28  1  0
 12 29  1  0
 13 30  1  0
 14 31  1  0
 15 32  1  0
 15 33  1  0
 16 34  1  0
 16 35  1  0
 17 36  1  0
 17 37  1  0
 18 38  1  0
 18 39  1  0
 19 40  1  0
 20 41  1  0
 21 42  1  0
 23 43  1  0
 23 44  1  0
 24 45  1  0
A    1
C1
A    2
N1
A    3
C2
A    4
N3
A    5
C4
A    6
C5
A    7
C6
A    8
N6
A    9
N7
A   10
C8
A   11
N9
A   12
C1'
A   13
C2'
A   14
O2'
A   15
C21
A   16
C22
A   17
C23
A   18
C24
A   19
C3'
A   20
O3'
A   21
C4'
A   22
O4'
A   23
C5'
A   24
O5'
M  END
