3GVB_3GV_A_1
     RDKit          3D

 27 28  0  0  0  0  0  0  0  0999 V2000
   10.6950   45.9040   27.6200 O   0  0  0  0  0  0  0  0  0  0  0  0
   11.6200   45.6950   26.8510 C   0  0  0  0  0  0  0  0  0  0  0  0
   11.6820   46.2100   25.4390 C   0  0  0  0  0  0  0  0  0  0  0  0
   12.7120   44.9870   27.0890 N   0  0  0  0  0  0  0  0  0  0  0  0
   13.6140   44.7690   25.9690 C   0  0  0  0  0  0  0  0  0  0  0  0
   12.8010   45.3730   24.8190 C   0  0  0  0  0  0  0  0  0  0  0  0
   12.2160   44.2710   23.9810 C   0  0  0  0  0  0  0  0  0  0  0  0
   11.0200   43.9420   24.1510 O   0  0  0  0  0  0  0  0  0  0  0  0
   12.9500   43.7150   23.1350 O   0  0  0  0  0  0  0  0  0  0  0  0
   12.9990   44.4750   28.3680 C   0  0  0  0  0  0  0  0  0  0  0  0
   13.0000   43.1020   28.6060 C   0  0  0  0  0  0  0  0  0  0  0  0
   12.7250   42.2200   27.6050 O   0  0  0  0  0  0  0  0  0  0  0  0
   13.2900   42.6120   29.8790 C   0  0  0  0  0  0  0  0  0  0  0  0
   13.5740   43.4910   30.9220 C   0  0  0  0  0  0  0  0  0  0  0  0
   13.5730   44.8650   30.6890 C   0  0  0  0  0  0  0  0  0  0  0  0
   13.2880   45.3550   29.4140 C   0  0  0  0  0  0  0  0  0  0  0  0
   10.7285   46.0458   24.9156 H   0  0  0  0  0  0  0  0  0  0  0  0
   11.8655   47.2929   25.3793 H   0  0  0  0  0  0  0  0  0  0  0  0
   14.5686   45.2970   26.1101 H   0  0  0  0  0  0  0  0  0  0  0  0
   13.9041   43.7188   25.8174 H   0  0  0  0  0  0  0  0  0  0  0  0
   13.4371   45.9975   24.1745 H   0  0  0  0  0  0  0  0  0  0  0  0
   10.6594   43.8428   25.0676 H   0  0  0  0  0  0  0  0  0  0  0  0
   12.4375   41.2980   27.8227 H   0  0  0  0  0  0  0  0  0  0  0  0
   13.2945   41.5271   30.0604 H   0  0  0  0  0  0  0  0  0  0  0  0
   13.7983   43.1018   31.9261 H   0  0  0  0  0  0  0  0  0  0  0  0
   13.7967   45.5626   31.5095 H   0  0  0  0  0  0  0  0  0  0  0  0
   13.2909   46.4397   29.2314 H   0  0  0  0  0  0  0  0  0  0  0  0
  2  1  2  0
  3  2  1  0
  2  4  1  0
  6  3  1  0
  5  4  1  0
  4 10  1  0
  6  5  1  0
  7  6  1  0
  9  7  2  0
  7  8  1  0
 10 11  2  0
 10 16  1  0
 12 11  1  0
 11 13  1  0
 13 14  2  0
 15 14  1  0
 16 15  2  0
  3 17  1  0
  3 18  1  0
  5 19  1  0
  5 20  1  0
  6 21  1  0
  8 22  1  0
 12 23  1  0
 13 24  1  0
 14 25  1  0
 15 26  1  0
 16 27  1  0
A    1
O13
A    2
C9
A    3
C10
A    4
N8
A    5
C12
A    6
C11
A    7
C14
A    8
O15
A    9
O16
A   10
C4
A   11
C5
A   12
O7
A   13
C6
A   14
C1
A   15
C2
A   16
C3
M  END
