3GW5_72X_A_400
     RDKit          3D

 81 83  0  0  0  0  0  0  0  0999 V2000
   29.0520   -7.7360  -14.5800 C   0  0  0  0  0  0  0  0  0  0  0  0
   28.3380   -7.4420  -15.8020 O   0  0  0  0  0  0  0  0  0  0  0  0
   30.5570   -8.0720  -14.9200 C   0  0  0  0  0  0  0  0  0  0  0  0
   31.2010   -8.0810  -16.2280 C   0  0  0  0  0  0  0  0  0  0  0  0
   31.3830   -8.4210  -13.6600 C   0  0  0  0  0  0  0  0  0  0  0  0
   32.6220   -8.4200  -16.3310 C   0  0  0  0  0  0  0  0  0  0  0  0
   32.7770   -8.7520  -13.8130 C   0  0  0  0  0  0  0  0  0  0  0  0
   33.4000   -8.7530  -15.1410 C   0  0  0  0  0  0  0  0  0  0  0  0
   28.9810   -6.4490  -13.6720 C   0  0  0  0  0  0  0  0  0  0  0  0
   29.6150   -5.1110  -14.1530 C   0  0  0  0  0  0  0  0  0  0  0  0
   29.5150   -3.9070  -13.1820 C   0  0  0  0  0  0  0  0  0  0  0  0
   28.0770   -3.4730  -12.8320 C   0  0  0  0  0  0  0  0  0  0  0  0
   27.3650   -3.1910  -14.0050 O   0  0  0  0  0  0  0  0  0  0  0  0
   26.0340   -2.8060  -13.7510 C   0  0  0  0  0  0  0  0  0  0  0  0
   26.5300   -8.8260   -9.1820 C   0  0  0  0  0  0  0  0  0  0  0  0
   25.1140   -8.3550   -8.7230 C   0  0  0  0  0  0  0  0  0  0  0  0
   27.6640   -7.8160   -8.8540 C   0  0  0  0  0  0  0  0  0  0  0  0
   25.0300   -8.1250   -7.2700 N   0  0  0  0  0  0  0  0  0  0  0  0
   29.1080   -8.2160   -9.2440 C   0  0  0  0  0  0  0  0  0  0  0  0
   30.1190   -7.1050   -8.8610 C   0  0  0  0  0  0  0  0  0  0  0  0
   31.5950   -7.4570   -9.2340 C   0  0  0  0  0  0  0  0  0  0  0  0
   32.0760   -8.8390   -8.6880 C   0  0  0  0  0  0  0  0  0  0  0  0
   29.5560   -9.5880   -8.5120 C   0  0  0  0  0  0  0  0  0  0  0  0
   31.0280  -10.0350   -8.8720 C   0  0  0  0  0  0  0  0  0  0  0  0
   26.5350   -9.0280  -10.6220 N   0  0  0  0  0  0  0  0  0  0  0  0
   26.2580  -10.1770  -11.3420 C   0  0  0  0  0  0  0  0  0  0  0  0
   25.9530  -11.2340  -10.7900 O   0  0  0  0  0  0  0  0  0  0  0  0
   26.3650  -10.0150  -12.7320 N   0  0  0  0  0  0  0  0  0  0  0  0
   27.6060  -11.5600  -14.0030 C   0  0  0  0  0  0  0  0  0  0  0  0
   28.3230  -10.3470  -14.6870 C   0  0  0  0  0  0  0  0  0  0  0  0
   28.3170   -8.9620  -13.8230 C   0  0  0  0  0  0  0  0  0  0  0  0
   26.7540   -8.7170  -13.4460 C   0  0  0  0  0  0  0  0  0  0  0  0
   26.1260  -11.1000  -13.6550 C   0  0  0  0  0  0  0  0  0  0  0  0
   25.1760   -9.3290   -6.4430 C   0  0  0  0  0  0  0  0  0  0  0  0
   33.6920   -9.1440  -12.4460 Cl  0  0  0  0  0  0  0  0  0  0  0  0
   27.4454   -7.0744  -15.5824 H   0  0  0  0  0  0  0  0  0  0  0  0
   30.6235   -7.8349  -17.1313 H   0  0  0  0  0  0  0  0  0  0  0  0
   30.9147   -8.4166  -12.6647 H   0  0  0  0  0  0  0  0  0  0  0  0
   33.1094   -8.4238  -17.3171 H   0  0  0  0  0  0  0  0  0  0  0  0
   34.4654   -9.0075  -15.2416 H   0  0  0  0  0  0  0  0  0  0  0  0
   27.9146   -6.2470  -13.4933 H   0  0  0  0  0  0  0  0  0  0  0  0
   29.6014   -6.7211  -12.8054 H   0  0  0  0  0  0  0  0  0  0  0  0
   30.6820   -5.2973  -14.3448 H   0  0  0  0  0  0  0  0  0  0  0  0
   29.0344   -4.8173  -15.0399 H   0  0  0  0  0  0  0  0  0  0  0  0
   30.0271   -4.1785  -12.2471 H   0  0  0  0  0  0  0  0  0  0  0  0
   29.9775   -3.0537  -13.6998 H   0  0  0  0  0  0  0  0  0  0  0  0
   27.5738   -4.2847  -12.2861 H   0  0  0  0  0  0  0  0  0  0  0  0
   28.1139   -2.5700  -12.2049 H   0  0  0  0  0  0  0  0  0  0  0  0
   25.8672   -2.7577  -12.6648 H   0  0  0  0  0  0  0  0  0  0  0  0
   25.8473   -1.8170  -14.1949 H   0  0  0  0  0  0  0  0  0  0  0  0
   25.3482   -3.5426  -14.1949 H   0  0  0  0  0  0  0  0  0  0  0  0
   26.7284   -9.7550   -8.6275 H   0  0  0  0  0  0  0  0  0  0  0  0
   24.8711   -7.4159   -9.2418 H   0  0  0  0  0  0  0  0  0  0  0  0
   24.4025   -9.1559   -8.9724 H   0  0  0  0  0  0  0  0  0  0  0  0
   27.4297   -6.8760   -9.3750 H   0  0  0  0  0  0  0  0  0  0  0  0
   27.6760   -7.7528   -7.7559 H   0  0  0  0  0  0  0  0  0  0  0  0
   25.7752   -7.4643   -7.0073 H   0  0  0  0  0  0  0  0  0  0  0  0
   29.1122   -8.3618  -10.3343 H   0  0  0  0  0  0  0  0  0  0  0  0
   29.8372   -6.1804   -9.3861 H   0  0  0  0  0  0  0  0  0  0  0  0
   30.0779   -6.9899   -7.7678 H   0  0  0  0  0  0  0  0  0  0  0  0
   31.6811   -7.4694  -10.3306 H   0  0  0  0  0  0  0  0  0  0  0  0
   32.2323   -6.6913   -8.7676 H   0  0  0  0  0  0  0  0  0  0  0  0
   33.0023   -9.1116   -9.2150 H   0  0  0  0  0  0  0  0  0  0  0  0
   32.2145   -8.7126   -7.6041 H   0  0  0  0  0  0  0  0  0  0  0  0
   29.4919   -9.4404   -7.4238 H   0  0  0  0  0  0  0  0  0  0  0  0
   28.8791  -10.3810   -8.8626 H   0  0  0  0  0  0  0  0  0  0  0  0
   31.0517  -10.3709   -9.9192 H   0  0  0  0  0  0  0  0  0  0  0  0
   31.3145  -10.8479   -8.1886 H   0  0  0  0  0  0  0  0  0  0  0  0
   26.7787   -8.2004  -11.1847 H   0  0  0  0  0  0  0  0  0  0  0  0
   27.5814  -12.4187  -14.6900 H   0  0  0  0  0  0  0  0  0  0  0  0
   28.1424  -11.8663  -13.0928 H   0  0  0  0  0  0  0  0  0  0  0  0
   29.3701  -10.6295  -14.8707 H   0  0  0  0  0  0  0  0  0  0  0  0
   27.7582  -10.1365  -15.6071 H   0  0  0  0  0  0  0  0  0  0  0  0
   28.9197   -9.0341  -12.9057 H   0  0  0  0  0  0  0  0  0  0  0  0
   26.1477   -8.5667  -14.3514 H   0  0  0  0  0  0  0  0  0  0  0  0
   26.5915   -7.8188  -12.8321 H   0  0  0  0  0  0  0  0  0  0  0  0
   25.5552  -11.9117  -13.1803 H   0  0  0  0  0  0  0  0  0  0  0  0
   25.5291  -10.8148  -14.5339 H   0  0  0  0  0  0  0  0  0  0  0  0
   25.1421   -9.0497   -5.3796 H   0  0  0  0  0  0  0  0  0  0  0  0
   24.3560  -10.0279   -6.6649 H   0  0  0  0  0  0  0  0  0  0  0  0
   26.1392   -9.8116   -6.6649 H   0  0  0  0  0  0  0  0  0  0  0  0
  1  2  1  0
  1  3  1  0
  1  9  1  0
  1 31  1  0
  3  4  2  0
  3  5  1  0
  4  6  1  0
  5  7  2  0
  6  8  2  0
  7  8  1  0
  7 35  1  0
  9 10  1  0
 10 11  1  0
 11 12  1  0
 12 13  1  0
 13 14  1  0
 15 16  1  0
 15 17  1  0
 15 25  1  0
 16 18  1  0
 17 19  1  0
 18 34  1  0
 19 20  1  0
 19 23  1  0
 20 21  1  0
 21 22  1  0
 22 24  1  0
 23 24  1  0
 25 26  1  0
 26 27  2  0
 26 28  1  0
 28 32  1  0
 28 33  1  0
 29 30  1  0
 29 33  1  0
 30 31  1  0
 31 32  1  0
  2 36  1  0
  4 37  1  0
  5 38  1  0
  6 39  1  0
  8 40  1  0
  9 41  1  0
  9 42  1  0
 10 43  1  0
 10 44  1  0
 11 45  1  0
 11 46  1  0
 12 47  1  0
 12 48  1  0
 14 49  1  0
 14 50  1  0
 14 51  1  0
 15 52  1  0
 16 53  1  0
 16 54  1  0
 17 55  1  0
 17 56  1  0
 18 57  1  0
 19 58  1  0
 20 59  1  0
 20 60  1  0
 21 61  1  0
 21 62  1  0
 22 63  1  0
 22 64  1  0
 23 65  1  0
 23 66  1  0
 24 67  1  0
 24 68  1  0
 25 69  1  0
 29 70  1  0
 29 71  1  0
 30 72  1  0
 30 73  1  0
 31 74  1  0
 32 75  1  0
 32 76  1  0
 33 77  1  0
 33 78  1  0
 34 79  1  0
 34 80  1  0
 34 81  1  0
A    1
C1
A    2
O2
A    3
C3
A    4
C4
A    5
C5
A    6
C6
A    7
C7
A    8
C8
A    9
C15
A   10
C18
A   11
C21
A   12
C24
A   13
O27
A   14
C28
A   15
C32
A   16
C33
A   17
C34
A   18
N35
A   19
C36
A   20
C37
A   21
C38
A   22
C39
A   23
C40
A   24
C41
A   25
N42
A   26
C43
A   27
O44
A   28
N45
A   29
C46
A   30
C47
A   31
C48
A   32
C49
A   33
C50
A   34
C51
A   35
CL1
M  END
