3GWT_066_A_1
     RDKit          3D

 63 66  0  0  0  0  0  0  0  0999 V2000
   44.0530   46.0630   61.6620 O   0  0  0  0  0  0  0  0  0  0  0  0
   43.6220   45.8360   62.7810 C   0  0  0  0  0  0  0  0  0  0  0  0
   42.4210   45.2780   62.9690 N   0  0  0  0  0  0  0  0  0  0  0  0
   44.4500   46.2530   63.9850 C   0  0  0  0  0  0  0  0  0  0  0  0
   43.8350   46.2940   65.2340 C   0  0  0  0  0  0  0  0  0  0  0  0
   44.4700   46.7120   66.3520 N   0  0  0  0  0  0  0  0  0  0  0  0
   45.7380   47.1390   66.2630 C   0  0  0  0  0  0  0  0  0  0  0  0
   46.4130   47.1630   65.0420 C   0  0  0  0  0  0  0  0  0  0  0  0
   47.7360   47.6170   64.9820 C   0  0  0  0  0  0  0  0  0  0  0  0
   48.3750   48.0540   66.1460 C   0  0  0  0  0  0  0  0  0  0  0  0
   50.0300   48.6840   66.0440 S   0  0  0  0  0  0  0  0  0  0  0  0
   50.4000   48.6620   64.6550 O   0  0  0  0  0  0  0  0  0  0  0  0
   51.1110   47.6430   66.9220 C   0  0  0  0  0  0  0  0  0  0  0  0
   51.4520   46.4770   66.3150 C   0  0  0  0  0  0  0  0  0  0  0  0
   52.3090   45.6140   66.9360 C   0  0  0  0  0  0  0  0  0  0  0  0
   52.5960   44.3780   66.1690 C   0  0  0  0  0  0  0  0  0  0  0  0
   52.9680   44.5120   64.8880 N   0  0  0  0  0  0  0  0  0  0  0  0
   53.4160   43.3940   64.1040 C   0  0  0  0  0  0  0  0  0  0  0  0
   52.9620   45.7780   64.1520 C   0  0  0  0  0  0  0  0  0  0  0  0
   52.4410   43.3100   66.7300 O   0  0  0  0  0  0  0  0  0  0  0  0
   52.8340   45.9010   68.1910 C   0  0  0  0  0  0  0  0  0  0  0  0
   52.4970   47.1020   68.8110 C   0  0  0  0  0  0  0  0  0  0  0  0
   51.6290   47.9830   68.1690 C   0  0  0  0  0  0  0  0  0  0  0  0
   50.0920   49.9530   66.7220 O   0  0  0  0  0  0  0  0  0  0  0  0
   47.6860   48.0290   67.3590 C   0  0  0  0  0  0  0  0  0  0  0  0
   46.3720   47.5720   67.4230 C   0  0  0  0  0  0  0  0  0  0  0  0
   45.6210   47.5380   68.7240 C   0  0  0  0  0  0  0  0  0  0  0  0
   45.7650   46.7210   63.8780 C   0  0  0  0  0  0  0  0  0  0  0  0
   46.4540   46.7160   62.6990 N   0  0  0  0  0  0  0  0  0  0  0  0
   47.6140   45.9730   62.6520 C   0  0  0  0  0  0  0  0  0  0  0  0
   48.4850   46.0740   61.5800 C   0  0  0  0  0  0  0  0  0  0  0  0
   47.9690   45.0810   63.6680 C   0  0  0  0  0  0  0  0  0  0  0  0
   49.1540   44.3060   63.6060 C   0  0  0  0  0  0  0  0  0  0  0  0
   50.0240   44.4320   62.5280 C   0  0  0  0  0  0  0  0  0  0  0  0
   49.6630   45.3230   61.5150 C   0  0  0  0  0  0  0  0  0  0  0  0
   50.4770   45.4850   60.4310 O   0  0  0  0  0  0  0  0  0  0  0  0
   50.0800   46.3110   59.3470 C   0  0  0  0  0  0  0  0  0  0  0  0
   42.0723   45.1160   63.9245 H   0  0  0  0  0  0  0  0  0  0  0  0
   41.8449   45.0103   62.1582 H   0  0  0  0  0  0  0  0  0  0  0  0
   42.7862   45.9720   65.3144 H   0  0  0  0  0  0  0  0  0  0  0  0
   48.2714   47.6298   64.0212 H   0  0  0  0  0  0  0  0  0  0  0  0
   51.0392   46.2285   65.3262 H   0  0  0  0  0  0  0  0  0  0  0  0
   53.7407   42.5836   64.7731 H   0  0  0  0  0  0  0  0  0  0  0  0
   52.5914   43.0373   63.4694 H   0  0  0  0  0  0  0  0  0  0  0  0
   54.2588   43.7054   63.4694 H   0  0  0  0  0  0  0  0  0  0  0  0
   52.9580   46.6162   64.8643 H   0  0  0  0  0  0  0  0  0  0  0  0
   53.8599   45.8386   63.5194 H   0  0  0  0  0  0  0  0  0  0  0  0
   52.0636   45.8301   63.5194 H   0  0  0  0  0  0  0  0  0  0  0  0
   53.5077   45.1879   68.6886 H   0  0  0  0  0  0  0  0  0  0  0  0
   52.9122   47.3526   69.7983 H   0  0  0  0  0  0  0  0  0  0  0  0
   51.3557   48.9375   68.6426 H   0  0  0  0  0  0  0  0  0  0  0  0
   48.1866   48.3743   68.2756 H   0  0  0  0  0  0  0  0  0  0  0  0
   46.3348   47.5703   69.5603 H   0  0  0  0  0  0  0  0  0  0  0  0
   44.9486   48.4066   68.7820 H   0  0  0  0  0  0  0  0  0  0  0  0
   45.0298   46.6122   68.7820 H   0  0  0  0  0  0  0  0  0  0  0  0
   46.1212   47.2447   61.8801 H   0  0  0  0  0  0  0  0  0  0  0  0
   48.2438   46.7635   60.7575 H   0  0  0  0  0  0  0  0  0  0  0  0
   47.3089   44.9775   64.5418 H   0  0  0  0  0  0  0  0  0  0  0  0
   49.3874   43.5997   64.4163 H   0  0  0  0  0  0  0  0  0  0  0  0
   50.9581   43.8535   62.4756 H   0  0  0  0  0  0  0  0  0  0  0  0
   49.6344   47.2382   59.7366 H   0  0  0  0  0  0  0  0  0  0  0  0
   50.9585   46.5565   58.7322 H   0  0  0  0  0  0  0  0  0  0  0  0
   49.3395   45.7784   58.7322 H   0  0  0  0  0  0  0  0  0  0  0  0
  1  2  2  0
  2  3  1  0
  2  4  1  0
 28  4  2  0
  4  5  1  0
  5  6  2  0
  7  6  1  0
  8  7  2  0
  7 26  1  0
 28  8  1  0
  9  8  1  0
  9 10  2  0
 11 10  1  0
 10 25  1  0
 12 11  2  0
 11 24  2  0
 11 13  1  0
 14 13  2  0
 13 23  1  0
 14 15  1  0
 16 15  1  0
 15 21  2  0
 17 16  1  0
 16 20  2  0
 19 17  1  0
 18 17  1  0
 21 22  1  0
 23 22  2  0
 25 26  2  0
 26 27  1  0
 29 28  1  0
 30 29  1  0
 31 30  2  0
 30 32  1  0
 35 31  1  0
 33 32  2  0
 34 33  1  0
 35 34  2  0
 36 35  1  0
 37 36  1  0
  3 38  1  0
  3 39  1  0
  5 40  1  0
  9 41  1  0
 14 42  1  0
 18 43  1  0
 18 44  1  0
 18 45  1  0
 19 46  1  0
 19 47  1  0
 19 48  1  0
 21 49  1  0
 22 50  1  0
 23 51  1  0
 25 52  1  0
 27 53  1  0
 27 54  1  0
 27 55  1  0
 29 56  1  0
 31 57  1  0
 32 58  1  0
 33 59  1  0
 34 60  1  0
 37 61  1  0
 37 62  1  0
 37 63  1  0
A    1
O5
A    2
C26
A    3
N4
A    4
C8
A    5
C9
A    6
N2
A    7
C10
A    8
C16
A    9
C15
A   10
C14
A   11
S
A   12
O3
A   13
C17
A   14
C22
A   15
C21
A   16
C23
A   17
N3
A   18
C25
A   19
C24
A   20
O4
A   21
C20
A   22
C19
A   23
C18
A   24
O2
A   25
C13
A   26
C11
A   27
C12
A   28
C7
A   29
N1
A   30
C6
A   31
C27
A   32
C5
A   33
C4
A   34
C3
A   35
C2
A   36
O1
A   37
C1
M  END
