3GXO_MQA_A_351
     RDKit          3D

 44 47  0  0  0  0  0  0  0  0999 V2000
   32.3940    0.5130    1.0210 C   0  0  0  0  0  0  0  0  0  0  0  0
   31.0780   -0.0340    1.5800 C   0  0  0  0  0  0  0  0  0  0  0  0
   30.2510   -0.5730    0.4210 C   0  0  0  0  0  0  0  0  0  0  0  0
   29.2960    0.1710   -2.4980 C   0  0  0  0  0  0  0  0  0  0  0  0
   29.0220    1.1300   -3.6130 C   0  0  0  0  0  0  0  0  0  0  0  0
   30.0620    2.1110   -4.0090 C   0  0  0  0  0  0  0  0  0  0  0  0
   31.3790    2.1780   -3.3330 C   0  0  0  0  0  0  0  0  0  0  0  0
   32.8320    1.0890   -1.4470 C   0  0  0  0  0  0  0  0  0  0  0  0
   33.0930    2.4840   -0.8980 C   0  0  0  0  0  0  0  0  0  0  0  0
   35.5530    2.4290   -1.0970 C   0  0  0  0  0  0  0  0  0  0  0  0
   28.4460   -0.6720   -2.1400 O   0  0  0  0  0  0  0  0  0  0  0  0
   27.7140    1.1510   -4.3630 C   0  0  0  0  0  0  0  0  0  0  0  0
   29.7950    3.0110   -4.9840 O   0  0  0  0  0  0  0  0  0  0  0  0
   29.5870    4.3370   -4.5010 C   0  0  0  0  0  0  0  0  0  0  0  0
   32.2410    3.0230   -3.6860 O   0  0  0  0  0  0  0  0  0  0  0  0
   30.6210    0.2390   -1.8240 C   0  0  0  0  0  0  0  0  0  0  0  0
   31.6210    1.2100   -2.2450 C   0  0  0  0  0  0  0  0  0  0  0  0
   31.1140   -0.5600   -0.7750 N   0  0  0  0  0  0  0  0  0  0  0  0
   32.4480    0.0070   -0.4200 C   0  0  0  0  0  0  0  0  0  0  0  0
   33.4130   -1.0370   -0.4980 O   0  0  0  0  0  0  0  0  0  0  0  0
   34.7980   -0.7060   -0.4240 C   0  0  0  0  0  0  0  0  0  0  0  0
   31.2670    1.4030    1.3400 N   0  0  0  0  0  0  0  0  0  0  0  0
   34.3650    2.5370   -0.2830 O   0  0  0  0  0  0  0  0  0  0  0  0
   36.5940    2.1100   -0.5400 O   0  0  0  0  0  0  0  0  0  0  0  0
   35.4740    2.7230   -2.3890 N   0  0  0  0  0  0  0  0  0  0  0  0
   33.4653    0.5692    1.2641 H   0  0  0  0  0  0  0  0  0  0  0  0
   30.7867   -0.6763    2.4241 H   0  0  0  0  0  0  0  0  0  0  0  0
   29.9232   -1.6004    0.6379 H   0  0  0  0  0  0  0  0  0  0  0  0
   29.3542    0.0438    0.2617 H   0  0  0  0  0  0  0  0  0  0  0  0
   33.7670    0.7833   -1.9394 H   0  0  0  0  0  0  0  0  0  0  0  0
   33.0575    3.2114   -1.7224 H   0  0  0  0  0  0  0  0  0  0  0  0
   32.3228    2.7253   -0.1506 H   0  0  0  0  0  0  0  0  0  0  0  0
   26.8802    1.1644   -3.6457 H   0  0  0  0  0  0  0  0  0  0  0  0
   27.6682    2.0500   -4.9952 H   0  0  0  0  0  0  0  0  0  0  0  0
   27.6394    0.2539   -4.9952 H   0  0  0  0  0  0  0  0  0  0  0  0
   29.5880    4.3309   -3.4010 H   0  0  0  0  0  0  0  0  0  0  0  0
   30.3936    4.9905   -4.8648 H   0  0  0  0  0  0  0  0  0  0  0  0
   28.6190    4.7121   -4.8648 H   0  0  0  0  0  0  0  0  0  0  0  0
   35.1018   -0.6334    0.6307 H   0  0  0  0  0  0  0  0  0  0  0  0
   35.3891   -1.4882   -0.9228 H   0  0  0  0  0  0  0  0  0  0  0  0
   34.9716    0.2589   -0.9228 H   0  0  0  0  0  0  0  0  0  0  0  0
   31.3391    2.0464    2.1411 H   0  0  0  0  0  0  0  0  0  0  0  0
   35.2180    3.6756   -2.6857 H   0  0  0  0  0  0  0  0  0  0  0  0
   35.6687    1.9986   -3.0949 H   0  0  0  0  0  0  0  0  0  0  0  0
 19  1  1  0
  1 22  1  0
  1  2  1  0
  3  2  1  0
 22  2  1  0
 18  3  1  0
  5  4  1  0
 16  4  1  0
  4 11  2  0
  6  5  2  0
  5 12  1  0
 13  6  1  0
  7  6  1  0
 15  7  2  0
  7 17  1  0
 17  8  1  0
  8  9  1  0
  8 19  1  0
 23  9  1  0
 24 10  2  0
 10 23  1  0
 10 25  1  0
 13 14  1  0
 17 16  2  0
 16 18  1  0
 19 18  1  0
 20 19  1  0
 21 20  1  0
  1 26  1  0
  2 27  1  0
  3 28  1  0
  3 29  1  0
  8 30  1  0
  9 31  1  0
  9 32  1  0
 12 33  1  0
 12 34  1  0
 12 35  1  0
 14 36  1  0
 14 37  1  0
 14 38  1  0
 21 39  1  0
 21 40  1  0
 21 41  1  0
 22 42  1  0
 25 43  1  0
 25 44  1  0
A    1
C1
A    2
C2
A    3
C3
A    4
C5
A    5
C6
A    6
C7
A    7
C8
A    8
C9
A    9
C10
A   10
C11
A   11
O5
A   12
CM6
A   13
O7
A   14
C24
A   15
O8
A   16
C4A
A   17
C8A
A   18
N4
A   19
C9A
A   20
O24
A   21
C25
A   22
N2
A   23
O10
A   24
O11
A   25
N12
M  END
