3GYF_51P_A_187
     RDKit          3D

 38 40  0  0  0  0  0  0  0  0999 V2000
    3.5510   -3.3170    3.3360 C   0  0  0  0  0  0  0  0  0  0  0  0
    4.9140   -3.0250    3.4150 C   0  0  0  0  0  0  0  0  0  0  0  0
    5.8560   -3.9800    3.0560 C   0  0  0  0  0  0  0  0  0  0  0  0
    5.4110   -5.2170    2.6060 C   0  0  0  0  0  0  0  0  0  0  0  0
    4.0530   -5.5160    2.5380 C   0  0  0  0  0  0  0  0  0  0  0  0
    3.1160   -4.5690    2.8960 C   0  0  0  0  0  0  0  0  0  0  0  0
    1.6710   -4.2980    9.4270 N   0  0  0  0  0  0  0  0  0  0  0  0
    2.0240   -1.4100    2.5740 C   0  0  0  0  0  0  0  0  0  0  0  0
    2.6480   -2.3190    3.6920 C   0  0  0  0  0  0  0  0  0  0  0  0
    6.8070   -1.5600    3.6650 C   0  0  0  0  0  0  0  0  0  0  0  0
    5.2880   -1.7820    3.8790 O   0  0  0  0  0  0  0  0  0  0  0  0
    0.5460   -3.8000    9.8460 C   0  0  0  0  0  0  0  0  0  0  0  0
    0.1050   -4.2160   11.0030 N   0  0  0  0  0  0  0  0  0  0  0  0
   -0.1080   -2.8800    9.0620 N   0  0  0  0  0  0  0  0  0  0  0  0
    0.3260   -2.4620    7.8660 C   0  0  0  0  0  0  0  0  0  0  0  0
   -0.4560   -1.5340    7.2360 N   0  0  0  0  0  0  0  0  0  0  0  0
    1.5240   -3.0170    7.3940 C   0  0  0  0  0  0  0  0  0  0  0  0
    2.3470   -2.9410    6.2590 C   0  0  0  0  0  0  0  0  0  0  0  0
    3.3990   -3.7590    6.4300 C   0  0  0  0  0  0  0  0  0  0  0  0
    2.1660   -3.9470    8.2470 C   0  0  0  0  0  0  0  0  0  0  0  0
    3.2710   -4.4110    7.6450 O   0  0  0  0  0  0  0  0  0  0  0  0
    2.1010   -2.0300    5.0730 C   0  0  0  0  0  0  0  0  0  0  0  0
    6.9318   -3.7618    3.1264 H   0  0  0  0  0  0  0  0  0  0  0  0
    6.1461   -5.9749    2.2974 H   0  0  0  0  0  0  0  0  0  0  0  0
    3.7264   -6.5098    2.1980 H   0  0  0  0  0  0  0  0  0  0  0  0
    2.0415   -4.7968    2.8358 H   0  0  0  0  0  0  0  0  0  0  0  0
    1.4604   -0.5890    3.0412 H   0  0  0  0  0  0  0  0  0  0  0  0
    2.8277   -0.9938    1.9488 H   0  0  0  0  0  0  0  0  0  0  0  0
    1.3468   -2.0104    1.9488 H   0  0  0  0  0  0  0  0  0  0  0  0
    7.3080   -1.4868    4.6415 H   0  0  0  0  0  0  0  0  0  0  0  0
    7.2254   -2.4065    3.1008 H   0  0  0  0  0  0  0  0  0  0  0  0
    6.9656   -0.6291    3.1008 H   0  0  0  0  0  0  0  0  0  0  0  0
    0.5059   -3.8379   11.8732 H   0  0  0  0  0  0  0  0  0  0  0  0
   -0.6436   -4.9222   11.0452 H   0  0  0  0  0  0  0  0  0  0  0  0
   -1.0154   -0.8702    7.7904 H   0  0  0  0  0  0  0  0  0  0  0  0
   -0.4857   -1.4988    6.2070 H   0  0  0  0  0  0  0  0  0  0  0  0
    4.2284   -3.8898    5.7194 H   0  0  0  0  0  0  0  0  0  0  0  0
    1.4999   -1.1210    5.2223 H   0  0  0  0  0  0  0  0  0  0  0  0
  6  1  1  0
  1  2  2  0
  1  9  1  0
  3  2  1  0
  2 11  1  0
  4  3  2  0
  5  4  1  0
  5  6  2  0
 20  7  2  0
  7 12  1  0
  8  9  1  0
  9 22  2  0
 10 11  1  0
 14 12  2  0
 12 13  1  0
 15 14  1  0
 16 15  1  0
 17 15  2  0
 18 17  1  0
 17 20  1  0
 22 18  1  0
 18 19  2  0
 19 21  1  0
 21 20  1  0
  3 23  1  0
  4 24  1  0
  5 25  1  0
  6 26  1  0
  8 27  1  0
  8 28  1  0
  8 29  1  0
 10 30  1  0
 10 31  1  0
 10 32  1  0
 13 33  1  0
 13 34  1  0
 16 35  1  0
 16 36  1  0
 19 37  1  0
 22 38  1  0
A    1
C'1
A    2
C'2
A    3
C'3
A    4
C'4
A    5
C'5
A    6
C'6
A    7
N1'
A    8
C10
A    9
C11
A   10
C13
A   11
O13
A   12
C2'
A   13
N2'
A   14
N3'
A   15
C4'
A   16
N4'
A   17
C5'
A   18
C6'
A   19
C7'
A   20
C8'
A   21
O8'
A   22
C9'
M  END
