3GYN_B42_A_579
     RDKit          3D

 70 73  0  0  0  0  0  0  0  0999 V2000
   95.8800    7.0940   63.7860 O   0  0  0  0  0  0  0  0  0  0  0  0
   96.4120    8.3350   64.3280 S   0  0  0  0  0  0  0  0  0  0  0  0
   95.9970    8.7650   65.6400 O   0  0  0  0  0  0  0  0  0  0  0  0
   98.1850    8.2380   64.4260 C   0  0  0  0  0  0  0  0  0  0  0  0
   96.2480    9.6440   63.2180 N   0  0  0  0  0  0  0  0  0  0  0  0
   96.0730    9.4350   61.8080 C   0  0  0  0  0  0  0  0  0  0  0  0
   95.3600   10.3820   61.0690 C   0  0  0  0  0  0  0  0  0  0  0  0
   96.6090    8.3140   61.1530 C   0  0  0  0  0  0  0  0  0  0  0  0
   96.4260    8.1500   59.7730 C   0  0  0  0  0  0  0  0  0  0  0  0
   97.0830    6.7200   58.9770 S   0  0  0  0  0  0  0  0  0  0  0  0
   98.4090    6.4840   59.4990 O   0  0  0  0  0  0  0  0  0  0  0  0
   96.0370    5.7210   59.1000 O   0  0  0  0  0  0  0  0  0  0  0  0
   97.1570    7.2590   57.3750 N   0  0  0  0  0  0  0  0  0  0  0  0
   96.3400    8.3230   56.9020 C   0  0  0  0  0  0  0  0  0  0  0  0
   95.4890    8.9840   57.6300 N   0  0  0  0  0  0  0  0  0  0  0  0
   95.7040    9.0870   59.0170 C   0  0  0  0  0  0  0  0  0  0  0  0
   95.1820   10.2130   59.6880 C   0  0  0  0  0  0  0  0  0  0  0  0
   96.5490    8.6450   55.4730 C   0  0  0  0  0  0  0  0  0  0  0  0
   97.1590    7.6460   54.5120 C   0  0  0  0  0  0  0  0  0  0  0  0
   97.0210    6.4350   54.7100 O   0  0  0  0  0  0  0  0  0  0  0  0
   97.8450    8.1930   53.4260 N   0  0  0  0  0  0  0  0  0  0  0  0
   98.5510    7.3160   52.4870 C   0  0  0  0  0  0  0  0  0  0  0  0
   99.9500    7.7820   52.0590 C   0  0  0  0  0  0  0  0  0  0  0  0
  100.0940    7.3780   50.5910 C   0  0  0  0  0  0  0  0  0  0  0  0
   97.7500    7.0720   51.2080 C   0  0  0  0  0  0  0  0  0  0  0  0
   98.6740    7.3720   50.0330 C   0  0  0  0  0  0  0  0  0  0  0  0
   97.8630    9.6430   53.1890 C   0  0  0  0  0  0  0  0  0  0  0  0
   96.5530   10.3410   53.6060 C   0  0  0  0  0  0  0  0  0  0  0  0
   96.7950   11.8730   53.5220 C   0  0  0  0  0  0  0  0  0  0  0  0
   96.1980    9.8690   55.0180 C   0  0  0  0  0  0  0  0  0  0  0  0
   95.5090   10.7900   55.7900 O   0  0  0  0  0  0  0  0  0  0  0  0
   95.4340    9.9230   52.6220 C   0  0  0  0  0  0  0  0  0  0  0  0
   94.0570   10.4720   52.9820 C   0  0  0  0  0  0  0  0  0  0  0  0
   92.8980    9.7250   52.3000 C   0  0  0  0  0  0  0  0  0  0  0  0
   91.5600   10.1440   52.9050 C   0  0  0  0  0  0  0  0  0  0  0  0
   92.9020    9.9870   50.7860 C   0  0  0  0  0  0  0  0  0  0  0  0
   98.4935    8.2211   65.4817 H   0  0  0  0  0  0  0  0  0  0  0  0
   98.5300    7.3196   63.9284 H   0  0  0  0  0  0  0  0  0  0  0  0
   98.6282    9.1132   63.9284 H   0  0  0  0  0  0  0  0  0  0  0  0
   96.2765   10.6085   63.5783 H   0  0  0  0  0  0  0  0  0  0  0  0
   94.9365   11.2638   61.5721 H   0  0  0  0  0  0  0  0  0  0  0  0
   97.1739    7.5628   61.7245 H   0  0  0  0  0  0  0  0  0  0  0  0
   94.6666    9.4273   57.1963 H   0  0  0  0  0  0  0  0  0  0  0  0
   94.6256   10.9717   59.1181 H   0  0  0  0  0  0  0  0  0  0  0  0
   98.6682    6.3947   53.0765 H   0  0  0  0  0  0  0  0  0  0  0  0
  100.0396    8.8731   52.1664 H   0  0  0  0  0  0  0  0  0  0  0  0
  100.7353    7.3291   52.6820 H   0  0  0  0  0  0  0  0  0  0  0  0
  100.7171    8.1058   50.0506 H   0  0  0  0  0  0  0  0  0  0  0  0
  100.5814    6.3979   50.4817 H   0  0  0  0  0  0  0  0  0  0  0  0
   97.4157    6.0248   51.1667 H   0  0  0  0  0  0  0  0  0  0  0  0
   96.8581    7.7150   51.1773 H   0  0  0  0  0  0  0  0  0  0  0  0
   98.4316    8.3535   49.5996 H   0  0  0  0  0  0  0  0  0  0  0  0
   98.5621    6.6216   49.2365 H   0  0  0  0  0  0  0  0  0  0  0  0
   98.6917   10.0814   53.7645 H   0  0  0  0  0  0  0  0  0  0  0  0
   97.9861    9.7967   52.1068 H   0  0  0  0  0  0  0  0  0  0  0  0
   96.8609   12.2900   54.5377 H   0  0  0  0  0  0  0  0  0  0  0  0
   97.7349   12.0668   52.9844 H   0  0  0  0  0  0  0  0  0  0  0  0
   95.9606   12.3471   52.9844 H   0  0  0  0  0  0  0  0  0  0  0  0
   95.5490   10.7365   56.7777 H   0  0  0  0  0  0  0  0  0  0  0  0
   95.7008   10.2876   51.6191 H   0  0  0  0  0  0  0  0  0  0  0  0
   95.3622    8.8263   52.6676 H   0  0  0  0  0  0  0  0  0  0  0  0
   93.9264   10.3959   54.0716 H   0  0  0  0  0  0  0  0  0  0  0  0
   94.0223   11.5129   52.6279 H   0  0  0  0  0  0  0  0  0  0  0  0
   93.0372    8.6470   52.4689 H   0  0  0  0  0  0  0  0  0  0  0  0
   91.6308   10.1218   54.0025 H   0  0  0  0  0  0  0  0  0  0  0  0
   91.3111   11.1631   52.5742 H   0  0  0  0  0  0  0  0  0  0  0  0
   90.7743    9.4489   52.5742 H   0  0  0  0  0  0  0  0  0  0  0  0
   92.9186   11.0713   50.6016 H   0  0  0  0  0  0  0  0  0  0  0  0
   93.7932    9.5249   50.3363 H   0  0  0  0  0  0  0  0  0  0  0  0
   91.9971    9.5523   50.3363 H   0  0  0  0  0  0  0  0  0  0  0  0
  1  2  2  0
  5  2  1  0
  2  4  1  0
  2  3  2  0
  6  5  1  0
  7  6  2  0
  8  6  1  0
 17  7  1  0
  9  8  2  0
 10  9  1  0
 16  9  1  0
 13 10  1  0
 10 12  2  0
 10 11  2  0
 14 13  2  0
 18 14  1  0
 14 15  1  0
 15 16  1  0
 16 17  2  0
 19 18  1  0
 30 18  2  0
 21 19  1  0
 19 20  2  0
 22 21  1  0
 27 21  1  0
 25 22  1  0
 23 22  1  0
 24 23  1  0
 26 24  1  0
 26 25  1  0
 27 28  1  0
 32 28  1  0
 29 28  1  0
 28 30  1  0
 30 31  1  0
 32 33  1  0
 34 33  1  0
 36 34  1  0
 34 35  1  0
  4 37  1  0
  4 38  1  0
  4 39  1  0
  5 40  1  0
  7 41  1  0
  8 42  1  0
 15 43  1  0
 17 44  1  0
 22 45  1  0
 23 46  1  0
 23 47  1  0
 24 48  1  0
 24 49  1  0
 25 50  1  0
 25 51  1  0
 26 52  1  0
 26 53  1  0
 27 54  1  0
 27 55  1  0
 29 56  1  0
 29 57  1  0
 29 58  1  0
 31 59  1  0
 32 60  1  0
 32 61  1  0
 33 62  1  0
 33 63  1  0
 34 64  1  0
 35 65  1  0
 35 66  1  0
 35 67  1  0
 36 68  1  0
 36 69  1  0
 36 70  1  0
A    1
O33
A    2
S36
A    3
O32
A    4
C21
A    5
N28
A    6
C5
A    7
C2
A    8
C3
A    9
C6
A   10
S35
A   11
O30
A   12
O31
A   13
N26
A   14
C9
A   15
N25
A   16
C4
A   17
C1
A   18
C7
A   19
C10
A   20
O29
A   21
N27
A   22
C16
A   23
C14
A   24
C12
A   25
C13
A   26
C11
A   27
C15
A   28
C17
A   29
C18
A   30
C8
A   31
O34
A   32
C22
A   33
C23
A   34
C24
A   35
C20
A   36
C19
M  END
