3GZJ_EVS_A_1000
     RDKit          3D

 42 46  0  0  0  0  0  0  0  0999 V2000
  -29.1860   -2.6170   52.2110 C   0  0  0  0  0  0  0  0  0  0  0  0
  -27.9580   -2.0830   52.9620 C   0  0  0  0  0  0  0  0  0  0  0  0
  -26.7070   -2.4270   52.4190 C   0  0  0  0  0  0  0  0  0  0  0  0
  -25.4710   -1.9710   52.9900 C   0  0  0  0  0  0  0  0  0  0  0  0
  -24.3410   -2.1440   52.0140 N   0  0  0  0  0  0  0  0  0  0  0  0
  -24.7320   -1.4440   50.7530 C   0  0  0  0  0  0  0  0  0  0  0  0
  -23.5810   -1.4840   49.6670 C   0  0  0  0  0  0  0  0  0  0  0  0
  -22.9750   -2.7840   49.6120 C   0  0  0  0  0  0  0  0  0  0  0  0
  -22.1060   -3.2410   48.7210 C   0  0  0  0  0  0  0  0  0  0  0  0
  -21.5190   -2.6430   47.6620 C   0  0  0  0  0  0  0  0  0  0  0  0
  -20.6230   -3.3300   46.8250 C   0  0  0  0  0  0  0  0  0  0  0  0
  -20.3530   -4.6610   47.1490 C   0  0  0  0  0  0  0  0  0  0  0  0
  -21.0040   -5.2120   48.2580 C   0  0  0  0  0  0  0  0  0  0  0  0
  -21.8670   -4.5120   49.0150 C   0  0  0  0  0  0  0  0  0  0  0  0
  -22.5670   -4.8380   50.1090 N   0  0  0  0  0  0  0  0  0  0  0  0
  -23.2720   -3.7810   50.4880 C   0  0  0  0  0  0  0  0  0  0  0  0
  -24.1840   -3.5990   51.6120 C   0  0  0  0  0  0  0  0  0  0  0  0
  -25.5610   -4.2560   51.3400 C   0  0  0  0  0  0  0  0  0  0  0  0
  -26.6190   -3.1270   51.2230 C   0  0  0  0  0  0  0  0  0  0  0  0
  -26.1970   -1.9280   50.3540 C   0  0  0  0  0  0  0  0  0  0  0  0
  -26.7500   -1.9270   48.9240 C   0  0  0  0  0  0  0  0  0  0  0  0
  -28.1770   -2.2540   48.9790 O   0  0  0  0  0  0  0  0  0  0  0  0
  -29.9445   -2.9468   52.9362 H   0  0  0  0  0  0  0  0  0  0  0  0
  -29.6048   -1.8197   51.5794 H   0  0  0  0  0  0  0  0  0  0  0  0
  -28.8885   -3.4670   51.5794 H   0  0  0  0  0  0  0  0  0  0  0  0
  -28.0509   -1.4686   53.8697 H   0  0  0  0  0  0  0  0  0  0  0  0
  -25.5641   -0.9062   53.2500 H   0  0  0  0  0  0  0  0  0  0  0  0
  -25.2559   -2.5655   53.8902 H   0  0  0  0  0  0  0  0  0  0  0  0
  -24.8269   -0.3554   50.8794 H   0  0  0  0  0  0  0  0  0  0  0  0
  -24.0066   -1.2429   48.6818 H   0  0  0  0  0  0  0  0  0  0  0  0
  -22.8112   -0.7483   49.9429 H   0  0  0  0  0  0  0  0  0  0  0  0
  -21.7486   -1.5886   47.4485 H   0  0  0  0  0  0  0  0  0  0  0  0
  -20.1567   -2.8424   45.9562 H   0  0  0  0  0  0  0  0  0  0  0  0
  -19.6496   -5.2584   46.5503 H   0  0  0  0  0  0  0  0  0  0  0  0
  -20.8016   -6.2606   48.5214 H   0  0  0  0  0  0  0  0  0  0  0  0
  -22.5591   -5.7554   50.5772 H   0  0  0  0  0  0  0  0  0  0  0  0
  -23.7231   -4.1141   52.4677 H   0  0  0  0  0  0  0  0  0  0  0  0
  -25.5219   -4.8291   50.4019 H   0  0  0  0  0  0  0  0  0  0  0  0
  -25.8244   -4.9418   52.1587 H   0  0  0  0  0  0  0  0  0  0  0  0
  -27.4994   -3.6747   50.8557 H   0  0  0  0  0  0  0  0  0  0  0  0
  -26.7504   -1.0054   50.5834 H   0  0  0  0  0  0  0  0  0  0  0  0
  -26.1731   -1.7164   48.0114 H   0  0  0  0  0  0  0  0  0  0  0  0
  1  2  1  0
  2  3  2  0
  3  4  1  0
  3 19  1  0
  4  5  1  0
  5  6  1  0
  5 17  1  0
  6  7  1  0
  6 20  1  0
  7  8  1  0
  8  9  1  0
  8 16  2  0
  9 10  1  0
  9 14  2  0
 10 11  2  0
 11 12  1  0
 12 13  2  0
 13 14  1  0
 14 15  1  0
 15 16  1  0
 16 17  1  0
 17 18  1  0
 18 19  1  0
 19 20  1  0
 20 21  1  0
 21 22  2  0
  1 23  1  0
  1 24  1  0
  1 25  1  0
  2 26  1  0
  4 27  1  0
  4 28  1  0
  6 29  1  0
  7 30  1  0
  7 31  1  0
 10 32  1  0
 11 33  1  0
 12 34  1  0
 13 35  1  0
 15 36  1  0
 17 37  1  0
 18 38  1  0
 18 39  1  0
 19 40  1  0
 20 41  1  0
 21 42  1  0
A    1
CAA
A    2
CAE
A    3
CAP
A    4
CAK
A    5
NAY
A    6
CAX
A    7
CAL
A    8
CAR
A    9
CAU
A   10
CAJ
A   11
CAH
A   12
CAG
A   13
CAI
A   14
CAT
A   15
NAN
A   16
CAS
A   17
CAW
A   18
CAM
A   19
CAV
A   20
CAZ
A   21
CAF
A   22
OAC
M  END
