3H03_UBP_A_801
     RDKit          3D

 32 32  0  0  0  0  0  0  0  0999 V2000
   21.5620   -2.3380   22.0240 N   0  0  0  0  0  0  0  0  0  0  0  0
   22.6370   -2.6700   21.1380 C   0  0  0  0  0  0  0  0  0  0  0  0
   22.3590   -2.9250   19.9310 O   0  0  0  0  0  0  0  0  0  0  0  0
   23.9910   -2.7000   21.5770 N   0  0  0  0  0  0  0  0  0  0  0  0
   24.1850   -2.3680   22.9670 C   0  0  0  0  0  0  0  0  0  0  0  0
   25.3360   -2.3590   23.4520 O   0  0  0  0  0  0  0  0  0  0  0  0
   23.1650   -2.0480   23.8300 C   0  0  0  0  0  0  0  0  0  0  0  0
   21.8870   -2.0400   23.3490 C   0  0  0  0  0  0  0  0  0  0  0  0
   20.1610   -2.3070   21.5610 C   0  0  0  0  0  0  0  0  0  0  0  0
   19.8870   -1.0010   20.7820 C   0  0  0  0  0  0  0  0  0  0  0  0
   20.2540    0.1680   21.7070 N   0  0  0  0  0  0  0  0  0  0  0  0
   18.4130   -0.9800   20.3680 C   0  0  0  0  0  0  0  0  0  0  0  0
   17.7820   -0.0460   20.8530 O   0  0  0  0  0  0  0  0  0  0  0  0
   17.9540   -1.8060   19.6420 O   0  0  0  0  0  0  0  0  0  0  0  0
   24.9720   -3.0750   20.5000 C   0  0  0  0  0  0  0  0  0  0  0  0
   26.4730   -3.1840   20.7200 C   0  0  0  0  0  0  0  0  0  0  0  0
   27.1730   -3.5670   19.4550 C   0  0  0  0  0  0  0  0  0  0  0  0
   27.1930   -2.7680   18.5390 O   0  0  0  0  0  0  0  0  0  0  0  0
   27.6720   -4.6720   19.3940 O   0  0  0  0  0  0  0  0  0  0  0  0
   23.3727   -1.8043   24.8824 H   0  0  0  0  0  0  0  0  0  0  0  0
   21.0710   -1.7855   24.0414 H   0  0  0  0  0  0  0  0  0  0  0  0
   19.9764   -3.1687   20.9026 H   0  0  0  0  0  0  0  0  0  0  0  0
   19.4928   -2.3522   22.4336 H   0  0  0  0  0  0  0  0  0  0  0  0
   20.4871   -0.9241   19.8633 H   0  0  0  0  0  0  0  0  0  0  0  0
   20.1608   -0.1288   22.6889 H   0  0  0  0  0  0  0  0  0  0  0  0
   21.2261    0.4567   21.5264 H   0  0  0  0  0  0  0  0  0  0  0  0
   17.5096   -2.6057   20.0203 H   0  0  0  0  0  0  0  0  0  0  0  0
   24.6514   -4.0617   20.1344 H   0  0  0  0  0  0  0  0  0  0  0  0
   24.9187   -2.1894   19.8497 H   0  0  0  0  0  0  0  0  0  0  0  0
   26.8577   -2.2127   21.0642 H   0  0  0  0  0  0  0  0  0  0  0  0
   26.6613   -3.9620   21.4745 H   0  0  0  0  0  0  0  0  0  0  0  0
   27.2173   -1.7968   18.7297 H   0  0  0  0  0  0  0  0  0  0  0  0
  8  1  1  0
  1  9  1  0
  1  2  1  0
  4  2  1  0
  2  3  2  0
  5  4  1  0
  4 15  1  0
  7  5  1  0
  6  5  2  0
  7  8  2  0
  9 10  1  0
 11 10  1  0
 10 12  1  0
 13 12  2  0
 12 14  1  0
 16 15  1  0
 16 17  1  0
 17 19  2  0
 17 18  1  0
  7 20  1  0
  8 21  1  0
  9 22  1  0
  9 23  1  0
 10 24  1  0
 11 25  1  0
 11 26  1  0
 14 27  1  0
 15 28  1  0
 15 29  1  0
 16 30  1  0
 16 31  1  0
 18 32  1  0
A    1
N1
A    2
C2
A    3
O2
A    4
N3
A    5
C4
A    6
O4
A    7
C5
A    8
C6
A    9
C7
A   10
C8
A   11
N8
A   12
C9
A   13
O91
A   14
O92
A   15
C1
A   16
C3
A   17
C10
A   18
O3
A   19
O1
M  END
