3H0C_PS4_A_1
     RDKit          3D

 60 62  0  0  0  0  0  0  0  0999 V2000
   53.4390   43.5160   33.1430 C   0  0  0  0  0  0  0  0  0  0  0  0
   48.5070   50.0240   38.4760 C   0  0  0  0  0  0  0  0  0  0  0  0
   48.9250   51.0670   37.6650 C   0  0  0  0  0  0  0  0  0  0  0  0
   49.6300   51.0470   40.3430 C   0  0  0  0  0  0  0  0  0  0  0  0
   50.0530   52.0940   39.5350 C   0  0  0  0  0  0  0  0  0  0  0  0
   46.9400   51.8690   34.4960 C   0  0  0  0  0  0  0  0  0  0  0  0
   46.7630   50.6970   33.5430 C   0  0  0  0  0  0  0  0  0  0  0  0
   46.0330   49.8410   31.2650 C   0  0  0  0  0  0  0  0  0  0  0  0
   47.2980   49.6070   30.4130 C   0  0  0  0  0  0  0  0  0  0  0  0
   45.1330   51.9180   30.4090 C   0  0  0  0  0  0  0  0  0  0  0  0
   44.9000   50.4060   30.4030 C   0  0  0  0  0  0  0  0  0  0  0  0
   51.9740   47.9630   33.4400 C   0  0  0  0  0  0  0  0  0  0  0  0
   50.9320   46.3310   31.4480 C   0  0  0  0  0  0  0  0  0  0  0  0
   52.0850   45.9380   32.1180 C   0  0  0  0  0  0  0  0  0  0  0  0
   48.5730   47.1050   30.2780 O   0  0  0  0  0  0  0  0  0  0  0  0
   49.0640   47.9140   31.0370 C   0  0  0  0  0  0  0  0  0  0  0  0
   50.2840   47.5210   31.7790 C   0  0  0  0  0  0  0  0  0  0  0  0
   52.6050   46.7630   33.1140 C   0  0  0  0  0  0  0  0  0  0  0  0
   50.8150   48.3430   32.7690 C   0  0  0  0  0  0  0  0  0  0  0  0
   52.8780   44.4300   31.7010 S   0  0  0  0  0  0  0  0  0  0  0  0
   54.0780   44.7320   30.9530 O   0  0  0  0  0  0  0  0  0  0  0  0
   51.9910   43.5940   30.9360 O   0  0  0  0  0  0  0  0  0  0  0  0
   48.4930   49.1820   31.1750 N   0  0  0  0  0  0  0  0  0  0  0  0
   45.8290   52.2190   31.7440 C   0  0  0  0  0  0  0  0  0  0  0  0
   46.2550   50.9050   32.2720 N   0  0  0  0  0  0  0  0  0  0  0  0
   47.0750   49.5720   33.8780 O   0  0  0  0  0  0  0  0  0  0  0  0
   47.0560   51.4440   35.9610 C   0  0  0  0  0  0  0  0  0  0  0  0
   46.6530   52.5630   36.8240 N   0  0  0  0  0  0  0  0  0  0  0  0
   48.5280   51.0720   36.2040 C   0  0  0  0  0  0  0  0  0  0  0  0
   49.6990   52.0960   38.1910 C   0  0  0  0  0  0  0  0  0  0  0  0
   48.8610   50.0180   39.8140 C   0  0  0  0  0  0  0  0  0  0  0  0
   48.3430   48.7400   40.8350 Cl  0  0  0  0  0  0  0  0  0  0  0  0
   53.1181   44.0388   34.0561 H   0  0  0  0  0  0  0  0  0  0  0  0
   53.0057   42.5051   33.1278 H   0  0  0  0  0  0  0  0  0  0  0  0
   54.5366   43.4447   33.1278 H   0  0  0  0  0  0  0  0  0  0  0  0
   47.8988   49.2074   38.0597 H   0  0  0  0  0  0  0  0  0  0  0  0
   49.9053   51.0322   41.4079 H   0  0  0  0  0  0  0  0  0  0  0  0
   50.6600   52.9107   39.9529 H   0  0  0  0  0  0  0  0  0  0  0  0
   47.8550   52.4117   34.2162 H   0  0  0  0  0  0  0  0  0  0  0  0
   46.0423   52.4987   34.4090 H   0  0  0  0  0  0  0  0  0  0  0  0
   45.7937   48.8676   31.7180 H   0  0  0  0  0  0  0  0  0  0  0  0
   47.0708   48.8273   29.6711 H   0  0  0  0  0  0  0  0  0  0  0  0
   47.5495   50.5780   29.9614 H   0  0  0  0  0  0  0  0  0  0  0  0
   45.7752   52.2116   29.5656 H   0  0  0  0  0  0  0  0  0  0  0  0
   44.1915   52.4770   30.3038 H   0  0  0  0  0  0  0  0  0  0  0  0
   44.9548   50.0080   29.3790 H   0  0  0  0  0  0  0  0  0  0  0  0
   43.9059   50.1340   30.7874 H   0  0  0  0  0  0  0  0  0  0  0  0
   52.3916   48.6087   34.2266 H   0  0  0  0  0  0  0  0  0  0  0  0
   50.5258   45.6958   30.6471 H   0  0  0  0  0  0  0  0  0  0  0  0
   53.5201   46.4652   33.6469 H   0  0  0  0  0  0  0  0  0  0  0  0
   50.3192   49.2921   33.0209 H   0  0  0  0  0  0  0  0  0  0  0  0
   48.9214   49.8477   31.8339 H   0  0  0  0  0  0  0  0  0  0  0  0
   46.7009   52.8704   31.5848 H   0  0  0  0  0  0  0  0  0  0  0  0
   45.1612   52.7431   32.4435 H   0  0  0  0  0  0  0  0  0  0  0  0
   46.4040   50.5879   36.1890 H   0  0  0  0  0  0  0  0  0  0  0  0
   46.7521   52.2879   37.8116 H   0  0  0  0  0  0  0  0  0  0  0  0
   47.2535   53.3777   36.6326 H   0  0  0  0  0  0  0  0  0  0  0  0
   49.1612   51.7997   35.6753 H   0  0  0  0  0  0  0  0  0  0  0  0
   48.6642   50.0458   35.8320 H   0  0  0  0  0  0  0  0  0  0  0  0
   50.0331   52.9166   37.5391 H   0  0  0  0  0  0  0  0  0  0  0  0
  1 20  1  0
  2  3  2  0
  2 31  1  0
  3 29  1  0
  3 30  1  0
  4  5  1  0
  4 31  2  0
  5 30  2  0
  6  7  1  0
  6 27  1  0
  7 25  1  0
  7 26  2  0
  8  9  1  0
  8 11  1  0
  8 25  1  0
  9 23  1  0
 10 11  1  0
 10 24  1  0
 12 18  2  0
 12 19  1  0
 13 14  2  0
 13 17  1  0
 14 18  1  0
 14 20  1  0
 15 16  2  0
 16 17  1  0
 16 23  1  0
 17 19  2  0
 20 21  2  0
 20 22  2  0
 24 25  1  0
 27 28  1  0
 27 29  1  0
 31 32  1  0
  1 33  1  0
  1 34  1  0
  1 35  1  0
  2 36  1  0
  4 37  1  0
  5 38  1  0
  6 39  1  0
  6 40  1  0
  8 41  1  0
  9 42  1  0
  9 43  1  0
 10 44  1  0
 10 45  1  0
 11 46  1  0
 11 47  1  0
 12 48  1  0
 13 49  1  0
 18 50  1  0
 19 51  1  0
 23 52  1  0
 24 53  1  0
 24 54  1  0
 27 55  1  0
 28 56  1  0
 28 57  1  0
 29 58  1  0
 29 59  1  0
 30 60  1  0
A    1
C1
A    2
C7
A    3
C8
A    4
C11
A    5
C12
A    6
C15
A    7
C16
A    8
C18
A    9
C19
A   10
C23
A   11
C24
A   12
C27
A   13
C30
A   14
C31
A   15
O32
A   16
C25
A   17
C28
A   18
C29
A   19
C26
A   20
S4
A   21
O2
A   22
O3
A   23
N20
A   24
C22
A   25
N17
A   26
O5
A   27
C14
A   28
N21
A   29
C13
A   30
C10
A   31
C9
A   32
CL6
M  END
