1D1J_PG5_D_902
     RDKit          3D

 30 29  0  0  0  0  0  0  0  0999 V2000
   41.1290    4.6540   87.0300 C   0  0  0  0  0  0  0  0  0  0  0  0
   40.5740    5.1650   85.7980 O   0  0  0  0  0  0  0  0  0  0  0  0
   40.9700    6.5440   85.6210 C   0  0  0  0  0  0  0  0  0  0  0  0
   40.0430    7.2760   84.6040 C   0  0  0  0  0  0  0  0  0  0  0  0
   39.7240    8.5990   85.0900 O   0  0  0  0  0  0  0  0  0  0  0  0
   39.9020    9.5980   84.0620 C   0  0  0  0  0  0  0  0  0  0  0  0
   40.4970   10.9100   84.6660 C   0  0  0  0  0  0  0  0  0  0  0  0
   39.5310   11.9850   84.5980 O   0  0  0  0  0  0  0  0  0  0  0  0
   40.0970   13.2260   85.0730 C   0  0  0  0  0  0  0  0  0  0  0  0
   38.9630   14.2020   85.5160 C   0  0  0  0  0  0  0  0  0  0  0  0
   39.5140   15.4170   86.0810 O   0  0  0  0  0  0  0  0  0  0  0  0
   38.7200   15.8470   87.2110 C   0  0  0  0  0  0  0  0  0  0  0  0
   40.6192    5.1234   87.8843 H   0  0  0  0  0  0  0  0  0  0  0  0
   40.9868    3.5640   87.0719 H   0  0  0  0  0  0  0  0  0  0  0  0
   42.2035    4.8855   87.0719 H   0  0  0  0  0  0  0  0  0  0  0  0
   40.9146    7.0596   86.5911 H   0  0  0  0  0  0  0  0  0  0  0  0
   41.9972    6.5614   85.2278 H   0  0  0  0  0  0  0  0  0  0  0  0
   40.5578    7.3580   83.6354 H   0  0  0  0  0  0  0  0  0  0  0  0
   39.1128    6.7011   84.4844 H   0  0  0  0  0  0  0  0  0  0  0  0
   40.5886    9.2093   83.2955 H   0  0  0  0  0  0  0  0  0  0  0  0
   38.9226    9.8258   83.6161 H   0  0  0  0  0  0  0  0  0  0  0  0
   40.7683   10.7335   85.7173 H   0  0  0  0  0  0  0  0  0  0  0  0
   41.3872   11.1956   84.0864 H   0  0  0  0  0  0  0  0  0  0  0  0
   40.7548   13.0205   85.9304 H   0  0  0  0  0  0  0  0  0  0  0  0
   40.6734   13.6916   84.2599 H   0  0  0  0  0  0  0  0  0  0  0  0
   38.3477   14.4591   84.6412 H   0  0  0  0  0  0  0  0  0  0  0  0
   38.3527   13.7041   86.2839 H   0  0  0  0  0  0  0  0  0  0  0  0
   39.2312   15.5702   88.1449 H   0  0  0  0  0  0  0  0  0  0  0  0
   38.5902   16.9387   87.1737 H   0  0  0  0  0  0  0  0  0  0  0  0
   37.7348   15.3591   87.1737 H   0  0  0  0  0  0  0  0  0  0  0  0
  1  2  1  0
  2  3  1  0
  3  4  1  0
  4  5  1  0
  5  6  1  0
  6  7  1  0
  7  8  1  0
  8  9  1  0
  9 10  1  0
 10 11  1  0
 11 12  1  0
  1 13  1  0
  1 14  1  0
  1 15  1  0
  3 16  1  0
  3 17  1  0
  4 18  1  0
  4 19  1  0
  6 20  1  0
  6 21  1  0
  7 22  1  0
  7 23  1  0
  9 24  1  0
  9 25  1  0
 10 26  1  0
 10 27  1  0
 12 28  1  0
 12 29  1  0
 12 30  1  0
A    1
C1
A    2
O1
A    3
C2
A    4
C3
A    5
O2
A    6
C4
A    7
C5
A    8
O3
A    9
C6
A   10
C7
A   11
O4
A   12
C8
M  END
