3H0S_B38_A_101
     RDKit          3D

 49 53  0  0  0  0  0  0  0  0999 V2000
    5.9620   28.5060   20.9620 C   0  0  0  0  0  0  0  0  0  0  0  0
    4.5020   30.6440   18.0100 C   0  0  0  0  0  0  0  0  0  0  0  0
    6.9980   31.0010   18.5030 C   0  0  0  0  0  0  0  0  0  0  0  0
    6.1290   31.0880   22.3840 C   0  0  0  0  0  0  0  0  0  0  0  0
    5.7590   32.3850   16.9030 C   0  0  0  0  0  0  0  0  0  0  0  0
    6.8940   28.7000   22.1880 C   0  0  0  0  0  0  0  0  0  0  0  0
    6.9520   34.2860   15.6850 C   0  0  0  0  0  0  0  0  0  0  0  0
    5.7920   29.7940   20.1100 C   0  0  0  0  0  0  0  0  0  0  0  0
    7.0360   30.0080   19.3730 O   0  0  0  0  0  0  0  0  0  0  0  0
    4.6830   29.5370   19.0550 C   0  0  0  0  0  0  0  0  0  0  0  0
    5.3240   30.9470   21.0670 C   0  0  0  0  0  0  0  0  0  0  0  0
    5.7770   31.3800   17.7450 C   0  0  0  0  0  0  0  0  0  0  0  0
    8.0960   31.6790   18.3080 C   0  0  0  0  0  0  0  0  0  0  0  0
    3.3900   31.1840   17.7910 O   0  0  0  0  0  0  0  0  0  0  0  0
    8.0950   32.8120   17.3250 C   0  0  0  0  0  0  0  0  0  0  0  0
    6.9930   33.1390   16.6620 C   0  0  0  0  0  0  0  0  0  0  0  0
    6.3460   29.7750   23.0600 N   0  0  0  0  0  0  0  0  0  0  0  0
    5.3600   30.5870   25.2420 C   0  0  0  0  0  0  0  0  0  0  0  0
    5.2910   32.7490   26.3790 C   0  0  0  0  0  0  0  0  0  0  0  0
    3.3630   31.2570   26.4710 C   0  0  0  0  0  0  0  0  0  0  0  0
    4.0420   30.3320   25.6840 C   0  0  0  0  0  0  0  0  0  0  0  0
    6.0470   29.5450   24.3940 C   0  0  0  0  0  0  0  0  0  0  0  0
    3.9830   32.4680   26.8070 C   0  0  0  0  0  0  0  0  0  0  0  0
    6.0000   31.8040   25.6020 C   0  0  0  0  0  0  0  0  0  0  0  0
    7.2350   32.3440   25.3530 N   0  0  0  0  0  0  0  0  0  0  0  0
    7.3220   33.5500   25.9270 N   0  0  0  0  0  0  0  0  0  0  0  0
    6.1570   33.8350   26.5700 C   0  0  0  0  0  0  0  0  0  0  0  0
    6.3100   28.4740   24.9370 O   0  0  0  0  0  0  0  0  0  0  0  0
    4.9712   28.1925   21.3226 H   0  0  0  0  0  0  0  0  0  0  0  0
    6.4269   27.7468   20.3159 H   0  0  0  0  0  0  0  0  0  0  0  0
    7.1082   31.5332   22.1539 H   0  0  0  0  0  0  0  0  0  0  0  0
    5.5476   31.7253   23.0665 H   0  0  0  0  0  0  0  0  0  0  0  0
    4.8289   32.6592   16.3836 H   0  0  0  0  0  0  0  0  0  0  0  0
    6.9528   27.7603   22.7567 H   0  0  0  0  0  0  0  0  0  0  0  0
    7.8999   28.9827   21.8440 H   0  0  0  0  0  0  0  0  0  0  0  0
    6.9180   35.2368   16.2370 H   0  0  0  0  0  0  0  0  0  0  0  0
    7.8516   34.2612   15.0525 H   0  0  0  0  0  0  0  0  0  0  0  0
    6.0565   34.1970   15.0525 H   0  0  0  0  0  0  0  0  0  0  0  0
    3.7288   29.4142   19.5883 H   0  0  0  0  0  0  0  0  0  0  0  0
    4.9957   28.6416   18.4978 H   0  0  0  0  0  0  0  0  0  0  0  0
    4.2721   30.7628   21.3307 H   0  0  0  0  0  0  0  0  0  0  0  0
    5.4843   31.8836   20.5129 H   0  0  0  0  0  0  0  0  0  0  0  0
    9.0128   31.4222   18.8589 H   0  0  0  0  0  0  0  0  0  0  0  0
    9.0209   33.3799   17.1513 H   0  0  0  0  0  0  0  0  0  0  0  0
    2.3454   31.0390   26.8274 H   0  0  0  0  0  0  0  0  0  0  0  0
    3.5470   29.3909   25.4024 H   0  0  0  0  0  0  0  0  0  0  0  0
    3.4389   33.2073   27.4131 H   0  0  0  0  0  0  0  0  0  0  0  0
    7.9820   31.8909   24.8075 H   0  0  0  0  0  0  0  0  0  0  0  0
    5.9350   34.7512   27.1368 H   0  0  0  0  0  0  0  0  0  0  0  0
  8  1  1  0
  1  6  1  0
 14  2  2  0
 12  2  1  0
  2 10  1  0
 12  3  2  0
 13  3  1  0
  3  9  1  0
 11  4  1  0
  4 17  1  0
 16  5  2  0
  5 12  1  0
  6 17  1  0
  7 16  1  0
 10  8  1  0
  9  8  1  0
  8 11  1  0
 15 13  2  0
 16 15  1  0
 17 22  1  0
 22 18  1  0
 18 21  1  0
 18 24  2  0
 24 19  1  0
 19 27  1  0
 19 23  2  0
 21 20  2  0
 20 23  1  0
 22 28  2  0
 25 24  1  0
 25 26  1  0
 26 27  2  0
  1 29  1  0
  1 30  1  0
  4 31  1  0
  4 32  1  0
  5 33  1  0
  6 34  1  0
  6 35  1  0
  7 36  1  0
  7 37  1  0
  7 38  1  0
 10 39  1  0
 10 40  1  0
 11 41  1  0
 11 42  1  0
 13 43  1  0
 15 44  1  0
 20 45  1  0
 21 46  1  0
 23 47  1  0
 25 48  1  0
 27 49  1  0
A    1
C4
A    2
C7
A    3
C6
A    4
C9
A    5
C13
A    6
C8
A    7
C16
A    8
C1
A    9
O2
A   10
C3
A   11
C5
A   12
C10
A   13
C11
A   14
O12
A   15
C14
A   16
C15
A   17
N27
A   18
C20
A   19
C21
A   20
C18
A   21
C19
A   22
C26
A   23
C17
A   24
C22
A   25
N23
A   26
N24
A   27
C25
A   28
O28
M  END
