3H0Y_48B_A_1
     RDKit          3D

 49 52  0  0  0  0  0  0  0  0999 V2000
   53.7580    9.7250   18.9840 F   0  0  0  0  0  0  0  0  0  0  0  0
   53.2190   10.6790   19.7130 C   0  0  0  0  0  0  0  0  0  0  0  0
   52.8400   11.7960   19.0780 C   0  0  0  0  0  0  0  0  0  0  0  0
   52.2360   12.7780   19.7200 N   0  0  0  0  0  0  0  0  0  0  0  0
   52.1790   12.7560   21.1590 C   0  0  0  0  0  0  0  0  0  0  0  0
   51.4410   13.8690   21.7930 N   0  0  0  0  0  0  0  0  0  0  0  0
   51.3410   14.0730   23.1270 C   0  0  0  0  0  0  0  0  0  0  0  0
   51.4780   13.0830   24.1010 C   0  0  0  0  0  0  0  0  0  0  0  0
   51.4390   13.3840   25.4600 C   0  0  0  0  0  0  0  0  0  0  0  0
   51.2670   14.6960   25.8710 C   0  0  0  0  0  0  0  0  0  0  0  0
   51.2320   14.9880   27.1680 O   0  0  0  0  0  0  0  0  0  0  0  0
   51.1430   15.6970   24.9120 C   0  0  0  0  0  0  0  0  0  0  0  0
   51.1900   15.3910   23.5520 C   0  0  0  0  0  0  0  0  0  0  0  0
   52.4300   11.4610   21.7190 N   0  0  0  0  0  0  0  0  0  0  0  0
   53.0560   10.5150   21.0290 C   0  0  0  0  0  0  0  0  0  0  0  0
   53.4660    9.3530   21.5740 N   0  0  0  0  0  0  0  0  0  0  0  0
   53.2100    9.0640   22.8730 C   0  0  0  0  0  0  0  0  0  0  0  0
   52.4820    7.9360   23.2500 C   0  0  0  0  0  0  0  0  0  0  0  0
   53.4560   10.0460   23.8330 C   0  0  0  0  0  0  0  0  0  0  0  0
   53.0280    9.8990   25.1390 C   0  0  0  0  0  0  0  0  0  0  0  0
   52.3420    8.7650   25.5460 C   0  0  0  0  0  0  0  0  0  0  0  0
   52.0720    7.7740   24.5820 C   0  0  0  0  0  0  0  0  0  0  0  0
   52.0550    8.7090   26.8800 N   0  0  0  0  0  0  0  0  0  0  0  0
   51.6250    7.6060   27.4920 C   0  0  0  0  0  0  0  0  0  0  0  0
   51.5030    6.5510   26.8880 O   0  0  0  0  0  0  0  0  0  0  0  0
   51.2130    7.6040   28.9440 C   0  0  0  0  0  0  0  0  0  0  0  0
   50.7530    8.7460   29.6290 C   0  0  0  0  0  0  0  0  0  0  0  0
   50.6290   10.4040   28.8900 Cl  0  0  0  0  0  0  0  0  0  0  0  0
   50.3790    8.6210   30.9730 C   0  0  0  0  0  0  0  0  0  0  0  0
   51.2670    6.3710   29.6070 C   0  0  0  0  0  0  0  0  0  0  0  0
   50.8910    6.2630   30.9400 C   0  0  0  0  0  0  0  0  0  0  0  0
   50.4480    7.3920   31.6230 C   0  0  0  0  0  0  0  0  0  0  0  0
   53.0361   11.8966   18.0003 H   0  0  0  0  0  0  0  0  0  0  0  0
   50.9668   14.5403   21.1721 H   0  0  0  0  0  0  0  0  0  0  0  0
   51.6204   12.0384   23.7872 H   0  0  0  0  0  0  0  0  0  0  0  0
   51.5445   12.5821   26.2055 H   0  0  0  0  0  0  0  0  0  0  0  0
   51.3185   14.2665   27.8403 H   0  0  0  0  0  0  0  0  0  0  0  0
   51.0064   16.7411   25.2302 H   0  0  0  0  0  0  0  0  0  0  0  0
   51.1071   16.1975   22.8085 H   0  0  0  0  0  0  0  0  0  0  0  0
   53.9814    8.6747   20.9951 H   0  0  0  0  0  0  0  0  0  0  0  0
   52.2285    7.1712   22.5011 H   0  0  0  0  0  0  0  0  0  0  0  0
   54.0020   10.9563   23.5445 H   0  0  0  0  0  0  0  0  0  0  0  0
   53.2353   10.6959   25.8684 H   0  0  0  0  0  0  0  0  0  0  0  0
   51.5330    6.8617   24.8772 H   0  0  0  0  0  0  0  0  0  0  0  0
   52.1772    9.5634   27.4421 H   0  0  0  0  0  0  0  0  0  0  0  0
   50.0259    9.5062   31.5224 H   0  0  0  0  0  0  0  0  0  0  0  0
   51.6113    5.4776   29.0655 H   0  0  0  0  0  0  0  0  0  0  0  0
   50.9431    5.2911   31.4526 H   0  0  0  0  0  0  0  0  0  0  0  0
   50.1516    7.3128   32.6794 H   0  0  0  0  0  0  0  0  0  0  0  0
  1  2  1  0
  2  3  2  0
  2 15  1  0
  3  4  1  0
  4  5  2  0
  5  6  1  0
  5 14  1  0
  6  7  1  0
  7  8  2  0
  7 13  1  0
  8  9  1  0
  9 10  2  0
 10 11  1  0
 10 12  1  0
 12 13  2  0
 14 15  2  0
 15 16  1  0
 16 17  1  0
 17 18  2  0
 17 19  1  0
 18 22  1  0
 19 20  2  0
 20 21  1  0
 21 22  2  0
 21 23  1  0
 23 24  1  0
 24 25  2  0
 24 26  1  0
 26 27  2  0
 26 30  1  0
 27 28  1  0
 27 29  1  0
 29 32  2  0
 30 31  2  0
 31 32  1  0
  3 33  1  0
  6 34  1  0
  8 35  1  0
  9 36  1  0
 11 37  1  0
 12 38  1  0
 13 39  1  0
 16 40  1  0
 18 41  1  0
 19 42  1  0
 20 43  1  0
 22 44  1  0
 23 45  1  0
 29 46  1  0
 30 47  1  0
 31 48  1  0
 32 49  1  0
A    1
F23
A    2
C17
A    3
C18
A    4
N19
A    5
C20
A    6
N24
A    7
C30
A    8
C29
A    9
C28
A   10
C27
A   11
O31
A   12
C26
A   13
C25
A   14
N21
A   15
C22
A   16
N16
A   17
C11
A   18
C10
A   19
C12
A   20
C13
A   21
C14
A   22
C15
A   23
N9
A   24
C7
A   25
O8
A   26
C4
A   27
C5
A   28
CL1
A   29
C6
A   30
C3
A   31
C2
A   32
C1
M  END
