3H10_97B_A_1
     RDKit          3D

 65 70  0  0  0  0  0  0  0  0999 V2000
   -0.4360  -14.0910  -31.4000 O   0  0  0  0  0  0  0  0  0  0  0  0
    0.2200  -15.0380  -30.9640 C   0  0  0  0  0  0  0  0  0  0  0  0
   -0.3430  -16.2570  -30.9220 N   0  0  0  0  0  0  0  0  0  0  0  0
   -1.7410  -16.4300  -30.5020 C   0  0  0  0  0  0  0  0  0  0  0  0
   -1.7600  -17.4930  -29.3920 C   0  0  0  0  0  0  0  0  0  0  0  0
   -1.1570  -18.7520  -29.8870 N   0  0  0  0  0  0  0  0  0  0  0  0
   -1.2210  -19.8230  -28.8730 C   0  0  0  0  0  0  0  0  0  0  0  0
    0.2450  -18.4910  -30.2890 C   0  0  0  0  0  0  0  0  0  0  0  0
    0.3360  -17.4590  -31.4150 C   0  0  0  0  0  0  0  0  0  0  0  0
    1.6490  -14.8590  -30.4650 C   0  0  0  0  0  0  0  0  0  0  0  0
    2.6360  -14.3480  -31.3110 C   0  0  0  0  0  0  0  0  0  0  0  0
    3.9400  -14.1860  -30.8680 C   0  0  0  0  0  0  0  0  0  0  0  0
    2.0030  -15.2410  -29.1680 C   0  0  0  0  0  0  0  0  0  0  0  0
    3.3150  -15.0830  -28.7220 C   0  0  0  0  0  0  0  0  0  0  0  0
    4.2880  -14.5430  -29.5680 C   0  0  0  0  0  0  0  0  0  0  0  0
    5.4130  -14.0950  -28.9500 N   0  0  0  0  0  0  0  0  0  0  0  0
    6.5290  -13.5890  -29.5150 C   0  0  0  0  0  0  0  0  0  0  0  0
    6.6080  -13.2990  -30.8440 N   0  0  0  0  0  0  0  0  0  0  0  0
    7.5720  -13.3320  -28.7110 N   0  0  0  0  0  0  0  0  0  0  0  0
    8.7080  -12.8280  -29.2230 C   0  0  0  0  0  0  0  0  0  0  0  0
    8.8070  -12.5300  -30.5670 C   0  0  0  0  0  0  0  0  0  0  0  0
    7.7310  -12.8030  -31.3840 C   0  0  0  0  0  0  0  0  0  0  0  0
   10.1040  -11.9730  -31.1400 C   0  0  0  0  0  0  0  0  0  0  0  0
    9.8530  -10.6810  -31.7340 N   0  0  0  0  0  0  0  0  0  0  0  0
    9.1240  -10.4150  -32.7320 C   0  0  0  0  0  0  0  0  0  0  0  0
    8.3540  -11.4600  -33.4740 C   0  0  0  0  0  0  0  0  0  0  0  0
    7.7200  -12.5450  -32.8490 C   0  0  0  0  0  0  0  0  0  0  0  0
    6.9830  -13.4460  -33.6080 C   0  0  0  0  0  0  0  0  0  0  0  0
    6.8960  -13.2630  -34.9580 C   0  0  0  0  0  0  0  0  0  0  0  0
    8.2480  -11.2810  -34.8470 C   0  0  0  0  0  0  0  0  0  0  0  0
    7.5120  -12.2060  -35.5740 C   0  0  0  0  0  0  0  0  0  0  0  0
    7.3950  -12.0270  -37.3300 Cl  0  0  0  0  0  0  0  0  0  0  0  0
    8.9170   -9.0000  -33.2000 C   0  0  0  0  0  0  0  0  0  0  0  0
    7.6520   -8.4360  -33.1110 C   0  0  0  0  0  0  0  0  0  0  0  0
    6.6410   -9.1570  -32.5870 F   0  0  0  0  0  0  0  0  0  0  0  0
    7.4390   -7.1300  -33.5510 C   0  0  0  0  0  0  0  0  0  0  0  0
    8.4850   -6.3820  -34.0860 C   0  0  0  0  0  0  0  0  0  0  0  0
    9.7410   -6.9600  -34.1960 C   0  0  0  0  0  0  0  0  0  0  0  0
    9.9420   -8.2640  -33.7520 C   0  0  0  0  0  0  0  0  0  0  0  0
   11.1190   -8.8330  -33.8510 F   0  0  0  0  0  0  0  0  0  0  0  0
   -2.1387  -15.4788  -30.1184 H   0  0  0  0  0  0  0  0  0  0  0  0
   -2.3653  -16.7445  -31.3513 H   0  0  0  0  0  0  0  0  0  0  0  0
   -1.1847  -17.1283  -28.5283 H   0  0  0  0  0  0  0  0  0  0  0  0
   -2.8010  -17.6842  -29.0925 H   0  0  0  0  0  0  0  0  0  0  0  0
   -1.1944  -19.3779  -27.8674 H   0  0  0  0  0  0  0  0  0  0  0  0
   -2.1547  -20.3910  -28.9980 H   0  0  0  0  0  0  0  0  0  0  0  0
   -0.3616  -20.4981  -28.9980 H   0  0  0  0  0  0  0  0  0  0  0  0
    0.8003  -18.1151  -29.4170 H   0  0  0  0  0  0  0  0  0  0  0  0
    0.6740  -19.4345  -30.6575 H   0  0  0  0  0  0  0  0  0  0  0  0
   -0.1641  -17.8359  -32.3194 H   0  0  0  0  0  0  0  0  0  0  0  0
    1.3819  -17.2480  -31.6826 H   0  0  0  0  0  0  0  0  0  0  0  0
    2.3753  -14.0702  -32.3429 H   0  0  0  0  0  0  0  0  0  0  0  0
    4.7020  -13.7741  -31.5459 H   0  0  0  0  0  0  0  0  0  0  0  0
    1.2438  -15.6680  -28.4963 H   0  0  0  0  0  0  0  0  0  0  0  0
    3.5855  -15.3848  -27.6994 H   0  0  0  0  0  0  0  0  0  0  0  0
    5.4135  -14.1486  -27.9214 H   0  0  0  0  0  0  0  0  0  0  0  0
    9.5696  -12.6508  -28.5625 H   0  0  0  0  0  0  0  0  0  0  0  0
   10.8454  -11.8681  -30.3342 H   0  0  0  0  0  0  0  0  0  0  0  0
   10.4904  -12.6601  -31.9072 H   0  0  0  0  0  0  0  0  0  0  0  0
    6.4762  -14.2957  -33.1272 H   0  0  0  0  0  0  0  0  0  0  0  0
    6.3198  -13.9785  -35.5631 H   0  0  0  0  0  0  0  0  0  0  0  0
    8.7342  -10.4291  -35.3448 H   0  0  0  0  0  0  0  0  0  0  0  0
    6.4353   -6.6863  -33.4748 H   0  0  0  0  0  0  0  0  0  0  0  0
    8.3172   -5.3465  -34.4169 H   0  0  0  0  0  0  0  0  0  0  0  0
   10.5748   -6.3904  -34.6323 H   0  0  0  0  0  0  0  0  0  0  0  0
  1  2  2  0
  2  3  1  0
  2 10  1  0
  3  4  1  0
  3  9  1  0
  4  5  1  0
  5  6  1  0
  6  7  1  0
  6  8  1  0
  8  9  1  0
 10 11  2  0
 10 13  1  0
 11 12  1  0
 12 15  2  0
 13 14  2  0
 14 15  1  0
 15 16  1  0
 16 17  1  0
 17 18  2  0
 17 19  1  0
 18 22  1  0
 19 20  2  0
 20 21  1  0
 21 22  2  0
 21 23  1  0
 22 27  1  0
 23 24  1  0
 24 25  2  0
 25 26  1  0
 25 33  1  0
 26 27  2  0
 26 30  1  0
 27 28  1  0
 28 29  2  0
 29 31  1  0
 30 31  2  0
 31 32  1  0
 33 34  2  0
 33 39  1  0
 34 35  1  0
 34 36  1  0
 36 37  2  0
 37 38  1  0
 38 39  2  0
 39 40  1  0
  4 41  1  0
  4 42  1  0
  5 43  1  0
  5 44  1  0
  7 45  1  0
  7 46  1  0
  7 47  1  0
  8 48  1  0
  8 49  1  0
  9 50  1  0
  9 51  1  0
 11 52  1  0
 12 53  1  0
 13 54  1  0
 14 55  1  0
 16 56  1  0
 20 57  1  0
 23 58  1  0
 23 59  1  0
 28 60  1  0
 29 61  1  0
 30 62  1  0
 36 63  1  0
 37 64  1  0
 38 65  1  0
A    1
O1
A    2
C20
A    3
N5
A    4
C24
A    5
C23
A    6
N6
A    7
C25
A    8
C22
A    9
C21
A   10
C17
A   11
C18
A   12
C19
A   13
C16
A   14
C15
A   15
C14
A   16
N4
A   17
C13
A   18
N3
A   19
N2
A   20
C12
A   21
C9
A   22
C10
A   23
C8
A   24
N1
A   25
C7
A   26
C2
A   27
C3
A   28
C4
A   29
C5
A   30
C1
A   31
C6
A   32
CL1
A   33
C11
A   34
C26
A   35
F2
A   36
C27
A   37
C28
A   38
C29
A   39
C30
A   40
F1
M  END
