3H2L_YAK_A_601
     RDKit          3D

 59 63  0  0  0  0  0  0  0  0999 V2000
   90.9170    9.8960   50.2060 F   0  0  0  0  0  0  0  0  0  0  0  0
   92.1420   10.2110   50.6610 C   0  0  0  0  0  0  0  0  0  0  0  0
   93.1470   10.6550   49.7790 C   0  0  0  0  0  0  0  0  0  0  0  0
   92.3960   10.0910   52.0300 C   0  0  0  0  0  0  0  0  0  0  0  0
   93.6580   10.4100   52.5330 C   0  0  0  0  0  0  0  0  0  0  0  0
   94.6540   10.8560   51.6660 C   0  0  0  0  0  0  0  0  0  0  0  0
   94.4130   10.9680   50.2890 C   0  0  0  0  0  0  0  0  0  0  0  0
   96.0060   11.1730   52.2240 C   0  0  0  0  0  0  0  0  0  0  0  0
   96.5830    9.9270   52.7330 N   0  0  0  0  0  0  0  0  0  0  0  0
   97.3180    9.0960   51.7910 C   0  0  0  0  0  0  0  0  0  0  0  0
   98.7460    9.6050   51.5250 C   0  0  0  0  0  0  0  0  0  0  0  0
   99.4370    8.4100   50.8770 C   0  0  0  0  0  0  0  0  0  0  0  0
   97.4610    7.6070   52.1960 C   0  0  0  0  0  0  0  0  0  0  0  0
   98.7700    7.1740   51.4950 C   0  0  0  0  0  0  0  0  0  0  0  0
   97.4250    7.3630   53.7080 C   0  0  0  0  0  0  0  0  0  0  0  0
   97.8120    6.1300   54.1600 O   0  0  0  0  0  0  0  0  0  0  0  0
   96.3850    9.5730   54.0730 C   0  0  0  0  0  0  0  0  0  0  0  0
   95.7110   10.2290   54.8710 O   0  0  0  0  0  0  0  0  0  0  0  0
   97.0120    8.3200   54.5780 C   0  0  0  0  0  0  0  0  0  0  0  0
   97.1990    8.3030   56.0480 C   0  0  0  0  0  0  0  0  0  0  0  0
   96.6610    9.2260   56.8020 N   0  0  0  0  0  0  0  0  0  0  0  0
   96.7740    9.2690   58.2070 C   0  0  0  0  0  0  0  0  0  0  0  0
   96.2250   10.3800   58.8860 C   0  0  0  0  0  0  0  0  0  0  0  0
   98.0230    7.2520   56.5210 N   0  0  0  0  0  0  0  0  0  0  0  0
   98.1090    6.8910   58.1610 S   0  0  0  0  0  0  0  0  0  0  0  0
   99.5030    6.8430   58.5670 O   0  0  0  0  0  0  0  0  0  0  0  0
   97.1750    5.8110   58.3950 O   0  0  0  0  0  0  0  0  0  0  0  0
   97.4170    8.2910   58.9760 C   0  0  0  0  0  0  0  0  0  0  0  0
   97.5070    8.3850   60.3720 C   0  0  0  0  0  0  0  0  0  0  0  0
   96.9420    9.4870   61.0310 C   0  0  0  0  0  0  0  0  0  0  0  0
   96.3050   10.4870   60.2810 C   0  0  0  0  0  0  0  0  0  0  0  0
   97.0200    9.6530   62.4560 N   0  0  0  0  0  0  0  0  0  0  0  0
   97.4500    8.3840   63.5320 S   0  0  0  0  0  0  0  0  0  0  0  0
   96.9970    8.7530   64.8690 O   0  0  0  0  0  0  0  0  0  0  0  0
   97.0160    7.1160   62.9760 O   0  0  0  0  0  0  0  0  0  0  0  0
   99.2290    8.4090   63.5860 C   0  0  0  0  0  0  0  0  0  0  0  0
   92.9397   10.7545   48.7033 H   0  0  0  0  0  0  0  0  0  0  0  0
   91.6029    9.7458   52.7096 H   0  0  0  0  0  0  0  0  0  0  0  0
   93.8657   10.3099   53.6086 H   0  0  0  0  0  0  0  0  0  0  0  0
   95.2146   11.3001   49.6128 H   0  0  0  0  0  0  0  0  0  0  0  0
   96.6491   11.5880   51.4339 H   0  0  0  0  0  0  0  0  0  0  0  0
   95.9244   11.9165   53.0305 H   0  0  0  0  0  0  0  0  0  0  0  0
   96.6886    9.1683   50.8918 H   0  0  0  0  0  0  0  0  0  0  0  0
   98.7347   10.4689   50.8442 H   0  0  0  0  0  0  0  0  0  0  0  0
   99.2541    9.9497   52.4377 H   0  0  0  0  0  0  0  0  0  0  0  0
   99.2890    8.4235   49.7871 H   0  0  0  0  0  0  0  0  0  0  0  0
  100.5232    8.4202   51.0503 H   0  0  0  0  0  0  0  0  0  0  0  0
   96.6044    6.9953   51.8766 H   0  0  0  0  0  0  0  0  0  0  0  0
   98.5412    6.4441   50.7045 H   0  0  0  0  0  0  0  0  0  0  0  0
   99.4487    6.7118   52.2269 H   0  0  0  0  0  0  0  0  0  0  0  0
   97.8672    5.9543   55.1327 H   0  0  0  0  0  0  0  0  0  0  0  0
   95.7267   11.1738   58.3102 H   0  0  0  0  0  0  0  0  0  0  0  0
   98.5775    6.7009   55.8504 H   0  0  0  0  0  0  0  0  0  0  0  0
   98.0179    7.5989   60.9474 H   0  0  0  0  0  0  0  0  0  0  0  0
   95.8667   11.3582   60.7898 H   0  0  0  0  0  0  0  0  0  0  0  0
   96.8074   10.5795   62.8527 H   0  0  0  0  0  0  0  0  0  0  0  0
   99.5640    8.4137   64.6337 H   0  0  0  0  0  0  0  0  0  0  0  0
   99.6238    7.5163   63.0788 H   0  0  0  0  0  0  0  0  0  0  0  0
   99.5986    9.3124   63.0788 H   0  0  0  0  0  0  0  0  0  0  0  0
  1  2  1  0
  3  2  2  0
  2  4  1  0
  3  7  1  0
  4  5  2  0
  6  5  1  0
  7  6  2  0
  6  8  1  0
  8  9  1  0
 10  9  1  0
  9 17  1  0
 11 10  1  0
 10 13  1  0
 12 11  1  0
 12 14  1  0
 14 13  1  0
 13 15  1  0
 15 16  1  0
 15 19  2  0
 17 19  1  0
 17 18  2  0
 19 20  1  0
 20 24  1  0
 20 21  2  0
 21 22  1  0
 22 23  2  0
 22 28  1  0
 23 31  1  0
 24 25  1  0
 25 27  2  0
 25 26  2  0
 25 28  1  0
 28 29  2  0
 29 30  1  0
 31 30  2  0
 30 32  1  0
 32 33  1  0
 35 33  2  0
 33 36  1  0
 33 34  2  0
  3 37  1  0
  4 38  1  0
  5 39  1  0
  7 40  1  0
  8 41  1  0
  8 42  1  0
 10 43  1  0
 11 44  1  0
 11 45  1  0
 12 46  1  0
 12 47  1  0
 13 48  1  0
 14 49  1  0
 14 50  1  0
 16 51  1  0
 23 52  1  0
 24 53  1  0
 29 54  1  0
 31 55  1  0
 32 56  1  0
 36 57  1  0
 36 58  1  0
 36 59  1  0
A    1
F34
A    2
C11
A    3
C5
A    4
C6
A    5
C2
A    6
C8
A    7
C1
A    8
C23
A    9
N26
A   10
C21
A   11
C19
A   12
C17
A   13
C20
A   14
C18
A   15
C14
A   16
O33
A   17
C16
A   18
O28
A   19
C13
A   20
C15
A   21
N24
A   22
C9
A   23
C3
A   24
N25
A   25
S35
A   26
O29
A   27
O30
A   28
C12
A   29
C7
A   30
C10
A   31
C4
A   32
N27
A   33
S36
A   34
O31
A   35
O32
A   36
C22
M  END
