3H3C_P1E_A_999
     RDKit          3D

 56 58  0  0  0  0  0  0  0  0999 V2000
   16.9110  -10.3060    1.1380 C   0  0  0  0  0  0  0  0  0  0  0  0
   18.8950  -10.7860    2.4290 C   0  0  0  0  0  0  0  0  0  0  0  0
   14.6980   -9.5710    2.0190 C   0  0  0  0  0  0  0  0  0  0  0  0
   12.5790   -8.7150    2.4970 C   0  0  0  0  0  0  0  0  0  0  0  0
   12.2010   -7.7260    5.7620 F   0  0  0  0  0  0  0  0  0  0  0  0
   11.7480   -8.6460    4.8470 C   0  0  0  0  0  0  0  0  0  0  0  0
   10.7250   -7.9740    4.2090 F   0  0  0  0  0  0  0  0  0  0  0  0
   11.3180   -9.8180    5.4780 F   0  0  0  0  0  0  0  0  0  0  0  0
   12.8050   -8.9840    3.8250 C   0  0  0  0  0  0  0  0  0  0  0  0
   13.5630   -9.0200    1.6430 N   0  0  0  0  0  0  0  0  0  0  0  0
   14.0260   -9.5520    4.2190 C   0  0  0  0  0  0  0  0  0  0  0  0
   14.2920   -9.8180    5.5540 N   0  0  0  0  0  0  0  0  0  0  0  0
   15.5940  -10.3650    5.9030 C   0  0  0  0  0  0  0  0  0  0  0  0
   15.5630  -11.9050    5.7560 C   0  0  0  0  0  0  0  0  0  0  0  0
   15.7660  -12.4540    7.1820 C   0  0  0  0  0  0  0  0  0  0  0  0
   16.3970  -11.3130    8.0170 C   0  0  0  0  0  0  0  0  0  0  0  0
   15.9710   -9.9870    7.3760 C   0  0  0  0  0  0  0  0  0  0  0  0
   17.1250   -9.0630    7.4200 N   0  0  0  0  0  0  0  0  0  0  0  0
   17.4810   -8.6910    8.8030 C   0  0  0  0  0  0  0  0  0  0  0  0
   16.7650   -7.7880    6.7900 C   0  0  0  0  0  0  0  0  0  0  0  0
   14.9340   -9.8600    3.2990 N   0  0  0  0  0  0  0  0  0  0  0  0
   15.6110   -9.8330    1.0280 N   0  0  0  0  0  0  0  0  0  0  0  0
   17.5890  -10.3440    2.3740 C   0  0  0  0  0  0  0  0  0  0  0  0
   17.5600  -10.6950   -0.0500 C   0  0  0  0  0  0  0  0  0  0  0  0
   18.8740  -11.1500    0.0340 C   0  0  0  0  0  0  0  0  0  0  0  0
   19.5570  -11.1970    1.2570 C   0  0  0  0  0  0  0  0  0  0  0  0
   21.2710  -11.7650    1.3980 S   0  0  0  0  0  0  0  0  0  0  0  0
   21.2630  -13.0550    2.0400 O   0  0  0  0  0  0  0  0  0  0  0  0
   21.9290  -11.4690    0.1760 O   0  0  0  0  0  0  0  0  0  0  0  0
   21.8560  -10.6820    2.5200 N   0  0  0  0  0  0  0  0  0  0  0  0
   22.0240   -9.2280    2.2960 C   0  0  0  0  0  0  0  0  0  0  0  0
   19.4216  -10.8173    3.3942 H   0  0  0  0  0  0  0  0  0  0  0  0
   11.6340   -8.2700    2.1520 H   0  0  0  0  0  0  0  0  0  0  0  0
   13.5853   -9.6329    6.2801 H   0  0  0  0  0  0  0  0  0  0  0  0
   16.3496   -9.9415    5.2249 H   0  0  0  0  0  0  0  0  0  0  0  0
   14.5947  -12.2339    5.3507 H   0  0  0  0  0  0  0  0  0  0  0  0
   16.3373  -12.2665    5.0634 H   0  0  0  0  0  0  0  0  0  0  0  0
   14.7989  -12.7494    7.6149 H   0  0  0  0  0  0  0  0  0  0  0  0
   16.4156  -13.3417    7.1736 H   0  0  0  0  0  0  0  0  0  0  0  0
   16.0356  -11.3623    9.0548 H   0  0  0  0  0  0  0  0  0  0  0  0
   17.4932  -11.4029    8.0321 H   0  0  0  0  0  0  0  0  0  0  0  0
   15.1297   -9.4916    7.8827 H   0  0  0  0  0  0  0  0  0  0  0  0
   16.8975   -9.3008    9.5085 H   0  0  0  0  0  0  0  0  0  0  0  0
   18.5543   -8.8685    8.9657 H   0  0  0  0  0  0  0  0  0  0  0  0
   17.2566   -7.6265    8.9657 H   0  0  0  0  0  0  0  0  0  0  0  0
   16.5540   -7.0407    7.5691 H   0  0  0  0  0  0  0  0  0  0  0  0
   17.5999   -7.4396    6.1642 H   0  0  0  0  0  0  0  0  0  0  0  0
   15.8712   -7.9277    6.1642 H   0  0  0  0  0  0  0  0  0  0  0  0
   15.2853   -9.6532    0.0675 H   0  0  0  0  0  0  0  0  0  0  0  0
   17.0774  -10.0217    3.2929 H   0  0  0  0  0  0  0  0  0  0  0  0
   17.0426  -10.6409   -1.0192 H   0  0  0  0  0  0  0  0  0  0  0  0
   19.3876  -11.4801   -0.8810 H   0  0  0  0  0  0  0  0  0  0  0  0
   21.2276  -10.7630    3.3320 H   0  0  0  0  0  0  0  0  0  0  0  0
   22.0836   -8.7121    3.2657 H   0  0  0  0  0  0  0  0  0  0  0  0
   22.9488   -9.0490    1.7280 H   0  0  0  0  0  0  0  0  0  0  0  0
   21.1644   -8.8428    1.7280 H   0  0  0  0  0  0  0  0  0  0  0  0
  1 22  1  0
  1 23  1  0
  1 24  2  0
  2 23  2  0
  2 26  1  0
  3 10  2  0
  3 21  1  0
  3 22  1  0
  4  9  2  0
  4 10  1  0
  5  6  1  0
  6  7  1  0
  6  8  1  0
  6  9  1  0
  9 11  1  0
 11 12  1  0
 11 21  2  0
 12 13  1  0
 13 14  1  0
 13 17  1  0
 14 15  1  0
 15 16  1  0
 16 17  1  0
 17 18  1  0
 18 19  1  0
 18 20  1  0
 24 25  1  0
 25 26  2  0
 26 27  1  0
 27 28  2  0
 27 29  2  0
 27 30  1  0
 30 31  1  0
  2 32  1  0
  4 33  1  0
 12 34  1  0
 13 35  1  0
 14 36  1  0
 14 37  1  0
 15 38  1  0
 15 39  1  0
 16 40  1  0
 16 41  1  0
 17 42  1  0
 19 43  1  0
 19 44  1  0
 19 45  1  0
 20 46  1  0
 20 47  1  0
 20 48  1  0
 22 49  1  0
 23 50  1  0
 24 51  1  0
 25 52  1  0
 30 53  1  0
 31 54  1  0
 31 55  1  0
 31 56  1  0
A    1
C4
A    2
C6
A    3
C9
A    4
C13
A    5
F22
A    6
C15
A    7
F16
A    8
F21
A    9
C12
A   10
N14
A   11
C11
A   12
N8
A   13
C25
A   14
C28
A   15
C31
A   16
C27
A   17
C24
A   18
N26
A   19
C30
A   20
C29
A   21
N10
A   22
N7
A   23
C5
A   24
C3
A   25
C2
A   26
C1
A   27
S18
A   28
O19
A   29
O20
A   30
N17
A   31
C23
M  END
