3H3S_H15_A_600
     RDKit          3D

 72 72  0  0  0  0  0  0  0  0999 V2000
    8.3790    1.2550   33.4940 O   0  0  0  0  0  0  0  0  0  0  0  0
    8.0690    1.8090   32.4250 C   0  0  0  0  0  0  0  0  0  0  0  0
    7.2890    1.3070   31.4640 N   0  0  0  0  0  0  0  0  0  0  0  0
    6.4910    0.0710   31.5880 C   0  0  0  0  0  0  0  0  0  0  0  0
    5.1350    0.2450   30.8690 C   0  0  0  0  0  0  0  0  0  0  0  0
    5.3850    0.4940   29.4540 O   0  0  0  0  0  0  0  0  0  0  0  0
    7.2100   -1.1660   31.0190 C   0  0  0  0  0  0  0  0  0  0  0  0
    8.5220   -1.0750   31.7550 C   0  0  0  0  0  0  0  0  0  0  0  0
    9.7730   -0.7020   31.0570 C   0  0  0  0  0  0  0  0  0  0  0  0
    9.9420   -0.7040   29.6690 C   0  0  0  0  0  0  0  0  0  0  0  0
   11.1540   -0.2270   29.1850 C   0  0  0  0  0  0  0  0  0  0  0  0
   12.1570    0.2660   30.0000 C   0  0  0  0  0  0  0  0  0  0  0  0
   11.9930    0.2790   31.3750 C   0  0  0  0  0  0  0  0  0  0  0  0
   10.7850   -0.1830   31.8630 C   0  0  0  0  0  0  0  0  0  0  0  0
    8.5230   -1.6110   33.0810 O   0  0  0  0  0  0  0  0  0  0  0  0
    8.5280    3.2270   32.1830 C   0  0  0  0  0  0  0  0  0  0  0  0
    9.9880    3.3120   31.8190 C   0  0  0  0  0  0  0  0  0  0  0  0
   10.3130    4.7020   31.2580 C   0  0  0  0  0  0  0  0  0  0  0  0
   11.8120    4.8730   31.0060 C   0  0  0  0  0  0  0  0  0  0  0  0
   12.2610    4.4520   29.6080 C   0  0  0  0  0  0  0  0  0  0  0  0
   13.7630    4.6510   29.4120 C   0  0  0  0  0  0  0  0  0  0  0  0
   14.1380    4.3000   27.9800 C   0  0  0  0  0  0  0  0  0  0  0  0
   14.8820    2.9740   27.9120 C   0  0  0  0  0  0  0  0  0  0  0  0
   14.9990    2.4490   26.4830 C   0  0  0  0  0  0  0  0  0  0  0  0
   13.7140    1.9370   25.8410 C   0  0  0  0  0  0  0  0  0  0  0  0
   14.0210    0.7000   25.0060 C   0  0  0  0  0  0  0  0  0  0  0  0
   14.3520   -0.4930   25.8940 C   0  0  0  0  0  0  0  0  0  0  0  0
   13.2860   -1.5580   25.7260 C   0  0  0  0  0  0  0  0  0  0  0  0
   13.0550   -2.2460   27.0520 C   0  0  0  0  0  0  0  0  0  0  0  0
    7.2407    1.8193   30.5717 H   0  0  0  0  0  0  0  0  0  0  0  0
    6.3393   -0.1004   32.6639 H   0  0  0  0  0  0  0  0  0  0  0  0
    4.5351   -0.6699   30.9836 H   0  0  0  0  0  0  0  0  0  0  0  0
    4.5842    1.0905   31.3069 H   0  0  0  0  0  0  0  0  0  0  0  0
    6.0832    1.1895   29.3596 H   0  0  0  0  0  0  0  0  0  0  0  0
    6.6725   -2.0954   31.2582 H   0  0  0  0  0  0  0  0  0  0  0  0
    7.2967   -1.1852   29.9226 H   0  0  0  0  0  0  0  0  0  0  0  0
    8.6671   -0.0016   31.9470 H   0  0  0  0  0  0  0  0  0  0  0  0
    9.1534   -1.0658   28.9928 H   0  0  0  0  0  0  0  0  0  0  0  0
   11.3245   -0.2422   28.0984 H   0  0  0  0  0  0  0  0  0  0  0  0
   13.0872    0.6487   29.5548 H   0  0  0  0  0  0  0  0  0  0  0  0
   12.7860    0.6397   32.0467 H   0  0  0  0  0  0  0  0  0  0  0  0
   10.6126   -0.1386   32.9485 H   0  0  0  0  0  0  0  0  0  0  0  0
    8.5216   -0.8693   33.7367 H   0  0  0  0  0  0  0  0  0  0  0  0
    7.9349    3.6533   31.3605 H   0  0  0  0  0  0  0  0  0  0  0  0
    8.3861    3.7864   33.1195 H   0  0  0  0  0  0  0  0  0  0  0  0
   10.5976    3.1306   32.7165 H   0  0  0  0  0  0  0  0  0  0  0  0
   10.2123    2.5542   31.0538 H   0  0  0  0  0  0  0  0  0  0  0  0
    9.7739    4.8385   30.3089 H   0  0  0  0  0  0  0  0  0  0  0  0
   10.0016    5.4528   31.9992 H   0  0  0  0  0  0  0  0  0  0  0  0
   12.0671    5.9338   31.1460 H   0  0  0  0  0  0  0  0  0  0  0  0
   12.3307    4.2140   31.7178 H   0  0  0  0  0  0  0  0  0  0  0  0
   12.0204    3.3887   29.4616 H   0  0  0  0  0  0  0  0  0  0  0  0
   11.7338    5.0805   28.8752 H   0  0  0  0  0  0  0  0  0  0  0  0
   14.0231    5.7009   29.6124 H   0  0  0  0  0  0  0  0  0  0  0  0
   14.3131    3.9983   30.1058 H   0  0  0  0  0  0  0  0  0  0  0  0
   13.2209    4.2275   27.3770 H   0  0  0  0  0  0  0  0  0  0  0  0
   14.7985    5.0889   27.5909 H   0  0  0  0  0  0  0  0  0  0  0  0
   15.8933    3.1142   28.3215 H   0  0  0  0  0  0  0  0  0  0  0  0
   14.3113    2.2370   28.4961 H   0  0  0  0  0  0  0  0  0  0  0  0
   15.3831    3.2673   25.8563 H   0  0  0  0  0  0  0  0  0  0  0  0
   15.6624    1.5739   26.5468 H   0  0  0  0  0  0  0  0  0  0  0  0
   12.9893    1.6782   26.6270 H   0  0  0  0  0  0  0  0  0  0  0  0
   13.2901    2.7196   25.1946 H   0  0  0  0  0  0  0  0  0  0  0  0
   13.1435    0.4561   24.3891 H   0  0  0  0  0  0  0  0  0  0  0  0
   14.8927    0.9150   24.3705 H   0  0  0  0  0  0  0  0  0  0  0  0
   15.3305   -0.9046   25.6057 H   0  0  0  0  0  0  0  0  0  0  0  0
   14.3859   -0.1701   26.9450 H   0  0  0  0  0  0  0  0  0  0  0  0
   12.3499   -1.0908   25.3863 H   0  0  0  0  0  0  0  0  0  0  0  0
   13.6163   -2.2960   24.9802 H   0  0  0  0  0  0  0  0  0  0  0  0
   13.2885   -1.5505   27.8716 H   0  0  0  0  0  0  0  0  0  0  0  0
   12.0027   -2.5582   27.1247 H   0  0  0  0  0  0  0  0  0  0  0  0
   13.7056   -3.1300   27.1247 H   0  0  0  0  0  0  0  0  0  0  0  0
  1  2  2  0
  2  3  1  0
  2 16  1  0
  3  4  1  0
  4  5  1  0
  4  7  1  0
  5  6  1  0
  7  8  1  0
  8  9  1  0
  8 15  1  0
  9 10  2  0
  9 14  1  0
 10 11  1  0
 11 12  2  0
 12 13  1  0
 13 14  2  0
 16 17  1  0
 17 18  1  0
 18 19  1  0
 19 20  1  0
 20 21  1  0
 21 22  1  0
 22 23  1  0
 23 24  1  0
 24 25  1  0
 25 26  1  0
 26 27  1  0
 27 28  1  0
 28 29  1  0
  3 30  1  0
  4 31  1  0
  5 32  1  0
  5 33  1  0
  6 34  1  0
  7 35  1  0
  7 36  1  0
  8 37  1  0
 10 38  1  0
 11 39  1  0
 12 40  1  0
 13 41  1  0
 14 42  1  0
 15 43  1  0
 16 44  1  0
 16 45  1  0
 17 46  1  0
 17 47  1  0
 18 48  1  0
 18 49  1  0
 19 50  1  0
 19 51  1  0
 20 52  1  0
 20 53  1  0
 21 54  1  0
 21 55  1  0
 22 56  1  0
 22 57  1  0
 23 58  1  0
 23 59  1  0
 24 60  1  0
 24 61  1  0
 25 62  1  0
 25 63  1  0
 26 64  1  0
 26 65  1  0
 27 66  1  0
 27 67  1  0
 28 68  1  0
 28 69  1  0
 29 70  1  0
 29 71  1  0
 29 72  1  0
A    1
O21
A    2
C21
A    3
N2
A    4
C2
A    5
C1
A    6
O1
A    7
C3
A    8
C4
A    9
C5
A   10
C6
A   11
C7
A   12
C8
A   13
C9
A   14
C10
A   15
O4
A   16
C22
A   17
C23
A   18
C24
A   19
C25
A   20
C26
A   21
C27
A   22
C28
A   23
C29
A   24
C30
A   25
C31
A   26
C32
A   27
C33
A   28
C34
A   29
C35
M  END
