1NHZ_486_A_800
     RDKit          3D

 67 71  0  0  0  0  0  0  0  0999 V2000
   -4.5830   18.2170    3.5200 O   0  0  0  0  0  0  0  0  0  0  0  0
   -3.9930   17.1990    3.7130 C   0  0  0  0  0  0  0  0  0  0  0  0
   -4.7010   15.8380    4.0870 C   0  0  0  0  0  0  0  0  0  0  0  0
   -2.5020   17.0820    3.5340 C   0  0  0  0  0  0  0  0  0  0  0  0
   -1.9970   15.8560    3.2290 C   0  0  0  0  0  0  0  0  0  0  0  0
   -0.4390   15.7460    3.1050 C   0  0  0  0  0  0  0  0  0  0  0  0
   -2.9360   14.7010    3.1750 C   0  0  0  0  0  0  0  0  0  0  0  0
   -4.4750   15.0660    2.8400 C   0  0  0  0  0  0  0  0  0  0  0  0
   -2.4120   13.4380    3.4880 C   0  0  0  0  0  0  0  0  0  0  0  0
   -3.2390   12.0070    3.5310 C   0  0  0  0  0  0  0  0  0  0  0  0
   -3.1910   11.4060    2.0710 C   0  0  0  0  0  0  0  0  0  0  0  0
   -2.3340   12.0250    1.0580 C   0  0  0  0  0  0  0  0  0  0  0  0
   -2.1730   11.5110   -0.2110 C   0  0  0  0  0  0  0  0  0  0  0  0
   -2.8350   10.2880   -0.5950 C   0  0  0  0  0  0  0  0  0  0  0  0
   -2.7790    9.7150   -1.9260 N   0  0  0  0  0  0  0  0  0  0  0  0
   -3.5420    8.4900   -2.1770 C   0  0  0  0  0  0  0  0  0  0  0  0
   -2.3710   10.5100   -3.1140 C   0  0  0  0  0  0  0  0  0  0  0  0
   -3.7120    9.6570    0.4180 C   0  0  0  0  0  0  0  0  0  0  0  0
   -3.8620   10.1890    1.7210 C   0  0  0  0  0  0  0  0  0  0  0  0
   -2.6460   11.0540    4.5960 C   0  0  0  0  0  0  0  0  0  0  0  0
   -1.1360   11.0380    5.0070 C   0  0  0  0  0  0  0  0  0  0  0  0
   -0.4170   10.1100    3.8580 C   0  0  0  0  0  0  0  0  0  0  0  0
   -0.8530   10.3480    6.3800 C   0  0  0  0  0  0  0  0  0  0  0  0
   -1.5870   10.8820    7.5980 C   0  0  0  0  0  0  0  0  0  0  0  0
   -2.4850   11.0420    8.3910 C   0  0  0  0  0  0  0  0  0  0  0  0
   -3.1640   11.4480    9.6560 C   0  0  0  0  0  0  0  0  0  0  0  0
   -0.9200    8.8980    6.3080 O   0  0  0  0  0  0  0  0  0  0  0  0
    0.6230   10.8610    6.4670 C   0  0  0  0  0  0  0  0  0  0  0  0
    0.6840   12.2590    5.7760 C   0  0  0  0  0  0  0  0  0  0  0  0
   -0.7620   12.5550    5.1970 C   0  0  0  0  0  0  0  0  0  0  0  0
   -0.8190   13.3590    3.8950 C   0  0  0  0  0  0  0  0  0  0  0  0
   -0.0450   14.7230    4.1340 C   0  0  0  0  0  0  0  0  0  0  0  0
   -4.2251   15.3573    4.9544 H   0  0  0  0  0  0  0  0  0  0  0  0
   -5.7563   15.9354    4.3817 H   0  0  0  0  0  0  0  0  0  0  0  0
   -1.8447   17.9569    3.6459 H   0  0  0  0  0  0  0  0  0  0  0  0
   -0.1528   15.4121    2.0967 H   0  0  0  0  0  0  0  0  0  0  0  0
    0.0605   16.7126    3.2669 H   0  0  0  0  0  0  0  0  0  0  0  0
   -5.1193   14.1778    2.7628 H   0  0  0  0  0  0  0  0  0  0  0  0
   -4.6842   15.5679    1.8838 H   0  0  0  0  0  0  0  0  0  0  0  0
   -4.2865   12.1570    3.8313 H   0  0  0  0  0  0  0  0  0  0  0  0
   -1.7922   12.9451    1.3224 H   0  0  0  0  0  0  0  0  0  0  0  0
   -1.5350   12.0373   -0.9362 H   0  0  0  0  0  0  0  0  0  0  0  0
   -3.8269    8.0325   -1.2181 H   0  0  0  0  0  0  0  0  0  0  0  0
   -4.4484    8.7336   -2.7507 H   0  0  0  0  0  0  0  0  0  0  0  0
   -2.9237    7.7839   -2.7507 H   0  0  0  0  0  0  0  0  0  0  0  0
   -1.8919   11.4435   -2.7836 H   0  0  0  0  0  0  0  0  0  0  0  0
   -1.6605    9.9273   -3.7187 H   0  0  0  0  0  0  0  0  0  0  0  0
   -3.2586   10.7475   -3.7187 H   0  0  0  0  0  0  0  0  0  0  0  0
   -4.2649    8.7449    0.1489 H   0  0  0  0  0  0  0  0  0  0  0  0
   -4.4901    9.6712    2.4609 H   0  0  0  0  0  0  0  0  0  0  0  0
   -3.2056   11.2547    5.5215 H   0  0  0  0  0  0  0  0  0  0  0  0
   -2.7356   10.0843    4.0845 H   0  0  0  0  0  0  0  0  0  0  0  0
    0.1878    9.3294    4.3427 H   0  0  0  0  0  0  0  0  0  0  0  0
   -1.1886    9.6395    3.2309 H   0  0  0  0  0  0  0  0  0  0  0  0
    0.2313   10.7397    3.2309 H   0  0  0  0  0  0  0  0  0  0  0  0
   -2.5762   11.0965   10.5168 H   0  0  0  0  0  0  0  0  0  0  0  0
   -3.2473   12.5443    9.6919 H   0  0  0  0  0  0  0  0  0  0  0  0
   -4.1691   11.0025    9.6919 H   0  0  0  0  0  0  0  0  0  0  0  0
   -0.9373    8.5226    7.2239 H   0  0  0  0  0  0  0  0  0  0  0  0
    0.9264   10.9508    7.5205 H   0  0  0  0  0  0  0  0  0  0  0  0
    1.3047   10.1561    5.9685 H   0  0  0  0  0  0  0  0  0  0  0  0
    0.9624   13.0306    6.5089 H   0  0  0  0  0  0  0  0  0  0  0  0
    1.4367   12.2673    4.9739 H   0  0  0  0  0  0  0  0  0  0  0  0
   -1.4116   13.1927    5.8146 H   0  0  0  0  0  0  0  0  0  0  0  0
   -0.3087   12.9177    3.0262 H   0  0  0  0  0  0  0  0  0  0  0  0
    1.0376   14.5405    4.0654 H   0  0  0  0  0  0  0  0  0  0  0  0
   -0.3053   15.1068    5.1314 H   0  0  0  0  0  0  0  0  0  0  0  0
  1  2  2  0
  2  3  1  0
  2  4  1  0
  3  8  1  0
  4  5  2  0
  5  6  1  0
  5  7  1  0
  6 32  1  0
  7  8  1  0
  7  9  2  0
  9 10  1  0
  9 31  1  0
 10 11  1  0
 10 20  1  0
 11 12  2  0
 11 19  1  0
 12 13  1  0
 13 14  2  0
 14 15  1  0
 14 18  1  0
 15 16  1  0
 15 17  1  0
 18 19  2  0
 20 21  1  0
 21 22  1  0
 21 23  1  0
 21 30  1  0
 23 24  1  0
 23 27  1  0
 23 28  1  0
 24 25  3  0
 25 26  1  0
 28 29  1  0
 29 30  1  0
 30 31  1  0
 31 32  1  0
  3 33  1  0
  3 34  1  0
  4 35  1  0
  6 36  1  0
  6 37  1  0
  8 38  1  0
  8 39  1  0
 10 40  1  0
 12 41  1  0
 13 42  1  0
 16 43  1  0
 16 44  1  0
 16 45  1  0
 17 46  1  0
 17 47  1  0
 17 48  1  0
 18 49  1  0
 19 50  1  0
 20 51  1  0
 20 52  1  0
 22 53  1  0
 22 54  1  0
 22 55  1  0
 26 56  1  0
 26 57  1  0
 26 58  1  0
 27 59  1  0
 28 60  1  0
 28 61  1  0
 29 62  1  0
 29 63  1  0
 30 64  1  0
 31 65  1  0
 32 66  1  0
 32 67  1  0
A    1
O30
A    2
C2
A    3
C1
A    4
C3
A    5
C4
A    6
C7
A    7
C5
A    8
C6
A    9
C10
A   10
C14
A   11
C18
A   12
C22
A   13
C23
A   14
C24
A   15
N27
A   16
C29
A   17
C28
A   18
C25
A   19
C26
A   20
C13
A   21
C12
A   22
C19
A   23
C17
A   24
C31
A   25
C30
A   26
C32
A   27
O3
A   28
C16
A   29
C15
A   30
C11
A   31
C9
A   32
C8
M  END
