3H5S_H5S_A_571
     RDKit          3D

 69 73  0  0  0  0  0  0  0  0999 V2000
  -10.0420    8.2950   12.9910 C   0  0  0  0  0  0  0  0  0  0  0  0
   -9.7090    9.7350   11.1920 C   0  0  0  0  0  0  0  0  0  0  0  0
  -10.0370    8.4080   10.6240 C   0  0  0  0  0  0  0  0  0  0  0  0
  -10.1800    7.5360   11.6890 C   0  0  0  0  0  0  0  0  0  0  0  0
   -9.2140   10.7180   13.4480 C   0  0  0  0  0  0  0  0  0  0  0  0
   -7.7720   10.3400   13.7720 C   0  0  0  0  0  0  0  0  0  0  0  0
   -7.2820   10.4850   15.0730 C   0  0  0  0  0  0  0  0  0  0  0  0
   -5.9680   10.1750   15.3590 C   0  0  0  0  0  0  0  0  0  0  0  0
   -5.1160    9.6710   14.3680 C   0  0  0  0  0  0  0  0  0  0  0  0
  -10.4330    6.2400   11.6520 O   0  0  0  0  0  0  0  0  0  0  0  0
   -9.6480    9.6510   12.5470 N   0  0  0  0  0  0  0  0  0  0  0  0
   -5.5680    9.5000   13.0600 C   0  0  0  0  0  0  0  0  0  0  0  0
   -6.8960    9.8490   12.7930 C   0  0  0  0  0  0  0  0  0  0  0  0
   -9.4010   10.7500   10.5740 O   0  0  0  0  0  0  0  0  0  0  0  0
  -10.1360    8.0150    9.1750 C   0  0  0  0  0  0  0  0  0  0  0  0
  -10.8670    6.6880    7.2690 S   0  0  0  0  0  0  0  0  0  0  0  0
  -10.7070    6.8880    8.9170 N   0  0  0  0  0  0  0  0  0  0  0  0
  -10.2430    8.2810    6.8070 C   0  0  0  0  0  0  0  0  0  0  0  0
   -9.8120    8.8790    8.0120 C   0  0  0  0  0  0  0  0  0  0  0  0
   -9.2370   10.1720    7.9020 C   0  0  0  0  0  0  0  0  0  0  0  0
   -9.0890   10.8040    6.6710 C   0  0  0  0  0  0  0  0  0  0  0  0
   -9.9480    5.7270    6.8140 O   0  0  0  0  0  0  0  0  0  0  0  0
  -12.2510    6.5600    7.0200 O   0  0  0  0  0  0  0  0  0  0  0  0
  -11.4500    8.2970   13.7060 C   0  0  0  0  0  0  0  0  0  0  0  0
  -11.7900    6.9000   14.2460 C   0  0  0  0  0  0  0  0  0  0  0  0
  -11.5180    9.2010   14.9610 C   0  0  0  0  0  0  0  0  0  0  0  0
  -12.6160    8.6870   12.7450 C   0  0  0  0  0  0  0  0  0  0  0  0
   -3.8480    9.3620   14.6900 F   0  0  0  0  0  0  0  0  0  0  0  0
   -5.4560   10.3540   16.7680 C   0  0  0  0  0  0  0  0  0  0  0  0
  -10.0890    8.9040    5.6000 C   0  0  0  0  0  0  0  0  0  0  0  0
   -9.5230   10.1750    5.5060 C   0  0  0  0  0  0  0  0  0  0  0  0
   -9.3680   10.8900    4.1930 C   0  0  0  0  0  0  0  0  0  0  0  0
  -10.4240   10.3940    3.1860 C   0  0  0  0  0  0  0  0  0  0  0  0
  -10.4360    8.9040    3.1670 N   0  0  0  0  0  0  0  0  0  0  0  0
  -10.5620    8.1370    4.4120 C   0  0  0  0  0  0  0  0  0  0  0  0
  -10.4750    8.0300    1.7660 S   0  0  0  0  0  0  0  0  0  0  0  0
   -9.8360    8.8060    0.7490 O   0  0  0  0  0  0  0  0  0  0  0  0
  -10.0250    6.7130    2.0810 O   0  0  0  0  0  0  0  0  0  0  0  0
  -12.2670    7.9530    1.4220 C   0  0  0  0  0  0  0  0  0  0  0  0
   -9.3185    7.8752   13.7053 H   0  0  0  0  0  0  0  0  0  0  0  0
   -9.8299   10.7390   14.3591 H   0  0  0  0  0  0  0  0  0  0  0  0
   -9.3066   11.7201   13.0040 H   0  0  0  0  0  0  0  0  0  0  0  0
   -7.9460   10.8474   15.8716 H   0  0  0  0  0  0  0  0  0  0  0  0
  -10.5324    5.7308   12.4952 H   0  0  0  0  0  0  0  0  0  0  0  0
   -4.9085    9.1075   12.2719 H   0  0  0  0  0  0  0  0  0  0  0  0
   -7.2714    9.7327   11.7656 H   0  0  0  0  0  0  0  0  0  0  0  0
   -8.8997   10.6878    8.8132 H   0  0  0  0  0  0  0  0  0  0  0  0
   -8.6287   11.8016    6.6177 H   0  0  0  0  0  0  0  0  0  0  0  0
  -11.7849    6.9208   15.3458 H   0  0  0  0  0  0  0  0  0  0  0  0
  -12.7870    6.6017   13.8895 H   0  0  0  0  0  0  0  0  0  0  0  0
  -11.0416    6.1769   13.8895 H   0  0  0  0  0  0  0  0  0  0  0  0
  -11.4710    8.5768   15.8655 H   0  0  0  0  0  0  0  0  0  0  0  0
  -10.6700    9.9016   14.9546 H   0  0  0  0  0  0  0  0  0  0  0  0
  -12.4612    9.7669   14.9546 H   0  0  0  0  0  0  0  0  0  0  0  0
  -13.4957    8.9812   13.3363 H   0  0  0  0  0  0  0  0  0  0  0  0
  -12.3022    9.5291   12.1106 H   0  0  0  0  0  0  0  0  0  0  0  0
  -12.8720    7.8256   12.1106 H   0  0  0  0  0  0  0  0  0  0  0  0
   -6.2453   10.0781   17.4828 H   0  0  0  0  0  0  0  0  0  0  0  0
   -4.5784    9.7094   16.9239 H   0  0  0  0  0  0  0  0  0  0  0  0
   -5.1712   11.4050   16.9239 H   0  0  0  0  0  0  0  0  0  0  0  0
   -9.4968   11.9709    4.3510 H   0  0  0  0  0  0  0  0  0  0  0  0
   -8.3652   10.6849    3.7901 H   0  0  0  0  0  0  0  0  0  0  0  0
  -11.4161   10.7643    3.4838 H   0  0  0  0  0  0  0  0  0  0  0  0
  -10.1765   10.7700    2.1823 H   0  0  0  0  0  0  0  0  0  0  0  0
   -9.9640    7.2180    4.3233 H   0  0  0  0  0  0  0  0  0  0  0  0
  -11.6280    7.9101    4.5608 H   0  0  0  0  0  0  0  0  0  0  0  0
  -12.8219    7.9292    2.3715 H   0  0  0  0  0  0  0  0  0  0  0  0
  -12.5677    8.8391    0.8437 H   0  0  0  0  0  0  0  0  0  0  0  0
  -12.4906    7.0444    0.8437 H   0  0  0  0  0  0  0  0  0  0  0  0
  1  4  1  0
  1 11  1  0
  1 24  1  0
  2  3  1  0
  2 11  1  0
  2 14  2  0
  3  4  2  0
  3 15  1  0
  4 10  1  0
  5  6  1  0
  5 11  1  0
  6  7  2  0
  6 13  1  0
  7  8  1  0
  8  9  2  0
  8 29  1  0
  9 12  1  0
  9 28  1  0
 12 13  2  0
 15 17  2  0
 15 19  1  0
 16 17  1  0
 16 18  1  0
 16 22  2  0
 16 23  2  0
 18 19  2  0
 18 30  1  0
 19 20  1  0
 20 21  2  0
 21 31  1  0
 24 25  1  0
 24 26  1  0
 24 27  1  0
 30 31  2  0
 30 35  1  0
 31 32  1  0
 32 33  1  0
 33 34  1  0
 34 35  1  0
 34 36  1  0
 36 37  2  0
 36 38  2  0
 36 39  1  0
  1 40  1  0
  5 41  1  0
  5 42  1  0
  7 43  1  0
 10 44  1  0
 12 45  1  0
 13 46  1  0
 20 47  1  0
 21 48  1  0
 25 49  1  0
 25 50  1  0
 25 51  1  0
 26 52  1  0
 26 53  1  0
 26 54  1  0
 27 55  1  0
 27 56  1  0
 27 57  1  0
 29 58  1  0
 29 59  1  0
 29 60  1  0
 32 61  1  0
 32 62  1  0
 33 63  1  0
 33 64  1  0
 35 65  1  0
 35 66  1  0
 39 67  1  0
 39 68  1  0
 39 69  1  0
A    1
C1
A    2
C3
A    3
C4
A    4
C5
A    5
C6
A    6
C7
A    7
C8
A    8
C9
A    9
C10
A   10
O13
A   11
N2
A   12
C11
A   13
C12
A   14
O14
A   15
C15
A   16
S16
A   17
N17
A   18
C18
A   19
C19
A   20
C20
A   21
C21
A   22
O22
A   23
O23
A   24
C24
A   25
C25
A   26
C26
A   27
C27
A   28
F28
A   29
C29
A   30
C30
A   31
C31
A   32
C32
A   33
C33
A   34
N34
A   35
C35
A   36
S36
A   37
O37
A   38
O38
A   39
C39
M  END
