3H5U_H5U_A_571
     RDKit          3D

 62 65  0  0  0  0  0  0  0  0999 V2000
   76.0450   44.6650   12.9280 C   0  0  0  0  0  0  0  0  0  0  0  0
   75.8690   45.5640   11.8970 C   0  0  0  0  0  0  0  0  0  0  0  0
   76.0180   44.8160   10.5980 C   0  0  0  0  0  0  0  0  0  0  0  0
   76.4230   43.4580   11.0020 N   0  0  0  0  0  0  0  0  0  0  0  0
   76.3880   43.3650   12.3500 C   0  0  0  0  0  0  0  0  0  0  0  0
   76.7030   42.3510   12.9750 O   0  0  0  0  0  0  0  0  0  0  0  0
   75.5680   46.8820   12.0040 O   0  0  0  0  0  0  0  0  0  0  0  0
   76.8810   42.3880   10.1350 C   0  0  0  0  0  0  0  0  0  0  0  0
   78.3160   42.8100    9.7800 C   0  0  0  0  0  0  0  0  0  0  0  0
   74.5950   44.8110    9.8950 C   0  0  0  0  0  0  0  0  0  0  0  0
   77.4150   43.1000   15.5790 C   0  0  0  0  0  0  0  0  0  0  0  0
   77.7970   42.5290   16.7760 C   0  0  0  0  0  0  0  0  0  0  0  0
   77.3390   43.0400   17.9820 C   0  0  0  0  0  0  0  0  0  0  0  0
   76.4830   44.1280   17.9380 C   0  0  0  0  0  0  0  0  0  0  0  0
   76.5390   44.2100   15.5110 C   0  0  0  0  0  0  0  0  0  0  0  0
   76.1090   44.6910   16.7560 C   0  0  0  0  0  0  0  0  0  0  0  0
   75.0760   46.0740   16.3770 S   0  0  0  0  0  0  0  0  0  0  0  0
   75.1410   45.9670   14.6960 N   0  0  0  0  0  0  0  0  0  0  0  0
   75.9420   44.9880   14.3840 C   0  0  0  0  0  0  0  0  0  0  0  0
   73.7630   45.7570   16.8270 O   0  0  0  0  0  0  0  0  0  0  0  0
   75.6690   47.3240   16.7280 O   0  0  0  0  0  0  0  0  0  0  0  0
   74.2600   46.2120    9.3910 C   0  0  0  0  0  0  0  0  0  0  0  0
   74.5000   43.8490    8.7030 C   0  0  0  0  0  0  0  0  0  0  0  0
   73.4300   44.4170   10.8160 C   0  0  0  0  0  0  0  0  0  0  0  0
   79.2400   43.1660   10.7770 C   0  0  0  0  0  0  0  0  0  0  0  0
   80.5440   43.5490   10.4470 C   0  0  0  0  0  0  0  0  0  0  0  0
   80.9410   43.6010    9.1000 C   0  0  0  0  0  0  0  0  0  0  0  0
   80.0220   43.2660    8.1020 C   0  0  0  0  0  0  0  0  0  0  0  0
   78.7230   42.8800    8.4410 C   0  0  0  0  0  0  0  0  0  0  0  0
   82.2000   43.9960    8.7640 F   0  0  0  0  0  0  0  0  0  0  0  0
   75.9120   44.7790   19.1590 C   0  0  0  0  0  0  0  0  0  0  0  0
   76.0580   43.9600   20.3470 N   0  0  0  0  0  0  0  0  0  0  0  0
   75.8970   44.7650   21.7820 S   0  0  0  0  0  0  0  0  0  0  0  0
   74.1110   44.7660   22.1090 C   0  0  0  0  0  0  0  0  0  0  0  0
   76.5000   43.8750   22.6820 O   0  0  0  0  0  0  0  0  0  0  0  0
   76.2920   46.0880   21.5730 O   0  0  0  0  0  0  0  0  0  0  0  0
   76.7466   45.2489    9.8967 H   0  0  0  0  0  0  0  0  0  0  0  0
   75.4732   47.2971   12.8977 H   0  0  0  0  0  0  0  0  0  0  0  0
   76.8732   41.4228   10.6625 H   0  0  0  0  0  0  0  0  0  0  0  0
   76.2424   42.2476    9.2504 H   0  0  0  0  0  0  0  0  0  0  0  0
   77.8061   42.6765   14.6422 H   0  0  0  0  0  0  0  0  0  0  0  0
   78.4714   41.6600   16.7739 H   0  0  0  0  0  0  0  0  0  0  0  0
   77.6454   42.5960   18.9406 H   0  0  0  0  0  0  0  0  0  0  0  0
   74.0999   46.8817   10.2488 H   0  0  0  0  0  0  0  0  0  0  0  0
   75.0929   46.5909    8.7805 H   0  0  0  0  0  0  0  0  0  0  0  0
   73.3458   46.1732    8.7805 H   0  0  0  0  0  0  0  0  0  0  0  0
   74.3981   42.8176    9.0715 H   0  0  0  0  0  0  0  0  0  0  0  0
   73.6231   44.1082    8.0916 H   0  0  0  0  0  0  0  0  0  0  0  0
   75.4107   43.9317    8.0916 H   0  0  0  0  0  0  0  0  0  0  0  0
   73.7409   44.5221   11.8659 H   0  0  0  0  0  0  0  0  0  0  0  0
   72.5698   45.0742   10.6207 H   0  0  0  0  0  0  0  0  0  0  0  0
   73.1453   43.3726   10.6207 H   0  0  0  0  0  0  0  0  0  0  0  0
   78.9330   43.1431   11.8331 H   0  0  0  0  0  0  0  0  0  0  0  0
   81.2587   43.8095   11.2416 H   0  0  0  0  0  0  0  0  0  0  0  0
   80.3229   43.3064    7.0447 H   0  0  0  0  0  0  0  0  0  0  0  0
   78.0082   42.6270    7.6441 H   0  0  0  0  0  0  0  0  0  0  0  0
   76.4307   45.7349   19.3240 H   0  0  0  0  0  0  0  0  0  0  0  0
   74.8358   44.9264   18.9859 H   0  0  0  0  0  0  0  0  0  0  0  0
   75.3415   43.2208   20.3143 H   0  0  0  0  0  0  0  0  0  0  0  0
   73.9371   44.7661   23.1952 H   0  0  0  0  0  0  0  0  0  0  0  0
   73.6574   45.6644   21.6650 H   0  0  0  0  0  0  0  0  0  0  0  0
   73.6564   43.8681   21.6650 H   0  0  0  0  0  0  0  0  0  0  0  0
  1  2  2  0
  1  5  1  0
  1 19  1  0
  2  3  1  0
  2  7  1  0
  3  4  1  0
  3 10  1  0
  4  5  1  0
  4  8  1  0
  5  6  2  0
  8  9  1  0
  9 25  2  0
  9 29  1  0
 10 22  1  0
 10 23  1  0
 10 24  1  0
 11 12  2  0
 11 15  1  0
 12 13  1  0
 13 14  2  0
 14 16  1  0
 14 31  1  0
 15 16  2  0
 15 19  1  0
 16 17  1  0
 17 18  1  0
 17 20  2  0
 17 21  2  0
 18 19  2  0
 25 26  1  0
 26 27  2  0
 27 28  1  0
 27 30  1  0
 28 29  2  0
 31 32  1  0
 32 33  1  0
 33 34  1  0
 33 35  2  0
 33 36  2  0
  3 37  1  0
  7 38  1  0
  8 39  1  0
  8 40  1  0
 11 41  1  0
 12 42  1  0
 13 43  1  0
 22 44  1  0
 22 45  1  0
 22 46  1  0
 23 47  1  0
 23 48  1  0
 23 49  1  0
 24 50  1  0
 24 51  1  0
 24 52  1  0
 25 53  1  0
 26 54  1  0
 28 55  1  0
 29 56  1  0
 31 57  1  0
 31 58  1  0
 32 59  1  0
 34 60  1  0
 34 61  1  0
 34 62  1  0
A    1
C1
A    2
C2
A    3
C3
A    4
N4
A    5
C5
A    6
O6
A    7
O7
A    8
C8
A    9
C9
A   10
C10
A   11
C11
A   12
C12
A   13
C13
A   14
C14
A   15
C15
A   16
C16
A   17
S17
A   18
N18
A   19
C19
A   20
O20
A   21
O21
A   22
C22
A   23
C23
A   24
C24
A   25
C25
A   26
C26
A   27
C27
A   28
C28
A   29
C29
A   30
F30
A   31
C31
A   32
N32
A   33
S33
A   34
C34
A   35
O35
A   36
O36
M  END
