3H62_NHC_C_0
     RDKit          3D

 29 30  0  0  0  0  0  0  0  0999 V2000
  116.7490   -2.2580   31.4030 O   0  0  0  0  0  0  0  0  0  0  0  0
  115.8320   -2.2730   30.5510 C   0  0  0  0  0  0  0  0  0  0  0  0
  115.7700   -3.1190   29.6330 O   0  0  0  0  0  0  0  0  0  0  0  0
  114.7650   -1.2130   30.6510 C   0  0  0  0  0  0  0  0  0  0  0  0
  113.6860   -1.4180   29.5860 C   0  0  0  0  0  0  0  0  0  0  0  0
  114.1810   -1.1650   32.0670 C   0  0  0  0  0  0  0  0  0  0  0  0
  112.6650   -1.3870   32.0830 C   0  0  0  0  0  0  0  0  0  0  0  0
  114.8670   -2.1400   33.0030 C   0  0  0  0  0  0  0  0  0  0  0  0
  115.8550   -1.7190   33.6550 O   0  0  0  0  0  0  0  0  0  0  0  0
  114.4550   -3.3190   33.1010 O   0  0  0  0  0  0  0  0  0  0  0  0
  115.4170    0.1540   30.5280 C   0  0  0  0  0  0  0  0  0  0  0  0
  114.3160    1.1810   30.3340 C   0  0  0  0  0  0  0  0  0  0  0  0
  113.6860    1.2240   31.7220 C   0  0  0  0  0  0  0  0  0  0  0  0
  114.5490    0.2440   32.4930 C   0  0  0  0  0  0  0  0  0  0  0  0
  115.8100    0.4290   31.8620 O   0  0  0  0  0  0  0  0  0  0  0  0
  115.6994   -4.0820   29.8513 H   0  0  0  0  0  0  0  0  0  0  0  0
  112.7181   -1.6019   30.0753 H   0  0  0  0  0  0  0  0  0  0  0  0
  113.6144   -0.5174   28.9585 H   0  0  0  0  0  0  0  0  0  0  0  0
  113.9497   -2.2821   28.9585 H   0  0  0  0  0  0  0  0  0  0  0  0
  112.3129   -1.4386   33.1239 H   0  0  0  0  0  0  0  0  0  0  0  0
  112.1667   -0.5522   31.5683 H   0  0  0  0  0  0  0  0  0  0  0  0
  112.4270   -2.3296   31.5683 H   0  0  0  0  0  0  0  0  0  0  0  0
  114.3143   -3.7215   33.9945 H   0  0  0  0  0  0  0  0  0  0  0  0
  116.1871    0.1796   29.7429 H   0  0  0  0  0  0  0  0  0  0  0  0
  114.7271    2.1609   30.0496 H   0  0  0  0  0  0  0  0  0  0  0  0
  113.6084    0.9309   29.5298 H   0  0  0  0  0  0  0  0  0  0  0  0
  113.7434    2.2334   32.1554 H   0  0  0  0  0  0  0  0  0  0  0  0
  112.6152    0.9723   31.7300 H   0  0  0  0  0  0  0  0  0  0  0  0
  114.4827    0.3786   33.5827 H   0  0  0  0  0  0  0  0  0  0  0  0
  1  2  2  0
  2  3  1  0
  2  4  1  0
  4  5  1  0
  4  6  1  0
  4 11  1  0
  6  7  1  0
  6  8  1  0
  6 14  1  0
  8  9  2  0
  8 10  1  0
 11 12  1  0
 11 15  1  0
 12 13  1  0
 13 14  1  0
 14 15  1  0
  3 16  1  0
  5 17  1  0
  5 18  1  0
  5 19  1  0
  7 20  1  0
  7 21  1  0
  7 22  1  0
 10 23  1  0
 11 24  1  0
 12 25  1  0
 12 26  1  0
 13 27  1  0
 13 28  1  0
 14 29  1  0
A    1
O2
A    2
C8
A    3
O4
A    4
C3
A    5
C7
A    6
C4
A    7
C10
A    8
C9
A    9
O3
A   10
O5
A   11
C2
A   12
C1
A   13
C5
A   14
C6
A   15
O1
M  END
