3H7W_018_A_1
     RDKit          3D

 29 30  0  0  0  0  0  0  0  0999 V2000
    9.9760  -40.1910   13.2370 O   0  0  0  0  0  0  0  0  0  0  0  0
   10.9180  -40.7820   12.7090 N   0  0  0  0  0  0  0  0  0  0  0  0
   11.9010  -41.1090   13.5970 O   0  0  0  0  0  0  0  0  0  0  0  0
   11.0630  -41.0930   11.3590 C   0  0  0  0  0  0  0  0  0  0  0  0
   10.0740  -40.7470   10.4230 C   0  0  0  0  0  0  0  0  0  0  0  0
   10.2050  -41.0320    9.0600 C   0  0  0  0  0  0  0  0  0  0  0  0
    9.1230  -40.6320    8.0840 C   0  0  0  0  0  0  0  0  0  0  0  0
    8.0470  -40.2970    8.7520 F   0  0  0  0  0  0  0  0  0  0  0  0
    9.4890  -39.6000    7.3430 F   0  0  0  0  0  0  0  0  0  0  0  0
    8.8280  -41.6380    7.2850 F   0  0  0  0  0  0  0  0  0  0  0  0
   12.2160  -41.7600   10.8810 C   0  0  0  0  0  0  0  0  0  0  0  0
   12.3400  -42.0440    9.5140 C   0  0  0  0  0  0  0  0  0  0  0  0
   11.3370  -41.6920    8.6080 C   0  0  0  0  0  0  0  0  0  0  0  0
   13.2270  -42.1390   11.7340 N   0  0  0  0  0  0  0  0  0  0  0  0
   14.4190  -42.8900   11.3040 C   0  0  0  0  0  0  0  0  0  0  0  0
   15.5430  -42.0120   10.8580 C   0  0  0  0  0  0  0  0  0  0  0  0
   16.7720  -42.4790   10.3920 C   0  0  0  0  0  0  0  0  0  0  0  0
   17.6320  -41.0150   10.0420 S   0  0  0  0  0  0  0  0  0  0  0  0
   16.4750  -39.8550   10.5050 C   0  0  0  0  0  0  0  0  0  0  0  0
   15.4050  -40.6200   10.9100 C   0  0  0  0  0  0  0  0  0  0  0  0
    9.1661  -40.2347   10.7740 H   0  0  0  0  0  0  0  0  0  0  0  0
   13.2437  -42.5534    9.1481 H   0  0  0  0  0  0  0  0  0  0  0  0
   11.4449  -41.9373    7.5411 H   0  0  0  0  0  0  0  0  0  0  0  0
   13.1458  -41.8834   12.7285 H   0  0  0  0  0  0  0  0  0  0  0  0
   14.7686  -43.5027   12.1480 H   0  0  0  0  0  0  0  0  0  0  0  0
   14.1229  -43.5035   10.4403 H   0  0  0  0  0  0  0  0  0  0  0  0
   17.1115  -43.5188   10.2754 H   0  0  0  0  0  0  0  0  0  0  0  0
   16.5617  -38.7586   10.4852 H   0  0  0  0  0  0  0  0  0  0  0  0
   14.4733  -40.1535   11.2625 H   0  0  0  0  0  0  0  0  0  0  0  0
  1  2  2  0
  2  3  1  0
  2  4  1  0
  4  5  2  0
  4 11  1  0
  5  6  1  0
  6  7  1  0
  6 13  2  0
  7  8  1  0
  7  9  1  0
  7 10  1  0
 11 12  2  0
 11 14  1  0
 12 13  1  0
 14 15  1  0
 15 16  1  0
 16 17  2  0
 16 20  1  0
 17 18  1  0
 18 19  1  0
 19 20  2  0
  5 21  1  0
 12 22  1  0
 13 23  1  0
 14 24  1  0
 15 25  1  0
 15 26  1  0
 17 27  1  0
 19 28  1  0
 20 29  1  0
M  CHG  2   2   1   3  -1
A    1
OAR
A    2
NAQ
A    3
OAP
A    4
CAI
A    5
CAH
A    6
CAD
A    7
CAC
A    8
FAA
A    9
FAG
A   10
FAB
A   11
CAJ
A   12
CAF
A   13
CAE
A   14
NAK
A   15
CAL
A   16
CAM
A   17
CAN
A   18
SAO
A   19
CAT
A   20
CAS
M  END
