3H8C_NSZ_A_300
     RDKit          3D

102105  0  0  0  0  0  0  0  0999 V2000
   -6.8200   -5.2030  -42.7250 C   0  0  0  0  0  0  0  0  0  0  0  0
   -5.8730   -4.3780  -42.4130 C   0  0  0  0  0  0  0  0  0  0  0  0
   -6.0600   -3.2540  -42.9040 O   0  0  0  0  0  0  0  0  0  0  0  0
   -6.2550   -9.4690  -44.0410 C   0  0  0  0  0  0  0  0  0  0  0  0
   -7.2440   -9.0830  -42.9070 C   0  0  0  0  0  0  0  0  0  0  0  0
   -7.4330   -7.6850  -42.4840 C   0  0  0  0  0  0  0  0  0  0  0  0
   -6.6130   -6.6070  -43.2030 C   0  0  0  0  0  0  0  0  0  0  0  0
   -5.6460   -6.9260  -44.3140 C   0  0  0  0  0  0  0  0  0  0  0  0
   -5.4770   -8.3340  -44.7220 C   0  0  0  0  0  0  0  0  0  0  0  0
   -5.8540  -13.8810  -45.1340 C   0  0  0  0  0  0  0  0  0  0  0  0
   -6.9210  -11.9730  -43.6600 C   0  0  0  0  0  0  0  0  0  0  0  0
   -6.0730  -10.8980  -44.4520 C   0  0  0  0  0  0  0  0  0  0  0  0
   -6.7950  -13.4100  -44.0110 C   0  0  0  0  0  0  0  0  0  0  0  0
   -5.1200  -11.3370  -45.5760 C   0  0  0  0  0  0  0  0  0  0  0  0
   -5.0350  -12.8210  -45.8930 C   0  0  0  0  0  0  0  0  0  0  0  0
   -4.7720   -4.5900  -41.6720 N   0  0  0  0  0  0  0  0  0  0  0  0
   -3.8570   -3.5700  -41.4430 C   0  0  0  0  0  0  0  0  0  0  0  0
   -4.1690   -2.4030  -40.6160 C   0  0  0  0  0  0  0  0  0  0  0  0
   -3.6230   -1.3240  -41.0930 O   0  0  0  0  0  0  0  0  0  0  0  0
   -2.5800   -3.6920  -42.1030 C   0  0  0  0  0  0  0  0  0  0  0  0
   -1.0260   -4.7910  -44.3320 C   0  0  0  0  0  0  0  0  0  0  0  0
   -4.9610   -2.3210  -39.4890 N   0  0  0  0  0  0  0  0  0  0  0  0
   -5.2340   -1.1550  -38.8140 C   0  0  0  0  0  0  0  0  0  0  0  0
   -6.3090   -0.1200  -39.3650 C   0  0  0  0  0  0  0  0  0  0  0  0
   -6.0220    0.6010  -40.8270 C   0  0  0  0  0  0  0  0  0  0  0  0
   -5.0170    1.8020  -40.8010 C   0  0  0  0  0  0  0  0  0  0  0  0
   -4.5760    2.5940  -41.9690 N   0  0  0  0  0  0  0  0  0  0  0  0
   -4.3340    2.1220  -43.3200 C   0  0  0  0  0  0  0  0  0  0  0  0
   -4.4790    0.8140  -43.7840 N   0  0  0  0  0  0  0  0  0  0  0  0
   -3.9130    2.9620  -44.3160 N   0  0  0  0  0  0  0  0  0  0  0  0
   -4.4740   -0.9070  -37.5770 C   0  0  0  0  0  0  0  0  0  0  0  0
   -5.2350   -0.4200  -36.5980 O   0  0  0  0  0  0  0  0  0  0  0  0
   -3.0830   -1.1880  -37.5980 N   0  0  0  0  0  0  0  0  0  0  0  0
   -2.4260   -0.8950  -36.3880 C   0  0  0  0  0  0  0  0  0  0  0  0
   -2.2420    0.6860  -36.5620 C   0  0  0  0  0  0  0  0  0  0  0  0
   -1.7790    1.1620  -37.6660 O   0  0  0  0  0  0  0  0  0  0  0  0
   -1.0710   -1.3830  -36.0940 C   0  0  0  0  0  0  0  0  0  0  0  0
   -0.2870   -0.8910  -35.0870 C   0  0  0  0  0  0  0  0  0  0  0  0
   -0.5750   -1.3680  -33.6760 C   0  0  0  0  0  0  0  0  0  0  0  0
    0.9170    0.1680  -35.2480 C   0  0  0  0  0  0  0  0  0  0  0  0
    0.2110   -0.8690  -32.5970 C   0  0  0  0  0  0  0  0  0  0  0  0
    1.6300    0.6110  -34.2220 C   0  0  0  0  0  0  0  0  0  0  0  0
    1.3270    0.1310  -32.8570 C   0  0  0  0  0  0  0  0  0  0  0  0
   -4.8840    3.5880  -35.4060 C   0  0  0  0  0  0  0  0  0  0  0  0
   -5.0600    3.8140  -33.8900 C   0  0  0  0  0  0  0  0  0  0  0  0
   -6.4160    3.8010  -33.2720 C   0  0  0  0  0  0  0  0  0  0  0  0
   -7.6240    3.5700  -34.1280 C   0  0  0  0  0  0  0  0  0  0  0  0
   -7.4580    3.3470  -35.6140 C   0  0  0  0  0  0  0  0  0  0  0  0
   -6.0930    3.3550  -36.2510 C   0  0  0  0  0  0  0  0  0  0  0  0
   -3.4910    3.6130  -36.0280 C   0  0  0  0  0  0  0  0  0  0  0  0
   -2.4940    2.9460  -35.4240 C   0  0  0  0  0  0  0  0  0  0  0  0
   -2.6290    1.5020  -35.3630 N   0  0  0  0  0  0  0  0  0  0  0  0
   -1.9600   -5.0840  -42.8930 S   0  0  0  0  0  0  0  0  0  0  0  0
   -7.3935   -4.7041  -43.5201 H   0  0  0  0  0  0  0  0  0  0  0  0
   -7.2524   -5.3934  -41.7316 H   0  0  0  0  0  0  0  0  0  0  0  0
   -7.8191   -9.8757  -42.4061 H   0  0  0  0  0  0  0  0  0  0  0  0
   -8.1375   -7.4234  -41.6807 H   0  0  0  0  0  0  0  0  0  0  0  0
   -5.0778   -6.1257  -44.8106 H   0  0  0  0  0  0  0  0  0  0  0  0
   -4.7761   -8.5765  -45.5344 H   0  0  0  0  0  0  0  0  0  0  0  0
   -5.7687  -14.9479  -45.3880 H   0  0  0  0  0  0  0  0  0  0  0  0
   -7.6000  -11.6578  -42.8540 H   0  0  0  0  0  0  0  0  0  0  0  0
   -7.3866  -14.1536  -43.4568 H   0  0  0  0  0  0  0  0  0  0  0  0
   -4.5199  -10.6017  -46.1320 H   0  0  0  0  0  0  0  0  0  0  0  0
   -4.3611  -13.1511  -46.6973 H   0  0  0  0  0  0  0  0  0  0  0  0
   -4.6041   -5.5224  -41.2679 H   0  0  0  0  0  0  0  0  0  0  0  0
   -4.2526   -3.0205  -42.3099 H   0  0  0  0  0  0  0  0  0  0  0  0
   -1.8360   -3.4485  -41.3302 H   0  0  0  0  0  0  0  0  0  0  0  0
   -2.7713   -3.0580  -42.9814 H   0  0  0  0  0  0  0  0  0  0  0  0
   -0.0110   -4.4726  -44.0519 H   0  0  0  0  0  0  0  0  0  0  0  0
   -0.9695   -5.7146  -44.9268 H   0  0  0  0  0  0  0  0  0  0  0  0
   -1.5071   -4.0006  -44.9268 H   0  0  0  0  0  0  0  0  0  0  0  0
   -5.3757   -3.1925  -39.1292 H   0  0  0  0  0  0  0  0  0  0  0  0
   -4.4464   -0.6405  -39.3842 H   0  0  0  0  0  0  0  0  0  0  0  0
   -6.4021    0.6823  -38.6182 H   0  0  0  0  0  0  0  0  0  0  0  0
   -7.2111   -0.7268  -39.5325 H   0  0  0  0  0  0  0  0  0  0  0  0
   -6.9819    0.9708  -41.2167 H   0  0  0  0  0  0  0  0  0  0  0  0
   -5.5548   -0.1700  -41.4573 H   0  0  0  0  0  0  0  0  0  0  0  0
   -4.0933    1.3950  -40.3638 H   0  0  0  0  0  0  0  0  0  0  0  0
   -5.6371    2.5531  -40.2898 H   0  0  0  0  0  0  0  0  0  0  0  0
   -4.4224    3.5991  -41.8046 H   0  0  0  0  0  0  0  0  0  0  0  0
   -4.5652    0.0365  -43.1140 H   0  0  0  0  0  0  0  0  0  0  0  0
   -4.4998    0.6261  -44.7965 H   0  0  0  0  0  0  0  0  0  0  0  0
   -3.7627    3.9615  -44.1175 H   0  0  0  0  0  0  0  0  0  0  0  0
   -2.5989   -1.5710  -38.4225 H   0  0  0  0  0  0  0  0  0  0  0  0
   -3.0198   -1.3609  -35.5878 H   0  0  0  0  0  0  0  0  0  0  0  0
   -1.1779   -2.4589  -35.8914 H   0  0  0  0  0  0  0  0  0  0  0  0
   -0.5226   -1.0307  -36.9801 H   0  0  0  0  0  0  0  0  0  0  0  0
   -1.3820   -2.0914  -33.4877 H   0  0  0  0  0  0  0  0  0  0  0  0
    1.1581    0.5401  -36.2547 H   0  0  0  0  0  0  0  0  0  0  0  0
    0.0094   -1.2090  -31.5705 H   0  0  0  0  0  0  0  0  0  0  0  0
    2.4438    1.3328  -34.3856 H   0  0  0  0  0  0  0  0  0  0  0  0
    1.9218    0.5053  -32.0108 H   0  0  0  0  0  0  0  0  0  0  0  0
   -4.1757    3.9865  -33.2589 H   0  0  0  0  0  0  0  0  0  0  0  0
   -6.5299    3.9607  -32.1896 H   0  0  0  0  0  0  0  0  0  0  0  0
   -8.6273    3.5627  -33.6771 H   0  0  0  0  0  0  0  0  0  0  0  0
   -8.3469    3.1764  -36.2391 H   0  0  0  0  0  0  0  0  0  0  0  0
   -5.9873    3.1900  -37.3334 H   0  0  0  0  0  0  0  0  0  0  0  0
   -3.1836    4.6675  -36.0866 H   0  0  0  0  0  0  0  0  0  0  0  0
   -3.6203    3.0835  -36.9834 H   0  0  0  0  0  0  0  0  0  0  0  0
   -1.5634    3.1728  -35.9650 H   0  0  0  0  0  0  0  0  0  0  0  0
   -2.5063    3.2856  -34.3778 H   0  0  0  0  0  0  0  0  0  0  0  0
   -2.9844    1.0449  -34.5112 H   0  0  0  0  0  0  0  0  0  0  0  0
 15 14  1  0
 15 10  2  0
 14 12  2  0
 10 13  1  0
 12  4  1  0
 12 11  1  0
  9  4  1  0
  9  8  2  0
 30 28  2  3
 13 11  2  0
 21 53  1  0
  4  5  2  0
  8  7  1  0
 29 28  1  0
 28 27  1  0
  7  6  2  0
  7  1  1  0
  5  6  1  0
  3  2  2  0
 53 20  1  0
  1  2  1  0
  2 16  1  0
 20 17  1  0
 27 26  1  0
 16 17  1  0
 17 18  1  0
 19 18  2  0
 26 25  1  0
 25 24  1  0
 18 22  1  0
 22 23  1  0
 24 23  1  0
 23 31  1  0
 36 35  2  0
 31 33  1  0
 31 32  2  0
 33 34  1  0
 35 34  1  0
 35 52  1  0
 34 37  1  0
 49 48  2  0
 49 44  1  0
 37 38  1  0
 50 51  1  0
 50 44  1  0
 48 47  1  0
 51 52  1  0
 44 45  2  0
 40 38  1  0
 40 42  2  0
 38 39  2  0
 42 43  1  0
 47 46  2  0
 45 46  1  0
 39 41  1  0
 43 41  2  0
  1 54  1  0
  1 55  1  0
  5 56  1  0
  6 57  1  0
  8 58  1  0
  9 59  1  0
 10 60  1  0
 11 61  1  0
 13 62  1  0
 14 63  1  0
 15 64  1  0
 16 65  1  0
 17 66  1  0
 20 67  1  0
 20 68  1  0
 21 69  1  0
 21 70  1  0
 21 71  1  0
 22 72  1  0
 23 73  1  0
 24 74  1  0
 24 75  1  0
 25 76  1  0
 25 77  1  0
 26 78  1  0
 26 79  1  0
 27 80  1  0
 29 81  1  0
 29 82  1  0
 30 83  1  0
 33 84  1  0
 34 85  1  0
 37 86  1  0
 37 87  1  0
 39 88  1  0
 40 89  1  0
 41 90  1  0
 42 91  1  0
 43 92  1  0
 45 93  1  0
 46 94  1  0
 47 95  1  0
 48 96  1  0
 49 97  1  0
 50 98  1  0
 50 99  1  0
 51100  1  0
 51101  1  0
 52102  1  0
A    1
C1
A    2
C2
A    3
O3
A    4
C4
A    5
C5
A    6
C6
A    7
C7
A    8
C8
A    9
C9
A   10
C10
A   11
C11
A   12
C12
A   13
C13
A   14
C14
A   15
C15
A   16
N16
A   17
C17
A   18
C18
A   19
O19
A   20
C20
A   21
C22
A   22
N29
A   23
C30
A   24
C31
A   25
C32
A   26
C33
A   27
N34
A   28
C35
A   29
N36
A   30
N37
A   31
C38
A   32
O39
A   33
N40
A   34
C41
A   35
C42
A   36
O43
A   37
C44
A   38
C45
A   39
C46
A   40
C47
A   41
C48
A   42
C49
A   43
C50
A   44
C52
A   45
C53
A   46
C54
A   47
C55
A   48
C56
A   49
C57
A   50
C58
A   51
C59
A   52
N60
A   53
SG2
M  END
