3HAB_677_A_767
     RDKit          3D

 43 46  0  0  0  0  0  0  0  0999 V2000
   33.3860   48.5360   36.0170 F   0  0  0  0  0  0  0  0  0  0  0  0
   34.6090   49.0840   36.0900 C   0  0  0  0  0  0  0  0  0  0  0  0
   34.7850   50.4070   36.4800 C   0  0  0  0  0  0  0  0  0  0  0  0
   36.0930   50.9160   36.5470 C   0  0  0  0  0  0  0  0  0  0  0  0
   36.2570   52.1780   36.9470 F   0  0  0  0  0  0  0  0  0  0  0  0
   35.7150   48.3080   35.7620 C   0  0  0  0  0  0  0  0  0  0  0  0
   35.5140   47.0440   35.3790 F   0  0  0  0  0  0  0  0  0  0  0  0
   37.0080   48.8210   35.8210 C   0  0  0  0  0  0  0  0  0  0  0  0
   37.2130   50.1360   36.2340 C   0  0  0  0  0  0  0  0  0  0  0  0
   38.6040   50.7220   36.2880 C   0  0  0  0  0  0  0  0  0  0  0  0
   39.6350   49.8630   37.0550 C   0  0  0  0  0  0  0  0  0  0  0  0
   39.0690   51.0080   34.8460 C   0  0  0  0  0  0  0  0  0  0  0  0
   38.0580   51.8180   34.1530 N   0  0  0  0  0  0  0  0  0  0  0  0
   40.4330   51.7170   34.7860 C   0  0  0  0  0  0  0  0  0  0  0  0
   41.3980   51.1280   35.7180 N   0  0  0  0  0  0  0  0  0  0  0  0
   41.0580   50.3040   36.7480 C   0  0  0  0  0  0  0  0  0  0  0  0
   42.1650   49.9420   37.4510 N   0  0  0  0  0  0  0  0  0  0  0  0
   42.7350   51.3230   35.7220 C   0  0  0  0  0  0  0  0  0  0  0  0
   43.6550   52.0600   34.9470 C   0  0  0  0  0  0  0  0  0  0  0  0
   45.0340   52.0080   35.2730 C   0  0  0  0  0  0  0  0  0  0  0  0
   43.2500   50.5290   36.8680 C   0  0  0  0  0  0  0  0  0  0  0  0
   44.6220   50.5280   37.1460 C   0  0  0  0  0  0  0  0  0  0  0  0
   45.5290   51.2590   36.3640 C   0  0  0  0  0  0  0  0  0  0  0  0
   47.1330   51.2370   36.7150 S   0  0  0  0  0  0  0  0  0  0  0  0
   47.8850   51.0310   35.5090 O   0  0  0  0  0  0  0  0  0  0  0  0
   47.4370   52.5730   37.1940 O   0  0  0  0  0  0  0  0  0  0  0  0
   47.5060   50.1380   37.8750 C   0  0  0  0  0  0  0  0  0  0  0  0
   33.9209   51.0401   36.7301 H   0  0  0  0  0  0  0  0  0  0  0  0
   37.8651   48.1902   35.5425 H   0  0  0  0  0  0  0  0  0  0  0  0
   38.5455   51.6530   36.8709 H   0  0  0  0  0  0  0  0  0  0  0  0
   39.4534   49.9644   38.1352 H   0  0  0  0  0  0  0  0  0  0  0  0
   39.5196   48.8160   36.7381 H   0  0  0  0  0  0  0  0  0  0  0  0
   39.1903   50.0354   34.3466 H   0  0  0  0  0  0  0  0  0  0  0  0
   37.4643   52.2937   34.8473 H   0  0  0  0  0  0  0  0  0  0  0  0
   38.5263   52.5204   33.5629 H   0  0  0  0  0  0  0  0  0  0  0  0
   40.8311   51.6357   33.7638 H   0  0  0  0  0  0  0  0  0  0  0  0
   40.2827   52.7687   35.0714 H   0  0  0  0  0  0  0  0  0  0  0  0
   43.3065   52.6682   34.0993 H   0  0  0  0  0  0  0  0  0  0  0  0
   45.7457   52.5725   34.6527 H   0  0  0  0  0  0  0  0  0  0  0  0
   44.9975   49.9407   37.9969 H   0  0  0  0  0  0  0  0  0  0  0  0
   47.3537   50.5867   38.8677 H   0  0  0  0  0  0  0  0  0  0  0  0
   46.8567   49.2566   37.7675 H   0  0  0  0  0  0  0  0  0  0  0  0
   48.5577   49.8340   37.7675 H   0  0  0  0  0  0  0  0  0  0  0  0
  2  1  1  0
  3  2  2  0
  2  6  1  0
  4  3  1  0
  5  4  1  0
  4  9  2  0
  8  6  2  0
  6  7  1  0
  9  8  1  0
 10  9  1  0
 12 10  1  0
 10 11  1  0
 16 11  1  0
 14 12  1  0
 13 12  1  0
 14 15  1  0
 18 15  1  0
 15 16  1  0
 16 17  2  0
 21 17  1  0
 19 18  2  0
 18 21  1  0
 20 19  1  0
 20 23  2  0
 22 21  2  0
 23 22  1  0
 24 23  1  0
 26 24  2  0
 25 24  2  0
 24 27  1  0
  3 28  1  0
  8 29  1  0
 10 30  1  0
 11 31  1  0
 11 32  1  0
 12 33  1  0
 13 34  1  0
 13 35  1  0
 14 36  1  0
 14 37  1  0
 19 38  1  0
 20 39  1  0
 22 40  1  0
 27 41  1  0
 27 42  1  0
 27 43  1  0
A    1
F27
A    2
C6
A    3
C1
A    4
C2
A    5
F22
A    6
C5
A    7
F21
A    8
C4
A    9
C3
A   10
C9
A   11
C10
A   12
C14
A   13
N23
A   14
C13
A   15
N12
A   16
C11
A   17
N18
A   18
C29
A   19
C23
A   20
C22
A   21
C19
A   22
C20
A   23
C21
A   24
S24
A   25
O26
A   26
O25
A   27
C27
M  END
