3HC6_088_A_1
     RDKit          3D

 61 65  0  0  0  0  0  0  0  0999 V2000
  136.4520  136.2600   84.5120 C   0  0  0  0  0  0  0  0  0  0  0  0
  136.8210  136.3220   83.0540 C   0  0  0  0  0  0  0  0  0  0  0  0
  138.3070  136.1000   82.8920 C   0  0  0  0  0  0  0  0  0  0  0  0
  136.0880  135.2960   82.3040 C   0  0  0  0  0  0  0  0  0  0  0  0
  136.2620  134.0150   82.6950 O   0  0  0  0  0  0  0  0  0  0  0  0
  135.4980  133.1910   81.8640 N   0  0  0  0  0  0  0  0  0  0  0  0
  134.8870  134.0140   81.0000 C   0  0  0  0  0  0  0  0  0  0  0  0
  135.2200  135.3660   81.2440 C   0  0  0  0  0  0  0  0  0  0  0  0
  134.7280  136.5870   80.5270 C   0  0  0  0  0  0  0  0  0  0  0  0
  134.6560  136.3590   79.1040 O   0  0  0  0  0  0  0  0  0  0  0  0
  133.6200  137.0530   78.4190 C   0  0  0  0  0  0  0  0  0  0  0  0
  133.7340  137.1800   77.0140 C   0  0  0  0  0  0  0  0  0  0  0  0
  132.7680  137.8710   76.2290 C   0  0  0  0  0  0  0  0  0  0  0  0
  131.6860  138.4070   76.9550 C   0  0  0  0  0  0  0  0  0  0  0  0
  130.6140  139.1870   76.5390 N   0  0  0  0  0  0  0  0  0  0  0  0
  130.3950  139.6560   75.1230 C   0  0  0  0  0  0  0  0  0  0  0  0
  129.6360  140.9980   74.9550 C   0  0  0  0  0  0  0  0  0  0  0  0
  130.2200  142.0820   74.2430 C   0  0  0  0  0  0  0  0  0  0  0  0
  129.4910  143.3060   74.0860 C   0  0  0  0  0  0  0  0  0  0  0  0
  128.1960  143.4410   74.6440 C   0  0  0  0  0  0  0  0  0  0  0  0
  127.6500  142.3640   75.3470 C   0  0  0  0  0  0  0  0  0  0  0  0
  128.3410  141.1650   75.4930 C   0  0  0  0  0  0  0  0  0  0  0  0
  126.3310  142.4710   76.0080 C   0  0  0  0  0  0  0  0  0  0  0  0
  126.2300  142.3940   77.2450 O   0  0  0  0  0  0  0  0  0  0  0  0
  125.2640  142.6490   75.1860 O   0  0  0  0  0  0  0  0  0  0  0  0
  129.8070  139.4480   77.6300 C   0  0  0  0  0  0  0  0  0  0  0  0
  130.3760  138.8810   78.7400 C   0  0  0  0  0  0  0  0  0  0  0  0
  131.5600  138.2510   78.3430 C   0  0  0  0  0  0  0  0  0  0  0  0
  132.5200  137.5820   79.1150 C   0  0  0  0  0  0  0  0  0  0  0  0
  134.0310  133.5140   79.9750 C   0  0  0  0  0  0  0  0  0  0  0  0
  134.5480  133.2540   78.6670 C   0  0  0  0  0  0  0  0  0  0  0  0
  136.2190  133.5080   78.3100 Cl  0  0  0  0  0  0  0  0  0  0  0  0
  133.6960  132.7990   77.6550 C   0  0  0  0  0  0  0  0  0  0  0  0
  132.3350  132.5860   77.9360 C   0  0  0  0  0  0  0  0  0  0  0  0
  131.8290  132.8170   79.2400 C   0  0  0  0  0  0  0  0  0  0  0  0
  132.6690  133.2670   80.2580 C   0  0  0  0  0  0  0  0  0  0  0  0
  132.0240  133.4820   81.8430 Cl  0  0  0  0  0  0  0  0  0  0  0  0
  137.3528  136.4113   85.1250 H   0  0  0  0  0  0  0  0  0  0  0  0
  135.7180  137.0474   84.7383 H   0  0  0  0  0  0  0  0  0  0  0  0
  136.0156  135.2759   84.7383 H   0  0  0  0  0  0  0  0  0  0  0  0
  136.5541  137.3146   82.6623 H   0  0  0  0  0  0  0  0  0  0  0  0
  138.7775  136.0297   83.8838 H   0  0  0  0  0  0  0  0  0  0  0  0
  138.4799  135.1661   82.3371 H   0  0  0  0  0  0  0  0  0  0  0  0
  138.7453  136.9426   82.3371 H   0  0  0  0  0  0  0  0  0  0  0  0
  133.7260  136.8441   80.9010 H   0  0  0  0  0  0  0  0  0  0  0  0
  135.4330  137.4104   80.7141 H   0  0  0  0  0  0  0  0  0  0  0  0
  134.6010  136.7281   76.5099 H   0  0  0  0  0  0  0  0  0  0  0  0
  132.8595  137.9783   75.1381 H   0  0  0  0  0  0  0  0  0  0  0  0
  131.3819  139.7673   74.6501 H   0  0  0  0  0  0  0  0  0  0  0  0
  129.7524  138.8944   74.6571 H   0  0  0  0  0  0  0  0  0  0  0  0
  131.2280  141.9813   73.8142 H   0  0  0  0  0  0  0  0  0  0  0  0
  129.9386  144.1433   73.5304 H   0  0  0  0  0  0  0  0  0  0  0  0
  127.6303  144.3770   74.5260 H   0  0  0  0  0  0  0  0  0  0  0  0
  127.8703  140.3328   76.0369 H   0  0  0  0  0  0  0  0  0  0  0  0
  126.8680  142.8804   77.8250 H   0  0  0  0  0  0  0  0  0  0  0  0
  128.8652  140.0160   77.6106 H   0  0  0  0  0  0  0  0  0  0  0  0
  129.9728  138.9152   79.7629 H   0  0  0  0  0  0  0  0  0  0  0  0
  132.4178  137.4770   80.2052 H   0  0  0  0  0  0  0  0  0  0  0  0
  134.0887  132.6090   76.6452 H   0  0  0  0  0  0  0  0  0  0  0  0
  131.6596  132.2385   77.1403 H   0  0  0  0  0  0  0  0  0  0  0  0
  130.7640  132.6396   79.4507 H   0  0  0  0  0  0  0  0  0  0  0  0
  2  1  1  0
  4  2  1  0
  3  2  1  0
  8  4  2  0
  4  5  1  0
  6  5  1  0
  7  6  2  0
 30  7  1  0
  7  8  1  0
  9  8  1  0
 10  9  1  0
 11 10  1  0
 12 11  2  0
 11 29  1  0
 13 12  1  0
 13 14  2  0
 15 14  1  0
 14 28  1  0
 16 15  1  0
 15 26  1  0
 17 16  1  0
 18 17  2  0
 17 22  1  0
 19 18  1  0
 19 20  2  0
 20 21  1  0
 21 22  2  0
 21 23  1  0
 25 23  2  0
 23 24  1  0
 26 27  2  0
 28 27  1  0
 28 29  2  0
 31 30  2  0
 30 36  1  0
 33 31  1  0
 32 31  1  0
 33 34  2  0
 34 35  1  0
 35 36  2  0
 36 37  1  0
  1 38  1  0
  1 39  1  0
  1 40  1  0
  2 41  1  0
  3 42  1  0
  3 43  1  0
  3 44  1  0
  9 45  1  0
  9 46  1  0
 12 47  1  0
 13 48  1  0
 16 49  1  0
 16 50  1  0
 18 51  1  0
 19 52  1  0
 20 53  1  0
 22 54  1  0
 24 55  1  0
 26 56  1  0
 27 57  1  0
 29 58  1  0
 33 59  1  0
 34 60  1  0
 35 61  1  0
A    1
C1
A    2
C2
A    3
C3
A    4
C4
A    5
O5
A    6
N6
A    7
C7
A    8
C8
A    9
C9
A   10
O10
A   11
C11
A   12
C12
A   13
C13
A   14
C14
A   15
N15
A   16
C16
A   17
C17
A   18
C18
A   19
C19
A   20
C20
A   21
C21
A   22
C22
A   23
C23
A   24
O24
A   25
O25
A   26
C26
A   27
C27
A   28
C28
A   29
C29
A   30
C30
A   31
C31
A   32
CL32
A   33
C33
A   34
C34
A   35
C35
A   36
C36
A   37
CL37
M  END
