3HC8_PD4_A_901
     RDKit          3D

 66 69  0  0  0  0  0  0  0  0999 V2000
   17.2340   -5.8820   12.8690 C   0  0  0  0  0  0  0  0  0  0  0  0
   17.3770   -5.6280   14.2330 C   0  0  0  0  0  0  0  0  0  0  0  0
   18.2830   -6.3810   14.9920 C   0  0  0  0  0  0  0  0  0  0  0  0
   19.0350   -7.3770   14.3720 C   0  0  0  0  0  0  0  0  0  0  0  0
   18.8710   -7.6070   12.9950 C   0  0  0  0  0  0  0  0  0  0  0  0
   17.9840   -6.8530   12.3230 N   0  0  0  0  0  0  0  0  0  0  0  0
   19.9200   -8.1310   15.0530 N   0  0  0  0  0  0  0  0  0  0  0  0
   20.6280   -9.1020   14.4320 C   0  0  0  0  0  0  0  0  0  0  0  0
   20.4500   -9.3200   13.0530 C   0  0  0  0  0  0  0  0  0  0  0  0
   19.5850   -8.5490   12.3510 N   0  0  0  0  0  0  0  0  0  0  0  0
   21.1500  -10.2570   12.4470 O   0  0  0  0  0  0  0  0  0  0  0  0
   21.5090   -9.8740   15.0930 N   0  0  0  0  0  0  0  0  0  0  0  0
   21.9010   -9.8440   16.5080 C   0  0  0  0  0  0  0  0  0  0  0  0
   20.8730  -10.4340   17.4770 C   0  0  0  0  0  0  0  0  0  0  0  0
   21.4060  -10.8110   18.8270 N   0  0  0  0  0  0  0  0  0  0  0  0
   21.7270   -9.7180   19.7950 C   0  0  0  0  0  0  0  0  0  0  0  0
   20.7720   -9.7840   20.9970 C   0  0  0  0  0  0  0  0  0  0  0  0
   20.7210  -11.1130   21.5490 O   0  0  0  0  0  0  0  0  0  0  0  0
   20.3290  -12.1510   20.6330 C   0  0  0  0  0  0  0  0  0  0  0  0
   21.2200  -12.1960   19.3810 C   0  0  0  0  0  0  0  0  0  0  0  0
   16.3090   -5.1860   11.9470 C   0  0  0  0  0  0  0  0  0  0  0  0
   15.2460   -4.3980   12.3970 C   0  0  0  0  0  0  0  0  0  0  0  0
   14.3770   -3.7530   11.5280 C   0  0  0  0  0  0  0  0  0  0  0  0
   14.5920   -3.9460   10.1740 C   0  0  0  0  0  0  0  0  0  0  0  0
   15.6030   -4.7230    9.7310 N   0  0  0  0  0  0  0  0  0  0  0  0
   16.4420   -5.3440   10.5720 C   0  0  0  0  0  0  0  0  0  0  0  0
   19.3780   -8.7950   10.9040 C   0  0  0  0  0  0  0  0  0  0  0  0
   13.7400   -3.3260    9.3770 O   0  0  0  0  0  0  0  0  0  0  0  0
   20.5690   -8.4370   10.0200 C   0  0  0  0  0  0  0  0  0  0  0  0
   20.5530   -7.0290    9.9070 O   0  0  0  0  0  0  0  0  0  0  0  0
   21.5230   -6.4910    9.0020 C   0  0  0  0  0  0  0  0  0  0  0  0
   21.2350   -4.9980    8.7980 C   0  0  0  0  0  0  0  0  0  0  0  0
   19.8280   -4.7120    8.2690 C   0  0  0  0  0  0  0  0  0  0  0  0
   13.9390   -3.3050    7.9390 C   0  0  0  0  0  0  0  0  0  0  0  0
   16.7798   -4.8382   14.7120 H   0  0  0  0  0  0  0  0  0  0  0  0
   18.3996   -6.1874   16.0685 H   0  0  0  0  0  0  0  0  0  0  0  0
   21.9779  -10.5922   14.5227 H   0  0  0  0  0  0  0  0  0  0  0  0
   22.8364  -10.4128   16.6150 H   0  0  0  0  0  0  0  0  0  0  0  0
   22.0022   -8.7821   16.7764 H   0  0  0  0  0  0  0  0  0  0  0  0
   20.0766   -9.6892   17.6222 H   0  0  0  0  0  0  0  0  0  0  0  0
   20.5235  -11.3698   17.0163 H   0  0  0  0  0  0  0  0  0  0  0  0
   22.7630   -9.8347   20.1459 H   0  0  0  0  0  0  0  0  0  0  0  0
   21.6104   -8.7458   19.2938 H   0  0  0  0  0  0  0  0  0  0  0  0
   21.1222   -9.0866   21.7723 H   0  0  0  0  0  0  0  0  0  0  0  0
   19.7629   -9.5095   20.6557 H   0  0  0  0  0  0  0  0  0  0  0  0
   20.3952  -13.1204   21.1486 H   0  0  0  0  0  0  0  0  0  0  0  0
   19.3009  -11.9378   20.3051 H   0  0  0  0  0  0  0  0  0  0  0  0
   20.7446  -12.8314   18.6192 H   0  0  0  0  0  0  0  0  0  0  0  0
   22.2025  -12.6087   19.6539 H   0  0  0  0  0  0  0  0  0  0  0  0
   15.0924   -4.2848   13.4803 H   0  0  0  0  0  0  0  0  0  0  0  0
   13.5572   -3.1192   11.8972 H   0  0  0  0  0  0  0  0  0  0  0  0
   17.2421   -5.9837   10.1711 H   0  0  0  0  0  0  0  0  0  0  0  0
   19.1579   -9.8639   10.7661 H   0  0  0  0  0  0  0  0  0  0  0  0
   18.5515   -8.1395   10.5924 H   0  0  0  0  0  0  0  0  0  0  0  0
   21.5070   -8.7735   10.4858 H   0  0  0  0  0  0  0  0  0  0  0  0
   20.5041   -8.9236    9.0356 H   0  0  0  0  0  0  0  0  0  0  0  0
   22.5315   -6.6188    9.4223 H   0  0  0  0  0  0  0  0  0  0  0  0
   21.4667   -7.0174    8.0378 H   0  0  0  0  0  0  0  0  0  0  0  0
   21.3540   -4.4857    9.7641 H   0  0  0  0  0  0  0  0  0  0  0  0
   21.9446   -4.6332    8.0407 H   0  0  0  0  0  0  0  0  0  0  0  0
   19.1395   -4.5720    9.1154 H   0  0  0  0  0  0  0  0  0  0  0  0
   19.8454   -3.7990    7.6557 H   0  0  0  0  0  0  0  0  0  0  0  0
   19.4876   -5.5593    7.6557 H   0  0  0  0  0  0  0  0  0  0  0  0
   15.0108   -3.1919    7.7188 H   0  0  0  0  0  0  0  0  0  0  0  0
   13.5728   -4.2468    7.5044 H   0  0  0  0  0  0  0  0  0  0  0  0
   13.3842   -2.4604    7.5044 H   0  0  0  0  0  0  0  0  0  0  0  0
  1  2  2  0
  1  6  1  0
  1 21  1  0
  2  3  1  0
  3  4  2  0
  4  5  1  0
  4  7  1  0
  5  6  2  0
  5 10  1  0
  7  8  2  0
  8  9  1  0
  8 12  1  0
  9 10  1  0
  9 11  2  0
 10 27  1  0
 12 13  1  0
 13 14  1  0
 14 15  1  0
 15 16  1  0
 15 20  1  0
 16 17  1  0
 17 18  1  0
 18 19  1  0
 19 20  1  0
 21 22  2  0
 21 26  1  0
 22 23  1  0
 23 24  2  0
 24 25  1  0
 24 28  1  0
 25 26  2  0
 27 29  1  0
 28 34  1  0
 29 30  1  0
 30 31  1  0
 31 32  1  0
 32 33  1  0
  2 35  1  0
  3 36  1  0
 12 37  1  0
 13 38  1  0
 13 39  1  0
 14 40  1  0
 14 41  1  0
 16 42  1  0
 16 43  1  0
 17 44  1  0
 17 45  1  0
 19 46  1  0
 19 47  1  0
 20 48  1  0
 20 49  1  0
 22 50  1  0
 23 51  1  0
 26 52  1  0
 27 53  1  0
 27 54  1  0
 29 55  1  0
 29 56  1  0
 31 57  1  0
 31 58  1  0
 32 59  1  0
 32 60  1  0
 33 61  1  0
 33 62  1  0
 33 63  1  0
 34 64  1  0
 34 65  1  0
 34 66  1  0
A    1
C
A    2
C1
A    3
C2
A    4
C3
A    5
C4
A    6
N
A    7
N1
A    8
C5
A    9
C6
A   10
N2
A   11
O
A   12
N3
A   13
C7
A   14
C8
A   15
N4
A   16
C9
A   17
C10
A   18
O1
A   19
C11
A   20
C12
A   21
C13
A   22
C14
A   23
C15
A   24
C16
A   25
N5
A   26
C17
A   27
C18
A   28
O2
A   29
C19
A   30
O3
A   31
C20
A   32
C21
A   33
C22
A   34
C23
M  END
