3HCF_LT5_A_1001
     RDKit          3D

 24 24  0  0  0  0  0  0  0  0999 V2000
   25.8870   41.8680   15.7320 F   0  0  0  0  0  0  0  0  0  0  0  0
   27.2550   41.9080   15.7360 C   0  0  0  0  0  0  0  0  0  0  0  0
   27.7700   41.6810   14.4910 F   0  0  0  0  0  0  0  0  0  0  0  0
   27.7510   40.9370   16.5570 F   0  0  0  0  0  0  0  0  0  0  0  0
   27.7590   43.2310   16.3000 C   0  0  0  0  0  0  0  0  0  0  0  0
   28.3640   43.1600   17.5340 C   0  0  0  0  0  0  0  0  0  0  0  0
   27.6620   44.4500   15.6460 C   0  0  0  0  0  0  0  0  0  0  0  0
   28.1820   45.5850   16.2650 C   0  0  0  0  0  0  0  0  0  0  0  0
   28.8000   45.5300   17.5160 C   0  0  0  0  0  0  0  0  0  0  0  0
   28.8770   44.2880   18.1560 C   0  0  0  0  0  0  0  0  0  0  0  0
   29.5980   44.0440   19.4940 C   0  0  0  0  0  0  0  0  0  0  0  0
   30.8730   43.4720   19.2160 O   0  0  0  0  0  0  0  0  0  0  0  0
   29.6940   45.3400   20.3150 C   0  0  0  0  0  0  0  0  0  0  0  0
   28.5320   45.5060   21.1670 N   0  0  0  0  0  0  0  0  0  0  0  0
   28.4424   42.1857   18.0386 H   0  0  0  0  0  0  0  0  0  0  0  0
   27.1839   44.5196   14.6578 H   0  0  0  0  0  0  0  0  0  0  0  0
   28.1032   46.5549   15.7520 H   0  0  0  0  0  0  0  0  0  0  0  0
   29.2137   46.4354   17.9841 H   0  0  0  0  0  0  0  0  0  0  0  0
   29.0248   43.3404   20.1156 H   0  0  0  0  0  0  0  0  0  0  0  0
   31.3345   43.2650   20.0671 H   0  0  0  0  0  0  0  0  0  0  0  0
   30.5968   45.3018   20.9423 H   0  0  0  0  0  0  0  0  0  0  0  0
   29.7418   46.1911   19.6198 H   0  0  0  0  0  0  0  0  0  0  0  0
   28.8216   45.4646   22.1546 H   0  0  0  0  0  0  0  0  0  0  0  0
   28.0935   46.4182   20.9757 H   0  0  0  0  0  0  0  0  0  0  0  0
  1  2  1  0
  5  2  1  0
  4  2  1  0
  2  3  1  0
  6  5  2  0
  5  7  1  0
 10  6  1  0
  8  7  2  0
  9  8  1  0
 10  9  2  0
 11 10  1  0
 13 11  1  0
 11 12  1  0
 14 13  1  0
  6 15  1  0
  7 16  1  0
  8 17  1  0
  9 18  1  0
 11 19  1  0
 12 20  1  0
 13 21  1  0
 13 22  1  0
 14 23  1  0
 14 24  1  0
A    1
FAC
A    2
CAN
A    3
FAD
A    4
FAE
A    5
CAL
A    6
CAI
A    7
CAH
A    8
CAF
A    9
CAG
A   10
CAK
A   11
CAM
A   12
OAB
A   13
CAJ
A   14
NAA
M  END
