3HF6_LX0_A_401
     RDKit          3D

 56 59  0  0  0  0  0  0  0  0999 V2000
   15.7660    5.8280   19.3850 O   0  0  0  0  0  0  0  0  0  0  0  0
   15.2430    5.1580   18.4630 C   0  0  0  0  0  0  0  0  0  0  0  0
   15.4650    5.3890   17.2530 O   0  0  0  0  0  0  0  0  0  0  0  0
   14.2970    4.0460   18.8170 C   0  0  0  0  0  0  0  0  0  0  0  0
   14.4200    3.7060   20.2280 N   0  0  0  0  0  0  0  0  0  0  0  0
   12.8890    4.5660   18.5400 C   0  0  0  0  0  0  0  0  0  0  0  0
   11.8000    3.5370   18.7530 C   0  0  0  0  0  0  0  0  0  0  0  0
   10.8560    3.7370   19.7670 C   0  0  0  0  0  0  0  0  0  0  0  0
    9.8390    2.8030   19.9610 C   0  0  0  0  0  0  0  0  0  0  0  0
    9.7600    1.6670   19.1480 C   0  0  0  0  0  0  0  0  0  0  0  0
   10.6960    1.4780   18.1290 C   0  0  0  0  0  0  0  0  0  0  0  0
   11.7110    2.4150   17.9330 C   0  0  0  0  0  0  0  0  0  0  0  0
    8.6600    0.6830   19.3470 C   0  0  0  0  0  0  0  0  0  0  0  0
    7.6950    0.9280   20.2640 N   0  0  0  0  0  0  0  0  0  0  0  0
    6.6770    0.0520   20.4350 C   0  0  0  0  0  0  0  0  0  0  0  0
    6.6160   -1.0690   19.6780 N   0  0  0  0  0  0  0  0  0  0  0  0
    7.5790   -1.3140   18.7530 C   0  0  0  0  0  0  0  0  0  0  0  0
    7.5430   -2.4350   17.9930 N   0  0  0  0  0  0  0  0  0  0  0  0
    8.5910   -0.4340   18.5890 N   0  0  0  0  0  0  0  0  0  0  0  0
    5.7140    0.3000   21.3590 N   0  0  0  0  0  0  0  0  0  0  0  0
    5.6300    1.5680   22.0790 C   0  0  0  0  0  0  0  0  0  0  0  0
    4.7050    1.3810   23.2870 C   0  0  0  0  0  0  0  0  0  0  0  0
    5.1680    2.7030   21.2220 C   0  0  0  0  0  0  0  0  0  0  0  0
    4.7550    2.4880   19.8990 C   0  0  0  0  0  0  0  0  0  0  0  0
    4.3230    3.5190   19.0650 C   0  0  0  0  0  0  0  0  0  0  0  0
    4.2940    4.8190   19.5540 C   0  0  0  0  0  0  0  0  0  0  0  0
    3.8710    5.8840   18.7630 C   0  0  0  0  0  0  0  0  0  0  0  0
    3.8610    7.1700   19.3020 C   0  0  0  0  0  0  0  0  0  0  0  0
    4.2730    7.4030   20.6220 C   0  0  0  0  0  0  0  0  0  0  0  0
    4.7080    6.3660   21.4490 C   0  0  0  0  0  0  0  0  0  0  0  0
    4.7330    5.0680   20.9550 C   0  0  0  0  0  0  0  0  0  0  0  0
    5.1610    4.0000   21.7420 C   0  0  0  0  0  0  0  0  0  0  0  0
   15.5846    5.5956   20.3301 H   0  0  0  0  0  0  0  0  0  0  0  0
   14.5190    3.1430   18.2293 H   0  0  0  0  0  0  0  0  0  0  0  0
   14.1290    4.5105   20.8016 H   0  0  0  0  0  0  0  0  0  0  0  0
   13.8182    2.8975   20.4401 H   0  0  0  0  0  0  0  0  0  0  0  0
   12.6965    5.4171   19.2098 H   0  0  0  0  0  0  0  0  0  0  0  0
   12.8571    4.8479   17.4772 H   0  0  0  0  0  0  0  0  0  0  0  0
   10.9163    4.6283   20.4089 H   0  0  0  0  0  0  0  0  0  0  0  0
    9.0957    2.9599   20.7565 H   0  0  0  0  0  0  0  0  0  0  0  0
   10.6331    0.5911   17.4814 H   0  0  0  0  0  0  0  0  0  0  0  0
   12.4445    2.2667   17.1268 H   0  0  0  0  0  0  0  0  0  0  0  0
    7.5133   -3.3612   18.4425 H   0  0  0  0  0  0  0  0  0  0  0  0
    7.5454   -2.3610   16.9657 H   0  0  0  0  0  0  0  0  0  0  0  0
    5.0177   -0.4321   21.5595 H   0  0  0  0  0  0  0  0  0  0  0  0
    6.6431    1.8419   22.4085 H   0  0  0  0  0  0  0  0  0  0  0  0
    5.2848    1.4982   24.2144 H   0  0  0  0  0  0  0  0  0  0  0  0
    3.9052    2.1356   23.2567 H   0  0  0  0  0  0  0  0  0  0  0  0
    4.2612    0.3750   23.2567 H   0  0  0  0  0  0  0  0  0  0  0  0
    4.7726    1.4622   19.5021 H   0  0  0  0  0  0  0  0  0  0  0  0
    4.0091    3.3054   18.0326 H   0  0  0  0  0  0  0  0  0  0  0  0
    3.5486    5.7129   17.7253 H   0  0  0  0  0  0  0  0  0  0  0  0
    3.5249    8.0144   18.6824 H   0  0  0  0  0  0  0  0  0  0  0  0
    4.2529    8.4298   21.0161 H   0  0  0  0  0  0  0  0  0  0  0  0
    5.0275    6.5745   22.4807 H   0  0  0  0  0  0  0  0  0  0  0  0
    5.4941    4.1787   22.7750 H   0  0  0  0  0  0  0  0  0  0  0  0
  2  1  1  0
  3  2  2  0
  2  4  1  0
  6  4  1  0
  4  5  1  0
  6  7  1  0
 12  7  2  0
  7  8  1  0
  8  9  2  0
 10  9  1  0
 11 10  2  0
 10 13  1  0
 12 11  1  0
 19 13  1  0
 13 14  2  0
 14 15  1  0
 16 15  2  0
 15 20  1  0
 17 16  1  0
 18 17  1  0
 19 17  2  0
 20 21  1  0
 23 21  1  0
 21 22  1  0
 24 23  2  0
 23 32  1  0
 25 24  1  0
 25 26  2  0
 27 26  1  0
 26 31  1  0
 27 28  2  0
 28 29  1  0
 29 30  2  0
 31 30  1  0
 31 32  2  0
  1 33  1  0
  4 34  1  0
  5 35  1  0
  5 36  1  0
  6 37  1  0
  6 38  1  0
  8 39  1  0
  9 40  1  0
 11 41  1  0
 12 42  1  0
 18 43  1  0
 18 44  1  0
 20 45  1  0
 21 46  1  0
 22 47  1  0
 22 48  1  0
 22 49  1  0
 24 50  1  0
 25 51  1  0
 27 52  1  0
 28 53  1  0
 29 54  1  0
 30 55  1  0
 32 56  1  0
A    1
O3
A    2
C1
A    3
O2
A    4
C4
A    5
N5
A    6
C6
A    7
C7
A    8
C12
A    9
C11
A   10
C10
A   11
C9
A   12
C8
A   13
C13
A   14
N18
A   15
C17
A   16
N16
A   17
C15
A   18
N19
A   19
N14
A   20
N20
A   21
C21
A   22
C22
A   23
C23
A   24
C28
A   25
C27
A   26
C26
A   27
C32
A   28
C31
A   29
C30
A   30
C29
A   31
C25
A   32
C24
M  END
