3HF8_ML0_A_401
     RDKit          3D

 60 63  0  0  0  0  0  0  0  0999 V2000
   15.9710    7.0860   19.1490 O   0  0  0  0  0  0  0  0  0  0  0  0
   15.4020    6.3880   18.2740 C   0  0  0  0  0  0  0  0  0  0  0  0
   15.5420    6.5980   17.0400 O   0  0  0  0  0  0  0  0  0  0  0  0
   14.4860    5.2750   18.7000 C   0  0  0  0  0  0  0  0  0  0  0  0
   14.6090    4.9720   20.1190 N   0  0  0  0  0  0  0  0  0  0  0  0
   13.0770    5.7580   18.3920 C   0  0  0  0  0  0  0  0  0  0  0  0
   12.0180    4.7020   18.6070 C   0  0  0  0  0  0  0  0  0  0  0  0
   11.0900    4.8950   19.6280 C   0  0  0  0  0  0  0  0  0  0  0  0
   10.0940    3.9470   19.8430 C   0  0  0  0  0  0  0  0  0  0  0  0
   11.9450    3.5670   17.7970 C   0  0  0  0  0  0  0  0  0  0  0  0
   10.9460    2.6190   18.0180 C   0  0  0  0  0  0  0  0  0  0  0  0
   10.0190    2.8060   19.0480 C   0  0  0  0  0  0  0  0  0  0  0  0
    8.9210    1.8260   19.2940 C   0  0  0  0  0  0  0  0  0  0  0  0
    8.3210    1.7340   20.5500 C   0  0  0  0  0  0  0  0  0  0  0  0
    8.4590    1.0460   18.2820 N   0  0  0  0  0  0  0  0  0  0  0  0
    7.4460    0.1670   18.4820 C   0  0  0  0  0  0  0  0  0  0  0  0
    7.0080   -0.6080   17.4650 N   0  0  0  0  0  0  0  0  0  0  0  0
    6.8630    0.0570   19.6970 N   0  0  0  0  0  0  0  0  0  0  0  0
    7.2810    0.8250   20.7340 C   0  0  0  0  0  0  0  0  0  0  0  0
    6.6910    0.7180   21.9700 O   0  0  0  0  0  0  0  0  0  0  0  0
    5.7920   -0.3540   22.2590 C   0  0  0  0  0  0  0  0  0  0  0  0
    6.1290   -0.9110   23.6350 C   0  0  0  0  0  0  0  0  0  0  0  0
    7.4210   -1.1560   23.7170 F   0  0  0  0  0  0  0  0  0  0  0  0
    5.8130   -0.0300   24.5640 F   0  0  0  0  0  0  0  0  0  0  0  0
    5.4540   -2.0310   23.8060 F   0  0  0  0  0  0  0  0  0  0  0  0
    4.3750    0.0960   22.2050 C   0  0  0  0  0  0  0  0  0  0  0  0
    4.0260    1.4270   22.4460 C   0  0  0  0  0  0  0  0  0  0  0  0
    2.6880    1.8230   22.3940 C   0  0  0  0  0  0  0  0  0  0  0  0
    3.3770   -0.8340   21.9130 C   0  0  0  0  0  0  0  0  0  0  0  0
    2.0430   -0.4380   21.8620 C   0  0  0  0  0  0  0  0  0  0  0  0
    1.6890    0.8920   22.0980 C   0  0  0  0  0  0  0  0  0  0  0  0
    0.2520    1.2990   22.0370 C   0  0  0  0  0  0  0  0  0  0  0  0
   -0.1080    2.5620   21.5650 C   0  0  0  0  0  0  0  0  0  0  0  0
   -0.7500    0.4170   22.4560 C   0  0  0  0  0  0  0  0  0  0  0  0
   -2.0940    0.7970   22.3980 C   0  0  0  0  0  0  0  0  0  0  0  0
   -3.0530   -0.0590   22.7990 F   0  0  0  0  0  0  0  0  0  0  0  0
   -2.4420    2.0620   21.9230 C   0  0  0  0  0  0  0  0  0  0  0  0
   -1.4480    2.9440   21.5050 C   0  0  0  0  0  0  0  0  0  0  0  0
   15.8178    6.8981   20.1089 H   0  0  0  0  0  0  0  0  0  0  0  0
   14.7398    4.3471   18.1666 H   0  0  0  0  0  0  0  0  0  0  0  0
   14.2821    5.7774   20.6716 H   0  0  0  0  0  0  0  0  0  0  0  0
   14.0367    4.1458   20.3445 H   0  0  0  0  0  0  0  0  0  0  0  0
   12.8521    6.6147   19.0443 H   0  0  0  0  0  0  0  0  0  0  0  0
   13.0531    6.0282   17.3260 H   0  0  0  0  0  0  0  0  0  0  0  0
   11.1442    5.7927   20.2614 H   0  0  0  0  0  0  0  0  0  0  0  0
    9.3598    4.1002   20.6477 H   0  0  0  0  0  0  0  0  0  0  0  0
   12.6739    3.4208   16.9862 H   0  0  0  0  0  0  0  0  0  0  0  0
   10.8874    1.7237   17.3816 H   0  0  0  0  0  0  0  0  0  0  0  0
    8.6631    2.3683   21.3811 H   0  0  0  0  0  0  0  0  0  0  0  0
    6.5109   -1.4876   17.6650 H   0  0  0  0  0  0  0  0  0  0  0  0
    7.1713   -0.3190   16.4900 H   0  0  0  0  0  0  0  0  0  0  0  0
    5.9084   -1.1397   21.4980 H   0  0  0  0  0  0  0  0  0  0  0  0
    4.8077    2.1655   22.6775 H   0  0  0  0  0  0  0  0  0  0  0  0
    2.4193    2.8721   22.5868 H   0  0  0  0  0  0  0  0  0  0  0  0
    3.6448   -1.8837   21.7224 H   0  0  0  0  0  0  0  0  0  0  0  0
    1.2621   -1.1785   21.6341 H   0  0  0  0  0  0  0  0  0  0  0  0
    0.6732    3.2635   21.2369 H   0  0  0  0  0  0  0  0  0  0  0  0
   -0.4789   -0.5802   22.8329 H   0  0  0  0  0  0  0  0  0  0  0  0
   -3.4993    2.3623   21.8787 H   0  0  0  0  0  0  0  0  0  0  0  0
   -1.7198    3.9410   21.1279 H   0  0  0  0  0  0  0  0  0  0  0  0
  2  1  1  0
  3  2  2  0
  2  4  1  0
  6  4  1  0
  4  5  1  0
  6  7  1  0
 10  7  2  0
  7  8  1  0
  8  9  2  0
 12  9  1  0
 10 11  1  0
 11 12  2  0
 12 13  1  0
 15 13  1  0
 13 14  2  0
 14 19  1  0
 15 16  2  0
 17 16  1  0
 16 18  1  0
 18 19  2  0
 19 20  1  0
 20 21  1  0
 26 21  1  0
 21 22  1  0
 22 23  1  0
 22 25  1  0
 22 24  1  0
 29 26  1  0
 26 27  2  0
 28 27  1  0
 31 28  2  0
 30 29  2  0
 30 31  1  0
 32 31  1  0
 33 32  2  0
 32 34  1  0
 38 33  1  0
 35 34  2  0
 37 35  1  0
 35 36  1  0
 38 37  2  0
  1 39  1  0
  4 40  1  0
  5 41  1  0
  5 42  1  0
  6 43  1  0
  6 44  1  0
  8 45  1  0
  9 46  1  0
 10 47  1  0
 11 48  1  0
 14 49  1  0
 17 50  1  0
 17 51  1  0
 21 52  1  0
 27 53  1  0
 28 54  1  0
 29 55  1  0
 30 56  1  0
 33 57  1  0
 34 58  1  0
 37 59  1  0
 38 60  1  0
A    1
O38
A    2
C36
A    3
O37
A    4
C34
A    5
N35
A    6
C33
A    7
C30
A    8
C29
A    9
C28
A   10
C31
A   11
C32
A   12
C27
A   13
C22
A   14
C21
A   15
N23
A   16
C24
A   17
N26
A   18
N25
A   19
C20
A   20
O16
A   21
C14
A   22
C15
A   23
F19
A   24
F18
A   25
F17
A   26
C11
A   27
C10
A   28
C9
A   29
C12
A   30
C13
A   31
C8
A   32
C3
A   33
C2
A   34
C4
A   35
C5
A   36
F7
A   37
C6
A   38
C1
M  END
