3HFB_ML4_A_401
     RDKit          3D

 59 62  0  0  0  0  0  0  0  0999 V2000
   16.0630    5.9860   19.2230 O   0  0  0  0  0  0  0  0  0  0  0  0
   15.4590    5.2980   18.3710 C   0  0  0  0  0  0  0  0  0  0  0  0
   15.6400    5.4490   17.1480 O   0  0  0  0  0  0  0  0  0  0  0  0
   14.4830    4.2540   18.8360 C   0  0  0  0  0  0  0  0  0  0  0  0
   14.6730    3.9930   20.2560 N   0  0  0  0  0  0  0  0  0  0  0  0
   13.0670    4.7470   18.5610 C   0  0  0  0  0  0  0  0  0  0  0  0
   12.0220    3.6870   18.8300 C   0  0  0  0  0  0  0  0  0  0  0  0
   11.8420    2.6290   17.9430 C   0  0  0  0  0  0  0  0  0  0  0  0
   10.8710    1.6600   18.2030 C   0  0  0  0  0  0  0  0  0  0  0  0
   10.0710    1.7510   19.3470 C   0  0  0  0  0  0  0  0  0  0  0  0
   10.2620    2.8060   20.2390 C   0  0  0  0  0  0  0  0  0  0  0  0
   11.2330    3.7700   19.9810 C   0  0  0  0  0  0  0  0  0  0  0  0
    9.0410    0.7130   19.6260 C   0  0  0  0  0  0  0  0  0  0  0  0
    8.8310   -0.3130   18.7630 N   0  0  0  0  0  0  0  0  0  0  0  0
    7.9100   -1.2530   19.0050 C   0  0  0  0  0  0  0  0  0  0  0  0
    7.1540   -1.1840   20.1670 C   0  0  0  0  0  0  0  0  0  0  0  0
    7.3640   -0.1650   21.0310 N   0  0  0  0  0  0  0  0  0  0  0  0
    8.2840    0.7780   20.7890 C   0  0  0  0  0  0  0  0  0  0  0  0
    6.2210   -2.1260   20.4420 N   0  0  0  0  0  0  0  0  0  0  0  0
    5.8650   -2.4200   21.8260 C   0  0  0  0  0  0  0  0  0  0  0  0
    5.1650   -3.7610   21.9390 C   0  0  0  0  0  0  0  0  0  0  0  0
    3.7380   -3.8550   22.3810 C   0  0  0  0  0  0  0  0  0  0  0  0
    3.1370   -5.1110   22.4740 C   0  0  0  0  0  0  0  0  0  0  0  0
    3.8690   -6.2550   22.1600 C   0  0  0  0  0  0  0  0  0  0  0  0
    5.1990   -6.1710   21.7430 C   0  0  0  0  0  0  0  0  0  0  0  0
    5.8450   -4.9400   21.6360 C   0  0  0  0  0  0  0  0  0  0  0  0
    2.9570   -2.6340   22.7240 C   0  0  0  0  0  0  0  0  0  0  0  0
    2.3090   -1.9230   21.7170 C   0  0  0  0  0  0  0  0  0  0  0  0
    1.5760   -0.7780   22.0300 C   0  0  0  0  0  0  0  0  0  0  0  0
    1.4790   -0.3290   23.3470 C   0  0  0  0  0  0  0  0  0  0  0  0
    2.1110   -1.0070   24.3920 C   0  0  0  0  0  0  0  0  0  0  0  0
    2.8560   -2.1560   24.1350 C   0  0  0  0  0  0  0  0  0  0  0  0
    3.5380   -2.8860   25.2730 C   0  0  0  0  0  0  0  0  0  0  0  0
   15.9167    5.8194   20.1879 H   0  0  0  0  0  0  0  0  0  0  0  0
   14.6502    3.3129   18.2915 H   0  0  0  0  0  0  0  0  0  0  0  0
   14.1605    4.6970   20.8061 H   0  0  0  0  0  0  0  0  0  0  0  0
   14.3165    3.0537   20.4832 H   0  0  0  0  0  0  0  0  0  0  0  0
   12.8639    5.6143   19.2063 H   0  0  0  0  0  0  0  0  0  0  0  0
   13.0068    5.0128   17.4953 H   0  0  0  0  0  0  0  0  0  0  0  0
   12.4640    2.5566   17.0386 H   0  0  0  0  0  0  0  0  0  0  0  0
   10.7344    0.8209   17.5049 H   0  0  0  0  0  0  0  0  0  0  0  0
    9.6451    2.8766   21.1470 H   0  0  0  0  0  0  0  0  0  0  0  0
   11.3800    4.6011   20.6864 H   0  0  0  0  0  0  0  0  0  0  0  0
    7.7533   -2.0734   18.2892 H   0  0  0  0  0  0  0  0  0  0  0  0
    8.4390    1.5978   21.5059 H   0  0  0  0  0  0  0  0  0  0  0  0
    5.7622   -2.6355   19.6734 H   0  0  0  0  0  0  0  0  0  0  0  0
    6.7805   -2.4406   22.4354 H   0  0  0  0  0  0  0  0  0  0  0  0
    5.1791   -1.6377   22.1831 H   0  0  0  0  0  0  0  0  0  0  0  0
    2.0883   -5.1981   22.7943 H   0  0  0  0  0  0  0  0  0  0  0  0
    3.3902   -7.2419   22.2422 H   0  0  0  0  0  0  0  0  0  0  0  0
    5.7466   -7.0921   21.4946 H   0  0  0  0  0  0  0  0  0  0  0  0
    6.8952   -4.8988   21.3113 H   0  0  0  0  0  0  0  0  0  0  0  0
    2.3752   -2.2646   20.6735 H   0  0  0  0  0  0  0  0  0  0  0  0
    1.0681   -0.2223   21.2280 H   0  0  0  0  0  0  0  0  0  0  0  0
    0.8938    0.5761   23.5668 H   0  0  0  0  0  0  0  0  0  0  0  0
    2.0201   -0.6322   25.4222 H   0  0  0  0  0  0  0  0  0  0  0  0
    3.1711   -2.4932   26.2327 H   0  0  0  0  0  0  0  0  0  0  0  0
    3.3129   -3.9607   25.2065 H   0  0  0  0  0  0  0  0  0  0  0  0
    4.6255   -2.7344   25.2065 H   0  0  0  0  0  0  0  0  0  0  0  0
  2  1  1  0
  3  2  2  0
  2  4  1  0
  6  4  1  0
  4  5  1  0
  6  7  1  0
  8  7  2  0
  7 12  1  0
  8  9  1  0
  9 10  2  0
 10 13  1  0
 10 11  1  0
 12 11  2  0
 14 13  2  0
 13 18  1  0
 14 15  1  0
 15 16  2  0
 16 19  1  0
 16 17  1  0
 18 17  2  0
 19 20  1  0
 20 21  1  0
 26 21  2  0
 21 22  1  0
 22 23  2  0
 22 27  1  0
 24 23  1  0
 25 24  2  0
 26 25  1  0
 28 27  2  0
 27 32  1  0
 28 29  1  0
 29 30  2  0
 30 31  1  0
 32 31  2  0
 32 33  1  0
  1 34  1  0
  4 35  1  0
  5 36  1  0
  5 37  1  0
  6 38  1  0
  6 39  1  0
  8 40  1  0
  9 41  1  0
 11 42  1  0
 12 43  1  0
 15 44  1  0
 18 45  1  0
 19 46  1  0
 20 47  1  0
 20 48  1  0
 23 49  1  0
 24 50  1  0
 25 51  1  0
 26 52  1  0
 28 53  1  0
 29 54  1  0
 30 55  1  0
 31 56  1  0
 33 57  1  0
 33 58  1  0
 33 59  1  0
A    1
O3
A    2
C2
A    3
O1
A    4
C4
A    5
N5
A    6
C6
A    7
C7
A    8
C12
A    9
C11
A   10
C10
A   11
C9
A   12
C8
A   13
C13
A   14
N18
A   15
C17
A   16
C16
A   17
N15
A   18
C14
A   19
N19
A   20
C20
A   21
C21
A   22
C26
A   23
C25
A   24
C24
A   25
C23
A   26
C22
A   27
C27
A   28
C32
A   29
C31
A   30
C30
A   31
C29
A   32
C28
A   33
C33
M  END
