1A8U_BEZ_A_295
     RDKit          3D

 15 15  0  0  0  0  0  0  0  0999 V2000
    9.8410   37.1410   33.3120 C   0  0  0  0  0  0  0  0  0  0  0  0
   10.6830   37.7610   34.0370 O   0  0  0  0  0  0  0  0  0  0  0  0
    9.9330   37.1070   32.0550 O   0  0  0  0  0  0  0  0  0  0  0  0
    8.7530   36.3960   33.9960 C   0  0  0  0  0  0  0  0  0  0  0  0
    8.1590   36.8560   35.1620 C   0  0  0  0  0  0  0  0  0  0  0  0
    7.1110   36.1640   35.7270 C   0  0  0  0  0  0  0  0  0  0  0  0
    6.7070   34.9730   35.1960 C   0  0  0  0  0  0  0  0  0  0  0  0
    7.2830   34.4820   34.0480 C   0  0  0  0  0  0  0  0  0  0  0  0
    8.3030   35.1750   33.4500 C   0  0  0  0  0  0  0  0  0  0  0  0
   10.7709   36.7973   31.6282 H   0  0  0  0  0  0  0  0  0  0  0  0
    8.5266   37.7774   35.6373 H   0  0  0  0  0  0  0  0  0  0  0  0
    6.5973   36.5726   36.6097 H   0  0  0  0  0  0  0  0  0  0  0  0
    5.9108   34.3990   35.6927 H   0  0  0  0  0  0  0  0  0  0  0  0
    6.9267   33.5372   33.6116 H   0  0  0  0  0  0  0  0  0  0  0  0
    8.7738   34.7771   32.5389 H   0  0  0  0  0  0  0  0  0  0  0  0
  1  2  2  0
  1  3  1  0
  1  4  1  0
  4  5  2  0
  4  9  1  0
  5  6  1  0
  6  7  2  0
  7  8  1  0
  8  9  2  0
  3 10  1  0
  5 11  1  0
  6 12  1  0
  7 13  1  0
  8 14  1  0
  9 15  1  0
A    1
C
A    2
O1
A    3
O2
A    4
C1
A    5
C2
A    6
C3
A    7
C4
A    8
C5
A    9
C6
M  END
