3HHU_819_A_500
     RDKit          3D

 54 56  0  0  0  0  0  0  0  0999 V2000
    5.2570  -41.5480    1.5280 C   0  0  0  0  0  0  0  0  0  0  0  0
    4.8970  -42.0290    0.1190 C   0  0  0  0  0  0  0  0  0  0  0  0
    4.2350  -40.9710   -0.6260 O   0  0  0  0  0  0  0  0  0  0  0  0
    5.1000  -39.9460   -0.9420 C   0  0  0  0  0  0  0  0  0  0  0  0
    6.3080  -40.0830   -0.7190 O   0  0  0  0  0  0  0  0  0  0  0  0
    4.6050  -38.8660   -1.5590 N   0  0  0  0  0  0  0  0  0  0  0  0
    3.2030  -38.7750   -1.9970 C   0  0  0  0  0  0  0  0  0  0  0  0
    2.3090  -38.3160   -0.9170 C   0  0  0  0  0  0  0  0  0  0  0  0
    2.7910  -37.6010    0.2000 C   0  0  0  0  0  0  0  0  0  0  0  0
    1.8870  -37.0330    1.1190 C   0  0  0  0  0  0  0  0  0  0  0  0
    0.9230  -38.4590   -1.1060 C   0  0  0  0  0  0  0  0  0  0  0  0
    0.0190  -37.8920   -0.1900 C   0  0  0  0  0  0  0  0  0  0  0  0
    0.4950  -37.1730    0.9270 C   0  0  0  0  0  0  0  0  0  0  0  0
   -0.3780  -36.5770    1.7790 N   0  0  0  0  0  0  0  0  0  0  0  0
   -0.7360  -37.0400    2.9590 C   0  0  0  0  0  0  0  0  0  0  0  0
   -0.1510  -38.4890    3.7070 S   0  0  0  0  0  0  0  0  0  0  0  0
   -1.6130  -36.1970    3.5000 N   0  0  0  0  0  0  0  0  0  0  0  0
   -1.7960  -35.2480    2.7010 N   0  0  0  0  0  0  0  0  0  0  0  0
   -1.0460  -35.4220    1.5930 C   0  0  0  0  0  0  0  0  0  0  0  0
   -0.9780  -34.5460    0.4830 C   0  0  0  0  0  0  0  0  0  0  0  0
    0.2700  -34.0240    0.0880 C   0  0  0  0  0  0  0  0  0  0  0  0
    0.3970  -33.2730   -1.0950 C   0  0  0  0  0  0  0  0  0  0  0  0
    1.7670  -32.6880   -1.5090 C   0  0  0  0  0  0  0  0  0  0  0  0
    2.0020  -31.3650   -0.7710 C   0  0  0  0  0  0  0  0  0  0  0  0
    2.9060  -33.6820   -1.2260 C   0  0  0  0  0  0  0  0  0  0  0  0
   -0.7400  -33.0370   -1.8930 C   0  0  0  0  0  0  0  0  0  0  0  0
   -0.6190  -32.3760   -3.0770 O   0  0  0  0  0  0  0  0  0  0  0  0
   -1.9950  -33.5330   -1.4950 C   0  0  0  0  0  0  0  0  0  0  0  0
   -2.1230  -34.2800   -0.3090 C   0  0  0  0  0  0  0  0  0  0  0  0
   -3.3600  -34.6710    0.0980 O   0  0  0  0  0  0  0  0  0  0  0  0
    4.7715  -42.1966    2.2721 H   0  0  0  0  0  0  0  0  0  0  0  0
    6.3480  -41.5891    1.6619 H   0  0  0  0  0  0  0  0  0  0  0  0
    4.9099  -40.5128    1.6619 H   0  0  0  0  0  0  0  0  0  0  0  0
    5.8161  -42.3232   -0.4090 H   0  0  0  0  0  0  0  0  0  0  0  0
    4.2148  -42.8881    0.1996 H   0  0  0  0  0  0  0  0  0  0  0  0
    5.2305  -38.0667   -1.7342 H   0  0  0  0  0  0  0  0  0  0  0  0
    3.1393  -38.0652   -2.8349 H   0  0  0  0  0  0  0  0  0  0  0  0
    2.8781  -39.7817   -2.2986 H   0  0  0  0  0  0  0  0  0  0  0  0
    3.8743  -37.4870    0.3533 H   0  0  0  0  0  0  0  0  0  0  0  0
    2.2669  -36.4782    1.9896 H   0  0  0  0  0  0  0  0  0  0  0  0
    0.5439  -39.0172   -1.9747 H   0  0  0  0  0  0  0  0  0  0  0  0
   -1.0637  -38.0095   -0.3449 H   0  0  0  0  0  0  0  0  0  0  0  0
   -0.2056  -38.3538    5.0692 H   0  0  0  0  0  0  0  0  0  0  0  0
    1.1567  -34.2061    0.7129 H   0  0  0  0  0  0  0  0  0  0  0  0
    1.7580  -32.5002   -2.5928 H   0  0  0  0  0  0  0  0  0  0  0  0
    1.9709  -31.5401    0.3145 H   0  0  0  0  0  0  0  0  0  0  0  0
    2.9862  -30.9599   -1.0490 H   0  0  0  0  0  0  0  0  0  0  0  0
    1.2176  -30.6457   -1.0490 H   0  0  0  0  0  0  0  0  0  0  0  0
    3.0338  -33.7935   -0.1391 H   0  0  0  0  0  0  0  0  0  0  0  0
    2.6589  -34.6584   -1.6682 H   0  0  0  0  0  0  0  0  0  0  0  0
    3.8400  -33.3050   -1.6682 H   0  0  0  0  0  0  0  0  0  0  0  0
   -0.4407  -31.4022   -3.0843 H   0  0  0  0  0  0  0  0  0  0  0  0
   -2.8821  -33.3357   -2.1148 H   0  0  0  0  0  0  0  0  0  0  0  0
   -3.5656  -34.7360    1.0642 H   0  0  0  0  0  0  0  0  0  0  0  0
  1  2  1  0
  2  3  1  0
  3  4  1  0
  4  5  2  0
  4  6  1  0
  6  7  1  0
  7  8  1  0
  8  9  2  0
  8 11  1  0
  9 10  1  0
 10 13  2  0
 11 12  2  0
 12 13  1  0
 13 14  1  0
 14 15  1  0
 14 19  1  0
 15 16  1  0
 15 17  2  0
 17 18  1  0
 18 19  2  0
 19 20  1  0
 20 21  2  0
 20 29  1  0
 21 22  1  0
 22 23  1  0
 22 26  2  0
 23 24  1  0
 23 25  1  0
 26 27  1  0
 26 28  1  0
 28 29  2  0
 29 30  1  0
  1 31  1  0
  1 32  1  0
  1 33  1  0
  2 34  1  0
  2 35  1  0
  6 36  1  0
  7 37  1  0
  7 38  1  0
  9 39  1  0
 10 40  1  0
 11 41  1  0
 12 42  1  0
 16 43  1  0
 21 44  1  0
 23 45  1  0
 24 46  1  0
 24 47  1  0
 24 48  1  0
 25 49  1  0
 25 50  1  0
 25 51  1  0
 27 52  1  0
 28 53  1  0
 30 54  1  0
A    1
C1
A    2
C2
A    3
O3
A    4
C4
A    5
O5
A    6
N6
A    7
C8
A    8
C9
A    9
C12
A   10
C13
A   11
C10
A   12
C11
A   13
C14
A   14
N15
A   15
C16
A   16
S17
A   17
N18
A   18
N20
A   19
C21
A   20
C22
A   21
C23
A   22
C24
A   23
C25
A   24
C27
A   25
C26
A   26
C28
A   27
O29
A   28
C31
A   29
C32
A   30
O33
M  END
