1D63_BRN_B_25
     RDKit          3D

 36 37  0  0  0  0  0  0  0  0999 V2000
    7.9290   24.3900   71.6620 C   0  0  0  0  0  0  0  0  0  0  0  0
    7.4490   25.3730   70.7900 C   0  0  0  0  0  0  0  0  0  0  0  0
    8.1900   25.7140   69.6830 C   0  0  0  0  0  0  0  0  0  0  0  0
    9.3900   25.1010   69.4040 C   0  0  0  0  0  0  0  0  0  0  0  0
    9.8460   24.1220   70.2820 C   0  0  0  0  0  0  0  0  0  0  0  0
    9.1290   23.7650   71.4140 C   0  0  0  0  0  0  0  0  0  0  0  0
   10.1250   25.4580   68.2910 C   0  0  0  0  0  0  0  0  0  0  0  0
   11.1180   24.6260   67.8220 N   0  0  0  0  0  0  0  0  0  0  0  0
    9.9590   26.7250   67.7570 N   0  0  0  0  0  0  0  0  0  0  0  0
    7.1380   24.0780   72.7740 N   0  0  0  0  0  0  0  0  0  0  0  0
    7.6310   23.3260   73.7700 N   0  0  0  0  0  0  0  0  0  0  0  0
    6.7220   22.6930   74.4010 N   0  0  0  0  0  0  0  0  0  0  0  0
    7.2980   21.9290   75.4680 C   0  0  0  0  0  0  0  0  0  0  0  0
    8.6440   21.6050   75.5920 C   0  0  0  0  0  0  0  0  0  0  0  0
    9.0630   20.8940   76.6850 C   0  0  0  0  0  0  0  0  0  0  0  0
    8.1610   20.4670   77.6480 C   0  0  0  0  0  0  0  0  0  0  0  0
    6.8300   20.7920   77.5240 C   0  0  0  0  0  0  0  0  0  0  0  0
    6.3890   21.5310   76.4310 C   0  0  0  0  0  0  0  0  0  0  0  0
    8.5700   19.7320   78.7350 C   0  0  0  0  0  0  0  0  0  0  0  0
    9.9230   19.5780   78.9880 N   0  0  0  0  0  0  0  0  0  0  0  0
    7.6580   18.9200   79.3980 N   0  0  0  0  0  0  0  0  0  0  0  0
    6.4873   25.8688   70.9882 H   0  0  0  0  0  0  0  0  0  0  0  0
    7.8149   26.4947   69.0049 H   0  0  0  0  0  0  0  0  0  0  0  0
   10.8009   23.6179   70.0723 H   0  0  0  0  0  0  0  0  0  0  0  0
    9.5127   22.9963   72.1009 H   0  0  0  0  0  0  0  0  0  0  0  0
   11.6651   24.8943   66.9916 H   0  0  0  0  0  0  0  0  0  0  0  0
    9.8526   27.5372   68.3815 H   0  0  0  0  0  0  0  0  0  0  0  0
    9.9420   26.8551   66.7354 H   0  0  0  0  0  0  0  0  0  0  0  0
    6.1708   24.4281   72.8281 H   0  0  0  0  0  0  0  0  0  0  0  0
    9.3644   21.9161   74.8211 H   0  0  0  0  0  0  0  0  0  0  0  0
   10.1311   20.6581   76.8008 H   0  0  0  0  0  0  0  0  0  0  0  0
    6.1123   20.4665   78.2914 H   0  0  0  0  0  0  0  0  0  0  0  0
    5.3260   21.7965   76.3336 H   0  0  0  0  0  0  0  0  0  0  0  0
   10.2356   19.0283   79.8010 H   0  0  0  0  0  0  0  0  0  0  0  0
    7.6379   18.9021   80.4276 H   0  0  0  0  0  0  0  0  0  0  0  0
    7.0021   18.3360   78.8598 H   0  0  0  0  0  0  0  0  0  0  0  0
  1  2  2  0
  1  6  1  0
  1 10  1  0
  2  3  1  0
  3  4  2  0
  4  5  1  0
  4  7  1  0
  5  6  2  0
  7  8  2  3
  7  9  1  0
 10 11  1  0
 11 12  2  0
 12 13  1  0
 13 14  2  0
 13 18  1  0
 14 15  1  0
 15 16  2  0
 16 17  1  0
 16 19  1  0
 17 18  2  0
 19 20  2  3
 19 21  1  0
  2 22  1  0
  3 23  1  0
  5 24  1  0
  6 25  1  0
  8 26  1  0
  9 27  1  0
  9 28  1  0
 10 29  1  0
 14 30  1  0
 15 31  1  0
 17 32  1  0
 18 33  1  0
 20 34  1  0
 21 35  1  0
 21 36  1  0
A    1
C1
A    2
C2
A    3
C3
A    4
C4
A    5
C5
A    6
C6
A    7
C7
A    8
NA
A    9
NB
A   10
N1
A   11
N
A   12
N1'
A   13
C1'
A   14
C2'
A   15
C3'
A   16
C4'
A   17
C5'
A   18
C6'
A   19
C7'
A   20
NA'
A   21
NB'
M  END
