1KNF_MBD_A_301
     RDKit          3D

 17 17  0  0  0  0  0  0  0  0999 V2000
   20.9020  -20.6620   71.3440 C   0  0  0  0  0  0  0  0  0  0  0  0
   21.1600  -19.3760   70.9310 O   0  0  0  0  0  0  0  0  0  0  0  0
   21.9430  -21.4870   71.6360 C   0  0  0  0  0  0  0  0  0  0  0  0
   23.2250  -21.0240   71.5100 O   0  0  0  0  0  0  0  0  0  0  0  0
   21.7160  -22.7790   72.0430 C   0  0  0  0  0  0  0  0  0  0  0  0
   22.8850  -23.6330   72.3480 C   0  0  0  0  0  0  0  0  0  0  0  0
   20.4140  -23.2560   72.1680 C   0  0  0  0  0  0  0  0  0  0  0  0
   19.3510  -22.4230   71.8750 C   0  0  0  0  0  0  0  0  0  0  0  0
   19.5870  -21.1210   71.4710 C   0  0  0  0  0  0  0  0  0  0  0  0
   21.3035  -18.6606   71.6001 H   0  0  0  0  0  0  0  0  0  0  0  0
   23.7628  -20.8298   72.3182 H   0  0  0  0  0  0  0  0  0  0  0  0
   23.0021  -23.7185   73.4384 H   0  0  0  0  0  0  0  0  0  0  0  0
   22.7312  -24.6329   71.9162 H   0  0  0  0  0  0  0  0  0  0  0  0
   23.7908  -23.1825   71.9162 H   0  0  0  0  0  0  0  0  0  0  0  0
   20.2326  -24.2895   72.4979 H   0  0  0  0  0  0  0  0  0  0  0  0
   18.3193  -22.7944   71.9628 H   0  0  0  0  0  0  0  0  0  0  0  0
   18.7439  -20.4497   71.2506 H   0  0  0  0  0  0  0  0  0  0  0  0
  1  2  1  0
  1  3  2  0
  1  9  1  0
  3  4  1  0
  3  5  1  0
  5  6  1  0
  5  7  2  0
  7  8  1  0
  8  9  2  0
  2 10  1  0
  4 11  1  0
  6 12  1  0
  6 13  1  0
  6 14  1  0
  7 15  1  0
  8 16  1  0
  9 17  1  0
A    1
CA1
A    2
OA1
A    3
CA2
A    4
OA2
A    5
CA3
A    6
CB3
A    7
CA4
A    8
CA5
A    9
CA6
M  END
