3HKT_2SD_A_300
     RDKit          3D

 49 50  0  0  0  0  0  0  0  0999 V2000
   18.6160    6.2680    9.9040 O   0  0  0  0  0  0  0  0  0  0  0  0
   17.5860    7.2550    9.8730 C   0  0  0  0  0  0  0  0  0  0  0  0
   18.0340    8.5950   10.5410 C   0  0  0  0  0  0  0  0  0  0  0  0
   18.9690    9.3230    9.7020 O   0  0  0  0  0  0  0  0  0  0  0  0
   16.8300    9.4860   11.0430 C   0  0  0  0  0  0  0  0  0  0  0  0
   16.5730   10.6290   10.2200 O   0  0  0  0  0  0  0  0  0  0  0  0
   15.5080    8.6570   11.3410 C   0  0  0  0  0  0  0  0  0  0  0  0
   14.2380    9.4370   11.5920 C   0  0  0  0  0  0  0  0  0  0  0  0
   14.0850   10.4020   10.5420 O   0  0  0  0  0  0  0  0  0  0  0  0
   15.2840    7.5610   10.3750 O   0  0  0  0  0  0  0  0  0  0  0  0
   16.3850    6.6540   10.5810 C   0  0  0  0  0  0  0  0  0  0  0  0
   16.5590    6.6710   12.0260 O   0  0  0  0  0  0  0  0  0  0  0  0
   17.1300    5.6170   12.8940 C   0  0  0  0  0  0  0  0  0  0  0  0
   16.9410    4.1370   12.5070 C   0  0  0  0  0  0  0  0  0  0  0  0
   16.2950    3.9570   11.2230 O   0  0  0  0  0  0  0  0  0  0  0  0
   16.3460    3.2370   13.6160 C   0  0  0  0  0  0  0  0  0  0  0  0
   16.9750    1.9390   13.4230 O   0  0  0  0  0  0  0  0  0  0  0  0
   16.6390    3.7160   15.0910 C   0  0  0  0  0  0  0  0  0  0  0  0
   15.6470    2.8520   16.3560 S   0  0  0  0  0  0  0  0  0  0  0  0
   16.1970    3.2110   17.7180 O   0  0  0  0  0  0  0  0  0  0  0  0
   14.1850    3.2210   16.2350 O   0  0  0  0  0  0  0  0  0  0  0  0
   15.8320    1.2220   16.0780 N   0  0  0  0  0  0  0  0  0  0  0  0
   16.5320    5.1280   15.3730 O   0  0  0  0  0  0  0  0  0  0  0  0
   16.7720    6.0940   14.3390 C   0  0  0  0  0  0  0  0  0  0  0  0
   15.4640    6.8500   14.2580 C   0  0  0  0  0  0  0  0  0  0  0  0
   15.3950    7.7350   15.3230 O   0  0  0  0  0  0  0  0  0  0  0  0
   18.8396    6.0538   10.8443 H   0  0  0  0  0  0  0  0  0  0  0  0
   17.3391    7.5164    8.8334 H   0  0  0  0  0  0  0  0  0  0  0  0
   18.5741    8.3175   11.4582 H   0  0  0  0  0  0  0  0  0  0  0  0
   19.6071    9.8198   10.2731 H   0  0  0  0  0  0  0  0  0  0  0  0
   17.1725    9.8807   12.0109 H   0  0  0  0  0  0  0  0  0  0  0  0
   16.3961   11.4159   10.7941 H   0  0  0  0  0  0  0  0  0  0  0  0
   15.7408    8.2248   12.3254 H   0  0  0  0  0  0  0  0  0  0  0  0
   13.3765    8.7530   11.5965 H   0  0  0  0  0  0  0  0  0  0  0  0
   14.2920    9.9440   12.5667 H   0  0  0  0  0  0  0  0  0  0  0  0
   13.9428   11.2989   10.9363 H   0  0  0  0  0  0  0  0  0  0  0  0
   16.2403    5.6313   10.2027 H   0  0  0  0  0  0  0  0  0  0  0  0
   18.2192    5.5326   12.7658 H   0  0  0  0  0  0  0  0  0  0  0  0
   17.9702    3.7674   12.3886 H   0  0  0  0  0  0  0  0  0  0  0  0
   15.3509    3.6939   11.3626 H   0  0  0  0  0  0  0  0  0  0  0  0
   15.2500    3.2444   13.5229 H   0  0  0  0  0  0  0  0  0  0  0  0
   17.1716    1.5333   14.3044 H   0  0  0  0  0  0  0  0  0  0  0  0
   17.7044    3.4494   15.1522 H   0  0  0  0  0  0  0  0  0  0  0  0
   15.8885    0.7244   16.9781 H   0  0  0  0  0  0  0  0  0  0  0  0
   15.0254    0.8714   15.5419 H   0  0  0  0  0  0  0  0  0  0  0  0
   17.6829    6.6370   14.6312 H   0  0  0  0  0  0  0  0  0  0  0  0
   15.4164    7.4067   13.3105 H   0  0  0  0  0  0  0  0  0  0  0  0
   14.6206    6.1452   14.3014 H   0  0  0  0  0  0  0  0  0  0  0  0
   15.4343    7.2308   16.1741 H   0  0  0  0  0  0  0  0  0  0  0  0
  1  2  1  0
  2  3  1  0
  2 11  1  0
  3  4  1  0
  3  5  1  0
  5  6  1  0
  5  7  1  0
  7  8  1  0
  7 10  1  0
  8  9  1  0
 10 11  1  0
 11 12  1  0
 12 13  1  0
 13 14  1  0
 13 24  1  0
 14 15  1  0
 14 16  1  0
 16 17  1  0
 16 18  1  0
 18 19  1  0
 18 23  1  0
 19 20  2  0
 19 21  2  0
 19 22  1  0
 23 24  1  0
 24 25  1  0
 25 26  1  0
  1 27  1  0
  2 28  1  0
  3 29  1  0
  4 30  1  0
  5 31  1  0
  6 32  1  0
  7 33  1  0
  8 34  1  0
  8 35  1  0
  9 36  1  0
 11 37  1  0
 13 38  1  0
 14 39  1  0
 15 40  1  0
 16 41  1  0
 17 42  1  0
 18 43  1  0
 22 44  1  0
 22 45  1  0
 24 46  1  0
 25 47  1  0
 25 48  1  0
 26 49  1  0
A    1
O8
A    2
C8
A    3
C9
A    4
O9
A    5
C10
A    6
O10
A    7
C11
A    8
C12
A    9
O12
A   10
O11
A   11
C7
A   12
O4
A   13
C4
A   14
C3
A   15
O3
A   16
C2
A   17
O2
A   18
C1
A   19
SAI
A   20
OAM
A   21
OAE
A   22
NAJ
A   23
O5
A   24
C5
A   25
C6
A   26
O6
M  END
