3HL5_9JZ_A_1
     RDKit          3D

 75 78  0  0  0  0  0  0  0  0999 V2000
    9.7840   12.4600  -19.7000 O   0  0  0  0  0  0  0  0  0  0  0  0
    8.7630   12.3680  -20.3720 C   0  0  0  0  0  0  0  0  0  0  0  0
    8.2410   13.5790  -21.1010 C   0  0  0  0  0  0  0  0  0  0  0  0
    8.7570   13.5560  -22.5550 C   0  0  0  0  0  0  0  0  0  0  0  0
   10.2850   13.6620  -22.6990 C   0  0  0  0  0  0  0  0  0  0  0  0
   10.7280   13.5190  -24.1600 C   0  0  0  0  0  0  0  0  0  0  0  0
    9.9800   14.4840  -25.0840 C   0  0  0  0  0  0  0  0  0  0  0  0
    8.4630   14.3590  -24.9150 C   0  0  0  0  0  0  0  0  0  0  0  0
    8.0540   14.5740  -23.4590 C   0  0  0  0  0  0  0  0  0  0  0  0
    8.6620   14.8220  -20.4610 N   0  0  0  0  0  0  0  0  0  0  0  0
    7.8500   15.8680  -20.3170 C   0  0  0  0  0  0  0  0  0  0  0  0
    6.6960   15.9000  -20.7290 O   0  0  0  0  0  0  0  0  0  0  0  0
    8.4430   17.0640  -19.6330 C   0  0  0  0  0  0  0  0  0  0  0  0
    8.4050   16.8550  -18.1220 C   0  0  0  0  0  0  0  0  0  0  0  0
    7.7540   18.2890  -20.0140 N   0  0  0  0  0  0  0  0  0  0  0  0
    7.9220   18.8070  -21.3610 C   0  0  0  0  0  0  0  0  0  0  0  0
    8.0770   11.2240  -20.5180 N   0  0  0  0  0  0  0  0  0  0  0  0
    6.8450   11.0300  -21.2960 C   0  0  0  0  0  0  0  0  0  0  0  0
    6.2930    9.7010  -20.8050 C   0  0  0  0  0  0  0  0  0  0  0  0
    7.5310    8.9340  -20.4120 C   0  0  0  0  0  0  0  0  0  0  0  0
    7.2650    7.7770  -19.4560 C   0  0  0  0  0  0  0  0  0  0  0  0
    8.4990    9.9800  -19.8640 C   0  0  0  0  0  0  0  0  0  0  0  0
    9.8670    9.4940  -20.2350 C   0  0  0  0  0  0  0  0  0  0  0  0
   10.5250    8.9130  -19.3870 O   0  0  0  0  0  0  0  0  0  0  0  0
   10.2880    9.7190  -21.4890 N   0  0  0  0  0  0  0  0  0  0  0  0
   11.5270    9.2650  -21.9680 C   0  0  0  0  0  0  0  0  0  0  0  0
   12.6520    9.2010  -21.1370 C   0  0  0  0  0  0  0  0  0  0  0  0
   13.8620    8.7140  -21.6220 C   0  0  0  0  0  0  0  0  0  0  0  0
   13.9600    8.2810  -22.9420 C   0  0  0  0  0  0  0  0  0  0  0  0
   12.8420    8.3280  -23.7700 C   0  0  0  0  0  0  0  0  0  0  0  0
   11.6220    8.8150  -23.2890 C   0  0  0  0  0  0  0  0  0  0  0  0
   10.4640    8.8560  -24.2310 C   0  0  0  0  0  0  0  0  0  0  0  0
   10.3960    7.9550  -25.2470 N   0  0  0  0  0  0  0  0  0  0  0  0
    9.3760    7.9750  -26.1190 C   0  0  0  0  0  0  0  0  0  0  0  0
    8.3790    8.9380  -25.9920 C   0  0  0  0  0  0  0  0  0  0  0  0
    8.4630    9.8620  -24.9520 C   0  0  0  0  0  0  0  0  0  0  0  0
    9.5010    9.8070  -24.1000 N   0  0  0  0  0  0  0  0  0  0  0  0
    7.1419   13.5419  -21.0781 H   0  0  0  0  0  0  0  0  0  0  0  0
    8.4876   12.5481  -22.9035 H   0  0  0  0  0  0  0  0  0  0  0  0
   10.6115   14.6424  -22.3218 H   0  0  0  0  0  0  0  0  0  0  0  0
   10.7415   12.8452  -22.1206 H   0  0  0  0  0  0  0  0  0  0  0  0
   11.8060   13.7279  -24.2262 H   0  0  0  0  0  0  0  0  0  0  0  0
   10.5005   12.4930  -24.4848 H   0  0  0  0  0  0  0  0  0  0  0  0
   10.2827   15.5143  -24.8456 H   0  0  0  0  0  0  0  0  0  0  0  0
   10.2336   14.2327  -26.1244 H   0  0  0  0  0  0  0  0  0  0  0  0
    7.9678   15.1143  -25.5429 H   0  0  0  0  0  0  0  0  0  0  0  0
    8.1593   13.3461  -25.2181 H   0  0  0  0  0  0  0  0  0  0  0  0
    6.9649   14.4512  -23.3658 H   0  0  0  0  0  0  0  0  0  0  0  0
    8.3458   15.5888  -23.1508 H   0  0  0  0  0  0  0  0  0  0  0  0
    9.6264   14.8929  -20.1063 H   0  0  0  0  0  0  0  0  0  0  0  0
    9.4899   17.1731  -19.9525 H   0  0  0  0  0  0  0  0  0  0  0  0
    8.5796   17.8152  -17.6145 H   0  0  0  0  0  0  0  0  0  0  0  0
    7.4204   16.4602  -17.8311 H   0  0  0  0  0  0  0  0  0  0  0  0
    9.1877   16.1389  -17.8311 H   0  0  0  0  0  0  0  0  0  0  0  0
    6.7466   18.1220  -19.8792 H   0  0  0  0  0  0  0  0  0  0  0  0
    8.2610   19.8523  -21.3122 H   0  0  0  0  0  0  0  0  0  0  0  0
    8.6704   18.2033  -21.8953 H   0  0  0  0  0  0  0  0  0  0  0  0
    6.9617   18.7575  -21.8953 H   0  0  0  0  0  0  0  0  0  0  0  0
    6.1304   11.8436  -21.1027 H   0  0  0  0  0  0  0  0  0  0  0  0
    7.0292   11.0326  -22.3805 H   0  0  0  0  0  0  0  0  0  0  0  0
    5.6283    9.8458  -19.9406 H   0  0  0  0  0  0  0  0  0  0  0  0
    5.6870    9.1811  -21.5616 H   0  0  0  0  0  0  0  0  0  0  0  0
    7.9631    8.4143  -21.2799 H   0  0  0  0  0  0  0  0  0  0  0  0
    7.3468    8.1326  -18.4183 H   0  0  0  0  0  0  0  0  0  0  0  0
    6.2528    7.3830  -19.6299 H   0  0  0  0  0  0  0  0  0  0  0  0
    8.0035    6.9805  -19.6299 H   0  0  0  0  0  0  0  0  0  0  0  0
    8.5079   10.1470  -18.7768 H   0  0  0  0  0  0  0  0  0  0  0  0
    9.6761   10.2473  -22.1273 H   0  0  0  0  0  0  0  0  0  0  0  0
   12.5788    9.5383  -20.0926 H   0  0  0  0  0  0  0  0  0  0  0  0
   14.7414    8.6710  -20.9625 H   0  0  0  0  0  0  0  0  0  0  0  0
   14.9178    7.9031  -23.3291 H   0  0  0  0  0  0  0  0  0  0  0  0
   12.9184    7.9795  -24.8105 H   0  0  0  0  0  0  0  0  0  0  0  0
    9.3281    7.2338  -26.9303 H   0  0  0  0  0  0  0  0  0  0  0  0
    7.5385    8.9692  -26.7009 H   0  0  0  0  0  0  0  0  0  0  0  0
    7.6856   10.6305  -24.8294 H   0  0  0  0  0  0  0  0  0  0  0  0
  1  2  2  0
  2  3  1  0
  2 17  1  0
  3  4  1  0
  3 10  1  0
  4  5  1  0
  4  9  1  0
  5  6  1  0
  6  7  1  0
  7  8  1  0
  8  9  1  0
 10 11  1  0
 11 12  2  0
 11 13  1  0
 13 14  1  0
 13 15  1  0
 15 16  1  0
 17 18  1  0
 17 22  1  0
 18 19  1  0
 19 20  1  0
 20 21  1  0
 20 22  1  0
 22 23  1  0
 23 24  2  0
 23 25  1  0
 25 26  1  0
 26 27  2  0
 26 31  1  0
 27 28  1  0
 28 29  2  0
 29 30  1  0
 30 31  2  0
 31 32  1  0
 32 33  2  0
 32 37  1  0
 33 34  1  0
 34 35  2  0
 35 36  1  0
 36 37  2  0
  3 38  1  0
  4 39  1  0
  5 40  1  0
  5 41  1  0
  6 42  1  0
  6 43  1  0
  7 44  1  0
  7 45  1  0
  8 46  1  0
  8 47  1  0
  9 48  1  0
  9 49  1  0
 10 50  1  0
 13 51  1  0
 14 52  1  0
 14 53  1  0
 14 54  1  0
 15 55  1  0
 16 56  1  0
 16 57  1  0
 16 58  1  0
 18 59  1  0
 18 60  1  0
 19 61  1  0
 19 62  1  0
 20 63  1  0
 21 64  1  0
 21 65  1  0
 21 66  1  0
 22 67  1  0
 25 68  1  0
 27 69  1  0
 28 70  1  0
 29 71  1  0
 30 72  1  0
 34 73  1  0
 35 74  1  0
 36 75  1  0
A    1
O3
A    2
C5
A    3
C4
A    4
C12
A    5
C18
A    6
C17
A    7
C16
A    8
C15
A    9
C14
A   10
N2
A   11
C3
A   12
O2
A   13
C2
A   14
C13
A   15
N1
A   16
C1
A   17
N3
A   18
C9
A   19
C8
A   20
C7
A   21
C28
A   22
C6
A   23
C10
A   24
O1
A   25
N4
A   26
C11
A   27
C27
A   28
C26
A   29
C25
A   30
C24
A   31
C19
A   32
C20
A   33
N6
A   34
C23
A   35
C22
A   36
C21
A   37
N5
M  END
