3HL7_I47_A_401
     RDKit          3D

 48 51  0  0  0  0  0  0  0  0999 V2000
   35.5390   35.8440   20.0350 C   0  0  0  0  0  0  0  0  0  0  0  0
   35.0130   34.5920   20.1860 N   0  0  0  0  0  0  0  0  0  0  0  0
   34.3580   34.4200   21.3480 N   0  0  0  0  0  0  0  0  0  0  0  0
   34.4730   35.5890   21.9900 C   0  0  0  0  0  0  0  0  0  0  0  0
   35.2010   36.5220   21.2070 C   0  0  0  0  0  0  0  0  0  0  0  0
   36.2560   36.2100   18.8410 C   0  0  0  0  0  0  0  0  0  0  0  0
   35.4600   37.9150   21.5200 C   0  0  0  0  0  0  0  0  0  0  0  0
   33.8990   35.7960   23.3550 C   0  0  0  0  0  0  0  0  0  0  0  0
   35.7380   35.9390   17.5930 C   0  0  0  0  0  0  0  0  0  0  0  0
   36.4100   36.3400   16.4530 C   0  0  0  0  0  0  0  0  0  0  0  0
   37.6080   37.0090   16.5410 C   0  0  0  0  0  0  0  0  0  0  0  0
   38.1380   37.2580   17.7900 C   0  0  0  0  0  0  0  0  0  0  0  0
   37.4680   36.8610   18.9240 C   0  0  0  0  0  0  0  0  0  0  0  0
   35.7230   38.3440   22.8100 C   0  0  0  0  0  0  0  0  0  0  0  0
   35.8820   39.7000   22.9660 C   0  0  0  0  0  0  0  0  0  0  0  0
   35.7820   40.5970   21.9740 N   0  0  0  0  0  0  0  0  0  0  0  0
   35.5120   40.0750   20.7720 C   0  0  0  0  0  0  0  0  0  0  0  0
   35.3400   38.7720   20.4930 N   0  0  0  0  0  0  0  0  0  0  0  0
   32.5520   35.1500   23.6150 C   0  0  0  0  0  0  0  0  0  0  0  0
   32.0630   35.4080   25.0390 C   0  0  0  0  0  0  0  0  0  0  0  0
   33.0770   35.0640   26.0130 N   0  0  0  0  0  0  0  0  0  0  0  0
   34.4180   35.5740   25.8200 C   0  0  0  0  0  0  0  0  0  0  0  0
   34.9160   35.3600   24.3950 C   0  0  0  0  0  0  0  0  0  0  0  0
   38.4230   37.5510   15.1160 Cl  0  0  0  0  0  0  0  0  0  0  0  0
   32.7620   34.2800   27.1120 C   0  0  0  0  0  0  0  0  0  0  0  0
   32.0050   33.3140   27.0890 O   0  0  0  0  0  0  0  0  0  0  0  0
   33.4530   34.7420   28.3700 C   0  0  0  0  0  0  0  0  0  0  0  0
   32.9420   33.9600   29.4480 O   0  0  0  0  0  0  0  0  0  0  0  0
   35.1090   33.8506   19.4775 H   0  0  0  0  0  0  0  0  0  0  0  0
   33.6898   36.8736   23.4266 H   0  0  0  0  0  0  0  0  0  0  0  0
   34.7833   35.4000   17.5031 H   0  0  0  0  0  0  0  0  0  0  0  0
   35.9811   36.1212   15.4640 H   0  0  0  0  0  0  0  0  0  0  0  0
   39.1033   37.7777   17.8799 H   0  0  0  0  0  0  0  0  0  0  0  0
   37.9062   37.0662   19.9119 H   0  0  0  0  0  0  0  0  0  0  0  0
   35.7997   37.6444   23.6554 H   0  0  0  0  0  0  0  0  0  0  0  0
   36.1070   40.0760   23.9750 H   0  0  0  0  0  0  0  0  0  0  0  0
   35.4223   40.7798   19.9322 H   0  0  0  0  0  0  0  0  0  0  0  0
   31.8176   35.5610   22.9067 H   0  0  0  0  0  0  0  0  0  0  0  0
   32.6635   34.0635   23.4840 H   0  0  0  0  0  0  0  0  0  0  0  0
   31.8118   36.4738   25.1442 H   0  0  0  0  0  0  0  0  0  0  0  0
   31.1784   34.7802   25.2218 H   0  0  0  0  0  0  0  0  0  0  0  0
   34.4218   36.6521   26.0384 H   0  0  0  0  0  0  0  0  0  0  0  0
   35.0886   35.0257   26.4980 H   0  0  0  0  0  0  0  0  0  0  0  0
   35.1307   34.2906   24.2526 H   0  0  0  0  0  0  0  0  0  0  0  0
   35.8187   35.9737   24.2594 H   0  0  0  0  0  0  0  0  0  0  0  0
   34.5391   34.5930   28.2790 H   0  0  0  0  0  0  0  0  0  0  0  0
   33.2683   35.8123   28.5444 H   0  0  0  0  0  0  0  0  0  0  0  0
   33.2096   34.3696   30.3086 H   0  0  0  0  0  0  0  0  0  0  0  0
  6  1  1  0
  1  2  1  0
  1  5  2  0
  2  3  1  0
  3  4  2  0
  5  4  1  0
  4  8  1  0
  5  7  1  0
  9  6  2  0
  6 13  1  0
 18  7  1  0
  7 14  2  0
  8 19  1  0
  8 23  1  0
 10  9  1  0
 10 11  2  0
 24 11  1  0
 11 12  1  0
 12 13  2  0
 14 15  1  0
 16 15  2  0
 17 16  1  0
 18 17  2  0
 19 20  1  0
 20 21  1  0
 22 21  1  0
 21 25  1  0
 23 22  1  0
 26 25  2  0
 25 27  1  0
 27 28  1  0
  2 29  1  0
  8 30  1  0
  9 31  1  0
 10 32  1  0
 12 33  1  0
 13 34  1  0
 14 35  1  0
 15 36  1  0
 17 37  1  0
 19 38  1  0
 19 39  1  0
 20 40  1  0
 20 41  1  0
 22 42  1  0
 22 43  1  0
 23 44  1  0
 23 45  1  0
 27 46  1  0
 27 47  1  0
 28 48  1  0
A    1
C1
A    2
N2
A    3
N3
A    4
C4
A    5
C5
A    6
C6
A    7
C7
A    8
C8
A    9
C9
A   10
C10
A   11
C11
A   12
C12
A   13
C13
A   14
C14
A   15
C15
A   16
N16
A   17
C17
A   18
N18
A   19
C19
A   20
C20
A   21
N21
A   22
C22
A   23
C23
A   24
CL24
A   25
C25
A   26
O26
A   27
C27
A   28
O28
M  END
