3HO2_N32_A_413
     RDKit          3D

 58 61  0  0  0  0  0  0  0  0999 V2000
   62.2730   36.1480   44.6140 C   0  0  0  0  0  0  0  0  0  0  0  0
   57.9300   36.8570   48.2350 O   0  0  0  0  0  0  0  0  0  0  0  0
   55.8590   38.5470   44.7990 O   0  0  0  0  0  0  0  0  0  0  0  0
   57.1360   39.1770   43.0560 N   0  0  0  0  0  0  0  0  0  0  0  0
   56.9580   38.7000   44.2560 C   0  0  0  0  0  0  0  0  0  0  0  0
   58.1590   38.3330   45.0370 C   0  0  0  0  0  0  0  0  0  0  0  0
   58.0990   36.8430   45.3160 C   0  0  0  0  0  0  0  0  0  0  0  0
   59.2370   36.5330   46.2810 C   0  0  0  0  0  0  0  0  0  0  0  0
   59.0260   36.6600   47.7710 C   0  0  0  0  0  0  0  0  0  0  0  0
   60.2240   36.5440   48.6600 C   0  0  0  0  0  0  0  0  0  0  0  0
   61.4800   36.4300   48.1730 C   0  0  0  0  0  0  0  0  0  0  0  0
   61.7460   36.5660   46.7010 C   0  0  0  0  0  0  0  0  0  0  0  0
   60.5780   36.1460   45.7240 C   0  0  0  0  0  0  0  0  0  0  0  0
   60.8720   36.3440   44.2260 C   0  0  0  0  0  0  0  0  0  0  0  0
   63.0150   37.4450   46.2450 C   0  0  0  0  0  0  0  0  0  0  0  0
   63.1470   37.2530   44.7850 C   0  0  0  0  0  0  0  0  0  0  0  0
   63.4150   38.2130   43.9060 C   0  0  0  0  0  0  0  0  0  0  0  0
   58.8220   35.0580   46.3960 C   0  0  0  0  0  0  0  0  0  0  0  0
   62.4610   35.1040   46.5820 C   0  0  0  0  0  0  0  0  0  0  0  0
   62.8250   34.8350   45.0560 C   0  0  0  0  0  0  0  0  0  0  0  0
   56.9120   41.4410   41.7990 O   0  0  0  0  0  0  0  0  0  0  0  0
   55.2250   37.1780   42.1820 O   0  0  0  0  0  0  0  0  0  0  0  0
   53.3860   36.4490   40.4370 O   0  0  0  0  0  0  0  0  0  0  0  0
   52.3660   38.0590   39.3550 O   0  0  0  0  0  0  0  0  0  0  0  0
   53.2730   37.6800   40.1750 C   0  0  0  0  0  0  0  0  0  0  0  0
   54.2230   38.6200   40.6790 C   0  0  0  0  0  0  0  0  0  0  0  0
   55.1840   38.3440   41.6730 C   0  0  0  0  0  0  0  0  0  0  0  0
   56.0970   39.3070   42.0730 C   0  0  0  0  0  0  0  0  0  0  0  0
   56.0570   40.5690   41.4840 C   0  0  0  0  0  0  0  0  0  0  0  0
   55.0850   40.8870   40.5120 C   0  0  0  0  0  0  0  0  0  0  0  0
   54.1680   39.8990   40.1180 C   0  0  0  0  0  0  0  0  0  0  0  0
   62.0588   35.9276   43.5578 H   0  0  0  0  0  0  0  0  0  0  0  0
   58.0850   39.4809   42.7954 H   0  0  0  0  0  0  0  0  0  0  0  0
   59.0657   38.5687   44.4605 H   0  0  0  0  0  0  0  0  0  0  0  0
   58.1888   38.8977   45.9805 H   0  0  0  0  0  0  0  0  0  0  0  0
   57.1329   36.5812   45.7722 H   0  0  0  0  0  0  0  0  0  0  0  0
   58.1978   36.2619   44.3873 H   0  0  0  0  0  0  0  0  0  0  0  0
   60.0773   36.5518   49.7501 H   0  0  0  0  0  0  0  0  0  0  0  0
   62.3155   36.2357   48.8616 H   0  0  0  0  0  0  0  0  0  0  0  0
   60.5139   35.0482   45.6970 H   0  0  0  0  0  0  0  0  0  0  0  0
   60.6303   37.3406   43.8280 H   0  0  0  0  0  0  0  0  0  0  0  0
   60.3794   35.7615   43.4335 H   0  0  0  0  0  0  0  0  0  0  0  0
   63.9236   37.0980   46.7589 H   0  0  0  0  0  0  0  0  0  0  0  0
   62.8791   38.5066   46.4989 H   0  0  0  0  0  0  0  0  0  0  0  0
   64.1174   39.0180   44.1678 H   0  0  0  0  0  0  0  0  0  0  0  0
   62.9345   38.2026   42.9166 H   0  0  0  0  0  0  0  0  0  0  0  0
   58.7440   34.7807   47.4576 H   0  0  0  0  0  0  0  0  0  0  0  0
   57.8479   34.9119   45.9064 H   0  0  0  0  0  0  0  0  0  0  0  0
   59.5770   34.4254   45.9064 H   0  0  0  0  0  0  0  0  0  0  0  0
   61.7722   34.3251   46.9408 H   0  0  0  0  0  0  0  0  0  0  0  0
   63.3749   35.0834   47.1939 H   0  0  0  0  0  0  0  0  0  0  0  0
   62.2969   33.9712   44.6259 H   0  0  0  0  0  0  0  0  0  0  0  0
   63.8629   34.5809   44.7950 H   0  0  0  0  0  0  0  0  0  0  0  0
   57.0977   41.6303   42.7528 H   0  0  0  0  0  0  0  0  0  0  0  0
   55.2289   37.0672   43.1658 H   0  0  0  0  0  0  0  0  0  0  0  0
   53.4140   36.1438   41.3784 H   0  0  0  0  0  0  0  0  0  0  0  0
   55.0460   41.8934   40.0696 H   0  0  0  0  0  0  0  0  0  0  0  0
   53.4023   40.1330   39.3637 H   0  0  0  0  0  0  0  0  0  0  0  0
 17 16  2  3
 16  1  1  0
 16 15  1  0
  1 20  1  0
  1 14  1  0
 20 19  1  0
 15 12  1  0
 14 13  1  0
 21 29  1  0
 19 12  1  0
 12 13  1  0
 12 11  1  0
 29 30  2  0
 29 28  1  0
 13  8  1  0
 30 31  1  0
  4 28  1  0
  4  5  1  0
 28 27  2  0
 31 26  2  0
 11 10  2  0
  6  5  1  0
  6  7  1  0
  8  7  1  0
  8 18  1  0
  8  9  1  0
  5  3  2  0
 27 26  1  0
 27 22  1  0
 26 25  1  0
 10  9  1  0
  9  2  2  0
 25 24  2  0
 25 23  1  0
  1 32  1  0
  4 33  1  0
  6 34  1  0
  6 35  1  0
  7 36  1  0
  7 37  1  0
 10 38  1  0
 11 39  1  0
 13 40  1  0
 14 41  1  0
 14 42  1  0
 15 43  1  0
 15 44  1  0
 17 45  1  0
 17 46  1  0
 18 47  1  0
 18 48  1  0
 18 49  1  0
 19 50  1  0
 19 51  1  0
 20 52  1  0
 20 53  1  0
 21 54  1  0
 22 55  1  0
 23 56  1  0
 30 57  1  0
 31 58  1  0
A    1
C1
A    2
O19
A    3
O20
A    4
N28
A    5
C11
A    6
C2
A    7
C3
A    8
C4
A    9
C5
A   10
C6
A   11
C7
A   12
C8
A   13
C9
A   14
C10
A   15
C14
A   16
C15
A   17
C17
A   18
C18
A   19
C28
A   20
C29
A   21
O30
A   22
O31
A   23
O32
A   24
O33
A   25
C21
A   26
C22
A   27
C23
A   28
C24
A   29
C25
A   30
C26
A   31
C27
M  END
