3HO9_N3A_A_413
     RDKit          3D

 59 62  0  0  0  0  0  0  0  0999 V2000
   -0.2040   72.3120   68.1690 C   0  0  0  0  0  0  0  0  0  0  0  0
   -3.2700   68.6950   72.0700 O   0  0  0  0  0  0  0  0  0  0  0  0
   -5.7480   67.6470   68.7260 O   0  0  0  0  0  0  0  0  0  0  0  0
   -5.3830   69.0320   66.9890 N   0  0  0  0  0  0  0  0  0  0  0  0
   -5.2450   68.6100   68.2340 C   0  0  0  0  0  0  0  0  0  0  0  0
   -4.3050   69.5090   69.1730 C   0  0  0  0  0  0  0  0  0  0  0  0
   -2.9340   68.7460   69.2490 C   0  0  0  0  0  0  0  0  0  0  0  0
   -1.9240   69.4490   70.2530 C   0  0  0  0  0  0  0  0  0  0  0  0
   -2.4540   69.4790   71.7010 C   0  0  0  0  0  0  0  0  0  0  0  0
   -1.9090   70.5420   72.6470 C   0  0  0  0  0  0  0  0  0  0  0  0
   -1.1230   71.5710   72.1480 C   0  0  0  0  0  0  0  0  0  0  0  0
   -0.7200   71.8110   70.6690 C   0  0  0  0  0  0  0  0  0  0  0  0
   -1.6330   70.9090   69.7280 C   0  0  0  0  0  0  0  0  0  0  0  0
   -1.0070   70.9560   68.3000 C   0  0  0  0  0  0  0  0  0  0  0  0
   -1.1040   73.3250   70.3690 C   0  0  0  0  0  0  0  0  0  0  0  0
   -1.0280   73.3880   68.8660 C   0  0  0  0  0  0  0  0  0  0  0  0
   -1.7060   74.3230   68.2100 C   0  0  0  0  0  0  0  0  0  0  0  0
   -0.6870   68.5050   70.3050 C   0  0  0  0  0  0  0  0  0  0  0  0
    0.7890   71.5470   70.3840 C   0  0  0  0  0  0  0  0  0  0  0  0
    1.1410   72.0970   68.9750 C   0  0  0  0  0  0  0  0  0  0  0  0
   -7.6060   70.1770   65.8680 O   0  0  0  0  0  0  0  0  0  0  0  0
   -4.6410   66.4800   66.1570 O   0  0  0  0  0  0  0  0  0  0  0  0
   -5.1060   64.5580   64.5560 O   0  0  0  0  0  0  0  0  0  0  0  0
   -6.8420   64.4740   63.2690 O   0  0  0  0  0  0  0  0  0  0  0  0
   -6.1530   65.0600   64.1210 C   0  0  0  0  0  0  0  0  0  0  0  0
   -6.5670   66.3650   64.5610 C   0  0  0  0  0  0  0  0  0  0  0  0
   -5.7750   67.0590   65.5880 C   0  0  0  0  0  0  0  0  0  0  0  0
   -6.2040   68.3080   65.9740 C   0  0  0  0  0  0  0  0  0  0  0  0
   -7.3300   68.9340   65.4390 C   0  0  0  0  0  0  0  0  0  0  0  0
   -8.1450   68.2710   64.4510 C   0  0  0  0  0  0  0  0  0  0  0  0
   -7.7100   66.9970   64.0600 C   0  0  0  0  0  0  0  0  0  0  0  0
    1.5080   72.2240   71.4400 O   0  0  0  0  0  0  0  0  0  0  0  0
   -0.0064   72.5977   67.1253 H   0  0  0  0  0  0  0  0  0  0  0  0
   -4.9030   69.8985   66.7068 H   0  0  0  0  0  0  0  0  0  0  0  0
   -4.1652   70.5077   68.7336 H   0  0  0  0  0  0  0  0  0  0  0  0
   -4.7457   69.6562   70.1701 H   0  0  0  0  0  0  0  0  0  0  0  0
   -3.1176   67.7167   69.5908 H   0  0  0  0  0  0  0  0  0  0  0  0
   -2.4815   68.7542   68.2464 H   0  0  0  0  0  0  0  0  0  0  0  0
   -2.1379   70.4938   73.7219 H   0  0  0  0  0  0  0  0  0  0  0  0
   -0.7436   72.2969   72.8823 H   0  0  0  0  0  0  0  0  0  0  0  0
   -2.6490   71.3304   69.7172 H   0  0  0  0  0  0  0  0  0  0  0  0
   -1.8024   70.9173   67.5412 H   0  0  0  0  0  0  0  0  0  0  0  0
   -0.3380   70.0966   68.1451 H   0  0  0  0  0  0  0  0  0  0  0  0
   -2.1185   73.5562   70.7259 H   0  0  0  0  0  0  0  0  0  0  0  0
   -0.4495   74.0518   70.8724 H   0  0  0  0  0  0  0  0  0  0  0  0
   -2.2842   75.0754   68.7664 H   0  0  0  0  0  0  0  0  0  0  0  0
   -1.6892   74.3450   67.1103 H   0  0  0  0  0  0  0  0  0  0  0  0
   -0.4232   68.3037   71.3538 H   0  0  0  0  0  0  0  0  0  0  0  0
   -0.9268   67.5582   69.7990 H   0  0  0  0  0  0  0  0  0  0  0  0
    0.1630   68.9862   69.7990 H   0  0  0  0  0  0  0  0  0  0  0  0
    1.0522   70.4790   70.3776 H   0  0  0  0  0  0  0  0  0  0  0  0
    1.7803   71.3760   68.4444 H   0  0  0  0  0  0  0  0  0  0  0  0
    1.6816   73.0506   69.0670 H   0  0  0  0  0  0  0  0  0  0  0  0
   -7.6483   70.3677   66.8385 H   0  0  0  0  0  0  0  0  0  0  0  0
   -4.5500   66.4336   67.1417 H   0  0  0  0  0  0  0  0  0  0  0  0
   -4.9592   64.4876   65.5325 H   0  0  0  0  0  0  0  0  0  0  0  0
   -9.0497   68.7351   64.0313 H   0  0  0  0  0  0  0  0  0  0  0  0
   -8.3071   66.4585   63.3094 H   0  0  0  0  0  0  0  0  0  0  0  0
    1.1758   71.9112   72.3186 H   0  0  0  0  0  0  0  0  0  0  0  0
  1 14  1  0
  1 16  1  0
  1 20  1  0
  9  2  2  0
  5  3  2  0
 28  4  1  0
  4  5  1  0
  5  6  1  0
  6  7  1  0
  7  8  1  0
 13  8  1  0
  8 18  1  0
  8  9  1  0
  9 10  1  0
 11 10  2  0
 12 11  1  0
 13 12  1  0
 15 12  1  0
 19 12  1  0
 14 13  1  0
 16 15  1  0
 17 16  2  3
 20 19  1  0
 19 32  1  0
 29 21  1  0
 27 22  1  0
 25 23  1  0
 24 25  2  0
 25 26  1  0
 31 26  2  0
 26 27  1  0
 27 28  2  0
 29 28  1  0
 30 29  2  0
 31 30  1  0
  1 33  1  0
  4 34  1  0
  6 35  1  0
  6 36  1  0
  7 37  1  0
  7 38  1  0
 10 39  1  0
 11 40  1  0
 13 41  1  0
 14 42  1  0
 14 43  1  0
 15 44  1  0
 15 45  1  0
 17 46  1  0
 17 47  1  0
 18 48  1  0
 18 49  1  0
 18 50  1  0
 19 51  1  0
 20 52  1  0
 20 53  1  0
 21 54  1  0
 22 55  1  0
 23 56  1  0
 30 57  1  0
 31 58  1  0
 32 59  1  0
A    1
C1
A    2
O19
A    3
O20
A    4
N28
A    5
C11
A    6
C2
A    7
C3
A    8
C4
A    9
C5
A   10
C6
A   11
C7
A   12
C8
A   13
C9
A   14
C10
A   15
C14
A   16
C15
A   17
C17
A   18
C18
A   19
C28
A   20
C29
A   21
O30
A   22
O31
A   23
O32
A   24
O33
A   25
C21
A   26
C22
A   27
C23
A   28
C24
A   29
C25
A   30
C26
A   31
C27
A   32
O34
M  END
