3HOD_ZZH_A_1
     RDKit          3D

 45 47  0  0  0  0  0  0  0  0999 V2000
   19.4670   61.2400   16.2370 C   0  0  0  0  0  0  0  0  0  0  0  0
   19.3340   60.9210   14.8920 C   0  0  0  0  0  0  0  0  0  0  0  0
   18.0830   60.9660   14.2850 C   0  0  0  0  0  0  0  0  0  0  0  0
   16.9610   61.3290   15.0200 C   0  0  0  0  0  0  0  0  0  0  0  0
   17.0950   61.6490   16.3680 C   0  0  0  0  0  0  0  0  0  0  0  0
   18.3450   61.6050   16.9730 C   0  0  0  0  0  0  0  0  0  0  0  0
   18.4700   61.9390   18.4610 C   0  0  0  0  0  0  0  0  0  0  0  0
   19.1730   63.2790   18.6870 C   0  0  0  0  0  0  0  0  0  0  0  0
   19.5030   63.3260   20.1800 C   0  0  0  0  0  0  0  0  0  0  0  0
   18.5410   63.4840   20.9660 O   0  0  0  0  0  0  0  0  0  0  0  0
   20.6900   63.1950   20.5410 O   0  0  0  0  0  0  0  0  0  0  0  0
   20.3460   63.3220   17.8570 O   0  0  0  0  0  0  0  0  0  0  0  0
   21.1610   64.3990   18.0180 C   0  0  0  0  0  0  0  0  0  0  0  0
   22.4940   64.2650   17.6430 C   0  0  0  0  0  0  0  0  0  0  0  0
   23.3760   65.3310   17.7550 C   0  0  0  0  0  0  0  0  0  0  0  0
   20.7070   65.6230   18.5010 C   0  0  0  0  0  0  0  0  0  0  0  0
   21.5890   66.6910   18.6150 C   0  0  0  0  0  0  0  0  0  0  0  0
   22.9240   66.5490   18.2540 C   0  0  0  0  0  0  0  0  0  0  0  0
   23.8500   67.6600   18.3600 C   0  0  0  0  0  0  0  0  0  0  0  0
   23.4050   69.0370   18.0900 C   0  0  0  0  0  0  0  0  0  0  0  0
   23.2830   69.3770   16.7450 C   0  0  0  0  0  0  0  0  0  0  0  0
   22.8740   70.6580   16.3910 C   0  0  0  0  0  0  0  0  0  0  0  0
   22.5880   71.6040   17.3700 C   0  0  0  0  0  0  0  0  0  0  0  0
   22.7080   71.2650   18.7110 C   0  0  0  0  0  0  0  0  0  0  0  0
   23.1130   69.9810   19.0620 C   0  0  0  0  0  0  0  0  0  0  0  0
   20.4556   61.2041   16.7181 H   0  0  0  0  0  0  0  0  0  0  0  0
   20.2189   60.6324   14.3058 H   0  0  0  0  0  0  0  0  0  0  0  0
   17.9817   60.7133   13.2192 H   0  0  0  0  0  0  0  0  0  0  0  0
   15.9723   61.3633   14.5392 H   0  0  0  0  0  0  0  0  0  0  0  0
   16.2104   61.9370   16.9549 H   0  0  0  0  0  0  0  0  0  0  0  0
   17.4628   61.9870   18.9007 H   0  0  0  0  0  0  0  0  0  0  0  0
   19.0733   61.1524   18.9378 H   0  0  0  0  0  0  0  0  0  0  0  0
   18.5602   64.1521   18.4183 H   0  0  0  0  0  0  0  0  0  0  0  0
   18.6918   63.4592   21.9441 H   0  0  0  0  0  0  0  0  0  0  0  0
   22.8538   63.3016   17.2526 H   0  0  0  0  0  0  0  0  0  0  0  0
   24.4266   65.2137   17.4510 H   0  0  0  0  0  0  0  0  0  0  0  0
   19.6531   65.7446   18.7916 H   0  0  0  0  0  0  0  0  0  0  0  0
   21.2273   67.6580   18.9945 H   0  0  0  0  0  0  0  0  0  0  0  0
   24.2356   67.6506   19.3902 H   0  0  0  0  0  0  0  0  0  0  0  0
   24.5599   67.4667   17.5423 H   0  0  0  0  0  0  0  0  0  0  0  0
   23.5094   68.6348   15.9654 H   0  0  0  0  0  0  0  0  0  0  0  0
   22.7758   70.9254   15.3285 H   0  0  0  0  0  0  0  0  0  0  0  0
   22.2681   72.6165   17.0828 H   0  0  0  0  0  0  0  0  0  0  0  0
   22.4842   72.0072   19.4914 H   0  0  0  0  0  0  0  0  0  0  0  0
   23.2026   69.7115   20.1247 H   0  0  0  0  0  0  0  0  0  0  0  0
  1  2  2  0
  1  6  1  0
  2  3  1  0
  3  4  2  0
  4  5  1  0
  5  6  2  0
  6  7  1  0
  7  8  1  0
  8  9  1  0
  8 12  1  0
  9 10  1  0
  9 11  2  0
 12 13  1  0
 13 14  2  0
 13 16  1  0
 14 15  1  0
 15 18  2  0
 16 17  2  0
 17 18  1  0
 18 19  1  0
 19 20  1  0
 20 21  2  0
 20 25  1  0
 21 22  1  0
 22 23  2  0
 23 24  1  0
 24 25  2  0
  1 26  1  0
  2 27  1  0
  3 28  1  0
  4 29  1  0
  5 30  1  0
  7 31  1  0
  7 32  1  0
  8 33  1  0
 10 34  1  0
 14 35  1  0
 15 36  1  0
 16 37  1  0
 17 38  1  0
 19 39  1  0
 19 40  1  0
 21 41  1  0
 22 42  1  0
 23 43  1  0
 24 44  1  0
 25 45  1  0
A    1
CAK
A    2
CAG
A    3
CAD
A    4
CAH
A    5
CAL
A    6
CAW
A    7
CAR
A    8
CAY
A    9
CAT
A   10
OAB
A   11
OAA
A   12
OAS
A   13
CAX
A   14
CAP
A   15
CAN
A   16
CAO
A   17
CAM
A   18
CAV
A   19
CAQ
A   20
CAU
A   21
CAI
A   22
CAE
A   23
CAC
A   24
CAF
A   25
CAJ
M  END
