3HP1_LLT_A_401
     RDKit          3D

 31 32  0  0  0  0  0  0  0  0999 V2000
   62.7210   33.0400   17.4680 O   0  0  0  0  0  0  0  0  0  0  0  0
   64.0180   33.2450   17.8180 C   0  0  0  0  0  0  0  0  0  0  0  0
   64.4220   34.5040   18.2090 C   0  0  0  0  0  0  0  0  0  0  0  0
   63.4510   35.6460   18.2510 C   0  0  0  0  0  0  0  0  0  0  0  0
   65.7470   34.6960   18.5740 C   0  0  0  0  0  0  0  0  0  0  0  0
   64.9060   32.2300   17.7900 N   0  0  0  0  0  0  0  0  0  0  0  0
   66.1940   32.4630   18.1230 C   0  0  0  0  0  0  0  0  0  0  0  0
   67.0610   31.4220   18.0850 O   0  0  0  0  0  0  0  0  0  0  0  0
   66.6150   33.6730   18.5180 N   0  0  0  0  0  0  0  0  0  0  0  0
   67.9950   33.9200   18.9120 C   0  0  0  0  0  0  0  0  0  0  0  0
   68.3070   35.3270   18.8830 O   0  0  0  0  0  0  0  0  0  0  0  0
   69.2510   35.6730   19.9010 C   0  0  0  0  0  0  0  0  0  0  0  0
   68.7790   36.9170   20.6400 C   0  0  0  0  0  0  0  0  0  0  0  0
   69.2210   38.1060   19.9410 O   0  0  0  0  0  0  0  0  0  0  0  0
   69.3530   34.4640   20.8160 C   0  0  0  0  0  0  0  0  0  0  0  0
   70.6290   33.8570   20.5680 O   0  0  0  0  0  0  0  0  0  0  0  0
   68.2300   33.5300   20.3740 C   0  0  0  0  0  0  0  0  0  0  0  0
   63.2324   35.9031   19.2980 H   0  0  0  0  0  0  0  0  0  0  0  0
   63.8884   36.5181   17.7429 H   0  0  0  0  0  0  0  0  0  0  0  0
   62.5199   35.3545   17.7429 H   0  0  0  0  0  0  0  0  0  0  0  0
   66.0865   35.6870   18.9095 H   0  0  0  0  0  0  0  0  0  0  0  0
   64.6039   31.2840   17.5166 H   0  0  0  0  0  0  0  0  0  0  0  0
   68.6067   33.3357   18.2088 H   0  0  0  0  0  0  0  0  0  0  0  0
   70.2416   35.9145   19.4882 H   0  0  0  0  0  0  0  0  0  0  0  0
   67.6803   36.9136   20.6943 H   0  0  0  0  0  0  0  0  0  0  0  0
   69.2027   36.9165   21.6551 H   0  0  0  0  0  0  0  0  0  0  0  0
   69.4787   38.7991   20.5992 H   0  0  0  0  0  0  0  0  0  0  0  0
   69.2661   34.7047   21.8858 H   0  0  0  0  0  0  0  0  0  0  0  0
   71.0682   33.6481   21.4303 H   0  0  0  0  0  0  0  0  0  0  0  0
   67.3233   33.6933   20.9751 H   0  0  0  0  0  0  0  0  0  0  0  0
   68.4833   32.4668   20.4983 H   0  0  0  0  0  0  0  0  0  0  0  0
  1  2  2  0
  6  2  1  0
  2  3  1  0
  3  4  1  0
  3  5  2  0
  9  5  1  0
  6  7  1  0
  8  7  2  0
  7  9  1  0
  9 10  1  0
 11 10  1  0
 10 17  1  0
 11 12  1  0
 12 13  1  0
 12 15  1  0
 14 13  1  0
 17 15  1  0
 16 15  1  0
  4 18  1  0
  4 19  1  0
  4 20  1  0
  5 21  1  0
  6 22  1  0
 10 23  1  0
 12 24  1  0
 13 25  1  0
 13 26  1  0
 14 27  1  0
 15 28  1  0
 16 29  1  0
 17 30  1  0
 17 31  1  0
A    1
O4
A    2
C4
A    3
C5
A    4
C7
A    5
C6
A    6
N3
A    7
C2
A    8
O2
A    9
N1
A   10
C1'
A   11
O4'
A   12
C4'
A   13
C5'
A   14
O5'
A   15
C3'
A   16
O3'
A   17
C2'
M  END
