1TK8_D3T_A_823
     RDKit          3D

 45 46  0  0  0  0  0  0  0  0999 V2000
   62.4900  190.1460   22.3300 P   0  0  0  0  0  0  0  0  0  0  0  0
   62.8400  188.7160   22.1190 O   0  0  0  0  0  0  0  0  0  0  0  0
   61.6770  190.8690   21.3170 O   0  0  0  0  0  0  0  0  0  0  0  0
   61.8150  190.2390   23.7730 O   0  0  0  0  0  0  0  0  0  0  0  0
   61.1020  191.4010   24.1840 C   0  0  0  0  0  0  0  0  0  0  0  0
   61.4940  191.7830   25.5970 C   0  0  0  0  0  0  0  0  0  0  0  0
   61.2290  190.6750   26.4990 O   0  0  0  0  0  0  0  0  0  0  0  0
   62.1900  190.6710   27.5450 C   0  0  0  0  0  0  0  0  0  0  0  0
   62.8960  189.3670   27.5550 N   0  0  0  0  0  0  0  0  0  0  0  0
   63.0200  188.6030   26.4100 C   0  0  0  0  0  0  0  0  0  0  0  0
   63.4360  188.9440   28.7530 C   0  0  0  0  0  0  0  0  0  0  0  0
   63.3570  189.5860   29.7850 O   0  0  0  0  0  0  0  0  0  0  0  0
   64.0780  187.7360   28.6980 N   0  0  0  0  0  0  0  0  0  0  0  0
   64.2410  186.9210   27.5980 C   0  0  0  0  0  0  0  0  0  0  0  0
   64.8440  185.8530   27.7130 O   0  0  0  0  0  0  0  0  0  0  0  0
   63.6610  187.4220   26.3700 C   0  0  0  0  0  0  0  0  0  0  0  0
   63.8040  186.6140   25.1170 C   0  0  0  0  0  0  0  0  0  0  0  0
   63.1290  191.8530   27.3090 C   0  0  0  0  0  0  0  0  0  0  0  0
   62.9680  192.0810   25.8090 C   0  0  0  0  0  0  0  0  0  0  0  0
   63.8170  190.9750   22.6390 O   0  0  0  0  0  0  0  0  0  0  0  0
   64.3580  192.2440   21.8460 P   0  0  0  0  0  0  0  0  0  0  0  0
   65.4210  192.8710   22.6640 O   0  0  0  0  0  0  0  0  0  0  0  0
   63.2080  193.0610   21.3840 O   0  0  0  0  0  0  0  0  0  0  0  0
   65.0450  191.5010   20.6110 O   0  0  0  0  0  0  0  0  0  0  0  0
   64.5550  191.7020   19.1060 P   0  0  0  0  0  0  0  0  0  0  0  0
   63.0690  191.5960   19.0630 O   0  0  0  0  0  0  0  0  0  0  0  0
   65.2150  192.9050   18.5510 O   0  0  0  0  0  0  0  0  0  0  0  0
   65.0960  190.4090   18.5210 O   0  0  0  0  0  0  0  0  0  0  0  0
   61.0212  191.4522   21.7752 H   0  0  0  0  0  0  0  0  0  0  0  0
   61.3391  192.2323   23.5038 H   0  0  0  0  0  0  0  0  0  0  0  0
   60.0230  191.1888   24.1558 H   0  0  0  0  0  0  0  0  0  0  0  0
   60.9056  192.6925   25.7883 H   0  0  0  0  0  0  0  0  0  0  0  0
   61.7260  190.7864   28.5356 H   0  0  0  0  0  0  0  0  0  0  0  0
   62.5696  188.9819   25.4807 H   0  0  0  0  0  0  0  0  0  0  0  0
   64.4865  187.3968   29.5806 H   0  0  0  0  0  0  0  0  0  0  0  0
   63.9902  185.5619   25.3784 H   0  0  0  0  0  0  0  0  0  0  0  0
   62.8790  186.6868   24.5262 H   0  0  0  0  0  0  0  0  0  0  0  0
   64.6478  186.9999   24.5262 H   0  0  0  0  0  0  0  0  0  0  0  0
   62.8148  192.7360   27.8848 H   0  0  0  0  0  0  0  0  0  0  0  0
   64.1667  191.6688   27.6239 H   0  0  0  0  0  0  0  0  0  0  0  0
   63.6015  191.3926   25.2305 H   0  0  0  0  0  0  0  0  0  0  0  0
   63.2674  193.0871   25.4801 H   0  0  0  0  0  0  0  0  0  0  0  0
   62.7155  193.4109   22.1683 H   0  0  0  0  0  0  0  0  0  0  0  0
   65.5305  193.4800   19.2925 H   0  0  0  0  0  0  0  0  0  0  0  0
   65.3523  189.7964   19.2553 H   0  0  0  0  0  0  0  0  0  0  0  0
  1  2  2  0
  1  3  1  0
  1  4  1  0
  1 20  1  0
  4  5  1  0
  5  6  1  0
  6  7  1  0
  6 19  1  0
  7  8  1  0
  8  9  1  0
  8 18  1  0
  9 10  1  0
  9 11  1  0
 10 16  2  0
 11 12  2  0
 11 13  1  0
 13 14  1  0
 14 15  2  0
 14 16  1  0
 16 17  1  0
 18 19  1  0
 20 21  1  0
 21 22  2  0
 21 23  1  0
 21 24  1  0
 24 25  1  0
 25 26  2  0
 25 27  1  0
 25 28  1  0
  3 29  1  0
  5 30  1  0
  5 31  1  0
  6 32  1  0
  8 33  1  0
 10 34  1  0
 13 35  1  0
 17 36  1  0
 17 37  1  0
 17 38  1  0
 18 39  1  0
 18 40  1  0
 19 41  1  0
 19 42  1  0
 23 43  1  0
 27 44  1  0
 28 45  1  0
A    1
PA
A    2
O1A
A    3
O2A
A    4
O5'
A    5
C5'
A    6
C4'
A    7
O4'
A    8
C1'
A    9
N1
A   10
C6
A   11
C2
A   12
O2
A   13
N3
A   14
C4
A   15
O4
A   16
C5
A   17
C5M
A   18
C2'
A   19
C3'
A   20
O3A
A   21
PB
A   22
O1B
A   23
O2B
A   24
O3B
A   25
PG
A   26
O1G
A   27
O2G
A   28
O3G
M  END
