3HP9_CF1_A_501
     RDKit          3D

 34 35  0  0  0  0  0  0  0  0999 V2000
   36.0090    0.7760   52.1580 O   0  0  0  0  0  0  0  0  0  0  0  0
   35.6480   -0.3810   51.8600 C   0  0  0  0  0  0  0  0  0  0  0  0
   36.1170   -0.9500   50.8520 O   0  0  0  0  0  0  0  0  0  0  0  0
   34.6360   -1.0940   52.7300 C   0  0  0  0  0  0  0  0  0  0  0  0
   34.2310   -2.3910   52.4010 C   0  0  0  0  0  0  0  0  0  0  0  0
   33.2980   -3.0590   53.2000 C   0  0  0  0  0  0  0  0  0  0  0  0
   32.8960   -4.3360   52.8800 O   0  0  0  0  0  0  0  0  0  0  0  0
   33.7800   -5.4530   53.0460 C   0  0  0  0  0  0  0  0  0  0  0  0
   32.7610   -2.4300   54.3220 C   0  0  0  0  0  0  0  0  0  0  0  0
   33.1620   -1.1380   54.6580 C   0  0  0  0  0  0  0  0  0  0  0  0
   34.0830   -0.4600   53.8540 C   0  0  0  0  0  0  0  0  0  0  0  0
   34.4330    0.8240   54.1250 N   0  0  0  0  0  0  0  0  0  0  0  0
   33.6120    1.8410   54.5250 C   0  0  0  0  0  0  0  0  0  0  0  0
   34.2200    3.0370   54.8730 C   0  0  0  0  0  0  0  0  0  0  0  0
   35.9870    3.1570   54.7830 Cl  0  0  0  0  0  0  0  0  0  0  0  0
   33.4820    4.1400   55.2820 C   0  0  0  0  0  0  0  0  0  0  0  0
   32.1030    4.0500   55.3560 C   0  0  0  0  0  0  0  0  0  0  0  0
   32.2160    1.7470   54.5840 C   0  0  0  0  0  0  0  0  0  0  0  0
   31.4670    2.8550   55.0010 C   0  0  0  0  0  0  0  0  0  0  0  0
   29.9730    2.7990   55.0930 C   0  0  0  0  0  0  0  0  0  0  0  0
   29.6200    3.1560   56.3070 F   0  0  0  0  0  0  0  0  0  0  0  0
   29.4610    3.6410   54.2250 F   0  0  0  0  0  0  0  0  0  0  0  0
   29.5110    1.5880   54.8330 F   0  0  0  0  0  0  0  0  0  0  0  0
   36.0912    1.0395   53.1088 H   0  0  0  0  0  0  0  0  0  0  0  0
   34.6472   -2.8870   51.5117 H   0  0  0  0  0  0  0  0  0  0  0  0
   33.9315   -5.6445   54.1186 H   0  0  0  0  0  0  0  0  0  0  0  0
   33.3390   -6.3430   52.5734 H   0  0  0  0  0  0  0  0  0  0  0  0
   34.7475   -5.2283   52.5734 H   0  0  0  0  0  0  0  0  0  0  0  0
   32.0197   -2.9540   54.9432 H   0  0  0  0  0  0  0  0  0  0  0  0
   32.7536   -0.6517   55.5562 H   0  0  0  0  0  0  0  0  0  0  0  0
   35.4302    1.0579   54.0168 H   0  0  0  0  0  0  0  0  0  0  0  0
   33.9903    5.0793   55.5455 H   0  0  0  0  0  0  0  0  0  0  0  0
   31.5099    4.9133   55.6921 H   0  0  0  0  0  0  0  0  0  0  0  0
   31.7114    0.8102   54.3050 H   0  0  0  0  0  0  0  0  0  0  0  0
  2  1  1  0
  3  2  2  0
  2  4  1  0
  5  4  2  0
  4 11  1  0
  5  6  1  0
  7  6  1  0
  6  9  2  0
  7  8  1  0
  9 10  1  0
 11 10  2  0
 11 12  1  0
 12 13  1  0
 13 18  1  0
 13 14  2  0
 15 14  1  0
 14 16  1  0
 16 17  2  0
 19 17  1  0
 18 19  2  0
 19 20  1  0
 22 20  1  0
 23 20  1  0
 20 21  1  0
  1 24  1  0
  5 25  1  0
  8 26  1  0
  8 27  1  0
  8 28  1  0
  9 29  1  0
 10 30  1  0
 12 31  1  0
 16 32  1  0
 17 33  1  0
 18 34  1  0
A    1
O23
A    2
C23
A    3
O24
A    4
C21
A    5
C5
A    6
C4
A    7
O1
A    8
C2
A    9
C3
A   10
C8
A   11
C7
A   12
N1
A   13
C9
A   14
C10
A   15
CL1
A   16
C11
A   17
C12
A   18
C15
A   19
C13
A   20
C14
A   21
F1
A   22
F3
A   23
F2
M  END
