3HPT_YET_B_1
     RDKit          3D

 60 63  0  0  0  0  0  0  0  0999 V2000
    4.0830   13.1300   28.3470 O   0  0  0  0  0  0  0  0  0  0  0  0
    4.6360   12.8850   29.4030 C   0  0  0  0  0  0  0  0  0  0  0  0
    5.6120   13.6490   29.8930 N   0  0  0  0  0  0  0  0  0  0  0  0
    6.2800   13.3690   31.1610 C   0  0  0  0  0  0  0  0  0  0  0  0
    7.3100   14.4820   31.3020 C   0  0  0  0  0  0  0  0  0  0  0  0
    6.0970   14.8420   29.2040 C   0  0  0  0  0  0  0  0  0  0  0  0
    7.3380   15.2480   29.9920 C   0  0  0  0  0  0  0  0  0  0  0  0
    4.2180   11.6790   30.2210 C   0  0  0  0  0  0  0  0  0  0  0  0
    3.1820   10.9110   29.5410 N   0  0  0  0  0  0  0  0  0  0  0  0
    3.5190    9.8300   28.8250 C   0  0  0  0  0  0  0  0  0  0  0  0
    4.6790    9.4630   28.7100 O   0  0  0  0  0  0  0  0  0  0  0  0
    1.8160   11.4330   29.7220 C   0  0  0  0  0  0  0  0  0  0  0  0
    1.0340   10.4120   30.5530 C   0  0  0  0  0  0  0  0  0  0  0  0
    0.4480    9.3300   29.6430 C   0  0  0  0  0  0  0  0  0  0  0  0
    1.5260    8.3640   29.1300 C   0  0  0  0  0  0  0  0  0  0  0  0
    2.4460    9.0470   28.1160 C   0  0  0  0  0  0  0  0  0  0  0  0
    3.0790    8.0360   27.2680 N   0  0  0  0  0  0  0  0  0  0  0  0
    2.5220    7.4820   26.1850 C   0  0  0  0  0  0  0  0  0  0  0  0
    1.2760    7.8430   25.8330 N   0  0  0  0  0  0  0  0  0  0  0  0
    0.6940    7.3810   24.8730 C   0  0  0  0  0  0  0  0  0  0  0  0
    0.1270    6.9000   23.9810 N   0  0  0  0  0  0  0  0  0  0  0  0
    3.2160    6.5740   25.4700 N   0  0  0  0  0  0  0  0  0  0  0  0
    4.5290    6.1910   25.8150 C   0  0  0  0  0  0  0  0  0  0  0  0
    4.8310    5.8870   27.1510 C   0  0  0  0  0  0  0  0  0  0  0  0
    5.5300    6.1240   24.8350 C   0  0  0  0  0  0  0  0  0  0  0  0
    6.8190    5.7480   25.2200 C   0  0  0  0  0  0  0  0  0  0  0  0
    7.0730    5.4610   26.5400 C   0  0  0  0  0  0  0  0  0  0  0  0
    6.1150    5.5160   27.5320 C   0  0  0  0  0  0  0  0  0  0  0  0
    8.4240    5.1050   26.6950 O   0  0  0  0  0  0  0  0  0  0  0  0
    8.9490    5.2030   25.4390 C   0  0  0  0  0  0  0  0  0  0  0  0
   10.3940    4.8980   25.1880 C   0  0  0  0  0  0  0  0  0  0  0  0
    8.0380    5.5900   24.4440 C   0  0  0  0  0  0  0  0  0  0  0  0
    5.5615   13.3961   31.9935 H   0  0  0  0  0  0  0  0  0  0  0  0
    6.7384   12.3693   31.1810 H   0  0  0  0  0  0  0  0  0  0  0  0
    7.0253   15.1549   32.1243 H   0  0  0  0  0  0  0  0  0  0  0  0
    8.3024   14.0645   31.5274 H   0  0  0  0  0  0  0  0  0  0  0  0
    6.3554   14.6120   28.1598 H   0  0  0  0  0  0  0  0  0  0  0  0
    5.3428   15.6416   29.1628 H   0  0  0  0  0  0  0  0  0  0  0  0
    7.3222   16.3303   30.1881 H   0  0  0  0  0  0  0  0  0  0  0  0
    8.2523   15.0180   29.4253 H   0  0  0  0  0  0  0  0  0  0  0  0
    5.0945   11.0342   30.3822 H   0  0  0  0  0  0  0  0  0  0  0  0
    3.8139   12.0335   31.1807 H   0  0  0  0  0  0  0  0  0  0  0  0
    1.8504   12.3978   30.2493 H   0  0  0  0  0  0  0  0  0  0  0  0
    1.3308   11.5891   28.7472 H   0  0  0  0  0  0  0  0  0  0  0  0
    1.7095    9.9450   31.2849 H   0  0  0  0  0  0  0  0  0  0  0  0
    0.2135   10.9260   31.0750 H   0  0  0  0  0  0  0  0  0  0  0  0
   -0.3016    8.7575   30.2091 H   0  0  0  0  0  0  0  0  0  0  0  0
   -0.0051    9.8269   28.7725 H   0  0  0  0  0  0  0  0  0  0  0  0
    2.1281    8.0138   29.9814 H   0  0  0  0  0  0  0  0  0  0  0  0
    1.0274    7.5189   28.6329 H   0  0  0  0  0  0  0  0  0  0  0  0
    1.8428    9.7314   27.5014 H   0  0  0  0  0  0  0  0  0  0  0  0
    4.0273    7.7268   27.5250 H   0  0  0  0  0  0  0  0  0  0  0  0
    0.7905    8.5472   26.4068 H   0  0  0  0  0  0  0  0  0  0  0  0
    4.0373    5.9433   27.9105 H   0  0  0  0  0  0  0  0  0  0  0  0
    5.3047    6.3626   23.7851 H   0  0  0  0  0  0  0  0  0  0  0  0
    6.3571    5.2767   28.5780 H   0  0  0  0  0  0  0  0  0  0  0  0
   10.9177    4.7875   26.1490 H   0  0  0  0  0  0  0  0  0  0  0  0
   10.4772    3.9625   24.6153 H   0  0  0  0  0  0  0  0  0  0  0  0
   10.8482    5.7201   24.6153 H   0  0  0  0  0  0  0  0  0  0  0  0
    8.2023    5.7349   23.3660 H   0  0  0  0  0  0  0  0  0  0  0  0
  1  2  2  0
  2  3  1  0
  2  8  1  0
  6  3  1  0
  3  4  1  0
  4  5  1  0
  7  5  1  0
  6  7  1  0
  9  8  1  0
 10  9  1  0
  9 12  1  0
 16 10  1  0
 11 10  2  0
 12 13  1  0
 14 13  1  0
 15 14  1  0
 16 15  1  0
 17 16  1  0
 18 17  1  0
 22 18  2  0
 19 18  1  0
 20 19  1  0
 21 20  3  0
 22 23  1  0
 25 23  1  0
 23 24  2  0
 24 28  1  0
 25 26  2  0
 32 26  1  0
 26 27  1  0
 27 29  1  0
 27 28  2  0
 30 29  1  0
 32 30  2  0
 31 30  1  0
  4 33  1  0
  4 34  1  0
  5 35  1  0
  5 36  1  0
  6 37  1  0
  6 38  1  0
  7 39  1  0
  7 40  1  0
  8 41  1  0
  8 42  1  0
 12 43  1  0
 12 44  1  0
 13 45  1  0
 13 46  1  0
 14 47  1  0
 14 48  1  0
 15 49  1  0
 15 50  1  0
 16 51  1  0
 17 52  1  0
 19 53  1  0
 24 54  1  0
 25 55  1  0
 28 56  1  0
 31 57  1  0
 31 58  1  0
 31 59  1  0
 32 60  1  0
A    1
O31
A    2
C11
A    3
N27
A    4
C20
A    5
C16
A    6
C19
A    7
C15
A    8
C23
A    9
N26
A   10
C10
A   11
O30
A   12
C18
A   13
C14
A   14
C13
A   15
C17
A   16
C21
A   17
N29
A   18
C12
A   19
N25
A   20
C1
A   21
N24
A   22
N28
A   23
C7
A   24
C2
A   25
C4
A   26
C6
A   27
C8
A   28
C3
A   29
O32
A   30
C9
A   31
C22
A   32
C5
M  END
