3G8N_GKK_A_934
     RDKit          3D

 46 48  0  0  0  0  0  0  0  0999 V2000
   -1.8590  -11.0890   28.2970 Cl  0  0  0  0  0  0  0  0  0  0  0  0
   -3.4660   -4.1970   21.6290 C   0  0  0  0  0  0  0  0  0  0  0  0
   -3.1340   -4.1110   24.0250 C   0  0  0  0  0  0  0  0  0  0  0  0
   -3.4470   -5.0640   25.1480 C   0  0  0  0  0  0  0  0  0  0  0  0
   -4.0930   -6.2970   24.5670 C   0  0  0  0  0  0  0  0  0  0  0  0
   -4.0830   -6.0750   23.0700 C   0  0  0  0  0  0  0  0  0  0  0  0
   -3.6260  -10.7350   22.3250 C   0  0  0  0  0  0  0  0  0  0  0  0
   -2.7230  -10.8860   21.3260 C   0  0  0  0  0  0  0  0  0  0  0  0
   -3.4280   -9.7670   23.2620 C   0  0  0  0  0  0  0  0  0  0  0  0
   -2.3420   -8.9410   23.2320 C   0  0  0  0  0  0  0  0  0  0  0  0
   -2.1760   -7.8980   24.2740 C   0  0  0  0  0  0  0  0  0  0  0  0
   -3.2040   -4.9400   22.8360 N   0  0  0  0  0  0  0  0  0  0  0  0
   -1.4130   -9.1110   22.2230 C   0  0  0  0  0  0  0  0  0  0  0  0
   -0.1850   -8.2650   22.1000 C   0  0  0  0  0  0  0  0  0  0  0  0
   -3.5570   -8.1090   26.1970 C   0  0  0  0  0  0  0  0  0  0  0  0
   -4.4960   -7.6820   27.0870 C   0  0  0  0  0  0  0  0  0  0  0  0
   -3.3960   -7.5220   24.9300 N   0  0  0  0  0  0  0  0  0  0  0  0
   -4.6450   -8.2630   28.3070 C   0  0  0  0  0  0  0  0  0  0  0  0
   -3.8610   -9.3070   28.7030 C   0  0  0  0  0  0  0  0  0  0  0  0
   -4.0740   -9.8230   29.9950 C   0  0  0  0  0  0  0  0  0  0  0  0
   -4.2480  -10.2450   31.0510 N   0  0  0  0  0  0  0  0  0  0  0  0
   -2.8930   -9.7820   27.8470 C   0  0  0  0  0  0  0  0  0  0  0  0
   -2.7680   -9.1680   26.6150 C   0  0  0  0  0  0  0  0  0  0  0  0
   -1.6290  -10.0860   21.2770 C   0  0  0  0  0  0  0  0  0  0  0  0
    0.4690   -8.0600   23.1780 F   0  0  0  0  0  0  0  0  0  0  0  0
    0.7090   -8.7210   21.2870 F   0  0  0  0  0  0  0  0  0  0  0  0
   -0.3950   -7.0810   21.6910 F   0  0  0  0  0  0  0  0  0  0  0  0
   -3.8215   -3.1890   21.8888 H   0  0  0  0  0  0  0  0  0  0  0  0
   -2.5412   -4.1188   21.0385 H   0  0  0  0  0  0  0  0  0  0  0  0
   -4.2353   -4.7162   21.0385 H   0  0  0  0  0  0  0  0  0  0  0  0
   -3.8760   -3.3001   23.9813 H   0  0  0  0  0  0  0  0  0  0  0  0
   -2.1566   -3.6206   24.1440 H   0  0  0  0  0  0  0  0  0  0  0  0
   -2.5183   -5.3422   25.6677 H   0  0  0  0  0  0  0  0  0  0  0  0
   -4.1284   -4.5863   25.8673 H   0  0  0  0  0  0  0  0  0  0  0  0
   -5.1106   -6.4333   24.9618 H   0  0  0  0  0  0  0  0  0  0  0  0
   -3.6993   -6.9676   22.5543 H   0  0  0  0  0  0  0  0  0  0  0  0
   -5.0958   -5.8847   22.6854 H   0  0  0  0  0  0  0  0  0  0  0  0
   -4.5098  -11.3877   22.3785 H   0  0  0  0  0  0  0  0  0  0  0  0
   -2.8771  -11.6563   20.5560 H   0  0  0  0  0  0  0  0  0  0  0  0
   -4.1665   -9.6470   24.0684 H   0  0  0  0  0  0  0  0  0  0  0  0
   -1.4784   -8.2784   25.0347 H   0  0  0  0  0  0  0  0  0  0  0  0
   -1.8013   -6.9984   23.7638 H   0  0  0  0  0  0  0  0  0  0  0  0
   -5.1521   -6.8435   26.8106 H   0  0  0  0  0  0  0  0  0  0  0  0
   -5.4168   -7.8819   28.9919 H   0  0  0  0  0  0  0  0  0  0  0  0
   -1.9966   -9.5423   25.9259 H   0  0  0  0  0  0  0  0  0  0  0  0
   -0.8997  -10.2195   20.4644 H   0  0  0  0  0  0  0  0  0  0  0  0
  1 22  1  0
 12  2  1  0
  4  3  1  0
  3 12  1  0
  4  5  1  0
 17  5  1  0
  5  6  1  0
  6 12  1  0
  9  7  2  0
  7  8  1  0
  8 24  2  0
  9 10  1  0
 11 10  1  0
 10 13  2  0
 17 11  1  0
 13 14  1  0
 13 24  1  0
 25 14  1  0
 14 27  1  0
 14 26  1  0
 16 15  2  0
 23 15  1  0
 15 17  1  0
 18 16  1  0
 19 18  2  0
 20 19  1  0
 19 22  1  0
 21 20  3  0
 22 23  2  0
  2 28  1  0
  2 29  1  0
  2 30  1  0
  3 31  1  0
  3 32  1  0
  4 33  1  0
  4 34  1  0
  5 35  1  0
  6 36  1  0
  6 37  1  0
  7 38  1  0
  8 39  1  0
  9 40  1  0
 11 41  1  0
 11 42  1  0
 16 43  1  0
 18 44  1  0
 23 45  1  0
 24 46  1  0
A    1
CL1
A    2
C1
A    3
C2
A    4
C3
A    5
C4
A    6
C5
A    7
C9
A    8
C10
A    9
C8
A   10
C7
A   11
C6
A   12
N1
A   13
C12
A   14
C13
A   15
C14
A   16
C15
A   17
N2
A   18
C16
A   19
C17
A   20
C18
A   21
N3
A   22
C19
A   23
C20
A   24
C11
A   25
F1
A   26
F2
A   27
F3
M  END
