3HQY_PF6_A_999
     RDKit          3D

 50 54  0  0  0  0  0  0  0  0999 V2000
   12.5890   16.9420   43.2430 C   0  0  0  0  0  0  0  0  0  0  0  0
   15.4610   15.3580   46.1300 C   0  0  0  0  0  0  0  0  0  0  0  0
   12.1960   18.6640   47.1970 C   0  0  0  0  0  0  0  0  0  0  0  0
   11.4100   17.1080   38.6340 C   0  0  0  0  0  0  0  0  0  0  0  0
   10.2600   17.5710   37.7520 C   0  0  0  0  0  0  0  0  0  0  0  0
   14.0860   15.8910   41.7090 C   0  0  0  0  0  0  0  0  0  0  0  0
   10.9840   18.6680   47.8500 C   0  0  0  0  0  0  0  0  0  0  0  0
    8.1790   18.2860   36.1310 C   0  0  0  0  0  0  0  0  0  0  0  0
    6.5840   16.2100   35.1550 C   0  0  0  0  0  0  0  0  0  0  0  0
    6.3190   17.5380   34.8320 C   0  0  0  0  0  0  0  0  0  0  0  0
    7.0970   18.5580   35.2960 C   0  0  0  0  0  0  0  0  0  0  0  0
    9.0060   19.3080   36.6640 C   0  0  0  0  0  0  0  0  0  0  0  0
   10.0600   18.9320   37.4700 C   0  0  0  0  0  0  0  0  0  0  0  0
    8.4400   16.9290   36.4710 C   0  0  0  0  0  0  0  0  0  0  0  0
    7.6270   15.9020   35.9620 C   0  0  0  0  0  0  0  0  0  0  0  0
    9.4780   16.6420   37.2540 N   0  0  0  0  0  0  0  0  0  0  0  0
   11.2360   17.5770   39.9720 O   0  0  0  0  0  0  0  0  0  0  0  0
   12.1250   17.0710   40.8920 C   0  0  0  0  0  0  0  0  0  0  0  0
   13.2920   16.3320   40.6460 C   0  0  0  0  0  0  0  0  0  0  0  0
   11.8200   17.3630   42.2000 C   0  0  0  0  0  0  0  0  0  0  0  0
   13.7350   16.2110   43.0210 C   0  0  0  0  0  0  0  0  0  0  0  0
   14.5150   15.7250   44.1660 C   0  0  0  0  0  0  0  0  0  0  0  0
   14.6530   16.2490   45.4260 C   0  0  0  0  0  0  0  0  0  0  0  0
   15.7830   14.3500   45.3670 N   0  0  0  0  0  0  0  0  0  0  0  0
   15.1800   14.5370   44.1350 N   0  0  0  0  0  0  0  0  0  0  0  0
   14.1010   17.5500   46.0070 C   0  0  0  0  0  0  0  0  0  0  0  0
   12.7790   17.4750   46.7420 C   0  0  0  0  0  0  0  0  0  0  0  0
   10.3680   17.5240   48.1050 N   0  0  0  0  0  0  0  0  0  0  0  0
   10.8910   16.3610   47.7100 C   0  0  0  0  0  0  0  0  0  0  0  0
   12.1090   16.2900   47.0240 C   0  0  0  0  0  0  0  0  0  0  0  0
   12.2915   17.1885   44.2729 H   0  0  0  0  0  0  0  0  0  0  0  0
   15.7802   15.4858   47.1749 H   0  0  0  0  0  0  0  0  0  0  0  0
   12.7186   19.6172   47.0288 H   0  0  0  0  0  0  0  0  0  0  0  0
   11.4433   16.0085   38.6375 H   0  0  0  0  0  0  0  0  0  0  0  0
   12.3505   17.5152   38.2343 H   0  0  0  0  0  0  0  0  0  0  0  0
   14.9871   15.2920   41.5111 H   0  0  0  0  0  0  0  0  0  0  0  0
   10.5281   19.6201   48.1594 H   0  0  0  0  0  0  0  0  0  0  0  0
    5.9450   15.4094   34.7540 H   0  0  0  0  0  0  0  0  0  0  0  0
    5.4598   17.7709   34.1858 H   0  0  0  0  0  0  0  0  0  0  0  0
    6.8701   19.5959   35.0108 H   0  0  0  0  0  0  0  0  0  0  0  0
    8.8125   20.3677   36.4413 H   0  0  0  0  0  0  0  0  0  0  0  0
   10.7376   19.6910   37.8880 H   0  0  0  0  0  0  0  0  0  0  0  0
    7.8368   14.8529   36.2178 H   0  0  0  0  0  0  0  0  0  0  0  0
   13.5838   16.0984   39.6115 H   0  0  0  0  0  0  0  0  0  0  0  0
   10.9206   17.9594   42.4129 H   0  0  0  0  0  0  0  0  0  0  0  0
   16.3807   13.5549   45.6342 H   0  0  0  0  0  0  0  0  0  0  0  0
   14.8495   17.9412   46.7118 H   0  0  0  0  0  0  0  0  0  0  0  0
   13.9033   18.1887   45.1335 H   0  0  0  0  0  0  0  0  0  0  0  0
   10.3481   15.4300   47.9304 H   0  0  0  0  0  0  0  0  0  0  0  0
   12.5260   15.3200   46.7155 H   0  0  0  0  0  0  0  0  0  0  0  0
 20  1  2  0
 21  1  1  0
 24  2  1  0
 23  2  2  0
 27  3  2  0
  3  7  1  0
  5  4  1  0
  4 17  1  0
 16  5  2  0
 13  5  1  0
 19  6  1  0
  6 21  2  0
  7 28  2  0
 11  8  2  0
  8 14  1  0
  8 12  1  0
 10  9  2  0
  9 15  1  0
 10 11  1  0
 12 13  2  0
 15 14  2  0
 14 16  1  0
 17 18  1  0
 19 18  2  0
 18 20  1  0
 21 22  1  0
 25 22  2  0
 22 23  1  0
 23 26  1  0
 25 24  1  0
 26 27  1  0
 27 30  1  0
 29 28  1  0
 30 29  2  0
  1 31  1  0
  2 32  1  0
  3 33  1  0
  4 34  1  0
  4 35  1  0
  6 36  1  0
  7 37  1  0
  9 38  1  0
 10 39  1  0
 11 40  1  0
 12 41  1  0
 13 42  1  0
 15 43  1  0
 19 44  1  0
 20 45  1  0
 24 46  1  0
 26 47  1  0
 26 48  1  0
 29 49  1  0
 30 50  1  0
A    1
C7
A    2
C6
A    3
C13
A    4
C20
A    5
C21
A    6
C8
A    7
C16
A    8
C26
A    9
C29
A   10
C30
A   11
C28
A   12
C25
A   13
C23
A   14
C24
A   15
C27
A   16
N22
A   17
O18
A   18
C15
A   19
C12
A   20
C11
A   21
C3
A   22
C1
A   23
C2
A   24
N9
A   25
N4
A   26
C5
A   27
C10
A   28
N19
A   29
C17
A   30
C14
M  END
