3HQZ_PF8_A_999
     RDKit          3D

 47 51  0  0  0  0  0  0  0  0999 V2000
   12.4910   18.4590   43.1850 C   0  0  0  0  0  0  0  0  0  0  0  0
   14.1330   16.7540   47.1670 C   0  0  0  0  0  0  0  0  0  0  0  0
   11.1530   16.2240   42.1140 C   0  0  0  0  0  0  0  0  0  0  0  0
    9.6420   18.5580   38.2220 C   0  0  0  0  0  0  0  0  0  0  0  0
   11.7410   16.1760   43.3920 C   0  0  0  0  0  0  0  0  0  0  0  0
   11.2260   17.4100   41.3740 C   0  0  0  0  0  0  0  0  0  0  0  0
   10.7240   18.6460   39.2810 C   0  0  0  0  0  0  0  0  0  0  0  0
    7.5620   15.9460   36.7660 C   0  0  0  0  0  0  0  0  0  0  0  0
    6.0990   16.9220   35.1120 C   0  0  0  0  0  0  0  0  0  0  0  0
    6.5670   15.8080   35.8040 C   0  0  0  0  0  0  0  0  0  0  0  0
    8.1110   17.2100   37.0140 C   0  0  0  0  0  0  0  0  0  0  0  0
    9.0980   17.3460   37.9460 N   0  0  0  0  0  0  0  0  0  0  0  0
    6.6490   18.1860   35.3570 C   0  0  0  0  0  0  0  0  0  0  0  0
    7.6500   18.3350   36.3140 C   0  0  0  0  0  0  0  0  0  0  0  0
    8.2020   19.5970   36.5870 C   0  0  0  0  0  0  0  0  0  0  0  0
    9.2080   19.7040   37.5530 C   0  0  0  0  0  0  0  0  0  0  0  0
   10.6520   17.4780   40.1210 O   0  0  0  0  0  0  0  0  0  0  0  0
   11.8980   18.5180   41.9170 C   0  0  0  0  0  0  0  0  0  0  0  0
   12.4110   17.2880   43.9340 C   0  0  0  0  0  0  0  0  0  0  0  0
   13.0490   17.2210   45.2890 C   0  0  0  0  0  0  0  0  0  0  0  0
   13.8360   16.2590   45.9090 C   0  0  0  0  0  0  0  0  0  0  0  0
   13.5460   17.9760   47.2840 N   0  0  0  0  0  0  0  0  0  0  0  0
   12.8600   18.2710   46.0990 N   0  0  0  0  0  0  0  0  0  0  0  0
   14.2750   14.9530   45.3350 C   0  0  0  0  0  0  0  0  0  0  0  0
   14.5610   14.8480   43.9700 C   0  0  0  0  0  0  0  0  0  0  0  0
   14.9620   13.6200   43.4520 C   0  0  0  0  0  0  0  0  0  0  0  0
   15.0790   12.5580   44.2660 N   0  0  0  0  0  0  0  0  0  0  0  0
   14.8090   12.6220   45.5910 C   0  0  0  0  0  0  0  0  0  0  0  0
   14.3960   13.8330   46.1560 C   0  0  0  0  0  0  0  0  0  0  0  0
   13.0187   19.3360   43.5880 H   0  0  0  0  0  0  0  0  0  0  0  0
   14.7365   16.2491   47.9357 H   0  0  0  0  0  0  0  0  0  0  0  0
   10.6427   15.3409   41.7021 H   0  0  0  0  0  0  0  0  0  0  0  0
   11.6752   15.2486   43.9799 H   0  0  0  0  0  0  0  0  0  0  0  0
   11.7109   18.6926   38.7974 H   0  0  0  0  0  0  0  0  0  0  0  0
   10.5775   19.5512   39.8886 H   0  0  0  0  0  0  0  0  0  0  0  0
    7.9150   15.0687   37.3278 H   0  0  0  0  0  0  0  0  0  0  0  0
    5.2945   16.8086   34.3704 H   0  0  0  0  0  0  0  0  0  0  0  0
    6.1478   14.8140   35.5888 H   0  0  0  0  0  0  0  0  0  0  0  0
    6.2909   19.0607   34.7942 H   0  0  0  0  0  0  0  0  0  0  0  0
    7.8483   20.4888   36.0488 H   0  0  0  0  0  0  0  0  0  0  0  0
    9.6535   20.6830   37.7836 H   0  0  0  0  0  0  0  0  0  0  0  0
   11.9597   19.4496   41.3354 H   0  0  0  0  0  0  0  0  0  0  0  0
   13.5979   18.5866   48.1119 H   0  0  0  0  0  0  0  0  0  0  0  0
   14.4701   15.7258   43.3134 H   0  0  0  0  0  0  0  0  0  0  0  0
   15.1825   13.5195   42.3790 H   0  0  0  0  0  0  0  0  0  0  0  0
   14.9139   11.7259   46.2203 H   0  0  0  0  0  0  0  0  0  0  0  0
   14.1704   13.9005   47.2305 H   0  0  0  0  0  0  0  0  0  0  0  0
 18  1  2  0
  1 19  1  0
 21  2  2  0
  2 22  1  0
  6  3  2  0
  3  5  1  0
 16  4  1  0
 12  4  2  0
  4  7  1  0
  5 19  2  0
 17  6  1  0
  6 18  1  0
  7 17  1  0
 10  8  2  0
  8 11  1  0
  9 13  2  0
  9 10  1  0
 14 11  2  0
 11 12  1  0
 13 14  1  0
 14 15  1  0
 15 16  2  0
 19 20  1  0
 20 21  1  0
 20 23  2  0
 24 21  1  0
 23 22  1  0
 25 24  2  0
 24 29  1  0
 26 25  1  0
 26 27  2  0
 27 28  1  0
 28 29  2  0
  1 30  1  0
  2 31  1  0
  3 32  1  0
  5 33  1  0
  7 34  1  0
  7 35  1  0
  8 36  1  0
  9 37  1  0
 10 38  1  0
 13 39  1  0
 15 40  1  0
 16 41  1  0
 18 42  1  0
 22 43  1  0
 25 44  1  0
 26 45  1  0
 28 46  1  0
 29 47  1  0
A    1
C7
A    2
C6
A    3
C13
A    4
C20
A    5
C8
A    6
C16
A    7
C19
A    8
C26
A    9
C29
A   10
C28
A   11
C23
A   12
N21
A   13
C27
A   14
C25
A   15
C24
A   16
C22
A   17
O18
A   18
C12
A   19
C3
A   20
C1
A   21
C2
A   22
N9
A   23
N4
A   24
C5
A   25
C11
A   26
C15
A   27
N17
A   28
C14
A   29
C10
M  END
