3HSW_MCW_A_500
     RDKit          3D

 16 16  0  0  0  0  0  0  0  0999 V2000
  -33.4280   18.2420   -8.1240 C   0  0  0  0  0  0  0  0  0  0  0  0
  -34.2560   18.6350   -6.9560 O   0  0  0  0  0  0  0  0  0  0  0  0
  -35.6040   18.3120   -6.9650 C   0  0  0  0  0  0  0  0  0  0  0  0
  -36.3070   18.1210   -8.1560 C   0  0  0  0  0  0  0  0  0  0  0  0
  -37.6380   17.7890   -8.1190 C   0  0  0  0  0  0  0  0  0  0  0  0
  -38.2590   17.6270   -9.1400 O   0  0  0  0  0  0  0  0  0  0  0  0
  -38.3190   17.6530   -6.9500 C   0  0  0  0  0  0  0  0  0  0  0  0
  -37.6450   17.8550   -5.7600 C   0  0  0  0  0  0  0  0  0  0  0  0
  -36.2990   18.1800   -5.7640 C   0  0  0  0  0  0  0  0  0  0  0  0
  -35.7520   18.3380   -4.6810 O   0  0  0  0  0  0  0  0  0  0  0  0
  -32.4864   17.7951   -7.7722 H   0  0  0  0  0  0  0  0  0  0  0  0
  -33.9772   17.5085   -8.7326 H   0  0  0  0  0  0  0  0  0  0  0  0
  -33.2069   19.1313   -8.7326 H   0  0  0  0  0  0  0  0  0  0  0  0
  -35.7948   18.2365   -9.1226 H   0  0  0  0  0  0  0  0  0  0  0  0
  -39.3864   17.3872   -6.9511 H   0  0  0  0  0  0  0  0  0  0  0  0
  -38.1811   17.7570   -4.8045 H   0  0  0  0  0  0  0  0  0  0  0  0
  1  2  1  0
  2  3  1  0
  3  4  2  0
  3  9  1  0
  4  5  1  0
  5  6  2  0
  5  7  1  0
  7  8  2  0
  8  9  1  0
  9 10  2  0
  1 11  1  0
  1 12  1  0
  1 13  1  0
  4 14  1  0
  7 15  1  0
  8 16  1  0
A    1
C7
A    2
O3
A    3
C6
A    4
C5
A    5
C3
A    6
O1
A    7
C1
A    8
C2
A    9
C4
A   10
O2
M  END
