3HVI_619_A_267
     RDKit          3D

 67 71  0  0  0  0  0  0  0  0999 V2000
    0.6320    7.2750   18.2980 F   0  0  0  0  0  0  0  0  0  0  0  0
    0.6360    8.4420   17.6000 C   0  0  0  0  0  0  0  0  0  0  0  0
   -0.2340    9.4700   17.9320 C   0  0  0  0  0  0  0  0  0  0  0  0
   -0.2110   10.6250   17.2020 C   0  0  0  0  0  0  0  0  0  0  0  0
    1.5660    8.5670   16.5680 C   0  0  0  0  0  0  0  0  0  0  0  0
    1.5730    9.7580   15.8500 C   0  0  0  0  0  0  0  0  0  0  0  0
    0.7120   10.8130   16.1750 C   0  0  0  0  0  0  0  0  0  0  0  0
    0.7400   12.0880   15.4140 C   0  0  0  0  0  0  0  0  0  0  0  0
   -0.4330   12.7650   15.1370 C   0  0  0  0  0  0  0  0  0  0  0  0
    1.9610   12.6280   14.9490 C   0  0  0  0  0  0  0  0  0  0  0  0
    1.9890   13.8430   14.2630 C   0  0  0  0  0  0  0  0  0  0  0  0
    3.1590   14.3600   13.8010 O   0  0  0  0  0  0  0  0  0  0  0  0
    0.7850   14.5210   13.9540 C   0  0  0  0  0  0  0  0  0  0  0  0
    0.9130   15.6510   13.2420 O   0  0  0  0  0  0  0  0  0  0  0  0
   -0.4020   13.9780   14.4210 C   0  0  0  0  0  0  0  0  0  0  0  0
   -1.7250   14.6530   14.2200 C   0  0  0  0  0  0  0  0  0  0  0  0
   -2.7880   14.0340   14.3890 O   0  0  0  0  0  0  0  0  0  0  0  0
   -1.7100   15.9160   13.8290 N   0  0  0  0  0  0  0  0  0  0  0  0
   -2.9620   16.6640   13.7430 C   0  0  0  0  0  0  0  0  0  0  0  0
   -2.6470   18.1270   13.9340 C   0  0  0  0  0  0  0  0  0  0  0  0
   -3.4550   18.9640   14.5330 C   0  0  0  0  0  0  0  0  0  0  0  0
   -3.1100   20.4340   14.7060 C   0  0  0  0  0  0  0  0  0  0  0  0
   -3.7450   21.0160   15.9800 C   0  0  0  0  0  0  0  0  0  0  0  0
   -3.0570   22.1290   16.4710 O   0  0  0  0  0  0  0  0  0  0  0  0
   -5.1280   21.3780   15.4300 C   0  0  0  0  0  0  0  0  0  0  0  0
   -5.8910   22.2750   16.2120 O   0  0  0  0  0  0  0  0  0  0  0  0
   -3.6320   21.2100   13.6160 O   0  0  0  0  0  0  0  0  0  0  0  0
   -4.7910   21.9050   14.0440 C   0  0  0  0  0  0  0  0  0  0  0  0
   -5.8360   21.7220   13.0610 N   0  0  0  0  0  0  0  0  0  0  0  0
   -6.3500   20.4760   12.6410 C   0  0  0  0  0  0  0  0  0  0  0  0
   -6.2130   22.6340   12.0970 C   0  0  0  0  0  0  0  0  0  0  0  0
   -5.9180   23.9440   12.0380 N   0  0  0  0  0  0  0  0  0  0  0  0
   -6.3960   24.5940   10.9800 C   0  0  0  0  0  0  0  0  0  0  0  0
   -7.1620   24.0100   10.0300 N   0  0  0  0  0  0  0  0  0  0  0  0
   -7.5000   22.7030   10.1200 C   0  0  0  0  0  0  0  0  0  0  0  0
   -7.0010   21.9220   11.1610 C   0  0  0  0  0  0  0  0  0  0  0  0
   -7.0970   20.6010   11.5510 N   0  0  0  0  0  0  0  0  0  0  0  0
   -8.2840   22.2470    9.1090 N   0  0  0  0  0  0  0  0  0  0  0  0
   -8.9600   20.9470    9.0880 C   0  0  0  0  0  0  0  0  0  0  0  0
  -10.1910   20.9520    9.9410 C   0  0  0  0  0  0  0  0  0  0  0  0
   -0.9341    9.3569   18.7729 H   0  0  0  0  0  0  0  0  0  0  0  0
   -0.9348   11.4215   17.4294 H   0  0  0  0  0  0  0  0  0  0  0  0
    2.2678    7.7538   16.3309 H   0  0  0  0  0  0  0  0  0  0  0  0
    2.2709    9.8737   15.0076 H   0  0  0  0  0  0  0  0  0  0  0  0
   -1.3952   12.3547   15.4772 H   0  0  0  0  0  0  0  0  0  0  0  0
    2.8999   12.0842   15.1300 H   0  0  0  0  0  0  0  0  0  0  0  0
    3.8512   14.6659   14.4392 H   0  0  0  0  0  0  0  0  0  0  0  0
    1.0114   16.5200   13.7060 H   0  0  0  0  0  0  0  0  0  0  0  0
   -0.8185   16.3710   13.5858 H   0  0  0  0  0  0  0  0  0  0  0  0
   -3.4231   16.5074   12.7566 H   0  0  0  0  0  0  0  0  0  0  0  0
   -3.6651   16.3211   14.5163 H   0  0  0  0  0  0  0  0  0  0  0  0
   -1.6896   18.5094   13.5503 H   0  0  0  0  0  0  0  0  0  0  0  0
   -4.4138   18.5921   14.9235 H   0  0  0  0  0  0  0  0  0  0  0  0
   -2.0123   20.4870   14.7545 H   0  0  0  0  0  0  0  0  0  0  0  0
   -3.7474   20.3381   16.8463 H   0  0  0  0  0  0  0  0  0  0  0  0
   -3.0670   22.1129   17.4608 H   0  0  0  0  0  0  0  0  0  0  0  0
   -5.8073   20.5128   15.4291 H   0  0  0  0  0  0  0  0  0  0  0  0
   -5.7346   22.0911   17.1721 H   0  0  0  0  0  0  0  0  0  0  0  0
   -4.6481   22.9928   14.1232 H   0  0  0  0  0  0  0  0  0  0  0  0
   -6.1559   19.5218   13.1526 H   0  0  0  0  0  0  0  0  0  0  0  0
   -6.1558   25.6620   10.8721 H   0  0  0  0  0  0  0  0  0  0  0  0
   -8.4135   22.8629    8.2936 H   0  0  0  0  0  0  0  0  0  0  0  0
   -9.2443   20.7091    8.0523 H   0  0  0  0  0  0  0  0  0  0  0  0
   -8.2670   20.1923    9.4883 H   0  0  0  0  0  0  0  0  0  0  0  0
   -9.9017   20.9508   11.0023 H   0  0  0  0  0  0  0  0  0  0  0  0
  -10.7841   21.8526    9.7236 H   0  0  0  0  0  0  0  0  0  0  0  0
  -10.7914   20.0563    9.7236 H   0  0  0  0  0  0  0  0  0  0  0  0
  1  2  1  0
  2  3  2  0
  2  5  1  0
  3  4  1  0
  4  7  2  0
  5  6  2  0
  6  7  1  0
  7  8  1  0
  8  9  2  0
  8 10  1  0
  9 15  1  0
 10 11  2  0
 11 12  1  0
 11 13  1  0
 13 14  1  0
 13 15  2  0
 15 16  1  0
 16 17  2  0
 16 18  1  0
 18 19  1  0
 19 20  1  0
 20 21  2  0
 21 22  1  0
 22 23  1  0
 22 27  1  0
 23 24  1  0
 23 25  1  0
 25 26  1  0
 25 28  1  0
 27 28  1  0
 28 29  1  0
 29 30  1  0
 29 31  1  0
 30 37  2  0
 31 32  2  0
 31 36  1  0
 32 33  1  0
 33 34  2  0
 34 35  1  0
 35 36  2  0
 35 38  1  0
 36 37  1  0
 38 39  1  0
 39 40  1  0
  3 41  1  0
  4 42  1  0
  5 43  1  0
  6 44  1  0
  9 45  1  0
 10 46  1  0
 12 47  1  0
 14 48  1  0
 18 49  1  0
 19 50  1  0
 19 51  1  0
 20 52  1  0
 21 53  1  0
 22 54  1  0
 23 55  1  0
 24 56  1  0
 25 57  1  0
 26 58  1  0
 28 59  1  0
 30 60  1  0
 33 61  1  0
 38 62  1  0
 39 63  1  0
 39 64  1  0
 40 65  1  0
 40 66  1  0
 40 67  1  0
A    1
F30
A    2
C29
A    3
C26
A    4
C25
A    5
C28
A    6
C27
A    7
C24
A    8
C22
A    9
C21
A   10
C23
A   11
C33
A   12
O34
A   13
C31
A   14
O32
A   15
C20
A   16
C18
A   17
O19
A   18
N17
A   19
C16
A   20
C15
A   21
C14
A   22
C6
A   23
C4
A   24
O5
A   25
C2
A   26
O3
A   27
O13
A   28
C1
A   29
N10
A   30
C9
A   31
C11
A   32
N40
A   33
C39
A   34
N38
A   35
C35
A   36
C12
A   37
N8
A   38
N7
A   39
C36
A   40
C37
M  END
