3HXB_BD5_B_332
     RDKit          3D

 81 84  0  0  0  0  0  0  0  0999 V2000
    5.8440   18.8800   27.3910 C   0  0  0  0  0  0  0  0  0  0  0  0
    5.3500   20.1850   27.3650 C   0  0  0  0  0  0  0  0  0  0  0  0
    3.9850   20.4190   27.2060 C   0  0  0  0  0  0  0  0  0  0  0  0
    3.5070   21.6930   27.1790 O   0  0  0  0  0  0  0  0  0  0  0  0
    3.1140   19.3400   27.0740 C   0  0  0  0  0  0  0  0  0  0  0  0
    3.6000   18.0320   27.1010 C   0  0  0  0  0  0  0  0  0  0  0  0
    4.9690   17.7970   27.2510 C   0  0  0  0  0  0  0  0  0  0  0  0
    5.4970   16.3530   27.2920 C   0  0  0  0  0  0  0  0  0  0  0  0
    5.8820   15.6930   25.9360 C   0  0  0  0  0  0  0  0  0  0  0  0
    4.9030   14.5580   25.5460 C   0  0  0  0  0  0  0  0  0  0  0  0
    4.3140   14.6490   24.4380 O   0  0  0  0  0  0  0  0  0  0  0  0
    4.7770   13.6110   26.3510 O   0  0  0  0  0  0  0  0  0  0  0  0
    5.9310   16.5960   24.7690 N   0  0  0  0  0  0  0  0  0  0  0  0
    7.0500   16.8510   24.0990 C   0  0  0  0  0  0  0  0  0  0  0  0
    8.1470   16.3680   24.3780 O   0  0  0  0  0  0  0  0  0  0  0  0
    6.8340   17.7590   22.8680 C   0  0  0  0  0  0  0  0  0  0  0  0
    7.6600   17.2060   21.6390 C   0  0  0  0  0  0  0  0  0  0  0  0
    7.9100   18.2140   20.4910 C   0  0  0  0  0  0  0  0  0  0  0  0
    9.0910   18.1580   19.7700 C   0  0  0  0  0  0  0  0  0  0  0  0
    9.3110   19.0790   18.7560 C   0  0  0  0  0  0  0  0  0  0  0  0
    8.3840   20.0590   18.4330 C   0  0  0  0  0  0  0  0  0  0  0  0
    7.1990   20.1250   19.1360 C   0  0  0  0  0  0  0  0  0  0  0  0
    6.9860   19.2000   20.1470 C   0  0  0  0  0  0  0  0  0  0  0  0
    6.8770   19.2400   23.0430 N   0  0  0  0  0  0  0  0  0  0  0  0
    5.8170   19.9180   23.5320 C   0  0  0  0  0  0  0  0  0  0  0  0
    4.7650   19.3780   23.9000 O   0  0  0  0  0  0  0  0  0  0  0  0
    5.8900   21.4810   23.5400 C   0  0  0  0  0  0  0  0  0  0  0  0
    5.8220   22.2450   24.9140 C   0  0  0  0  0  0  0  0  0  0  0  0
    6.2430   23.7240   24.7350 C   0  0  0  0  0  0  0  0  0  0  0  0
    7.1330   24.2750   25.6670 C   0  0  0  0  0  0  0  0  0  0  0  0
    7.5480   25.5970   25.5250 C   0  0  0  0  0  0  0  0  0  0  0  0
    7.0950   26.3670   24.4510 C   0  0  0  0  0  0  0  0  0  0  0  0
    7.5250   27.6350   24.3460 O   0  0  0  0  0  0  0  0  0  0  0  0
    6.2270   25.8350   23.4990 C   0  0  0  0  0  0  0  0  0  0  0  0
    5.8010   24.5100   23.6470 C   0  0  0  0  0  0  0  0  0  0  0  0
    6.8200   22.0390   22.4720 N   0  0  0  0  0  0  0  0  0  0  0  0
    8.1370   22.3610   22.4730 C   0  0  0  0  0  0  0  0  0  0  0  0
    8.9520   22.2170   23.3840 O   0  0  0  0  0  0  0  0  0  0  0  0
    8.6060   22.8660   21.2840 O   0  0  0  0  0  0  0  0  0  0  0  0
    8.5880   24.2820   21.0430 C   0  0  0  0  0  0  0  0  0  0  0  0
    7.7360   24.8560   20.1190 C   0  0  0  0  0  0  0  0  0  0  0  0
    6.7380   24.0740   19.5180 C   0  0  0  0  0  0  0  0  0  0  0  0
    5.8540   24.6200   18.5860 C   0  0  0  0  0  0  0  0  0  0  0  0
    5.9860   25.9710   18.2730 C   0  0  0  0  0  0  0  0  0  0  0  0
    6.9850   26.7490   18.8800 C   0  0  0  0  0  0  0  0  0  0  0  0
    7.8800   26.2120   19.8100 C   0  0  0  0  0  0  0  0  0  0  0  0
    6.9217   18.7027   27.5216 H   0  0  0  0  0  0  0  0  0  0  0  0
    6.0417   21.0338   27.4706 H   0  0  0  0  0  0  0  0  0  0  0  0
    3.3272   22.1723   28.0264 H   0  0  0  0  0  0  0  0  0  0  0  0
    2.0362   19.5200   26.9477 H   0  0  0  0  0  0  0  0  0  0  0  0
    2.9045   17.1853   27.0041 H   0  0  0  0  0  0  0  0  0  0  0  0
    6.3943   16.3476   27.9282 H   0  0  0  0  0  0  0  0  0  0  0  0
    4.6530   15.7551   27.6666 H   0  0  0  0  0  0  0  0  0  0  0  0
    6.8994   15.3289   26.1416 H   0  0  0  0  0  0  0  0  0  0  0  0
    3.3361   14.8001   24.4082 H   0  0  0  0  0  0  0  0  0  0  0  0
    5.0588   17.0486   24.4603 H   0  0  0  0  0  0  0  0  0  0  0  0
    5.7582   17.6733   22.6553 H   0  0  0  0  0  0  0  0  0  0  0  0
    8.6384   16.8700   22.0129 H   0  0  0  0  0  0  0  0  0  0  0  0
    7.0488   16.4014   21.2042 H   0  0  0  0  0  0  0  0  0  0  0  0
    9.8463   17.3917   19.9987 H   0  0  0  0  0  0  0  0  0  0  0  0
   10.2524   19.0304   18.1890 H   0  0  0  0  0  0  0  0  0  0  0  0
    8.5916   20.7759   17.6249 H   0  0  0  0  0  0  0  0  0  0  0  0
    6.4441   20.8899   18.9012 H   0  0  0  0  0  0  0  0  0  0  0  0
    6.0398   19.2465   20.7061 H   0  0  0  0  0  0  0  0  0  0  0  0
    7.7313   19.7547   22.7859 H   0  0  0  0  0  0  0  0  0  0  0  0
    4.8779   21.7661   23.2168 H   0  0  0  0  0  0  0  0  0  0  0  0
    4.7923   22.2060   25.2990 H   0  0  0  0  0  0  0  0  0  0  0  0
    6.5111   21.7629   25.6230 H   0  0  0  0  0  0  0  0  0  0  0  0
    7.5018   23.6667   26.5061 H   0  0  0  0  0  0  0  0  0  0  0  0
    8.2358   26.0369   26.2622 H   0  0  0  0  0  0  0  0  0  0  0  0
    7.7050   28.1658   25.1620 H   0  0  0  0  0  0  0  0  0  0  0  0
    5.8840   26.4436   22.6493 H   0  0  0  0  0  0  0  0  0  0  0  0
    5.1133   24.0749   22.9069 H   0  0  0  0  0  0  0  0  0  0  0  0
    6.3559   22.2052   21.5676 H   0  0  0  0  0  0  0  0  0  0  0  0
    8.3594   24.7560   22.0089 H   0  0  0  0  0  0  0  0  0  0  0  0
    9.5737   24.4512   20.5851 H   0  0  0  0  0  0  0  0  0  0  0  0
    6.6506   23.0108   19.7863 H   0  0  0  0  0  0  0  0  0  0  0  0
    5.0765   24.0021   18.1129 H   0  0  0  0  0  0  0  0  0  0  0  0
    5.3024   26.4319   17.5448 H   0  0  0  0  0  0  0  0  0  0  0  0
    7.0658   27.8137   18.6156 H   0  0  0  0  0  0  0  0  0  0  0  0
    8.6621   26.8283   20.2775 H   0  0  0  0  0  0  0  0  0  0  0  0
  1  2  2  0
  1  7  1  0
  2  3  1  0
  3  4  1  0
  3  5  2  0
  5  6  1  0
  6  7  2  0
  7  8  1  0
  8  9  1  0
  9 10  1  0
  9 13  1  0
 10 11  1  0
 10 12  2  0
 13 14  1  0
 14 15  2  0
 14 16  1  0
 16 17  1  0
 16 24  1  0
 17 18  1  0
 18 19  2  0
 18 23  1  0
 19 20  1  0
 20 21  2  0
 21 22  1  0
 22 23  2  0
 24 25  1  0
 25 26  2  0
 25 27  1  0
 27 28  1  0
 27 36  1  0
 28 29  1  0
 29 30  2  0
 29 35  1  0
 30 31  1  0
 31 32  2  0
 32 33  1  0
 32 34  1  0
 34 35  2  0
 36 37  1  0
 37 38  2  0
 37 39  1  0
 39 40  1  0
 40 41  1  0
 41 42  2  0
 41 46  1  0
 42 43  1  0
 43 44  2  0
 44 45  1  0
 45 46  2  0
  1 47  1  0
  2 48  1  0
  4 49  1  0
  5 50  1  0
  6 51  1  0
  8 52  1  0
  8 53  1  0
  9 54  1  0
 11 55  1  0
 13 56  1  0
 16 57  1  0
 17 58  1  0
 17 59  1  0
 19 60  1  0
 20 61  1  0
 21 62  1  0
 22 63  1  0
 23 64  1  0
 24 65  1  0
 27 66  1  0
 28 67  1  0
 28 68  1  0
 30 69  1  0
 31 70  1  0
 33 71  1  0
 34 72  1  0
 35 73  1  0
 36 74  1  0
 40 75  1  0
 40 76  1  0
 42 77  1  0
 43 78  1  0
 44 79  1  0
 45 80  1  0
 46 81  1  0
A    1
C43
A    2
C42
A    3
C41
A    4
O44
A    5
C40
A    6
C39
A    7
C38
A    8
C37
A    9
C35
A   10
C36
A   11
O45
A   12
O46
A   13
N33
A   14
C32
A   15
O34
A   16
C24
A   17
C25
A   18
C26
A   19
C31
A   20
C30
A   21
C29
A   22
C28
A   23
C27
A   24
N22
A   25
C21
A   26
O23
A   27
C12
A   28
C13
A   29
C14
A   30
C19
A   31
C18
A   32
C17
A   33
O20
A   34
C16
A   35
C15
A   36
N10
A   37
C9
A   38
O11
A   39
O8
A   40
C7
A   41
C3
A   42
C2
A   43
C1
A   44
C6
A   45
C5
A   46
C4
M  END
