3HXE_BD8_B_334
     RDKit          3D

112115  0  0  0  0  0  0  0  0999 V2000
   -0.3340   28.1110   31.4690 C   0  0  0  0  0  0  0  0  0  0  0  0
   -0.3340   26.8650   30.5830 C   0  0  0  0  0  0  0  0  0  0  0  0
    0.1120   25.6170   31.3420 C   0  0  0  0  0  0  0  0  0  0  0  0
   -0.0130   24.3490   30.4590 C   0  0  0  0  0  0  0  0  0  0  0  0
    0.1110   23.1010   31.3240 C   0  0  0  0  0  0  0  0  0  0  0  0
    1.3110   22.2400   30.9080 C   0  0  0  0  0  0  0  0  0  0  0  0
    1.1240   21.6560   29.5100 C   0  0  0  0  0  0  0  0  0  0  0  0
    2.2040   22.2170   28.6090 C   0  0  0  0  0  0  0  0  0  0  0  0
    3.3630   21.2430   28.4950 C   0  0  0  0  0  0  0  0  0  0  0  0
    3.2160   20.5850   27.1470 C   0  0  0  0  0  0  0  0  0  0  0  0
    4.4630   19.8260   26.8120 C   0  0  0  0  0  0  0  0  0  0  0  0
    5.5970   20.2790   27.0510 O   0  0  0  0  0  0  0  0  0  0  0  0
    4.1340   18.6750   26.2540 N   0  0  0  0  0  0  0  0  0  0  0  0
    5.0630   17.6260   25.7840 C   0  0  0  0  0  0  0  0  0  0  0  0
    4.3720   16.5230   24.8890 C   0  0  0  0  0  0  0  0  0  0  0  0
    2.8490   16.4810   24.9200 C   0  0  0  0  0  0  0  0  0  0  0  0
    2.0300   16.7180   23.9100 C   0  0  0  0  0  0  0  0  0  0  0  0
    0.7990   16.5830   24.3820 N   0  0  0  0  0  0  0  0  0  0  0  0
    0.8450   16.2500   25.6660 C   0  0  0  0  0  0  0  0  0  0  0  0
    2.1220   16.1970   25.9900 N   0  0  0  0  0  0  0  0  0  0  0  0
    6.1140   18.1850   24.8400 C   0  0  0  0  0  0  0  0  0  0  0  0
    7.2380   17.6810   24.7870 O   0  0  0  0  0  0  0  0  0  0  0  0
    5.6740   19.1600   24.0610 N   0  0  0  0  0  0  0  0  0  0  0  0
    6.5780   19.7190   23.0460 C   0  0  0  0  0  0  0  0  0  0  0  0
    6.4680   18.6980   21.8620 C   0  0  0  0  0  0  0  0  0  0  0  0
    7.2220   19.2350   20.6120 C   0  0  0  0  0  0  0  0  0  0  0  0
    6.5900   20.1660   19.7740 C   0  0  0  0  0  0  0  0  0  0  0  0
    7.3230   20.6430   18.6580 C   0  0  0  0  0  0  0  0  0  0  0  0
    8.6480   20.2230   18.4580 C   0  0  0  0  0  0  0  0  0  0  0  0
    9.2580   19.3010   19.3090 C   0  0  0  0  0  0  0  0  0  0  0  0
    8.5650   18.8030   20.4190 C   0  0  0  0  0  0  0  0  0  0  0  0
    6.1030   21.0640   22.5170 C   0  0  0  0  0  0  0  0  0  0  0  0
    4.9110   21.3150   22.3450 O   0  0  0  0  0  0  0  0  0  0  0  0
    7.0790   21.9110   22.2370 N   0  0  0  0  0  0  0  0  0  0  0  0
    6.8160   23.2310   21.6240 C   0  0  0  0  0  0  0  0  0  0  0  0
    5.9800   24.1900   22.4720 C   0  0  0  0  0  0  0  0  0  0  0  0
    6.6490   24.4200   23.7890 C   0  0  0  0  0  0  0  0  0  0  0  0
    6.3900   23.5090   24.8490 C   0  0  0  0  0  0  0  0  0  0  0  0
    6.9700   23.7500   26.0900 C   0  0  0  0  0  0  0  0  0  0  0  0
    7.7990   24.8660   26.2470 C   0  0  0  0  0  0  0  0  0  0  0  0
    8.4290   25.0300   27.4500 O   0  0  0  0  0  0  0  0  0  0  0  0
    8.0300   25.7830   25.1830 C   0  0  0  0  0  0  0  0  0  0  0  0
    7.4490   25.5740   23.9270 C   0  0  0  0  0  0  0  0  0  0  0  0
    8.1680   23.8260   21.1220 C   0  0  0  0  0  0  0  0  0  0  0  0
    9.2020   23.4560   21.7140 O   0  0  0  0  0  0  0  0  0  0  0  0
    8.1520   24.6570   20.0550 N   0  0  0  0  0  0  0  0  0  0  0  0
    9.4510   25.1700   19.6100 C   0  0  0  0  0  0  0  0  0  0  0  0
    6.9440   25.0830   19.3240 C   0  0  0  0  0  0  0  0  0  0  0  0
    6.8890   26.6240   19.2890 C   0  0  0  0  0  0  0  0  0  0  0  0
    5.4960   26.9920   18.8320 C   0  0  0  0  0  0  0  0  0  0  0  0
    5.2930   27.7160   17.6740 C   0  0  0  0  0  0  0  0  0  0  0  0
    3.9910   28.0160   17.2820 C   0  0  0  0  0  0  0  0  0  0  0  0
    2.9260   27.5850   18.0680 C   0  0  0  0  0  0  0  0  0  0  0  0
    3.1860   26.8780   19.2250 C   0  0  0  0  0  0  0  0  0  0  0  0
    4.4430   26.6010   19.5660 N   0  0  0  0  0  0  0  0  0  0  0  0
    0.7031   28.4098   31.6815 H   0  0  0  0  0  0  0  0  0  0  0  0
   -0.8525   28.9303   30.9495 H   0  0  0  0  0  0  0  0  0  0  0  0
   -0.8525   27.8893   32.4134 H   0  0  0  0  0  0  0  0  0  0  0  0
   -1.3526   26.7021   30.2009 H   0  0  0  0  0  0  0  0  0  0  0  0
    0.3792   27.0341   29.7627 H   0  0  0  0  0  0  0  0  0  0  0  0
    1.1615   25.7391   31.6479 H   0  0  0  0  0  0  0  0  0  0  0  0
   -0.5368   25.4940   32.2218 H   0  0  0  0  0  0  0  0  0  0  0  0
   -0.9917   24.3491   29.9569 H   0  0  0  0  0  0  0  0  0  0  0  0
    0.7902   24.3502   29.7074 H   0  0  0  0  0  0  0  0  0  0  0  0
    0.2373   23.4056   32.3734 H   0  0  0  0  0  0  0  0  0  0  0  0
   -0.8025   22.5019   31.1950 H   0  0  0  0  0  0  0  0  0  0  0  0
    2.2177   22.8628   30.9167 H   0  0  0  0  0  0  0  0  0  0  0  0
    1.4009   21.4067   31.6205 H   0  0  0  0  0  0  0  0  0  0  0  0
    1.2069   20.5599   29.5512 H   0  0  0  0  0  0  0  0  0  0  0  0
    0.1305   21.9214   29.1194 H   0  0  0  0  0  0  0  0  0  0  0  0
    1.7831   22.3970   27.6088 H   0  0  0  0  0  0  0  0  0  0  0  0
    2.5730   23.1588   29.0412 H   0  0  0  0  0  0  0  0  0  0  0  0
    4.3214   21.7793   28.5569 H   0  0  0  0  0  0  0  0  0  0  0  0
    3.3519   20.5038   29.3095 H   0  0  0  0  0  0  0  0  0  0  0  0
    2.3622   19.8918   27.1706 H   0  0  0  0  0  0  0  0  0  0  0  0
    3.0461   21.3580   26.3831 H   0  0  0  0  0  0  0  0  0  0  0  0
    3.1279   18.4896   26.1342 H   0  0  0  0  0  0  0  0  0  0  0  0
    5.4665   17.2169   26.7220 H   0  0  0  0  0  0  0  0  0  0  0  0
    4.6808   16.6955   23.8474 H   0  0  0  0  0  0  0  0  0  0  0  0
    4.6993   15.5599   25.3079 H   0  0  0  0  0  0  0  0  0  0  0  0
    2.3145   16.9767   22.8794 H   0  0  0  0  0  0  0  0  0  0  0  0
   -0.0634   16.7164   23.8349 H   0  0  0  0  0  0  0  0  0  0  0  0
   -0.0118   16.0567   26.3282 H   0  0  0  0  0  0  0  0  0  0  0  0
    4.7148   19.5208   24.1642 H   0  0  0  0  0  0  0  0  0  0  0  0
    7.5851   19.8681   23.4625 H   0  0  0  0  0  0  0  0  0  0  0  0
    6.9108   17.7387   22.1681 H   0  0  0  0  0  0  0  0  0  0  0  0
    5.4069   18.5599   21.6070 H   0  0  0  0  0  0  0  0  0  0  0  0
    5.5655   20.5124   19.9750 H   0  0  0  0  0  0  0  0  0  0  0  0
    6.8541   21.3416   17.9494 H   0  0  0  0  0  0  0  0  0  0  0  0
    9.2184   20.6306   17.6103 H   0  0  0  0  0  0  0  0  0  0  0  0
   10.2857   18.9645   19.1075 H   0  0  0  0  0  0  0  0  0  0  0  0
    9.0423   18.1012   21.1188 H   0  0  0  0  0  0  0  0  0  0  0  0
    8.0502   21.6438   22.4520 H   0  0  0  0  0  0  0  0  0  0  0  0
    6.1522   23.0762   20.7606 H   0  0  0  0  0  0  0  0  0  0  0  0
    5.8765   25.1489   21.9431 H   0  0  0  0  0  0  0  0  0  0  0  0
    4.9863   23.7502   22.6425 H   0  0  0  0  0  0  0  0  0  0  0  0
    5.7447   22.6322   24.6912 H   0  0  0  0  0  0  0  0  0  0  0  0
    6.7797   23.0729   26.9358 H   0  0  0  0  0  0  0  0  0  0  0  0
    7.9273   24.8994   28.2934 H   0  0  0  0  0  0  0  0  0  0  0  0
    8.6698   26.6622   25.3492 H   0  0  0  0  0  0  0  0  0  0  0  0
    7.6076   26.2722   23.0919 H   0  0  0  0  0  0  0  0  0  0  0  0
   10.0688   25.4140   20.4868 H   0  0  0  0  0  0  0  0  0  0  0  0
    9.9594   24.4051   19.0046 H   0  0  0  0  0  0  0  0  0  0  0  0
    9.2996   26.0759   19.0046 H   0  0  0  0  0  0  0  0  0  0  0  0
    6.9793   24.6927   18.2962 H   0  0  0  0  0  0  0  0  0  0  0  0
    6.0489   24.6928   19.8305 H   0  0  0  0  0  0  0  0  0  0  0  0
    7.0811   27.0342   20.2914 H   0  0  0  0  0  0  0  0  0  0  0  0
    7.6521   27.0346   18.6114 H   0  0  0  0  0  0  0  0  0  0  0  0
    6.1484   28.0513   17.0692 H   0  0  0  0  0  0  0  0  0  0  0  0
    3.8059   28.5877   16.3607 H   0  0  0  0  0  0  0  0  0  0  0  0
    1.8900   27.8050   17.7709 H   0  0  0  0  0  0  0  0  0  0  0  0
    2.3556   26.5439   19.8644 H   0  0  0  0  0  0  0  0  0  0  0  0
  1  2  1  0
  2  3  1  0
  3  4  1  0
  4  5  1  0
  5  6  1  0
  6  7  1  0
  7  8  1  0
  8  9  1  0
  9 10  1  0
 10 11  1  0
 11 12  2  0
 11 13  1  0
 13 14  1  0
 14 15  1  0
 14 21  1  0
 15 16  1  0
 16 17  2  0
 16 20  1  0
 17 18  1  0
 18 19  1  0
 19 20  2  0
 21 22  2  0
 21 23  1  0
 23 24  1  0
 24 25  1  0
 24 32  1  0
 25 26  1  0
 26 27  2  0
 26 31  1  0
 27 28  1  0
 28 29  2  0
 29 30  1  0
 30 31  2  0
 32 33  2  0
 32 34  1  0
 34 35  1  0
 35 36  1  0
 35 44  1  0
 36 37  1  0
 37 38  2  0
 37 43  1  0
 38 39  1  0
 39 40  2  0
 40 41  1  0
 40 42  1  0
 42 43  2  0
 44 45  2  0
 44 46  1  0
 46 47  1  0
 46 48  1  0
 48 49  1  0
 49 50  1  0
 50 51  2  0
 50 55  1  0
 51 52  1  0
 52 53  2  0
 53 54  1  0
 54 55  2  0
  1 56  1  0
  1 57  1  0
  1 58  1  0
  2 59  1  0
  2 60  1  0
  3 61  1  0
  3 62  1  0
  4 63  1  0
  4 64  1  0
  5 65  1  0
  5 66  1  0
  6 67  1  0
  6 68  1  0
  7 69  1  0
  7 70  1  0
  8 71  1  0
  8 72  1  0
  9 73  1  0
  9 74  1  0
 10 75  1  0
 10 76  1  0
 13 77  1  0
 14 78  1  0
 15 79  1  0
 15 80  1  0
 17 81  1  0
 18 82  1  0
 19 83  1  0
 23 84  1  0
 24 85  1  0
 25 86  1  0
 25 87  1  0
 27 88  1  0
 28 89  1  0
 29 90  1  0
 30 91  1  0
 31 92  1  0
 34 93  1  0
 35 94  1  0
 36 95  1  0
 36 96  1  0
 38 97  1  0
 39 98  1  0
 41 99  1  0
 42100  1  0
 43101  1  0
 47102  1  0
 47103  1  0
 47104  1  0
 48105  1  0
 48106  1  0
 49107  1  0
 49108  1  0
 51109  1  0
 52110  1  0
 53111  1  0
 54112  1  0
A    1
CAA
A    2
CAW
A    3
CAX
A    4
CAY
A    5
CAZ
A    6
CBA
A    7
CBB
A    8
CBC
A    9
CBD
A   10
CBE
A   11
CBQ
A   12
OAC
A   13
NBM
A   14
CCA
A   15
CBJ
A   16
CBY
A   17
CAV
A   18
NBP
A   19
CAU
A   20
NBL
A   21
CBS
A   22
OAE
A   23
N
A   24
CA
A   25
CB
A   26
CG
A   27
CD1
A   28
CE1
A   29
CZ
A   30
CE2
A   31
CD2
A   32
C
A   33
O
A   34
NBO
A   35
CCB
A   36
CBI
A   37
CBW
A   38
CAS
A   39
CAQ
A   40
CBU
A   41
OAG
A   42
CAR
A   43
CAT
A   44
CBT
A   45
OAF
A   46
NCC
A   47
CAB
A   48
CBG
A   49
CBF
A   50
CBX
A   51
CAP
A   52
CAL
A   53
CAI
A   54
CAM
A   55
NBK
M  END
