3HXV_G5A_A_444
     RDKit          3D

 44 46  0  0  0  0  0  0  0  0999 V2000
   24.3910   48.4610   20.4140 C   0  0  0  0  0  0  0  0  0  0  0  0
   23.5430   49.1510   18.1970 N   0  0  0  0  0  0  0  0  0  0  0  0
   24.1850   47.2970   20.1000 O   0  0  0  0  0  0  0  0  0  0  0  0
   25.5070   47.7670   22.5970 S   0  0  0  0  0  0  0  0  0  0  0  0
   23.6510   40.4530   27.4980 N   0  0  0  0  0  0  0  0  0  0  0  0
   22.7860   41.3240   28.0400 C   0  0  0  0  0  0  0  0  0  0  0  0
   22.7020   42.6000   27.6320 N   0  0  0  0  0  0  0  0  0  0  0  0
   23.5060   43.0560   26.6430 C   0  0  0  0  0  0  0  0  0  0  0  0
   24.4490   42.1750   26.0270 C   0  0  0  0  0  0  0  0  0  0  0  0
   24.4960   40.8180   26.5070 C   0  0  0  0  0  0  0  0  0  0  0  0
   25.3550   39.9170   25.9780 N   0  0  0  0  0  0  0  0  0  0  0  0
   25.0970   42.8930   25.0840 N   0  0  0  0  0  0  0  0  0  0  0  0
   24.5930   44.1560   25.1100 C   0  0  0  0  0  0  0  0  0  0  0  0
   23.6370   44.2420   26.0530 N   0  0  0  0  0  0  0  0  0  0  0  0
   24.0260   49.6040   19.4860 C   0  0  0  0  0  0  0  0  0  0  0  0
   22.8080   45.4200   26.4120 C   0  0  0  0  0  0  0  0  0  0  0  0
   26.2550   46.7350   22.0020 O   0  0  0  0  0  0  0  0  0  0  0  0
   23.5500   46.4990   27.1260 C   0  0  0  0  0  0  0  0  0  0  0  0
   22.7540   47.0720   28.1390 O   0  0  0  0  0  0  0  0  0  0  0  0
   26.1000   48.3510   23.7420 O   0  0  0  0  0  0  0  0  0  0  0  0
   23.9520   47.5500   26.1760 C   0  0  0  0  0  0  0  0  0  0  0  0
   24.3560   48.8190   26.5970 O   0  0  0  0  0  0  0  0  0  0  0  0
   24.9490   48.8270   21.5660 N   0  0  0  0  0  0  0  0  0  0  0  0
   22.9210   47.3230   25.0850 C   0  0  0  0  0  0  0  0  0  0  0  0
   22.3100   46.0490   25.2300 O   0  0  0  0  0  0  0  0  0  0  0  0
   23.1500   47.8390   23.7030 C   0  0  0  0  0  0  0  0  0  0  0  0
   24.1880   47.0330   23.1640 O   0  0  0  0  0  0  0  0  0  0  0  0
   22.7985   48.4528   18.3354 H   0  0  0  0  0  0  0  0  0  0  0  0
   23.1683   49.9525   17.6697 H   0  0  0  0  0  0  0  0  0  0  0  0
   22.1224   40.9802   28.8471 H   0  0  0  0  0  0  0  0  0  0  0  0
   25.9228   39.3214   26.5975 H   0  0  0  0  0  0  0  0  0  0  0  0
   25.4413   39.8264   24.9556 H   0  0  0  0  0  0  0  0  0  0  0  0
   24.9175   44.9814   24.4593 H   0  0  0  0  0  0  0  0  0  0  0  0
   24.9191   50.2263   19.3274 H   0  0  0  0  0  0  0  0  0  0  0  0
   23.2125   50.1700   19.9633 H   0  0  0  0  0  0  0  0  0  0  0  0
   22.0245   45.0099   27.0662 H   0  0  0  0  0  0  0  0  0  0  0  0
   24.4432   46.0500   27.5849 H   0  0  0  0  0  0  0  0  0  0  0  0
   23.1119   46.8143   29.0253 H   0  0  0  0  0  0  0  0  0  0  0  0
   24.9901   47.4790   25.8191 H   0  0  0  0  0  0  0  0  0  0  0  0
   24.3661   48.8507   27.5864 H   0  0  0  0  0  0  0  0  0  0  0  0
   25.0191   49.8295   21.7918 H   0  0  0  0  0  0  0  0  0  0  0  0
   22.1556   48.0874   25.2848 H   0  0  0  0  0  0  0  0  0  0  0  0
   22.2353   47.7417   23.0999 H   0  0  0  0  0  0  0  0  0  0  0  0
   23.4206   48.9052   23.7052 H   0  0  0  0  0  0  0  0  0  0  0  0
  1 23  1  0
  2 15  1  0
  3  1  2  0
  4 27  1  0
  4 20  2  0
  5  6  2  0
  7  6  1  0
  8  7  2  0
  9  8  1  0
  9 10  2  0
 10  5  1  0
 11 10  1  0
 12  9  1  0
 12 13  2  0
 13 14  1  0
 14  8  1  0
 14 16  1  0
 15  1  1  0
 16 18  1  0
 17  4  2  0
 18 19  1  0
 21 18  1  0
 21 22  1  0
 23  4  1  0
 24 21  1  0
 24 25  1  0
 25 16  1  0
 26 24  1  0
 27 26  1  0
  2 28  1  0
  2 29  1  0
  6 30  1  0
 11 31  1  0
 11 32  1  0
 13 33  1  0
 15 34  1  0
 15 35  1  0
 16 36  1  0
 18 37  1  0
 19 38  1  0
 21 39  1  0
 22 40  1  0
 23 41  1  0
 24 42  1  0
 26 43  1  0
 26 44  1  0
A    1
C
A    2
N
A    3
O
A    4
S
A    5
N1
A    6
C2
A    7
N3
A    8
C4
A    9
C5
A   10
C6
A   11
N6
A   12
N7
A   13
C8
A   14
N9
A   15
CA
A   16
C1'
A   17
O1S
A   18
C2'
A   19
O2'
A   20
O2S
A   21
C3'
A   22
O3'
A   23
N3S
A   24
C4'
A   25
O4'
A   26
C5'
A   27
O5'
M  END
