3H29_AUK_A_501
     RDKit          3D

 61 62  0  0  0  0  0  0  0  0999 V2000
   66.7090  113.4760  126.1140 O   0  0  0  0  0  0  0  0  0  0  0  0
   67.7400  113.3550  125.4160 C   0  0  0  0  0  0  0  0  0  0  0  0
   68.7490  112.2830  125.6800 C   0  0  0  0  0  0  0  0  0  0  0  0
   69.9530  112.2120  124.7890 C   0  0  0  0  0  0  0  0  0  0  0  0
   71.0010  111.1490  125.0210 C   0  0  0  0  0  0  0  0  0  0  0  0
   70.1370  113.1340  123.7220 N   0  0  0  0  0  0  0  0  0  0  0  0
   71.3050  113.0370  122.8930 O   0  0  0  0  0  0  0  0  0  0  0  0
   69.1960  114.1540  123.4480 C   0  0  0  0  0  0  0  0  0  0  0  0
   69.4020  115.0460  122.3960 C   0  0  0  0  0  0  0  0  0  0  0  0
   68.4670  116.0500  122.1410 C   0  0  0  0  0  0  0  0  0  0  0  0
   67.3170  116.1830  122.9210 C   0  0  0  0  0  0  0  0  0  0  0  0
   67.0660  115.3180  123.9880 C   0  0  0  0  0  0  0  0  0  0  0  0
   67.9710  114.3000  124.2850 C   0  0  0  0  0  0  0  0  0  0  0  0
   68.6190  111.2680  126.8110 C   0  0  0  0  0  0  0  0  0  0  0  0
   67.3160  111.2840  127.5890 C   0  0  0  0  0  0  0  0  0  0  0  0
   67.2400  111.0910  128.9260 C   0  0  0  0  0  0  0  0  0  0  0  0
   68.4690  110.8630  129.7620 C   0  0  0  0  0  0  0  0  0  0  0  0
   65.8950  111.1140  129.6220 C   0  0  0  0  0  0  0  0  0  0  0  0
   65.0490  109.9000  129.2400 C   0  0  0  0  0  0  0  0  0  0  0  0
   63.6070  110.0810  129.6730 C   0  0  0  0  0  0  0  0  0  0  0  0
   62.5700  110.1140  128.8130 C   0  0  0  0  0  0  0  0  0  0  0  0
   62.7950  109.9790  127.3320 C   0  0  0  0  0  0  0  0  0  0  0  0
   61.1700  110.2940  129.3700 C   0  0  0  0  0  0  0  0  0  0  0  0
   60.1000  110.3740  128.2820 C   0  0  0  0  0  0  0  0  0  0  0  0
   59.2840  109.0990  128.2680 C   0  0  0  0  0  0  0  0  0  0  0  0
   58.0000  109.0420  127.8640 C   0  0  0  0  0  0  0  0  0  0  0  0
   57.2820  107.7230  127.8890 C   0  0  0  0  0  0  0  0  0  0  0  0
   57.2620  110.2610  127.3880 C   0  0  0  0  0  0  0  0  0  0  0  0
   71.1435  111.0044  126.1021 H   0  0  0  0  0  0  0  0  0  0  0  0
   70.6717  110.2037  124.5649 H   0  0  0  0  0  0  0  0  0  0  0  0
   71.9509  111.4648  124.5649 H   0  0  0  0  0  0  0  0  0  0  0  0
   72.2011  112.9626  123.3071 H   0  0  0  0  0  0  0  0  0  0  0  0
   70.3007  114.9582  121.7678 H   0  0  0  0  0  0  0  0  0  0  0  0
   68.6394  116.7496  121.3099 H   0  0  0  0  0  0  0  0  0  0  0  0
   66.5969  116.9822  122.6914 H   0  0  0  0  0  0  0  0  0  0  0  0
   66.1556  115.4396  124.5933 H   0  0  0  0  0  0  0  0  0  0  0  0
   68.7355  110.2649  126.3748 H   0  0  0  0  0  0  0  0  0  0  0  0
   69.3962  111.5427  127.5393 H   0  0  0  0  0  0  0  0  0  0  0  0
   66.3822  111.4623  127.0356 H   0  0  0  0  0  0  0  0  0  0  0  0
   68.2018  110.9126  130.8279 H   0  0  0  0  0  0  0  0  0  0  0  0
   68.8883  109.8717  129.5348 H   0  0  0  0  0  0  0  0  0  0  0  0
   69.2159  111.6379  129.5348 H   0  0  0  0  0  0  0  0  0  0  0  0
   66.0550  111.1106  130.7103 H   0  0  0  0  0  0  0  0  0  0  0  0
   65.3587  112.0221  129.3093 H   0  0  0  0  0  0  0  0  0  0  0  0
   65.0824  109.7680  128.1485 H   0  0  0  0  0  0  0  0  0  0  0  0
   65.4581  109.0150  129.7493 H   0  0  0  0  0  0  0  0  0  0  0  0
   63.3961  110.1913  130.7469 H   0  0  0  0  0  0  0  0  0  0  0  0
   63.7255  109.4207  127.1519 H   0  0  0  0  0  0  0  0  0  0  0  0
   61.9499  109.4386  126.8805 H   0  0  0  0  0  0  0  0  0  0  0  0
   62.8741  110.9789  126.8805 H   0  0  0  0  0  0  0  0  0  0  0  0
   60.9409  109.4403  130.0248 H   0  0  0  0  0  0  0  0  0  0  0  0
   61.1540  111.2478  129.9178 H   0  0  0  0  0  0  0  0  0  0  0  0
   59.4377  111.2288  128.4837 H   0  0  0  0  0  0  0  0  0  0  0  0
   60.5866  110.5037  127.3040 H   0  0  0  0  0  0  0  0  0  0  0  0
   59.7652  108.1693  128.6058 H   0  0  0  0  0  0  0  0  0  0  0  0
   57.1150  107.4162  128.9321 H   0  0  0  0  0  0  0  0  0  0  0  0
   56.3137  107.8228  127.3766 H   0  0  0  0  0  0  0  0  0  0  0  0
   57.8914  106.9640  127.3766 H   0  0  0  0  0  0  0  0  0  0  0  0
   56.9117  110.8396  128.2555 H   0  0  0  0  0  0  0  0  0  0  0  0
   57.9353  110.8831  126.7800 H   0  0  0  0  0  0  0  0  0  0  0  0
   56.3987  109.9528  126.7800 H   0  0  0  0  0  0  0  0  0  0  0  0
  1  2  2  0
  2  3  1  0
  2 13  1  0
  3  4  2  0
  3 14  1  0
  4  5  1  0
  4  6  1  0
  6  7  1  0
  6  8  1  0
  8  9  1  0
  8 13  2  0
  9 10  2  0
 10 11  1  0
 11 12  2  0
 12 13  1  0
 14 15  1  0
 15 16  2  0
 16 17  1  0
 16 18  1  0
 18 19  1  0
 19 20  1  0
 20 21  2  0
 21 22  1  0
 21 23  1  0
 23 24  1  0
 24 25  1  0
 25 26  2  0
 26 27  1  0
 26 28  1  0
  5 29  1  0
  5 30  1  0
  5 31  1  0
  7 32  1  0
  9 33  1  0
 10 34  1  0
 11 35  1  0
 12 36  1  0
 14 37  1  0
 14 38  1  0
 15 39  1  0
 17 40  1  0
 17 41  1  0
 17 42  1  0
 18 43  1  0
 18 44  1  0
 19 45  1  0
 19 46  1  0
 20 47  1  0
 22 48  1  0
 22 49  1  0
 22 50  1  0
 23 51  1  0
 23 52  1  0
 24 53  1  0
 24 54  1  0
 25 55  1  0
 27 56  1  0
 27 57  1  0
 27 58  1  0
 28 59  1  0
 28 60  1  0
 28 61  1  0
A    1
O27
A    2
C7
A    3
C8
A    4
C9
A    5
C28
A    6
N10
A    7
O26
A    8
C3
A    9
C4
A   10
C5
A   11
C6
A   12
C1
A   13
C2
A   14
C11
A   15
C12
A   16
C13
A   17
C23
A   18
C14
A   19
C15
A   20
C16
A   21
C17
A   22
C24
A   23
C18
A   24
C19
A   25
C20
A   26
C21
A   27
C22
A   28
C25
M  END
