3HZ5_Z64_A_237
     RDKit          3D

 47 50  0  0  0  0  0  0  0  0999 V2000
    0.5140   10.0710   25.7200 C   0  0  0  0  0  0  0  0  0  0  0  0
   -0.9270    9.8490   27.5700 C   0  0  0  0  0  0  0  0  0  0  0  0
   -1.7320   10.9040   25.6500 C   0  0  0  0  0  0  0  0  0  0  0  0
   -0.5080   10.7150   25.0250 C   0  0  0  0  0  0  0  0  0  0  0  0
    0.2640    9.6440   26.9730 N   0  0  0  0  0  0  0  0  0  0  0  0
   -1.8540   11.7590   23.6440 C   0  0  0  0  0  0  0  0  0  0  0  0
    2.8080    9.1390   25.9590 C   0  0  0  0  0  0  0  0  0  0  0  0
    2.1010   10.1650   23.7740 C   0  0  0  0  0  0  0  0  0  0  0  0
    2.5520   11.6470   23.7450 C   0  0  0  0  0  0  0  0  0  0  0  0
    3.8320   11.9170   24.5600 C   0  0  0  0  0  0  0  0  0  0  0  0
    4.4510   13.2520   24.1120 C   0  0  0  0  0  0  0  0  0  0  0  0
    1.7750    9.8190   25.1580 N   0  0  0  0  0  0  0  0  0  0  0  0
   -1.9240   10.4670   26.9250 N   0  0  0  0  0  0  0  0  0  0  0  0
   -2.5410   11.5350   24.7810 N   0  0  0  0  0  0  0  0  0  0  0  0
   -0.5980   11.2610   23.7870 N   0  0  0  0  0  0  0  0  0  0  0  0
    5.8170   13.4740   24.7130 C   0  0  0  0  0  0  0  0  0  0  0  0
    6.2130   14.4640   25.7170 C   0  0  0  0  0  0  0  0  0  0  0  0
    5.3250   15.5150   26.3370 C   0  0  0  0  0  0  0  0  0  0  0  0
    7.0960   12.7650   24.5180 C   0  0  0  0  0  0  0  0  0  0  0  0
    8.0960   13.2440   25.2380 N   0  0  0  0  0  0  0  0  0  0  0  0
    7.5270   14.2890   25.9780 N   0  0  0  0  0  0  0  0  0  0  0  0
    7.3000   11.6340   23.5870 C   0  0  0  0  0  0  0  0  0  0  0  0
    6.4770   11.3940   22.5420 O   0  0  0  0  0  0  0  0  0  0  0  0
    7.0990   10.2100   21.9230 C   0  0  0  0  0  0  0  0  0  0  0  0
    8.2370    9.8900   22.6480 C   0  0  0  0  0  0  0  0  0  0  0  0
    8.3850   10.7840   23.7010 C   0  0  0  0  0  0  0  0  0  0  0  0
   -1.0820    9.5033   28.6027 H   0  0  0  0  0  0  0  0  0  0  0  0
   -2.2454   12.2622   22.7476 H   0  0  0  0  0  0  0  0  0  0  0  0
    2.5941    9.2798   27.0288 H   0  0  0  0  0  0  0  0  0  0  0  0
    2.8067    8.0646   25.7231 H   0  0  0  0  0  0  0  0  0  0  0  0
    3.7944    9.5650   25.7231 H   0  0  0  0  0  0  0  0  0  0  0  0
    1.2141   10.0321   23.1371 H   0  0  0  0  0  0  0  0  0  0  0  0
    2.9029    9.5139   23.3959 H   0  0  0  0  0  0  0  0  0  0  0  0
    2.7382   11.9337   22.6995 H   0  0  0  0  0  0  0  0  0  0  0  0
    1.7461   12.2391   24.2033 H   0  0  0  0  0  0  0  0  0  0  0  0
    3.5817   11.9693   25.6299 H   0  0  0  0  0  0  0  0  0  0  0  0
    4.5528   11.1032   24.3923 H   0  0  0  0  0  0  0  0  0  0  0  0
    4.5417   13.2508   23.0157 H   0  0  0  0  0  0  0  0  0  0  0  0
    3.7931   14.0632   24.4570 H   0  0  0  0  0  0  0  0  0  0  0  0
    0.1516   11.2925   23.0814 H   0  0  0  0  0  0  0  0  0  0  0  0
    5.3842   15.4449   27.4332 H   0  0  0  0  0  0  0  0  0  0  0  0
    5.6578   16.5127   26.0149 H   0  0  0  0  0  0  0  0  0  0  0  0
    4.2857   15.3534   26.0149 H   0  0  0  0  0  0  0  0  0  0  0  0
    9.0741   12.9214   25.2519 H   0  0  0  0  0  0  0  0  0  0  0  0
    6.7252    9.6729   21.0388 H   0  0  0  0  0  0  0  0  0  0  0  0
    8.9182    9.0560   22.4237 H   0  0  0  0  0  0  0  0  0  0  0  0
    9.1850   10.8100   24.4555 H   0  0  0  0  0  0  0  0  0  0  0  0
  1  4  2  0
  1  5  1  0
  1 12  1  0
  2  5  2  0
  2 13  1  0
  3  4  1  0
  3 13  2  0
  3 14  1  0
  4 15  1  0
  6 14  2  0
  6 15  1  0
  7 12  1  0
  8  9  1  0
  8 12  1  0
  9 10  1  0
 10 11  1  0
 11 16  1  0
 16 17  1  0
 16 19  2  0
 17 18  1  0
 17 21  2  0
 19 20  1  0
 19 22  1  0
 20 21  1  0
 22 23  1  0
 22 26  2  0
 23 24  1  0
 24 25  2  0
 25 26  1  0
  2 27  1  0
  6 28  1  0
  7 29  1  0
  7 30  1  0
  7 31  1  0
  8 32  1  0
  8 33  1  0
  9 34  1  0
  9 35  1  0
 10 36  1  0
 10 37  1  0
 11 38  1  0
 11 39  1  0
 15 40  1  0
 18 41  1  0
 18 42  1  0
 18 43  1  0
 20 44  1  0
 24 45  1  0
 25 46  1  0
 26 47  1  0
A    1
C1
A    2
C3
A    3
C5
A    4
C6
A    5
N2
A    6
C8
A    7
C11
A    8
C12
A    9
C13
A   10
C14
A   11
C15
A   12
N10
A   13
N4
A   14
N9
A   15
N7
A   16
C16
A   17
C20
A   18
C21
A   19
C17
A   20
N18
A   21
N19
A   22
C22
A   23
O23
A   24
C24
A   25
C25
A   26
C26
M  END
