3I0A_3ET_A_181
     RDKit          3D

 50 50  0  0  0  0  0  0  0  0999 V2000
   33.4470   77.6030   65.6570 O   0  0  0  0  0  0  0  0  0  0  0  0
   34.3840   77.5400   64.8760 C   0  0  0  0  0  0  0  0  0  0  0  0
   35.6540   76.8510   65.2680 C   0  0  0  0  0  0  0  0  0  0  0  0
   36.8380   77.7970   65.1290 C   0  0  0  0  0  0  0  0  0  0  0  0
   38.0130   77.1840   65.6790 O   0  0  0  0  0  0  0  0  0  0  0  0
   35.5560   76.4110   66.6460 N   0  0  0  0  0  0  0  0  0  0  0  0
   34.2570   78.1350   63.5540 O   0  0  0  0  0  0  0  0  0  0  0  0
   33.2030   77.7290   62.6810 C   0  0  0  0  0  0  0  0  0  0  0  0
   32.2550   78.8930   62.4070 C   0  0  0  0  0  0  0  0  0  0  0  0
   31.0640   78.3860   61.7470 N   0  0  0  0  0  0  0  0  0  0  0  0
   31.8900   79.5540   63.7040 C   0  0  0  0  0  0  0  0  0  0  0  0
   31.1430   78.9710   64.4780 O   0  0  0  0  0  0  0  0  0  0  0  0
   32.4330   80.8660   64.0600 O   0  0  0  0  0  0  0  0  0  0  0  0
   31.6110   82.0280   64.1970 C   0  0  0  0  0  0  0  0  0  0  0  0
   30.3900   81.7400   65.0860 C   0  0  0  0  0  0  0  0  0  0  0  0
   29.7820   82.9730   65.6930 C   0  0  0  0  0  0  0  0  0  0  0  0
   28.5330   83.0890   65.7180 O   0  0  0  0  0  0  0  0  0  0  0  0
   30.5480   83.8350   66.1700 O   0  0  0  0  0  0  0  0  0  0  0  0
   29.4200   81.0210   64.2640 N   0  0  0  0  0  0  0  0  0  0  0  0
   28.9530   81.4390   63.0860 C   0  0  0  0  0  0  0  0  0  0  0  0
   29.2760   82.4980   62.5650 O   0  0  0  0  0  0  0  0  0  0  0  0
   27.9610   80.5800   62.3760 C   0  0  0  0  0  0  0  0  0  0  0  0
   27.7140   79.2850   62.7980 C   0  0  0  0  0  0  0  0  0  0  0  0
   28.3720   78.7540   63.8690 O   0  0  0  0  0  0  0  0  0  0  0  0
   26.7880   78.5120   62.1310 C   0  0  0  0  0  0  0  0  0  0  0  0
   26.5630   77.2430   62.5640 O   0  0  0  0  0  0  0  0  0  0  0  0
   26.1020   79.0310   61.0390 C   0  0  0  0  0  0  0  0  0  0  0  0
   26.3500   80.3310   60.6130 C   0  0  0  0  0  0  0  0  0  0  0  0
   27.2820   81.1060   61.2850 C   0  0  0  0  0  0  0  0  0  0  0  0
   35.8071   75.9868   64.6049 H   0  0  0  0  0  0  0  0  0  0  0  0
   37.0055   78.0195   64.0648 H   0  0  0  0  0  0  0  0  0  0  0  0
   36.6252   78.7297   65.6719 H   0  0  0  0  0  0  0  0  0  0  0  0
   37.9660   77.2085   66.6676 H   0  0  0  0  0  0  0  0  0  0  0  0
   35.7334   77.2077   67.2742 H   0  0  0  0  0  0  0  0  0  0  0  0
   34.6116   76.0392   66.8214 H   0  0  0  0  0  0  0  0  0  0  0  0
   33.6342   77.3823   61.7303 H   0  0  0  0  0  0  0  0  0  0  0  0
   32.6378   76.9164   63.1609 H   0  0  0  0  0  0  0  0  0  0  0  0
   32.7425   79.6339   61.7563 H   0  0  0  0  0  0  0  0  0  0  0  0
   30.3767   78.0934   62.4562 H   0  0  0  0  0  0  0  0  0  0  0  0
   30.6561   79.1264   61.1585 H   0  0  0  0  0  0  0  0  0  0  0  0
   32.2036   82.8359   64.6511 H   0  0  0  0  0  0  0  0  0  0  0  0
   31.2549   82.3240   63.1992 H   0  0  0  0  0  0  0  0  0  0  0  0
   30.7111   81.1370   65.9481 H   0  0  0  0  0  0  0  0  0  0  0  0
   30.6342   83.9320   67.1515 H   0  0  0  0  0  0  0  0  0  0  0  0
   29.0691   80.1211   64.6216 H   0  0  0  0  0  0  0  0  0  0  0  0
   28.0870   78.9840   64.7888 H   0  0  0  0  0  0  0  0  0  0  0  0
   26.5288   77.0498   63.5344 H   0  0  0  0  0  0  0  0  0  0  0  0
   25.3616   78.4120   60.5110 H   0  0  0  0  0  0  0  0  0  0  0  0
   25.8096   80.7421   59.7476 H   0  0  0  0  0  0  0  0  0  0  0  0
   27.4834   82.1357   60.9547 H   0  0  0  0  0  0  0  0  0  0  0  0
  2  1  2  0
  7  2  1  0
  2  3  1  0
  4  3  1  0
  3  6  1  0
  4  5  1  0
  8  7  1  0
  9  8  1  0
 10  9  1  0
  9 11  1  0
 11 13  1  0
 11 12  2  0
 13 14  1  0
 14 15  1  0
 19 15  1  0
 15 16  1  0
 16 17  2  0
 16 18  1  0
 20 19  1  0
 22 20  1  0
 21 20  2  0
 29 22  2  0
 22 23  1  0
 25 23  2  0
 23 24  1  0
 27 25  1  0
 25 26  1  0
 28 27  2  0
 28 29  1  0
  3 30  1  0
  4 31  1  0
  4 32  1  0
  5 33  1  0
  6 34  1  0
  6 35  1  0
  8 36  1  0
  8 37  1  0
  9 38  1  0
 10 39  1  0
 10 40  1  0
 14 41  1  0
 14 42  1  0
 15 43  1  0
 18 44  1  0
 19 45  1  0
 24 46  1  0
 26 47  1  0
 27 48  1  0
 28 49  1  0
 29 50  1  0
A    1
O35
A    2
C34
A    3
C36
A    4
C38
A    5
O39
A    6
N37
A    7
O33
A    8
C32
A    9
C22
A   10
N1
A   11
C25
A   12
O10
A   13
O15
A   14
C30
A   15
C24
A   16
C27
A   17
O14
A   18
O12
A   19
N3
A   20
C21
A   21
O9
A   22
C18
A   23
C3
A   24
O3
A   25
C6
A   26
O6
A   27
C9
A   28
C12
A   29
C15
M  END
