3I0A_2DS_A_182
     RDKit          3D

 49 50  0  0  0  0  0  0  0  0999 V2000
   25.9700   76.8220   66.5210 C   0  0  0  0  0  0  0  0  0  0  0  0
   26.3080   78.8820   68.5700 N   0  0  0  0  0  0  0  0  0  0  0  0
   26.9290   77.7500   66.2230 O   0  0  0  0  0  0  0  0  0  0  0  0
   30.5320   75.7870   65.3390 C   0  0  0  0  0  0  0  0  0  0  0  0
   30.7330   76.9570   67.9900 N   0  0  0  0  0  0  0  0  0  0  0  0
   29.6230   76.7680   65.6360 O   0  0  0  0  0  0  0  0  0  0  0  0
   25.8760   75.7040   65.7040 C   0  0  0  0  0  0  0  0  0  0  0  0
   26.7400   75.5800   64.6500 O   0  0  0  0  0  0  0  0  0  0  0  0
   30.5690   75.2720   64.0490 C   0  0  0  0  0  0  0  0  0  0  0  0
   29.7090   75.7540   63.1030 O   0  0  0  0  0  0  0  0  0  0  0  0
   24.9190   74.7210   65.9540 C   0  0  0  0  0  0  0  0  0  0  0  0
   24.2340   78.4500   69.2540 O   0  0  0  0  0  0  0  0  0  0  0  0
   31.4830   74.2720   63.7180 C   0  0  0  0  0  0  0  0  0  0  0  0
   31.9930   75.1850   68.5780 O   0  0  0  0  0  0  0  0  0  0  0  0
   24.0550   74.8650   67.0350 C   0  0  0  0  0  0  0  0  0  0  0  0
   28.7960   81.0210   69.0850 O   0  0  0  0  0  0  0  0  0  0  0  0
   32.3590   73.7870   64.6820 C   0  0  0  0  0  0  0  0  0  0  0  0
   30.6680   75.7080   70.7510 O   0  0  0  0  0  0  0  0  0  0  0  0
   24.1530   75.9880   67.8530 C   0  0  0  0  0  0  0  0  0  0  0  0
   32.4220   77.0730   70.7590 O   0  0  0  0  0  0  0  0  0  0  0  0
   32.3190   74.3010   65.9760 C   0  0  0  0  0  0  0  0  0  0  0  0
   28.8380   78.9930   70.2070 O   0  0  0  0  0  0  0  0  0  0  0  0
   25.1050   76.9770   67.6050 C   0  0  0  0  0  0  0  0  0  0  0  0
   31.4070   75.3020   66.3080 C   0  0  0  0  0  0  0  0  0  0  0  0
   25.1830   78.1690   68.5330 C   0  0  0  0  0  0  0  0  0  0  0  0
   31.3930   75.8250   67.7190 C   0  0  0  0  0  0  0  0  0  0  0  0
   26.6390   80.0520   69.3730 C   0  0  0  0  0  0  0  0  0  0  0  0
   30.6280   77.5860   69.3100 C   0  0  0  0  0  0  0  0  0  0  0  0
   28.1440   80.0870   69.5290 C   0  0  0  0  0  0  0  0  0  0  0  0
   31.2780   76.7370   70.3590 C   0  0  0  0  0  0  0  0  0  0  0  0
   29.1200   77.7620   69.5310 C   0  0  0  0  0  0  0  0  0  0  0  0
   27.0538   78.5583   67.9376 H   0  0  0  0  0  0  0  0  0  0  0  0
   27.4104   78.2159   66.9519 H   0  0  0  0  0  0  0  0  0  0  0  0
   30.2588   77.4259   67.2051 H   0  0  0  0  0  0  0  0  0  0  0  0
   29.4209   76.9861   66.5803 H   0  0  0  0  0  0  0  0  0  0  0  0
   27.7062   75.4413   64.8156 H   0  0  0  0  0  0  0  0  0  0  0  0
   28.8796   76.2188   63.3789 H   0  0  0  0  0  0  0  0  0  0  0  0
   24.8477   73.8383   65.3014 H   0  0  0  0  0  0  0  0  0  0  0  0
   31.5106   73.8676   62.6954 H   0  0  0  0  0  0  0  0  0  0  0  0
   23.2975   74.0949   67.2428 H   0  0  0  0  0  0  0  0  0  0  0  0
   33.0820   72.9993   64.4237 H   0  0  0  0  0  0  0  0  0  0  0  0
   23.4692   76.0967   68.7077 H   0  0  0  0  0  0  0  0  0  0  0  0
   32.6106   77.1284   71.7293 H   0  0  0  0  0  0  0  0  0  0  0  0
   33.0103   73.9153   66.7397 H   0  0  0  0  0  0  0  0  0  0  0  0
   26.2928   80.9650   68.8666 H   0  0  0  0  0  0  0  0  0  0  0  0
   26.1491   79.9976   70.3564 H   0  0  0  0  0  0  0  0  0  0  0  0
   31.1511   78.5517   69.3714 H   0  0  0  0  0  0  0  0  0  0  0  0
   28.6117   77.7632   68.5555 H   0  0  0  0  0  0  0  0  0  0  0  0
   28.7589   76.9306   70.1541 H   0  0  0  0  0  0  0  0  0  0  0  0
  1 23  2  0
  2 27  1  0
  3  1  1  0
  4  6  1  0
  4 24  2  0
  5 28  1  0
  7  1  1  0
  7 11  2  0
  8  7  1  0
  9  4  1  0
 10  9  1  0
 11 15  1  0
 13  9  2  0
 13 17  1  0
 15 19  2  0
 16 29  2  0
 17 21  2  0
 21 24  1  0
 23 19  1  0
 23 25  1  0
 24 26  1  0
 25  2  1  0
 25 12  2  0
 26  5  1  0
 26 14  2  0
 27 29  1  0
 28 31  1  0
 28 30  1  0
 29 22  1  0
 30 18  2  0
 30 20  1  0
 31 22  1  0
  2 32  1  0
  3 33  1  0
  5 34  1  0
  6 35  1  0
  8 36  1  0
 10 37  1  0
 11 38  1  0
 13 39  1  0
 15 40  1  0
 17 41  1  0
 19 42  1  0
 20 43  1  0
 21 44  1  0
 27 45  1  0
 27 46  1  0
 28 47  1  0
 31 48  1  0
 31 49  1  0
A    1
C1
A    2
N1
A    3
O1
A    4
C3
A    5
N3
A    6
O3
A    7
C4
A    8
O4
A    9
C6
A   10
O6
A   11
C7
A   12
O7
A   13
C9
A   14
O9
A   15
C10
A   16
O10
A   17
C12
A   18
O12
A   19
C13
A   20
O14
A   21
C15
A   22
O15
A   23
C16
A   24
C18
A   25
C19
A   26
C21
A   27
C22
A   28
C24
A   29
C25
A   30
C27
A   31
C30
M  END
