3I0S_RT7_A_601
     RDKit          3D

 46 48  0  0  0  0  0  0  0  0999 V2000
   10.5160   15.3650   21.2760 Cl  0  0  0  0  0  0  0  0  0  0  0  0
   10.6470   14.6320   19.6740 C   0  0  0  0  0  0  0  0  0  0  0  0
    9.8870   13.5080   19.4560 C   0  0  0  0  0  0  0  0  0  0  0  0
    9.9180   12.8690   18.2410 C   0  0  0  0  0  0  0  0  0  0  0  0
    8.8740   11.4100   18.0630 Cl  0  0  0  0  0  0  0  0  0  0  0  0
   11.4710   15.2130   18.7330 C   0  0  0  0  0  0  0  0  0  0  0  0
   11.5770   14.6570   17.4780 C   0  0  0  0  0  0  0  0  0  0  0  0
   12.4950   15.3050   16.4620 C   0  0  0  0  0  0  0  0  0  0  0  0
   12.5600   14.4690   15.1860 C   0  0  0  0  0  0  0  0  0  0  0  0
   12.2690   12.9810   15.3960 C   0  0  0  0  0  0  0  0  0  0  0  0
   10.9150   12.9020   15.9160 N   0  0  0  0  0  0  0  0  0  0  0  0
   10.7830   13.4430   17.1810 C   0  0  0  0  0  0  0  0  0  0  0  0
    9.8720   12.3890   15.2450 C   0  0  0  0  0  0  0  0  0  0  0  0
   10.0720   11.4910   14.4430 O   0  0  0  0  0  0  0  0  0  0  0  0
    8.2880   12.9400   15.4580 S   0  0  0  0  0  0  0  0  0  0  0  0
    7.1410   12.7580   14.1170 C   0  0  0  0  0  0  0  0  0  0  0  0
    6.7370   11.3340   13.8050 C   0  0  0  0  0  0  0  0  0  0  0  0
    6.8040   10.9770   12.6450 O   0  0  0  0  0  0  0  0  0  0  0  0
    6.3000   10.5430   14.7950 N   0  0  0  0  0  0  0  0  0  0  0  0
    6.3580    9.1860   14.7200 C   0  0  0  0  0  0  0  0  0  0  0  0
    6.1570    8.3410   15.9200 C   0  0  0  0  0  0  0  0  0  0  0  0
    5.8130    9.1040   17.5030 Cl  0  0  0  0  0  0  0  0  0  0  0  0
    6.2290    6.9550   15.8080 C   0  0  0  0  0  0  0  0  0  0  0  0
    6.4840    6.3500   14.5720 C   0  0  0  0  0  0  0  0  0  0  0  0
    6.5950    4.7310   14.4300 S   0  0  0  0  0  0  0  0  0  0  0  0
    8.0940    4.3270   14.8360 N   0  0  0  0  0  0  0  0  0  0  0  0
    5.6300    4.1020   15.2970 O   0  0  0  0  0  0  0  0  0  0  0  0
    6.3960    4.3210   13.0560 O   0  0  0  0  0  0  0  0  0  0  0  0
    6.6740    7.1640   13.4520 C   0  0  0  0  0  0  0  0  0  0  0  0
    6.6120    8.5490   13.5180 C   0  0  0  0  0  0  0  0  0  0  0  0
    9.2484   13.1168   20.2617 H   0  0  0  0  0  0  0  0  0  0  0  0
   12.0423   16.1187   18.9847 H   0  0  0  0  0  0  0  0  0  0  0  0
   13.5047   15.3906   16.8899 H   0  0  0  0  0  0  0  0  0  0  0  0
   12.1013   16.3016   16.2133 H   0  0  0  0  0  0  0  0  0  0  0  0
   13.5697   14.5665   14.7607 H   0  0  0  0  0  0  0  0  0  0  0  0
   11.7767   14.8530   14.5159 H   0  0  0  0  0  0  0  0  0  0  0  0
   12.3430   12.4396   14.4413 H   0  0  0  0  0  0  0  0  0  0  0  0
   12.9916   12.5253   16.0889 H   0  0  0  0  0  0  0  0  0  0  0  0
    7.6013   13.1868   13.2147 H   0  0  0  0  0  0  0  0  0  0  0  0
    6.2216   13.2752   14.4288 H   0  0  0  0  0  0  0  0  0  0  0  0
    5.9067   10.9777   15.6419 H   0  0  0  0  0  0  0  0  0  0  0  0
    6.0839    6.3288   16.7006 H   0  0  0  0  0  0  0  0  0  0  0  0
    8.1775    4.3045   15.8624 H   0  0  0  0  0  0  0  0  0  0  0  0
    8.3145    3.3966   14.4531 H   0  0  0  0  0  0  0  0  0  0  0  0
    6.8805    6.6891   12.4815 H   0  0  0  0  0  0  0  0  0  0  0  0
    6.7661    9.1456   12.6068 H   0  0  0  0  0  0  0  0  0  0  0  0
 18 17  2  0
 28 25  2  0
 29 30  2  0
 29 24  1  0
 30 20  1  0
 17 16  1  0
 17 19  1  0
 16 15  1  0
 25 24  1  0
 25 26  1  0
 25 27  2  0
 14 13  2  0
 24 23  2  0
 20 19  1  0
 20 21  2  0
  9 10  1  0
  9  8  1  0
 13 15  1  0
 13 11  1  0
 10 11  1  0
 23 21  1  0
 11 12  1  0
 21 22  1  0
  8  7  1  0
 12  7  2  0
 12  4  1  0
  7  6  1  0
  5  4  1  0
  4  3  2  0
  6  2  2  0
  3  2  1  0
  2  1  1  0
  3 31  1  0
  6 32  1  0
  8 33  1  0
  8 34  1  0
  9 35  1  0
  9 36  1  0
 10 37  1  0
 10 38  1  0
 16 39  1  0
 16 40  1  0
 19 41  1  0
 23 42  1  0
 26 43  1  0
 26 44  1  0
 29 45  1  0
 30 46  1  0
A    1
CL30
A    2
C4
A    3
C3
A    4
C2
A    5
CL29
A    6
C5
A    7
C6
A    8
C10
A    9
C9
A   10
C8
A   11
N7
A   12
C1
A   13
C11
A   14
O22
A   15
S12
A   16
C13
A   17
C14
A   18
O23
A   19
N15
A   20
C16
A   21
C17
A   22
CL24
A   23
C18
A   24
C19
A   25
S25
A   26
N28
A   27
O27
A   28
O26
A   29
C20
A   30
C21
M  END
