3I68_J4Z_A_1001
     RDKit          3D

 40 44  0  0  0  0  0  0  0  0999 V2000
  -23.7770  -18.8300   14.3950 C   0  0  0  0  0  0  0  0  0  0  0  0
  -22.3360  -16.9970   15.0920 N   0  0  0  0  0  0  0  0  0  0  0  0
  -22.5180  -18.2210   14.5170 C   0  0  0  0  0  0  0  0  0  0  0  0
  -23.0110  -15.1240   16.3320 N   0  0  0  0  0  0  0  0  0  0  0  0
  -21.3800  -18.8630   14.0270 C   0  0  0  0  0  0  0  0  0  0  0  0
  -22.3550  -14.1910   15.5440 N   0  0  0  0  0  0  0  0  0  0  0  0
  -21.4640  -20.1020   13.4100 C   0  0  0  0  0  0  0  0  0  0  0  0
  -23.4520  -13.2300   17.2320 N   0  0  0  0  0  0  0  0  0  0  0  0
  -20.3130  -20.7280   12.9310 C   0  0  0  0  0  0  0  0  0  0  0  0
  -24.3730  -15.2460   18.2700 N   0  0  0  0  0  0  0  0  0  0  0  0
  -20.4160  -21.9760   12.3150 C   0  0  0  0  0  0  0  0  0  0  0  0
  -21.7460  -22.6410   12.1880 C   0  0  0  0  0  0  0  0  0  0  0  0
  -22.9010  -22.0190   12.6780 C   0  0  0  0  0  0  0  0  0  0  0  0
  -22.8010  -20.7600   13.2920 C   0  0  0  0  0  0  0  0  0  0  0  0
  -23.9240  -20.0930   13.7980 C   0  0  0  0  0  0  0  0  0  0  0  0
  -23.0250  -16.4550   16.1440 C   0  0  0  0  0  0  0  0  0  0  0  0
  -23.7520  -17.2280   17.0680 C   0  0  0  0  0  0  0  0  0  0  0  0
  -24.4310  -16.6010   18.1310 C   0  0  0  0  0  0  0  0  0  0  0  0
  -25.2080  -17.4370   19.1230 C   0  0  0  0  0  0  0  0  0  0  0  0
  -23.6500  -14.5600   17.3460 C   0  0  0  0  0  0  0  0  0  0  0  0
  -22.6500  -13.0070   16.1430 C   0  0  0  0  0  0  0  0  0  0  0  0
  -19.2870  -22.6270   11.8150 C   0  0  0  0  0  0  0  0  0  0  0  0
  -19.4050  -23.8790   11.2010 C   0  0  0  0  0  0  0  0  0  0  0  0
  -20.6530  -24.4980   11.0710 C   0  0  0  0  0  0  0  0  0  0  0  0
  -21.8060  -23.8890   11.5620 C   0  0  0  0  0  0  0  0  0  0  0  0
  -24.6671  -18.3071   14.7749 H   0  0  0  0  0  0  0  0  0  0  0  0
  -21.5921  -16.4112   14.6866 H   0  0  0  0  0  0  0  0  0  0  0  0
  -20.3986  -18.3774   14.1321 H   0  0  0  0  0  0  0  0  0  0  0  0
  -19.3321  -20.2418   13.0380 H   0  0  0  0  0  0  0  0  0  0  0  0
  -23.8793  -22.5129   12.5827 H   0  0  0  0  0  0  0  0  0  0  0  0
  -24.9188  -20.5572   13.7280 H   0  0  0  0  0  0  0  0  0  0  0  0
  -23.7901  -18.3220   16.9602 H   0  0  0  0  0  0  0  0  0  0  0  0
  -24.9332  -17.1414   20.1463 H   0  0  0  0  0  0  0  0  0  0  0  0
  -26.2859  -17.2774   18.9722 H   0  0  0  0  0  0  0  0  0  0  0  0
  -24.9701  -18.5003   18.9722 H   0  0  0  0  0  0  0  0  0  0  0  0
  -22.2988  -12.0207   15.8054 H   0  0  0  0  0  0  0  0  0  0  0  0
  -18.2984  -22.1530   11.9042 H   0  0  0  0  0  0  0  0  0  0  0  0
  -18.5059  -24.3824   10.8160 H   0  0  0  0  0  0  0  0  0  0  0  0
  -20.7248  -25.4773   10.5752 H   0  0  0  0  0  0  0  0  0  0  0  0
  -22.7758  -24.3970   11.4555 H   0  0  0  0  0  0  0  0  0  0  0  0
 15  1  2  0
  1  3  1  0
  3  2  1  0
  2 16  1  0
  5  3  2  0
  6  4  1  0
 16  4  1  0
  4 20  1  0
  7  5  1  0
  6 21  2  0
  9  7  1  0
 14  7  2  0
 21  8  1  0
  8 20  2  0
 11  9  2  0
 20 10  1  0
 18 10  2  0
 22 11  1  0
 12 11  1  0
 25 12  1  0
 12 13  2  0
 13 14  1  0
 14 15  1  0
 16 17  2  0
 17 18  1  0
 18 19  1  0
 23 22  2  0
 24 23  1  0
 24 25  2  0
  1 26  1  0
  2 27  1  0
  5 28  1  0
  9 29  1  0
 13 30  1  0
 15 31  1  0
 17 32  1  0
 19 33  1  0
 19 34  1  0
 19 35  1  0
 21 36  1  0
 22 37  1  0
 23 38  1  0
 24 39  1  0
 25 40  1  0
A    1
C1
A    2
N1
A    3
C2
A    4
N2
A    5
C3
A    6
N3
A    7
C4
A    8
N4
A    9
C5
A   10
N5
A   11
C6
A   12
C7
A   13
C8
A   14
C9
A   15
C10
A   16
C11
A   17
C12
A   18
C13
A   19
C14
A   20
C15
A   21
C16
A   22
C22
A   23
C23
A   24
C24
A   25
C25
M  END
