3I6O_GR6_B_301
     RDKit          3D

 86 90  0  0  0  0  0  0  0  0999 V2000
   12.2980  -24.8740   -3.0270 C   0  0  0  0  0  0  0  0  0  0  0  0
   12.2880  -24.6470   -4.3990 C   0  0  0  0  0  0  0  0  0  0  0  0
   13.3080  -23.8730   -4.9640 C   0  0  0  0  0  0  0  0  0  0  0  0
   14.3120  -23.3440   -4.1530 C   0  0  0  0  0  0  0  0  0  0  0  0
   14.3090  -23.5820   -2.7740 C   0  0  0  0  0  0  0  0  0  0  0  0
   13.3060  -24.3430   -2.2120 C   0  0  0  0  0  0  0  0  0  0  0  0
   15.7530  -22.4820   -4.7990 S   0  0  0  0  0  0  0  0  0  0  0  0
   16.6680  -22.3720   -3.6950 O   0  0  0  0  0  0  0  0  0  0  0  0
   16.1650  -23.1850   -6.0180 O   0  0  0  0  0  0  0  0  0  0  0  0
   15.3190  -20.9300   -5.2780 N   0  0  0  0  0  0  0  0  0  0  0  0
   14.7970  -20.7160   -6.6240 C   0  0  0  0  0  0  0  0  0  0  0  0
   15.8950  -20.5540   -7.6900 C   0  0  0  0  0  0  0  0  0  0  0  0
   15.3940  -19.9670   -9.0280 C   0  0  0  0  0  0  0  0  0  0  0  0
   14.4310  -20.8270   -9.8590 C   0  0  0  0  0  0  0  0  0  0  0  0
   15.1890  -19.9300   -4.2080 C   0  0  0  0  0  0  0  0  0  0  0  0
   16.1710  -18.7890   -4.5560 C   0  0  0  0  0  0  0  0  0  0  0  0
   15.7850  -17.6530   -3.7710 O   0  0  0  0  0  0  0  0  0  0  0  0
   17.6510  -19.1450   -4.3330 C   0  0  0  0  0  0  0  0  0  0  0  0
   18.4780  -18.0470   -4.8860 N   0  0  0  0  0  0  0  0  0  0  0  0
   19.1830  -18.2540   -6.0300 C   0  0  0  0  0  0  0  0  0  0  0  0
   19.3370  -19.3000   -6.6390 O   0  0  0  0  0  0  0  0  0  0  0  0
   19.7110  -17.0650   -6.4030 O   0  0  0  0  0  0  0  0  0  0  0  0
   20.7190  -17.0650   -7.4440 C   0  0  0  0  0  0  0  0  0  0  0  0
   20.4390  -15.7750   -8.2300 C   0  0  0  0  0  0  0  0  0  0  0  0
   20.9550  -14.7120   -7.4440 O   0  0  0  0  0  0  0  0  0  0  0  0
   22.1180  -15.1590   -6.7360 C   0  0  0  0  0  0  0  0  0  0  0  0
   21.9890  -14.8090   -5.3870 O   0  0  0  0  0  0  0  0  0  0  0  0
   21.7960  -15.9580   -4.5390 C   0  0  0  0  0  0  0  0  0  0  0  0
   22.3320  -17.1240   -5.3550 C   0  0  0  0  0  0  0  0  0  0  0  0
   22.1000  -16.7070   -6.8250 C   0  0  0  0  0  0  0  0  0  0  0  0
   17.9910  -19.2580   -2.8050 C   0  0  0  0  0  0  0  0  0  0  0  0
   20.2950  -18.4630   -2.1380 C   0  0  0  0  0  0  0  0  0  0  0  0
   21.6730  -18.6280   -2.0280 C   0  0  0  0  0  0  0  0  0  0  0  0
   22.2450  -19.8270   -2.4900 C   0  0  0  0  0  0  0  0  0  0  0  0
   21.4550  -20.8390   -3.0510 C   0  0  0  0  0  0  0  0  0  0  0  0
   20.0820  -20.6600   -3.1540 C   0  0  0  0  0  0  0  0  0  0  0  0
   19.4930  -19.4690   -2.6970 C   0  0  0  0  0  0  0  0  0  0  0  0
   11.3380  -25.6150   -2.4170 O   0  0  0  0  0  0  0  0  0  0  0  0
   10.5340  -26.4300   -3.2670 C   0  0  0  0  0  0  0  0  0  0  0  0
   13.3490  -23.6150   -6.3180 O   0  0  0  0  0  0  0  0  0  0  0  0
   12.2820  -24.1260   -7.1400 C   0  0  0  0  0  0  0  0  0  0  0  0
   12.5580  -23.9800   -8.6270 C   0  0  0  0  0  0  0  0  0  0  0  0
   12.8540  -22.5590   -9.0040 C   0  0  0  0  0  0  0  0  0  0  0  0
   14.0780  -22.2260   -9.4680 C   0  0  0  0  0  0  0  0  0  0  0  0
   11.4916  -25.0688   -5.0297 H   0  0  0  0  0  0  0  0  0  0  0  0
   15.1046  -23.1632   -2.1402 H   0  0  0  0  0  0  0  0  0  0  0  0
   13.2974  -24.5323   -1.1284 H   0  0  0  0  0  0  0  0  0  0  0  0
   14.1721  -21.5793   -6.8963 H   0  0  0  0  0  0  0  0  0  0  0  0
   14.2250  -19.7766   -6.6035 H   0  0  0  0  0  0  0  0  0  0  0  0
   16.6704  -19.8852   -7.2882 H   0  0  0  0  0  0  0  0  0  0  0  0
   16.2754  -21.5626   -7.9090 H   0  0  0  0  0  0  0  0  0  0  0  0
   14.8804  -19.0209   -8.8018 H   0  0  0  0  0  0  0  0  0  0  0  0
   16.2963  -19.8731   -9.6501 H   0  0  0  0  0  0  0  0  0  0  0  0
   13.4827  -20.2714   -9.9034 H   0  0  0  0  0  0  0  0  0  0  0  0
   15.0033  -20.9841  -10.7852 H   0  0  0  0  0  0  0  0  0  0  0  0
   14.1587  -19.5466   -4.1687 H   0  0  0  0  0  0  0  0  0  0  0  0
   15.4170  -20.3664   -3.2243 H   0  0  0  0  0  0  0  0  0  0  0  0
   16.1038  -18.5804   -5.6340 H   0  0  0  0  0  0  0  0  0  0  0  0
   15.8606  -17.8754   -2.8093 H   0  0  0  0  0  0  0  0  0  0  0  0
   17.8517  -20.1101   -4.8211 H   0  0  0  0  0  0  0  0  0  0  0  0
   18.5184  -17.1354   -4.4082 H   0  0  0  0  0  0  0  0  0  0  0  0
   20.7099  -18.0225   -7.9853 H   0  0  0  0  0  0  0  0  0  0  0  0
   20.9437  -15.8066   -9.2069 H   0  0  0  0  0  0  0  0  0  0  0  0
   19.3631  -15.6471   -8.4200 H   0  0  0  0  0  0  0  0  0  0  0  0
   23.0378  -14.7206   -7.1504 H   0  0  0  0  0  0  0  0  0  0  0  0
   22.3591  -15.8482   -3.6005 H   0  0  0  0  0  0  0  0  0  0  0  0
   20.7430  -16.0956   -4.2523 H   0  0  0  0  0  0  0  0  0  0  0  0
   23.4036  -17.2760   -5.1585 H   0  0  0  0  0  0  0  0  0  0  0  0
   21.8340  -18.0727   -5.1059 H   0  0  0  0  0  0  0  0  0  0  0  0
   22.8455  -17.2184   -7.4516 H   0  0  0  0  0  0  0  0  0  0  0  0
   17.7012  -18.3334   -2.2843 H   0  0  0  0  0  0  0  0  0  0  0  0
   17.4436  -20.0923   -2.3422 H   0  0  0  0  0  0  0  0  0  0  0  0
   19.8293  -17.5321   -1.7821 H   0  0  0  0  0  0  0  0  0  0  0  0
   22.3005  -17.8381   -1.5895 H   0  0  0  0  0  0  0  0  0  0  0  0
   23.3323  -19.9728   -2.4094 H   0  0  0  0  0  0  0  0  0  0  0  0
   21.9198  -21.7699   -3.4078 H   0  0  0  0  0  0  0  0  0  0  0  0
   19.4555  -21.4503   -3.5932 H   0  0  0  0  0  0  0  0  0  0  0  0
    9.8931  -27.0797   -2.6529 H   0  0  0  0  0  0  0  0  0  0  0  0
    9.9050  -25.7888   -3.9019 H   0  0  0  0  0  0  0  0  0  0  0  0
   11.1837  -27.0503   -3.9019 H   0  0  0  0  0  0  0  0  0  0  0  0
   12.1438  -25.1932   -6.9120 H   0  0  0  0  0  0  0  0  0  0  0  0
   11.3804  -23.5382   -6.9128 H   0  0  0  0  0  0  0  0  0  0  0  0
   13.4233  -24.6056   -8.8912 H   0  0  0  0  0  0  0  0  0  0  0  0
   11.6576  -24.2972   -9.1736 H   0  0  0  0  0  0  0  0  0  0  0  0
   12.0752  -21.7888   -8.9028 H   0  0  0  0  0  0  0  0  0  0  0  0
   14.8420  -23.0119   -9.5615 H   0  0  0  0  0  0  0  0  0  0  0  0
  6  1  2  0
 38  1  1  0
  1  2  1  0
  2  3  2  0
  4  3  1  0
  3 40  1  0
  5  4  2  0
  4  7  1  0
  6  5  1  0
  8  7  2  0
  7  9  2  0
  7 10  1  0
 15 10  1  0
 10 11  1  0
 11 12  1  0
 12 13  1  0
 13 14  1  0
 44 14  1  0
 15 16  1  0
 18 16  1  0
 16 17  1  0
 31 18  1  0
 18 19  1  0
 19 20  1  0
 21 20  2  0
 20 22  1  0
 22 23  1  0
 30 23  1  0
 23 24  1  0
 25 24  1  0
 26 25  1  0
 30 26  1  0
 27 26  1  0
 28 27  1  0
 29 28  1  0
 29 30  1  0
 37 31  1  0
 33 32  2  0
 32 37  1  0
 34 33  1  0
 34 35  2  0
 35 36  1  0
 36 37  2  0
 38 39  1  0
 40 41  1  0
 41 42  1  0
 42 43  1  0
 43 44  2  0
  2 45  1  0
  5 46  1  0
  6 47  1  0
 11 48  1  0
 11 49  1  0
 12 50  1  0
 12 51  1  0
 13 52  1  0
 13 53  1  0
 14 54  1  0
 14 55  1  0
 15 56  1  0
 15 57  1  0
 16 58  1  0
 17 59  1  0
 18 60  1  0
 19 61  1  0
 23 62  1  0
 24 63  1  0
 24 64  1  0
 26 65  1  0
 28 66  1  0
 28 67  1  0
 29 68  1  0
 29 69  1  0
 30 70  1  0
 31 71  1  0
 31 72  1  0
 32 73  1  0
 33 74  1  0
 34 75  1  0
 35 76  1  0
 36 77  1  0
 39 78  1  0
 39 79  1  0
 39 80  1  0
 41 81  1  0
 41 82  1  0
 42 83  1  0
 42 84  1  0
 43 85  1  0
 44 86  1  0
A    1
C1
A    2
C2
A    3
C3
A    4
C4
A    5
C5
A    6
C6
A    7
S7
A    8
O8
A    9
O9
A   10
N10
A   11
C11
A   12
C12
A   13
C13
A   14
C14
A   15
C15
A   16
C16
A   17
O17
A   18
C18
A   19
N19
A   20
C20
A   21
O21
A   22
O22
A   23
C23
A   24
C24
A   25
O25
A   26
C26
A   27
O27
A   28
C28
A   29
C29
A   30
C30
A   31
C31
A   32
C32
A   33
C33
A   34
C34
A   35
C35
A   36
C36
A   37
C37
A   38
O38
A   39
C39
A   40
O40
A   41
C41
A   42
C42
A   43
C43
A   44
C44
M  END
