3I6Z_G6X_A_1
     RDKit          3D

 72 77  0  0  0  0  0  0  0  0999 V2000
    2.5230   67.7400   63.3090 C   0  0  0  0  0  0  0  0  0  0  0  0
    2.6200   68.1660   62.0160 C   0  0  0  0  0  0  0  0  0  0  0  0
    3.9640   68.2530   61.2790 C   0  0  0  0  0  0  0  0  0  0  0  0
    5.1150   68.4910   62.2850 C   0  0  0  0  0  0  0  0  0  0  0  0
    5.2730   66.0890   62.8530 O   0  0  0  0  0  0  0  0  0  0  0  0
    4.6560   63.8350   63.7980 C   0  0  0  0  0  0  0  0  0  0  0  0
    3.8050   63.1620   64.7150 C   0  0  0  0  0  0  0  0  0  0  0  0
    2.8860   63.8900   65.4950 C   0  0  0  0  0  0  0  0  0  0  0  0
    1.8310   66.0100   66.3560 C   0  0  0  0  0  0  0  0  0  0  0  0
    2.4810   67.1560   67.0720 N   0  0  0  0  0  0  0  0  0  0  0  0
    2.5860   68.4070   66.2960 C   0  0  0  0  0  0  0  0  0  0  0  0
    3.8440   68.3840   65.3740 C   0  0  0  0  0  0  0  0  0  0  0  0
    4.5620   65.2380   63.6580 C   0  0  0  0  0  0  0  0  0  0  0  0
    3.6490   65.9490   64.4410 C   0  0  0  0  0  0  0  0  0  0  0  0
    2.7970   65.2990   65.3830 C   0  0  0  0  0  0  0  0  0  0  0  0
    5.3650   61.7930   62.8200 C   0  0  0  0  0  0  0  0  0  0  0  0
    5.6510   63.1650   63.0930 O   0  0  0  0  0  0  0  0  0  0  0  0
    4.1500   67.0410   60.5370 O   0  0  0  0  0  0  0  0  0  0  0  0
    3.7330   66.8650   67.8520 C   0  0  0  0  0  0  0  0  0  0  0  0
    3.5370   65.9070   69.0410 C   0  0  0  0  0  0  0  0  0  0  0  0
    3.8700   64.4840   68.6240 C   0  0  0  0  0  0  0  0  0  0  0  0
    4.3160   63.6070   69.8040 C   0  0  0  0  0  0  0  0  0  0  0  0
    3.1820   63.1870   70.7470 C   0  0  0  0  0  0  0  0  0  0  0  0
    2.1540   62.3040   70.0470 C   0  0  0  0  0  0  0  0  0  0  0  0
    1.2460   61.7050   71.0480 N   0  0  0  0  0  0  0  0  0  0  0  0
    1.3910   60.4150   71.4670 C   0  0  0  0  0  0  0  0  0  0  0  0
    0.2910   60.0140   72.3070 C   0  0  0  0  0  0  0  0  0  0  0  0
    0.0440   58.7670   72.9240 C   0  0  0  0  0  0  0  0  0  0  0  0
   -1.1600   58.5260   73.6190 C   0  0  0  0  0  0  0  0  0  0  0  0
   -2.1370   59.5350   73.7070 C   0  0  0  0  0  0  0  0  0  0  0  0
   -1.9000   60.7820   73.1010 C   0  0  0  0  0  0  0  0  0  0  0  0
   -0.6960   61.0160   72.4140 C   0  0  0  0  0  0  0  0  0  0  0  0
   -0.0280   62.4600   71.6350 S   0  0  0  0  0  0  0  0  0  0  0  0
    2.3270   59.6800   71.1400 O   0  0  0  0  0  0  0  0  0  0  0  0
   -0.8090   63.1790   70.5690 O   0  0  0  0  0  0  0  0  0  0  0  0
    0.4370   63.4670   72.6510 O   0  0  0  0  0  0  0  0  0  0  0  0
    5.1070   67.4230   63.4460 C   0  0  0  0  0  0  0  0  0  0  0  0
    3.7270   67.3420   64.2330 C   0  0  0  0  0  0  0  0  0  0  0  0
    1.5136   67.6696   63.7406 H   0  0  0  0  0  0  0  0  0  0  0  0
    1.7028   68.4573   61.4831 H   0  0  0  0  0  0  0  0  0  0  0  0
    3.9659   69.1042   60.5823 H   0  0  0  0  0  0  0  0  0  0  0  0
    6.0742   68.4286   61.7502 H   0  0  0  0  0  0  0  0  0  0  0  0
    4.9772   69.4857   62.7339 H   0  0  0  0  0  0  0  0  0  0  0  0
    3.8641   62.0683   64.8161 H   0  0  0  0  0  0  0  0  0  0  0  0
    2.2296   63.3581   66.1995 H   0  0  0  0  0  0  0  0  0  0  0  0
    0.9721   66.3920   65.7847 H   0  0  0  0  0  0  0  0  0  0  0  0
    1.5176   65.2762   67.1131 H   0  0  0  0  0  0  0  0  0  0  0  0
    1.6857   68.5224   65.6746 H   0  0  0  0  0  0  0  0  0  0  0  0
    2.6785   69.2496   66.9970 H   0  0  0  0  0  0  0  0  0  0  0  0
    3.9727   69.3815   64.9285 H   0  0  0  0  0  0  0  0  0  0  0  0
    4.7073   68.1029   65.9950 H   0  0  0  0  0  0  0  0  0  0  0  0
    5.2511   61.2466   63.7679 H   0  0  0  0  0  0  0  0  0  0  0  0
    4.4325   61.7210   62.2409 H   0  0  0  0  0  0  0  0  0  0  0  0
    6.1910   61.3544   62.2409 H   0  0  0  0  0  0  0  0  0  0  0  0
    4.2661   66.2843   61.1647 H   0  0  0  0  0  0  0  0  0  0  0  0
    4.4679   66.4166   67.1672 H   0  0  0  0  0  0  0  0  0  0  0  0
    4.0677   67.8237   68.2749 H   0  0  0  0  0  0  0  0  0  0  0  0
    4.1998   66.2094   69.8652 H   0  0  0  0  0  0  0  0  0  0  0  0
    2.4882   65.9503   69.3698 H   0  0  0  0  0  0  0  0  0  0  0  0
    2.9760   64.0328   68.1689 H   0  0  0  0  0  0  0  0  0  0  0  0
    4.7082   64.5345   67.9134 H   0  0  0  0  0  0  0  0  0  0  0  0
    4.7813   62.6963   69.3989 H   0  0  0  0  0  0  0  0  0  0  0  0
    5.0111   64.2153   70.4013 H   0  0  0  0  0  0  0  0  0  0  0  0
    3.6114   62.6300   71.5928 H   0  0  0  0  0  0  0  0  0  0  0  0
    2.6700   64.0983   71.0895 H   0  0  0  0  0  0  0  0  0  0  0  0
    1.5695   62.9126   69.3413 H   0  0  0  0  0  0  0  0  0  0  0  0
    2.6739   61.5025   69.5018 H   0  0  0  0  0  0  0  0  0  0  0  0
    0.8018   57.9722   72.8615 H   0  0  0  0  0  0  0  0  0  0  0  0
   -1.3351   57.5487   74.0924 H   0  0  0  0  0  0  0  0  0  0  0  0
   -3.0783   59.3500   74.2453 H   0  0  0  0  0  0  0  0  0  0  0  0
   -2.6586   61.5760   73.1648 H   0  0  0  0  0  0  0  0  0  0  0  0
    5.9089   67.7246   64.1359 H   0  0  0  0  0  0  0  0  0  0  0  0
  2  1  2  0
  1 38  1  0
  3  2  1  0
 18  3  1  0
  3  4  1  0
  4 37  1  0
  5 37  1  0
  5 13  1  0
 17  6  1  0
 13  6  1  0
  6  7  2  0
  7  8  1  0
 15  8  2  0
 15  9  1  0
  9 10  1  0
 11 10  1  0
 10 19  1  0
 12 11  1  0
 38 12  1  0
 13 14  2  0
 38 14  1  0
 14 15  1  0
 16 17  1  0
 19 20  1  0
 21 20  1  0
 21 22  1  0
 22 23  1  0
 24 23  1  0
 24 25  1  0
 25 26  1  0
 25 33  1  0
 34 26  2  0
 26 27  1  0
 27 32  2  0
 27 28  1  0
 28 29  2  0
 29 30  1  0
 31 30  2  0
 32 31  1  0
 33 32  1  0
 35 33  2  0
 33 36  2  0
 37 38  1  0
  1 39  1  0
  2 40  1  0
  3 41  1  0
  4 42  1  0
  4 43  1  0
  7 44  1  0
  8 45  1  0
  9 46  1  0
  9 47  1  0
 11 48  1  0
 11 49  1  0
 12 50  1  0
 12 51  1  0
 16 52  1  0
 16 53  1  0
 16 54  1  0
 18 55  1  0
 19 56  1  0
 19 57  1  0
 20 58  1  0
 20 59  1  0
 21 60  1  0
 21 61  1  0
 22 62  1  0
 22 63  1  0
 23 64  1  0
 23 65  1  0
 24 66  1  0
 24 67  1  0
 28 68  1  0
 29 69  1  0
 30 70  1  0
 31 71  1  0
 37 72  1  0
A    1
C1
A    2
C2
A    3
C3
A    4
C4
A    5
O5
A    6
C6
A    7
C7
A    8
C8
A    9
C9
A   10
N10
A   11
C11
A   12
C12
A   13
C13
A   14
C14
A   15
C15
A   16
C16
A   17
O17
A   18
O18
A   19
C19
A   20
C20
A   21
C21
A   22
C22
A   23
C23
A   24
C24
A   25
N25
A   26
C26
A   27
C27
A   28
C28
A   29
C29
A   30
C30
A   31
C31
A   32
C32
A   33
S33
A   34
O34
A   35
O35
A   36
O36
A   37
C41
A   38
C42
M  END
