3I7G_732_A_999
     RDKit          3D

 49 51  0  0  0  0  0  0  0  0999 V2000
   -8.4590   26.5590   51.5890 C   0  0  0  0  0  0  0  0  0  0  0  0
   -7.3710   27.2600   52.0850 C   0  0  0  0  0  0  0  0  0  0  0  0
   -6.7270   28.1890   51.2790 C   0  0  0  0  0  0  0  0  0  0  0  0
   -7.1790   28.4200   49.9900 C   0  0  0  0  0  0  0  0  0  0  0  0
   -8.2650   27.7160   49.5100 C   0  0  0  0  0  0  0  0  0  0  0  0
   -8.9080   26.7910   50.3090 C   0  0  0  0  0  0  0  0  0  0  0  0
   -6.8940   27.0290   53.4540 C   0  0  0  0  0  0  0  0  0  0  0  0
   -8.8490   27.9920   47.9060 Cl  0  0  0  0  0  0  0  0  0  0  0  0
   -6.7010   25.8480   54.1300 C   0  0  0  0  0  0  0  0  0  0  0  0
   -6.1360   26.1780   55.3780 C   0  0  0  0  0  0  0  0  0  0  0  0
   -6.2220   27.5510   55.4750 C   0  0  0  0  0  0  0  0  0  0  0  0
   -6.6190   28.0270   54.2870 O   0  0  0  0  0  0  0  0  0  0  0  0
   -6.0240   28.4680   56.5890 C   0  0  0  0  0  0  0  0  0  0  0  0
   -5.6190   28.1520   57.7110 O   0  0  0  0  0  0  0  0  0  0  0  0
   -6.3620   29.7190   56.2060 N   0  0  0  0  0  0  0  0  0  0  0  0
   -6.3750   30.9430   56.9880 C   0  0  0  0  0  0  0  0  0  0  0  0
   -5.1070   31.7480   56.6810 C   0  0  0  0  0  0  0  0  0  0  0  0
   -7.6530   31.6220   56.5350 C   0  0  0  0  0  0  0  0  0  0  0  0
   -7.8640   31.8920   55.3500 O   0  0  0  0  0  0  0  0  0  0  0  0
   -8.5980   31.8840   57.4610 N   0  0  0  0  0  0  0  0  0  0  0  0
   -9.8590   32.5210   57.0520 C   0  0  0  0  0  0  0  0  0  0  0  0
   -5.4230   33.2420   56.5690 C   0  0  0  0  0  0  0  0  0  0  0  0
   -4.1290   34.0070   56.2850 C   0  0  0  0  0  0  0  0  0  0  0  0
   -3.1640   33.8010   57.4540 C   0  0  0  0  0  0  0  0  0  0  0  0
   -2.8220   32.3130   57.6040 C   0  0  0  0  0  0  0  0  0  0  0  0
   -4.1030   31.5010   57.8200 C   0  0  0  0  0  0  0  0  0  0  0  0
   -8.9654   25.8145   52.2208 H   0  0  0  0  0  0  0  0  0  0  0  0
   -5.8575   28.7419   51.6640 H   0  0  0  0  0  0  0  0  0  0  0  0
   -6.6749   29.1609   49.3521 H   0  0  0  0  0  0  0  0  0  0  0  0
   -9.7782   26.2402   49.9226 H   0  0  0  0  0  0  0  0  0  0  0  0
   -6.9416   24.8381   53.7663 H   0  0  0  0  0  0  0  0  0  0  0  0
   -5.7141   25.4847   56.1205 H   0  0  0  0  0  0  0  0  0  0  0  0
   -6.6507   29.8185   55.2223 H   0  0  0  0  0  0  0  0  0  0  0  0
   -6.3680   30.8060   58.0794 H   0  0  0  0  0  0  0  0  0  0  0  0
   -4.6842   31.4260   55.7179 H   0  0  0  0  0  0  0  0  0  0  0  0
   -8.4375   31.6395   58.4486 H   0  0  0  0  0  0  0  0  0  0  0  0
  -10.4308   32.8098   57.9462 H   0  0  0  0  0  0  0  0  0  0  0  0
   -9.6397   33.4165   56.4519 H   0  0  0  0  0  0  0  0  0  0  0  0
  -10.4496   31.8131   56.4519 H   0  0  0  0  0  0  0  0  0  0  0  0
   -6.1364   33.4072   55.7481 H   0  0  0  0  0  0  0  0  0  0  0  0
   -5.8657   33.5989   57.5106 H   0  0  0  0  0  0  0  0  0  0  0  0
   -3.6724   33.6289   55.3584 H   0  0  0  0  0  0  0  0  0  0  0  0
   -4.3480   35.0785   56.1673 H   0  0  0  0  0  0  0  0  0  0  0  0
   -2.2406   34.3688   57.2671 H   0  0  0  0  0  0  0  0  0  0  0  0
   -3.6417   34.1542   58.3798 H   0  0  0  0  0  0  0  0  0  0  0  0
   -2.3171   31.9614   56.6922 H   0  0  0  0  0  0  0  0  0  0  0  0
   -2.1592   32.1802   58.4718 H   0  0  0  0  0  0  0  0  0  0  0  0
   -4.5612   31.7980   58.7749 H   0  0  0  0  0  0  0  0  0  0  0  0
   -3.8437   30.4321   57.8348 H   0  0  0  0  0  0  0  0  0  0  0  0
  1  2  2  0
  2  7  1  0
  3  2  1  0
  4  3  2  0
  5  4  1  0
  5  6  2  0
  6  1  1  0
  7  9  2  0
  7 12  1  0
  8  5  1  0
  9 10  1  0
 10 11  2  0
 11 13  1  0
 12 11  1  0
 13 14  2  0
 15 13  1  0
 15 16  1  0
 17 16  1  0
 17 26  1  0
 18 16  1  0
 18 20  1  0
 19 18  2  0
 21 20  1  0
 22 17  1  0
 23 22  1  0
 23 24  1  0
 24 25  1  0
 25 26  1  0
  1 27  1  0
  3 28  1  0
  4 29  1  0
  6 30  1  0
  9 31  1  0
 10 32  1  0
 15 33  1  0
 16 34  1  0
 17 35  1  0
 20 36  1  0
 21 37  1  0
 21 38  1  0
 21 39  1  0
 22 40  1  0
 22 41  1  0
 23 42  1  0
 23 43  1  0
 24 44  1  0
 24 45  1  0
 25 46  1  0
 25 47  1  0
 26 48  1  0
 26 49  1  0
A    1
C1
A    2
C2
A    3
C3
A    4
C4
A    5
C5
A    6
C6
A    7
C7
A    8
CL8
A    9
C9
A   10
C10
A   11
C11
A   12
O12
A   13
C13
A   14
O14
A   15
N15
A   16
C16
A   17
C17
A   18
C18
A   19
O19
A   20
N20
A   21
C21
A   22
C22
A   23
C23
A   24
C24
A   25
C25
A   26
C26
M  END
