3I8P_840_A_501
     RDKit          3D

 58 63  0  0  0  0  0  0  0  0999 V2000
   -4.9610   68.5130   68.3230 C   0  0  0  0  0  0  0  0  0  0  0  0
   -4.0750   69.4110   69.1300 C   0  0  0  0  0  0  0  0  0  0  0  0
   -2.6710   68.8180   69.1430 C   0  0  0  0  0  0  0  0  0  0  0  0
   -1.7420   69.7090   70.0020 C   0  0  0  0  0  0  0  0  0  0  0  0
   -1.9660   69.6850   71.5350 C   0  0  0  0  0  0  0  0  0  0  0  0
   -1.3870   70.8030   72.3310 C   0  0  0  0  0  0  0  0  0  0  0  0
   -0.4900   71.6830   71.8560 C   0  0  0  0  0  0  0  0  0  0  0  0
    0.0840   71.6480   70.4500 C   0  0  0  0  0  0  0  0  0  0  0  0
   -0.6280   70.6340   69.4160 C   0  0  0  0  0  0  0  0  0  0  0  0
   -0.4400   71.1210   67.8990 C   0  0  0  0  0  0  0  0  0  0  0  0
    0.9000   71.2240   67.2660 C   0  0  0  0  0  0  0  0  0  0  0  0
    0.7360   71.9990   68.5660 C   0  0  0  0  0  0  0  0  0  0  0  0
    1.4840   72.2010   69.8450 C   0  0  0  0  0  0  0  0  0  0  0  0
   -0.6670   73.0710   70.0430 C   0  0  0  0  0  0  0  0  0  0  0  0
   -0.4580   73.0030   68.5940 C   0  0  0  0  0  0  0  0  0  0  0  0
   -1.2980   72.2780   67.6000 O   0  0  0  0  0  0  0  0  0  0  0  0
   -0.1030   74.3490   67.9200 C   0  0  0  0  0  0  0  0  0  0  0  0
   -0.7890   68.4940   70.2000 C   0  0  0  0  0  0  0  0  0  0  0  0
   -2.6680   68.7910   72.0370 O   0  0  0  0  0  0  0  0  0  0  0  0
   -5.4650   67.5090   68.8250 O   0  0  0  0  0  0  0  0  0  0  0  0
   -5.7910   64.8330   64.2400 C   0  0  0  0  0  0  0  0  0  0  0  0
   -6.2430   66.1900   64.6880 C   0  0  0  0  0  0  0  0  0  0  0  0
   -5.5120   66.8800   65.6760 C   0  0  0  0  0  0  0  0  0  0  0  0
   -5.9350   68.1640   66.0650 C   0  0  0  0  0  0  0  0  0  0  0  0
   -7.0390   68.7450   65.5070 C   0  0  0  0  0  0  0  0  0  0  0  0
   -7.7770   68.0630   64.5270 C   0  0  0  0  0  0  0  0  0  0  0  0
   -7.3760   66.8070   64.1300 C   0  0  0  0  0  0  0  0  0  0  0  0
   -5.1560   68.8590   67.0660 N   0  0  0  0  0  0  0  0  0  0  0  0
   -7.4280   69.9740   65.8720 O   0  0  0  0  0  0  0  0  0  0  0  0
   -4.3950   66.4040   66.2950 O   0  0  0  0  0  0  0  0  0  0  0  0
   -4.7480   64.3550   64.6780 O   0  0  0  0  0  0  0  0  0  0  0  0
   -6.5720   64.3160   63.3550 O   0  0  0  0  0  0  0  0  0  0  0  0
    0.0080   74.1250   70.6210 O   0  0  0  0  0  0  0  0  0  0  0  0
   -4.0506   70.4132   68.6771 H   0  0  0  0  0  0  0  0  0  0  0  0
   -4.4586   69.4957   70.1575 H   0  0  0  0  0  0  0  0  0  0  0  0
   -2.7049   67.8049   69.5702 H   0  0  0  0  0  0  0  0  0  0  0  0
   -2.2841   68.7698   68.1144 H   0  0  0  0  0  0  0  0  0  0  0  0
   -1.7150   70.9153   73.3749 H   0  0  0  0  0  0  0  0  0  0  0  0
   -0.1484   72.4822   72.5302 H   0  0  0  0  0  0  0  0  0  0  0  0
   -0.1798   69.6503   69.2124 H   0  0  0  0  0  0  0  0  0  0  0  0
    1.5538   70.3396   67.2478 H   0  0  0  0  0  0  0  0  0  0  0  0
    1.2313   71.5146   66.2581 H   0  0  0  0  0  0  0  0  0  0  0  0
    1.7416   73.2407   70.0953 H   0  0  0  0  0  0  0  0  0  0  0  0
    2.4784   71.7877   70.0695 H   0  0  0  0  0  0  0  0  0  0  0  0
   -1.7130   73.2053   70.3557 H   0  0  0  0  0  0  0  0  0  0  0  0
    0.0964   75.1051   68.6936 H   0  0  0  0  0  0  0  0  0  0  0  0
    0.7920   74.2206   67.2935 H   0  0  0  0  0  0  0  0  0  0  0  0
   -0.9449   74.6787   67.2935 H   0  0  0  0  0  0  0  0  0  0  0  0
   -0.6460   68.3116   71.2753 H   0  0  0  0  0  0  0  0  0  0  0  0
   -1.2305   67.6016   69.7323 H   0  0  0  0  0  0  0  0  0  0  0  0
    0.1829   68.7102   69.7323 H   0  0  0  0  0  0  0  0  0  0  0  0
   -8.6681   68.5279   64.0800 H   0  0  0  0  0  0  0  0  0  0  0  0
   -7.9544   66.2753   63.3601 H   0  0  0  0  0  0  0  0  0  0  0  0
   -4.6983   69.7294   66.7597 H   0  0  0  0  0  0  0  0  0  0  0  0
   -7.5012   70.2054   66.8318 H   0  0  0  0  0  0  0  0  0  0  0  0
   -4.3475   66.3838   67.2837 H   0  0  0  0  0  0  0  0  0  0  0  0
   -4.6056   64.2897   65.6555 H   0  0  0  0  0  0  0  0  0  0  0  0
   -0.0415   74.0478   71.6067 H   0  0  0  0  0  0  0  0  0  0  0  0
 28  1  1  0
  1 20  2  0
  1  2  1  0
  2  3  1  0
  3  4  1  0
  9  4  1  0
  4 18  1  0
  4  5  1  0
  5 19  2  0
  5  6  1  0
  7  6  2  0
  8  7  1  0
  9  8  1  0
 13  8  1  0
 14  8  1  0
 10  9  1  0
 11 10  1  0
 16 10  1  0
 10 12  1  0
 11 12  1  0
 12 15  1  0
 12 13  1  0
 15 14  1  0
 14 33  1  0
 16 15  1  0
 17 15  1  0
 32 21  2  0
 21 31  1  0
 21 22  1  0
 27 22  2  0
 22 23  1  0
 23 24  2  0
 23 30  1  0
 25 24  1  0
 24 28  1  0
 26 25  2  0
 25 29  1  0
 27 26  1  0
  2 34  1  0
  2 35  1  0
  3 36  1  0
  3 37  1  0
  6 38  1  0
  7 39  1  0
  9 40  1  0
 11 41  1  0
 11 42  1  0
 13 43  1  0
 13 44  1  0
 14 45  1  0
 17 46  1  0
 17 47  1  0
 17 48  1  0
 18 49  1  0
 18 50  1  0
 18 51  1  0
 26 52  1  0
 27 53  1  0
 28 54  1  0
 29 55  1  0
 30 56  1  0
 31 57  1  0
 33 58  1  0
A    1
C1
A    2
C2
A    3
C3
A    4
C4
A    5
C5
A    6
C6
A    7
C7
A    8
C8
A    9
C9
A   10
C10
A   11
C11
A   12
C12
A   13
C13
A   14
C14
A   15
C15
A   16
O16
A   17
C17
A   18
C18
A   19
O19
A   20
O20
A   21
C21
A   22
C22
A   23
C23
A   24
C24
A   25
C25
A   26
C26
A   27
C27
A   28
N28
A   29
O30
A   30
O31
A   31
O32
A   32
O33
A   33
O34
M  END
