3I8U_18B_X_2030
     RDKit          3D

 79 82  0  0  0  0  0  0  0  0999 V2000
   -0.8660  -19.2470   -0.1240 N   0  0  0  0  0  0  0  0  0  0  0  0
    1.5060  -17.3060   -0.1110 N   0  0  0  0  0  0  0  0  0  0  0  0
    3.6360  -16.8240   -0.8510 O   0  0  0  0  0  0  0  0  0  0  0  0
    2.9350  -20.3450   -3.1570 N   0  0  0  0  0  0  0  0  0  0  0  0
    4.2750  -18.4300   -3.2240 O   0  0  0  0  0  0  0  0  0  0  0  0
    0.4660  -21.8600   -1.8330 N   0  0  0  0  0  0  0  0  0  0  0  0
   -1.7400  -20.2470    0.0780 C   0  0  0  0  0  0  0  0  0  0  0  0
   -5.1630  -23.2780    2.1980 O   0  0  0  0  0  0  0  0  0  0  0  0
    0.5040  -16.4970    0.3220 C   0  0  0  0  0  0  0  0  0  0  0  0
    4.1640  -19.7290   -3.3960 C   0  0  0  0  0  0  0  0  0  0  0  0
    0.7930  -22.7480   -2.8340 C   0  0  0  0  0  0  0  0  0  0  0  0
   -5.2970  -24.4720   -2.0540 O   0  0  0  0  0  0  0  0  0  0  0  0
   -2.8120  -19.9700    1.0410 C   0  0  0  0  0  0  0  0  0  0  0  0
   -4.1380  -23.4580    4.1100 O   0  0  0  0  0  0  0  0  0  0  0  0
    0.8650  -15.0950    0.3570 C   0  0  0  0  0  0  0  0  0  0  0  0
    5.2030  -20.5480   -3.8320 C   0  0  0  0  0  0  0  0  0  0  0  0
   -0.1450  -23.7540   -2.9880 C   0  0  0  0  0  0  0  0  0  0  0  0
   -5.7320  -23.3480   -3.9180 O   0  0  0  0  0  0  0  0  0  0  0  0
   -2.5840  -18.5820    1.3920 C   0  0  0  0  0  0  0  0  0  0  0  0
    2.2240  -15.0830   -0.1420 C   0  0  0  0  0  0  0  0  0  0  0  0
    4.5330  -21.8430   -3.9100 C   0  0  0  0  0  0  0  0  0  0  0  0
   -1.2030  -23.4060   -2.1800 C   0  0  0  0  0  0  0  0  0  0  0  0
   -1.3410  -18.2760    0.7210 C   0  0  0  0  0  0  0  0  0  0  0  0
    2.4960  -16.4390   -0.3930 C   0  0  0  0  0  0  0  0  0  0  0  0
    3.1640  -21.6120   -3.4670 C   0  0  0  0  0  0  0  0  0  0  0  0
   -0.7990  -22.2530   -1.5070 C   0  0  0  0  0  0  0  0  0  0  0  0
   -3.9280  -20.8590    1.5150 C   0  0  0  0  0  0  0  0  0  0  0  0
    3.0660  -13.8850   -0.3500 C   0  0  0  0  0  0  0  0  0  0  0  0
    5.0000  -23.2200   -4.2160 C   0  0  0  0  0  0  0  0  0  0  0  0
   -2.5750  -24.0600   -2.0790 C   0  0  0  0  0  0  0  0  0  0  0  0
   -3.4260  -21.6790    2.7030 C   0  0  0  0  0  0  0  0  0  0  0  0
    3.8180  -13.9130    0.9640 C   0  0  0  0  0  0  0  0  0  0  0  0
    6.2870  -23.5450   -4.2420 C   0  0  0  0  0  0  0  0  0  0  0  0
   -3.4970  -23.3040   -3.0600 C   0  0  0  0  0  0  0  0  0  0  0  0
   -4.2920  -22.8940    3.0100 C   0  0  0  0  0  0  0  0  0  0  0  0
   -4.9550  -23.7410   -3.0040 C   0  0  0  0  0  0  0  0  0  0  0  0
   -1.6670  -21.5750   -0.5220 C   0  0  0  0  0  0  0  0  0  0  0  0
   -0.8080  -16.9200    0.7350 C   0  0  0  0  0  0  0  0  0  0  0  0
    2.1650  -22.6990   -3.3410 C   0  0  0  0  0  0  0  0  0  0  0  0
   -3.3780  -17.7370    2.3540 C   0  0  0  0  0  0  0  0  0  0  0  0
    0.0090  -13.9500    0.7900 C   0  0  0  0  0  0  0  0  0  0  0  0
    6.6180  -20.2240   -4.2010 C   0  0  0  0  0  0  0  0  0  0  0  0
   -0.1080  -24.9270   -3.9210 C   0  0  0  0  0  0  0  0  0  0  0  0
   -0.0497  -19.2170   -0.7515 H   0  0  0  0  0  0  0  0  0  0  0  0
    1.5076  -18.3320   -0.2014 H   0  0  0  0  0  0  0  0  0  0  0  0
    2.0605  -19.9174   -2.8206 H   0  0  0  0  0  0  0  0  0  0  0  0
   -6.0167  -23.6544    2.5290 H   0  0  0  0  0  0  0  0  0  0  0  0
   -6.5906  -22.9137   -3.6850 H   0  0  0  0  0  0  0  0  0  0  0  0
   -4.7857  -20.2440    1.8250 H   0  0  0  0  0  0  0  0  0  0  0  0
   -4.2458  -21.5293    0.7028 H   0  0  0  0  0  0  0  0  0  0  0  0
    3.7371  -13.9944   -1.2147 H   0  0  0  0  0  0  0  0  0  0  0  0
    2.5262  -12.9529   -0.5733 H   0  0  0  0  0  0  0  0  0  0  0  0
    4.2523  -23.9983   -4.4287 H   0  0  0  0  0  0  0  0  0  0  0  0
   -2.5111  -25.1216   -2.3598 H   0  0  0  0  0  0  0  0  0  0  0  0
   -2.9635  -24.0104   -1.0511 H   0  0  0  0  0  0  0  0  0  0  0  0
   -2.4058  -22.0253    2.4811 H   0  0  0  0  0  0  0  0  0  0  0  0
   -3.4607  -21.0246    3.5865 H   0  0  0  0  0  0  0  0  0  0  0  0
    3.1008  -13.8863    1.7976 H   0  0  0  0  0  0  0  0  0  0  0  0
    4.4163  -14.8340    1.0245 H   0  0  0  0  0  0  0  0  0  0  0  0
    4.4832  -13.0390    1.0245 H   0  0  0  0  0  0  0  0  0  0  0  0
    6.5891  -24.5771   -4.4732 H   0  0  0  0  0  0  0  0  0  0  0  0
    7.0513  -22.7821   -4.0323 H   0  0  0  0  0  0  0  0  0  0  0  0
   -3.4485  -22.2310   -2.8227 H   0  0  0  0  0  0  0  0  0  0  0  0
   -3.1361  -23.5312   -4.0740 H   0  0  0  0  0  0  0  0  0  0  0  0
   -2.4586  -22.2398   -0.1458 H   0  0  0  0  0  0  0  0  0  0  0  0
   -1.4830  -16.1327    1.1018 H   0  0  0  0  0  0  0  0  0  0  0  0
    2.5305  -23.6710   -3.7039 H   0  0  0  0  0  0  0  0  0  0  0  0
   -3.1178  -18.0139    3.3863 H   0  0  0  0  0  0  0  0  0  0  0  0
   -3.1434  -16.6750    2.1890 H   0  0  0  0  0  0  0  0  0  0  0  0
   -4.4525  -17.9051    2.1890 H   0  0  0  0  0  0  0  0  0  0  0  0
   -0.0211  -13.9097    1.8888 H   0  0  0  0  0  0  0  0  0  0  0  0
    0.4282  -13.0108    0.4000 H   0  0  0  0  0  0  0  0  0  0  0  0
   -1.0105  -14.0863    0.4000 H   0  0  0  0  0  0  0  0  0  0  0  0
    7.2135  -20.0877   -3.2862 H   0  0  0  0  0  0  0  0  0  0  0  0
    7.0403  -21.0487   -4.7939 H   0  0  0  0  0  0  0  0  0  0  0  0
    6.6394  -19.2977   -4.7939 H   0  0  0  0  0  0  0  0  0  0  0  0
   -0.0786  -25.8589   -3.3374 H   0  0  0  0  0  0  0  0  0  0  0  0
   -1.0068  -24.9197   -4.5551 H   0  0  0  0  0  0  0  0  0  0  0  0
    0.7886  -24.8630   -4.5551 H   0  0  0  0  0  0  0  0  0  0  0  0
  1  7  1  0
  1 23  1  0
  2  9  1  0
  2 24  1  0
  3 24  2  0
  4 10  1  0
  4 25  1  0
  5 10  2  0
  6 11  2  0
  6 26  1  0
  7 13  2  0
  7 37  1  0
  8 35  1  0
  9 15  1  0
  9 38  2  0
 10 16  1  0
 11 17  1  0
 11 39  1  0
 12 36  2  0
 13 19  1  0
 13 27  1  0
 14 35  2  0
 15 20  2  0
 15 41  1  0
 16 21  2  0
 16 42  1  0
 17 22  2  0
 17 43  1  0
 18 36  1  0
 19 23  2  0
 19 40  1  0
 20 24  1  0
 20 28  1  0
 21 25  1  0
 21 29  1  0
 22 26  1  0
 22 30  1  0
 23 38  1  0
 25 39  2  0
 26 37  2  0
 27 31  1  0
 28 32  1  0
 29 33  2  3
 30 34  1  0
 31 35  1  0
 34 36  1  0
  1 44  1  0
  2 45  1  0
  4 46  1  0
  8 47  1  0
 18 48  1  0
 27 49  1  0
 27 50  1  0
 28 51  1  0
 28 52  1  0
 29 53  1  0
 30 54  1  0
 30 55  1  0
 31 56  1  0
 31 57  1  0
 32 58  1  0
 32 59  1  0
 32 60  1  0
 33 61  1  0
 33 62  1  0
 34 63  1  0
 34 64  1  0
 37 65  1  0
 38 66  1  0
 39 67  1  0
 40 68  1  0
 40 69  1  0
 40 70  1  0
 41 71  1  0
 41 72  1  0
 41 73  1  0
 42 74  1  0
 42 75  1  0
 42 76  1  0
 43 77  1  0
 43 78  1  0
 43 79  1  0
A    1
NA
A    2
NB
A    3
OB
A    4
NC
A    5
OC
A    6
ND
A    7
C1A
A    8
O1A
A    9
C1B
A   10
C1C
A   11
C1D
A   12
O1D
A   13
C2A
A   14
O2A
A   15
C2B
A   16
C2C
A   17
C2D
A   18
O2D
A   19
C3A
A   20
C3B
A   21
C3C
A   22
C3D
A   23
C4A
A   24
C4B
A   25
C4C
A   26
C4D
A   27
CAA
A   28
CAB
A   29
CAC
A   30
CAD
A   31
CBA
A   32
CBB
A   33
CBC
A   34
CBD
A   35
CGA
A   36
CGD
A   37
CHA
A   38
CHB
A   39
CHD
A   40
CMA
A   41
CMB
A   42
CMC
A   43
CMD
M  END
