1OXR_AIN_A_141
     RDKit          3D

 21 21  0  0  0  0  0  0  0  0999 V2000
   13.9070   16.1300    0.6240 O   0  0  0  0  0  0  0  0  0  0  0  0
   13.2540   15.7780    1.7230 C   0  0  0  0  0  0  0  0  0  0  0  0
   13.9110   15.7590    2.7490 O   0  0  0  0  0  0  0  0  0  0  0  0
   11.8300   15.3160    1.6640 C   0  0  0  0  0  0  0  0  0  0  0  0
   11.1140   15.3810    0.4560 C   0  0  0  0  0  0  0  0  0  0  0  0
    9.7740   15.0010    0.4290 C   0  0  0  0  0  0  0  0  0  0  0  0
    9.1200   14.6010    1.5800 C   0  0  0  0  0  0  0  0  0  0  0  0
    9.7520   14.5680    2.8020 C   0  0  0  0  0  0  0  0  0  0  0  0
   11.0880   14.9220    2.9230 C   0  0  0  0  0  0  0  0  0  0  0  0
   11.8230   14.9060    4.0900 O   0  0  0  0  0  0  0  0  0  0  0  0
   12.4770   13.7700    4.7690 C   0  0  0  0  0  0  0  0  0  0  0  0
   12.6860   13.8700    5.9710 O   0  0  0  0  0  0  0  0  0  0  0  0
   12.8900   12.5090    4.0560 C   0  0  0  0  0  0  0  0  0  0  0  0
   14.7763   16.5986    0.6934 H   0  0  0  0  0  0  0  0  0  0  0  0
   11.6088   15.7298   -0.4624 H   0  0  0  0  0  0  0  0  0  0  0  0
    9.2264   15.0194   -0.5248 H   0  0  0  0  0  0  0  0  0  0  0  0
    8.0637   14.3004    1.5169 H   0  0  0  0  0  0  0  0  0  0  0  0
    9.1902   14.2567    3.6950 H   0  0  0  0  0  0  0  0  0  0  0  0
   13.1433   11.7356    4.7960 H   0  0  0  0  0  0  0  0  0  0  0  0
   12.0606   12.1558    3.4257 H   0  0  0  0  0  0  0  0  0  0  0  0
   13.7677   12.7149    3.4257 H   0  0  0  0  0  0  0  0  0  0  0  0
  1  2  1  0
  2  3  2  0
  2  4  1  0
  4  5  2  0
  4  9  1  0
  5  6  1  0
  6  7  2  0
  7  8  1  0
  8  9  2  0
  9 10  1  0
 10 11  1  0
 11 12  2  0
 11 13  1  0
  1 14  1  0
  5 15  1  0
  6 16  1  0
  7 17  1  0
  8 18  1  0
 13 19  1  0
 13 20  1  0
 13 21  1  0
A    1
O1
A    2
C7
A    3
O2
A    4
C3
A    5
C4
A    6
C5
A    7
C6
A    8
C1
A    9
C2
A   10
O3
A   11
C8
A   12
O4
A   13
C9
M  END
