3IC0_B77_A_144
     RDKit          3D

 32 33  0  0  0  0  0  0  0  0999 V2000
   31.9240   28.0440   34.5380 C   0  0  0  0  0  0  0  0  0  0  0  0
   33.3640   27.8910   34.1610 C   0  0  0  0  0  0  0  0  0  0  0  0
   34.3730   28.0490   35.1420 C   0  0  0  0  0  0  0  0  0  0  0  0
   35.7590   27.8780   34.7910 C   0  0  0  0  0  0  0  0  0  0  0  0
   36.0990   27.5490   33.4590 C   0  0  0  0  0  0  0  0  0  0  0  0
   35.0560   27.3920   32.4670 C   0  0  0  0  0  0  0  0  0  0  0  0
   33.7140   27.5540   32.8150 C   0  0  0  0  0  0  0  0  0  0  0  0
   37.4720   27.3970   33.1560 O   0  0  0  0  0  0  0  0  0  0  0  0
   37.8290   27.0580   31.7960 C   0  0  0  0  0  0  0  0  0  0  0  0
   36.8340   28.0090   35.7490 O   0  0  0  0  0  0  0  0  0  0  0  0
   36.5650   28.7130   37.0070 C   0  0  0  0  0  0  0  0  0  0  0  0
   36.7470   30.2370   36.8280 C   0  0  0  0  0  0  0  0  0  0  0  0
   36.5360   31.0480   37.8970 N   0  0  0  0  0  0  0  0  0  0  0  0
   36.6960   32.4130   37.8280 C   0  0  0  0  0  0  0  0  0  0  0  0
   37.0880   33.0230   36.6170 C   0  0  0  0  0  0  0  0  0  0  0  0
   37.3100   32.1920   35.4540 C   0  0  0  0  0  0  0  0  0  0  0  0
   37.1410   30.8010   35.5570 C   0  0  0  0  0  0  0  0  0  0  0  0
   31.8310   28.0539   35.6340 H   0  0  0  0  0  0  0  0  0  0  0  0
   31.5361   28.9884   34.1286 H   0  0  0  0  0  0  0  0  0  0  0  0
   31.3463   27.2022   34.1286 H   0  0  0  0  0  0  0  0  0  0  0  0
   34.0969   28.3033   36.1760 H   0  0  0  0  0  0  0  0  0  0  0  0
   35.3237   27.1428   31.4296 H   0  0  0  0  0  0  0  0  0  0  0  0
   32.9278   27.4230   32.0569 H   0  0  0  0  0  0  0  0  0  0  0  0
   38.6266   26.3006   31.8042 H   0  0  0  0  0  0  0  0  0  0  0  0
   36.9475   26.6565   31.2747 H   0  0  0  0  0  0  0  0  0  0  0  0
   38.1844   27.9591   31.2747 H   0  0  0  0  0  0  0  0  0  0  0  0
   35.5315   28.5071   37.3225 H   0  0  0  0  0  0  0  0  0  0  0  0
   37.2739   28.3587   37.7698 H   0  0  0  0  0  0  0  0  0  0  0  0
   36.5177   33.0312   38.7202 H   0  0  0  0  0  0  0  0  0  0  0  0
   37.2226   34.1132   36.5586 H   0  0  0  0  0  0  0  0  0  0  0  0
   37.6086   32.6452   34.4972 H   0  0  0  0  0  0  0  0  0  0  0  0
   37.3059   30.1518   34.6845 H   0  0  0  0  0  0  0  0  0  0  0  0
  1  2  1  0
  2  3  2  0
  2  7  1  0
  3  4  1  0
  4  5  2  0
  4 10  1  0
  5  6  1  0
  5  8  1  0
  6  7  2  0
  8  9  1  0
 10 11  1  0
 11 12  1  0
 12 13  2  0
 12 17  1  0
 13 14  1  0
 14 15  2  0
 15 16  1  0
 16 17  2  0
  1 18  1  0
  1 19  1  0
  1 20  1  0
  3 21  1  0
  6 22  1  0
  7 23  1  0
  9 24  1  0
  9 25  1  0
  9 26  1  0
 11 27  1  0
 11 28  1  0
 14 29  1  0
 15 30  1  0
 16 31  1  0
 17 32  1  0
A    1
C1
A    2
C2
A    3
C3
A    4
C4
A    5
C5
A    6
C6
A    7
C7
A    8
O8
A    9
C9
A   10
O10
A   11
C11
A   12
C12
A   13
N13
A   14
C14
A   15
C15
A   16
C16
A   17
C17
M  END
