3IES_M24_A_552
     RDKit          3D

 64 69  0  0  0  0  0  0  0  0999 V2000
  -29.9490   11.6760   -8.2560 P   0  0  0  0  0  0  0  0  0  0  0  0
  -30.5710    6.5980  -16.9790 N   0  0  0  0  0  0  0  0  0  0  0  0
  -30.8850    7.8810  -17.2360 C   0  0  0  0  0  0  0  0  0  0  0  0
  -30.9680    8.8080  -16.2720 N   0  0  0  0  0  0  0  0  0  0  0  0
  -30.7600    8.4780  -14.9700 C   0  0  0  0  0  0  0  0  0  0  0  0
  -30.4320    7.1890  -14.6300 C   0  0  0  0  0  0  0  0  0  0  0  0
  -30.3230    6.1970  -15.7140 C   0  0  0  0  0  0  0  0  0  0  0  0
  -30.0150    4.8960  -15.4330 N   0  0  0  0  0  0  0  0  0  0  0  0
  -30.2800    7.1350  -13.2780 N   0  0  0  0  0  0  0  0  0  0  0  0
  -30.4860    8.3880  -12.8200 C   0  0  0  0  0  0  0  0  0  0  0  0
  -30.7910    9.1840  -13.8450 N   0  0  0  0  0  0  0  0  0  0  0  0
  -31.0760   10.6270  -13.7640 C   0  0  0  0  0  0  0  0  0  0  0  0
  -28.5000   12.1110   -8.0910 O   0  0  0  0  0  0  0  0  0  0  0  0
  -32.5700   10.9110  -13.8360 C   0  0  0  0  0  0  0  0  0  0  0  0
  -32.7170   12.1550  -14.5040 O   0  0  0  0  0  0  0  0  0  0  0  0
  -29.3110    9.0710   -8.7260 C   0  0  0  0  0  0  0  0  0  0  0  0
  -28.7160    9.3800   -9.7440 O   0  0  0  0  0  0  0  0  0  0  0  0
  -29.3490    7.6750   -8.1350 C   0  0  0  0  0  0  0  0  0  0  0  0
  -29.8300    7.5370   -6.8320 C   0  0  0  0  0  0  0  0  0  0  0  0
  -29.9080    6.2970   -6.2210 C   0  0  0  0  0  0  0  0  0  0  0  0
  -29.4780    5.1740   -6.8950 C   0  0  0  0  0  0  0  0  0  0  0  0
  -30.0290   10.0780   -8.0060 O   0  0  0  0  0  0  0  0  0  0  0  0
  -32.9830   11.1000  -12.3980 C   0  0  0  0  0  0  0  0  0  0  0  0
  -34.1040   11.9960  -12.3110 O   0  0  0  0  0  0  0  0  0  0  0  0
  -29.0160    5.3030   -8.1840 C   0  0  0  0  0  0  0  0  0  0  0  0
  -28.9310    6.5500   -8.8140 C   0  0  0  0  0  0  0  0  0  0  0  0
  -28.5770    4.0720   -8.8740 C   0  0  0  0  0  0  0  0  0  0  0  0
  -28.1660    4.0820  -10.1370 N   0  0  0  0  0  0  0  0  0  0  0  0
  -27.8380    2.8190  -10.4220 O   0  0  0  0  0  0  0  0  0  0  0  0
  -28.0300    2.0150   -9.3780 C   0  0  0  0  0  0  0  0  0  0  0  0
  -28.4910    2.7990   -8.3740 N   0  0  0  0  0  0  0  0  0  0  0  0
  -27.8070    0.5730   -9.4060 C   0  0  0  0  0  0  0  0  0  0  0  0
  -27.2860   -0.0490  -10.5170 C   0  0  0  0  0  0  0  0  0  0  0  0
  -27.1230   -1.4290  -10.4870 C   0  0  0  0  0  0  0  0  0  0  0  0
  -31.0030   12.1060   -7.2900 O   0  0  0  0  0  0  0  0  0  0  0  0
  -31.7240   11.6650  -11.7510 C   0  0  0  0  0  0  0  0  0  0  0  0
  -30.6180   11.1190  -12.5050 O   0  0  0  0  0  0  0  0  0  0  0  0
  -27.5140   -2.1450   -9.3600 C   0  0  0  0  0  0  0  0  0  0  0  0
  -28.0770   -1.4940   -8.2690 C   0  0  0  0  0  0  0  0  0  0  0  0
  -28.2190   -0.1240   -8.3000 C   0  0  0  0  0  0  0  0  0  0  0  0
  -28.7410    0.5880   -7.2920 F   0  0  0  0  0  0  0  0  0  0  0  0
  -31.6050   11.2750  -10.2860 C   0  0  0  0  0  0  0  0  0  0  0  0
  -30.3700   11.8180   -9.8030 O   0  0  0  0  0  0  0  0  0  0  0  0
  -31.0809    8.1800  -18.2763 H   0  0  0  0  0  0  0  0  0  0  0  0
  -29.9412    4.5841  -14.4541 H   0  0  0  0  0  0  0  0  0  0  0  0
  -29.8566    4.2270  -16.2000 H   0  0  0  0  0  0  0  0  0  0  0  0
  -30.4137    8.7023  -11.7683 H   0  0  0  0  0  0  0  0  0  0  0  0
  -30.5692   11.1136  -14.6104 H   0  0  0  0  0  0  0  0  0  0  0  0
  -33.1503   10.1277  -14.3456 H   0  0  0  0  0  0  0  0  0  0  0  0
  -32.8027   12.8803  -13.8357 H   0  0  0  0  0  0  0  0  0  0  0  0
  -30.1536    8.4314   -6.2794 H   0  0  0  0  0  0  0  0  0  0  0  0
  -30.3116    6.2083   -5.2016 H   0  0  0  0  0  0  0  0  0  0  0  0
  -29.5040    4.1878   -6.4084 H   0  0  0  0  0  0  0  0  0  0  0  0
  -33.3225   10.1791  -11.9013 H   0  0  0  0  0  0  0  0  0  0  0  0
  -34.3172   12.1664  -11.3594 H   0  0  0  0  0  0  0  0  0  0  0  0
  -28.5359    6.6315   -9.8374 H   0  0  0  0  0  0  0  0  0  0  0  0
  -27.0051    0.5320  -11.4078 H   0  0  0  0  0  0  0  0  0  0  0  0
  -26.6868   -1.9527  -11.3504 H   0  0  0  0  0  0  0  0  0  0  0  0
  -30.6768   11.9729   -6.3648 H   0  0  0  0  0  0  0  0  0  0  0  0
  -31.7429   12.7647  -11.7699 H   0  0  0  0  0  0  0  0  0  0  0  0
  -27.3763   -3.2360   -9.3323 H   0  0  0  0  0  0  0  0  0  0  0  0
  -28.4060   -2.0668   -7.3894 H   0  0  0  0  0  0  0  0  0  0  0  0
  -32.4485   11.6908   -9.7154 H   0  0  0  0  0  0  0  0  0  0  0  0
  -31.6231   10.1813  -10.1699 H   0  0  0  0  0  0  0  0  0  0  0  0
 43  1  1  0
  1 13  2  0
  1 22  1  0
  1 35  1  0
  3  2  2  0
  2  7  1  0
  3  4  1  0
  4  5  2  0
  5  6  1  0
  5 11  1  0
  7  6  2  0
  6  9  1  0
  7  8  1  0
  9 10  2  0
 11 10  1  0
 11 12  1  0
 14 12  1  0
 12 37  1  0
 15 14  1  0
 14 23  1  0
 17 16  2  0
 16 18  1  0
 16 22  1  0
 26 18  1  0
 18 19  2  0
 19 20  1  0
 21 20  2  0
 25 21  1  0
 23 24  1  0
 23 36  1  0
 27 25  1  0
 26 25  2  0
 28 27  2  0
 27 31  1  0
 29 28  1  0
 29 30  1  0
 32 30  1  0
 30 31  2  0
 33 32  2  0
 32 40  1  0
 33 34  1  0
 34 38  2  0
 37 36  1  0
 36 42  1  0
 38 39  1  0
 40 39  2  0
 40 41  1  0
 42 43  1  0
  3 44  1  0
  8 45  1  0
  8 46  1  0
 10 47  1  0
 12 48  1  0
 14 49  1  0
 15 50  1  0
 19 51  1  0
 20 52  1  0
 21 53  1  0
 23 54  1  0
 24 55  1  0
 26 56  1  0
 33 57  1  0
 34 58  1  0
 35 59  1  0
 36 60  1  0
 38 61  1  0
 39 62  1  0
 42 63  1  0
 42 64  1  0
A    1
P
A    2
N1
A    3
C2
A    4
N3
A    5
C4
A    6
C5
A    7
C6
A    8
N6
A    9
N7
A   10
C8
A   11
N9
A   12
C1'
A   13
O1P
A   14
C2'
A   15
O2'
A   16
C24
A   17
O25
A   18
C26
A   19
C27
A   20
C28
A   21
C29
A   22
O2P
A   23
C3'
A   24
O3'
A   25
C30
A   26
C31
A   27
C32
A   28
N33
A   29
O34
A   30
C35
A   31
N36
A   32
C37
A   33
C38
A   34
C39
A   35
O3P
A   36
C4'
A   37
O4'
A   38
C40
A   39
C41
A   40
C42
A   41
F43
A   42
C5'
A   43
O5'
M  END
