3IG6_438_B_400
     RDKit          3D

 79 83  0  0  0  0  0  0  0  0999 V2000
   14.6630    2.5310   -1.6670 N   0  0  0  0  0  0  0  0  0  0  0  0
   16.0800    2.1570   -1.7790 C   0  0  0  0  0  0  0  0  0  0  0  0
   16.3480   -0.6640    0.8860 C   0  0  0  0  0  0  0  0  0  0  0  0
   16.7360   -1.7670    0.0510 C   0  0  0  0  0  0  0  0  0  0  0  0
   16.9000   -1.5950   -1.3520 C   0  0  0  0  0  0  0  0  0  0  0  0
   16.6820   -0.3220   -1.9450 C   0  0  0  0  0  0  0  0  0  0  0  0
   16.3010    0.7820   -1.1370 C   0  0  0  0  0  0  0  0  0  0  0  0
   16.1350    0.6150    0.2700 C   0  0  0  0  0  0  0  0  0  0  0  0
   16.2030   -0.8280    2.3060 C   0  0  0  0  0  0  0  0  0  0  0  0
   17.0310   -1.7500    3.0280 C   0  0  0  0  0  0  0  0  0  0  0  0
   16.8810   -1.9230    4.4540 C   0  0  0  0  0  0  0  0  0  0  0  0
   15.8850   -1.1760    5.1430 C   0  0  0  0  0  0  0  0  0  0  0  0
   15.0560   -0.2640    4.4390 C   0  0  0  0  0  0  0  0  0  0  0  0
   15.2130   -0.0880    3.0370 C   0  0  0  0  0  0  0  0  0  0  0  0
   17.7350   -2.7360    5.2120 O   0  0  0  0  0  0  0  0  0  0  0  0
   19.3800   -3.9960    4.0400 N   0  0  0  0  0  0  0  0  0  0  0  0
   19.0340   -2.8730    4.7300 C   0  0  0  0  0  0  0  0  0  0  0  0
   19.9720   -1.8200    4.8780 C   0  0  0  0  0  0  0  0  0  0  0  0
   21.2800   -1.9430    4.3020 C   0  0  0  0  0  0  0  0  0  0  0  0
   21.5870   -3.1510    3.5870 C   0  0  0  0  0  0  0  0  0  0  0  0
   20.6180   -4.1560    3.4670 C   0  0  0  0  0  0  0  0  0  0  0  0
   19.5910   -0.7020    5.5180 F   0  0  0  0  0  0  0  0  0  0  0  0
   22.1950   -0.9100    4.3660 N   0  0  0  0  0  0  0  0  0  0  0  0
   22.7830   -3.3390    2.9980 F   0  0  0  0  0  0  0  0  0  0  0  0
   20.9010   -5.2430    2.6630 O   0  0  0  0  0  0  0  0  0  0  0  0
   20.0530   -6.3310    2.7490 C   0  0  0  0  0  0  0  0  0  0  0  0
   20.4910   -7.4980    3.4310 C   0  0  0  0  0  0  0  0  0  0  0  0
   19.7140   -8.7030    3.4060 C   0  0  0  0  0  0  0  0  0  0  0  0
   20.1700   -9.8590    4.0210 N   0  0  0  0  0  0  0  0  0  0  0  0
   18.4670   -8.6930    2.6890 C   0  0  0  0  0  0  0  0  0  0  0  0
   18.0230   -7.5350    2.0120 C   0  0  0  0  0  0  0  0  0  0  0  0
   18.8030   -6.3500    2.0240 C   0  0  0  0  0  0  0  0  0  0  0  0
   18.3290   -5.1230    1.1960 C   0  0  0  0  0  0  0  0  0  0  0  0
   17.1170   -5.0530    0.8790 O   0  0  0  0  0  0  0  0  0  0  0  0
   19.1850   -4.2720    0.8550 O   0  0  0  0  0  0  0  0  0  0  0  0
   19.3860  -11.1220    3.9790 C   0  0  0  0  0  0  0  0  0  0  0  0
   21.4940   -9.9110    4.6950 C   0  0  0  0  0  0  0  0  0  0  0  0
   23.2270   -0.6110    3.3290 C   0  0  0  0  0  0  0  0  0  0  0  0
   23.9520    0.6380    3.8860 C   0  0  0  0  0  0  0  0  0  0  0  0
   23.7950    0.4740    5.3980 C   0  0  0  0  0  0  0  0  0  0  0  0
   22.3240    0.0850    5.4780 C   0  0  0  0  0  0  0  0  0  0  0  0
   25.4030    0.7680    3.4450 N   0  0  0  0  0  0  0  0  0  0  0  0
   26.2630   -0.4100    3.7870 C   0  0  0  0  0  0  0  0  0  0  0  0
   25.5150    1.0220    1.9880 C   0  0  0  0  0  0  0  0  0  0  0  0
   14.4036    2.5995   -0.6726 H   0  0  0  0  0  0  0  0  0  0  0  0
   14.5108    3.4410   -2.1250 H   0  0  0  0  0  0  0  0  0  0  0  0
   16.3649    2.1155   -2.8406 H   0  0  0  0  0  0  0  0  0  0  0  0
   16.6976    2.9056   -1.2612 H   0  0  0  0  0  0  0  0  0  0  0  0
   16.9082   -2.7557    0.5014 H   0  0  0  0  0  0  0  0  0  0  0  0
   17.1961   -2.4491   -1.9788 H   0  0  0  0  0  0  0  0  0  0  0  0
   16.8084   -0.1918   -3.0299 H   0  0  0  0  0  0  0  0  0  0  0  0
   15.8407    1.4752    0.8893 H   0  0  0  0  0  0  0  0  0  0  0  0
   17.7911   -2.3337    2.4880 H   0  0  0  0  0  0  0  0  0  0  0  0
   15.7567   -1.3061    6.2277 H   0  0  0  0  0  0  0  0  0  0  0  0
   14.2889    0.3090    4.9804 H   0  0  0  0  0  0  0  0  0  0  0  0
   14.5668    0.6253    2.5045 H   0  0  0  0  0  0  0  0  0  0  0  0
   21.4402   -7.4768    3.9864 H   0  0  0  0  0  0  0  0  0  0  0  0
   17.8485   -9.6024    2.6674 H   0  0  0  0  0  0  0  0  0  0  0  0
   17.0651   -7.5524    1.4714 H   0  0  0  0  0  0  0  0  0  0  0  0
   16.4226   -5.0129    1.5835 H   0  0  0  0  0  0  0  0  0  0  0  0
   19.1773  -11.4583    5.0053 H   0  0  0  0  0  0  0  0  0  0  0  0
   18.4373  -10.9473    3.4503 H   0  0  0  0  0  0  0  0  0  0  0  0
   19.9635  -11.8946    3.4503 H   0  0  0  0  0  0  0  0  0  0  0  0
   21.3507   -9.9054    5.7856 H   0  0  0  0  0  0  0  0  0  0  0  0
   22.0202  -10.8305    4.3991 H   0  0  0  0  0  0  0  0  0  0  0  0
   22.0907   -9.0356    4.3991 H   0  0  0  0  0  0  0  0  0  0  0  0
   23.9258   -1.4530    3.2162 H   0  0  0  0  0  0  0  0  0  0  0  0
   22.7946   -0.4446    2.3314 H   0  0  0  0  0  0  0  0  0  0  0  0
   23.5202    1.5743    3.5027 H   0  0  0  0  0  0  0  0  0  0  0  0
   24.4478   -0.3192    5.7913 H   0  0  0  0  0  0  0  0  0  0  0  0
   24.0697    1.3605    5.9884 H   0  0  0  0  0  0  0  0  0  0  0  0
   21.6723    0.9553    5.3112 H   0  0  0  0  0  0  0  0  0  0  0  0
   22.0264   -0.3114    6.4600 H   0  0  0  0  0  0  0  0  0  0  0  0
   26.3339   -0.5071    4.8804 H   0  0  0  0  0  0  0  0  0  0  0  0
   25.8179   -1.3235    3.3659 H   0  0  0  0  0  0  0  0  0  0  0  0
   27.2687   -0.2644    3.3659 H   0  0  0  0  0  0  0  0  0  0  0  0
   25.9537    2.0170    1.8219 H   0  0  0  0  0  0  0  0  0  0  0  0
   26.1590    0.2563    1.5308 H   0  0  0  0  0  0  0  0  0  0  0  0
   24.5154    0.9811    1.5308 H   0  0  0  0  0  0  0  0  0  0  0  0
  1  2  1  0
  2  7  1  0
  3  4  2  0
  3  8  1  0
  3  9  1  0
  4  5  1  0
  5  6  2  0
  6  7  1  0
  7  8  2  0
  9 10  2  0
  9 14  1  0
 10 11  1  0
 11 12  2  0
 11 15  1  0
 12 13  1  0
 13 14  2  0
 15 17  1  0
 16 17  2  0
 16 21  1  0
 17 18  1  0
 18 19  2  0
 18 22  1  0
 19 20  1  0
 19 23  1  0
 20 21  2  0
 20 24  1  0
 21 25  1  0
 23 38  1  0
 23 41  1  0
 25 26  1  0
 26 27  2  0
 26 32  1  0
 27 28  1  0
 28 29  1  0
 28 30  2  0
 29 36  1  0
 29 37  1  0
 30 31  1  0
 31 32  2  0
 32 33  1  0
 33 34  1  0
 33 35  2  0
 38 39  1  0
 39 40  1  0
 39 42  1  0
 40 41  1  0
 42 43  1  0
 42 44  1  0
  1 45  1  0
  1 46  1  0
  2 47  1  0
  2 48  1  0
  4 49  1  0
  5 50  1  0
  6 51  1  0
  8 52  1  0
 10 53  1  0
 12 54  1  0
 13 55  1  0
 14 56  1  0
 27 57  1  0
 30 58  1  0
 31 59  1  0
 34 60  1  0
 36 61  1  0
 36 62  1  0
 36 63  1  0
 37 64  1  0
 37 65  1  0
 37 66  1  0
 38 67  1  0
 38 68  1  0
 39 69  1  0
 40 70  1  0
 40 71  1  0
 41 72  1  0
 41 73  1  0
 43 74  1  0
 43 75  1  0
 43 76  1  0
 44 77  1  0
 44 78  1  0
 44 79  1  0
A    1
N1
A    2
C2
A    3
C3
A    4
C4
A    5
C5
A    6
C6
A    7
C7
A    8
C8
A    9
C9
A   10
C10
A   11
C11
A   12
C12
A   13
C13
A   14
C14
A   15
O15
A   16
N16
A   17
C17
A   18
C18
A   19
C19
A   20
C20
A   21
C21
A   22
F22
A   23
N23
A   24
F24
A   25
O25
A   26
C26
A   27
C27
A   28
C28
A   29
N29
A   30
C30
A   31
C31
A   32
C32
A   33
C33
A   34
O34
A   35
O35
A   36
C36
A   37
C37
A   38
C38
A   39
C39
A   40
C40
A   41
C41
A   42
N42
A   43
C43
A   44
C44
M  END
