3IGV_B80_A_579
     RDKit          3D

 58 61  0  0  0  0  0  0  0  0999 V2000
   96.0130    7.0700   62.9810 O   0  0  0  0  0  0  0  0  0  0  0  0
   96.6500    8.3690   63.3160 S   0  0  0  0  0  0  0  0  0  0  0  0
   96.1820    8.7890   64.6570 O   0  0  0  0  0  0  0  0  0  0  0  0
   98.3040    8.2080   63.3880 C   0  0  0  0  0  0  0  0  0  0  0  0
   96.3100    9.4620   62.2940 N   0  0  0  0  0  0  0  0  0  0  0  0
   96.1380    9.3040   60.9440 C   0  0  0  0  0  0  0  0  0  0  0  0
   95.4330   10.2980   60.2670 C   0  0  0  0  0  0  0  0  0  0  0  0
   95.2190   10.2060   58.8940 C   0  0  0  0  0  0  0  0  0  0  0  0
   96.6370    8.2100   60.2170 C   0  0  0  0  0  0  0  0  0  0  0  0
   96.4270    8.1090   58.8350 C   0  0  0  0  0  0  0  0  0  0  0  0
   95.7170    9.1200   58.1770 C   0  0  0  0  0  0  0  0  0  0  0  0
   95.4850    9.0690   56.8440 N   0  0  0  0  0  0  0  0  0  0  0  0
   96.9860    6.8610   57.9900 S   0  0  0  0  0  0  0  0  0  0  0  0
   98.3880    6.5720   58.3470 O   0  0  0  0  0  0  0  0  0  0  0  0
   96.1700    5.6670   58.2640 O   0  0  0  0  0  0  0  0  0  0  0  0
   96.9130    7.2270   56.4320 N   0  0  0  0  0  0  0  0  0  0  0  0
   96.1430    8.2500   55.9790 C   0  0  0  0  0  0  0  0  0  0  0  0
   95.9980    8.4860   54.4920 C   0  0  0  0  0  0  0  0  0  0  0  0
   96.2560    7.5040   53.6150 C   0  0  0  0  0  0  0  0  0  0  0  0
   96.7620    6.3430   54.0180 O   0  0  0  0  0  0  0  0  0  0  0  0
   95.9680    7.6900   52.1410 C   0  0  0  0  0  0  0  0  0  0  0  0
   96.2070    9.1300   51.6760 C   0  0  0  0  0  0  0  0  0  0  0  0
   97.7070    9.4370   51.6380 C   0  0  0  0  0  0  0  0  0  0  0  0
   98.2960    9.1300   50.2770 C   0  0  0  0  0  0  0  0  0  0  0  0
   95.5630    9.8020   53.9870 C   0  0  0  0  0  0  0  0  0  0  0  0
   95.1960   10.6760   54.7590 O   0  0  0  0  0  0  0  0  0  0  0  0
   95.5640   10.0190   52.6620 N   0  0  0  0  0  0  0  0  0  0  0  0
   94.9070   11.1520   52.0220 C   0  0  0  0  0  0  0  0  0  0  0  0
   93.5300   10.7390   51.5570 C   0  0  0  0  0  0  0  0  0  0  0  0
   93.2180   10.8130   50.1990 C   0  0  0  0  0  0  0  0  0  0  0  0
   91.9590   10.4300   49.7530 C   0  0  0  0  0  0  0  0  0  0  0  0
   92.5860   10.2830   52.4750 C   0  0  0  0  0  0  0  0  0  0  0  0
   91.3270    9.8980   52.0300 C   0  0  0  0  0  0  0  0  0  0  0  0
   91.0160    9.9730   50.6730 C   0  0  0  0  0  0  0  0  0  0  0  0
   89.7970    9.6060   50.2460 F   0  0  0  0  0  0  0  0  0  0  0  0
   98.6239    8.1769   64.4400 H   0  0  0  0  0  0  0  0  0  0  0  0
   98.6039    7.2764   62.8858 H   0  0  0  0  0  0  0  0  0  0  0  0
   98.7780    9.0643   62.8858 H   0  0  0  0  0  0  0  0  0  0  0  0
   96.1992   10.4174   62.6627 H   0  0  0  0  0  0  0  0  0  0  0  0
   95.0421   11.1632   60.8226 H   0  0  0  0  0  0  0  0  0  0  0  0
   94.6546   10.9938   58.3735 H   0  0  0  0  0  0  0  0  0  0  0  0
   97.1999    7.4225   60.7394 H   0  0  0  0  0  0  0  0  0  0  0  0
   97.4624    6.6740   55.7587 H   0  0  0  0  0  0  0  0  0  0  0  0
   96.8466    6.1489   54.9851 H   0  0  0  0  0  0  0  0  0  0  0  0
   96.6235    7.0197   51.5657 H   0  0  0  0  0  0  0  0  0  0  0  0
   94.9061    7.4559   51.9748 H   0  0  0  0  0  0  0  0  0  0  0  0
   95.7942    9.2758   50.6669 H   0  0  0  0  0  0  0  0  0  0  0  0
   97.8607   10.5027   51.8631 H   0  0  0  0  0  0  0  0  0  0  0  0
   98.2102    8.8056   52.3851 H   0  0  0  0  0  0  0  0  0  0  0  0
   99.2651    8.6249   50.4023 H   0  0  0  0  0  0  0  0  0  0  0  0
   97.6102    8.4746   49.7201 H   0  0  0  0  0  0  0  0  0  0  0  0
   98.4405   10.0675   49.7201 H   0  0  0  0  0  0  0  0  0  0  0  0
   94.8182   11.9789   52.7420 H   0  0  0  0  0  0  0  0  0  0  0  0
   95.5026   11.4808   51.1576 H   0  0  0  0  0  0  0  0  0  0  0  0
   93.9690   11.1747   49.4812 H   0  0  0  0  0  0  0  0  0  0  0  0
   91.7083   10.4868   48.6834 H   0  0  0  0  0  0  0  0  0  0  0  0
   92.8357   10.2281   53.5449 H   0  0  0  0  0  0  0  0  0  0  0  0
   90.5767    9.5345   52.7476 H   0  0  0  0  0  0  0  0  0  0  0  0
  1  2  2  0
  2  3  2  0
  2  4  1  0
  2  5  1  0
  5  6  1  0
  6  7  2  0
  6  9  1  0
  7  8  1  0
  8 11  2  0
  9 10  2  0
 10 11  1  0
 10 13  1  0
 11 12  1  0
 12 17  2  0
 13 14  2  0
 13 15  2  0
 13 16  1  0
 16 17  1  0
 17 18  1  0
 18 19  2  0
 18 25  1  0
 19 20  1  0
 19 21  1  0
 21 22  1  0
 22 23  1  0
 22 27  1  0
 23 24  1  0
 25 26  2  0
 25 27  1  0
 27 28  1  0
 28 29  1  0
 29 30  2  0
 29 32  1  0
 30 31  1  0
 31 34  2  0
 32 33  2  0
 33 34  1  0
 34 35  1  0
  4 36  1  0
  4 37  1  0
  4 38  1  0
  5 39  1  0
  7 40  1  0
  8 41  1  0
  9 42  1  0
 16 43  1  0
 20 44  1  0
 21 45  1  0
 21 46  1  0
 22 47  1  0
 23 48  1  0
 23 49  1  0
 24 50  1  0
 24 51  1  0
 24 52  1  0
 28 53  1  0
 28 54  1  0
 30 55  1  0
 31 56  1  0
 32 57  1  0
 33 58  1  0
A    1
O31
A    2
S35
A    3
O30
A    4
C20
A    5
N26
A    6
C10
A    7
C4
A    8
C3
A    9
C7
A   10
C12
A   11
C9
A   12
N23
A   13
S34
A   14
O28
A   15
O29
A   16
N24
A   17
C15
A   18
C13
A   19
C14
A   20
O32
A   21
C17
A   22
C18
A   23
C22
A   24
C19
A   25
C16
A   26
O27
A   27
N25
A   28
C21
A   29
C8
A   30
C1
A   31
C5
A   32
C2
A   33
C6
A   34
C11
A   35
F33
M  END
