1TCV_NDS_A_951
     RDKit          3D

 29 28  0  0  0  0  0  0  0  0999 V2000
    5.8480   29.6010   18.7950 O   0  0  0  0  0  0  0  0  0  0  0  0
    4.7770   29.2130   19.7350 S   0  0  0  0  0  0  0  0  0  0  0  0
    3.5720   28.9000   18.9420 O   0  0  0  0  0  0  0  0  0  0  0  0
    5.2100   28.1150   20.6200 O   0  0  0  0  0  0  0  0  0  0  0  0
    4.5270   30.4820   20.7890 C   0  0  0  0  0  0  0  0  0  0  0  0
    5.8990   30.9980   21.2370 C   0  0  0  0  0  0  0  0  0  0  0  0
    5.8100   31.7540   22.5510 C   0  0  0  0  0  0  0  0  0  0  0  0
    6.6940   32.9410   22.6460 N   0  0  0  0  0  0  0  0  0  0  0  0
    6.8250   33.2340   24.0850 C   0  0  0  0  0  0  0  0  0  0  0  0
    8.0480   32.6920   22.0900 C   0  0  0  0  0  0  0  0  0  0  0  0
    6.0270   34.0500   21.9280 C   0  0  0  0  0  0  0  0  0  0  0  0
    6.8160   35.3390   21.8150 C   0  0  0  0  0  0  0  0  0  0  0  0
    3.9726   31.2855   20.2821 H   0  0  0  0  0  0  0  0  0  0  0  0
    3.9399   30.1493   21.6577 H   0  0  0  0  0  0  0  0  0  0  0  0
    6.5786   30.1422   21.3628 H   0  0  0  0  0  0  0  0  0  0  0  0
    6.2750   31.6884   20.4676 H   0  0  0  0  0  0  0  0  0  0  0  0
    4.7708   32.0896   22.6831 H   0  0  0  0  0  0  0  0  0  0  0  0
    6.1431   31.0561   23.3333 H   0  0  0  0  0  0  0  0  0  0  0  0
    6.4444   32.3828   24.6686 H   0  0  0  0  0  0  0  0  0  0  0  0
    7.8841   33.4023   24.3300 H   0  0  0  0  0  0  0  0  0  0  0  0
    6.2442   34.1355   24.3300 H   0  0  0  0  0  0  0  0  0  0  0  0
    8.7643   32.5603   22.9143 H   0  0  0  0  0  0  0  0  0  0  0  0
    8.0290   31.7823   21.4719 H   0  0  0  0  0  0  0  0  0  0  0  0
    8.3538   33.5490   21.4719 H   0  0  0  0  0  0  0  0  0  0  0  0
    5.8013   33.7033   20.9088 H   0  0  0  0  0  0  0  0  0  0  0  0
    5.1382   34.2983   22.5266 H   0  0  0  0  0  0  0  0  0  0  0  0
    7.0473   35.7168   22.8219 H   0  0  0  0  0  0  0  0  0  0  0  0
    7.7527   35.1490   21.2706 H   0  0  0  0  0  0  0  0  0  0  0  0
    6.2207   36.0868   21.2706 H   0  0  0  0  0  0  0  0  0  0  0  0
  1  2  1  0
  2  3  2  0
  2  4  2  0
  2  5  1  0
  5  6  1  0
  6  7  1  0
  7  8  1  0
  8  9  1  0
  8 10  1  0
  8 11  1  0
 11 12  1  0
  5 13  1  0
  5 14  1  0
  6 15  1  0
  6 16  1  0
  7 17  1  0
  7 18  1  0
  9 19  1  0
  9 20  1  0
  9 21  1  0
 10 22  1  0
 10 23  1  0
 10 24  1  0
 11 25  1  0
 11 26  1  0
 12 27  1  0
 12 28  1  0
 12 29  1  0
M  CHG  2   1  -1   8   1
A    1
O3
A    2
S1
A    3
O1
A    4
O2
A    5
C4
A    6
C3
A    7
C2
A    8
N1
A    9
C1
A   10
C7
A   11
C5
A   12
C6
M  END
