3IK7_BOB_A_501
     RDKit          3D

 66 65  0  0  0  0  0  0  0  0999 V2000
    5.0910   13.6450   22.3880 C   0  0  0  0  0  0  0  0  0  0  0  0
    3.4500   12.1700   21.3520 N   0  0  0  0  0  0  0  0  0  0  0  0
   10.7030   11.5070   17.7970 C   0  0  0  0  0  0  0  0  0  0  0  0
    8.9420   12.6730   18.8170 N   0  0  0  0  0  0  0  0  0  0  0  0
   11.4490   11.6060   18.8850 O   0  0  0  0  0  0  0  0  0  0  0  0
   12.1050    8.2830   16.4740 C   0  0  0  0  0  0  0  0  0  0  0  0
   10.9410   10.4520   17.0150 N   0  0  0  0  0  0  0  0  0  0  0  0
    4.3050   14.5720   22.2150 O   0  0  0  0  0  0  0  0  0  0  0  0
    6.0610   13.7460   23.1670 O   0  0  0  0  0  0  0  0  0  0  0  0
   13.2560    7.9500   16.0690 O   0  0  0  0  0  0  0  0  0  0  0  0
   11.0590    7.6440   16.2020 O   0  0  0  0  0  0  0  0  0  0  0  0
    8.8870   16.4240   16.0010 C   0  0  0  0  0  0  0  0  0  0  0  0
    8.3660   15.6940   14.7450 C   0  0  0  0  0  0  0  0  0  0  0  0
    9.3770   14.8280   13.9830 C   0  0  0  0  0  0  0  0  0  0  0  0
    9.3370   15.1680   12.4930 C   0  0  0  0  0  0  0  0  0  0  0  0
   10.2680   14.2990   11.6510 C   0  0  0  0  0  0  0  0  0  0  0  0
   10.1120   14.6520   10.1770 C   0  0  0  0  0  0  0  0  0  0  0  0
    8.7870   15.3440    9.9420 C   0  0  0  0  0  0  0  0  0  0  0  0
   10.0250   17.3940   15.6430 C   0  0  0  0  0  0  0  0  0  0  0  0
    9.4120   18.7640   15.3680 C   0  0  0  0  0  0  0  0  0  0  0  0
   10.3700   19.6510   14.7950 O   0  0  0  0  0  0  0  0  0  0  0  0
    7.2130   14.9300   15.1360 O   0  0  0  0  0  0  0  0  0  0  0  0
    4.8650   12.3960   21.5820 C   0  0  0  0  0  0  0  0  0  0  0  0
    9.6610   12.5790   17.5510 C   0  0  0  0  0  0  0  0  0  0  0  0
   11.9920    9.4890   17.3820 C   0  0  0  0  0  0  0  0  0  0  0  0
    5.5090   12.5450   20.2200 C   0  0  0  0  0  0  0  0  0  0  0  0
   10.3150   13.9350   17.2140 C   0  0  0  0  0  0  0  0  0  0  0  0
    7.6320   12.4710   18.9380 C   0  0  0  0  0  0  0  0  0  0  0  0
    6.8910   12.2230   17.8710 O   0  0  0  0  0  0  0  0  0  0  0  0
    7.0260   12.5490   20.3230 C   0  0  0  0  0  0  0  0  0  0  0  0
    9.3070   15.3940   17.4040 S   0  0  0  0  0  0  0  0  0  0  0  0
    2.9633   12.0923   22.2564 H   0  0  0  0  0  0  0  0  0  0  0  0
    3.0586   12.9591   20.8182 H   0  0  0  0  0  0  0  0  0  0  0  0
    9.4780   12.9088   19.6643 H   0  0  0  0  0  0  0  0  0  0  0  0
   10.3901   10.3119   16.1560 H   0  0  0  0  0  0  0  0  0  0  0  0
    5.9135   13.7306   24.1458 H   0  0  0  0  0  0  0  0  0  0  0  0
   13.9702    7.7434   16.7227 H   0  0  0  0  0  0  0  0  0  0  0  0
    8.0173   16.9938   16.3601 H   0  0  0  0  0  0  0  0  0  0  0  0
    8.1226   16.4735   14.0081 H   0  0  0  0  0  0  0  0  0  0  0  0
   10.3876   15.0188   14.3734 H   0  0  0  0  0  0  0  0  0  0  0  0
    9.1192   13.7673   14.1188 H   0  0  0  0  0  0  0  0  0  0  0  0
    8.3076   15.0299   12.1307 H   0  0  0  0  0  0  0  0  0  0  0  0
    9.6772   16.2086   12.3866 H   0  0  0  0  0  0  0  0  0  0  0  0
   11.3092   14.4737   11.9600 H   0  0  0  0  0  0  0  0  0  0  0  0
   10.0095   13.2402   11.7999 H   0  0  0  0  0  0  0  0  0  0  0  0
   10.9304   15.3223    9.8755 H   0  0  0  0  0  0  0  0  0  0  0  0
   10.1444   13.7277    9.5815 H   0  0  0  0  0  0  0  0  0  0  0  0
    8.3232   15.5862   10.9096 H   0  0  0  0  0  0  0  0  0  0  0  0
    8.9531   16.2705    9.3728 H   0  0  0  0  0  0  0  0  0  0  0  0
    8.1215   14.6783    9.3728 H   0  0  0  0  0  0  0  0  0  0  0  0
   10.7329   17.4640   16.4820 H   0  0  0  0  0  0  0  0  0  0  0  0
   10.5671   17.0343   14.7560 H   0  0  0  0  0  0  0  0  0  0  0  0
    8.5693   18.6468   14.6708 H   0  0  0  0  0  0  0  0  0  0  0  0
    9.0690   19.1904   16.3222 H   0  0  0  0  0  0  0  0  0  0  0  0
   10.8670   20.1111   15.5171 H   0  0  0  0  0  0  0  0  0  0  0  0
    7.1599   14.8948   16.1240 H   0  0  0  0  0  0  0  0  0  0  0  0
    5.2978   11.5578   22.1478 H   0  0  0  0  0  0  0  0  0  0  0  0
    9.0112   12.3314   16.6987 H   0  0  0  0  0  0  0  0  0  0  0  0
   11.7842    9.1300   18.4008 H   0  0  0  0  0  0  0  0  0  0  0  0
   12.9462   10.0291   17.2933 H   0  0  0  0  0  0  0  0  0  0  0  0
    5.1955   11.7057   19.5818 H   0  0  0  0  0  0  0  0  0  0  0  0
    5.1881   13.5042   19.7875 H   0  0  0  0  0  0  0  0  0  0  0  0
   11.1922   14.0511   17.8675 H   0  0  0  0  0  0  0  0  0  0  0  0
   10.5393   13.8827   16.1384 H   0  0  0  0  0  0  0  0  0  0  0  0
    7.3566   13.4756   20.8150 H   0  0  0  0  0  0  0  0  0  0  0  0
    7.3532   11.6802   20.9131 H   0  0  0  0  0  0  0  0  0  0  0  0
  8  1  2  0
 23  1  1  0
  1  9  1  0
  2 23  1  0
 24  3  1  0
  3  7  1  0
  3  5  2  0
 28  4  1  0
  4 24  1  0
 11  6  2  0
  6 25  1  0
  6 10  1  0
  7 25  1  0
 13 12  1  0
 12 31  1  0
 12 19  1  0
 13 22  1  0
 13 14  1  0
 14 15  1  0
 15 16  1  0
 16 17  1  0
 18 17  1  0
 20 19  1  0
 20 21  1  0
 23 26  1  0
 24 27  1  0
 26 30  1  0
 31 27  1  0
 29 28  2  0
 30 28  1  0
  2 32  1  0
  2 33  1  0
  4 34  1  0
  7 35  1  0
  9 36  1  0
 10 37  1  0
 12 38  1  0
 13 39  1  0
 14 40  1  0
 14 41  1  0
 15 42  1  0
 15 43  1  0
 16 44  1  0
 16 45  1  0
 17 46  1  0
 17 47  1  0
 18 48  1  0
 18 49  1  0
 18 50  1  0
 19 51  1  0
 19 52  1  0
 20 53  1  0
 20 54  1  0
 21 55  1  0
 22 56  1  0
 23 57  1  0
 24 58  1  0
 25 59  1  0
 25 60  1  0
 26 61  1  0
 26 62  1  0
 27 63  1  0
 27 64  1  0
 30 65  1  0
 30 66  1  0
A    1
C1
A    2
N1
A    3
C2
A    4
N2
A    5
O2
A    6
C3
A    7
N3
A    8
O11
A    9
O12
A   10
O31
A   11
O32
A   12
C40
A   13
C42
A   14
C43
A   15
C44
A   16
C45
A   17
C46
A   18
C47
A   19
C54
A   20
C55
A   21
O56
A   22
O60
A   23
CA1
A   24
CA2
A   25
CA3
A   26
CB1
A   27
CB2
A   28
CD1
A   29
OE1
A   30
CG1
A   31
SG2
M  END
