3IKD_J9Z_A_501
     RDKit          3D

 42 44  0  0  0  0  0  0  0  0999 V2000
   13.8830    6.5740    1.1670 C   0  0  0  0  0  0  0  0  0  0  0  0
   13.1320    3.4690    1.0550 N   0  0  0  0  0  0  0  0  0  0  0  0
   12.3770    4.3220    2.9500 O   0  0  0  0  0  0  0  0  0  0  0  0
   16.8030    0.7690    2.9920 P   0  0  0  0  0  0  0  0  0  0  0  0
   13.5230    7.8540    1.5840 C   0  0  0  0  0  0  0  0  0  0  0  0
   15.7760    0.7620    4.1400 O   0  0  0  0  0  0  0  0  0  0  0  0
   14.2170    8.4660    2.6260 C   0  0  0  0  0  0  0  0  0  0  0  0
   16.4140    1.9940    2.0410 O   0  0  0  0  0  0  0  0  0  0  0  0
    9.6400    5.2200    1.7580 S   0  0  0  0  0  0  0  0  0  0  0  0
   15.2620    7.7730    3.2440 C   0  0  0  0  0  0  0  0  0  0  0  0
   18.0900    1.2140    3.6150 O   0  0  0  0  0  0  0  0  0  0  0  0
   15.6210    6.4920    2.8280 C   0  0  0  0  0  0  0  0  0  0  0  0
   16.7120   -0.5000    2.2800 O   0  0  0  0  0  0  0  0  0  0  0  0
   14.9350    5.8830    1.7800 C   0  0  0  0  0  0  0  0  0  0  0  0
   15.3710    4.5520    1.2880 C   0  0  0  0  0  0  0  0  0  0  0  0
   14.4830    3.3320    1.6680 C   0  0  0  0  0  0  0  0  0  0  0  0
    8.6960    3.5290   -1.6610 C   0  0  0  0  0  0  0  0  0  0  0  0
    7.4090    4.0020   -2.0000 C   0  0  0  0  0  0  0  0  0  0  0  0
    6.7530    4.9100   -1.1780 C   0  0  0  0  0  0  0  0  0  0  0  0
    7.3830    5.3290    0.0070 C   0  0  0  0  0  0  0  0  0  0  0  0
    8.6640    4.8710    0.3740 C   0  0  0  0  0  0  0  0  0  0  0  0
    9.3310    3.9420   -0.4840 C   0  0  0  0  0  0  0  0  0  0  0  0
   10.6040    3.5670    0.0110 C   0  0  0  0  0  0  0  0  0  0  0  0
   10.8820    4.2230    1.2350 C   0  0  0  0  0  0  0  0  0  0  0  0
   12.1560    4.0420    1.7630 C   0  0  0  0  0  0  0  0  0  0  0  0
   15.1720    1.9870    1.2820 C   0  0  0  0  0  0  0  0  0  0  0  0
   13.3314    6.0986    0.3425 H   0  0  0  0  0  0  0  0  0  0  0  0
   12.9538    3.1270    0.0999 H   0  0  0  0  0  0  0  0  0  0  0  0
   12.6923    8.3805    1.0914 H   0  0  0  0  0  0  0  0  0  0  0  0
   13.9465    9.4794    2.9573 H   0  0  0  0  0  0  0  0  0  0  0  0
   15.8099    8.2463    4.0721 H   0  0  0  0  0  0  0  0  0  0  0  0
   16.4458    5.9623    3.3272 H   0  0  0  0  0  0  0  0  0  0  0  0
   15.4138    4.6019    0.1900 H   0  0  0  0  0  0  0  0  0  0  0  0
   16.3363    4.3673    1.7821 H   0  0  0  0  0  0  0  0  0  0  0  0
   14.3552    3.3155    2.7604 H   0  0  0  0  0  0  0  0  0  0  0  0
    9.2077    2.8244   -2.3331 H   0  0  0  0  0  0  0  0  0  0  0  0
    6.9226    3.6490   -2.9213 H   0  0  0  0  0  0  0  0  0  0  0  0
    5.7586    5.2941   -1.4495 H   0  0  0  0  0  0  0  0  0  0  0  0
    6.8599    6.0359    0.6678 H   0  0  0  0  0  0  0  0  0  0  0  0
   11.2848    2.8615   -0.4879 H   0  0  0  0  0  0  0  0  0  0  0  0
   15.3748    1.9481    0.2016 H   0  0  0  0  0  0  0  0  0  0  0  0
   14.5449    1.1116    1.5065 H   0  0  0  0  0  0  0  0  0  0  0  0
  1  5  2  0
  1 14  1  0
  2 16  1  0
  2 25  1  0
  3 25  2  0
  4  6  1  0
  4  8  1  0
  4 11  2  0
  4 13  1  0
  5  7  1  0
  7 10  2  0
  8 26  1  0
  9 21  1  0
  9 24  1  0
 10 12  1  0
 12 14  2  0
 14 15  1  0
 15 16  1  0
 16 26  1  0
 17 18  1  0
 17 22  2  0
 18 19  2  0
 19 20  1  0
 20 21  2  0
 21 22  1  0
 22 23  1  0
 23 24  2  0
 24 25  1  0
  1 27  1  0
  2 28  1  0
  5 29  1  0
  7 30  1  0
 10 31  1  0
 12 32  1  0
 15 33  1  0
 15 34  1  0
 16 35  1  0
 17 36  1  0
 18 37  1  0
 19 38  1  0
 20 39  1  0
 23 40  1  0
 26 41  1  0
 26 42  1  0
M  CHG  2   6  -1  13  -1
A    1
C1
A    2
N1
A    3
O1
A    4
P1
A    5
C2
A    6
O2
A    7
C3
A    8
O3
A    9
S3
A   10
C4
A   11
O4
A   12
C5
A   13
O5
A   14
C6
A   15
C7
A   16
C8
A   17
C9
A   18
C10
A   19
C11
A   20
C12
A   21
C13
A   22
C14
A   23
C15
A   24
C16
A   25
C17
A   26
C18
M  END
