3IKG_J8Z_A_1
     RDKit          3D

 45 47  0  0  0  0  0  0  0  0999 V2000
   13.4030    2.9040    1.2500 N   0  0  0  0  0  0  0  0  0  0  0  0
   14.6550    2.8290    1.9910 C   0  0  0  0  0  0  0  0  0  0  0  0
   15.3620    1.4970    1.6700 C   0  0  0  0  0  0  0  0  0  0  0  0
   16.7550    1.6470    1.9640 O   0  0  0  0  0  0  0  0  0  0  0  0
   12.2710    3.3140    1.8620 C   0  0  0  0  0  0  0  0  0  0  0  0
   12.2510    3.6510    3.0290 O   0  0  0  0  0  0  0  0  0  0  0  0
   17.1040    0.5510    3.1200 P   0  0  0  0  0  0  0  0  0  0  0  0
   17.2570   -0.7630    2.4660 O   0  0  0  0  0  0  0  0  0  0  0  0
   18.4940    0.9640    3.8200 O   0  0  0  0  0  0  0  0  0  0  0  0
   15.9330    0.5610    4.2060 O   0  0  0  0  0  0  0  0  0  0  0  0
   11.1110    3.5410    0.9990 C   0  0  0  0  0  0  0  0  0  0  0  0
   10.7530    2.9720   -0.1710 C   0  0  0  0  0  0  0  0  0  0  0  0
    9.5580    3.3770   -0.7900 C   0  0  0  0  0  0  0  0  0  0  0  0
    8.8240    4.3850   -0.1110 C   0  0  0  0  0  0  0  0  0  0  0  0
    9.8020    4.7120    1.3240 S   0  0  0  0  0  0  0  0  0  0  0  0
    9.0090    2.9030   -1.9960 C   0  0  0  0  0  0  0  0  0  0  0  0
    7.8610    3.4460   -2.4870 C   0  0  0  0  0  0  0  0  0  0  0  0
    7.1620    4.4400   -1.7990 C   0  0  0  0  0  0  0  0  0  0  0  0
    7.6600    4.9250   -0.6130 C   0  0  0  0  0  0  0  0  0  0  0  0
   15.5440    3.9520    1.3930 C   0  0  0  0  0  0  0  0  0  0  0  0
   14.0100    5.9760    1.0000 C   0  0  0  0  0  0  0  0  0  0  0  0
   15.0540    5.3630    1.7270 C   0  0  0  0  0  0  0  0  0  0  0  0
   15.6370    6.0690    2.7830 C   0  0  0  0  0  0  0  0  0  0  0  0
   15.2010    7.3600    3.1050 C   0  0  0  0  0  0  0  0  0  0  0  0
   14.1720    7.9740    2.3710 C   0  0  0  0  0  0  0  0  0  0  0  0
   13.5650    7.2670    1.3290 C   0  0  0  0  0  0  0  0  0  0  0  0
   15.8910    8.1440    4.2250 C   0  0  0  0  0  0  0  0  0  0  0  0
   13.3810    2.6429    0.2539 H   0  0  0  0  0  0  0  0  0  0  0  0
   14.4860    2.9164    3.0744 H   0  0  0  0  0  0  0  0  0  0  0  0
   14.9361    0.6915    2.2863 H   0  0  0  0  0  0  0  0  0  0  0  0
   15.2234    1.2395    0.6096 H   0  0  0  0  0  0  0  0  0  0  0  0
   11.3876    2.2019   -0.6338 H   0  0  0  0  0  0  0  0  0  0  0  0
    9.5092    2.0909   -2.5440 H   0  0  0  0  0  0  0  0  0  0  0  0
    7.4730    3.0915   -3.4533 H   0  0  0  0  0  0  0  0  0  0  0  0
    6.2177    4.8329   -2.2040 H   0  0  0  0  0  0  0  0  0  0  0  0
    7.1385    5.7299   -0.0743 H   0  0  0  0  0  0  0  0  0  0  0  0
   16.5642    3.8354    1.7875 H   0  0  0  0  0  0  0  0  0  0  0  0
   15.5047    3.8469    0.2987 H   0  0  0  0  0  0  0  0  0  0  0  0
   13.5393    5.4356    0.1655 H   0  0  0  0  0  0  0  0  0  0  0  0
   16.4462    5.6059    3.3668 H   0  0  0  0  0  0  0  0  0  0  0  0
   13.8485    8.9971    2.6131 H   0  0  0  0  0  0  0  0  0  0  0  0
   12.7373    7.7225    0.7656 H   0  0  0  0  0  0  0  0  0  0  0  0
   15.5551    7.7623    5.2004 H   0  0  0  0  0  0  0  0  0  0  0  0
   16.9810    8.0230    4.1395 H   0  0  0  0  0  0  0  0  0  0  0  0
   15.6326    9.2098    4.1395 H   0  0  0  0  0  0  0  0  0  0  0  0
  1  2  1  0
  1  5  1  0
  2  3  1  0
  2 20  1  0
  3  4  1  0
  4  7  1  0
  5  6  2  0
  5 11  1  0
  7  8  2  0
  7  9  1  0
  7 10  1  0
 11 12  2  0
 11 15  1  0
 12 13  1  0
 13 14  2  0
 13 16  1  0
 14 15  1  0
 14 19  1  0
 16 17  2  0
 17 18  1  0
 18 19  2  0
 20 22  1  0
 21 22  2  0
 21 26  1  0
 22 23  1  0
 23 24  2  0
 24 25  1  0
 24 27  1  0
 25 26  2  0
  1 28  1  0
  2 29  1  0
  3 30  1  0
  3 31  1  0
 12 32  1  0
 16 33  1  0
 17 34  1  0
 18 35  1  0
 19 36  1  0
 20 37  1  0
 20 38  1  0
 21 39  1  0
 23 40  1  0
 25 41  1  0
 26 42  1  0
 27 43  1  0
 27 44  1  0
 27 45  1  0
M  CHG  2   9  -1  10  -1
A    1
N1
A    2
C2
A    3
C3
A    4
O4
A    5
C5
A    6
O6
A    7
P7
A    8
O8
A    9
O9
A   10
O10
A   11
C11
A   12
C12
A   13
C13
A   14
C14
A   15
S15
A   16
C16
A   17
C17
A   18
C18
A   19
C19
A   20
C20
A   21
C21
A   22
C22
A   23
C23
A   24
C24
A   25
C25
A   26
C26
A   27
C27
M  END
