3IL6_B83_A_401
     RDKit          3D

 61 64  0  0  0  0  0  0  0  0999 V2000
 -139.8340  138.9180   93.6360 C   0  0  0  0  0  0  0  0  0  0  0  0
 -139.2360  138.5250   92.3670 C   0  0  0  0  0  0  0  0  0  0  0  0
 -139.0470  139.5350   91.3580 C   0  0  0  0  0  0  0  0  0  0  0  0
 -139.4350  140.8810   91.5770 C   0  0  0  0  0  0  0  0  0  0  0  0
 -140.0190  141.2590   92.8070 C   0  0  0  0  0  0  0  0  0  0  0  0
 -140.2150  140.2930   93.8290 C   0  0  0  0  0  0  0  0  0  0  0  0
 -140.1090  138.0050   94.8170 C   0  0  0  0  0  0  0  0  0  0  0  0
 -139.7580  136.7100   94.6420 O   0  0  0  0  0  0  0  0  0  0  0  0
 -140.6030  138.3570   95.8710 O   0  0  0  0  0  0  0  0  0  0  0  0
 -138.8720  137.1640   92.1570 N   0  0  0  0  0  0  0  0  0  0  0  0
 -138.2790  136.5190   91.0890 C   0  0  0  0  0  0  0  0  0  0  0  0
 -137.8850  137.0300   90.0320 O   0  0  0  0  0  0  0  0  0  0  0  0
 -138.1730  135.0370   91.2590 C   0  0  0  0  0  0  0  0  0  0  0  0
 -137.9430  134.3930   92.5080 C   0  0  0  0  0  0  0  0  0  0  0  0
 -137.8890  132.9630   92.5740 C   0  0  0  0  0  0  0  0  0  0  0  0
 -138.0640  132.1340   91.3940 C   0  0  0  0  0  0  0  0  0  0  0  0
 -138.2890  132.8290   90.1410 C   0  0  0  0  0  0  0  0  0  0  0  0
 -138.3440  134.2520   90.0900 C   0  0  0  0  0  0  0  0  0  0  0  0
 -138.4590  132.0650   88.9760 O   0  0  0  0  0  0  0  0  0  0  0  0
 -137.5740  132.1680   87.8810 C   0  0  0  0  0  0  0  0  0  0  0  0
 -136.2580  132.7620   87.9190 C   0  0  0  0  0  0  0  0  0  0  0  0
 -135.4610  132.8060   86.7430 C   0  0  0  0  0  0  0  0  0  0  0  0
 -135.9570  132.2620   85.5270 C   0  0  0  0  0  0  0  0  0  0  0  0
 -137.2510  131.6730   85.4830 C   0  0  0  0  0  0  0  0  0  0  0  0
 -138.0560  131.6270   86.6560 C   0  0  0  0  0  0  0  0  0  0  0  0
 -138.0260  130.7120   91.4340 N   0  0  0  0  0  0  0  0  0  0  0  0
 -136.7660  130.0950   90.9160 C   0  0  0  0  0  0  0  0  0  0  0  0
 -136.9910  128.5800   90.6790 C   0  0  0  0  0  0  0  0  0  0  0  0
 -137.4040  127.9070   92.0110 C   0  0  0  0  0  0  0  0  0  0  0  0
 -138.6800  128.5700   92.5680 C   0  0  0  0  0  0  0  0  0  0  0  0
 -138.4350  130.0920   92.7570 C   0  0  0  0  0  0  0  0  0  0  0  0
 -139.0860  127.9230   93.8940 C   0  0  0  0  0  0  0  0  0  0  0  0
 -135.7200  127.9360   90.1380 C   0  0  0  0  0  0  0  0  0  0  0  0
 -138.5916  139.2561   90.3963 H   0  0  0  0  0  0  0  0  0  0  0  0
 -139.2812  141.6322   90.7883 H   0  0  0  0  0  0  0  0  0  0  0  0
 -140.3222  142.3033   92.9730 H   0  0  0  0  0  0  0  0  0  0  0  0
 -140.6655  140.6003   94.7843 H   0  0  0  0  0  0  0  0  0  0  0  0
 -140.1989  138.0691   96.7277 H   0  0  0  0  0  0  0  0  0  0  0  0
 -139.0922  136.5447   92.9501 H   0  0  0  0  0  0  0  0  0  0  0  0
 -137.8071  134.9923   93.4203 H   0  0  0  0  0  0  0  0  0  0  0  0
 -137.7100  132.4791   93.5455 H   0  0  0  0  0  0  0  0  0  0  0  0
 -138.5224  134.7510   89.1261 H   0  0  0  0  0  0  0  0  0  0  0  0
 -135.8718  133.1811   88.8599 H   0  0  0  0  0  0  0  0  0  0  0  0
 -134.4601  133.2612   86.7739 H   0  0  0  0  0  0  0  0  0  0  0  0
 -135.3387  132.2966   84.6179 H   0  0  0  0  0  0  0  0  0  0  0  0
 -137.6305  131.2521   84.5402 H   0  0  0  0  0  0  0  0  0  0  0  0
 -139.0561  131.1708   86.6155 H   0  0  0  0  0  0  0  0  0  0  0  0
 -136.4850  130.5765   89.9678 H   0  0  0  0  0  0  0  0  0  0  0  0
 -135.9603  130.2350   91.6517 H   0  0  0  0  0  0  0  0  0  0  0  0
 -137.7928  128.4446   89.9382 H   0  0  0  0  0  0  0  0  0  0  0  0
 -137.5970  126.8386   91.8340 H   0  0  0  0  0  0  0  0  0  0  0  0
 -136.5896  128.0250   92.7410 H   0  0  0  0  0  0  0  0  0  0  0  0
 -139.5022  128.4247   91.8519 H   0  0  0  0  0  0  0  0  0  0  0  0
 -137.6341  130.2446   93.4955 H   0  0  0  0  0  0  0  0  0  0  0  0
 -139.3605  130.5687   93.1122 H   0  0  0  0  0  0  0  0  0  0  0  0
 -138.7056  128.5292   94.7294 H   0  0  0  0  0  0  0  0  0  0  0  0
 -140.1829  127.8648   93.9529 H   0  0  0  0  0  0  0  0  0  0  0  0
 -138.6613  126.9100   93.9529 H   0  0  0  0  0  0  0  0  0  0  0  0
 -135.0858  127.6147   90.9774 H   0  0  0  0  0  0  0  0  0  0  0  0
 -135.9844  127.0631   89.5231 H   0  0  0  0  0  0  0  0  0  0  0  0
 -135.1725  128.6654   89.5231 H   0  0  0  0  0  0  0  0  0  0  0  0
  2  1  2  0
  1  6  1  0
  1  7  1  0
  3  2  1  0
 10  2  1  0
  3  4  2  0
  4  5  1  0
  5  6  2  0
  8  7  2  0
  7  9  1  0
 11 10  1  0
 12 11  2  0
 11 13  1  0
 18 13  1  0
 13 14  2  0
 14 15  1  0
 16 15  2  0
 17 16  1  0
 16 26  1  0
 19 17  1  0
 18 17  2  0
 20 19  1  0
 25 20  1  0
 20 21  2  0
 22 21  1  0
 23 22  2  0
 24 23  1  0
 24 25  2  0
 27 26  1  0
 26 31  1  0
 28 27  1  0
 33 28  1  0
 28 29  1  0
 29 30  1  0
 30 31  1  0
 30 32  1  0
  3 34  1  0
  4 35  1  0
  5 36  1  0
  6 37  1  0
  9 38  1  0
 10 39  1  0
 14 40  1  0
 15 41  1  0
 18 42  1  0
 21 43  1  0
 22 44  1  0
 23 45  1  0
 24 46  1  0
 25 47  1  0
 27 48  1  0
 27 49  1  0
 28 50  1  0
 29 51  1  0
 29 52  1  0
 30 53  1  0
 31 54  1  0
 31 55  1  0
 32 56  1  0
 32 57  1  0
 32 58  1  0
 33 59  1  0
 33 60  1  0
 33 61  1  0
A    1
C1
A    2
C2
A    3
C3
A    4
C4
A    5
C5
A    6
C6
A    7
C7
A    8
O8
A    9
O9
A   10
N10
A   11
C11
A   12
O12
A   13
C13
A   14
C14
A   15
C15
A   16
C16
A   17
C17
A   18
C18
A   19
O19
A   20
C20
A   21
C21
A   22
C22
A   23
C23
A   24
C24
A   25
C25
A   26
N26
A   27
C27
A   28
C28
A   29
C29
A   30
C30
A   31
C31
A   32
C32
A   33
C33
M  END
