3HZF_B72_A_1
     RDKit          3D

 48 49  0  0  0  0  0  0  0  0999 V2000
   19.4910    7.2290   12.8530 O   0  0  0  0  0  0  0  0  0  0  0  0
   18.5930    7.2860   11.9820 C   0  0  0  0  0  0  0  0  0  0  0  0
   17.3900    7.4440   12.2360 O   0  0  0  0  0  0  0  0  0  0  0  0
   18.9350    7.1540   10.5380 C   0  0  0  0  0  0  0  0  0  0  0  0
   18.9390    8.4790    9.9960 O   0  0  0  0  0  0  0  0  0  0  0  0
   19.3350    8.6540    8.7070 C   0  0  0  0  0  0  0  0  0  0  0  0
   19.7710    9.8930    8.3270 C   0  0  0  0  0  0  0  0  0  0  0  0
   20.2030   10.1200    7.0180 C   0  0  0  0  0  0  0  0  0  0  0  0
   20.6530   11.4970    6.6020 C   0  0  0  0  0  0  0  0  0  0  0  0
   20.1800    9.0110    6.0390 C   0  0  0  0  0  0  0  0  0  0  0  0
   19.6730    7.6850    6.4950 C   0  0  0  0  0  0  0  0  0  0  0  0
   19.2820    7.5830    7.8150 C   0  0  0  0  0  0  0  0  0  0  0  0
   19.6090    6.4550    5.6310 C   0  0  0  0  0  0  0  0  0  0  0  0
   20.5680    9.2900    4.5990 C   0  0  0  0  0  0  0  0  0  0  0  0
   21.9900    9.3260    4.1160 C   0  0  0  0  0  0  0  0  0  0  0  0
   22.3320   10.3690    3.2620 C   0  0  0  0  0  0  0  0  0  0  0  0
   23.6180   10.4310    2.7310 C   0  0  0  0  0  0  0  0  0  0  0  0
   24.0780   11.5780    1.8750 C   0  0  0  0  0  0  0  0  0  0  0  0
   23.2270   11.7920    0.6420 C   0  0  0  0  0  0  0  0  0  0  0  0
   24.1310   12.8410    2.7320 C   0  0  0  0  0  0  0  0  0  0  0  0
   24.5680    9.3450    3.0910 C   0  0  0  0  0  0  0  0  0  0  0  0
   25.8270    9.3650    2.6390 O   0  0  0  0  0  0  0  0  0  0  0  0
   24.1560    8.3050    3.9160 C   0  0  0  0  0  0  0  0  0  0  0  0
   22.8720    8.2920    4.4330 C   0  0  0  0  0  0  0  0  0  0  0  0
   19.2508    7.2442   13.8133 H   0  0  0  0  0  0  0  0  0  0  0  0
   19.9277    6.6941   10.4235 H   0  0  0  0  0  0  0  0  0  0  0  0
   18.2092    6.5137   10.0153 H   0  0  0  0  0  0  0  0  0  0  0  0
   19.7817   10.7162    9.0566 H   0  0  0  0  0  0  0  0  0  0  0  0
   20.8514   12.1041    7.4976 H   0  0  0  0  0  0  0  0  0  0  0  0
   21.5717   11.4170    6.0024 H   0  0  0  0  0  0  0  0  0  0  0  0
   19.8643   11.9749    6.0024 H   0  0  0  0  0  0  0  0  0  0  0  0
   18.9120    6.6135    8.1798 H   0  0  0  0  0  0  0  0  0  0  0  0
   19.5625    5.5605    6.2695 H   0  0  0  0  0  0  0  0  0  0  0  0
   18.7119    6.4993    4.9959 H   0  0  0  0  0  0  0  0  0  0  0  0
   20.5058    6.4059    4.9959 H   0  0  0  0  0  0  0  0  0  0  0  0
   20.0655    8.5184    3.9973 H   0  0  0  0  0  0  0  0  0  0  0  0
   20.2808   10.3472    4.5001 H   0  0  0  0  0  0  0  0  0  0  0  0
   21.5908   11.1408    3.0073 H   0  0  0  0  0  0  0  0  0  0  0  0
   25.0804   11.3310    1.4952 H   0  0  0  0  0  0  0  0  0  0  0  0
   22.2014   12.0499    0.9446 H   0  0  0  0  0  0  0  0  0  0  0  0
   23.6496   12.6118    0.0426 H   0  0  0  0  0  0  0  0  0  0  0  0
   23.2115   10.8698    0.0426 H   0  0  0  0  0  0  0  0  0  0  0  0
   24.1193   12.5628    3.7962 H   0  0  0  0  0  0  0  0  0  0  0  0
   25.0533   13.3973    2.5085 H   0  0  0  0  0  0  0  0  0  0  0  0
   23.2586   13.4726    2.5085 H   0  0  0  0  0  0  0  0  0  0  0  0
   26.5825    9.3770    3.2787 H   0  0  0  0  0  0  0  0  0  0  0  0
   24.8528    7.4893    4.1590 H   0  0  0  0  0  0  0  0  0  0  0  0
   22.5487    7.4712    5.0901 H   0  0  0  0  0  0  0  0  0  0  0  0
  2  3  2  0
  2  1  1  0
  4  2  1  0
  5  4  1  0
  6  5  1  0
  7  6  2  0
  8  7  1  0
  9  8  1  0
 10 11  1  0
 10  8  2  0
 11 12  2  0
 12  6  1  0
 13 11  1  0
 14 10  1  0
 15 24  1  0
 15 14  1  0
 16 15  2  0
 17 21  2  0
 17 16  1  0
 18 17  1  0
 18 20  1  0
 19 18  1  0
 21 23  1  0
 22 21  1  0
 23 24  2  0
  1 25  1  0
  4 26  1  0
  4 27  1  0
  7 28  1  0
  9 29  1  0
  9 30  1  0
  9 31  1  0
 12 32  1  0
 13 33  1  0
 13 34  1  0
 13 35  1  0
 14 36  1  0
 14 37  1  0
 16 38  1  0
 18 39  1  0
 19 40  1  0
 19 41  1  0
 19 42  1  0
 20 43  1  0
 20 44  1  0
 20 45  1  0
 22 46  1  0
 23 47  1  0
 24 48  1  0
A    1
O1
A    2
C20
A    3
O2
A    4
C19
A    5
O3
A    6
C1
A    7
C2
A    8
C3
A    9
C17
A   10
C4
A   11
C5
A   12
C6
A   13
C18
A   14
C7
A   15
C8
A   16
C13
A   17
C12
A   18
C14
A   19
C16
A   20
C15
A   21
C11
A   22
O4
A   23
C10
A   24
C9
M  END
