3IMD_FYQ_A_1
     RDKit          3D

 69 69  0  0  0  0  0  0  0  0999 V2000
   -0.6390  -12.5960  -16.0750 C   0  0  0  0  0  0  0  0  0  0  0  0
   -0.9550  -12.0660  -17.3190 C   0  0  0  0  0  0  0  0  0  0  0  0
   -0.5880  -10.7670  -17.6520 C   0  0  0  0  0  0  0  0  0  0  0  0
    0.0910   -9.9950  -16.7150 C   0  0  0  0  0  0  0  0  0  0  0  0
    0.4100  -10.5230  -15.4680 C   0  0  0  0  0  0  0  0  0  0  0  0
    0.0540  -11.8280  -15.1460 C   0  0  0  0  0  0  0  0  0  0  0  0
   -0.8700  -10.3320  -18.9100 O   0  0  0  0  0  0  0  0  0  0  0  0
   -0.4570   -8.8110  -19.2420 P   0  0  0  0  0  0  0  0  0  0  0  0
   -1.3400   -7.7990  -18.6230 O   0  0  0  0  0  0  0  0  0  0  0  0
   -0.4990   -8.7170  -20.8470 O   0  0  0  0  0  0  0  0  0  0  0  0
    1.0860   -8.6150  -18.8390 O   0  0  0  0  0  0  0  0  0  0  0  0
    0.5060  -12.4790  -13.8360 C   0  0  0  0  0  0  0  0  0  0  0  0
    1.9630  -12.9340  -13.9570 C   0  0  0  0  0  0  0  0  0  0  0  0
    2.4020  -13.7400  -12.7310 C   0  0  0  0  0  0  0  0  0  0  0  0
    2.1420  -14.9380  -12.6290 O   0  0  0  0  0  0  0  0  0  0  0  0
    2.1210  -13.8000  -15.2090 C   0  0  0  0  0  0  0  0  0  0  0  0
    3.5980  -13.9280  -15.5870 C   0  0  0  0  0  0  0  0  0  0  0  0
    4.0570  -15.1770  -15.6520 N   0  0  0  0  0  0  0  0  0  0  0  0
    5.4580  -15.3520  -16.0610 C   0  0  0  0  0  0  0  0  0  0  0  0
    4.2760  -12.9300  -15.8150 O   0  0  0  0  0  0  0  0  0  0  0  0
    3.0750  -13.0570  -11.8090 N   0  0  0  0  0  0  0  0  0  0  0  0
    3.5890  -13.6990  -10.5890 C   0  0  0  0  0  0  0  0  0  0  0  0
    2.4720  -14.2730   -9.7130 C   0  0  0  0  0  0  0  0  0  0  0  0
    2.6690  -15.2850   -9.0410 O   0  0  0  0  0  0  0  0  0  0  0  0
    4.4140  -12.6970   -9.7790 C   0  0  0  0  0  0  0  0  0  0  0  0
    5.6030  -12.1730  -10.5870 C   0  0  0  0  0  0  0  0  0  0  0  0
    6.5560  -13.3020  -10.9850 C   0  0  0  0  0  0  0  0  0  0  0  0
    6.9280  -13.4320  -12.1510 O   0  0  0  0  0  0  0  0  0  0  0  0
    6.9400  -14.0960   -9.9890 N   0  0  0  0  0  0  0  0  0  0  0  0
    1.3140  -13.6200   -9.7280 N   0  0  0  0  0  0  0  0  0  0  0  0
    0.1800  -14.0800   -8.9100 C   0  0  0  0  0  0  0  0  0  0  0  0
   -0.8290  -14.8680   -9.7480 C   0  0  0  0  0  0  0  0  0  0  0  0
   -1.9870  -15.0220   -9.3630 O   0  0  0  0  0  0  0  0  0  0  0  0
   -0.5000  -12.8900   -8.2280 C   0  0  0  0  0  0  0  0  0  0  0  0
   -1.0030  -11.8590   -9.2410 C   0  0  0  0  0  0  0  0  0  0  0  0
   -0.4760  -11.7430  -10.3450 O   0  0  0  0  0  0  0  0  0  0  0  0
   -2.0240  -11.1150   -8.8230 N   0  0  0  0  0  0  0  0  0  0  0  0
   -0.3520  -15.3790  -10.8800 N   0  0  0  0  0  0  0  0  0  0  0  0
   -0.9373  -13.6247  -15.8243 H   0  0  0  0  0  0  0  0  0  0  0  0
   -1.5018  -12.6808  -18.0491 H   0  0  0  0  0  0  0  0  0  0  0  0
    0.3772   -8.9618  -16.9612 H   0  0  0  0  0  0  0  0  0  0  0  0
    0.9466   -9.9050  -14.7331 H   0  0  0  0  0  0  0  0  0  0  0  0
   -1.2802   -7.8676  -17.6372 H   0  0  0  0  0  0  0  0  0  0  0  0
    1.1707   -8.6042  -17.8527 H   0  0  0  0  0  0  0  0  0  0  0  0
    0.4182  -11.7500  -13.0169 H   0  0  0  0  0  0  0  0  0  0  0  0
   -0.1301  -13.3516  -13.6263 H   0  0  0  0  0  0  0  0  0  0  0  0
    2.5965  -12.0374  -14.0264 H   0  0  0  0  0  0  0  0  0  0  0  0
    1.7095  -14.8008  -15.0116 H   0  0  0  0  0  0  0  0  0  0  0  0
    1.5799  -13.3258  -16.0411 H   0  0  0  0  0  0  0  0  0  0  0  0
    3.4574  -15.9834  -15.4259 H   0  0  0  0  0  0  0  0  0  0  0  0
    6.0938  -15.4314  -15.1669 H   0  0  0  0  0  0  0  0  0  0  0  0
    5.5530  -16.2690  -16.6611 H   0  0  0  0  0  0  0  0  0  0  0  0
    5.7756  -14.4866  -16.6611 H   0  0  0  0  0  0  0  0  0  0  0  0
    3.2409  -12.0507  -11.9532 H   0  0  0  0  0  0  0  0  0  0  0  0
    4.2223  -14.5397  -10.9086 H   0  0  0  0  0  0  0  0  0  0  0  0
    3.7718  -11.8498   -9.4963 H   0  0  0  0  0  0  0  0  0  0  0  0
    4.8004  -13.2082   -8.8849 H   0  0  0  0  0  0  0  0  0  0  0  0
    5.2276  -11.6849  -11.4985 H   0  0  0  0  0  0  0  0  0  0  0  0
    6.1578  -11.4602   -9.9592 H   0  0  0  0  0  0  0  0  0  0  0  0
    6.7979  -13.8022   -9.0121 H   0  0  0  0  0  0  0  0  0  0  0  0
    7.3794  -15.0046  -10.1948 H   0  0  0  0  0  0  0  0  0  0  0  0
    1.2092  -12.7827  -10.3187 H   0  0  0  0  0  0  0  0  0  0  0  0
    0.5720  -14.7563   -8.1360 H   0  0  0  0  0  0  0  0  0  0  0  0
   -1.3548  -13.2578   -7.6414 H   0  0  0  0  0  0  0  0  0  0  0  0
    0.2430  -12.3980   -7.5831 H   0  0  0  0  0  0  0  0  0  0  0  0
   -2.1927  -10.9921   -7.8144 H   0  0  0  0  0  0  0  0  0  0  0  0
   -2.6456  -10.6620   -9.5081 H   0  0  0  0  0  0  0  0  0  0  0  0
    0.3505  -16.1316  -10.8495 H   0  0  0  0  0  0  0  0  0  0  0  0
   -0.6852  -15.0220  -11.7869 H   0  0  0  0  0  0  0  0  0  0  0  0
  1  2  2  0
  1  6  1  0
  2  3  1  0
  3  4  2  0
  3  7  1  0
  4  5  1  0
  5  6  2  0
  6 12  1  0
  7  8  1  0
  8  9  1  0
  8 10  2  0
  8 11  1  0
 12 13  1  0
 13 14  1  0
 13 16  1  0
 14 15  2  0
 14 21  1  0
 16 17  1  0
 17 18  1  0
 17 20  2  0
 18 19  1  0
 21 22  1  0
 22 23  1  0
 22 25  1  0
 23 24  2  0
 23 30  1  0
 25 26  1  0
 26 27  1  0
 27 28  2  0
 27 29  1  0
 30 31  1  0
 31 32  1  0
 31 34  1  0
 32 33  2  0
 32 38  1  0
 34 35  1  0
 35 36  2  0
 35 37  1  0
  1 39  1  0
  2 40  1  0
  4 41  1  0
  5 42  1  0
  9 43  1  0
 11 44  1  0
 12 45  1  0
 12 46  1  0
 13 47  1  0
 16 48  1  0
 16 49  1  0
 18 50  1  0
 19 51  1  0
 19 52  1  0
 19 53  1  0
 21 54  1  0
 22 55  1  0
 25 56  1  0
 25 57  1  0
 26 58  1  0
 26 59  1  0
 29 60  1  0
 29 61  1  0
 30 62  1  0
 31 63  1  0
 34 64  1  0
 34 65  1  0
 37 66  1  0
 37 67  1  0
 38 68  1  0
 38 69  1  0
A    1
CAN
A    2
CAP
A    3
CBH
A    4
CAQ
A    5
CAO
A    6
CBG
A    7
OAZ
A    8
PBL
A    9
OAK
A   10
OAM
A   11
OAL
A   12
CAV
A   13
CBI
A   14
CBE
A   15
OAI
A   16
CAU
A   17
CBD
A   18
NAW
A   19
CAA
A   20
OAH
A   21
NAX
A   22
CBK
A   23
CBF
A   24
OAJ
A   25
CAS
A   26
CAR
A   27
CBA
A   28
OAE
A   29
NAB
A   30
N
A   31
CA
A   32
C
A   33
O
A   34
CB
A   35
CG
A   36
OD1
A   37
ND2
A   38
NAD
M  END
