3IMS_IW2_A_128
     RDKit          3D

 29 30  0  0  0  0  0  0  0  0999 V2000
   -0.0920    0.0010   -1.0570 O   0  0  0  0  0  0  0  0  0  0  0  0
   -0.6470    2.5620   -8.9600 Cl  0  0  0  0  0  0  0  0  0  0  0  0
    0.1110   -2.8010   -8.8300 Cl  0  0  0  0  0  0  0  0  0  0  0  0
    2.1210   -2.0020   -1.9360 Br  0  0  0  0  0  0  0  0  0  0  0  0
   -1.9120    1.9590   -2.4980 Br  0  0  0  0  0  0  0  0  0  0  0  0
    0.3100   -0.0840  -11.7470 C   0  0  0  0  0  0  0  0  0  0  0  0
   -0.0050    1.0720  -11.0500 C   0  0  0  0  0  0  0  0  0  0  0  0
    0.3600   -1.2930  -11.0620 C   0  0  0  0  0  0  0  0  0  0  0  0
    1.2310   -0.8840   -4.3550 C   0  0  0  0  0  0  0  0  0  0  0  0
   -0.4680    0.7740   -4.5850 C   0  0  0  0  0  0  0  0  0  0  0  0
    0.7170   -0.0530   -6.6640 C   0  0  0  0  0  0  0  0  0  0  0  0
   -0.5740   -0.1810   -7.4840 C   0  0  0  0  0  0  0  0  0  0  0  0
   -0.2790    1.0400   -9.7020 C   0  0  0  0  0  0  0  0  0  0  0  0
    0.0740   -1.3020   -9.6990 C   0  0  0  0  0  0  0  0  0  0  0  0
    0.1030   -0.0220   -2.3980 C   0  0  0  0  0  0  0  0  0  0  0  0
    1.0400   -0.8620   -2.9820 C   0  0  0  0  0  0  0  0  0  0  0  0
   -0.6370    0.8090   -3.2160 C   0  0  0  0  0  0  0  0  0  0  0  0
    0.4870   -0.0510   -5.1570 C   0  0  0  0  0  0  0  0  0  0  0  0
   -0.2530   -0.1540   -8.9850 C   0  0  0  0  0  0  0  0  0  0  0  0
    0.6793   -0.0900   -0.4430 H   0  0  0  0  0  0  0  0  0  0  0  0
    0.5175   -0.0455  -12.8266 H   0  0  0  0  0  0  0  0  0  0  0  0
   -0.0365    2.0329  -11.5845 H   0  0  0  0  0  0  0  0  0  0  0  0
    0.6204   -2.2242  -11.5864 H   0  0  0  0  0  0  0  0  0  0  0  0
    1.9729   -1.5634   -4.7999 H   0  0  0  0  0  0  0  0  0  0  0  0
   -1.0972    1.4068   -5.2281 H   0  0  0  0  0  0  0  0  0  0  0  0
    1.2126    0.8891   -6.9411 H   0  0  0  0  0  0  0  0  0  0  0  0
    1.3334   -0.9345   -6.8944 H   0  0  0  0  0  0  0  0  0  0  0  0
   -1.0698   -1.1310   -7.2354 H   0  0  0  0  0  0  0  0  0  0  0  0
   -1.2374    0.6628   -7.2434 H   0  0  0  0  0  0  0  0  0  0  0  0
  1 15  1  0
  2 13  1  0
  3 14  1  0
  4 16  1  0
  5 17  1  0
  8  6  2  0
  7  6  1  0
 13  7  2  0
 14  8  1  0
 16  9  2  0
  9 18  1  0
 17 10  1  0
 10 18  2  0
 18 11  1  0
 11 12  1  0
 12 19  1  0
 19 13  1  0
 19 14  2  0
 15 17  2  0
 15 16  1  0
  1 20  1  0
  6 21  1  0
  7 22  1  0
  8 23  1  0
  9 24  1  0
 10 25  1  0
 11 26  1  0
 11 27  1  0
 12 28  1  0
 12 29  1  0
A    1
OAA
A    2
CLAB
A    3
CLAC
A    4
BRAD
A    5
BRAE
A    6
CAF
A    7
CAG
A    8
CAH
A    9
CAI
A   10
CAJ
A   11
CAK
A   12
CAL
A   13
CAM
A   14
CAN
A   15
CAO
A   16
CAP
A   17
CAQ
A   18
CAR
A   19
CAS
M  END
