3IMW_IW6_A_128
     RDKit          3D

 36 37  0  0  0  0  0  0  0  0999 V2000
    2.6460   -2.4260   -2.5040 C   0  0  0  0  0  0  0  0  0  0  0  0
   -2.5500    2.2940   -3.0300 C   0  0  0  0  0  0  0  0  0  0  0  0
   -0.0160   -0.1060  -11.4260 N   0  0  0  0  0  0  0  0  0  0  0  0
    0.4850   -2.7630   -9.9570 Br  0  0  0  0  0  0  0  0  0  0  0  0
   -0.5900    2.7940  -10.5500 Br  0  0  0  0  0  0  0  0  0  0  0  0
   -0.2300    0.5740   -5.8880 C   0  0  0  0  0  0  0  0  0  0  0  0
    0.1540   -0.3780   -4.9510 C   0  0  0  0  0  0  0  0  0  0  0  0
    0.0560    0.0620   -0.8170 C   0  0  0  0  0  0  0  0  0  0  0  0
    0.9190   -0.8420   -1.3900 C   0  0  0  0  0  0  0  0  0  0  0  0
   -0.8210    0.8490   -1.5840 C   0  0  0  0  0  0  0  0  0  0  0  0
    0.0970   -0.8670   -7.8200 C   0  0  0  0  0  0  0  0  0  0  0  0
   -0.3530    1.4560   -8.1110 C   0  0  0  0  0  0  0  0  0  0  0  0
    1.7130   -1.7940   -3.4240 O   0  0  0  0  0  0  0  0  0  0  0  0
   -1.6350    1.4840   -3.7490 O   0  0  0  0  0  0  0  0  0  0  0  0
   -0.1550    0.3710   -7.2680 C   0  0  0  0  0  0  0  0  0  0  0  0
   -0.0510    0.0370  -10.0650 C   0  0  0  0  0  0  0  0  0  0  0  0
    0.1550   -1.0430   -9.1930 C   0  0  0  0  0  0  0  0  0  0  0  0
   -0.3010    1.2610   -9.4650 C   0  0  0  0  0  0  0  0  0  0  0  0
    0.0380   -0.1730   -3.5560 C   0  0  0  0  0  0  0  0  0  0  0  0
    0.8940   -0.9460   -2.7820 C   0  0  0  0  0  0  0  0  0  0  0  0
   -0.8190    0.7300   -2.9690 C   0  0  0  0  0  0  0  0  0  0  0  0
    2.3381   -2.2175   -1.4688 H   0  0  0  0  0  0  0  0  0  0  0  0
    2.6490   -3.5128   -2.6738 H   0  0  0  0  0  0  0  0  0  0  0  0
    3.6564   -2.0256   -2.6738 H   0  0  0  0  0  0  0  0  0  0  0  0
   -2.3928    2.1549   -1.9502 H   0  0  0  0  0  0  0  0  0  0  0  0
   -2.3882    3.3503   -3.2910 H   0  0  0  0  0  0  0  0  0  0  0  0
   -3.5788    2.0053   -3.2910 H   0  0  0  0  0  0  0  0  0  0  0  0
    0.2080   -1.0212  -11.8421 H   0  0  0  0  0  0  0  0  0  0  0  0
   -0.2137    0.7016  -12.0339 H   0  0  0  0  0  0  0  0  0  0  0  0
   -0.6133    1.5385   -5.5235 H   0  0  0  0  0  0  0  0  0  0  0  0
    0.5662   -1.3327   -5.3098 H   0  0  0  0  0  0  0  0  0  0  0  0
    0.0515    0.1732    0.2774 H   0  0  0  0  0  0  0  0  0  0  0  0
    1.5981   -1.4553   -0.7796 H   0  0  0  0  0  0  0  0  0  0  0  0
   -1.5051    1.5552   -1.0907 H   0  0  0  0  0  0  0  0  0  0  0  0
    0.2550   -1.7311   -7.1579 H   0  0  0  0  0  0  0  0  0  0  0  0
   -0.5486    2.4564   -7.6976 H   0  0  0  0  0  0  0  0  0  0  0  0
  1 13  1  0
  2 14  1  0
 16  3  1  0
 17  4  1  0
 18  5  1  0
  7  6  2  0
  6 15  1  0
 19  7  1  0
  8  9  2  0
  8 10  1  0
  9 20  1  0
 10 21  2  0
 15 11  2  0
 11 17  1  0
 15 12  1  0
 12 18  2  0
 20 13  1  0
 21 14  1  0
 17 16  2  0
 18 16  1  0
 20 19  2  0
 21 19  1  0
  1 22  1  0
  1 23  1  0
  1 24  1  0
  2 25  1  0
  2 26  1  0
  2 27  1  0
  3 28  1  0
  3 29  1  0
  6 30  1  0
  7 31  1  0
  8 32  1  0
  9 33  1  0
 10 34  1  0
 11 35  1  0
 12 36  1  0
A    1
CAA
A    2
CAB
A    3
NAC
A    4
BRAD
A    5
BRAE
A    6
CAF
A    7
CAG
A    8
CAH
A    9
CAI
A   10
CAJ
A   11
CAK
A   12
CAL
A   13
OAM
A   14
OAN
A   15
CAO
A   16
CAP
A   17
CAQ
A   18
CAR
A   19
CAS
A   20
CAT
A   21
CAU
M  END
