3IN3_472_A_1
     RDKit          3D

 43 46  0  0  0  0  0  0  0  0999 V2000
   15.9720   -4.3250   17.6750 C   0  0  0  0  0  0  0  0  0  0  0  0
   15.4020   -5.4950   17.0420 N   0  0  0  0  0  0  0  0  0  0  0  0
   14.3440   -6.3440   18.8890 O   0  0  0  0  0  0  0  0  0  0  0  0
   14.6420   -6.4050   17.7050 C   0  0  0  0  0  0  0  0  0  0  0  0
   14.9100   -6.9790   15.4300 N   0  0  0  0  0  0  0  0  0  0  0  0
   14.2190   -7.4830   16.6710 C   0  0  0  0  0  0  0  0  0  0  0  0
   16.3240   -5.2430   14.8800 N   0  0  0  0  0  0  0  0  0  0  0  0
   15.5100   -5.8790   15.7540 C   0  0  0  0  0  0  0  0  0  0  0  0
   15.7070  -11.5170   17.4180 N   0  0  0  0  0  0  0  0  0  0  0  0
   14.7430   -8.8990   16.9680 C   0  0  0  0  0  0  0  0  0  0  0  0
    9.9800   -3.0480   13.9520 N   0  0  0  0  0  0  0  0  0  0  0  0
   15.0120   -9.7760   15.9020 C   0  0  0  0  0  0  0  0  0  0  0  0
   15.4850  -11.0510   16.1700 C   0  0  0  0  0  0  0  0  0  0  0  0
   15.4480  -10.6700   18.4340 C   0  0  0  0  0  0  0  0  0  0  0  0
   14.9720   -9.3730   18.2660 C   0  0  0  0  0  0  0  0  0  0  0  0
   12.6790   -7.4410   16.5630 C   0  0  0  0  0  0  0  0  0  0  0  0
   11.8600   -8.5390   16.8830 C   0  0  0  0  0  0  0  0  0  0  0  0
   10.4710   -8.4450   16.7690 C   0  0  0  0  0  0  0  0  0  0  0  0
    9.8690   -7.2600   16.3370 C   0  0  0  0  0  0  0  0  0  0  0  0
   10.6530   -6.1450   16.0100 C   0  0  0  0  0  0  0  0  0  0  0  0
   12.0480   -6.2610   16.1320 C   0  0  0  0  0  0  0  0  0  0  0  0
   10.0610   -4.8760   15.5630 C   0  0  0  0  0  0  0  0  0  0  0  0
    9.0300   -4.2530   16.2820 C   0  0  0  0  0  0  0  0  0  0  0  0
    8.4830   -3.0490   15.8410 C   0  0  0  0  0  0  0  0  0  0  0  0
    8.9860   -2.4860   14.6790 C   0  0  0  0  0  0  0  0  0  0  0  0
   10.4910   -4.2210   14.4100 C   0  0  0  0  0  0  0  0  0  0  0  0
   15.9177   -4.4364   18.7680 H   0  0  0  0  0  0  0  0  0  0  0  0
   17.0232   -4.2180   17.3691 H   0  0  0  0  0  0  0  0  0  0  0  0
   15.4083   -3.4313   17.3691 H   0  0  0  0  0  0  0  0  0  0  0  0
   17.0878   -4.6462   15.2283 H   0  0  0  0  0  0  0  0  0  0  0  0
   16.1798   -5.3557   13.8664 H   0  0  0  0  0  0  0  0  0  0  0  0
   14.8483   -9.4526   14.8635 H   0  0  0  0  0  0  0  0  0  0  0  0
   15.6906  -11.7191   15.3207 H   0  0  0  0  0  0  0  0  0  0  0  0
   15.6238  -11.0260   19.4598 H   0  0  0  0  0  0  0  0  0  0  0  0
   14.7789   -8.7309   19.1380 H   0  0  0  0  0  0  0  0  0  0  0  0
   12.3170   -9.4791   17.2257 H   0  0  0  0  0  0  0  0  0  0  0  0
    9.8443   -9.3129   17.0219 H   0  0  0  0  0  0  0  0  0  0  0  0
    8.7737   -7.2020   16.2531 H   0  0  0  0  0  0  0  0  0  0  0  0
   12.6729   -5.3916   15.8796 H   0  0  0  0  0  0  0  0  0  0  0  0
    8.6495   -4.7191   17.2028 H   0  0  0  0  0  0  0  0  0  0  0  0
    7.6731   -2.5586   16.4009 H   0  0  0  0  0  0  0  0  0  0  0  0
    8.5563   -1.5354   14.3301 H   0  0  0  0  0  0  0  0  0  0  0  0
   11.3013   -4.6866   13.8298 H   0  0  0  0  0  0  0  0  0  0  0  0
  2  1  1  0
  8  2  1  0
  2  4  1  0
  4  3  2  0
  6  4  1  0
  5  8  2  0
  5  6  1  0
 16  6  1  0
  6 10  1  0
  7  8  1  0
 13  9  2  0
  9 14  1  0
 12 10  2  0
 10 15  1  0
 11 26  2  0
 11 25  1  0
 12 13  1  0
 15 14  2  0
 21 16  1  0
 16 17  2  0
 18 17  1  0
 19 18  2  0
 20 19  1  0
 22 20  1  0
 20 21  2  0
 26 22  1  0
 22 23  2  0
 24 23  1  0
 25 24  2  0
  1 27  1  0
  1 28  1  0
  1 29  1  0
  7 30  1  0
  7 31  1  0
 12 32  1  0
 13 33  1  0
 14 34  1  0
 15 35  1  0
 17 36  1  0
 18 37  1  0
 19 38  1  0
 21 39  1  0
 23 40  1  0
 24 41  1  0
 25 42  1  0
 26 43  1  0
A    1
C1
A    2
N1
A    3
O1
A    4
C2
A    5
N2
A    6
C3
A    7
N3
A    8
C4
A    9
N4
A   10
C5
A   11
N5
A   12
C6
A   13
C7
A   14
C8
A   15
C9
A   16
C10
A   17
C11
A   18
C12
A   19
C13
A   20
C14
A   21
C15
A   22
C16
A   23
C17
A   24
C18
A   25
C19
A   26
C20
M  END
