3IN7_AYQ_A_1
     RDKit          3D

 67 68  0  0  0  0  0  0  0  0999 V2000
   -4.3890  -16.3430   -3.2920 C   0  0  0  0  0  0  0  0  0  0  0  0
   -3.1190  -14.4000   -1.8550 O   0  0  0  0  0  0  0  0  0  0  0  0
    0.9240  -16.5580    0.2070 O   0  0  0  0  0  0  0  0  0  0  0  0
   -5.8890  -10.8430    0.4910 O   0  0  0  0  0  0  0  0  0  0  0  0
   -7.2950  -10.0340    2.6530 O   0  0  0  0  0  0  0  0  0  0  0  0
   -7.5040  -12.5650    1.7480 O   0  0  0  0  0  0  0  0  0  0  0  0
   -5.0490  -13.7940    1.8900 C   0  0  0  0  0  0  0  0  0  0  0  0
   -3.3820  -12.0690    1.8200 C   0  0  0  0  0  0  0  0  0  0  0  0
   -4.1190  -14.7140    1.4130 C   0  0  0  0  0  0  0  0  0  0  0  0
   -2.4540  -12.9870    1.3410 C   0  0  0  0  0  0  0  0  0  0  0  0
   -3.5400  -16.6060   -2.1200 N   0  0  0  0  0  0  0  0  0  0  0  0
   -5.5350  -11.5960    2.7120 O   0  0  0  0  0  0  0  0  0  0  0  0
   -2.8930  -15.5770   -1.5810 C   0  0  0  0  0  0  0  0  0  0  0  0
    0.6910  -15.4060   -0.1570 C   0  0  0  0  0  0  0  0  0  0  0  0
   -4.6830  -12.4710    2.1080 C   0  0  0  0  0  0  0  0  0  0  0  0
   -2.8150  -14.3160    1.1450 C   0  0  0  0  0  0  0  0  0  0  0  0
   -1.7710  -15.9720   -0.6170 C   0  0  0  0  0  0  0  0  0  0  0  0
   -0.7430  -14.8900   -0.2890 C   0  0  0  0  0  0  0  0  0  0  0  0
   -1.7390  -15.3450    0.7800 C   0  0  0  0  0  0  0  0  0  0  0  0
   -6.7810  -11.1280    1.8010 P   0  0  0  0  0  0  0  0  0  0  0  0
    1.6350  -14.5170   -0.4510 N   0  0  0  0  0  0  0  0  0  0  0  0
    3.0690  -14.8430   -0.4370 C   0  0  0  0  0  0  0  0  0  0  0  0
    3.5130  -15.5880    0.8230 C   0  0  0  0  0  0  0  0  0  0  0  0
    4.3530  -16.4820    0.7490 O   0  0  0  0  0  0  0  0  0  0  0  0
    3.8960  -13.5650   -0.5850 C   0  0  0  0  0  0  0  0  0  0  0  0
    3.5540  -12.8080   -1.8700 C   0  0  0  0  0  0  0  0  0  0  0  0
    3.7900  -13.6630   -3.1160 C   0  0  0  0  0  0  0  0  0  0  0  0
    3.0090  -13.6110   -4.0670 O   0  0  0  0  0  0  0  0  0  0  0  0
    4.8700  -14.4380   -3.0830 N   0  0  0  0  0  0  0  0  0  0  0  0
    2.9490  -15.2050    1.9670 N   0  0  0  0  0  0  0  0  0  0  0  0
    3.3420  -15.8410    3.2330 C   0  0  0  0  0  0  0  0  0  0  0  0
    2.1850  -16.6260    3.8550 C   0  0  0  0  0  0  0  0  0  0  0  0
    2.1590  -16.8480    5.0640 O   0  0  0  0  0  0  0  0  0  0  0  0
    3.8170  -14.7660    4.2130 C   0  0  0  0  0  0  0  0  0  0  0  0
    2.6920  -13.7790    4.5290 C   0  0  0  0  0  0  0  0  0  0  0  0
    1.7250  -13.6570    3.7780 O   0  0  0  0  0  0  0  0  0  0  0  0
    2.8530  -13.0880    5.6530 N   0  0  0  0  0  0  0  0  0  0  0  0
    1.2580  -17.0470    2.9990 N   0  0  0  0  0  0  0  0  0  0  0  0
   -5.3900  -16.0329   -2.9575 H   0  0  0  0  0  0  0  0  0  0  0  0
   -3.9402  -15.5418   -3.8975 H   0  0  0  0  0  0  0  0  0  0  0  0
   -4.4717  -17.2576   -3.8975 H   0  0  0  0  0  0  0  0  0  0  0  0
   -7.1810  -10.2766    3.6060 H   0  0  0  0  0  0  0  0  0  0  0  0
   -7.6661  -12.8871    2.6700 H   0  0  0  0  0  0  0  0  0  0  0  0
   -6.0804  -14.1165    2.0957 H   0  0  0  0  0  0  0  0  0  0  0  0
   -3.0866  -11.0204    1.9720 H   0  0  0  0  0  0  0  0  0  0  0  0
   -4.4177  -15.7597    1.2477 H   0  0  0  0  0  0  0  0  0  0  0  0
   -1.4281  -12.6603    1.1157 H   0  0  0  0  0  0  0  0  0  0  0  0
   -3.4497  -17.5551   -1.7301 H   0  0  0  0  0  0  0  0  0  0  0  0
   -1.7415  -17.0061   -0.9908 H   0  0  0  0  0  0  0  0  0  0  0  0
   -0.4615  -13.9112   -0.7047 H   0  0  0  0  0  0  0  0  0  0  0  0
   -1.6857  -15.7596    1.7975 H   0  0  0  0  0  0  0  0  0  0  0  0
    1.3497  -13.5589   -0.6992 H   0  0  0  0  0  0  0  0  0  0  0  0
    3.2398  -15.5191   -1.2877 H   0  0  0  0  0  0  0  0  0  0  0  0
    3.6965  -12.9109    0.2766 H   0  0  0  0  0  0  0  0  0  0  0  0
    4.9575  -13.8499   -0.6301 H   0  0  0  0  0  0  0  0  0  0  0  0
    2.4951  -12.5120   -1.8372 H   0  0  0  0  0  0  0  0  0  0  0  0
    4.2103  -11.9274   -1.9317 H   0  0  0  0  0  0  0  0  0  0  0  0
    5.2703  -14.7253   -2.1785 H   0  0  0  0  0  0  0  0  0  0  0  0
    5.3063  -14.7511   -3.9620 H   0  0  0  0  0  0  0  0  0  0  0  0
    2.2360  -14.4617    1.9649 H   0  0  0  0  0  0  0  0  0  0  0  0
    4.1553  -16.5507    3.0210 H   0  0  0  0  0  0  0  0  0  0  0  0
    4.1451  -15.2486    5.1455 H   0  0  0  0  0  0  0  0  0  0  0  0
    4.6494  -14.2139    3.7522 H   0  0  0  0  0  0  0  0  0  0  0  0
    2.7442  -13.5549    6.5646 H   0  0  0  0  0  0  0  0  0  0  0  0
    3.0865  -12.0856    5.6124 H   0  0  0  0  0  0  0  0  0  0  0  0
    0.3764  -17.4474    3.3503 H   0  0  0  0  0  0  0  0  0  0  0  0
    1.4218  -16.9726    1.9848 H   0  0  0  0  0  0  0  0  0  0  0  0
  3 14  2  0
  4 20  2  0
  5 20  1  0
  7  9  2  0
  8 10  1  0
  8 15  2  0
 10 16  2  0
 11  1  1  0
 11 13  1  0
 12 15  1  0
 12 20  1  0
 13  2  2  0
 15  7  1  0
 16  9  1  0
 16 19  1  0
 17 13  1  0
 17 18  1  0
 18 14  1  0
 19 17  1  0
 19 18  1  0
 20  6  1  0
 21 22  1  0
 22 23  1  0
 22 25  1  0
 23 24  2  0
 25 26  1  0
 26 27  1  0
 27 28  2  0
 27 29  1  0
 30 31  1  0
 31 32  1  0
 31 34  1  0
 32 33  2  0
 34 35  1  0
 35 36  2  0
 35 37  1  0
 14 21  1  0
 23 30  1  0
 32 38  1  0
  1 39  1  0
  1 40  1  0
  1 41  1  0
  5 42  1  0
  6 43  1  0
  7 44  1  0
  8 45  1  0
  9 46  1  0
 10 47  1  0
 11 48  1  0
 17 49  1  0
 18 50  1  0
 19 51  1  0
 21 52  1  0
 22 53  1  0
 25 54  1  0
 25 55  1  0
 26 56  1  0
 26 57  1  0
 29 58  1  0
 29 59  1  0
 30 60  1  0
 31 61  1  0
 34 62  1  0
 34 63  1  0
 37 64  1  0
 37 65  1  0
 38 66  1  0
 38 67  1  0
A    1
CAA
A    2
OAI
A    3
OAJ
A    4
OAM
A    5
OAK
A    6
OAL
A    7
CAN
A    8
CAO
A    9
CAP
A   10
CAQ
A   11
NAU
A   12
OAX
A   13
CBC
A   14
CBD
A   15
CBE
A   16
CBF
A   17
CBI
A   18
CBJ
A   19
CBK
A   20
PBL
A   21
N
A   22
CA
A   23
C
A   24
O
A   25
CB
A   26
CG
A   27
CD
A   28
OE1
A   29
NE2
A   30
NAV
A   31
CBH
A   32
CBA
A   33
OAG
A   34
CAT
A   35
CAZ
A   36
OAF
A   37
NAC
A   38
NAD
M  END
