3INV_C50_A_601
     RDKit          3D

 42 43  0  0  0  0  0  0  0  0999 V2000
  -30.3450   16.0990   52.0780 N   0  0  0  0  0  0  0  0  0  0  0  0
  -29.2090   16.7820   52.1680 C   0  0  0  0  0  0  0  0  0  0  0  0
  -29.1290   17.9000   53.0230 N   0  0  0  0  0  0  0  0  0  0  0  0
  -30.1520   18.2620   53.7950 C   0  0  0  0  0  0  0  0  0  0  0  0
  -31.3240   17.5940   53.7990 N   0  0  0  0  0  0  0  0  0  0  0  0
  -31.5630   16.4730   52.8340 C   0  0  0  0  0  0  0  0  0  0  0  0
  -28.1560   16.4100   51.4440 N   0  0  0  0  0  0  0  0  0  0  0  0
  -29.9990   19.3210   54.5610 N   0  0  0  0  0  0  0  0  0  0  0  0
  -32.3880   18.0680   54.5480 O   0  0  0  0  0  0  0  0  0  0  0  0
  -32.5150   17.6260   55.9140 C   0  0  0  0  0  0  0  0  0  0  0  0
  -33.7910   18.2990   56.4610 C   0  0  0  0  0  0  0  0  0  0  0  0
  -35.0880   17.5810   55.9760 C   0  0  0  0  0  0  0  0  0  0  0  0
  -34.9590   16.2010   56.3730 O   0  0  0  0  0  0  0  0  0  0  0  0
  -35.9660   15.2860   56.1520 C   0  0  0  0  0  0  0  0  0  0  0  0
  -35.7530   14.0310   56.6630 C   0  0  0  0  0  0  0  0  0  0  0  0
  -36.7750   12.9590   56.5150 C   0  0  0  0  0  0  0  0  0  0  0  0
  -37.9440   13.2140   55.8570 C   0  0  0  0  0  0  0  0  0  0  0  0
  -38.1910   14.5670   55.2900 C   0  0  0  0  0  0  0  0  0  0  0  0
  -37.2510   15.5600   55.4310 C   0  0  0  0  0  0  0  0  0  0  0  0
  -34.2430   13.6880   57.5170 Cl  0  0  0  0  0  0  0  0  0  0  0  0
  -36.4780   11.3530   57.1940 Cl  0  0  0  0  0  0  0  0  0  0  0  0
  -32.1170   15.2080   53.5280 C   0  0  0  0  0  0  0  0  0  0  0  0
  -32.6110   16.9450   51.8040 C   0  0  0  0  0  0  0  0  0  0  0  0
  -27.2910   16.1044   51.9123 H   0  0  0  0  0  0  0  0  0  0  0  0
  -28.2061   16.4277   50.4154 H   0  0  0  0  0  0  0  0  0  0  0  0
  -30.0134   19.2215   55.5861 H   0  0  0  0  0  0  0  0  0  0  0  0
  -29.8649   20.2494   54.1355 H   0  0  0  0  0  0  0  0  0  0  0  0
  -32.6130   16.5311   55.9540 H   0  0  0  0  0  0  0  0  0  0  0  0
  -31.6301   17.8958   56.5090 H   0  0  0  0  0  0  0  0  0  0  0  0
  -33.7617   18.2738   57.5603 H   0  0  0  0  0  0  0  0  0  0  0  0
  -33.8159   19.3327   56.0856 H   0  0  0  0  0  0  0  0  0  0  0  0
  -35.9727   18.0323   56.4489 H   0  0  0  0  0  0  0  0  0  0  0  0
  -35.2131   17.6738   54.8871 H   0  0  0  0  0  0  0  0  0  0  0  0
  -38.6998   12.4224   55.7467 H   0  0  0  0  0  0  0  0  0  0  0  0
  -39.1300   14.7737   54.7556 H   0  0  0  0  0  0  0  0  0  0  0  0
  -37.4426   16.5593   55.0131 H   0  0  0  0  0  0  0  0  0  0  0  0
  -32.0616   15.3345   54.6193 H   0  0  0  0  0  0  0  0  0  0  0  0
  -33.1645   15.0549   53.2293 H   0  0  0  0  0  0  0  0  0  0  0  0
  -31.5191   14.3343   53.2293 H   0  0  0  0  0  0  0  0  0  0  0  0
  -33.4910   17.3414   52.3316 H   0  0  0  0  0  0  0  0  0  0  0  0
  -32.1756   17.7339   51.1731 H   0  0  0  0  0  0  0  0  0  0  0  0
  -32.9133   16.0961   51.1731 H   0  0  0  0  0  0  0  0  0  0  0  0
  1  2  2  0
  1  6  1  0
  7  2  1  0
  2  3  1  0
  3  4  2  0
  4  5  1  0
  4  8  1  0
  6  5  1  0
  5  9  1  0
 23  6  1  0
  6 22  1  0
  9 10  1  0
 10 11  1  0
 12 11  1  0
 12 13  1  0
 14 13  1  0
 19 14  1  0
 14 15  2  0
 16 15  1  0
 15 20  1  0
 17 16  2  0
 16 21  1  0
 18 17  1  0
 18 19  2  0
  7 24  1  0
  7 25  1  0
  8 26  1  0
  8 27  1  0
 10 28  1  0
 10 29  1  0
 11 30  1  0
 11 31  1  0
 12 32  1  0
 12 33  1  0
 17 34  1  0
 18 35  1  0
 19 36  1  0
 22 37  1  0
 22 38  1  0
 22 39  1  0
 23 40  1  0
 23 41  1  0
 23 42  1  0
A    1
N1
A    2
C2
A    3
N3
A    4
C4
A    5
N5
A    6
C6
A    7
N7
A    8
N8
A    9
O9
A   10
C10
A   11
C11
A   12
C12
A   13
O13
A   14
C14
A   15
C15
A   16
C16
A   17
C17
A   18
C18
A   19
C19
A   20
CL20
A   21
CL21
A   22
C22
A   23
C23
M  END
