3IO7_1P5_A_1
     RDKit          3D

 55 58  0  0  0  0  0  0  0  0999 V2000
   14.8660   16.6100    4.0650 N   0  0  0  0  0  0  0  0  0  0  0  0
   14.5510   15.6640    2.9800 C   0  0  0  0  0  0  0  0  0  0  0  0
   15.4050   15.9210    1.7360 C   0  0  0  0  0  0  0  0  0  0  0  0
   15.9240   16.3910    4.8910 C   0  0  0  0  0  0  0  0  0  0  0  0
   16.8280   15.2000    4.7700 C   0  0  0  0  0  0  0  0  0  0  0  0
   18.2800   15.6330    5.0340 C   0  0  0  0  0  0  0  0  0  0  0  0
   16.8010   11.8770    5.5320 C   0  0  0  0  0  0  0  0  0  0  0  0
   15.4020   10.4250    4.2010 C   0  0  0  0  0  0  0  0  0  0  0  0
   14.2640   10.1050    3.3030 C   0  0  0  0  0  0  0  0  0  0  0  0
   13.2510   10.9400    2.7880 C   0  0  0  0  0  0  0  0  0  0  0  0
   11.9190   12.7820    2.3290 C   0  0  0  0  0  0  0  0  0  0  0  0
   11.3870   10.7030    1.3050 C   0  0  0  0  0  0  0  0  0  0  0  0
   14.6610   19.1190    3.9210 C   0  0  0  0  0  0  0  0  0  0  0  0
   13.9790   17.7860    4.2590 C   0  0  0  0  0  0  0  0  0  0  0  0
   16.1650   17.1650    5.7890 O   0  0  0  0  0  0  0  0  0  0  0  0
   18.9120   14.8880    6.2150 C   0  0  0  0  0  0  0  0  0  0  0  0
   18.6090   13.3830    6.1500 C   0  0  0  0  0  0  0  0  0  0  0  0
   17.1540   13.0940    6.1320 N   0  0  0  0  0  0  0  0  0  0  0  0
   16.2740   14.2330    5.8210 C   0  0  0  0  0  0  0  0  0  0  0  0
   15.6660   11.7090    4.7220 C   0  0  0  0  0  0  0  0  0  0  0  0
   16.2700    9.4410    4.4730 N   0  0  0  0  0  0  0  0  0  0  0  0
   17.3170    9.6330    5.2380 C   0  0  0  0  0  0  0  0  0  0  0  0
   17.5710   10.8150    5.7590 N   0  0  0  0  0  0  0  0  0  0  0  0
   12.9510   12.2360    2.9580 N   0  0  0  0  0  0  0  0  0  0  0  0
   11.1040   12.0230    1.4710 C   0  0  0  0  0  0  0  0  0  0  0  0
   12.4670   10.1680    1.9570 N   0  0  0  0  0  0  0  0  0  0  0  0
   12.9990    8.8820    1.9520 N   0  0  0  0  0  0  0  0  0  0  0  0
   14.0510    8.8370    2.7430 C   0  0  0  0  0  0  0  0  0  0  0  0
   14.8430    7.7180    2.9800 N   0  0  0  0  0  0  0  0  0  0  0  0
   14.7382   14.6398    3.3350 H   0  0  0  0  0  0  0  0  0  0  0  0
   13.4949   15.7999    2.7038 H   0  0  0  0  0  0  0  0  0  0  0  0
   16.4167   16.2255    2.0423 H   0  0  0  0  0  0  0  0  0  0  0  0
   15.4648   15.0011    1.1359 H   0  0  0  0  0  0  0  0  0  0  0  0
   14.9472   16.7212    1.1359 H   0  0  0  0  0  0  0  0  0  0  0  0
   16.8494   14.7294    3.7760 H   0  0  0  0  0  0  0  0  0  0  0  0
   18.8767   15.4335    4.1317 H   0  0  0  0  0  0  0  0  0  0  0  0
   18.2679   16.7042    5.2839 H   0  0  0  0  0  0  0  0  0  0  0  0
   11.6966   13.8484    2.4814 H   0  0  0  0  0  0  0  0  0  0  0  0
   10.7584   10.0744    0.6571 H   0  0  0  0  0  0  0  0  0  0  0  0
   14.9279   19.6407    4.8519 H   0  0  0  0  0  0  0  0  0  0  0  0
   15.5715   18.9267    3.3344 H   0  0  0  0  0  0  0  0  0  0  0  0
   13.9723   19.7448    3.3344 H   0  0  0  0  0  0  0  0  0  0  0  0
   13.0976   17.6699    3.6112 H   0  0  0  0  0  0  0  0  0  0  0  0
   13.7069   17.8185    5.3243 H   0  0  0  0  0  0  0  0  0  0  0  0
   20.0017   15.0358    6.1905 H   0  0  0  0  0  0  0  0  0  0  0  0
   18.4866   15.2886    7.1470 H   0  0  0  0  0  0  0  0  0  0  0  0
   19.0611   12.9718    5.2354 H   0  0  0  0  0  0  0  0  0  0  0  0
   19.0295   12.9192    7.0545 H   0  0  0  0  0  0  0  0  0  0  0  0
   16.1025   14.7973    6.7495 H   0  0  0  0  0  0  0  0  0  0  0  0
   15.3523   13.8076    5.3974 H   0  0  0  0  0  0  0  0  0  0  0  0
   15.0006   12.5562    4.4998 H   0  0  0  0  0  0  0  0  0  0  0  0
   17.9947    8.7924    5.4481 H   0  0  0  0  0  0  0  0  0  0  0  0
   10.2561   12.4865    0.9455 H   0  0  0  0  0  0  0  0  0  0  0  0
   15.0484    7.4278    3.9467 H   0  0  0  0  0  0  0  0  0  0  0  0
   15.2240    7.1798    2.1888 H   0  0  0  0  0  0  0  0  0  0  0  0
  1  2  1  0
  1  4  1  0
  1 14  1  0
  2  3  1  0
  4  5  1  0
  4 15  2  0
  5  6  1  0
  5 19  1  0
  6 16  1  0
  7 18  1  0
  7 20  2  0
  7 23  1  0
  8  9  1  0
  8 20  1  0
  8 21  2  0
  9 10  2  0
  9 28  1  0
 10 24  1  0
 10 26  1  0
 11 24  2  0
 11 25  1  0
 12 25  2  0
 12 26  1  0
 13 14  1  0
 16 17  1  0
 17 18  1  0
 18 19  1  0
 21 22  1  0
 22 23  2  0
 26 27  1  0
 27 28  2  0
 28 29  1  0
  2 30  1  0
  2 31  1  0
  3 32  1  0
  3 33  1  0
  3 34  1  0
  5 35  1  0
  6 36  1  0
  6 37  1  0
 11 38  1  0
 12 39  1  0
 13 40  1  0
 13 41  1  0
 13 42  1  0
 14 43  1  0
 14 44  1  0
 16 45  1  0
 16 46  1  0
 17 47  1  0
 17 48  1  0
 19 49  1  0
 19 50  1  0
 20 51  1  0
 22 52  1  0
 25 53  1  0
 29 54  1  0
 29 55  1  0
A    1
N3
A    2
C4
A    3
C5
A    4
C6
A    5
C8
A    6
C10
A    7
C15
A    8
C17
A    9
C21
A   10
C22
A   11
C24
A   12
C26
A   13
C1
A   14
C2
A   15
O7
A   16
C11
A   17
C12
A   18
N13
A   19
C14
A   20
C16
A   21
N18
A   22
C19
A   23
N20
A   24
N23
A   25
C25
A   26
N27
A   27
N28
A   28
C29
A   29
N30
M  END
