3IOB_A4D_A_301
     RDKit          3D

 32 34  0  0  0  0  0  0  0  0999 V2000
   13.7030    9.6810   -5.3280 N   0  0  0  0  0  0  0  0  0  0  0  0
   12.7150    9.2910   -4.5130 C   0  0  0  0  0  0  0  0  0  0  0  0
   12.8640    9.3200   -3.1850 N   0  0  0  0  0  0  0  0  0  0  0  0
   14.0300    9.7430   -2.6340 C   0  0  0  0  0  0  0  0  0  0  0  0
   15.0700   10.1580   -3.4590 C   0  0  0  0  0  0  0  0  0  0  0  0
   14.8850   10.1110   -4.8330 C   0  0  0  0  0  0  0  0  0  0  0  0
   15.8750   10.4850   -5.6310 N   0  0  0  0  0  0  0  0  0  0  0  0
   16.0900   10.5250   -2.6830 N   0  0  0  0  0  0  0  0  0  0  0  0
   15.7100   10.3600   -1.4120 C   0  0  0  0  0  0  0  0  0  0  0  0
   14.4640    9.8850   -1.3750 N   0  0  0  0  0  0  0  0  0  0  0  0
   12.5160    8.0950    1.9410 O   0  0  0  0  0  0  0  0  0  0  0  0
   14.4300    7.2470    0.1400 O   0  0  0  0  0  0  0  0  0  0  0  0
   14.7580   10.4330    4.6390 S   0  0  0  0  0  0  0  0  0  0  0  0
   14.6880   10.9820    2.8960 C   0  0  0  0  0  0  0  0  0  0  0  0
   13.5730   10.7400    0.6970 O   0  0  0  0  0  0  0  0  0  0  0  0
   13.7910    8.7300    2.0240 C   0  0  0  0  0  0  0  0  0  0  0  0
   14.5200    8.5840    0.6890 C   0  0  0  0  0  0  0  0  0  0  0  0
   13.5710   10.2560    2.0970 C   0  0  0  0  0  0  0  0  0  0  0  0
   13.7060    9.5720   -0.1640 C   0  0  0  0  0  0  0  0  0  0  0  0
   11.7651    8.9410   -4.9433 H   0  0  0  0  0  0  0  0  0  0  0  0
   16.7621   10.8201   -5.2288 H   0  0  0  0  0  0  0  0  0  0  0  0
   15.7573   10.4405   -6.6533 H   0  0  0  0  0  0  0  0  0  0  0  0
   16.3302   10.5820   -0.5310 H   0  0  0  0  0  0  0  0  0  0  0  0
   12.1725    7.9239    2.8536 H   0  0  0  0  0  0  0  0  0  0  0  0
   14.3857    6.5893    0.8786 H   0  0  0  0  0  0  0  0  0  0  0  0
   14.6198   11.5171    5.4651 H   0  0  0  0  0  0  0  0  0  0  0  0
   14.4937   12.0645    2.8730 H   0  0  0  0  0  0  0  0  0  0  0  0
   15.6523   10.7385    2.4261 H   0  0  0  0  0  0  0  0  0  0  0  0
   14.3313    8.2970    2.8788 H   0  0  0  0  0  0  0  0  0  0  0  0
   15.6021    8.7718    0.7497 H   0  0  0  0  0  0  0  0  0  0  0  0
   12.6270   10.4689    2.6200 H   0  0  0  0  0  0  0  0  0  0  0  0
   12.7271    9.1898   -0.4890 H   0  0  0  0  0  0  0  0  0  0  0  0
  1  2  2  0
  1  6  1  0
  2  3  1  0
  3  4  2  0
  4  5  1  0
  4 10  1  0
  5  6  2  0
  5  8  1  0
  6  7  1  0
  8  9  2  0
  9 10  1  0
 10 19  1  0
 11 16  1  0
 12 17  1  0
 13 14  1  0
 14 18  1  0
 15 18  1  0
 15 19  1  0
 16 17  1  0
 16 18  1  0
 17 19  1  0
  2 20  1  0
  7 21  1  0
  7 22  1  0
  9 23  1  0
 11 24  1  0
 12 25  1  0
 13 26  1  0
 14 27  1  0
 14 28  1  0
 16 29  1  0
 17 30  1  0
 18 31  1  0
 19 32  1  0
A    1
N1
A    2
C2
A    3
N3
A    4
C4
A    5
C5
A    6
C6
A    7
N6
A    8
N7
A    9
C8
A   10
N9
A   11
OAB
A   12
OAC
A   13
SAD
A   14
CAG
A   15
OAK
A   16
CAO
A   17
CAP
A   18
CAQ
A   19
CAR
M  END
