3IOD_A6D_A_302
     RDKit          3D

 48 51  0  0  0  0  0  0  0  0999 V2000
   13.6310    9.6270   -5.3630 N   0  0  0  0  0  0  0  0  0  0  0  0
   12.6520    9.2610   -4.5340 C   0  0  0  0  0  0  0  0  0  0  0  0
   12.8010    9.3450   -3.2120 N   0  0  0  0  0  0  0  0  0  0  0  0
   13.9500    9.8100   -2.6760 C   0  0  0  0  0  0  0  0  0  0  0  0
   14.9890   10.1950   -3.5110 C   0  0  0  0  0  0  0  0  0  0  0  0
   14.8110   10.0890   -4.8880 C   0  0  0  0  0  0  0  0  0  0  0  0
   15.7930   10.4420   -5.7170 N   0  0  0  0  0  0  0  0  0  0  0  0
   15.9900   10.6010   -2.7380 N   0  0  0  0  0  0  0  0  0  0  0  0
   15.6040   10.4840   -1.4690 C   0  0  0  0  0  0  0  0  0  0  0  0
   14.3690   10.0060   -1.4260 N   0  0  0  0  0  0  0  0  0  0  0  0
   12.3660   11.3070    9.5930 O   0  0  0  0  0  0  0  0  0  0  0  0
   12.3780    8.2680    1.8090 O   0  0  0  0  0  0  0  0  0  0  0  0
   14.3360    7.3640    0.0590 O   0  0  0  0  0  0  0  0  0  0  0  0
   14.3480   11.6690   10.9750 O   0  0  0  0  0  0  0  0  0  0  0  0
   16.2320    8.6210    8.9000 C   0  0  0  0  0  0  0  0  0  0  0  0
   15.7980    8.1810    7.6620 C   0  0  0  0  0  0  0  0  0  0  0  0
   15.5430    9.5720    9.6530 C   0  0  0  0  0  0  0  0  0  0  0  0
   13.9080    9.6810    7.9210 C   0  0  0  0  0  0  0  0  0  0  0  0
   14.1270    8.2690    5.8430 C   0  0  0  0  0  0  0  0  0  0  0  0
   14.9040   10.8970    2.7670 C   0  0  0  0  0  0  0  0  0  0  0  0
   13.5520   10.8670    0.6930 O   0  0  0  0  0  0  0  0  0  0  0  0
   13.2930    9.6780    5.0760 S   0  0  0  0  0  0  0  0  0  0  0  0
   14.7520   11.0280    4.5880 S   0  0  0  0  0  0  0  0  0  0  0  0
   14.6180    8.7210    7.1910 C   0  0  0  0  0  0  0  0  0  0  0  0
   14.3710   10.1080    9.1640 C   0  0  0  0  0  0  0  0  0  0  0  0
   13.6980    8.8130    1.9370 C   0  0  0  0  0  0  0  0  0  0  0  0
   14.4230    8.6940    0.6060 C   0  0  0  0  0  0  0  0  0  0  0  0
   13.6230   10.3440    2.0750 C   0  0  0  0  0  0  0  0  0  0  0  0
   13.6160    9.7180   -0.2050 C   0  0  0  0  0  0  0  0  0  0  0  0
   13.7140   11.0110    9.8960 N   0  0  0  0  0  0  0  0  0  0  0  0
   11.7056    8.8834   -4.9484 H   0  0  0  0  0  0  0  0  0  0  0  0
   16.6946   10.7661   -5.3389 H   0  0  0  0  0  0  0  0  0  0  0  0
   15.6503   10.3907   -6.7358 H   0  0  0  0  0  0  0  0  0  0  0  0
   16.2156   10.7439   -0.5924 H   0  0  0  0  0  0  0  0  0  0  0  0
   11.9972    8.1108    2.7092 H   0  0  0  0  0  0  0  0  0  0  0  0
   14.2929    6.7057    0.7972 H   0  0  0  0  0  0  0  0  0  0  0  0
   17.1630    8.2017    9.3092 H   0  0  0  0  0  0  0  0  0  0  0  0
   16.3650    7.4379    7.0820 H   0  0  0  0  0  0  0  0  0  0  0  0
   15.9325    9.8921   10.6307 H   0  0  0  0  0  0  0  0  0  0  0  0
   12.9780   10.1014    7.5107 H   0  0  0  0  0  0  0  0  0  0  0  0
   13.4225    7.4323    5.9599 H   0  0  0  0  0  0  0  0  0  0  0  0
   14.9643    7.9243    5.2185 H   0  0  0  0  0  0  0  0  0  0  0  0
   15.1139   11.8980    2.3622 H   0  0  0  0  0  0  0  0  0  0  0  0
   15.7165   10.1848    2.5605 H   0  0  0  0  0  0  0  0  0  0  0  0
   14.1739    8.2947    2.7825 H   0  0  0  0  0  0  0  0  0  0  0  0
   15.5074    8.8756    0.6390 H   0  0  0  0  0  0  0  0  0  0  0  0
   12.7578   10.6448    2.6841 H   0  0  0  0  0  0  0  0  0  0  0  0
   12.6107    9.3981   -0.5166 H   0  0  0  0  0  0  0  0  0  0  0  0
  1  2  2  0
  1  6  1  0
  2  3  1  0
  3  4  2  0
  4  5  1  0
  4 10  1  0
  5  6  2  0
  5  8  1  0
  6  7  1  0
  8  9  2  0
  9 10  1  0
 10 29  1  0
 11 30  2  0
 12 26  1  0
 13 27  1  0
 14 30  1  0
 15 16  2  0
 15 17  1  0
 16 24  1  0
 17 25  2  0
 18 24  2  0
 18 25  1  0
 19 22  1  0
 19 24  1  0
 20 23  1  0
 20 28  1  0
 21 28  1  0
 21 29  1  0
 22 23  1  0
 25 30  1  0
 26 27  1  0
 26 28  1  0
 27 29  1  0
  2 31  1  0
  7 32  1  0
  7 33  1  0
  9 34  1  0
 12 35  1  0
 13 36  1  0
 15 37  1  0
 16 38  1  0
 17 39  1  0
 18 40  1  0
 19 41  1  0
 19 42  1  0
 20 43  1  0
 20 44  1  0
 26 45  1  0
 27 46  1  0
 28 47  1  0
 29 48  1  0
M  CHG  2  14  -1  30   1
A    1
N1
A    2
C2
A    3
N3
A    4
C4
A    5
C5
A    6
C6
A    7
N6
A    8
N7
A    9
C8
A   10
N9
A   11
OAB
A   12
OAC
A   13
OAD
A   14
OAE
A   15
CAF
A   16
CAG
A   17
CAH
A   18
CAK
A   19
CAL
A   20
CAM
A   21
OAQ
A   22
SAR
A   23
SAS
A   24
CAT
A   25
CAV
A   26
CAY
A   27
CAZ
A   28
CBA
A   29
CBB
A   30
NBD
M  END
