3IOE_A7D_A_901
     RDKit          3D

 46 48  0  0  0  0  0  0  0  0999 V2000
   13.7440    9.5570   -5.3120 N   0  0  0  0  0  0  0  0  0  0  0  0
   12.7570    9.2080   -4.4750 C   0  0  0  0  0  0  0  0  0  0  0  0
   12.9440    9.2860   -3.1570 N   0  0  0  0  0  0  0  0  0  0  0  0
   14.1320    9.7200   -2.6430 C   0  0  0  0  0  0  0  0  0  0  0  0
   15.1750   10.0860   -3.4930 C   0  0  0  0  0  0  0  0  0  0  0  0
   14.9510    9.9910   -4.8640 C   0  0  0  0  0  0  0  0  0  0  0  0
   15.9250   10.3260   -5.7130 N   0  0  0  0  0  0  0  0  0  0  0  0
   16.2050   10.4750   -2.7440 N   0  0  0  0  0  0  0  0  0  0  0  0
   15.8430   10.3580   -1.4630 C   0  0  0  0  0  0  0  0  0  0  0  0
   14.5860    9.9030   -1.4000 N   0  0  0  0  0  0  0  0  0  0  0  0
   14.8640    9.8980    9.5210 O   0  0  0  0  0  0  0  0  0  0  0  0
   16.3630    7.8700    7.4210 O   0  0  0  0  0  0  0  0  0  0  0  0
   12.5240    8.1730    1.8270 O   0  0  0  0  0  0  0  0  0  0  0  0
   14.5120    7.2260   -0.0600 O   0  0  0  0  0  0  0  0  0  0  0  0
   14.6630    8.5060    9.1750 C   0  0  0  0  0  0  0  0  0  0  0  0
   14.7510    9.2620    5.3170 C   0  0  0  0  0  0  0  0  0  0  0  0
   14.4370    9.3940    6.8280 C   0  0  0  0  0  0  0  0  0  0  0  0
   15.2100   10.5420    2.7790 C   0  0  0  0  0  0  0  0  0  0  0  0
   13.8100   10.7210    0.7290 O   0  0  0  0  0  0  0  0  0  0  0  0
   14.9760   10.9260    4.5410 S   0  0  0  0  0  0  0  0  0  0  0  0
   14.9380    8.2060    7.6740 C   0  0  0  0  0  0  0  0  0  0  0  0
   13.8800    8.6100    1.9190 C   0  0  0  0  0  0  0  0  0  0  0  0
   14.5890    8.5240    0.5620 C   0  0  0  0  0  0  0  0  0  0  0  0
   13.8800   10.1340    2.0890 C   0  0  0  0  0  0  0  0  0  0  0  0
   13.8250    9.6210   -0.2060 C   0  0  0  0  0  0  0  0  0  0  0  0
   11.7940    8.8577   -4.8748 H   0  0  0  0  0  0  0  0  0  0  0  0
   16.8373   10.6398   -5.3522 H   0  0  0  0  0  0  0  0  0  0  0  0
   15.7643   10.2707   -6.7289 H   0  0  0  0  0  0  0  0  0  0  0  0
   16.4778   10.5978   -0.5972 H   0  0  0  0  0  0  0  0  0  0  0  0
   14.8779    9.9945   10.5062 H   0  0  0  0  0  0  0  0  0  0  0  0
   16.8342    7.7589    8.2846 H   0  0  0  0  0  0  0  0  0  0  0  0
   12.1533    8.0535    2.7372 H   0  0  0  0  0  0  0  0  0  0  0  0
   14.4705    6.5268    0.6396 H   0  0  0  0  0  0  0  0  0  0  0  0
   15.3417    7.8918    9.7851 H   0  0  0  0  0  0  0  0  0  0  0  0
   13.6067    8.2683    9.3694 H   0  0  0  0  0  0  0  0  0  0  0  0
   15.6746    8.6781    5.1909 H   0  0  0  0  0  0  0  0  0  0  0  0
   13.9065    8.7567    4.8256 H   0  0  0  0  0  0  0  0  0  0  0  0
   14.9138   10.3119    7.2024 H   0  0  0  0  0  0  0  0  0  0  0  0
   13.3417    9.4181    6.9266 H   0  0  0  0  0  0  0  0  0  0  0  0
   15.6142   11.4310    2.2728 H   0  0  0  0  0  0  0  0  0  0  0  0
   15.9041    9.6918    2.7066 H   0  0  0  0  0  0  0  0  0  0  0  0
   14.3801    7.3068    7.3736 H   0  0  0  0  0  0  0  0  0  0  0  0
   14.3433    8.0097    2.7159 H   0  0  0  0  0  0  0  0  0  0  0  0
   15.6786    8.6672    0.6102 H   0  0  0  0  0  0  0  0  0  0  0  0
   13.0343   10.4844    2.6989 H   0  0  0  0  0  0  0  0  0  0  0  0
   12.8028    9.3729   -0.5278 H   0  0  0  0  0  0  0  0  0  0  0  0
  1  2  2  0
  1  6  1  0
  2  3  1  0
  3  4  2  0
  4  5  1  0
  4 10  1  0
  5  6  2  0
  5  8  1  0
  6  7  1  0
  8  9  2  0
  9 10  1  0
 10 25  1  0
 11 15  1  0
 12 21  1  0
 13 22  1  0
 14 23  1  0
 15 21  1  0
 16 17  1  0
 16 20  1  0
 17 21  1  0
 18 20  1  0
 18 24  1  0
 19 24  1  0
 19 25  1  0
 22 23  1  0
 22 24  1  0
 23 25  1  0
  2 26  1  0
  7 27  1  0
  7 28  1  0
  9 29  1  0
 11 30  1  0
 12 31  1  0
 13 32  1  0
 14 33  1  0
 15 34  1  0
 15 35  1  0
 16 36  1  0
 16 37  1  0
 17 38  1  0
 17 39  1  0
 18 40  1  0
 18 41  1  0
 21 42  1  0
 22 43  1  0
 23 44  1  0
 24 45  1  0
 25 46  1  0
A    1
N1
A    2
C2
A    3
N3
A    4
C4
A    5
C5
A    6
C6
A    7
N6
A    8
N7
A    9
C8
A   10
N9
A   11
OAB
A   12
OAC
A   13
OAD
A   14
OAE
A   15
CAH
A   16
CAI
A   17
CAJ
A   18
CAK
A   19
OAO
A   20
SAP
A   21
CAT
A   22
CAU
A   23
CAV
A   24
CAW
A   25
CAX
M  END
