3IOF_IFS_A_308
     RDKit          3D

 39 39  0  0  0  0  0  0  0  0999 V2000
    3.5910   48.7810   48.7590 C   0  0  0  0  0  0  0  0  0  0  0  0
    5.1610   50.8020   47.7220 O   0  0  0  0  0  0  0  0  0  0  0  0
    5.1510   49.2880   48.2010 P   0  0  0  0  0  0  0  0  0  0  0  0
    3.5750   45.3880   46.8610 S   0  0  0  0  0  0  0  0  0  0  0  0
    3.2080   47.3310   48.8720 C   0  0  0  0  0  0  0  0  0  0  0  0
    1.9250   47.0810   49.3540 C   0  0  0  0  0  0  0  0  0  0  0  0
    1.0520   48.1170   49.7120 C   0  0  0  0  0  0  0  0  0  0  0  0
    1.4290   49.4490   49.5980 C   0  0  0  0  0  0  0  0  0  0  0  0
    2.6950   49.7780   49.1200 C   0  0  0  0  0  0  0  0  0  0  0  0
    4.0700   46.1180   48.4740 C   0  0  0  0  0  0  0  0  0  0  0  0
    6.8870   51.3010   50.3660 C   0  0  0  0  0  0  0  0  0  0  0  0
    7.4760   46.6310   46.7740 C   0  0  0  0  0  0  0  0  0  0  0  0
    5.7420   48.2740   47.1100 O   0  0  0  0  0  0  0  0  0  0  0  0
    6.1360   49.1910   49.4500 O   0  0  0  0  0  0  0  0  0  0  0  0
    5.9190   50.1240   50.5190 C   0  0  0  0  0  0  0  0  0  0  0  0
    7.1470   48.1170   46.8510 C   0  0  0  0  0  0  0  0  0  0  0  0
    6.0580   49.3830   51.8450 C   0  0  0  0  0  0  0  0  0  0  0  0
    7.4310   48.8370   45.5490 C   0  0  0  0  0  0  0  0  0  0  0  0
    2.8160   44.2687   47.0800 H   0  0  0  0  0  0  0  0  0  0  0  0
    1.5872   46.0392   49.4566 H   0  0  0  0  0  0  0  0  0  0  0  0
    0.0490   47.8707   50.0905 H   0  0  0  0  0  0  0  0  0  0  0  0
    0.7266   50.2451   49.8857 H   0  0  0  0  0  0  0  0  0  0  0  0
    2.9868   50.8346   49.0279 H   0  0  0  0  0  0  0  0  0  0  0  0
    3.9726   45.3473   49.2528 H   0  0  0  0  0  0  0  0  0  0  0  0
    5.1077   46.4689   48.3733 H   0  0  0  0  0  0  0  0  0  0  0  0
    7.1845   51.6628   51.3613 H   0  0  0  0  0  0  0  0  0  0  0  0
    7.7795   50.9723   49.8134 H   0  0  0  0  0  0  0  0  0  0  0  0
    6.3922   52.1133   49.8134 H   0  0  0  0  0  0  0  0  0  0  0  0
    7.5665   46.2223   47.7912 H   0  0  0  0  0  0  0  0  0  0  0  0
    6.6726   46.1049   46.2376 H   0  0  0  0  0  0  0  0  0  0  0  0
    8.4264   46.4932   46.2376 H   0  0  0  0  0  0  0  0  0  0  0  0
    4.9052   50.5499   50.4904 H   0  0  0  0  0  0  0  0  0  0  0  0
    7.7739   48.5434   47.6480 H   0  0  0  0  0  0  0  0  0  0  0  0
    5.9252   50.0910   52.6763 H   0  0  0  0  0  0  0  0  0  0  0  0
    5.2918   48.5962   51.9075 H   0  0  0  0  0  0  0  0  0  0  0  0
    7.0573   48.9274   51.9075 H   0  0  0  0  0  0  0  0  0  0  0  0
    7.8269   49.8406   45.7638 H   0  0  0  0  0  0  0  0  0  0  0  0
    8.1717   48.2671   44.9688 H   0  0  0  0  0  0  0  0  0  0  0  0
    6.5007   48.9262   44.9688 H   0  0  0  0  0  0  0  0  0  0  0  0
  3  1  1  0
  1  5  2  0
  1  9  1  0
  2  3  2  0
 13  3  1  0
  3 14  1  0
  4 10  1  0
 10  5  1  0
  5  6  1  0
  6  7  2  0
  8  7  1  0
  9  8  2  0
 11 15  1  0
 12 16  1  0
 16 13  1  0
 14 15  1  0
 15 17  1  0
 18 16  1  0
  4 19  1  0
  6 20  1  0
  7 21  1  0
  8 22  1  0
  9 23  1  0
 10 24  1  0
 10 25  1  0
 11 26  1  0
 11 27  1  0
 11 28  1  0
 12 29  1  0
 12 30  1  0
 12 31  1  0
 15 32  1  0
 16 33  1  0
 17 34  1  0
 17 35  1  0
 17 36  1  0
 18 37  1  0
 18 38  1  0
 18 39  1  0
A    1
C1
A    2
O1
A    3
P1
A    4
S1
A    5
C2
A    6
C3
A    7
C4
A    8
C5
A    9
C6
A   10
C7
A   11
C101
A   12
C102
A   13
O21
A   14
O22
A   15
C81
A   16
C82
A   17
C91
A   18
C92
M  END
