3IOG_SDF_A_311
     RDKit          3D

 21 21  0  0  0  0  0  0  0  0999 V2000
    3.5350    2.5540   68.5830 C   0  0  0  0  0  0  0  0  0  0  0  0
    2.6000    4.5680   70.3450 P   0  0  0  0  0  0  0  0  0  0  0  0
    0.9150    2.9580   68.4820 S   0  0  0  0  0  0  0  0  0  0  0  0
    4.9390    4.2650   66.8790 Cl  0  0  0  0  0  0  0  0  0  0  0  0
    4.5970    2.7150   67.6810 C   0  0  0  0  0  0  0  0  0  0  0  0
    6.5680   -0.8290   67.5930 Cl  0  0  0  0  0  0  0  0  0  0  0  0
    5.5060    1.6960   67.4000 C   0  0  0  0  0  0  0  0  0  0  0  0
    5.3600    0.4530   67.9860 C   0  0  0  0  0  0  0  0  0  0  0  0
    4.2770    0.2490   68.8470 C   0  0  0  0  0  0  0  0  0  0  0  0
    3.3620    1.2810   69.1210 C   0  0  0  0  0  0  0  0  0  0  0  0
    2.5570    3.6650   68.7730 C   0  0  0  0  0  0  0  0  0  0  0  0
    3.9810    5.1630   70.5320 O   0  0  0  0  0  0  0  0  0  0  0  0
    1.5550    5.6410   70.1640 O   0  0  0  0  0  0  0  0  0  0  0  0
    2.3110    3.5760   71.4580 O   0  0  0  0  0  0  0  0  0  0  0  0
    0.3104    2.6977   69.6835 H   0  0  0  0  0  0  0  0  0  0  0  0
    6.3420    1.8820   66.7097 H   0  0  0  0  0  0  0  0  0  0  0  0
    4.1386   -0.7354   69.3179 H   0  0  0  0  0  0  0  0  0  0  0  0
    2.4968    1.0799   69.7698 H   0  0  0  0  0  0  0  0  0  0  0  0
    2.8381    4.4520   68.0577 H   0  0  0  0  0  0  0  0  0  0  0  0
    4.1760    5.2470   71.4990 H   0  0  0  0  0  0  0  0  0  0  0  0
    2.4395    4.0172   72.3349 H   0  0  0  0  0  0  0  0  0  0  0  0
  1 11  1  0
  1 10  2  0
  2 12  1  0
  2 14  1  0
  3 11  1  0
  4  5  1  0
  5  1  1  0
  6  8  1  0
  7  5  2  0
  7  8  1  0
  8  9  2  0
  9 10  1  0
 11  2  1  0
 13  2  2  0
  3 15  1  0
  7 16  1  0
  9 17  1  0
 10 18  1  0
 11 19  1  0
 12 20  1  0
 14 21  1  0
A    1
C1
A    2
P1
A    3
S1
A    4
CL1
A    5
C2
A    6
CL2
A    7
C3
A    8
C4
A    9
C5
A   10
C6
A   11
C7
A   12
O11
A   13
O12
A   14
O13
M  END
