3IOI_1GW_A_355
     RDKit          3D

 69 72  0  0  0  0  0  0  0  0999 V2000
   16.4000   22.9620    7.8810 N   0  0  0  0  0  0  0  0  0  0  0  0
   17.5710   23.7460    8.1380 C   0  0  0  0  0  0  0  0  0  0  0  0
   18.0270   24.3870    7.2420 O   0  0  0  0  0  0  0  0  0  0  0  0
   18.1510   23.7060    9.4500 N   0  0  0  0  0  0  0  0  0  0  0  0
   17.6100   22.9530   10.4510 C   0  0  0  0  0  0  0  0  0  0  0  0
   18.0910   22.9570   11.5530 O   0  0  0  0  0  0  0  0  0  0  0  0
   16.3280   22.1380   10.1470 C   0  0  0  0  0  0  0  0  0  0  0  0
   15.7840   22.1280    8.9040 C   0  0  0  0  0  0  0  0  0  0  0  0
   14.4720   18.2240    7.3940 P   0  0  0  0  0  0  0  0  0  0  0  0
   12.3840   16.2990    6.6310 P   0  0  0  0  0  0  0  0  0  0  0  0
   10.0340   17.1030    5.5420 C   0  0  0  0  0  0  0  0  0  0  0  0
   15.1660   17.9180    5.9600 O   0  0  0  0  0  0  0  0  0  0  0  0
   11.5180   15.2460    7.5580 O   0  0  0  0  0  0  0  0  0  0  0  0
   15.8490   23.0590    6.5220 C   0  0  0  0  0  0  0  0  0  0  0  0
    9.9340   17.7670    4.1920 C   0  0  0  0  0  0  0  0  0  0  0  0
   10.8790   17.2180    3.3060 O   0  0  0  0  0  0  0  0  0  0  0  0
   15.2960   17.9000    8.5510 O   0  0  0  0  0  0  0  0  0  0  0  0
   13.2470   15.6800    5.6150 O   0  0  0  0  0  0  0  0  0  0  0  0
   16.6380   22.2810    5.4870 C   0  0  0  0  0  0  0  0  0  0  0  0
   16.6110   22.8520    4.1830 O   0  0  0  0  0  0  0  0  0  0  0  0
   10.2200   19.2590    4.4130 C   0  0  0  0  0  0  0  0  0  0  0  0
   10.2440   19.9630    3.1880 O   0  0  0  0  0  0  0  0  0  0  0  0
   13.1340   17.2940    7.6870 O   0  0  0  0  0  0  0  0  0  0  0  0
   11.3380   17.4180    5.9890 O   0  0  0  0  0  0  0  0  0  0  0  0
   15.9680   20.9190    5.5510 C   0  0  0  0  0  0  0  0  0  0  0  0
   16.2670   20.0750    4.4580 O   0  0  0  0  0  0  0  0  0  0  0  0
    9.1020   19.8070    5.3450 C   0  0  0  0  0  0  0  0  0  0  0  0
    7.8580   19.8410    4.6660 O   0  0  0  0  0  0  0  0  0  0  0  0
   14.4620   21.3440    5.6520 C   0  0  0  0  0  0  0  0  0  0  0  0
   14.5170   22.5180    6.5470 O   0  0  0  0  0  0  0  0  0  0  0  0
    9.0770   19.0300    6.7210 C   0  0  0  0  0  0  0  0  0  0  0  0
    9.0200   17.5970    6.4310 O   0  0  0  0  0  0  0  0  0  0  0  0
   13.4540   20.2820    6.1990 C   0  0  0  0  0  0  0  0  0  0  0  0
   13.9850   19.7610    7.4240 O   0  0  0  0  0  0  0  0  0  0  0  0
    7.9270   19.4510    7.6650 C   0  0  0  0  0  0  0  0  0  0  0  0
    8.0640   20.6790    8.3040 O   0  0  0  0  0  0  0  0  0  0  0  0
   15.0420   20.1640   15.8650 O   0  0  0  0  0  0  0  0  0  0  0  0
   14.2630   19.4870   12.3550 C   0  0  0  0  0  0  0  0  0  0  0  0
   14.5000   20.2880   11.0330 C   0  0  0  0  0  0  0  0  0  0  0  0
   16.3330   21.0030   12.7270 S   0  0  0  0  0  0  0  0  0  0  0  0
   15.4340   19.3150   14.8290 C   0  0  0  0  0  0  0  0  0  0  0  0
   15.3450   19.8780   13.4170 C   0  0  0  0  0  0  0  0  0  0  0  0
   15.7230   21.2240   11.2280 C   0  0  0  0  0  0  0  0  0  0  0  0
   18.9979   24.2602    9.6410 H   0  0  0  0  0  0  0  0  0  0  0  0
   14.9041   21.5086    8.6757 H   0  0  0  0  0  0  0  0  0  0  0  0
    9.8723   16.0158    5.4991 H   0  0  0  0  0  0  0  0  0  0  0  0
   11.6780   15.4406    8.5154 H   0  0  0  0  0  0  0  0  0  0  0  0
   15.8835   24.1200    6.2338 H   0  0  0  0  0  0  0  0  0  0  0  0
    8.9380   17.6147    3.7507 H   0  0  0  0  0  0  0  0  0  0  0  0
   11.6089   16.7940    3.8232 H   0  0  0  0  0  0  0  0  0  0  0  0
   14.7928   18.0979    9.3803 H   0  0  0  0  0  0  0  0  0  0  0  0
   17.7175   22.2616    5.6975 H   0  0  0  0  0  0  0  0  0  0  0  0
   16.5644   23.8382    4.2555 H   0  0  0  0  0  0  0  0  0  0  0  0
   11.2105   19.3943    4.8720 H   0  0  0  0  0  0  0  0  0  0  0  0
   10.2772   20.9361    3.3672 H   0  0  0  0  0  0  0  0  0  0  0  0
   16.3093   20.2868    6.3840 H   0  0  0  0  0  0  0  0  0  0  0  0
   16.5779   19.1973    4.7942 H   0  0  0  0  0  0  0  0  0  0  0  0
    9.3242   20.8514    5.6094 H   0  0  0  0  0  0  0  0  0  0  0  0
    7.1215   19.8611    5.3273 H   0  0  0  0  0  0  0  0  0  0  0  0
   14.0625   21.5204    4.6424 H   0  0  0  0  0  0  0  0  0  0  0  0
    9.9949   19.2879    7.2696 H   0  0  0  0  0  0  0  0  0  0  0  0
   12.4781   20.7542    6.3855 H   0  0  0  0  0  0  0  0  0  0  0  0
   13.3147   19.4730    5.4668 H   0  0  0  0  0  0  0  0  0  0  0  0
    7.0025   19.4857    7.0700 H   0  0  0  0  0  0  0  0  0  0  0  0
    7.9250   18.7029    8.4714 H   0  0  0  0  0  0  0  0  0  0  0  0
    8.0490   20.5442    9.2847 H   0  0  0  0  0  0  0  0  0  0  0  0
   13.4558   18.7571   12.5151 H   0  0  0  0  0  0  0  0  0  0  0  0
   13.8989   20.2023   10.1157 H   0  0  0  0  0  0  0  0  0  0  0  0
   15.7889   18.2920   15.0225 H   0  0  0  0  0  0  0  0  0  0  0  0
  1  2  1  0
  1  8  1  0
  2  4  1  0
  3  2  2  0
  4  5  1  0
  5  6  2  0
  7  5  1  0
  7 43  1  0
  8  7  2  0
  9 34  1  0
  9 23  1  0
  9 17  1  0
 10 13  1  0
 10 23  1  0
 11 24  1  0
 11 32  1  0
 12  9  2  0
 14  1  1  0
 14 30  1  0
 15 11  1  0
 15 21  1  0
 16 15  1  0
 18 10  2  0
 19 14  1  0
 19 25  1  0
 20 19  1  0
 21 27  1  0
 22 21  1  0
 24 10  1  0
 25 29  1  0
 26 25  1  0
 27 31  1  0
 28 27  1  0
 29 33  1  0
 29 30  1  0
 31 35  1  0
 32 31  1  0
 33 34  1  0
 35 36  1  0
 38 42  2  0
 39 38  1  0
 39 43  2  0
 40 42  1  0
 41 37  2  0
 42 41  1  0
 43 40  1  0
  4 44  1  0
  8 45  1  0
 11 46  1  0
 13 47  1  0
 14 48  1  0
 15 49  1  0
 16 50  1  0
 17 51  1  0
 19 52  1  0
 20 53  1  0
 21 54  1  0
 22 55  1  0
 25 56  1  0
 26 57  1  0
 27 58  1  0
 28 59  1  0
 29 60  1  0
 31 61  1  0
 33 62  1  0
 33 63  1  0
 35 64  1  0
 35 65  1  0
 36 66  1  0
 38 67  1  0
 39 68  1  0
 41 69  1  0
A    1
N1
A    2
C2
A    3
O2
A    4
N3
A    5
C4
A    6
O4
A    7
C5
A    8
C6
A    9
PA
A   10
PB
A   11
C1'
A   12
O1A
A   13
O1B
A   14
C1D
A   15
C2'
A   16
O2'
A   17
O2A
A   18
O2B
A   19
C2D
A   20
O2D
A   21
C3'
A   22
O3'
A   23
O3A
A   24
O3B
A   25
C3D
A   26
O3D
A   27
C4'
A   28
O4'
A   29
C4D
A   30
O4D
A   31
C5'
A   32
O5'
A   33
C5D
A   34
O5D
A   35
C6'
A   36
O6'
A   37
OAB
A   38
CAP
A   39
CAQ
A   40
SAZ
A   41
CBA
A   42
CBE
A   43
CBF
M  END
