3IPS_O90_A_1
     RDKit          3D

 53 55  0  0  0  0  0  0  0  0999 V2000
   15.9130  -15.3580   18.8720 C   0  0  0  0  0  0  0  0  0  0  0  0
   16.1810  -16.7350   18.6210 C   0  0  0  0  0  0  0  0  0  0  0  0
   17.5160  -17.1980   18.6880 C   0  0  0  0  0  0  0  0  0  0  0  0
   18.5520  -16.3420   18.9930 C   0  0  0  0  0  0  0  0  0  0  0  0
   18.2860  -15.0080   19.2470 C   0  0  0  0  0  0  0  0  0  0  0  0
   16.9860  -14.5190   19.1890 C   0  0  0  0  0  0  0  0  0  0  0  0
   20.2350  -16.9160   19.0970 S   0  0  0  0  0  0  0  0  0  0  0  0
   20.7770  -16.7490   17.3790 C   0  0  0  0  0  0  0  0  0  0  0  0
   20.8520  -15.2840   16.9830 C   0  0  0  0  0  0  0  0  0  0  0  0
   21.9110  -14.5760   17.8120 C   0  0  0  0  0  0  0  0  0  0  0  0
   23.1130  -15.2010   17.4000 O   0  0  0  0  0  0  0  0  0  0  0  0
   24.2940  -14.9620   18.0260 C   0  0  0  0  0  0  0  0  0  0  0  0
   25.1840  -16.0500   17.9240 C   0  0  0  0  0  0  0  0  0  0  0  0
   26.4180  -15.8520   18.5280 C   0  0  0  0  0  0  0  0  0  0  0  0
   26.7720  -14.6880   19.1890 C   0  0  0  0  0  0  0  0  0  0  0  0
   25.8610  -13.6280   19.2740 C   0  0  0  0  0  0  0  0  0  0  0  0
   24.6210  -13.7770   18.6840 C   0  0  0  0  0  0  0  0  0  0  0  0
   28.0690  -15.0050   19.6050 C   0  0  0  0  0  0  0  0  0  0  0  0
   28.5370  -16.2240   19.2540 N   0  0  0  0  0  0  0  0  0  0  0  0
   27.4150  -16.7960   18.5290 O   0  0  0  0  0  0  0  0  0  0  0  0
   28.8900  -14.0370   20.3720 C   0  0  0  0  0  0  0  0  0  0  0  0
   30.2180  -14.4030   20.3480 F   0  0  0  0  0  0  0  0  0  0  0  0
   28.5420  -14.0480   21.6960 F   0  0  0  0  0  0  0  0  0  0  0  0
   28.7720  -12.7490   19.8810 F   0  0  0  0  0  0  0  0  0  0  0  0
   24.8550  -17.3300   17.1870 C   0  0  0  0  0  0  0  0  0  0  0  0
   24.5250  -18.4940   18.1080 C   0  0  0  0  0  0  0  0  0  0  0  0
   23.5110  -19.4110   17.4460 C   0  0  0  0  0  0  0  0  0  0  0  0
   18.0180  -18.8310   18.4020 Cl  0  0  0  0  0  0  0  0  0  0  0  0
   14.5650  -14.6590   18.8610 C   0  0  0  0  0  0  0  0  0  0  0  0
   13.3710  -15.3210   18.2290 C   0  0  0  0  0  0  0  0  0  0  0  0
   13.2740  -16.4140   17.7210 O   0  0  0  0  0  0  0  0  0  0  0  0
   12.2840  -14.5180   18.2720 O   0  0  0  0  0  0  0  0  0  0  0  0
   15.3616  -17.4278   18.3787 H   0  0  0  0  0  0  0  0  0  0  0  0
   19.1125  -14.3268   19.4976 H   0  0  0  0  0  0  0  0  0  0  0  0
   16.7983  -13.4550   19.3958 H   0  0  0  0  0  0  0  0  0  0  0  0
   21.7717  -17.2052   17.2676 H   0  0  0  0  0  0  0  0  0  0  0  0
   20.0510  -17.2564   16.7267 H   0  0  0  0  0  0  0  0  0  0  0  0
   21.1123  -15.2075   15.9170 H   0  0  0  0  0  0  0  0  0  0  0  0
   19.8756  -14.8104   17.1631 H   0  0  0  0  0  0  0  0  0  0  0  0
   21.9303  -13.4986   17.5909 H   0  0  0  0  0  0  0  0  0  0  0  0
   21.7339  -14.6514   18.8950 H   0  0  0  0  0  0  0  0  0  0  0  0
   26.1267  -12.6983   19.7984 H   0  0  0  0  0  0  0  0  0  0  0  0
   23.8887  -12.9577   18.7334 H   0  0  0  0  0  0  0  0  0  0  0  0
   23.9874  -17.1440   16.5368 H   0  0  0  0  0  0  0  0  0  0  0  0
   25.7516  -17.6138   16.6164 H   0  0  0  0  0  0  0  0  0  0  0  0
   25.4432  -19.0607   18.3217 H   0  0  0  0  0  0  0  0  0  0  0  0
   24.1003  -18.1034   19.0445 H   0  0  0  0  0  0  0  0  0  0  0  0
   22.9310  -19.9355   18.2196 H   0  0  0  0  0  0  0  0  0  0  0  0
   22.8314  -18.8146   16.8195 H   0  0  0  0  0  0  0  0  0  0  0  0
   24.0363  -20.1469   16.8195 H   0  0  0  0  0  0  0  0  0  0  0  0
   14.3004  -14.4664   19.9112 H   0  0  0  0  0  0  0  0  0  0  0  0
   14.7407  -13.7891   18.2111 H   0  0  0  0  0  0  0  0  0  0  0  0
   11.9080  -14.2402   19.1447 H   0  0  0  0  0  0  0  0  0  0  0  0
  6  1  2  0
 29  1  1  0
  1  2  1  0
  2  3  2  0
  4  3  1  0
  3 28  1  0
  5  4  2  0
  4  7  1  0
  6  5  1  0
  7  8  1  0
  8  9  1  0
  9 10  1  0
 11 10  1  0
 12 11  1  0
 17 12  1  0
 13 12  2  0
 14 13  1  0
 13 25  1  0
 15 14  2  0
 20 14  1  0
 18 15  1  0
 15 16  1  0
 16 17  2  0
 21 18  1  0
 18 19  2  0
 19 20  1  0
 23 21  1  0
 22 21  1  0
 21 24  1  0
 26 25  1  0
 26 27  1  0
 29 30  1  0
 30 31  2  0
 30 32  1  0
  2 33  1  0
  5 34  1  0
  6 35  1  0
  8 36  1  0
  8 37  1  0
  9 38  1  0
  9 39  1  0
 10 40  1  0
 10 41  1  0
 16 42  1  0
 17 43  1  0
 25 44  1  0
 25 45  1  0
 26 46  1  0
 26 47  1  0
 27 48  1  0
 27 49  1  0
 27 50  1  0
 29 51  1  0
 29 52  1  0
 32 53  1  0
A    1
C1
A    2
C2
A    3
C4
A    4
C5
A    5
C6
A    6
C8
A    7
S10
A    8
C11
A    9
C14
A   10
C17
A   11
O20
A   12
C21
A   13
C22
A   14
C23
A   15
C24
A   16
C25
A   17
C27
A   18
C29
A   19
N30
A   20
O31
A   21
C32
A   22
F33
A   23
F34
A   24
F35
A   25
C36
A   26
C39
A   27
C42
A   28
CL46
A   29
C47
A   30
C50
A   31
O51
A   32
O52
M  END
