3IPY_B87_A_263
     RDKit          3D

 54 58  0  0  0  0  0  0  0  0999 V2000
   10.1190    3.8720   17.3080 C   0  0  0  0  0  0  0  0  0  0  0  0
   10.3260    5.3080   16.8470 C   0  0  0  0  0  0  0  0  0  0  0  0
   11.5540    5.7350   17.5230 N   0  0  0  0  0  0  0  0  0  0  0  0
   12.1180    4.7540   18.4460 C   0  0  0  0  0  0  0  0  0  0  0  0
   11.1390    3.5890   18.4060 C   0  0  0  0  0  0  0  0  0  0  0  0
   12.1220    6.9230   17.3350 C   0  0  0  0  0  0  0  0  0  0  0  0
   13.1290    7.2600   17.9420 O   0  0  0  0  0  0  0  0  0  0  0  0
   11.4730    7.8680   16.3420 C   0  0  0  0  0  0  0  0  0  0  0  0
   12.2000    9.1250   16.2570 N   0  0  0  0  0  0  0  0  0  0  0  0
   13.5050    9.1550   15.5920 C   0  0  0  0  0  0  0  0  0  0  0  0
   13.7030   10.5580   15.0310 C   0  0  0  0  0  0  0  0  0  0  0  0
   13.6910   11.4560   16.1700 N   0  0  0  0  0  0  0  0  0  0  0  0
   12.6450   11.3830   17.1790 C   0  0  0  0  0  0  0  0  0  0  0  0
   11.5870   10.3240   16.8310 C   0  0  0  0  0  0  0  0  0  0  0  0
   14.6950   12.4240   16.2990 C   0  0  0  0  0  0  0  0  0  0  0  0
   15.9060   12.2980   15.6160 C   0  0  0  0  0  0  0  0  0  0  0  0
   16.8790   13.2890   15.7710 C   0  0  0  0  0  0  0  0  0  0  0  0
   16.6160   14.3460   16.5760 N   0  0  0  0  0  0  0  0  0  0  0  0
   15.4440   14.4550   17.2180 C   0  0  0  0  0  0  0  0  0  0  0  0
   14.4920   13.5140   17.0890 N   0  0  0  0  0  0  0  0  0  0  0  0
   18.1980   13.2040   15.0500 C   0  0  0  0  0  0  0  0  0  0  0  0
   19.2780   14.5330   15.4040 S   0  0  0  0  0  0  0  0  0  0  0  0
   20.5110   14.0070   14.4080 C   0  0  0  0  0  0  0  0  0  0  0  0
   20.0910   12.7540   13.7590 C   0  0  0  0  0  0  0  0  0  0  0  0
   18.7620   12.3010   14.1310 C   0  0  0  0  0  0  0  0  0  0  0  0
   21.7440   14.6140   14.1900 C   0  0  0  0  0  0  0  0  0  0  0  0
   22.6180   13.9780   13.3020 C   0  0  0  0  0  0  0  0  0  0  0  0
   22.2500   12.7800   12.6690 C   0  0  0  0  0  0  0  0  0  0  0  0
   21.0030   12.1680   12.8850 C   0  0  0  0  0  0  0  0  0  0  0  0
    9.0995    3.7477   17.7019 H   0  0  0  0  0  0  0  0  0  0  0  0
   10.2512    3.1737   16.4684 H   0  0  0  0  0  0  0  0  0  0  0  0
   10.4476    5.3523   15.7546 H   0  0  0  0  0  0  0  0  0  0  0  0
    9.4686    5.9534   17.0885 H   0  0  0  0  0  0  0  0  0  0  0  0
   13.1164    4.4349   18.1124 H   0  0  0  0  0  0  0  0  0  0  0  0
   12.2464    5.1588   19.4607 H   0  0  0  0  0  0  0  0  0  0  0  0
   10.6283    3.4964   19.3758 H   0  0  0  0  0  0  0  0  0  0  0  0
   11.6709    2.6481   18.2019 H   0  0  0  0  0  0  0  0  0  0  0  0
   11.4613    7.3929   15.3500 H   0  0  0  0  0  0  0  0  0  0  0  0
   10.4492    8.0811   16.6831 H   0  0  0  0  0  0  0  0  0  0  0  0
   14.3005    8.9246   16.3160 H   0  0  0  0  0  0  0  0  0  0  0  0
   13.5458    8.4071   14.7864 H   0  0  0  0  0  0  0  0  0  0  0  0
   14.6657   10.6250   14.5030 H   0  0  0  0  0  0  0  0  0  0  0  0
   12.9136   10.8158   14.3096 H   0  0  0  0  0  0  0  0  0  0  0  0
   13.1011   11.1257   18.1463 H   0  0  0  0  0  0  0  0  0  0  0  0
   12.1457   12.3621   17.2244 H   0  0  0  0  0  0  0  0  0  0  0  0
   10.8814   10.7491   16.1021 H   0  0  0  0  0  0  0  0  0  0  0  0
   11.0666   10.0374   17.7567 H   0  0  0  0  0  0  0  0  0  0  0  0
   16.0917   11.4309   14.9651 H   0  0  0  0  0  0  0  0  0  0  0  0
   15.2582   15.3282   17.8606 H   0  0  0  0  0  0  0  0  0  0  0  0
   18.2722   11.3918   13.7523 H   0  0  0  0  0  0  0  0  0  0  0  0
   22.0193   15.5524   14.6936 H   0  0  0  0  0  0  0  0  0  0  0  0
   23.6038   14.4211   13.0975 H   0  0  0  0  0  0  0  0  0  0  0  0
   22.9626   12.3035   11.9797 H   0  0  0  0  0  0  0  0  0  0  0  0
   20.7491   11.2316   12.3666 H   0  0  0  0  0  0  0  0  0  0  0  0
  1  2  1  0
  1  5  1  0
  2  3  1  0
  3  4  1  0
  3  6  1  0
  4  5  1  0
  6  7  2  0
  6  8  1  0
  8  9  1  0
  9 10  1  0
  9 14  1  0
 10 11  1  0
 11 12  1  0
 12 13  1  0
 12 15  1  0
 13 14  1  0
 15 16  2  0
 15 20  1  0
 16 17  1  0
 17 18  2  0
 17 21  1  0
 18 19  1  0
 19 20  2  0
 21 22  1  0
 21 25  2  0
 22 23  1  0
 23 24  2  0
 23 26  1  0
 24 25  1  0
 24 29  1  0
 26 27  2  0
 27 28  1  0
 28 29  2  0
  1 30  1  0
  1 31  1  0
  2 32  1  0
  2 33  1  0
  4 34  1  0
  4 35  1  0
  5 36  1  0
  5 37  1  0
  8 38  1  0
  8 39  1  0
 10 40  1  0
 10 41  1  0
 11 42  1  0
 11 43  1  0
 13 44  1  0
 13 45  1  0
 14 46  1  0
 14 47  1  0
 16 48  1  0
 19 49  1  0
 25 50  1  0
 26 51  1  0
 27 52  1  0
 28 53  1  0
 29 54  1  0
A    1
C1
A    2
C2
A    3
N3
A    4
C4
A    5
C5
A    6
C6
A    7
O7
A    8
C8
A    9
N9
A   10
C10
A   11
C11
A   12
N12
A   13
C13
A   14
C14
A   15
C15
A   16
C16
A   17
C17
A   18
N18
A   19
C19
A   20
N20
A   21
C21
A   22
S22
A   23
C23
A   24
C24
A   25
C25
A   26
C26
A   27
C27
A   28
C28
A   29
C29
M  END
