1Q16_MD1_A_1300
     RDKit          3D

 73 77  0  0  0  0  0  0  0  0999 V2000
 -124.3830  -63.4600  -23.9520 P   0  0  0  0  0  0  0  0  0  0  0  0
 -125.6610  -62.5060  -23.7950 O   0  0  0  0  0  0  0  0  0  0  0  0
 -124.7140  -64.5370  -24.9140 O   0  0  0  0  0  0  0  0  0  0  0  0
 -123.2410  -62.6330  -24.2920 O   0  0  0  0  0  0  0  0  0  0  0  0
 -124.1380  -64.1510  -22.5210 O   0  0  0  0  0  0  0  0  0  0  0  0
 -125.0380  -65.0170  -21.8380 C   0  0  0  0  0  0  0  0  0  0  0  0
 -124.2040  -65.4490  -20.6030 C   0  0  0  0  0  0  0  0  0  0  0  0
 -123.8330  -64.2510  -19.9150 O   0  0  0  0  0  0  0  0  0  0  0  0
 -125.0160  -66.3940  -19.6130 C   0  0  0  0  0  0  0  0  0  0  0  0
 -126.6650  -66.8960  -19.9720 S   0  0  0  0  0  0  0  0  0  0  0  0
 -124.5140  -66.8810  -18.3680 C   0  0  0  0  0  0  0  0  0  0  0  0
 -125.6340  -67.8530  -17.4340 S   0  0  0  0  0  0  0  0  0  0  0  0
 -123.1260  -66.6650  -17.7170 C   0  0  0  0  0  0  0  0  0  0  0  0
 -123.4520  -65.8970  -16.4980 N   0  0  0  0  0  0  0  0  0  0  0  0
 -122.3940  -65.4560  -15.7000 C   0  0  0  0  0  0  0  0  0  0  0  0
 -122.5550  -65.2450  -14.3010 C   0  0  0  0  0  0  0  0  0  0  0  0
 -123.6350  -65.4590  -13.7470 O   0  0  0  0  0  0  0  0  0  0  0  0
 -121.4170  -64.7740  -13.5870 N   0  0  0  0  0  0  0  0  0  0  0  0
 -120.1650  -64.5120  -14.1810 C   0  0  0  0  0  0  0  0  0  0  0  0
 -119.1590  -64.0680  -13.4280 N   0  0  0  0  0  0  0  0  0  0  0  0
 -120.0270  -64.7220  -15.5180 N   0  0  0  0  0  0  0  0  0  0  0  0
 -121.0760  -65.1790  -16.3070 C   0  0  0  0  0  0  0  0  0  0  0  0
 -120.8830  -65.3740  -17.6860 N   0  0  0  0  0  0  0  0  0  0  0  0
 -122.0530  -65.8630  -18.4930 C   0  0  0  0  0  0  0  0  0  0  0  0
 -125.8120  -60.9390  -23.9340 P   0  0  0  0  0  0  0  0  0  0  0  0
 -124.8110  -60.3240  -23.0570 O   0  0  0  0  0  0  0  0  0  0  0  0
 -127.2550  -60.5930  -23.7230 O   0  0  0  0  0  0  0  0  0  0  0  0
 -125.3600  -60.8580  -25.4840 O   0  0  0  0  0  0  0  0  0  0  0  0
 -126.2990  -60.5310  -26.4940 C   0  0  0  0  0  0  0  0  0  0  0  0
 -125.6620  -59.6460  -27.5280 C   0  0  0  0  0  0  0  0  0  0  0  0
 -126.2000  -60.0130  -28.8000 O   0  0  0  0  0  0  0  0  0  0  0  0
 -126.8930  -58.8940  -29.3830 C   0  0  0  0  0  0  0  0  0  0  0  0
 -128.0610  -59.4870  -30.0600 N   0  0  0  0  0  0  0  0  0  0  0  0
 -128.0480  -59.9140  -31.3820 C   0  0  0  0  0  0  0  0  0  0  0  0
 -126.9660  -59.8600  -32.2770 N   0  0  0  0  0  0  0  0  0  0  0  0
 -127.2290  -60.3550  -33.5190 C   0  0  0  0  0  0  0  0  0  0  0  0
 -126.3150  -60.3790  -34.4670 N   0  0  0  0  0  0  0  0  0  0  0  0
 -128.4940  -60.8680  -33.8430 N   0  0  0  0  0  0  0  0  0  0  0  0
 -129.5960  -60.9300  -32.9560 C   0  0  0  0  0  0  0  0  0  0  0  0
 -130.6780  -61.3960  -33.3110 O   0  0  0  0  0  0  0  0  0  0  0  0
 -129.3390  -60.4160  -31.6420 C   0  0  0  0  0  0  0  0  0  0  0  0
 -130.1440  -60.3120  -30.5250 N   0  0  0  0  0  0  0  0  0  0  0  0
 -129.3540  -59.7640  -29.6230 C   0  0  0  0  0  0  0  0  0  0  0  0
 -127.2150  -57.9400  -28.2000 C   0  0  0  0  0  0  0  0  0  0  0  0
 -127.3510  -56.5490  -28.5440 O   0  0  0  0  0  0  0  0  0  0  0  0
 -126.0140  -58.1760  -27.2590 C   0  0  0  0  0  0  0  0  0  0  0  0
 -124.9020  -57.3150  -27.5020 O   0  0  0  0  0  0  0  0  0  0  0  0
 -124.9658  -65.3562  -24.4184 H   0  0  0  0  0  0  0  0  0  0  0  0
 -125.9518  -64.4844  -21.5357 H   0  0  0  0  0  0  0  0  0  0  0  0
 -125.3893  -65.8605  -22.4504 H   0  0  0  0  0  0  0  0  0  0  0  0
 -123.3317  -66.0266  -20.9428 H   0  0  0  0  0  0  0  0  0  0  0  0
 -123.8802  -64.4035  -18.9380 H   0  0  0  0  0  0  0  0  0  0  0  0
 -127.3446  -67.1029  -18.8006 H   0  0  0  0  0  0  0  0  0  0  0  0
 -125.4060  -67.6551  -16.0977 H   0  0  0  0  0  0  0  0  0  0  0  0
 -122.6586  -67.6551  -17.6106 H   0  0  0  0  0  0  0  0  0  0  0  0
 -124.4292  -65.6930  -16.2444 H   0  0  0  0  0  0  0  0  0  0  0  0
 -121.5140  -64.6147  -12.5740 H   0  0  0  0  0  0  0  0  0  0  0  0
 -119.2313  -64.0999  -12.4010 H   0  0  0  0  0  0  0  0  0  0  0  0
 -118.3092  -63.6929  -13.8730 H   0  0  0  0  0  0  0  0  0  0  0  0
 -122.1416  -65.6629  -19.5710 H   0  0  0  0  0  0  0  0  0  0  0  0
 -125.0614  -60.4779  -22.1116 H   0  0  0  0  0  0  0  0  0  0  0  0
 -126.6523  -61.4552  -26.9746 H   0  0  0  0  0  0  0  0  0  0  0  0
 -127.1459  -59.9976  -26.0376 H   0  0  0  0  0  0  0  0  0  0  0  0
 -124.5688  -59.7646  -27.4995 H   0  0  0  0  0  0  0  0  0  0  0  0
 -126.3468  -58.2979  -30.1289 H   0  0  0  0  0  0  0  0  0  0  0  0
 -125.3158  -60.4052  -34.2185 H   0  0  0  0  0  0  0  0  0  0  0  0
 -126.5994  -60.3715  -35.4569 H   0  0  0  0  0  0  0  0  0  0  0  0
 -128.6315  -61.2268  -34.7987 H   0  0  0  0  0  0  0  0  0  0  0  0
 -129.6915  -59.5418  -28.5999 H   0  0  0  0  0  0  0  0  0  0  0  0
 -128.2017  -58.1609  -27.7668 H   0  0  0  0  0  0  0  0  0  0  0  0
 -127.4039  -56.0081  -27.7165 H   0  0  0  0  0  0  0  0  0  0  0  0
 -126.2668  -57.9552  -26.2115 H   0  0  0  0  0  0  0  0  0  0  0  0
 -124.5192  -57.0186  -26.6384 H   0  0  0  0  0  0  0  0  0  0  0  0
  1  2  1  0
  1  3  1  0
  1  4  2  0
  1  5  1  0
  2 25  1  0
  5  6  1  0
  6  7  1  0
  7  8  1  0
  7  9  1  0
  9 10  1  0
  9 11  2  0
 11 12  1  0
 11 13  1  0
 13 14  1  0
 13 24  1  0
 14 15  1  0
 15 16  1  0
 15 22  2  0
 16 17  2  0
 16 18  1  0
 18 19  1  0
 19 20  1  0
 19 21  2  0
 21 22  1  0
 22 23  1  0
 23 24  2  0
 25 26  1  0
 25 27  2  0
 25 28  1  0
 28 29  1  0
 29 30  1  0
 30 31  1  0
 30 46  1  0
 31 32  1  0
 32 33  1  0
 32 44  1  0
 33 34  1  0
 33 43  1  0
 34 35  1  0
 34 41  2  0
 35 36  2  0
 36 37  1  0
 36 38  1  0
 38 39  1  0
 39 40  2  0
 39 41  1  0
 41 42  1  0
 42 43  2  0
 44 45  1  0
 44 46  1  0
 46 47  1  0
  3 48  1  0
  6 49  1  0
  6 50  1  0
  7 51  1  0
  8 52  1  0
 10 53  1  0
 12 54  1  0
 13 55  1  0
 14 56  1  0
 18 57  1  0
 20 58  1  0
 20 59  1  0
 24 60  1  0
 26 61  1  0
 29 62  1  0
 29 63  1  0
 30 64  1  0
 32 65  1  0
 37 66  1  0
 37 67  1  0
 38 68  1  0
 43 69  1  0
 44 70  1  0
 45 71  1  0
 46 72  1  0
 47 73  1  0
A    1
PB
A    2
O3B
A    3
O1B
A    4
O2B
A    5
O3A
A    6
C10
A    7
C11
A    8
O11
A    9
C12
A   10
S12
A   11
C13
A   12
S13
A   13
C14
A   14
N15
A   15
C16
A   16
C15
A   17
O14
A   18
N17
A   19
C17
A   20
N16
A   21
N18
A   22
C20
A   23
N8
A   24
C7
A   25
PA
A   26
O1A
A   27
O2A
A   28
O5'
A   29
C5'
A   30
C4'
A   31
O4'
A   32
C1'
A   33
N9
A   34
C4
A   35
N3
A   36
C2
A   37
N2
A   38
N1
A   39
C6
A   40
O6
A   41
C5
A   42
N7
A   43
C8
A   44
C2'
A   45
O2'
A   46
C3'
A   47
O3'
M  END
