3IS9_AC7_A_556
     RDKit          3D

 63 64  0  0  0  0  0  0  0  0999 V2000
   50.0780  -28.7320   38.2230 C   0  0  0  0  0  0  0  0  0  0  0  0
   51.1610  -30.4810   35.0620 O   0  0  0  0  0  0  0  0  0  0  0  0
   50.8800  -29.0920   37.0940 C   0  0  0  0  0  0  0  0  0  0  0  0
   46.2770  -33.0780   43.3100 O   0  0  0  0  0  0  0  0  0  0  0  0
   50.4020  -30.1070   36.1830 C   0  0  0  0  0  0  0  0  0  0  0  0
   50.8840  -23.4290   36.9350 O   0  0  0  0  0  0  0  0  0  0  0  0
   49.0810  -30.6380   36.3720 C   0  0  0  0  0  0  0  0  0  0  0  0
   48.3140  -30.2690   37.4840 C   0  0  0  0  0  0  0  0  0  0  0  0
   52.7230  -27.4860   37.9320 O   0  0  0  0  0  0  0  0  0  0  0  0
   48.7630  -29.2870   38.4090 C   0  0  0  0  0  0  0  0  0  0  0  0
   52.2600  -28.4570   36.9450 C   0  0  0  0  0  0  0  0  0  0  0  0
   48.4850  -34.6450   42.2630 O   0  0  0  0  0  0  0  0  0  0  0  0
   47.8620  -28.8750   39.6160 C   0  0  0  0  0  0  0  0  0  0  0  0
   47.3970  -27.5950   39.7910 C   0  0  0  0  0  0  0  0  0  0  0  0
   46.6500  -32.0640   42.4300 C   0  0  0  0  0  0  0  0  0  0  0  0
   45.9410  -30.8010   42.4270 C   0  0  0  0  0  0  0  0  0  0  0  0
   46.3310  -29.7760   41.5070 C   0  0  0  0  0  0  0  0  0  0  0  0
   47.4390  -29.9640   40.6240 C   0  0  0  0  0  0  0  0  0  0  0  0
   48.1220  -31.1970   40.6590 C   0  0  0  0  0  0  0  0  0  0  0  0
   47.7750  -32.2300   41.5400 C   0  0  0  0  0  0  0  0  0  0  0  0
   48.6310  -33.4810   41.4210 C   0  0  0  0  0  0  0  0  0  0  0  0
   47.6760  -26.4120   38.8800 C   0  0  0  0  0  0  0  0  0  0  0  0
   48.8430  -25.5930   39.3880 C   0  0  0  0  0  0  0  0  0  0  0  0
   49.0600  -24.3980   38.4590 C   0  0  0  0  0  0  0  0  0  0  0  0
   50.3360  -24.5690   37.6550 C   0  0  0  0  0  0  0  0  0  0  0  0
   52.1170  -23.4990   36.2090 C   0  0  0  0  0  0  0  0  0  0  0  0
   51.0120  -29.8900   33.7540 C   0  0  0  0  0  0  0  0  0  0  0  0
   45.2570  -34.0320   42.9220 C   0  0  0  0  0  0  0  0  0  0  0  0
   53.9920  -27.6510   38.5720 C   0  0  0  0  0  0  0  0  0  0  0  0
   49.1610  -35.8510   41.8700 C   0  0  0  0  0  0  0  0  0  0  0  0
   52.9960  -28.7190   35.9900 O   0  0  0  0  0  0  0  0  0  0  0  0
   49.5160  -33.5310   40.5610 O   0  0  0  0  0  0  0  0  0  0  0  0
   50.9150  -25.6540   37.5960 O   0  0  0  0  0  0  0  0  0  0  0  0
   48.1740  -32.3420   34.8860 N   0  0  0  0  0  0  0  0  0  0  0  0
   44.0190  -30.3670   43.9280 N   0  0  0  0  0  0  0  0  0  0  0  0
   48.6020  -31.5380   35.5970 C   0  0  0  0  0  0  0  0  0  0  0  0
   44.9210  -30.5790   43.2150 C   0  0  0  0  0  0  0  0  0  0  0  0
   50.4732  -28.0189   38.9614 H   0  0  0  0  0  0  0  0  0  0  0  0
   47.3388  -30.7514   37.6461 H   0  0  0  0  0  0  0  0  0  0  0  0
   46.7645  -27.4092   40.6716 H   0  0  0  0  0  0  0  0  0  0  0  0
   45.7700  -28.8302   41.4792 H   0  0  0  0  0  0  0  0  0  0  0  0
   48.9618  -31.3545   39.9662 H   0  0  0  0  0  0  0  0  0  0  0  0
   47.9103  -26.7833   37.8714 H   0  0  0  0  0  0  0  0  0  0  0  0
   46.7829  -25.7702   38.8594 H   0  0  0  0  0  0  0  0  0  0  0  0
   48.6257  -25.2340   40.4048 H   0  0  0  0  0  0  0  0  0  0  0  0
   49.7501  -26.2149   39.4086 H   0  0  0  0  0  0  0  0  0  0  0  0
   48.2068  -24.3169   37.7695 H   0  0  0  0  0  0  0  0  0  0  0  0
   49.1454  -23.4865   39.0689 H   0  0  0  0  0  0  0  0  0  0  0  0
   52.9573  -23.5467   36.9172 H   0  0  0  0  0  0  0  0  0  0  0  0
   52.1193  -24.3987   35.5762 H   0  0  0  0  0  0  0  0  0  0  0  0
   52.2211  -22.6053   35.5762 H   0  0  0  0  0  0  0  0  0  0  0  0
   50.7443  -28.8283   33.8597 H   0  0  0  0  0  0  0  0  0  0  0  0
   51.9599  -29.9760   33.2026 H   0  0  0  0  0  0  0  0  0  0  0  0
   50.2182  -30.4152   33.2026 H   0  0  0  0  0  0  0  0  0  0  0  0
   44.7962  -34.4629   43.8231 H   0  0  0  0  0  0  0  0  0  0  0  0
   44.4868  -33.5226   42.3242 H   0  0  0  0  0  0  0  0  0  0  0  0
   45.7139  -34.8345   42.3242 H   0  0  0  0  0  0  0  0  0  0  0  0
   53.8572  -27.6335   39.6636 H   0  0  0  0  0  0  0  0  0  0  0  0
   54.4314  -28.6138   38.2722 H   0  0  0  0  0  0  0  0  0  0  0  0
   54.6630  -26.8325   38.2722 H   0  0  0  0  0  0  0  0  0  0  0  0
   49.4721  -36.4060   42.7673 H   0  0  0  0  0  0  0  0  0  0  0  0
   48.4807  -36.4741   41.2710 H   0  0  0  0  0  0  0  0  0  0  0  0
   50.0476  -35.5958   41.2710 H   0  0  0  0  0  0  0  0  0  0  0  0
  3  1  2  0
  1 10  1  0
 27  2  1  0
  2  5  1  0
  5  3  1  0
 11  3  1  0
 15  4  1  0
 28  4  1  0
  5  7  2  0
 26  6  1  0
  6 25  1  0
 36  7  1  0
  7  8  1  0
  8 10  2  0
 11  9  1  0
  9 29  1  0
 10 13  1  0
 31 11  2  0
 21 12  1  0
 30 12  1  0
 13 14  2  0
 13 18  1  0
 22 14  1  0
 20 15  2  0
 16 15  1  0
 17 16  2  0
 16 37  1  0
 18 17  1  0
 18 19  2  0
 19 20  1  0
 21 20  1  0
 32 21  2  0
 22 23  1  0
 24 23  1  0
 25 24  1  0
 33 25  2  0
 34 36  3  0
 37 35  3  0
  1 38  1  0
  8 39  1  0
 14 40  1  0
 17 41  1  0
 19 42  1  0
 22 43  1  0
 22 44  1  0
 23 45  1  0
 23 46  1  0
 24 47  1  0
 24 48  1  0
 26 49  1  0
 26 50  1  0
 26 51  1  0
 27 52  1  0
 27 53  1  0
 27 54  1  0
 28 55  1  0
 28 56  1  0
 28 57  1  0
 29 58  1  0
 29 59  1  0
 29 60  1  0
 30 61  1  0
 30 62  1  0
 30 63  1  0
A    1
C1
A    2
O1
A    3
C2
A    4
O2
A    5
C3
A    6
O3
A    7
C4
A    8
C5
A    9
O5
A   10
C6
A   11
C7
A   12
O7
A   13
C8
A   14
C9
A   15
C10
A   16
C11
A   17
C12
A   18
C13
A   19
C14
A   20
C15
A   21
C16
A   22
C17
A   23
C18
A   24
C19
A   25
C20
A   26
C21
A   27
C22
A   28
C23
A   29
C24
A   30
C25
A   31
O35
A   32
O36
A   33
O37
A   34
N69
A   35
N74
A   36
C77
A   37
C82
M  END
