3ISJ_A8D_A_308
     RDKit          3D

 30 31  0  0  0  0  0  0  0  0999 V2000
   11.0400    9.5660   -5.2060 C   0  0  0  0  0  0  0  0  0  0  0  0
   14.2820   10.5410    4.7060 C   0  0  0  0  0  0  0  0  0  0  0  0
   17.0380   11.3770    1.0800 O   0  0  0  0  0  0  0  0  0  0  0  0
   16.8010   10.4920    3.8290 O   0  0  0  0  0  0  0  0  0  0  0  0
   15.7360   12.7050    3.6400 O   0  0  0  0  0  0  0  0  0  0  0  0
   14.6860   10.1600   -4.7680 C   0  0  0  0  0  0  0  0  0  0  0  0
   15.6850   10.4580   -3.8230 C   0  0  0  0  0  0  0  0  0  0  0  0
   13.0970    9.9720   -2.9520 C   0  0  0  0  0  0  0  0  0  0  0  0
   14.1390   10.4010   -0.7280 C   0  0  0  0  0  0  0  0  0  0  0  0
   14.9930   10.8070    1.9470 N   0  0  0  0  0  0  0  0  0  0  0  0
   16.1710   10.7820   -1.4720 N   0  0  0  0  0  0  0  0  0  0  0  0
   12.4860    9.5880   -5.3440 O   0  0  0  0  0  0  0  0  0  0  0  0
   15.8730   10.9740    0.9110 C   0  0  0  0  0  0  0  0  0  0  0  0
   13.3710    9.9150   -4.3520 C   0  0  0  0  0  0  0  0  0  0  0  0
   15.3970   10.7170   -0.3580 C   0  0  0  0  0  0  0  0  0  0  0  0
   14.1150   10.2490   -2.0700 C   0  0  0  0  0  0  0  0  0  0  0  0
   15.3830   10.5020   -2.5250 C   0  0  0  0  0  0  0  0  0  0  0  0
   15.5060   11.1820    3.5930 S   0  0  0  0  0  0  0  0  0  0  0  0
   10.7735    9.5619   -4.1388 H   0  0  0  0  0  0  0  0  0  0  0  0
   10.6121   10.4577   -5.6874 H   0  0  0  0  0  0  0  0  0  0  0  0
   10.6394    8.6617   -5.6874 H   0  0  0  0  0  0  0  0  0  0  0  0
   14.6054   10.7104    5.7437 H   0  0  0  0  0  0  0  0  0  0  0  0
   13.3242   11.0533    4.5322 H   0  0  0  0  0  0  0  0  0  0  0  0
   14.1575    9.4620    4.5322 H   0  0  0  0  0  0  0  0  0  0  0  0
   14.9387   10.1193   -5.8378 H   0  0  0  0  0  0  0  0  0  0  0  0
   16.7151   10.6547   -4.1550 H   0  0  0  0  0  0  0  0  0  0  0  0
   12.0767    9.7952   -2.5808 H   0  0  0  0  0  0  0  0  0  0  0  0
   13.2789   10.2865   -0.0519 H   0  0  0  0  0  0  0  0  0  0  0  0
   14.0384   10.4649    1.7665 H   0  0  0  0  0  0  0  0  0  0  0  0
   17.1761   11.0047   -1.5044 H   0  0  0  0  0  0  0  0  0  0  0  0
 12  1  1  0
 18  2  1  0
 13  3  2  0
 18  4  2  0
 18  5  2  0
  6 14  2  0
  6  7  1  0
  7 17  2  0
 14  8  1  0
  8 16  2  0
 16  9  1  0
  9 15  2  0
 13 10  1  0
 10 18  1  0
 17 11  1  0
 11 15  1  0
 12 14  1  0
 15 13  1  0
 17 16  1  0
  1 19  1  0
  1 20  1  0
  1 21  1  0
  2 22  1  0
  2 23  1  0
  2 24  1  0
  6 25  1  0
  7 26  1  0
  8 27  1  0
  9 28  1  0
 10 29  1  0
 11 30  1  0
A    1
CAA
A    2
CAB
A    3
OAC
A    4
OAD
A    5
OAE
A    6
CAF
A    7
CAG
A    8
CAH
A    9
CAI
A   10
NAJ
A   11
NAK
A   12
OAL
A   13
CAM
A   14
CAN
A   15
CAO
A   16
CAP
A   17
CAQ
A   18
SAR
M  END
