3ITZ_P66_A_401
     RDKit          3D

 46 50  0  0  0  0  0  0  0  0999 V2000
    1.9830   31.0080   31.0480 N   0  0  0  0  0  0  0  0  0  0  0  0
   -0.4300   34.2020   30.9690 N   0  0  0  0  0  0  0  0  0  0  0  0
   -1.7040   34.3970   31.3390 C   0  0  0  0  0  0  0  0  0  0  0  0
   -2.7500   34.1340   30.4560 C   0  0  0  0  0  0  0  0  0  0  0  0
   -2.0020   34.8700   32.6210 C   0  0  0  0  0  0  0  0  0  0  0  0
    2.4040   32.2100   30.5850 C   0  0  0  0  0  0  0  0  0  0  0  0
   -4.0720   34.3380   30.8490 C   0  0  0  0  0  0  0  0  0  0  0  0
   -3.3250   35.0810   33.0180 C   0  0  0  0  0  0  0  0  0  0  0  0
    4.4680   30.4450   29.0390 C   0  0  0  0  0  0  0  0  0  0  0  0
    6.3650   29.2370   29.9250 C   0  0  0  0  0  0  0  0  0  0  0  0
    5.5340   31.2080   31.0650 C   0  0  0  0  0  0  0  0  0  0  0  0
    6.5090   26.9030   25.2830 C   0  0  0  0  0  0  0  0  0  0  0  0
    7.6190   26.1930   26.0500 C   0  0  0  0  0  0  0  0  0  0  0  0
    6.2440   26.3920   26.7020 C   0  0  0  0  0  0  0  0  0  0  0  0
    6.1790   27.4270   27.7500 N   0  0  0  0  0  0  0  0  0  0  0  0
    5.2570   28.3990   27.7800 C   0  0  0  0  0  0  0  0  0  0  0  0
    4.3680   28.5490   26.9400 O   0  0  0  0  0  0  0  0  0  0  0  0
    5.3700   29.3820   28.9560 C   0  0  0  0  0  0  0  0  0  0  0  0
    6.4450   30.1490   30.9780 C   0  0  0  0  0  0  0  0  0  0  0  0
    5.6770   32.3170   32.3890 Cl  0  0  0  0  0  0  0  0  0  0  0  0
    4.5390   31.3620   30.0890 C   0  0  0  0  0  0  0  0  0  0  0  0
    3.6590   32.3700   30.1360 N   0  0  0  0  0  0  0  0  0  0  0  0
    0.8350   30.8120   31.4770 N   0  0  0  0  0  0  0  0  0  0  0  0
   -0.0950   31.7640   31.5220 C   0  0  0  0  0  0  0  0  0  0  0  0
    0.2200   33.0440   31.0690 C   0  0  0  0  0  0  0  0  0  0  0  0
    1.4950   33.2770   30.5890 C   0  0  0  0  0  0  0  0  0  0  0  0
    1.5160   34.5620   30.2320 C   0  0  0  0  0  0  0  0  0  0  0  0
    0.3070   35.0760   30.4890 N   0  0  0  0  0  0  0  0  0  0  0  0
   -2.4870   33.6750   29.2200 F   0  0  0  0  0  0  0  0  0  0  0  0
   -4.3640   34.8150   32.1290 C   0  0  0  0  0  0  0  0  0  0  0  0
   -1.0100   35.1250   33.4890 F   0  0  0  0  0  0  0  0  0  0  0  0
   -4.8904   34.1219   30.1465 H   0  0  0  0  0  0  0  0  0  0  0  0
   -3.5452   35.4557   34.0285 H   0  0  0  0  0  0  0  0  0  0  0  0
    3.6923   30.5610   28.2677 H   0  0  0  0  0  0  0  0  0  0  0  0
    7.0833   28.4066   29.8584 H   0  0  0  0  0  0  0  0  0  0  0  0
    6.5778   27.9842   25.0926 H   0  0  0  0  0  0  0  0  0  0  0  0
    6.0279   26.7600   24.3042 H   0  0  0  0  0  0  0  0  0  0  0  0
    7.9420   25.1870   25.7441 H   0  0  0  0  0  0  0  0  0  0  0  0
    8.6541   26.4414   26.3272 H   0  0  0  0  0  0  0  0  0  0  0  0
    5.4977   25.7322   27.1685 H   0  0  0  0  0  0  0  0  0  0  0  0
    6.8824   27.4015   28.5020 H   0  0  0  0  0  0  0  0  0  0  0  0
    7.2273   30.0352   31.7429 H   0  0  0  0  0  0  0  0  0  0  0  0
    3.9559   33.3028   29.8158 H   0  0  0  0  0  0  0  0  0  0  0  0
   -1.0995   31.5430   31.9119 H   0  0  0  0  0  0  0  0  0  0  0  0
    2.3729   35.1023   29.8034 H   0  0  0  0  0  0  0  0  0  0  0  0
   -5.4082   34.9796   32.4332 H   0  0  0  0  0  0  0  0  0  0  0  0
  6  1  2  0
  1 23  1  0
 28  2  1  0
  2 25  1  0
  2  3  1  0
  4  3  2  0
  3  5  1  0
 29  4  1  0
  4  7  1  0
  5  8  2  0
  5 31  1  0
 22  6  1  0
  6 26  1  0
  7 30  2  0
 30  8  1  0
 18  9  2  0
  9 21  1  0
 18 10  1  0
 10 19  2  0
 21 11  2  0
 19 11  1  0
 11 20  1  0
 12 13  1  0
 12 14  1  0
 13 14  1  0
 14 15  1  0
 15 16  1  0
 17 16  2  0
 16 18  1  0
 21 22  1  0
 23 24  2  0
 25 24  1  0
 26 25  2  0
 27 26  1  0
 27 28  2  0
  7 32  1  0
  8 33  1  0
  9 34  1  0
 10 35  1  0
 12 36  1  0
 12 37  1  0
 13 38  1  0
 13 39  1  0
 14 40  1  0
 15 41  1  0
 19 42  1  0
 22 43  1  0
 24 44  1  0
 27 45  1  0
 30 46  1  0
A    1
N1
A    2
N3
A    3
C4
A    4
C5
A    5
C6
A    6
C7
A    7
C8
A    8
C10
A    9
C13
A   10
C15
A   11
C17
A   12
C20
A   13
C21
A   14
C19
A   15
N5
A   16
C18
A   17
O1
A   18
C14
A   19
C16
A   20
CL1
A   21
C12
A   22
N4
A   23
N6
A   24
C11
A   25
C1
A   26
C2
A   27
C3
A   28
N2
A   29
F1
A   30
C9
A   31
F2
M  END
