3IU2_096_A_1002
     RDKit          3D

 61 64  0  0  0  0  0  0  0  0999 V2000
  -10.7410   22.7910   -0.9890 S   0  0  0  0  0  0  0  0  0  0  0  0
   -7.5470   22.3630    3.9450 C   0  0  0  0  0  0  0  0  0  0  0  0
   -8.3840   23.7340   -1.1160 N   0  0  0  0  0  0  0  0  0  0  0  0
   -6.9760   21.3070    3.1720 O   0  0  0  0  0  0  0  0  0  0  0  0
   -7.5510   20.8930    1.9930 C   0  0  0  0  0  0  0  0  0  0  0  0
   -4.7620   23.3120   -1.6450 N   0  0  0  0  0  0  0  0  0  0  0  0
   -8.7950   25.9520   -1.3180 O   0  0  0  0  0  0  0  0  0  0  0  0
   -7.9830   21.8230    1.0420 C   0  0  0  0  0  0  0  0  0  0  0  0
  -12.9220   18.9280   -0.9740 N   0  0  0  0  0  0  0  0  0  0  0  0
   -7.2840   18.6050    2.6540 O   0  0  0  0  0  0  0  0  0  0  0  0
   -8.5710   21.4080   -0.1580 C   0  0  0  0  0  0  0  0  0  0  0  0
  -15.4710   18.5880   -0.5530 N   0  0  0  0  0  0  0  0  0  0  0  0
   -9.0290   22.4120   -1.1680 C   0  0  0  0  0  0  0  0  0  0  0  0
  -10.6710   24.5130   -1.3160 C   0  0  0  0  0  0  0  0  0  0  0  0
   -9.1890   24.8050   -1.2430 C   0  0  0  0  0  0  0  0  0  0  0  0
   -6.9810   23.9150   -0.9960 C   0  0  0  0  0  0  0  0  0  0  0  0
   -6.4550   24.8820   -0.1310 C   0  0  0  0  0  0  0  0  0  0  0  0
   -5.0710   25.0470   -0.0490 C   0  0  0  0  0  0  0  0  0  0  0  0
   -4.2360   24.2380   -0.8220 C   0  0  0  0  0  0  0  0  0  0  0  0
   -6.0930   23.1350   -1.7430 C   0  0  0  0  0  0  0  0  0  0  0  0
   -8.7160   20.0380   -0.4030 C   0  0  0  0  0  0  0  0  0  0  0  0
   -9.3540   19.4990   -1.6710 C   0  0  0  0  0  0  0  0  0  0  0  0
  -10.5560   18.6580   -1.2330 C   0  0  0  0  0  0  0  0  0  0  0  0
  -11.8470   19.0150   -1.9590 C   0  0  0  0  0  0  0  0  0  0  0  0
  -13.6590   20.1490   -0.6670 C   0  0  0  0  0  0  0  0  0  0  0  0
  -14.9260   19.7690    0.1000 C   0  0  0  0  0  0  0  0  0  0  0  0
  -16.7760   18.6600   -1.1980 C   0  0  0  0  0  0  0  0  0  0  0  0
  -14.7260   17.3320   -0.5730 C   0  0  0  0  0  0  0  0  0  0  0  0
  -13.2510   17.6580   -0.3170 C   0  0  0  0  0  0  0  0  0  0  0  0
   -8.2800   19.1110    0.5500 C   0  0  0  0  0  0  0  0  0  0  0  0
   -7.7020   19.5330    1.7430 C   0  0  0  0  0  0  0  0  0  0  0  0
   -7.4266   22.1403    5.0155 H   0  0  0  0  0  0  0  0  0  0  0  0
   -7.0371   23.3083    3.7075 H   0  0  0  0  0  0  0  0  0  0  0  0
   -8.6172   22.4539    3.7075 H   0  0  0  0  0  0  0  0  0  0  0  0
   -7.8586   22.8978    1.2405 H   0  0  0  0  0  0  0  0  0  0  0  0
   -7.3674   18.7901    3.6230 H   0  0  0  0  0  0  0  0  0  0  0  0
   -8.7668   21.9012   -2.1063 H   0  0  0  0  0  0  0  0  0  0  0  0
  -11.0721   24.7439   -2.3139 H   0  0  0  0  0  0  0  0  0  0  0  0
  -11.2696   25.1149   -0.6164 H   0  0  0  0  0  0  0  0  0  0  0  0
   -7.1256   25.5058    0.4782 H   0  0  0  0  0  0  0  0  0  0  0  0
   -4.6420   25.8082    0.6192 H   0  0  0  0  0  0  0  0  0  0  0  0
   -3.1444   24.3578   -0.7582 H   0  0  0  0  0  0  0  0  0  0  0  0
   -6.4881   22.3646   -2.4215 H   0  0  0  0  0  0  0  0  0  0  0  0
   -9.6852   20.3295   -2.3118 H   0  0  0  0  0  0  0  0  0  0  0  0
   -8.6384   18.8966   -2.2498 H   0  0  0  0  0  0  0  0  0  0  0  0
  -10.3291   17.5993   -1.4273 H   0  0  0  0  0  0  0  0  0  0  0  0
  -10.7199   18.8614   -0.1645 H   0  0  0  0  0  0  0  0  0  0  0  0
  -12.0279   18.3065   -2.7808 H   0  0  0  0  0  0  0  0  0  0  0  0
  -11.7899   20.0240   -2.3934 H   0  0  0  0  0  0  0  0  0  0  0  0
  -13.0364   20.8133   -0.0497 H   0  0  0  0  0  0  0  0  0  0  0  0
  -13.9236   20.6742   -1.5966 H   0  0  0  0  0  0  0  0  0  0  0  0
  -15.6537   20.5930    0.0622 H   0  0  0  0  0  0  0  0  0  0  0  0
  -14.7031   19.5689    1.1584 H   0  0  0  0  0  0  0  0  0  0  0  0
  -17.5626   18.7034   -0.4303 H   0  0  0  0  0  0  0  0  0  0  0  0
  -16.8257   19.5623   -1.8253 H   0  0  0  0  0  0  0  0  0  0  0  0
  -16.9247   17.7687   -1.8253 H   0  0  0  0  0  0  0  0  0  0  0  0
  -15.1027   16.6609    0.2130 H   0  0  0  0  0  0  0  0  0  0  0  0
  -14.8455   16.8299   -1.5444 H   0  0  0  0  0  0  0  0  0  0  0  0
  -12.6194   16.8561   -0.7270 H   0  0  0  0  0  0  0  0  0  0  0  0
  -13.0710   17.7415    0.7650 H   0  0  0  0  0  0  0  0  0  0  0  0
   -8.3957   18.0349    0.3535 H   0  0  0  0  0  0  0  0  0  0  0  0
  1 14  1  0
  1 13  1  0
  2  4  1  0
 16  3  1  0
  3 15  1  0
  3 13  1  0
  4  5  1  0
  5 31  2  0
  5  8  1  0
 19  6  2  0
  6 20  1  0
  7 15  2  0
  8 11  2  0
 29  9  1  0
 25  9  1  0
  9 24  1  0
 10 31  1  0
 11 21  1  0
 11 13  1  0
 27 12  1  0
 26 12  1  0
 12 28  1  0
 15 14  1  0
 17 16  1  0
 16 20  2  0
 18 17  2  0
 18 19  1  0
 30 21  2  0
 21 22  1  0
 23 22  1  0
 23 24  1  0
 26 25  1  0
 29 28  1  0
 31 30  1  0
  2 32  1  0
  2 33  1  0
  2 34  1  0
  8 35  1  0
 10 36  1  0
 13 37  1  0
 14 38  1  0
 14 39  1  0
 17 40  1  0
 18 41  1  0
 19 42  1  0
 20 43  1  0
 22 44  1  0
 22 45  1  0
 23 46  1  0
 23 47  1  0
 24 48  1  0
 24 49  1  0
 25 50  1  0
 25 51  1  0
 26 52  1  0
 26 53  1  0
 27 54  1  0
 27 55  1  0
 27 56  1  0
 28 57  1  0
 28 58  1  0
 29 59  1  0
 29 60  1  0
 30 61  1  0
A    1
S
A    2
C1
A    3
N1
A    4
O1
A    5
C2
A    6
N2
A    7
O2
A    8
C3
A    9
N3
A   10
O3
A   11
C4
A   12
N4
A   13
C5
A   14
C6
A   15
C7
A   16
C8
A   17
C9
A   18
C10
A   19
C11
A   20
C12
A   21
C13
A   22
C14
A   23
C15
A   24
C16
A   25
C17
A   26
C18
A   27
C19
A   28
C20
A   29
C21
A   30
C22
A   31
C23
M  END
