3IUB_FG2_A_302
     RDKit          3D

 39 41  0  0  0  0  0  0  0  0999 V2000
   10.8770    9.4100   -5.0490 C   0  0  0  0  0  0  0  0  0  0  0  0
   20.1760    7.7200    4.4200 C   0  0  0  0  0  0  0  0  0  0  0  0
   16.6800   11.2270    0.9690 O   0  0  0  0  0  0  0  0  0  0  0  0
   14.1780   10.3500    4.3490 O   0  0  0  0  0  0  0  0  0  0  0  0
   15.4650   12.3990    3.7040 O   0  0  0  0  0  0  0  0  0  0  0  0
   19.1370    9.9050    4.1180 C   0  0  0  0  0  0  0  0  0  0  0  0
   17.9810   10.6580    3.8810 C   0  0  0  0  0  0  0  0  0  0  0  0
   14.5280    9.8560   -4.8460 C   0  0  0  0  0  0  0  0  0  0  0  0
   15.5000   10.1140   -3.8770 C   0  0  0  0  0  0  0  0  0  0  0  0
   17.8180    7.8980    4.0050 C   0  0  0  0  0  0  0  0  0  0  0  0
   12.8560    9.9910   -3.1000 C   0  0  0  0  0  0  0  0  0  0  0  0
   13.7790   10.4290   -0.8570 C   0  0  0  0  0  0  0  0  0  0  0  0
   16.6770    8.6680    3.7610 N   0  0  0  0  0  0  0  0  0  0  0  0
   14.6890   10.6340    1.8330 N   0  0  0  0  0  0  0  0  0  0  0  0
   15.8550   10.4990   -1.4940 N   0  0  0  0  0  0  0  0  0  0  0  0
   12.2640    9.5650   -5.4360 O   0  0  0  0  0  0  0  0  0  0  0  0
   15.5220   10.8470    0.7990 C   0  0  0  0  0  0  0  0  0  0  0  0
   19.0480    8.5140    4.1830 C   0  0  0  0  0  0  0  0  0  0  0  0
   13.1900    9.7990   -4.4600 C   0  0  0  0  0  0  0  0  0  0  0  0
   16.7520   10.0120    3.7060 C   0  0  0  0  0  0  0  0  0  0  0  0
   15.0480   10.6080   -0.4490 C   0  0  0  0  0  0  0  0  0  0  0  0
   13.8270   10.2250   -2.1910 C   0  0  0  0  0  0  0  0  0  0  0  0
   15.1220   10.2680   -2.5810 C   0  0  0  0  0  0  0  0  0  0  0  0
   15.2520   10.9220    3.4070 S   0  0  0  0  0  0  0  0  0  0  0  0
   10.8013    9.4015   -3.9516 H   0  0  0  0  0  0  0  0  0  0  0  0
   10.2884   10.2480   -5.4507 H   0  0  0  0  0  0  0  0  0  0  0  0
   10.4879    8.4628   -5.4507 H   0  0  0  0  0  0  0  0  0  0  0  0
   20.3279    7.6131    5.5042 H   0  0  0  0  0  0  0  0  0  0  0  0
   20.0263    6.7270    3.9710 H   0  0  0  0  0  0  0  0  0  0  0  0
   21.0603    8.1959    3.9710 H   0  0  0  0  0  0  0  0  0  0  0  0
   20.1073   10.4056    4.2519 H   0  0  0  0  0  0  0  0  0  0  0  0
   18.0385   11.7554    3.8324 H   0  0  0  0  0  0  0  0  0  0  0  0
   14.8137    9.7003   -5.8968 H   0  0  0  0  0  0  0  0  0  0  0  0
   16.5602   10.1917   -4.1599 H   0  0  0  0  0  0  0  0  0  0  0  0
   17.7403    6.8019    4.0559 H   0  0  0  0  0  0  0  0  0  0  0  0
   11.8039    9.9498   -2.7816 H   0  0  0  0  0  0  0  0  0  0  0  0
   12.8776   10.4456   -0.2268 H   0  0  0  0  0  0  0  0  0  0  0  0
   13.7272   10.3022    1.6723 H   0  0  0  0  0  0  0  0  0  0  0  0
   16.8815   10.5798   -1.4694 H   0  0  0  0  0  0  0  0  0  0  0  0
  1 16  1  0
 18  2  1  0
 17  3  2  0
  4 24  2  0
  5 24  2  0
  7  6  2  0
  6 18  1  0
  7 20  1  0
 19  8  2  0
  9  8  1  0
 23  9  2  0
 18 10  2  0
 13 10  1  0
 22 11  2  0
 11 19  1  0
 21 12  2  0
 12 22  1  0
 20 13  2  0
 24 14  1  0
 14 17  1  0
 21 15  1  0
 15 23  1  0
 19 16  1  0
 17 21  1  0
 24 20  1  0
 22 23  1  0
  1 25  1  0
  1 26  1  0
  1 27  1  0
  2 28  1  0
  2 29  1  0
  2 30  1  0
  6 31  1  0
  7 32  1  0
  8 33  1  0
  9 34  1  0
 10 35  1  0
 11 36  1  0
 12 37  1  0
 14 38  1  0
 15 39  1  0
A    1
CAA
A    2
CAB
A    3
OAC
A    4
OAD
A    5
OAE
A    6
CAF
A    7
CAG
A    8
CAH
A    9
CAI
A   10
CAJ
A   11
CAK
A   12
CAL
A   13
NAM
A   14
NAN
A   15
NAO
A   16
OAP
A   17
CAQ
A   18
CAR
A   19
CAS
A   20
CAT
A   21
CAU
A   22
CAV
A   23
CAW
A   24
SAX
M  END
