3IVC_FG4_A_302
     RDKit          3D

 45 48  0  0  0  0  0  0  0  0999 V2000
   17.8110   11.4290   -0.7810 C   0  0  0  0  0  0  0  0  0  0  0  0
   15.5440   10.2960   -1.2630 N   0  0  0  0  0  0  0  0  0  0  0  0
   17.2150   12.5230   -0.6310 O   0  0  0  0  0  0  0  0  0  0  0  0
   17.0270   10.1610   -1.2120 C   0  0  0  0  0  0  0  0  0  0  0  0
   10.9910    8.8770   -5.0130 C   0  0  0  0  0  0  0  0  0  0  0  0
   16.0950   10.4000    1.7240 O   0  0  0  0  0  0  0  0  0  0  0  0
   13.6090    8.3450    7.8690 C   0  0  0  0  0  0  0  0  0  0  0  0
   14.8080    7.7130    7.5610 C   0  0  0  0  0  0  0  0  0  0  0  0
   14.3170    9.6580   -4.7160 C   0  0  0  0  0  0  0  0  0  0  0  0
   13.1990    9.4280    7.1210 C   0  0  0  0  0  0  0  0  0  0  0  0
   15.6100    8.1550    6.5150 C   0  0  0  0  0  0  0  0  0  0  0  0
   15.2710    9.7940   -3.7030 C   0  0  0  0  0  0  0  0  0  0  0  0
   12.5850   10.1700   -3.0770 C   0  0  0  0  0  0  0  0  0  0  0  0
   13.8240   10.8490    5.2050 C   0  0  0  0  0  0  0  0  0  0  0  0
   13.4470   10.5840   -0.7490 C   0  0  0  0  0  0  0  0  0  0  0  0
   14.9640   11.9010    3.2460 C   0  0  0  0  0  0  0  0  0  0  0  0
   12.0430    9.7380   -5.3770 O   0  0  0  0  0  0  0  0  0  0  0  0
   14.2640   11.5950    2.0960 O   0  0  0  0  0  0  0  0  0  0  0  0
   15.7240    9.8840    4.6690 O   0  0  0  0  0  0  0  0  0  0  0  0
   15.0530   10.8480    1.2480 C   0  0  0  0  0  0  0  0  0  0  0  0
   12.9720    9.8490   -4.3940 C   0  0  0  0  0  0  0  0  0  0  0  0
   14.8540   10.8900    4.3840 C   0  0  0  0  0  0  0  0  0  0  0  0
   14.6870   10.5700   -0.2580 C   0  0  0  0  0  0  0  0  0  0  0  0
   13.9860    9.8570    6.0640 C   0  0  0  0  0  0  0  0  0  0  0  0
   13.5320   10.2980   -2.0670 C   0  0  0  0  0  0  0  0  0  0  0  0
   15.1820    9.2290    5.7460 C   0  0  0  0  0  0  0  0  0  0  0  0
   14.8750   10.1040   -2.3890 C   0  0  0  0  0  0  0  0  0  0  0  0
   19.0430   11.2440   -0.6290 O   0  0  0  0  0  0  0  0  0  0  0  0
   17.3738    9.8761   -2.2163 H   0  0  0  0  0  0  0  0  0  0  0  0
   17.2298    9.4087   -0.4355 H   0  0  0  0  0  0  0  0  0  0  0  0
   10.9245    8.8226   -3.9164 H   0  0  0  0  0  0  0  0  0  0  0  0
   10.0443    9.2628   -5.4191 H   0  0  0  0  0  0  0  0  0  0  0  0
   11.1820    7.8727   -5.4191 H   0  0  0  0  0  0  0  0  0  0  0  0
   12.9912    7.9834    8.7042 H   0  0  0  0  0  0  0  0  0  0  0  0
   15.1287    6.8457    8.1568 H   0  0  0  0  0  0  0  0  0  0  0  0
   14.6192    9.4063   -5.7433 H   0  0  0  0  0  0  0  0  0  0  0  0
   12.2583    9.9455    7.3603 H   0  0  0  0  0  0  0  0  0  0  0  0
   16.5692    7.6614    6.2998 H   0  0  0  0  0  0  0  0  0  0  0  0
   16.3377    9.6578   -3.9347 H   0  0  0  0  0  0  0  0  0  0  0  0
   11.5203   10.3211   -2.8454 H   0  0  0  0  0  0  0  0  0  0  0  0
   12.9634   11.5336    5.1796 H   0  0  0  0  0  0  0  0  0  0  0  0
   12.5253   10.7903   -0.1852 H   0  0  0  0  0  0  0  0  0  0  0  0
   16.0271   11.9928    2.9787 H   0  0  0  0  0  0  0  0  0  0  0  0
   14.5149   12.8293    3.6289 H   0  0  0  0  0  0  0  0  0  0  0  0
   19.4262   11.1865    0.2820 H   0  0  0  0  0  0  0  0  0  0  0  0
  4  1  1  0
  1  3  2  0
  1 28  1  0
 27  2  1  0
  2  4  1  0
  2 23  1  0
 17  5  1  0
 20  6  2  0
 10  7  2  0
  8  7  1  0
 11  8  2  0
  9 21  2  0
  9 12  1  0
 24 10  1  0
 26 11  1  0
 12 27  2  0
 21 13  1  0
 13 25  2  0
 22 14  2  0
 14 24  1  0
 25 15  1  0
 15 23  2  0
 18 16  1  0
 16 22  1  0
 17 21  1  0
 20 18  1  0
 22 19  1  0
 19 26  1  0
 23 20  1  0
 26 24  2  0
 27 25  1  0
  4 29  1  0
  4 30  1  0
  5 31  1  0
  5 32  1  0
  5 33  1  0
  7 34  1  0
  8 35  1  0
  9 36  1  0
 10 37  1  0
 11 38  1  0
 12 39  1  0
 13 40  1  0
 14 41  1  0
 15 42  1  0
 16 43  1  0
 16 44  1  0
 28 45  1  0
A    1
C
A    2
N
A    3
O
A    4
CA
A    5
CAA
A    6
OAC
A    7
CAE
A    8
CAF
A    9
CAG
A   10
CAH
A   11
CAI
A   12
CAJ
A   13
CAK
A   14
CAL
A   15
CAM
A   16
CAN
A   17
OAP
A   18
OAQ
A   19
OAR
A   20
CAT
A   21
CAU
A   22
CAV
A   23
CAW
A   24
CAX
A   25
CAY
A   26
CAZ
A   27
CBA
A   28
OXT
M  END
