3IVX_FG6_A_302
     RDKit          3D

 46 49  0  0  0  0  0  0  0  0999 V2000
   18.6710   11.0570   -0.9580 C   0  0  0  0  0  0  0  0  0  0  0  0
   16.1740   10.3380   -1.3780 N   0  0  0  0  0  0  0  0  0  0  0  0
   18.3150   12.1710   -0.5580 O   0  0  0  0  0  0  0  0  0  0  0  0
   17.6490   10.1280   -1.5980 C   0  0  0  0  0  0  0  0  0  0  0  0
   11.0750    9.7570   -5.0100 C   0  0  0  0  0  0  0  0  0  0  0  0
   17.0190   10.3670    1.2910 O   0  0  0  0  0  0  0  0  0  0  0  0
   15.1490   13.0720    3.7420 O   0  0  0  0  0  0  0  0  0  0  0  0
   17.0670   11.6710    3.5830 O   0  0  0  0  0  0  0  0  0  0  0  0
   13.2690    8.7830    8.1850 C   0  0  0  0  0  0  0  0  0  0  0  0
   12.9810    7.7440    7.3010 C   0  0  0  0  0  0  0  0  0  0  0  0
   14.7120    9.8780   -4.7050 C   0  0  0  0  0  0  0  0  0  0  0  0
   13.8850    9.9210    7.6900 C   0  0  0  0  0  0  0  0  0  0  0  0
   13.3160    7.8940    5.9520 C   0  0  0  0  0  0  0  0  0  0  0  0
   15.7120    9.9650   -3.7420 C   0  0  0  0  0  0  0  0  0  0  0  0
   13.1110   10.3400   -2.9690 C   0  0  0  0  0  0  0  0  0  0  0  0
   14.7670   10.9740    5.7220 C   0  0  0  0  0  0  0  0  0  0  0  0
   14.1290   10.6380   -0.7250 C   0  0  0  0  0  0  0  0  0  0  0  0
   15.0740   11.3750    1.8160 N   0  0  0  0  0  0  0  0  0  0  0  0
   12.4620    9.9520   -5.3340 O   0  0  0  0  0  0  0  0  0  0  0  0
   14.3660    9.4720    4.2000 O   0  0  0  0  0  0  0  0  0  0  0  0
   15.8920   10.7650    0.9530 C   0  0  0  0  0  0  0  0  0  0  0  0
   13.3910   10.0610   -4.3290 C   0  0  0  0  0  0  0  0  0  0  0  0
   14.8640   10.6520    4.4470 C   0  0  0  0  0  0  0  0  0  0  0  0
   15.4110   10.5900   -0.3130 C   0  0  0  0  0  0  0  0  0  0  0  0
   14.1880    9.9990    6.3980 C   0  0  0  0  0  0  0  0  0  0  0  0
   14.1080   10.4150   -2.0560 C   0  0  0  0  0  0  0  0  0  0  0  0
   13.9070    9.0160    5.5280 C   0  0  0  0  0  0  0  0  0  0  0  0
   15.3880   10.2200   -2.4470 C   0  0  0  0  0  0  0  0  0  0  0  0
   15.5540   11.6840    3.4010 S   0  0  0  0  0  0  0  0  0  0  0  0
   19.8340   10.6020   -0.9190 O   0  0  0  0  0  0  0  0  0  0  0  0
   18.2569   12.3528    0.4134 H   0  0  0  0  0  0  0  0  0  0  0  0
   17.8149   10.1793   -2.6842 H   0  0  0  0  0  0  0  0  0  0  0  0
   17.8381    9.1700   -1.0916 H   0  0  0  0  0  0  0  0  0  0  0  0
   10.9527    9.7398   -3.9170 H   0  0  0  0  0  0  0  0  0  0  0  0
   10.4805   10.5804   -5.4326 H   0  0  0  0  0  0  0  0  0  0  0  0
   10.7306    8.8016   -5.4326 H   0  0  0  0  0  0  0  0  0  0  0  0
   13.0129    8.7010    9.2516 H   0  0  0  0  0  0  0  0  0  0  0  0
   12.4986    6.8224    7.6587 H   0  0  0  0  0  0  0  0  0  0  0  0
   14.9672    9.6662   -5.7538 H   0  0  0  0  0  0  0  0  0  0  0  0
   14.1226   10.7573    8.3639 H   0  0  0  0  0  0  0  0  0  0  0  0
   13.0930    7.0875    5.2380 H   0  0  0  0  0  0  0  0  0  0  0  0
   16.7650    9.8274   -4.0286 H   0  0  0  0  0  0  0  0  0  0  0  0
   12.0701   10.4978   -2.6503 H   0  0  0  0  0  0  0  0  0  0  0  0
   15.1184   11.9200    6.1598 H   0  0  0  0  0  0  0  0  0  0  0  0
   13.2524   10.8261   -0.0877 H   0  0  0  0  0  0  0  0  0  0  0  0
   14.1341   11.6611    1.5068 H   0  0  0  0  0  0  0  0  0  0  0  0
  4  1  1  0
  1 30  2  0
  1  3  1  0
 28  2  1  0
  4  2  1  0
  2 24  1  0
 19  5  1  0
 21  6  2  0
 29  7  2  0
 29  8  2  0
 10  9  2  0
 12  9  1  0
 13 10  1  0
 11 22  2  0
 11 14  1  0
 25 12  2  0
 27 13  2  0
 14 28  2  0
 22 15  1  0
 15 26  2  0
 23 16  2  0
 16 25  1  0
 26 17  1  0
 17 24  2  0
 21 18  1  0
 18 29  1  0
 19 22  1  0
 20 23  1  0
 20 27  1  0
 24 21  1  0
 29 23  1  0
 27 25  1  0
 28 26  1  0
  3 31  1  0
  4 32  1  0
  4 33  1  0
  5 34  1  0
  5 35  1  0
  5 36  1  0
  9 37  1  0
 10 38  1  0
 11 39  1  0
 12 40  1  0
 13 41  1  0
 14 42  1  0
 15 43  1  0
 16 44  1  0
 17 45  1  0
 18 46  1  0
A    1
C
A    2
N
A    3
O
A    4
CA
A    5
CAA
A    6
OAC
A    7
OAD
A    8
OAE
A    9
CAG
A   10
CAH
A   11
CAI
A   12
CAJ
A   13
CAK
A   14
CAL
A   15
CAM
A   16
CAN
A   17
CAO
A   18
NAQ
A   19
OAR
A   20
OAS
A   21
CAU
A   22
CAV
A   23
CAW
A   24
CAX
A   25
CAY
A   26
CAZ
A   27
CBA
A   28
CBB
A   29
SBD
A   30
OXT
M  END
