3IW2_EKO_A_665
     RDKit          3D

 39 41  0  0  0  0  0  0  0  0999 V2000
   21.7130   41.0400   -2.8510 O   0  0  0  0  0  0  0  0  0  0  0  0
   18.6390   42.6540   -0.7170 Cl  0  0  0  0  0  0  0  0  0  0  0  0
   20.6680   40.7300    3.9220 Cl  0  0  0  0  0  0  0  0  0  0  0  0
   19.9960   45.8580   -6.9340 Cl  0  0  0  0  0  0  0  0  0  0  0  0
   20.8100   40.2630   -2.0190 C   0  0  0  0  0  0  0  0  0  0  0  0
   20.6230   40.5960   -0.5510 C   0  0  0  0  0  0  0  0  0  0  0  0
   20.6210   40.7150    2.1900 C   0  0  0  0  0  0  0  0  0  0  0  0
   22.2450   42.3160   -2.5730 C   0  0  0  0  0  0  0  0  0  0  0  0
   19.4650   39.9230   -2.7060 C   0  0  0  0  0  0  0  0  0  0  0  0
   19.7460   41.5070    0.0890 C   0  0  0  0  0  0  0  0  0  0  0  0
   20.4870   39.0620   -4.9750 N   0  0  0  0  0  0  0  0  0  0  0  0
   21.4210   39.7680    0.2140 C   0  0  0  0  0  0  0  0  0  0  0  0
   21.6850   42.7040   -5.0300 C   0  0  0  0  0  0  0  0  0  0  0  0
   21.1970   44.3990   -3.4000 C   0  0  0  0  0  0  0  0  0  0  0  0
   18.8560   40.6020   -4.9420 C   0  0  0  0  0  0  0  0  0  0  0  0
   19.7720   41.5630    1.4790 C   0  0  0  0  0  0  0  0  0  0  0  0
   21.4430   39.8020    1.5790 C   0  0  0  0  0  0  0  0  0  0  0  0
   19.1860   40.3780   -6.2470 N   0  0  0  0  0  0  0  0  0  0  0  0
   21.1760   43.4860   -6.0600 C   0  0  0  0  0  0  0  0  0  0  0  0
   20.6970   45.2000   -4.4110 C   0  0  0  0  0  0  0  0  0  0  0  0
   20.1740   39.4220   -6.2700 C   0  0  0  0  0  0  0  0  0  0  0  0
   21.7040   43.1600   -3.7030 C   0  0  0  0  0  0  0  0  0  0  0  0
   19.6560   39.7950   -4.1930 C   0  0  0  0  0  0  0  0  0  0  0  0
   20.6750   44.7390   -5.7240 C   0  0  0  0  0  0  0  0  0  0  0  0
   21.4350   39.3615   -1.9371 H   0  0  0  0  0  0  0  0  0  0  0  0
   21.8945   42.6873   -1.5987 H   0  0  0  0  0  0  0  0  0  0  0  0
   23.3432   42.3250   -2.5111 H   0  0  0  0  0  0  0  0  0  0  0  0
   19.0834   38.9721   -2.3060 H   0  0  0  0  0  0  0  0  0  0  0  0
   18.7464   40.7314   -2.5058 H   0  0  0  0  0  0  0  0  0  0  0  0
   22.0708   39.0456   -0.3016 H   0  0  0  0  0  0  0  0  0  0  0  0
   22.0822   41.7044   -5.2603 H   0  0  0  0  0  0  0  0  0  0  0  0
   21.1883   44.7532   -2.3586 H   0  0  0  0  0  0  0  0  0  0  0  0
   18.0919   41.2993   -4.5681 H   0  0  0  0  0  0  0  0  0  0  0  0
   19.1255   42.2733    2.0151 H   0  0  0  0  0  0  0  0  0  0  0  0
   22.0894   39.1290    2.1614 H   0  0  0  0  0  0  0  0  0  0  0  0
   18.7699   40.8416   -7.0672 H   0  0  0  0  0  0  0  0  0  0  0  0
   21.1697   43.1279   -7.1001 H   0  0  0  0  0  0  0  0  0  0  0  0
   20.3155   46.2047   -4.1764 H   0  0  0  0  0  0  0  0  0  0  0  0
   20.6408   39.0096   -7.1767 H   0  0  0  0  0  0  0  0  0  0  0  0
  1  5  1  0
  1  8  1  0
  2 10  1  0
  3  7  1  0
  4 24  1  0
  5  6  1  0
  5  9  1  0
  6 10  2  0
  6 12  1  0
  7 16  2  0
  7 17  1  0
  8 22  1  0
  9 23  1  0
 10 16  1  0
 11 21  2  0
 11 23  1  0
 12 17  2  0
 13 19  2  0
 13 22  1  0
 14 20  1  0
 14 22  2  0
 15 18  1  0
 15 23  2  0
 18 21  1  0
 19 24  1  0
 20 24  2  0
  5 25  1  0
  8 26  1  0
  8 27  1  0
  9 28  1  0
  9 29  1  0
 12 30  1  0
 13 31  1  0
 14 32  1  0
 15 33  1  0
 16 34  1  0
 17 35  1  0
 18 36  1  0
 19 37  1  0
 20 38  1  0
 21 39  1  0
A    1
O
A    2
CL1
A    3
CL2
A    4
CL3
A    5
CB
A    6
CG
A    7
CZ
A    8
CB2
A    9
CB3
A   10
CD1
A   11
ND1
A   12
CD2
A   13
CD3
A   14
CD4
A   15
CD5
A   16
CE1
A   17
CE2
A   18
NE2
A   19
CE3
A   20
CE4
A   21
CE5
A   22
CG2
A   23
CG4
A   24
CZ2
M  END
