1A2E_CPT_A_101
     RDKit          3D

  7  6  0  0  0  0  0  0  0  0999 V2000
    9.1570    7.3620   35.1290 Pt  0  0  0  0  0  2  0  0  0  0  0  0
    9.6030    6.3460   33.4530 N   0  0  0  0  0  0  0  0  0  0  0  0
    7.2330    7.3310   34.5940 N   0  0  0  0  0  0  0  0  0  0  0  0
   10.0047    5.4310   33.7028 H   0  0  0  0  0  0  0  0  0  0  0  0
    8.7464    6.2051   32.8987 H   0  0  0  0  0  0  0  0  0  0  0  0
    6.6422    7.3215   35.4376 H   0  0  0  0  0  0  0  0  0  0  0  0
    7.0188    8.1686   34.0342 H   0  0  0  0  0  0  0  0  0  0  0  0
  1  2  1  0
  1  3  1  0
  2  4  1  0
  2  5  1  0
  3  6  1  0
  3  7  1  0
A    1
PT1
A    2
N1
A    3
N2
M  END
