2UV0_OHN_E_1169
     RDKit          3D

 48 48  0  0  0  0  0  0  0  0999 V2000
   28.3160   19.0630   77.6520 C   0  0  0  0  0  0  0  0  0  0  0  0
   27.3120   19.9330   76.8880 C   0  0  0  0  0  0  0  0  0  0  0  0
   26.3990   19.0520   76.0360 C   0  0  0  0  0  0  0  0  0  0  0  0
   25.3050   19.8500   75.3250 C   0  0  0  0  0  0  0  0  0  0  0  0
   24.1130   20.0650   76.2440 C   0  0  0  0  0  0  0  0  0  0  0  0
   23.3810   18.7550   76.5110 C   0  0  0  0  0  0  0  0  0  0  0  0
   22.3840   18.9340   77.6430 C   0  0  0  0  0  0  0  0  0  0  0  0
   21.9100   17.5700   78.1350 C   0  0  0  0  0  0  0  0  0  0  0  0
   23.0430   16.8370   78.8470 C   0  0  0  0  0  0  0  0  0  0  0  0
   22.5280   15.7240   79.7620 C   0  0  0  0  0  0  0  0  0  0  0  0
   21.3300   15.4480   79.8300 O   0  0  0  0  0  0  0  0  0  0  0  0
   23.5630   14.9560   80.5950 C   0  0  0  0  0  0  0  0  0  0  0  0
   22.9080   13.7010   81.1810 C   0  0  0  0  0  0  0  0  0  0  0  0
   22.7820   12.6780   80.5170 O   0  0  0  0  0  0  0  0  0  0  0  0
   22.5000   13.8170   82.4370 N   0  0  0  0  0  0  0  0  0  0  0  0
   21.8560   12.7200   83.1570 C   0  0  0  0  0  0  0  0  0  0  0  0
   22.4170   12.6120   84.5690 C   0  0  0  0  0  0  0  0  0  0  0  0
   21.2090   12.0350   85.3040 C   0  0  0  0  0  0  0  0  0  0  0  0
   20.4030   13.0490   83.4380 C   0  0  0  0  0  0  0  0  0  0  0  0
   19.6790   13.6880   82.6790 O   0  0  0  0  0  0  0  0  0  0  0  0
   20.0100   12.5480   84.6380 O   0  0  0  0  0  0  0  0  0  0  0  0
   28.1655   19.1934   78.7338 H   0  0  0  0  0  0  0  0  0  0  0  0
   28.1634   18.0068   77.3853 H   0  0  0  0  0  0  0  0  0  0  0  0
   29.3398   19.3643   77.3853 H   0  0  0  0  0  0  0  0  0  0  0  0
   26.7029   20.5020   77.6058 H   0  0  0  0  0  0  0  0  0  0  0  0
   27.8600   20.6256   76.2322 H   0  0  0  0  0  0  0  0  0  0  0  0
   27.0106   18.5406   75.2781 H   0  0  0  0  0  0  0  0  0  0  0  0
   25.9042   18.3368   76.7095 H   0  0  0  0  0  0  0  0  0  0  0  0
   25.7093   20.8275   75.0234 H   0  0  0  0  0  0  0  0  0  0  0  0
   24.9729   19.2852   74.4414 H   0  0  0  0  0  0  0  0  0  0  0  0
   24.4665   20.4799   77.1994 H   0  0  0  0  0  0  0  0  0  0  0  0
   23.4158   20.7606   75.7540 H   0  0  0  0  0  0  0  0  0  0  0  0
   22.8462   18.4453   75.6010 H   0  0  0  0  0  0  0  0  0  0  0  0
   24.1136   17.9854   76.7955 H   0  0  0  0  0  0  0  0  0  0  0  0
   22.8655   19.4740   78.4716 H   0  0  0  0  0  0  0  0  0  0  0  0
   21.5199   19.5088   77.2783 H   0  0  0  0  0  0  0  0  0  0  0  0
   21.0722   17.7082   78.8343 H   0  0  0  0  0  0  0  0  0  0  0  0
   21.5866   16.9719   77.2703 H   0  0  0  0  0  0  0  0  0  0  0  0
   23.7084   16.3944   78.0911 H   0  0  0  0  0  0  0  0  0  0  0  0
   23.5767   17.5677   79.4725 H   0  0  0  0  0  0  0  0  0  0  0  0
   24.4081   14.6646   79.9539 H   0  0  0  0  0  0  0  0  0  0  0  0
   23.9293   15.5966   81.4108 H   0  0  0  0  0  0  0  0  0  0  0  0
   22.6421   14.7136   82.9237 H   0  0  0  0  0  0  0  0  0  0  0  0
   22.0055   11.8235   82.5373 H   0  0  0  0  0  0  0  0  0  0  0  0
   23.2812   11.9328   84.6120 H   0  0  0  0  0  0  0  0  0  0  0  0
   22.7987   13.5563   84.9844 H   0  0  0  0  0  0  0  0  0  0  0  0
   21.2269   10.9363   85.2537 H   0  0  0  0  0  0  0  0  0  0  0  0
   21.2214   12.3273   86.3644 H   0  0  0  0  0  0  0  0  0  0  0  0
  1  2  1  0
  2  3  1  0
  3  4  1  0
  4  5  1  0
  5  6  1  0
  6  7  1  0
  7  8  1  0
  8  9  1  0
  9 10  1  0
 10 11  2  0
 10 12  1  0
 12 13  1  0
 13 14  2  0
 13 15  1  0
 15 16  1  0
 16 17  1  0
 17 18  1  0
 16 19  1  0
 19 20  2  0
 18 21  1  0
 19 21  1  0
  1 22  1  0
  1 23  1  0
  1 24  1  0
  2 25  1  0
  2 26  1  0
  3 27  1  0
  3 28  1  0
  4 29  1  0
  4 30  1  0
  5 31  1  0
  5 32  1  0
  6 33  1  0
  6 34  1  0
  7 35  1  0
  7 36  1  0
  8 37  1  0
  8 38  1  0
  9 39  1  0
  9 40  1  0
 12 41  1  0
 12 42  1  0
 15 43  1  0
 16 44  1  0
 17 45  1  0
 17 46  1  0
 18 47  1  0
 18 48  1  0
A    1
C21
A    2
C20
A    3
C19
A    4
C18
A    5
C17
A    6
C16
A    7
C15
A    8
C14
A    9
C13
A   10
C11
A   11
O12
A   12
C10
A   13
C8
A   14
O9
A   15
N7
A   16
C1
A   17
C5
A   18
C4
A   19
C2
A   20
O6
A   21
OAP
M  END
