3IX8_TX3_A_174
     RDKit          3D

 45 47  0  0  0  0  0  0  0  0999 V2000
    3.2740   13.6890   28.5510 C   0  0  0  0  0  0  0  0  0  0  0  0
    4.4440   14.5430   28.8370 C   0  0  0  0  0  0  0  0  0  0  0  0
    5.7110   13.9600   28.7460 C   0  0  0  0  0  0  0  0  0  0  0  0
    5.8520   12.6120   28.3820 C   0  0  0  0  0  0  0  0  0  0  0  0
    4.7620   11.7880   28.1010 C   0  0  0  0  0  0  0  0  0  0  0  0
    3.4630   12.2740   28.1750 C   0  0  0  0  0  0  0  0  0  0  0  0
    2.2610   11.4080   27.8740 C   0  0  0  0  0  0  0  0  0  0  0  0
    2.5530   10.5110   26.7610 N   0  0  0  0  0  0  0  0  0  0  0  0
    2.8270    9.2270   26.9790 C   0  0  0  0  0  0  0  0  0  0  0  0
    2.9360    8.7780   28.1200 O   0  0  0  0  0  0  0  0  0  0  0  0
    3.0320    8.3040   25.8150 C   0  0  0  0  0  0  0  0  0  0  0  0
    2.0160    7.4550   25.3830 C   0  0  0  0  0  0  0  0  0  0  0  0
    2.2310    6.5970   24.2920 C   0  0  0  0  0  0  0  0  0  0  0  0
    3.4580    6.5750   23.6260 C   0  0  0  0  0  0  0  0  0  0  0  0
    4.5160    7.4100   24.0170 C   0  0  0  0  0  0  0  0  0  0  0  0
    4.3370    8.2840   25.1000 C   0  0  0  0  0  0  0  0  0  0  0  0
    5.6630    9.3760   25.6340 Cl  0  0  0  0  0  0  0  0  0  0  0  0
    4.1620   16.3750   29.2860 Br  0  0  0  0  0  0  0  0  0  0  0  0
    7.5640   11.8360   28.2390 Br  0  0  0  0  0  0  0  0  0  0  0  0
    2.0140   14.1940   28.6150 O   0  0  0  0  0  0  0  0  0  0  0  0
    1.3840   14.4970   29.8670 C   0  0  0  0  0  0  0  0  0  0  0  0
    2.0070   14.3610   30.9110 O   0  0  0  0  0  0  0  0  0  0  0  0
   -0.0300   14.9810   29.7930 C   0  0  0  0  0  0  0  0  0  0  0  0
   -0.9220   14.3840   28.8980 C   0  0  0  0  0  0  0  0  0  0  0  0
   -2.2360   14.8490   28.8260 C   0  0  0  0  0  0  0  0  0  0  0  0
   -2.6690   15.9030   29.6350 C   0  0  0  0  0  0  0  0  0  0  0  0
   -1.8100   16.5280   30.5370 C   0  0  0  0  0  0  0  0  0  0  0  0
   -0.4870   16.1050   30.6400 C   0  0  0  0  0  0  0  0  0  0  0  0
    0.4670   16.7680   31.6060 C   0  0  0  0  0  0  0  0  0  0  0  0
    6.6054   14.5630   28.9616 H   0  0  0  0  0  0  0  0  0  0  0  0
    4.9336   10.7392   27.8170 H   0  0  0  0  0  0  0  0  0  0  0  0
    2.0098   10.8128   28.7643 H   0  0  0  0  0  0  0  0  0  0  0  0
    1.4125   12.0531   27.6023 H   0  0  0  0  0  0  0  0  0  0  0  0
    2.5470   10.8749   25.7974 H   0  0  0  0  0  0  0  0  0  0  0  0
    1.0435    7.4564   25.8971 H   0  0  0  0  0  0  0  0  0  0  0  0
    1.4208    5.9325   23.9573 H   0  0  0  0  0  0  0  0  0  0  0  0
    3.5982    5.8892   22.7775 H   0  0  0  0  0  0  0  0  0  0  0  0
    5.4756    7.3796   23.4801 H   0  0  0  0  0  0  0  0  0  0  0  0
   -0.5913   13.5545   28.2557 H   0  0  0  0  0  0  0  0  0  0  0  0
   -2.9401   14.3796   28.1232 H   0  0  0  0  0  0  0  0  0  0  0  0
   -3.7110   16.2470   29.5581 H   0  0  0  0  0  0  0  0  0  0  0  0
   -2.1758   17.3531   31.1658 H   0  0  0  0  0  0  0  0  0  0  0  0
    0.1540   16.5505   32.6379 H   0  0  0  0  0  0  0  0  0  0  0  0
    1.4833   16.3806   31.4417 H   0  0  0  0  0  0  0  0  0  0  0  0
    0.4582   17.8556   31.4417 H   0  0  0  0  0  0  0  0  0  0  0  0
  6  1  1  0
  1 20  1  0
  1  2  2  0
  3  2  1  0
  2 18  1  0
  4  3  2  0
  5  4  1  0
 19  4  1  0
  5  6  2  0
  7  6  1  0
  8  7  1  0
  8  9  1  0
 11  9  1  0
  9 10  2  0
 16 11  1  0
 12 11  2  0
 13 12  1  0
 14 13  2  0
 14 15  1  0
 15 16  2  0
 16 17  1  0
 20 21  1  0
 23 21  1  0
 21 22  2  0
 24 23  2  0
 23 28  1  0
 25 24  1  0
 25 26  2  0
 26 27  1  0
 27 28  2  0
 28 29  1  0
  3 30  1  0
  5 31  1  0
  7 32  1  0
  7 33  1  0
  8 34  1  0
 12 35  1  0
 13 36  1  0
 14 37  1  0
 15 38  1  0
 24 39  1  0
 25 40  1  0
 26 41  1  0
 27 42  1  0
 29 43  1  0
 29 44  1  0
 29 45  1  0
A    1
C1
A    2
C2
A    3
C3
A    4
C4
A    5
C5
A    6
C6
A    7
C7
A    8
N8
A    9
C9
A   10
O10
A   11
C11
A   12
C12
A   13
C13
A   14
C14
A   15
C15
A   16
C16
A   17
CL17
A   18
BR18
A   19
BR19
A   20
O20
A   21
C21
A   22
O22
A   23
C23
A   24
C24
A   25
C25
A   26
C26
A   27
C27
A   28
C28
A   29
C29
M  END
