3JPU_TY4_A_174
     RDKit          3D

 45 47  0  0  0  0  0  0  0  0999 V2000
  -17.3870  -33.5940   21.3270 C   0  0  0  0  0  0  0  0  0  0  0  0
  -16.1960  -32.7700   21.0340 C   0  0  0  0  0  0  0  0  0  0  0  0
  -15.2870  -33.3080   20.1320 C   0  0  0  0  0  0  0  0  0  0  0  0
  -15.6150  -34.5150   19.5450 C   0  0  0  0  0  0  0  0  0  0  0  0
  -16.7230  -35.3220   19.8130 C   0  0  0  0  0  0  0  0  0  0  0  0
  -17.6540  -34.8640   20.7050 C   0  0  0  0  0  0  0  0  0  0  0  0
  -18.8910  -35.6200   21.0980 C   0  0  0  0  0  0  0  0  0  0  0  0
  -19.4730  -36.3440   19.9840 N   0  0  0  0  0  0  0  0  0  0  0  0
  -19.2620  -37.6310   19.8060 C   0  0  0  0  0  0  0  0  0  0  0  0
  -18.5090  -38.2050   20.5920 O   0  0  0  0  0  0  0  0  0  0  0  0
  -19.9290  -38.3830   18.6600 C   0  0  0  0  0  0  0  0  0  0  0  0
  -21.1190  -39.0560   18.7830 C   0  0  0  0  0  0  0  0  0  0  0  0
  -21.7200  -39.7430   17.7220 C   0  0  0  0  0  0  0  0  0  0  0  0
  -21.1520  -39.8160   16.4630 C   0  0  0  0  0  0  0  0  0  0  0  0
  -19.9610  -39.1290   16.2370 C   0  0  0  0  0  0  0  0  0  0  0  0
  -19.3420  -38.4150   17.2990 C   0  0  0  0  0  0  0  0  0  0  0  0
  -17.8090  -37.5260   17.0330 Cl  0  0  0  0  0  0  0  0  0  0  0  0
  -16.0000  -31.4070   21.7150 C   0  0  0  0  0  0  0  0  0  0  0  0
  -14.4650  -35.2790   18.3010 Br  0  0  0  0  0  0  0  0  0  0  0  0
  -18.3390  -33.1990   22.1890 O   0  0  0  0  0  0  0  0  0  0  0  0
  -18.1360  -33.0310   23.5930 C   0  0  0  0  0  0  0  0  0  0  0  0
  -17.0730  -33.2590   24.1370 O   0  0  0  0  0  0  0  0  0  0  0  0
  -19.3210  -32.5730   24.3070 C   0  0  0  0  0  0  0  0  0  0  0  0
  -20.5870  -33.0600   24.0040 C   0  0  0  0  0  0  0  0  0  0  0  0
  -21.6450  -32.5420   24.7450 C   0  0  0  0  0  0  0  0  0  0  0  0
  -21.4150  -31.6090   25.7480 C   0  0  0  0  0  0  0  0  0  0  0  0
  -20.1900  -31.0990   26.0660 C   0  0  0  0  0  0  0  0  0  0  0  0
  -19.1340  -31.5760   25.3540 C   0  0  0  0  0  0  0  0  0  0  0  0
  -17.5450  -30.9500   25.7410 Cl  0  0  0  0  0  0  0  0  0  0  0  0
  -22.6870  -30.8850   26.7350 Cl  0  0  0  0  0  0  0  0  0  0  0  0
  -14.3440  -32.7938   19.8946 H   0  0  0  0  0  0  0  0  0  0  0  0
  -16.8438  -36.2983   19.3208 H   0  0  0  0  0  0  0  0  0  0  0  0
  -18.6297  -36.3387   21.8887 H   0  0  0  0  0  0  0  0  0  0  0  0
  -19.6343  -34.8887   21.4482 H   0  0  0  0  0  0  0  0  0  0  0  0
  -20.0680  -35.8368   19.3135 H   0  0  0  0  0  0  0  0  0  0  0  0
  -21.6235  -39.0554   19.7605 H   0  0  0  0  0  0  0  0  0  0  0  0
  -22.6830  -40.2452   17.8965 H   0  0  0  0  0  0  0  0  0  0  0  0
  -21.6277  -40.4006   15.6618 H   0  0  0  0  0  0  0  0  0  0  0  0
  -19.5004  -39.1391   15.2381 H   0  0  0  0  0  0  0  0  0  0  0  0
  -16.0187  -31.5367   22.8072 H   0  0  0  0  0  0  0  0  0  0  0  0
  -15.0315  -30.9820   21.4127 H   0  0  0  0  0  0  0  0  0  0  0  0
  -16.8095  -30.7263   21.4127 H   0  0  0  0  0  0  0  0  0  0  0  0
  -20.7444  -33.8151   23.2198 H   0  0  0  0  0  0  0  0  0  0  0  0
  -22.6723  -32.8743   24.5346 H   0  0  0  0  0  0  0  0  0  0  0  0
  -20.0635  -30.3433   26.8552 H   0  0  0  0  0  0  0  0  0  0  0  0
  6  1  1  0
  2  1  2  0
  1 20  1  0
  3  2  1  0
  2 18  1  0
  4  3  2  0
 19  4  1  0
  4  5  1  0
  5  6  2  0
  6  7  1  0
  8  7  1  0
  9  8  1  0
 11  9  1  0
  9 10  2  0
 16 11  1  0
 11 12  2  0
 13 12  1  0
 14 13  2  0
 15 14  1  0
 15 16  2  0
 17 16  1  0
 20 21  1  0
 21 22  2  0
 21 23  1  0
 24 23  2  0
 23 28  1  0
 24 25  1  0
 25 26  2  0
 26 27  1  0
 26 30  1  0
 28 27  2  0
 28 29  1  0
  3 31  1  0
  5 32  1  0
  7 33  1  0
  7 34  1  0
  8 35  1  0
 12 36  1  0
 13 37  1  0
 14 38  1  0
 15 39  1  0
 18 40  1  0
 18 41  1  0
 18 42  1  0
 24 43  1  0
 25 44  1  0
 27 45  1  0
A    1
C1
A    2
C2
A    3
C3
A    4
C4
A    5
C5
A    6
C6
A    7
C7
A    8
N8
A    9
C9
A   10
O10
A   11
C11
A   12
C12
A   13
C13
A   14
C14
A   15
C15
A   16
C16
A   17
CL17
A   18
C18
A   19
BR19
A   20
O20
A   21
C21
A   22
O22
A   23
C23
A   24
C24
A   25
C25
A   26
C26
A   27
C27
A   28
C28
A   29
CL29
A   30
CL30
M  END
