3JPV_1DR_A_313
     RDKit          3D

 28 31  0  0  0  0  0  0  0  0999 V2000
   25.9580   47.7130   -0.6830 C   0  0  0  0  0  0  0  0  0  0  0  0
   25.5940   46.4990   -1.2530 C   0  0  0  0  0  0  0  0  0  0  0  0
   25.2090   45.4660   -0.4020 C   0  0  0  0  0  0  0  0  0  0  0  0
   25.1930   45.6560    0.9930 C   0  0  0  0  0  0  0  0  0  0  0  0
   25.5530   46.8670    1.5720 C   0  0  0  0  0  0  0  0  0  0  0  0
   25.9480   47.8800    0.7160 C   0  0  0  0  0  0  0  0  0  0  0  0
   26.3450   49.1820    0.9840 C   0  0  0  0  0  0  0  0  0  0  0  0
   26.5880   49.7730   -0.2590 C   0  0  0  0  0  0  0  0  0  0  0  0
   26.3300   48.8730   -1.2470 N   0  0  0  0  0  0  0  0  0  0  0  0
   26.4820   49.8850    2.1680 C   0  0  0  0  0  0  0  0  0  0  0  0
   26.9070   51.2190    2.1170 C   0  0  0  0  0  0  0  0  0  0  0  0
   27.1570   51.8020    0.8720 C   0  0  0  0  0  0  0  0  0  0  0  0
   27.0070   51.0860   -0.3080 C   0  0  0  0  0  0  0  0  0  0  0  0
   27.5600   53.0660    0.4560 C   0  0  0  0  0  0  0  0  0  0  0  0
   27.6540   53.1220   -0.8770 C   0  0  0  0  0  0  0  0  0  0  0  0
   27.3050   51.8990   -1.3350 N   0  0  0  0  0  0  0  0  0  0  0  0
   27.8760   54.2070    1.4170 C   0  0  0  0  0  0  0  0  0  0  0  0
   27.6810   54.0410    2.6210 O   0  0  0  0  0  0  0  0  0  0  0  0
   25.6095   46.3582   -2.3438 H   0  0  0  0  0  0  0  0  0  0  0  0
   24.9149   44.4934   -0.8233 H   0  0  0  0  0  0  0  0  0  0  0  0
   24.8870   44.8227    1.6427 H   0  0  0  0  0  0  0  0  0  0  0  0
   25.5252   47.0137    2.6618 H   0  0  0  0  0  0  0  0  0  0  0  0
   26.4073   49.0521   -2.2584 H   0  0  0  0  0  0  0  0  0  0  0  0
   26.2610   49.4047    3.1326 H   0  0  0  0  0  0  0  0  0  0  0  0
   27.0417   51.7982    3.0424 H   0  0  0  0  0  0  0  0  0  0  0  0
   27.9554   53.9907   -1.4807 H   0  0  0  0  0  0  0  0  0  0  0  0
   27.2723   51.6293   -2.3285 H   0  0  0  0  0  0  0  0  0  0  0  0
   28.2714   55.1620    1.0408 H   0  0  0  0  0  0  0  0  0  0  0  0
  1  2  2  0
  1  6  1  0
  1  9  1  0
  2  3  1  0
  3  4  2  0
  4  5  1  0
  5  6  2  0
  6  7  1  0
  7  8  2  0
  7 10  1  0
  8  9  1  0
  8 13  1  0
 10 11  2  0
 11 12  1  0
 12 13  2  0
 12 14  1  0
 13 16  1  0
 14 15  2  0
 14 17  1  0
 15 16  1  0
 17 18  2  0
  2 19  1  0
  3 20  1  0
  4 21  1  0
  5 22  1  0
  9 23  1  0
 10 24  1  0
 11 25  1  0
 15 26  1  0
 16 27  1  0
 17 28  1  0
A    1
CAA
A    2
CAB
A    3
CAC
A    4
CAD
A    5
CAE
A    6
CAF
A    7
CAG
A    8
CAH
A    9
NAI
A   10
CAJ
A   11
CAK
A   12
CAL
A   13
CAM
A   14
CAN
A   15
CAO
A   16
NAP
A   17
CAQ
A   18
OAR
M  END
