2J3K_HNE_A_1347
     RDKit          3D

 27 26  0  0  0  0  0  0  0  0999 V2000
   34.3220    4.4180   79.1220 C   0  0  0  0  0  0  0  0  0  0  0  0
   35.5190    4.7510   80.0360 C   0  0  0  0  0  0  0  0  0  0  0  0
   36.7480    4.4680   79.6470 C   0  0  0  0  0  0  0  0  0  0  0  0
   37.9170    4.4070   80.6510 C   0  0  0  0  0  0  0  0  0  0  0  0
   39.1040    3.6550   80.0160 C   0  0  0  0  0  0  0  0  0  0  0  0
   39.8980    2.9140   81.1070 C   0  0  0  0  0  0  0  0  0  0  0  0
   39.5960    1.4040   81.0650 C   0  0  0  0  0  0  0  0  0  0  0  0
   40.3830    0.6960   82.1830 C   0  0  0  0  0  0  0  0  0  0  0  0
   41.4030   -0.2770   81.5650 C   0  0  0  0  0  0  0  0  0  0  0  0
   38.3150    5.7150   80.9950 O   0  0  0  0  0  0  0  0  0  0  0  0
   33.1890    4.4510   79.5470 O   0  0  0  0  0  0  0  0  0  0  0  0
   34.5001    4.1471   78.0709 H   0  0  0  0  0  0  0  0  0  0  0  0
   35.3480    5.2252   81.0137 H   0  0  0  0  0  0  0  0  0  0  0  0
   36.9429    4.2712   78.5825 H   0  0  0  0  0  0  0  0  0  0  0  0
   37.5914    3.8759   81.5576 H   0  0  0  0  0  0  0  0  0  0  0  0
   38.7250    2.9276   79.2830 H   0  0  0  0  0  0  0  0  0  0  0  0
   39.7646    4.3778   79.5148 H   0  0  0  0  0  0  0  0  0  0  0  0
   40.9739    3.0724   80.9418 H   0  0  0  0  0  0  0  0  0  0  0  0
   39.6024    3.3079   82.0906 H   0  0  0  0  0  0  0  0  0  0  0  0
   38.5185    1.2406   81.2141 H   0  0  0  0  0  0  0  0  0  0  0  0
   39.8952    0.9956   80.0885 H   0  0  0  0  0  0  0  0  0  0  0  0
   40.9136    1.4461   82.7878 H   0  0  0  0  0  0  0  0  0  0  0  0
   39.6841    0.1341   82.8201 H   0  0  0  0  0  0  0  0  0  0  0  0
   41.9473   -0.7962   82.3676 H   0  0  0  0  0  0  0  0  0  0  0  0
   40.8754   -1.0150   80.9429 H   0  0  0  0  0  0  0  0  0  0  0  0
   42.1153    0.2848   80.9429 H   0  0  0  0  0  0  0  0  0  0  0  0
   38.3419    5.8033   81.9807 H   0  0  0  0  0  0  0  0  0  0  0  0
  1  2  1  0
  1 11  2  0
  2  3  2  0
  3  4  1  0
  4  5  1  0
  4 10  1  0
  5  6  1  0
  6  7  1  0
  7  8  1  0
  8  9  1  0
  1 12  1  0
  2 13  1  0
  3 14  1  0
  4 15  1  0
  5 16  1  0
  5 17  1  0
  6 18  1  0
  6 19  1  0
  7 20  1  0
  7 21  1  0
  8 22  1  0
  8 23  1  0
  9 24  1  0
  9 25  1  0
  9 26  1  0
 10 27  1  0
A    1
C1
A    2
C2
A    3
C3
A    4
C4
A    5
C5
A    6
C6
A    7
C7
A    8
C8
A    9
C9
A   10
O10
A   11
O11
M  END
