3JSU_KA5_A_609
     RDKit          3D

 43 45  0  0  0  0  0  0  0  0999 V2000
   29.6970    5.9360   56.3450 N   0  0  0  0  0  0  0  0  0  0  0  0
   30.4850    5.0110   55.9090 C   0  0  0  0  0  0  0  0  0  0  0  0
   30.9370    4.1010   56.7000 N   0  0  0  0  0  0  0  0  0  0  0  0
   30.6260    4.0610   57.9560 C   0  0  0  0  0  0  0  0  0  0  0  0
   29.7820    5.0050   58.5270 C   0  0  0  0  0  0  0  0  0  0  0  0
   29.3380    5.9660   57.5910 C   0  0  0  0  0  0  0  0  0  0  0  0
   28.4990    6.9880   57.9540 C   0  0  0  0  0  0  0  0  0  0  0  0
   28.0680    7.0960   59.2440 C   0  0  0  0  0  0  0  0  0  0  0  0
   28.4680    6.1710   60.2080 C   0  0  0  0  0  0  0  0  0  0  0  0
   29.3190    5.1290   59.8540 C   0  0  0  0  0  0  0  0  0  0  0  0
   30.8400    4.9960   54.6150 N   0  0  0  0  0  0  0  0  0  0  0  0
   31.2040    3.0390   58.5980 N   0  0  0  0  0  0  0  0  0  0  0  0
   29.7450    4.0200   61.1470 Cl  0  0  0  0  0  0  0  0  0  0  0  0
   28.0180    6.2680   61.5140 N   0  0  0  0  0  0  0  0  0  0  0  0
   27.3320    7.4110   62.1070 C   0  0  0  0  0  0  0  0  0  0  0  0
   25.8140    7.3990   61.9230 C   0  0  0  0  0  0  0  0  0  0  0  0
   25.1710    6.2080   61.6400 C   0  0  0  0  0  0  0  0  0  0  0  0
   23.8170    6.0950   61.4350 C   0  0  0  0  0  0  0  0  0  0  0  0
   23.0850    7.2720   61.5370 C   0  0  0  0  0  0  0  0  0  0  0  0
   23.6970    8.4770   61.8220 C   0  0  0  0  0  0  0  0  0  0  0  0
   25.0610    8.5830   62.0180 C   0  0  0  0  0  0  0  0  0  0  0  0
   25.6250    9.8340   62.2660 O   0  0  0  0  0  0  0  0  0  0  0  0
   26.0690   10.1300   63.5930 C   0  0  0  0  0  0  0  0  0  0  0  0
   23.3340    4.8300   61.1390 O   0  0  0  0  0  0  0  0  0  0  0  0
   21.9570    4.5890   60.8870 C   0  0  0  0  0  0  0  0  0  0  0  0
   28.1726    7.7227   57.2032 H   0  0  0  0  0  0  0  0  0  0  0  0
   27.3980    7.9213   59.5266 H   0  0  0  0  0  0  0  0  0  0  0  0
   31.8356    4.9539   54.3546 H   0  0  0  0  0  0  0  0  0  0  0  0
   30.1168    5.0266   53.8822 H   0  0  0  0  0  0  0  0  0  0  0  0
   31.2158    3.0182   59.6277 H   0  0  0  0  0  0  0  0  0  0  0  0
   31.6371    2.2732   58.0624 H   0  0  0  0  0  0  0  0  0  0  0  0
   28.1834    5.4556   62.1252 H   0  0  0  0  0  0  0  0  0  0  0  0
   27.5482    7.4209   63.1855 H   0  0  0  0  0  0  0  0  0  0  0  0
   27.7050    8.3062   61.5878 H   0  0  0  0  0  0  0  0  0  0  0  0
   25.7809    5.2949   61.5750 H   0  0  0  0  0  0  0  0  0  0  0  0
   21.9956    7.2433   61.3876 H   0  0  0  0  0  0  0  0  0  0  0  0
   23.0777    9.3831   61.8955 H   0  0  0  0  0  0  0  0  0  0  0  0
   25.3822    9.6721   64.3201 H   0  0  0  0  0  0  0  0  0  0  0  0
   27.0813    9.7255   63.7397 H   0  0  0  0  0  0  0  0  0  0  0  0
   26.0849   11.2201   63.7397 H   0  0  0  0  0  0  0  0  0  0  0  0
   21.4203    4.4951   61.8426 H   0  0  0  0  0  0  0  0  0  0  0  0
   21.5373    5.4273   60.3116 H   0  0  0  0  0  0  0  0  0  0  0  0
   21.8470    3.6580   60.3116 H   0  0  0  0  0  0  0  0  0  0  0  0
  1  2  2  0
  1  6  1  0
  2  3  1  0
  2 11  1  0
  3  4  2  0
  4  5  1  0
  4 12  1  0
  5  6  2  0
  5 10  1  0
  6  7  1  0
  7  8  2  0
  8  9  1  0
  9 10  2  0
  9 14  1  0
 10 13  1  0
 14 15  1  0
 15 16  1  0
 16 17  2  0
 16 21  1  0
 17 18  1  0
 18 19  2  0
 18 24  1  0
 19 20  1  0
 20 21  2  0
 21 22  1  0
 22 23  1  0
 24 25  1  0
  7 26  1  0
  8 27  1  0
 11 28  1  0
 11 29  1  0
 12 30  1  0
 12 31  1  0
 14 32  1  0
 15 33  1  0
 15 34  1  0
 17 35  1  0
 19 36  1  0
 20 37  1  0
 23 38  1  0
 23 39  1  0
 23 40  1  0
 25 41  1  0
 25 42  1  0
 25 43  1  0
A    1
N1
A    2
C2
A    3
N3
A    4
C4
A    5
C5
A    6
C6
A    7
C7
A    8
C8
A    9
C9
A   10
C10
A   11
N11
A   12
N12
A   13
CL13
A   14
N14
A   15
C15
A   16
C16
A   17
C17
A   18
C18
A   19
C19
A   20
C20
A   21
C21
A   22
O22
A   23
C23
A   24
O24
A   25
C25
M  END
