3JSX_CC2_A_547
     RDKit          3D

 43 46  0  0  0  0  0  0  0  0999 V2000
   13.2920   -4.2230   34.9070 C   0  0  0  0  0  0  0  0  0  0  0  0
   12.4820   -4.7890   30.0190 O   0  0  0  0  0  0  0  0  0  0  0  0
   13.4680   -2.9760   34.3300 C   0  0  0  0  0  0  0  0  0  0  0  0
   13.4940   -1.5950   32.3960 O   0  0  0  0  0  0  0  0  0  0  0  0
   13.3080   -2.8200   32.9600 C   0  0  0  0  0  0  0  0  0  0  0  0
   12.9780   -3.8890   32.1540 C   0  0  0  0  0  0  0  0  0  0  0  0
   12.8030   -5.1320   32.7310 C   0  0  0  0  0  0  0  0  0  0  0  0
   12.9620   -5.3090   34.1040 C   0  0  0  0  0  0  0  0  0  0  0  0
   13.4980   -0.2640   30.5970 O   0  0  0  0  0  0  0  0  0  0  0  0
   13.3280   -1.4030   31.0580 C   0  0  0  0  0  0  0  0  0  0  0  0
   13.0090   -2.4540   30.2150 C   0  0  0  0  0  0  0  0  0  0  0  0
   12.8200   -3.7170   30.7790 C   0  0  0  0  0  0  0  0  0  0  0  0
   13.4680   -4.3850   36.3880 C   0  0  0  0  0  0  0  0  0  0  0  0
   12.7710   -6.6810   34.6960 C   0  0  0  0  0  0  0  0  0  0  0  0
   12.8380   -2.1780   28.7330 C   0  0  0  0  0  0  0  0  0  0  0  0
   11.3950   -1.7420   28.5320 C   0  0  0  0  0  0  0  0  0  0  0  0
   10.9070   -1.3330   27.2790 C   0  0  0  0  0  0  0  0  0  0  0  0
    9.5700   -0.9590   27.1380 C   0  0  0  0  0  0  0  0  0  0  0  0
    8.7180   -0.9840   28.2360 C   0  0  0  0  0  0  0  0  0  0  0  0
    9.1950   -1.3920   29.4950 C   0  0  0  0  0  0  0  0  0  0  0  0
   10.5280   -1.7670   29.6290 C   0  0  0  0  0  0  0  0  0  0  0  0
   11.7450   -1.2990   26.1710 C   0  0  0  0  0  0  0  0  0  0  0  0
   11.2580   -0.8890   24.9410 C   0  0  0  0  0  0  0  0  0  0  0  0
    9.9270   -0.5120   24.8080 C   0  0  0  0  0  0  0  0  0  0  0  0
    9.0840   -0.5520   25.9150 C   0  0  0  0  0  0  0  0  0  0  0  0
   12.2143   -5.6381   30.4520 H   0  0  0  0  0  0  0  0  0  0  0  0
   13.7339   -2.1115   34.9560 H   0  0  0  0  0  0  0  0  0  0  0  0
   12.5351   -5.9918   32.0994 H   0  0  0  0  0  0  0  0  0  0  0  0
   12.7577   -3.7312   36.9153 H   0  0  0  0  0  0  0  0  0  0  0  0
   13.2794   -5.4321   36.6673 H   0  0  0  0  0  0  0  0  0  0  0  0
   14.4959   -4.1105   36.6673 H   0  0  0  0  0  0  0  0  0  0  0  0
   12.7807   -6.6113   35.7937 H   0  0  0  0  0  0  0  0  0  0  0  0
   11.8068   -7.0929   34.3633 H   0  0  0  0  0  0  0  0  0  0  0  0
   13.5860   -7.3406   34.3633 H   0  0  0  0  0  0  0  0  0  0  0  0
   13.5232   -1.3784   28.4150 H   0  0  0  0  0  0  0  0  0  0  0  0
   13.0674   -3.0726   28.1354 H   0  0  0  0  0  0  0  0  0  0  0  0
    7.6662   -0.6835   28.1200 H   0  0  0  0  0  0  0  0  0  0  0  0
    8.5212   -1.4143   30.3642 H   0  0  0  0  0  0  0  0  0  0  0  0
   10.9052   -2.0876   30.6113 H   0  0  0  0  0  0  0  0  0  0  0  0
   12.7986   -1.5987   26.2712 H   0  0  0  0  0  0  0  0  0  0  0  0
   11.9261   -0.8617   24.0676 H   0  0  0  0  0  0  0  0  0  0  0  0
    9.5412   -0.1833   23.8318 H   0  0  0  0  0  0  0  0  0  0  0  0
    8.0288   -0.2583   25.8131 H   0  0  0  0  0  0  0  0  0  0  0  0
  1  3  2  0
  1  8  1  0
  1 13  1  0
  2 12  1  0
  3  5  1  0
  4  5  1  0
  4 10  1  0
  5  6  2  0
  6  7  1  0
  6 12  1  0
  7  8  2  0
  8 14  1  0
  9 10  2  0
 10 11  1  0
 11 12  2  0
 11 15  1  0
 15 16  1  0
 16 17  2  0
 16 21  1  0
 17 18  1  0
 17 22  1  0
 18 19  2  0
 18 25  1  0
 19 20  1  0
 20 21  2  0
 22 23  2  0
 23 24  1  0
 24 25  2  0
  2 26  1  0
  3 27  1  0
  7 28  1  0
 13 29  1  0
 13 30  1  0
 13 31  1  0
 14 32  1  0
 14 33  1  0
 14 34  1  0
 15 35  1  0
 15 36  1  0
 19 37  1  0
 20 38  1  0
 21 39  1  0
 22 40  1  0
 23 41  1  0
 24 42  1  0
 25 43  1  0
A    1
C1
A    2
O1
A    3
C2
A    4
O2
A    5
C3
A    6
C4
A    7
C5
A    8
C6
A    9
O7
A   10
C8
A   11
C9
A   12
C10
A   13
C11
A   14
C12
A   15
C13
A   16
C14
A   17
C15
A   18
C16
A   19
C17
A   20
C18
A   21
C19
A   22
C20
A   23
C21
A   24
C22
A   25
C23
M  END
