3JTK_X55_A_1002
     RDKit          3D

 39 41  0  0  0  0  0  0  0  0999 V2000
   -7.7530   23.0060    3.2650 C   0  0  0  0  0  0  0  0  0  0  0  0
   -8.8620   26.8180   -1.7430 O   0  0  0  0  0  0  0  0  0  0  0  0
   -6.5550   19.5890    1.7110 O   0  0  0  0  0  0  0  0  0  0  0  0
   -7.5860   20.9460   -3.2370 Br  0  0  0  0  0  0  0  0  0  0  0  0
   -4.1860   24.6150    0.9930 C   0  0  0  0  0  0  0  0  0  0  0  0
   -5.2740   25.4850    1.0750 C   0  0  0  0  0  0  0  0  0  0  0  0
   -4.0360   23.7840   -0.1160 C   0  0  0  0  0  0  0  0  0  0  0  0
   -6.2140   25.5330    0.0450 C   0  0  0  0  0  0  0  0  0  0  0  0
   -4.9750   23.8320   -1.1460 C   0  0  0  0  0  0  0  0  0  0  0  0
   -7.0940   20.3030   -0.5000 C   0  0  0  0  0  0  0  0  0  0  0  0
   -8.5170   22.4420    0.5700 C   0  0  0  0  0  0  0  0  0  0  0  0
  -10.7520   25.4120   -1.3220 C   0  0  0  0  0  0  0  0  0  0  0  0
   -7.0660   24.7260   -2.2170 C   0  0  0  0  0  0  0  0  0  0  0  0
   -7.9400   21.6650    2.7870 O   0  0  0  0  0  0  0  0  0  0  0  0
  -10.8100   23.6190   -1.1000 S   0  0  0  0  0  0  0  0  0  0  0  0
   -9.2800   25.6690   -1.6580 C   0  0  0  0  0  0  0  0  0  0  0  0
   -6.0660   24.6980   -1.0620 C   0  0  0  0  0  0  0  0  0  0  0  0
   -7.1710   20.4720    0.8830 C   0  0  0  0  0  0  0  0  0  0  0  0
   -7.7220   21.2030   -1.3550 C   0  0  0  0  0  0  0  0  0  0  0  0
   -7.8790   21.5390    1.4260 C   0  0  0  0  0  0  0  0  0  0  0  0
   -8.4340   22.2780   -0.8150 C   0  0  0  0  0  0  0  0  0  0  0  0
   -9.1460   23.2670   -1.7500 C   0  0  0  0  0  0  0  0  0  0  0  0
   -8.4790   24.5920   -1.8130 N   0  0  0  0  0  0  0  0  0  0  0  0
   -7.7529   23.0065    4.3650 H   0  0  0  0  0  0  0  0  0  0  0  0
   -6.7919   23.3954    2.8981 H   0  0  0  0  0  0  0  0  0  0  0  0
   -8.5709   23.6435    2.8981 H   0  0  0  0  0  0  0  0  0  0  0  0
   -6.6295   19.6959    2.6924 H   0  0  0  0  0  0  0  0  0  0  0  0
   -3.4450   24.5849    1.8054 H   0  0  0  0  0  0  0  0  0  0  0  0
   -5.3909   26.1351    1.9546 H   0  0  0  0  0  0  0  0  0  0  0  0
   -3.1816   23.0940   -0.1784 H   0  0  0  0  0  0  0  0  0  0  0  0
   -7.0666   26.2253    0.1058 H   0  0  0  0  0  0  0  0  0  0  0  0
   -4.8552   23.1851   -2.0276 H   0  0  0  0  0  0  0  0  0  0  0  0
   -6.5335   19.4532   -0.9166 H   0  0  0  0  0  0  0  0  0  0  0  0
   -9.0865   23.2848    0.9887 H   0  0  0  0  0  0  0  0  0  0  0  0
  -11.0441   25.9345   -0.3991 H   0  0  0  0  0  0  0  0  0  0  0  0
  -11.4437   25.7760   -2.0960 H   0  0  0  0  0  0  0  0  0  0  0  0
   -6.8247   23.8975   -2.8992 H   0  0  0  0  0  0  0  0  0  0  0  0
   -6.9699   25.7159   -2.6870 H   0  0  0  0  0  0  0  0  0  0  0  0
   -9.1448   22.7922   -2.7422 H   0  0  0  0  0  0  0  0  0  0  0  0
 14  1  1  0
  2 16  2  0
 18  3  1  0
  4 19  1  0
  7  5  2  0
  5  6  1  0
  8  6  2  0
  9  7  1  0
 17  8  1  0
  9 17  2  0
 19 10  2  0
 10 18  1  0
 21 11  2  0
 11 20  1  0
 16 12  1  0
 12 15  1  0
 13 23  1  0
 13 17  1  0
 20 14  1  0
 22 15  1  0
 23 16  1  0
 18 20  2  0
 19 21  1  0
 22 21  1  0
 23 22  1  0
  1 24  1  0
  1 25  1  0
  1 26  1  0
  3 27  1  0
  5 28  1  0
  6 29  1  0
  7 30  1  0
  8 31  1  0
  9 32  1  0
 10 33  1  0
 11 34  1  0
 12 35  1  0
 12 36  1  0
 13 37  1  0
 13 38  1  0
 22 39  1  0
A    1
CAA
A    2
OAB
A    3
OAC
A    4
BRAD
A    5
CAE
A    6
CAF
A    7
CAG
A    8
CAH
A    9
CAI
A   10
CAJ
A   11
CAK
A   12
CAL
A   13
CAM
A   14
OAN
A   15
SAO
A   16
CAP
A   17
CAQ
A   18
CAR
A   19
CAS
A   20
CAT
A   21
CAU
A   22
CAV
A   23
NAW
M  END
