2UVN_ECN_A_1409
     RDKit          3D

 39 41  0  0  0  0  0  0  0  0999 V2000
  -53.2600   53.6270  -31.6650 C   0  0  0  0  0  0  0  0  0  0  0  0
  -53.2630   53.7040  -33.0770 C   0  0  0  0  0  0  0  0  0  0  0  0
  -57.7360   50.8370  -32.0770 Cl  0  0  0  0  0  0  0  0  0  0  0  0
  -56.2090   54.0430  -28.4650 C   0  0  0  0  0  0  0  0  0  0  0  0
  -56.1950   52.9820  -29.3040 C   0  0  0  0  0  0  0  0  0  0  0  0
  -53.8700   56.0190  -31.5250 C   0  0  0  0  0  0  0  0  0  0  0  0
  -53.5630   54.7850  -30.9150 C   0  0  0  0  0  0  0  0  0  0  0  0
  -53.8800   56.1280  -32.8900 C   0  0  0  0  0  0  0  0  0  0  0  0
  -54.2540   57.6540  -33.5740 Cl  0  0  0  0  0  0  0  0  0  0  0  0
  -56.6340   49.4830  -32.0850 C   0  0  0  0  0  0  0  0  0  0  0  0
  -57.0180   48.2470  -32.6970 C   0  0  0  0  0  0  0  0  0  0  0  0
  -56.1150   47.1310  -32.7130 C   0  0  0  0  0  0  0  0  0  0  0  0
  -54.8500   47.2470  -32.1160 C   0  0  0  0  0  0  0  0  0  0  0  0
  -56.5450   45.6400  -33.4630 Cl  0  0  0  0  0  0  0  0  0  0  0  0
  -55.3570   53.7720  -27.4800 N   0  0  0  0  0  0  0  0  0  0  0  0
  -54.9210   50.7530  -29.3370 C   0  0  0  0  0  0  0  0  0  0  0  0
  -54.8730   50.8660  -30.8660 C   0  0  0  0  0  0  0  0  0  0  0  0
  -53.5150   51.1330  -31.4030 O   0  0  0  0  0  0  0  0  0  0  0  0
  -55.3450   49.5830  -31.4980 C   0  0  0  0  0  0  0  0  0  0  0  0
  -55.2940   52.0600  -28.7840 N   0  0  0  0  0  0  0  0  0  0  0  0
  -54.8120   52.5910  -27.6670 C   0  0  0  0  0  0  0  0  0  0  0  0
  -52.9300   52.3480  -30.8880 C   0  0  0  0  0  0  0  0  0  0  0  0
  -53.5780   54.9750  -33.6960 C   0  0  0  0  0  0  0  0  0  0  0  0
  -54.4650   48.4620  -31.5140 C   0  0  0  0  0  0  0  0  0  0  0  0
  -53.0318   52.8205  -33.6901 H   0  0  0  0  0  0  0  0  0  0  0  0
  -56.8110   54.9569  -28.5762 H   0  0  0  0  0  0  0  0  0  0  0  0
  -56.7858   52.8698  -30.2251 H   0  0  0  0  0  0  0  0  0  0  0  0
  -54.1020   56.8960  -30.9028 H   0  0  0  0  0  0  0  0  0  0  0  0
  -53.5594   54.7221  -29.8168 H   0  0  0  0  0  0  0  0  0  0  0  0
  -58.0121   48.1517  -33.1583 H   0  0  0  0  0  0  0  0  0  0  0  0
  -54.1597   46.3905  -32.1179 H   0  0  0  0  0  0  0  0  0  0  0  0
  -55.6672   49.9997  -29.0440 H   0  0  0  0  0  0  0  0  0  0  0  0
  -53.9372   50.4478  -28.9510 H   0  0  0  0  0  0  0  0  0  0  0  0
  -55.5242   51.7177  -31.1121 H   0  0  0  0  0  0  0  0  0  0  0  0
  -54.0736   52.1176  -27.0032 H   0  0  0  0  0  0  0  0  0  0  0  0
  -51.8370   52.2240  -30.8902 H   0  0  0  0  0  0  0  0  0  0  0  0
  -53.3618   52.4867  -29.8858 H   0  0  0  0  0  0  0  0  0  0  0  0
  -53.5864   55.0596  -34.7927 H   0  0  0  0  0  0  0  0  0  0  0  0
  -53.4712   48.5462  -31.0500 H   0  0  0  0  0  0  0  0  0  0  0  0
  1  2  2  0
  4  5  2  0
  1  7  1  0
  6  7  2  0
  6  8  1  0
  8  9  1  0
  3 10  1  0
 10 11  2  0
 11 12  1  0
 12 13  2  0
 12 14  1  0
  4 15  1  0
 16 17  1  0
 17 18  1  0
 10 19  1  0
 17 19  1  0
  5 20  1  0
 16 20  1  0
 15 21  2  0
 20 21  1  0
  1 22  1  0
 18 22  1  0
  2 23  1  0
  8 23  2  0
 13 24  1  0
 19 24  2  0
  2 25  1  0
  4 26  1  0
  5 27  1  0
  6 28  1  0
  7 29  1  0
 11 30  1  0
 13 31  1  0
 16 32  1  0
 16 33  1  0
 17 34  1  0
 21 35  1  0
 22 36  1  0
 22 37  1  0
 23 38  1  0
 24 39  1  0
A    1
C1
A    2
C2
A    3
CL4
A    4
C6
A    5
C7
A    6
C9
A    7
C10
A    8
C11
A    9
CL2
A   10
C14
A   11
C15
A   12
C16
A   13
C17
A   14
CL8
A   15
N19
A   16
C19
A   17
C20
A   18
O20
A   19
C5
A   20
N1
A   21
C3
A   22
C8
A   23
C13
A   24
C21
M  END
