3JY0_LYG_A_1000
     RDKit          3D

 36 39  0  0  0  0  0  0  0  0999 V2000
  -37.6130   -5.4470    4.2080 C   0  0  0  0  0  0  0  0  0  0  0  0
  -37.6470   -3.5830    2.9950 N   0  0  0  0  0  0  0  0  0  0  0  0
  -36.5630   -6.2880    3.7830 O   0  0  0  0  0  0  0  0  0  0  0  0
  -41.3380   -2.9260   -2.6070 S   0  0  0  0  0  0  0  0  0  0  0  0
  -45.6760   -1.0860    1.0960 Cl  0  0  0  0  0  0  0  0  0  0  0  0
  -36.8330   -4.2930    4.8730 C   0  0  0  0  0  0  0  0  0  0  0  0
  -40.1570   -2.3540    1.0210 N   0  0  0  0  0  0  0  0  0  0  0  0
  -38.2560   -3.6080   -2.3870 O   0  0  0  0  0  0  0  0  0  0  0  0
  -36.2680   -3.5870    3.6200 C   0  0  0  0  0  0  0  0  0  0  0  0
  -38.2250   -3.1170   -0.1740 N   0  0  0  0  0  0  0  0  0  0  0  0
  -38.0070   -2.5050    2.0840 C   0  0  0  0  0  0  0  0  0  0  0  0
  -38.9010   -2.6680    0.9240 C   0  0  0  0  0  0  0  0  0  0  0  0
  -40.8560   -2.4830   -0.1790 C   0  0  0  0  0  0  0  0  0  0  0  0
  -42.2420   -2.1910   -0.3700 C   0  0  0  0  0  0  0  0  0  0  0  0
  -43.1680   -1.7470    0.5270 C   0  0  0  0  0  0  0  0  0  0  0  0
  -44.4390   -1.5930    0.0040 C   0  0  0  0  0  0  0  0  0  0  0  0
  -44.8330   -1.8330   -1.2860 C   0  0  0  0  0  0  0  0  0  0  0  0
  -43.9080   -2.2520   -2.2090 C   0  0  0  0  0  0  0  0  0  0  0  0
  -42.6660   -2.4160   -1.6790 C   0  0  0  0  0  0  0  0  0  0  0  0
  -40.2130   -2.8950   -1.3070 C   0  0  0  0  0  0  0  0  0  0  0  0
  -38.8430   -3.2530   -1.3820 C   0  0  0  0  0  0  0  0  0  0  0  0
  -38.1900   -4.9650    2.8720 C   0  0  0  0  0  0  0  0  0  0  0  0
  -38.3895   -5.8614    4.8677 H   0  0  0  0  0  0  0  0  0  0  0  0
  -36.0979   -6.6605    4.5736 H   0  0  0  0  0  0  0  0  0  0  0  0
  -37.4967   -3.6314    5.4489 H   0  0  0  0  0  0  0  0  0  0  0  0
  -36.0755   -4.6097    5.6051 H   0  0  0  0  0  0  0  0  0  0  0  0
  -35.5265   -4.1816    3.0663 H   0  0  0  0  0  0  0  0  0  0  0  0
  -35.7006   -2.6499    3.7191 H   0  0  0  0  0  0  0  0  0  0  0  0
  -37.2273   -3.3581   -0.0881 H   0  0  0  0  0  0  0  0  0  0  0  0
  -38.4703   -1.7283    2.7101 H   0  0  0  0  0  0  0  0  0  0  0  0
  -37.0447   -2.3268    1.5818 H   0  0  0  0  0  0  0  0  0  0  0  0
  -42.9247   -1.5297    1.5775 H   0  0  0  0  0  0  0  0  0  0  0  0
  -45.8835   -1.6908   -1.5798 H   0  0  0  0  0  0  0  0  0  0  0  0
  -44.1460   -2.4360   -3.2670 H   0  0  0  0  0  0  0  0  0  0  0  0
  -37.7854   -5.5107    2.0068 H   0  0  0  0  0  0  0  0  0  0  0  0
  -39.2718   -5.0792    2.7085 H   0  0  0  0  0  0  0  0  0  0  0  0
 22  1  1  0
  3  1  1  0
  1  6  1  0
 11  2  1  0
 22  2  1  0
  2  9  1  0
  4 19  1  0
  4 20  1  0
 16  5  1  0
  9  6  1  0
 13  7  1  0
 12  7  2  0
  8 21  2  0
 21 10  1  0
 10 12  1  0
 12 11  1  0
 20 13  2  0
 14 13  1  0
 19 14  2  0
 14 15  1  0
 16 15  2  0
 17 16  1  0
 18 17  2  0
 18 19  1  0
 21 20  1  0
  1 23  1  0
  3 24  1  0
  6 25  1  0
  6 26  1  0
  9 27  1  0
  9 28  1  0
 10 29  1  0
 11 30  1  0
 11 31  1  0
 15 32  1  0
 17 33  1  0
 18 34  1  0
 22 35  1  0
 22 36  1  0
A    1
C1
A    2
N1
A    3
O1
A    4
S1
A    5
CL1
A    6
C2
A    7
N2
A    8
O2
A    9
C3
A   10
N3
A   11
C4
A   12
C5
A   13
C6
A   14
C7
A   15
C8
A   16
C9
A   17
C10
A   18
C11
A   19
C12
A   20
C13
A   21
C14
A   22
C15
M  END
