3JZK_YIN_A_1
     RDKit          3D

 47 52  0  0  0  0  0  0  0  0999 V2000
   10.0160  -15.8340   25.9040 C   0  0  0  0  0  0  0  0  0  0  0  0
   11.3370  -16.6150   24.0060 N   0  0  0  0  0  0  0  0  0  0  0  0
    6.7510  -15.3200   22.7390 O   0  0  0  0  0  0  0  0  0  0  0  0
   10.3610  -13.8190   30.0390 Br  0  0  0  0  0  0  0  0  0  0  0  0
    9.4980  -16.6000   27.0400 C   0  0  0  0  0  0  0  0  0  0  0  0
   13.0110  -16.4650   22.7090 N   0  0  0  0  0  0  0  0  0  0  0  0
    6.0780  -10.4650   27.3190 Br  0  0  0  0  0  0  0  0  0  0  0  0
    9.5530  -16.0100   28.3530 C   0  0  0  0  0  0  0  0  0  0  0  0
   10.8510  -15.3140   21.9490 N   0  0  0  0  0  0  0  0  0  0  0  0
   10.1260  -14.7080   28.3830 C   0  0  0  0  0  0  0  0  0  0  0  0
   12.2740  -17.2910   24.6340 N   0  0  0  0  0  0  0  0  0  0  0  0
   10.6280  -13.9280   27.3240 C   0  0  0  0  0  0  0  0  0  0  0  0
   10.5760  -14.5140   26.0360 C   0  0  0  0  0  0  0  0  0  0  0  0
    7.5570  -15.2740   23.9390 C   0  0  0  0  0  0  0  0  0  0  0  0
   13.3460  -17.1960   23.8070 C   0  0  0  0  0  0  0  0  0  0  0  0
    9.0140  -15.5700   23.5600 C   0  0  0  0  0  0  0  0  0  0  0  0
    9.9510  -16.4060   24.5430 C   0  0  0  0  0  0  0  0  0  0  0  0
   11.7460  -16.0910   22.8150 C   0  0  0  0  0  0  0  0  0  0  0  0
    9.4760  -15.1150   22.3550 C   0  0  0  0  0  0  0  0  0  0  0  0
    9.1340  -13.6140   20.3190 C   0  0  0  0  0  0  0  0  0  0  0  0
    8.1400  -12.9550   19.4880 C   0  0  0  0  0  0  0  0  0  0  0  0
    6.7380  -13.1050   19.7220 C   0  0  0  0  0  0  0  0  0  0  0  0
    6.2480  -13.9250   20.8090 C   0  0  0  0  0  0  0  0  0  0  0  0
    7.2080  -14.5800   21.6480 C   0  0  0  0  0  0  0  0  0  0  0  0
    8.6210  -14.4320   21.4110 C   0  0  0  0  0  0  0  0  0  0  0  0
    6.2730  -14.1710   25.6790 C   0  0  0  0  0  0  0  0  0  0  0  0
    7.3350  -13.9900   24.7200 C   0  0  0  0  0  0  0  0  0  0  0  0
    8.0400  -12.7240   24.5300 C   0  0  0  0  0  0  0  0  0  0  0  0
    7.6610  -11.5880   25.3260 C   0  0  0  0  0  0  0  0  0  0  0  0
    6.5900  -11.7940   26.2730 C   0  0  0  0  0  0  0  0  0  0  0  0
    5.8780  -13.0410   26.4820 C   0  0  0  0  0  0  0  0  0  0  0  0
    9.0757  -17.6051   26.8935 H   0  0  0  0  0  0  0  0  0  0  0  0
   13.6390  -16.2398   21.9243 H   0  0  0  0  0  0  0  0  0  0  0  0
    9.1840  -16.5216   29.2542 H   0  0  0  0  0  0  0  0  0  0  0  0
   11.0375  -12.9203   27.4878 H   0  0  0  0  0  0  0  0  0  0  0  0
   10.9548  -13.9731   25.1562 H   0  0  0  0  0  0  0  0  0  0  0  0
    7.2468  -16.0558   24.6479 H   0  0  0  0  0  0  0  0  0  0  0  0
   14.3340  -17.6415   23.9953 H   0  0  0  0  0  0  0  0  0  0  0  0
    9.4664  -17.3912   24.6108 H   0  0  0  0  0  0  0  0  0  0  0  0
   10.2125  -13.5017   20.1342 H   0  0  0  0  0  0  0  0  0  0  0  0
    8.4769  -12.3218   18.6540 H   0  0  0  0  0  0  0  0  0  0  0  0
    6.0209  -12.5895   19.0662 H   0  0  0  0  0  0  0  0  0  0  0  0
    5.1688  -14.0424   20.9865 H   0  0  0  0  0  0  0  0  0  0  0  0
    5.7773  -15.1462   25.7946 H   0  0  0  0  0  0  0  0  0  0  0  0
    8.8487  -12.6413   23.7889 H   0  0  0  0  0  0  0  0  0  0  0  0
    8.1603  -10.6137   25.2194 H   0  0  0  0  0  0  0  0  0  0  0  0
    5.0693  -13.1208   27.2234 H   0  0  0  0  0  0  0  0  0  0  0  0
  1  5  2  0
  1 13  1  0
  1 17  1  0
  2 11  1  0
  2 17  1  0
  2 18  1  0
  3 14  1  0
  3 24  1  0
  4 10  1  0
  5  8  1  0
  6 15  1  0
  6 18  1  0
  7 30  1  0
  8 10  2  0
  9 18  2  0
  9 19  1  0
 10 12  1  0
 11 15  2  0
 12 13  2  0
 14 16  1  0
 14 27  1  0
 16 17  1  0
 16 19  2  0
 19 25  1  0
 20 21  1  0
 20 25  2  0
 21 22  2  0
 22 23  1  0
 23 24  2  0
 24 25  1  0
 26 27  2  0
 26 31  1  0
 27 28  1  0
 28 29  2  0
 29 30  1  0
 30 31  2  0
  5 32  1  0
  6 33  1  0
  8 34  1  0
 12 35  1  0
 13 36  1  0
 14 37  1  0
 15 38  1  0
 17 39  1  0
 20 40  1  0
 21 41  1  0
 22 42  1  0
 23 43  1  0
 26 44  1  0
 28 45  1  0
 29 46  1  0
 31 47  1  0
A    1
C1
A    2
N1
A    3
O1
A    4
BR1
A    5
C2
A    6
N2
A    7
BR2
A    8
C3
A    9
N3
A   10
C4
A   11
N4
A   12
C5
A   13
C6
A   14
C7
A   15
C8
A   16
C9
A   17
C10
A   18
C11
A   19
C12
A   20
C13
A   21
C14
A   22
C15
A   23
C16
A   24
C17
A   25
C18
A   26
C19
A   27
C20
A   28
C21
A   29
C22
A   30
C23
A   31
C24
M  END
