3K0V_DXI_A_1
     RDKit          3D

 66 68  0  0  0  0  0  0  0  0999 V2000
  -19.9130   16.2000   14.5330 O   0  0  0  0  0  0  0  0  0  0  0  0
  -19.5560   18.6240   16.5230 O   0  0  0  0  0  0  0  0  0  0  0  0
  -18.6510   14.6670   13.2930 O   0  0  0  0  0  0  0  0  0  0  0  0
  -20.9760   19.1800   18.2470 O   0  0  0  0  0  0  0  0  0  0  0  0
  -21.9830   15.1900   12.0920 O   0  0  0  0  0  0  0  0  0  0  0  0
  -16.9700   16.7960   17.3180 O   0  0  0  0  0  0  0  0  0  0  0  0
  -16.7550   14.6990   15.5160 O   0  0  0  0  0  0  0  0  0  0  0  0
  -20.6150   11.7880   12.7650 O   0  0  0  0  0  0  0  0  0  0  0  0
  -17.5910   20.3460   17.5600 O   0  0  0  0  0  0  0  0  0  0  0  0
  -18.5430   22.3160   19.3260 O   0  0  0  0  0  0  0  0  0  0  0  0
  -20.5900   21.5610   21.0250 O   0  0  0  0  0  0  0  0  0  0  0  0
  -22.4550   14.2600   14.7010 O   0  0  0  0  0  0  0  0  0  0  0  0
  -22.4680   16.9780   14.5870 O   0  0  0  0  0  0  0  0  0  0  0  0
  -24.0560   14.5460   12.6470 O   0  0  0  0  0  0  0  0  0  0  0  0
  -21.4140   15.1070    9.4860 O   0  0  0  0  0  0  0  0  0  0  0  0
  -23.1960   18.3700   19.3800 O   0  0  0  0  0  0  0  0  0  0  0  0
  -19.3080   17.2130   16.6350 C   0  0  0  0  0  0  0  0  0  0  0  0
  -18.1250   16.2340   16.7280 C   0  0  0  0  0  0  0  0  0  0  0  0
  -17.7320   15.6980   15.3440 C   0  0  0  0  0  0  0  0  0  0  0  0
  -20.4300   16.5960   15.7890 C   0  0  0  0  0  0  0  0  0  0  0  0
  -18.9620   15.1590   14.6070 C   0  0  0  0  0  0  0  0  0  0  0  0
  -19.8870   14.0990   12.8230 C   0  0  0  0  0  0  0  0  0  0  0  0
  -19.6210   19.0800   17.8550 C   0  0  0  0  0  0  0  0  0  0  0  0
  -20.7480   12.9950   13.4920 C   0  0  0  0  0  0  0  0  0  0  0  0
  -20.6250   14.9560   11.7710 C   0  0  0  0  0  0  0  0  0  0  0  0
  -18.9560   20.4540   17.9030 C   0  0  0  0  0  0  0  0  0  0  0  0
  -19.0980   21.0260   19.3080 C   0  0  0  0  0  0  0  0  0  0  0  0
  -20.5710   21.0650   19.7080 C   0  0  0  0  0  0  0  0  0  0  0  0
  -22.2410   13.3550   13.6470 C   0  0  0  0  0  0  0  0  0  0  0  0
  -21.1770   19.6540   19.5680 C   0  0  0  0  0  0  0  0  0  0  0  0
  -21.5890   17.5590   15.5190 C   0  0  0  0  0  0  0  0  0  0  0  0
  -22.7680   14.0580   12.3960 C   0  0  0  0  0  0  0  0  0  0  0  0
  -20.5780   14.3730   10.3510 C   0  0  0  0  0  0  0  0  0  0  0  0
  -22.6890   19.6150   19.8000 C   0  0  0  0  0  0  0  0  0  0  0  0
  -17.0507   16.7567   18.3039 H   0  0  0  0  0  0  0  0  0  0  0  0
  -16.6057   14.5464   16.4827 H   0  0  0  0  0  0  0  0  0  0  0  0
  -20.5315   11.0300   13.3963 H   0  0  0  0  0  0  0  0  0  0  0  0
  -17.0458   20.3029   18.3852 H   0  0  0  0  0  0  0  0  0  0  0  0
  -18.4173   22.6081   20.2635 H   0  0  0  0  0  0  0  0  0  0  0  0
  -20.5610   20.8045   21.6630 H   0  0  0  0  0  0  0  0  0  0  0  0
  -22.3442   13.7914   15.5660 H   0  0  0  0  0  0  0  0  0  0  0  0
  -23.1901   16.5007   15.0675 H   0  0  0  0  0  0  0  0  0  0  0  0
  -24.2031   14.6017   13.6244 H   0  0  0  0  0  0  0  0  0  0  0  0
  -22.0403   15.6569   10.0203 H   0  0  0  0  0  0  0  0  0  0  0  0
  -23.4198   17.8205   20.1725 H   0  0  0  0  0  0  0  0  0  0  0  0
  -19.0557   17.3189   17.7004 H   0  0  0  0  0  0  0  0  0  0  0  0
  -18.4861   15.4207   17.3746 H   0  0  0  0  0  0  0  0  0  0  0  0
  -17.3168   16.5084   14.7268 H   0  0  0  0  0  0  0  0  0  0  0  0
  -20.8146   15.7449   16.3701 H   0  0  0  0  0  0  0  0  0  0  0  0
  -19.3601   14.2993   15.1660 H   0  0  0  0  0  0  0  0  0  0  0  0
  -19.2591   13.2393   12.5462 H   0  0  0  0  0  0  0  0  0  0  0  0
  -19.1095   18.3858   18.5380 H   0  0  0  0  0  0  0  0  0  0  0  0
  -20.3619   12.8836   14.5160 H   0  0  0  0  0  0  0  0  0  0  0  0
  -20.0683   15.9045   11.7916 H   0  0  0  0  0  0  0  0  0  0  0  0
  -19.4449   21.1241   17.1805 H   0  0  0  0  0  0  0  0  0  0  0  0
  -18.5658   20.3907   20.0313 H   0  0  0  0  0  0  0  0  0  0  0  0
  -21.1858   21.7128   19.0659 H   0  0  0  0  0  0  0  0  0  0  0  0
  -22.7564   12.4010   13.8321 H   0  0  0  0  0  0  0  0  0  0  0  0
  -20.6756   19.0398   20.3305 H   0  0  0  0  0  0  0  0  0  0  0  0
  -21.1957   18.5032   15.1142 H   0  0  0  0  0  0  0  0  0  0  0  0
  -22.1269   17.7608   16.4571 H   0  0  0  0  0  0  0  0  0  0  0  0
  -22.7482   13.3297   11.5718 H   0  0  0  0  0  0  0  0  0  0  0  0
  -20.9157   13.3265   10.3784 H   0  0  0  0  0  0  0  0  0  0  0  0
  -19.5446   14.4295    9.9783 H   0  0  0  0  0  0  0  0  0  0  0  0
  -23.1693   20.4198   19.2241 H   0  0  0  0  0  0  0  0  0  0  0  0
  -22.8996   19.7546   20.8706 H   0  0  0  0  0  0  0  0  0  0  0  0
  1 21  1  0
  1 20  1  0
  2 17  1  0
  2 23  1  0
 22  3  1  0
  3 21  1  0
 23  4  1  0
  4 30  1  0
 25  5  1  0
  5 32  1  0
 18  6  1  0
 19  7  1  0
  8 24  1  0
  9 26  1  0
 27 10  1  0
 28 11  1  0
 29 12  1  0
 13 31  1  0
 32 14  1  0
 15 33  1  0
 16 34  1  0
 20 17  1  0
 17 18  1  0
 19 18  1  0
 21 19  1  0
 31 20  1  0
 25 22  1  0
 22 24  1  0
 23 26  1  0
 24 29  1  0
 33 25  1  0
 26 27  1  0
 27 28  1  0
 30 28  1  0
 32 29  1  0
 30 34  1  0
  6 35  1  0
  7 36  1  0
  8 37  1  0
  9 38  1  0
 10 39  1  0
 11 40  1  0
 12 41  1  0
 13 42  1  0
 14 43  1  0
 15 44  1  0
 16 45  1  0
 17 46  1  0
 18 47  1  0
 19 48  1  0
 20 49  1  0
 21 50  1  0
 22 51  1  0
 23 52  1  0
 24 53  1  0
 25 54  1  0
 26 55  1  0
 27 56  1  0
 28 57  1  0
 29 58  1  0
 30 59  1  0
 31 60  1  0
 31 61  1  0
 32 62  1  0
 33 63  1  0
 33 64  1  0
 34 65  1  0
 34 66  1  0
A    1
O1
A    2
O2
A    3
O3
A    4
O4
A    5
O5
A    6
O6
A    7
O7
A    8
O8
A    9
O9
A   10
O10
A   11
O11
A   12
O12
A   13
O13
A   14
O14
A   15
O15
A   16
O16
A   17
C17
A   18
C18
A   19
C19
A   20
C20
A   21
C21
A   22
C22
A   23
C23
A   24
C24
A   25
C25
A   26
C26
A   27
C27
A   28
C28
A   29
C29
A   30
C30
A   31
C31
A   32
C32
A   33
C33
A   34
C34
M  END
