3K1W_BFX_A_342
     RDKit          3D

 69 73  0  0  0  0  0  0  0  0999 V2000
    2.1780    8.9280   -5.4010 Br  0  0  0  0  0  0  0  0  0  0  0  0
    1.3120    8.2850   -3.8490 C   0  0  0  0  0  0  0  0  0  0  0  0
    2.0700    7.5140   -3.0190 C   0  0  0  0  0  0  0  0  0  0  0  0
   -0.0040    8.5820   -3.5690 C   0  0  0  0  0  0  0  0  0  0  0  0
    3.3540    7.2350   -3.3450 O   0  0  0  0  0  0  0  0  0  0  0  0
    1.4940    6.9920   -1.8660 C   0  0  0  0  0  0  0  0  0  0  0  0
   -0.5920    8.0840   -2.4070 C   0  0  0  0  0  0  0  0  0  0  0  0
    4.0170    6.1600   -2.6800 C   0  0  0  0  0  0  0  0  0  0  0  0
    0.1680    7.2940   -1.5750 C   0  0  0  0  0  0  0  0  0  0  0  0
    5.4780    6.2160   -3.0500 C   0  0  0  0  0  0  0  0  0  0  0  0
   -0.3890    6.8000   -0.4550 F   0  0  0  0  0  0  0  0  0  0  0  0
    6.1720    4.9960   -2.4640 C   0  0  0  0  0  0  0  0  0  0  0  0
    6.4140    5.0880   -0.9550 C   0  0  0  0  0  0  0  0  0  0  0  0
    5.8070    4.1830   -0.0760 C   0  0  0  0  0  0  0  0  0  0  0  0
    7.2700    6.0520   -0.4500 C   0  0  0  0  0  0  0  0  0  0  0  0
    6.0210    4.2240    1.3040 C   0  0  0  0  0  0  0  0  0  0  0  0
    7.4940    6.1150    0.9220 C   0  0  0  0  0  0  0  0  0  0  0  0
    6.8860    5.2100    1.8030 C   0  0  0  0  0  0  0  0  0  0  0  0
    7.2110    5.3410    3.2660 C   0  0  0  0  0  0  0  0  0  0  0  0
    6.3130    5.4270    4.2730 C   0  0  0  0  0  0  0  0  0  0  0  0
    8.7040    5.3120    3.5470 C   0  0  0  0  0  0  0  0  0  0  0  0
    4.9110    5.1120    4.0630 C   0  0  0  0  0  0  0  0  0  0  0  0
    6.7180    5.7760    5.6910 C   0  0  0  0  0  0  0  0  0  0  0  0
    9.0220    5.2000    5.0310 C   0  0  0  0  0  0  0  0  0  0  0  0
    4.5100    4.0540    4.5400 O   0  0  0  0  0  0  0  0  0  0  0  0
    4.1050    5.9340    3.3790 N   0  0  0  0  0  0  0  0  0  0  0  0
    8.1450    6.0560    5.8120 N   0  0  0  0  0  0  0  0  0  0  0  0
    4.5470    7.1970    2.7550 C   0  0  0  0  0  0  0  0  0  0  0  0
    2.7160    5.5400    3.0900 C   0  0  0  0  0  0  0  0  0  0  0  0
    5.0260    8.2730    3.7360 C   0  0  0  0  0  0  0  0  0  0  0  0
    3.6320    8.3660    3.1460 C   0  0  0  0  0  0  0  0  0  0  0  0
    1.7600    5.7870    4.2510 C   0  0  0  0  0  0  0  0  0  0  0  0
    0.4090    5.5320    4.1120 C   0  0  0  0  0  0  0  0  0  0  0  0
    2.1720    6.3120    5.4720 C   0  0  0  0  0  0  0  0  0  0  0  0
   -0.2230    4.8750    2.5890 Cl  0  0  0  0  0  0  0  0  0  0  0  0
   -0.5270    5.7610    5.1020 C   0  0  0  0  0  0  0  0  0  0  0  0
    1.2440    6.5370    6.5020 C   0  0  0  0  0  0  0  0  0  0  0  0
   -0.1100    6.2690    6.3050 C   0  0  0  0  0  0  0  0  0  0  0  0
   -0.5879    9.2090   -4.2589 H   0  0  0  0  0  0  0  0  0  0  0  0
    2.0795    6.3486   -1.1928 H   0  0  0  0  0  0  0  0  0  0  0  0
   -1.6385    8.3170   -2.1611 H   0  0  0  0  0  0  0  0  0  0  0  0
    3.9029    6.2671   -1.5912 H   0  0  0  0  0  0  0  0  0  0  0  0
    3.5820    5.1960   -2.9826 H   0  0  0  0  0  0  0  0  0  0  0  0
    5.5838    6.2127   -4.1449 H   0  0  0  0  0  0  0  0  0  0  0  0
    5.9324    7.1353   -2.6519 H   0  0  0  0  0  0  0  0  0  0  0  0
    5.5466    4.1129   -2.6617 H   0  0  0  0  0  0  0  0  0  0  0  0
    7.1598    4.9283   -2.9433 H   0  0  0  0  0  0  0  0  0  0  0  0
    5.1379    3.4124   -0.4864 H   0  0  0  0  0  0  0  0  0  0  0  0
    7.7684    6.7615   -1.1270 H   0  0  0  0  0  0  0  0  0  0  0  0
    5.5278    3.5072    1.9771 H   0  0  0  0  0  0  0  0  0  0  0  0
    8.1621    6.8912    1.3235 H   0  0  0  0  0  0  0  0  0  0  0  0
    9.1429    4.4476    3.0272 H   0  0  0  0  0  0  0  0  0  0  0  0
    9.1274    6.2617    3.1880 H   0  0  0  0  0  0  0  0  0  0  0  0
    6.1557    6.6661    6.0095 H   0  0  0  0  0  0  0  0  0  0  0  0
    6.4931    4.9066    6.3263 H   0  0  0  0  0  0  0  0  0  0  0  0
    8.8864    4.1564    5.3513 H   0  0  0  0  0  0  0  0  0  0  0  0
   10.0623    5.5181    5.1940 H   0  0  0  0  0  0  0  0  0  0  0  0
    8.3034    7.0288    5.5130 H   0  0  0  0  0  0  0  0  0  0  0  0
    4.9571    6.7692    1.8283 H   0  0  0  0  0  0  0  0  0  0  0  0
    2.3644    6.1155    2.2210 H   0  0  0  0  0  0  0  0  0  0  0  0
    2.7200    4.4567    2.8990 H   0  0  0  0  0  0  0  0  0  0  0  0
    5.1562    8.0266    4.8001 H   0  0  0  0  0  0  0  0  0  0  0  0
    5.8939    8.9471    3.7841 H   0  0  0  0  0  0  0  0  0  0  0  0
    3.3980    9.1500    2.4107 H   0  0  0  0  0  0  0  0  0  0  0  0
    2.6173    8.4518    3.5621 H   0  0  0  0  0  0  0  0  0  0  0  0
    3.2333    6.5528    5.6319 H   0  0  0  0  0  0  0  0  0  0  0  0
   -1.5902    5.5392    4.9277 H   0  0  0  0  0  0  0  0  0  0  0  0
    1.5879    6.9275    7.4711 H   0  0  0  0  0  0  0  0  0  0  0  0
   -0.8369    6.4634    7.1074 H   0  0  0  0  0  0  0  0  0  0  0  0
  1  2  1  0
  2  3  2  0
  2  4  1  0
  3  5  1  0
  3  6  1  0
  4  7  2  0
  5  8  1  0
  6  9  2  0
  7  9  1  0
  8 10  1  0
  9 11  1  0
 10 12  1  0
 12 13  1  0
 13 14  2  0
 13 15  1  0
 14 16  1  0
 15 17  2  0
 16 18  2  0
 17 18  1  0
 18 19  1  0
 19 20  2  0
 19 21  1  0
 20 22  1  0
 20 23  1  0
 21 24  1  0
 22 25  2  0
 22 26  1  0
 23 27  1  0
 24 27  1  0
 26 28  1  0
 26 29  1  0
 28 30  1  0
 28 31  1  0
 29 32  1  0
 30 31  1  0
 32 33  2  0
 32 34  1  0
 33 35  1  0
 33 36  1  0
 34 37  2  0
 36 38  2  0
 37 38  1  0
  4 39  1  0
  6 40  1  0
  7 41  1  0
  8 42  1  0
  8 43  1  0
 10 44  1  0
 10 45  1  0
 12 46  1  0
 12 47  1  0
 14 48  1  0
 15 49  1  0
 16 50  1  0
 17 51  1  0
 21 52  1  0
 21 53  1  0
 23 54  1  0
 23 55  1  0
 24 56  1  0
 24 57  1  0
 27 58  1  0
 28 59  1  0
 29 60  1  0
 29 61  1  0
 30 62  1  0
 30 63  1  0
 31 64  1  0
 31 65  1  0
 34 66  1  0
 36 67  1  0
 37 68  1  0
 38 69  1  0
A    1
BR1
A    2
C2
A    3
C3
A    4
C4
A    5
O5
A    6
C6
A    7
C7
A    8
C8
A    9
C9
A   10
C10
A   11
F11
A   12
C12
A   13
C13
A   14
C14
A   15
C15
A   16
C16
A   17
C17
A   18
C18
A   19
C19
A   20
C20
A   21
C21
A   22
C22
A   23
C23
A   24
C24
A   25
O25
A   26
N26
A   27
N27
A   28
C28
A   29
C29
A   30
C30
A   31
C31
A   32
C32
A   33
C33
A   34
C34
A   35
CL35
A   36
C36
A   37
C37
A   38
C38
M  END
