3K1X_DBX_A_131
     RDKit          3D

 18 18  0  0  0  0  0  0  0  0999 V2000
   39.5560   40.0640   57.2620 C   0  0  0  0  0  0  0  0  0  0  0  0
   38.1910   38.4990   56.0840 O   0  0  0  0  0  0  0  0  0  0  0  0
   39.1430   38.5430   57.2200 S   0  0  0  0  0  0  0  0  0  0  0  0
   39.6890   40.7230   58.4250 C   0  0  0  0  0  0  0  0  0  0  0  0
   38.3730   37.9960   58.3520 O   0  0  0  0  0  0  0  0  0  0  0  0
   39.8000   40.7110   56.0740 C   0  0  0  0  0  0  0  0  0  0  0  0
   40.4180   37.7560   57.0480 O   0  0  0  0  0  0  0  0  0  0  0  0
   40.2930   42.7310   57.2250 C   0  0  0  0  0  0  0  0  0  0  0  0
   39.4770   40.0680   59.5750 O   0  0  0  0  0  0  0  0  0  0  0  0
   40.1700   42.0420   56.0570 C   0  0  0  0  0  0  0  0  0  0  0  0
   40.3900   42.6740   54.8660 O   0  0  0  0  0  0  0  0  0  0  0  0
   40.0410   42.0630   58.3980 C   0  0  0  0  0  0  0  0  0  0  0  0
   38.7849   38.2886   59.2034 H   0  0  0  0  0  0  0  0  0  0  0  0
   39.6995   40.1626   55.1258 H   0  0  0  0  0  0  0  0  0  0  0  0
   40.5856   43.7914   57.2288 H   0  0  0  0  0  0  0  0  0  0  0  0
   39.6252   40.5260   60.4401 H   0  0  0  0  0  0  0  0  0  0  0  0
   40.7154   43.6089   54.8544 H   0  0  0  0  0  0  0  0  0  0  0  0
   40.1213   42.6103   59.3488 H   0  0  0  0  0  0  0  0  0  0  0  0
  4  1  2  0
  3  1  1  0
  1  6  1  0
  2  3  2  0
  3  7  2  0
  3  5  1  0
  9  4  1  0
  4 12  1  0
  6 10  2  0
 12  8  2  0
  8 10  1  0
 10 11  1  0
  5 13  1  0
  6 14  1  0
  8 15  1  0
  9 16  1  0
 11 17  1  0
 12 18  1  0
A    1
C1
A    2
O1
A    3
S1
A    4
C2
A    5
O2
A    6
C3
A    7
O3
A    8
C4
A    9
O4
A   10
C5
A   11
O5
A   12
C6
M  END
