3K22_JZS_A_1
     RDKit          3D

 57 59  0  0  0  0  0  0  0  0999 V2000
  -22.8280   33.2100   10.9460 C   0  0  0  0  0  0  0  0  0  0  0  0
  -16.8810   26.7220   20.5400 F   0  0  0  0  0  0  0  0  0  0  0  0
  -22.0060   31.4680   12.4190 N   0  0  0  0  0  0  0  0  0  0  0  0
  -21.4610   31.6420   14.6400 O   0  0  0  0  0  0  0  0  0  0  0  0
  -22.1110   32.8860   12.2250 C   0  0  0  0  0  0  0  0  0  0  0  0
  -15.8800   26.2100   22.3890 F   0  0  0  0  0  0  0  0  0  0  0  0
  -21.1700   26.8370   16.0230 N   0  0  0  0  0  0  0  0  0  0  0  0
  -17.5590   24.2250   21.4590 O   0  0  0  0  0  0  0  0  0  0  0  0
  -21.8320   30.9940   13.6820 C   0  0  0  0  0  0  0  0  0  0  0  0
  -17.5080   27.6330   22.4200 F   0  0  0  0  0  0  0  0  0  0  0  0
  -20.0480   26.1760   15.7320 N   0  0  0  0  0  0  0  0  0  0  0  0
  -20.4170   34.5550   12.1040 O   0  0  0  0  0  0  0  0  0  0  0  0
  -22.1160   29.5780   13.8490 C   0  0  0  0  0  0  0  0  0  0  0  0
  -17.0070   25.2130   24.1270 F   0  0  0  0  0  0  0  0  0  0  0  0
  -19.2800   25.4900   19.9980 N   0  0  0  0  0  0  0  0  0  0  0  0
  -22.9850   28.9590   12.9890 C   0  0  0  0  0  0  0  0  0  0  0  0
  -18.6900   23.9170   23.7500 F   0  0  0  0  0  0  0  0  0  0  0  0
  -19.8260   32.3630   11.9010 N   0  0  0  0  0  0  0  0  0  0  0  0
  -23.2460   27.6230   13.1550 C   0  0  0  0  0  0  0  0  0  0  0  0
  -19.0000   26.0420   24.1000 F   0  0  0  0  0  0  0  0  0  0  0  0
  -22.6420   26.9220   14.1690 C   0  0  0  0  0  0  0  0  0  0  0  0
  -21.7790   27.5670   15.0150 C   0  0  0  0  0  0  0  0  0  0  0  0
  -21.4980   28.9000   14.8690 C   0  0  0  0  0  0  0  0  0  0  0  0
  -19.5610   25.8280   16.9170 C   0  0  0  0  0  0  0  0  0  0  0  0
  -20.3820   26.2600   17.9740 C   0  0  0  0  0  0  0  0  0  0  0  0
  -20.3200   26.1470   19.3430 C   0  0  0  0  0  0  0  0  0  0  0  0
  -19.3850   25.7250   21.4160 C   0  0  0  0  0  0  0  0  0  0  0  0
  -18.0610   25.3940   22.0550 C   0  0  0  0  0  0  0  0  0  0  0  0
  -17.0730   26.4990   21.8480 C   0  0  0  0  0  0  0  0  0  0  0  0
  -18.1990   25.1410   23.5190 C   0  0  0  0  0  0  0  0  0  0  0  0
  -21.3590   26.7260   20.0200 C   0  0  0  0  0  0  0  0  0  0  0  0
  -22.3900   27.3740   19.3910 C   0  0  0  0  0  0  0  0  0  0  0  0
  -23.4720   27.9730   20.2040 C   0  0  0  0  0  0  0  0  0  0  0  0
  -22.4590   27.4930   18.0300 C   0  0  0  0  0  0  0  0  0  0  0  0
  -21.4210   26.9120   17.3600 C   0  0  0  0  0  0  0  0  0  0  0  0
  -20.7120   33.3760   12.0740 C   0  0  0  0  0  0  0  0  0  0  0  0
  -23.8080   33.6529   11.1771 H   0  0  0  0  0  0  0  0  0  0  0  0
  -22.2307   33.9257   10.3620 H   0  0  0  0  0  0  0  0  0  0  0  0
  -22.9704   32.2888   10.3620 H   0  0  0  0  0  0  0  0  0  0  0  0
  -22.0613   30.8225   11.6183 H   0  0  0  0  0  0  0  0  0  0  0  0
  -22.6590   33.3406   13.0634 H   0  0  0  0  0  0  0  0  0  0  0  0
  -17.2848   23.5866   22.1642 H   0  0  0  0  0  0  0  0  0  0  0  0
  -18.5505   24.9249   19.5403 H   0  0  0  0  0  0  0  0  0  0  0  0
  -23.4659   29.5252   12.1778 H   0  0  0  0  0  0  0  0  0  0  0  0
  -19.4148   31.8929   12.7201 H   0  0  0  0  0  0  0  0  0  0  0  0
  -19.5646   32.0641   10.9506 H   0  0  0  0  0  0  0  0  0  0  0  0
  -23.9416   27.1114   12.4735 H   0  0  0  0  0  0  0  0  0  0  0  0
  -22.8495   25.8499   14.3013 H   0  0  0  0  0  0  0  0  0  0  0  0
  -20.7991   29.4103   15.5480 H   0  0  0  0  0  0  0  0  0  0  0  0
  -18.6248   25.2673   17.0559 H   0  0  0  0  0  0  0  0  0  0  0  0
  -19.6320   26.7810   21.5998 H   0  0  0  0  0  0  0  0  0  0  0  0
  -20.1783   25.0950   21.8447 H   0  0  0  0  0  0  0  0  0  0  0  0
  -21.3670   26.6687   21.1185 H   0  0  0  0  0  0  0  0  0  0  0  0
  -23.2416   27.8455   21.2720 H   0  0  0  0  0  0  0  0  0  0  0  0
  -23.5543   29.0451   19.9721 H   0  0  0  0  0  0  0  0  0  0  0  0
  -24.4243   27.4736   19.9721 H   0  0  0  0  0  0  0  0  0  0  0  0
  -23.2820   28.0133   17.5182 H   0  0  0  0  0  0  0  0  0  0  0  0
  1  5  1  0
  2 29  1  0
  3  5  1  0
  3  9  1  0
  4  9  2  0
  5 36  1  0
  6 29  1  0
  7 11  1  0
  7 22  1  0
  7 35  1  0
  8 28  1  0
  9 13  1  0
 10 29  1  0
 11 24  2  0
 12 36  2  0
 13 16  2  0
 13 23  1  0
 14 30  1  0
 15 26  1  0
 15 27  1  0
 16 19  1  0
 17 30  1  0
 18 36  1  0
 19 21  2  0
 20 30  1  0
 21 22  1  0
 22 23  2  0
 24 25  1  0
 25 26  1  0
 25 35  2  0
 26 31  2  0
 27 28  1  0
 28 29  1  0
 28 30  1  0
 31 32  1  0
 32 33  1  0
 32 34  2  0
 34 35  1  0
  1 37  1  0
  1 38  1  0
  1 39  1  0
  3 40  1  0
  5 41  1  0
  8 42  1  0
 15 43  1  0
 16 44  1  0
 18 45  1  0
 18 46  1  0
 19 47  1  0
 21 48  1  0
 23 49  1  0
 24 50  1  0
 27 51  1  0
 27 52  1  0
 31 53  1  0
 33 54  1  0
 33 55  1  0
 33 56  1  0
 34 57  1  0
A    1
C1
A    2
F1
A    3
N1
A    4
O1
A    5
C2
A    6
F2
A    7
N2
A    8
O2
A    9
C3
A   10
F3
A   11
N3
A   12
O3
A   13
C4
A   14
F4
A   15
N4
A   16
C5
A   17
F5
A   18
N5
A   19
C6
A   20
F6
A   21
C7
A   22
C8
A   23
C9
A   24
C10
A   25
C11
A   26
C12
A   27
C13
A   28
C14
A   29
C15
A   30
C16
A   31
C17
A   32
C18
A   33
C19
A   34
C20
A   35
C21
A   36
C22
M  END
