3K23_JZN_A_1
     RDKit          3D

 84 88  0  0  0  0  0  0  0  0999 V2000
   61.0690    1.1580   -6.9920 C   0  0  0  0  0  0  0  0  0  0  0  0
   60.9970    5.9700  -10.4830 F   0  0  0  0  0  0  0  0  0  0  0  0
   61.4420    5.2510   -4.7570 N   0  0  0  0  0  0  0  0  0  0  0  0
   61.8220    1.1090   -8.1950 O   0  0  0  0  0  0  0  0  0  0  0  0
   61.6770    2.3600   -8.7480 C   0  0  0  0  0  0  0  0  0  0  0  0
   64.3560    3.5060   -3.5300 F   0  0  0  0  0  0  0  0  0  0  0  0
   58.1520    6.9810   -2.1160 N   0  0  0  0  0  0  0  0  0  0  0  0
   63.8520    5.2140   -4.8970 O   0  0  0  0  0  0  0  0  0  0  0  0
   60.4940    2.5910   -9.4080 C   0  0  0  0  0  0  0  0  0  0  0  0
   62.4090    2.6410   -3.9310 F   0  0  0  0  0  0  0  0  0  0  0  0
   59.2510    7.7300   -1.9610 N   0  0  0  0  0  0  0  0  0  0  0  0
   57.3310    5.0990    2.2140 O   0  0  0  0  0  0  0  0  0  0  0  0
   60.2640    3.8120   -9.9930 C   0  0  0  0  0  0  0  0  0  0  0  0
   64.1960    1.9570   -5.0160 F   0  0  0  0  0  0  0  0  0  0  0  0
   55.3070    5.6790    3.0210 N   0  0  0  0  0  0  0  0  0  0  0  0
   53.5210    7.3220    3.7490 O   0  0  0  0  0  0  0  0  0  0  0  0
   61.2290    4.7830   -9.9100 C   0  0  0  0  0  0  0  0  0  0  0  0
   54.1880    6.9720    5.9250 N   0  0  0  0  0  0  0  0  0  0  0  0
   62.4160    4.5490   -9.2530 C   0  0  0  0  0  0  0  0  0  0  0  0
   62.6600    3.3290   -8.6550 C   0  0  0  0  0  0  0  0  0  0  0  0
   63.9720    3.1200   -7.9550 C   0  0  0  0  0  0  0  0  0  0  0  0
   64.2110    1.6880   -7.5510 C   0  0  0  0  0  0  0  0  0  0  0  0
   65.0530    3.4130   -8.9720 C   0  0  0  0  0  0  0  0  0  0  0  0
   64.2410    4.0700   -6.8050 C   0  0  0  0  0  0  0  0  0  0  0  0
   63.3480    4.0930   -5.5800 C   0  0  0  0  0  0  0  0  0  0  0  0
   61.8910    4.3840   -5.8380 C   0  0  0  0  0  0  0  0  0  0  0  0
   60.1180    5.1090   -4.3360 C   0  0  0  0  0  0  0  0  0  0  0  0
   59.2480    4.1260   -4.7440 C   0  0  0  0  0  0  0  0  0  0  0  0
   57.9580    4.0540   -4.2850 C   0  0  0  0  0  0  0  0  0  0  0  0
   57.1040    2.9450   -4.7960 C   0  0  0  0  0  0  0  0  0  0  0  0
   57.4460    4.9610   -3.3880 C   0  0  0  0  0  0  0  0  0  0  0  0
   58.3160    5.9350   -2.9810 C   0  0  0  0  0  0  0  0  0  0  0  0
   60.1410    7.1510   -2.7700 C   0  0  0  0  0  0  0  0  0  0  0  0
   59.6130    6.0200   -3.4320 C   0  0  0  0  0  0  0  0  0  0  0  0
   57.0940    7.1040   -1.2360 C   0  0  0  0  0  0  0  0  0  0  0  0
   56.0100    7.8940   -1.5430 C   0  0  0  0  0  0  0  0  0  0  0  0
   54.9750    7.9740   -0.6340 C   0  0  0  0  0  0  0  0  0  0  0  0
   55.0290    7.2760    0.5560 C   0  0  0  0  0  0  0  0  0  0  0  0
   56.1290    6.4940    0.8350 C   0  0  0  0  0  0  0  0  0  0  0  0
   57.1710    6.4040   -0.0610 C   0  0  0  0  0  0  0  0  0  0  0  0
   56.2870    5.7140    2.0690 C   0  0  0  0  0  0  0  0  0  0  0  0
   54.9100    4.3540    3.3960 C   0  0  0  0  0  0  0  0  0  0  0  0
   55.6640    3.9990    4.6620 C   0  0  0  0  0  0  0  0  0  0  0  0
   56.0550    5.3100    5.2610 C   0  0  0  0  0  0  0  0  0  0  0  0
   55.6380    6.3440    4.2390 C   0  0  0  0  0  0  0  0  0  0  0  0
   54.3300    6.9350    4.5750 C   0  0  0  0  0  0  0  0  0  0  0  0
   63.5650    3.0350   -4.5270 C   0  0  0  0  0  0  0  0  0  0  0  0
   61.7513    1.1136   -6.1303 H   0  0  0  0  0  0  0  0  0  0  0  0
   60.4945    2.0954   -6.9569 H   0  0  0  0  0  0  0  0  0  0  0  0
   60.3779    0.3029   -6.9569 H   0  0  0  0  0  0  0  0  0  0  0  0
   62.0734    5.9388   -4.3221 H   0  0  0  0  0  0  0  0  0  0  0  0
   63.7844    5.0636   -3.9208 H   0  0  0  0  0  0  0  0  0  0  0  0
   59.7326    1.7993   -9.4676 H   0  0  0  0  0  0  0  0  0  0  0  0
   59.3191    4.0085  -10.5207 H   0  0  0  0  0  0  0  0  0  0  0  0
   54.9923    6.7624    6.5334 H   0  0  0  0  0  0  0  0  0  0  0  0
   53.2760    7.2096    6.3406 H   0  0  0  0  0  0  0  0  0  0  0  0
   63.1771    5.3417   -9.2041 H   0  0  0  0  0  0  0  0  0  0  0  0
   64.2234    1.6138   -6.4536 H   0  0  0  0  0  0  0  0  0  0  0  0
   63.4061    1.0546   -7.9523 H   0  0  0  0  0  0  0  0  0  0  0  0
   65.1779    1.3503   -7.9523 H   0  0  0  0  0  0  0  0  0  0  0  0
   65.9879    3.6664   -8.4507 H   0  0  0  0  0  0  0  0  0  0  0  0
   65.2135    2.5260   -9.6024 H   0  0  0  0  0  0  0  0  0  0  0  0
   64.7436    4.2597   -9.6024 H   0  0  0  0  0  0  0  0  0  0  0  0
   65.2565    3.8458   -6.4464 H   0  0  0  0  0  0  0  0  0  0  0  0
   64.0519    5.0544   -7.2580 H   0  0  0  0  0  0  0  0  0  0  0  0
   61.3118    3.4489   -5.8400 H   0  0  0  0  0  0  0  0  0  0  0  0
   61.7499    4.8652   -6.8171 H   0  0  0  0  0  0  0  0  0  0  0  0
   59.5987    3.3713   -5.4633 H   0  0  0  0  0  0  0  0  0  0  0  0
   56.6769    2.3903   -3.9475 H   0  0  0  0  0  0  0  0  0  0  0  0
   56.2907    3.3610   -5.4088 H   0  0  0  0  0  0  0  0  0  0  0  0
   57.7140    2.2650   -5.4088 H   0  0  0  0  0  0  0  0  0  0  0  0
   56.4097    4.9074   -3.0231 H   0  0  0  0  0  0  0  0  0  0  0  0
   61.1705    7.5139   -2.9061 H   0  0  0  0  0  0  0  0  0  0  0  0
   55.9695    8.4493   -2.4917 H   0  0  0  0  0  0  0  0  0  0  0  0
   54.0988    8.5996   -0.8595 H   0  0  0  0  0  0  0  0  0  0  0  0
   54.2002    7.3435    1.2761 H   0  0  0  0  0  0  0  0  0  0  0  0
   58.0495    5.7811    0.1629 H   0  0  0  0  0  0  0  0  0  0  0  0
   53.8263    4.3243    3.5824 H   0  0  0  0  0  0  0  0  0  0  0  0
   55.1376    3.6373    2.5932 H   0  0  0  0  0  0  0  0  0  0  0  0
   55.0177    3.4364    5.3518 H   0  0  0  0  0  0  0  0  0  0  0  0
   56.5371    3.3620    4.4574 H   0  0  0  0  0  0  0  0  0  0  0  0
   55.5289    5.4728    6.2132 H   0  0  0  0  0  0  0  0  0  0  0  0
   57.1309    5.3589    5.4846 H   0  0  0  0  0  0  0  0  0  0  0  0
   56.4598    7.0735    4.1904 H   0  0  0  0  0  0  0  0  0  0  0  0
  1  4  1  0
  2 17  1  0
  3 26  1  0
  3 27  1  0
  4  5  1  0
  5  9  2  0
  5 20  1  0
  6 47  1  0
  7 11  1  0
  7 32  1  0
  7 35  1  0
  8 25  1  0
  9 13  1  0
 10 47  1  0
 11 33  2  0
 12 41  2  0
 13 17  2  0
 14 47  1  0
 15 41  1  0
 15 42  1  0
 15 45  1  0
 16 46  2  0
 17 19  1  0
 18 46  1  0
 19 20  2  0
 20 21  1  0
 21 22  1  0
 21 23  1  0
 21 24  1  0
 24 25  1  0
 25 26  1  0
 25 47  1  0
 27 28  1  0
 27 34  2  0
 28 29  2  0
 29 30  1  0
 29 31  1  0
 31 32  2  0
 32 34  1  0
 33 34  1  0
 35 36  2  0
 35 40  1  0
 36 37  1  0
 37 38  2  0
 38 39  1  0
 39 40  2  0
 39 41  1  0
 42 43  1  0
 43 44  1  0
 44 45  1  0
 45 46  1  0
  1 48  1  0
  1 49  1  0
  1 50  1  0
  3 51  1  0
  8 52  1  0
  9 53  1  0
 13 54  1  0
 18 55  1  0
 18 56  1  0
 19 57  1  0
 22 58  1  0
 22 59  1  0
 22 60  1  0
 23 61  1  0
 23 62  1  0
 23 63  1  0
 24 64  1  0
 24 65  1  0
 26 66  1  0
 26 67  1  0
 28 68  1  0
 30 69  1  0
 30 70  1  0
 30 71  1  0
 31 72  1  0
 33 73  1  0
 36 74  1  0
 37 75  1  0
 38 76  1  0
 40 77  1  0
 42 78  1  0
 42 79  1  0
 43 80  1  0
 43 81  1  0
 44 82  1  0
 44 83  1  0
 45 84  1  0
A    1
C1
A    2
F1
A    3
N1
A    4
O1
A    5
C2
A    6
F2
A    7
N2
A    8
O2
A    9
C3
A   10
F3
A   11
N3
A   12
O3
A   13
C4
A   14
F4
A   15
N4
A   16
O4
A   17
C5
A   18
N5
A   19
C6
A   20
C7
A   21
C8
A   22
C9
A   23
C10
A   24
C11
A   25
C12
A   26
C13
A   27
C14
A   28
C15
A   29
C16
A   30
C17
A   31
C18
A   32
C19
A   33
C20
A   34
C21
A   35
C22
A   36
C23
A   37
C24
A   38
C25
A   39
C26
A   40
C27
A   41
C28
A   42
C29
A   43
C30
A   44
C31
A   45
C32
A   46
C33
A   47
C34
M  END
