3IG1_JTH_A_1001
     RDKit          3D

 25 25  0  0  0  0  0  0  0  0999 V2000
   11.3800   19.4830   12.6820 C   0  0  0  0  0  0  0  0  0  0  0  0
   10.8000   18.8820   11.7170 O   0  0  0  0  0  0  0  0  0  0  0  0
   10.8460   20.8520   13.0200 C   0  0  0  0  0  0  0  0  0  0  0  0
    9.8560   21.1600   12.2170 O   0  0  0  0  0  0  0  0  0  0  0  0
   11.1990   21.7520   13.9610 C   0  0  0  0  0  0  0  0  0  0  0  0
   12.2270   21.7600   14.9990 C   0  0  0  0  0  0  0  0  0  0  0  0
   13.1180   20.7280   15.2360 C   0  0  0  0  0  0  0  0  0  0  0  0
   13.2390   19.4250   14.5280 C   0  0  0  0  0  0  0  0  0  0  0  0
   12.5440   18.8570   13.4610 C   0  0  0  0  0  0  0  0  0  0  0  0
   12.8780   17.6110   12.9990 O   0  0  0  0  0  0  0  0  0  0  0  0
   12.3090   24.4030   15.0000 C   0  0  0  0  0  0  0  0  0  0  0  0
   12.2300   23.0630   15.8470 C   0  0  0  0  0  0  0  0  0  0  0  0
   10.9470   23.1410   16.7770 C   0  0  0  0  0  0  0  0  0  0  0  0
    8.9810   21.4322   12.5917 H   0  0  0  0  0  0  0  0  0  0  0  0
   10.5880   22.6665   13.9430 H   0  0  0  0  0  0  0  0  0  0  0  0
   13.8315   20.8929   16.0568 H   0  0  0  0  0  0  0  0  0  0  0  0
   14.0366   18.7806   14.9261 H   0  0  0  0  0  0  0  0  0  0  0  0
   13.0735   16.8817   13.6393 H   0  0  0  0  0  0  0  0  0  0  0  0
   12.3598   25.2650   15.6814 H   0  0  0  0  0  0  0  0  0  0  0  0
   13.2076   24.3835   14.3658 H   0  0  0  0  0  0  0  0  0  0  0  0
   11.4144   24.4892   14.3658 H   0  0  0  0  0  0  0  0  0  0  0  0
   13.1515   22.9961   16.4440 H   0  0  0  0  0  0  0  0  0  0  0  0
   11.2573   23.1221   17.8322 H   0  0  0  0  0  0  0  0  0  0  0  0
   10.4016   24.0740   16.5718 H   0  0  0  0  0  0  0  0  0  0  0  0
   10.2926   22.2810   16.5718 H   0  0  0  0  0  0  0  0  0  0  0  0
  1  3  1  0
  1  9  1  0
  2  1  2  0
  3  5  2  0
  4  3  1  0
  5  6  1  0
  6  7  2  0
  6 12  1  0
  8  7  1  0
  9  8  2  0
 10  9  1  0
 11 12  1  0
 12 13  1  0
  4 14  1  0
  5 15  1  0
  7 16  1  0
  8 17  1  0
 10 18  1  0
 11 19  1  0
 11 20  1  0
 11 21  1  0
 12 22  1  0
 13 23  1  0
 13 24  1  0
 13 25  1  0
A    1
C1
A    2
O1
A    3
C2
A    4
O2
A    5
C3
A    6
C4
A    7
C5
A    8
C6
A    9
C7
A   10
O7
A   11
C41
A   12
C42
A   13
C43
M  END
