3K3B_L31_A_371
     RDKit          3D

 44 47  0  0  0  0  0  0  0  0999 V2000
   15.6620  -20.2400   21.6450 C   0  0  0  0  0  0  0  0  0  0  0  0
   16.2340  -19.9490   22.9320 C   0  0  0  0  0  0  0  0  0  0  0  0
   15.4180  -19.2660   23.9390 C   0  0  0  0  0  0  0  0  0  0  0  0
   14.0850  -18.9000   23.6460 C   0  0  0  0  0  0  0  0  0  0  0  0
   13.4990  -19.2110   22.3020 C   0  0  0  0  0  0  0  0  0  0  0  0
   14.2720  -19.8580   21.3410 C   0  0  0  0  0  0  0  0  0  0  0  0
   16.4870  -20.9540   20.5640 C   0  0  0  0  0  0  0  0  0  0  0  0
   15.7130  -18.8210   25.4090 C   0  0  0  0  0  0  0  0  0  0  0  0
   14.4790  -18.0520   25.8450 C   0  0  0  0  0  0  0  0  0  0  0  0
   13.4810  -18.2080   24.8330 N   0  0  0  0  0  0  0  0  0  0  0  0
   16.7320  -19.2350   26.4970 C   0  0  0  0  0  0  0  0  0  0  0  0
   16.6210  -18.5070   27.8860 C   0  0  0  0  0  0  0  0  0  0  0  0
   15.7630  -17.2910   27.8870 N   0  0  0  0  0  0  0  0  0  0  0  0
   14.5280  -17.2220   27.1340 C   0  0  0  0  0  0  0  0  0  0  0  0
   13.3440  -17.6160   28.0340 C   0  0  0  0  0  0  0  0  0  0  0  0
   12.6490  -16.6260   28.7330 C   0  0  0  0  0  0  0  0  0  0  0  0
   11.5350  -16.9770   29.5670 C   0  0  0  0  0  0  0  0  0  0  0  0
   11.1150  -18.3840   29.6900 C   0  0  0  0  0  0  0  0  0  0  0  0
   11.8260  -19.4030   28.9710 C   0  0  0  0  0  0  0  0  0  0  0  0
   12.9090  -19.0600   28.1620 C   0  0  0  0  0  0  0  0  0  0  0  0
   10.8420  -15.9790   30.2720 O   0  0  0  0  0  0  0  0  0  0  0  0
   16.3130  -16.0220   28.4060 C   0  0  0  0  0  0  0  0  0  0  0  0
   15.6900  -15.0190   28.2880 O   0  0  0  0  0  0  0  0  0  0  0  0
   17.6870  -15.9420   29.0300 C   0  0  0  0  0  0  0  0  0  0  0  0
   17.2717  -20.2358   23.1576 H   0  0  0  0  0  0  0  0  0  0  0  0
   12.4603  -18.9288   22.0751 H   0  0  0  0  0  0  0  0  0  0  0  0
   13.8439  -20.0842   20.3533 H   0  0  0  0  0  0  0  0  0  0  0  0
   17.2359  -21.6021   21.0427 H   0  0  0  0  0  0  0  0  0  0  0  0
   15.8202  -21.5647   19.9376 H   0  0  0  0  0  0  0  0  0  0  0  0
   16.9957  -20.2065   19.9376 H   0  0  0  0  0  0  0  0  0  0  0  0
   12.5025  -17.8950   24.9069 H   0  0  0  0  0  0  0  0  0  0  0  0
   16.6084  -20.3133   26.6757 H   0  0  0  0  0  0  0  0  0  0  0  0
   17.7144  -18.9436   26.0970 H   0  0  0  0  0  0  0  0  0  0  0  0
   16.2052  -19.2197   28.6135 H   0  0  0  0  0  0  0  0  0  0  0  0
   17.6365  -18.1694   28.1405 H   0  0  0  0  0  0  0  0  0  0  0  0
   14.4643  -16.1740   26.8058 H   0  0  0  0  0  0  0  0  0  0  0  0
   12.9567  -15.5737   28.6438 H   0  0  0  0  0  0  0  0  0  0  0  0
   10.2611  -18.6522   30.3294 H   0  0  0  0  0  0  0  0  0  0  0  0
   11.5164  -20.4549   29.0582 H   0  0  0  0  0  0  0  0  0  0  0  0
   13.4508  -19.8444   27.6131 H   0  0  0  0  0  0  0  0  0  0  0  0
   10.8432  -15.9808   31.2620 H   0  0  0  0  0  0  0  0  0  0  0  0
   17.5929  -15.9475   30.1260 H   0  0  0  0  0  0  0  0  0  0  0  0
   18.2863  -16.8068   28.7091 H   0  0  0  0  0  0  0  0  0  0  0  0
   18.1819  -15.0135   28.7091 H   0  0  0  0  0  0  0  0  0  0  0  0
  7  1  1  0
  6  1  2  0
  1  2  1  0
  2  3  2  0
  4  3  1  0
  3  8  1  0
  5  4  2  0
  4 10  1  0
  6  5  1  0
  8  9  2  0
  8 11  1  0
 10  9  1  0
  9 14  1  0
 11 12  1  0
 12 13  1  0
 14 13  1  0
 13 22  1  0
 14 15  1  0
 15 20  1  0
 15 16  2  0
 16 17  1  0
 17 18  2  0
 17 21  1  0
 19 18  1  0
 20 19  2  0
 23 22  2  0
 22 24  1  0
  2 25  1  0
  5 26  1  0
  6 27  1  0
  7 28  1  0
  7 29  1  0
  7 30  1  0
 10 31  1  0
 11 32  1  0
 11 33  1  0
 12 34  1  0
 12 35  1  0
 14 36  1  0
 16 37  1  0
 18 38  1  0
 19 39  1  0
 20 40  1  0
 21 41  1  0
 24 42  1  0
 24 43  1  0
 24 44  1  0
A    1
C1
A    2
C2
A    3
C3
A    4
C4
A    5
C5
A    6
C6
A    7
C10
A    8
C14
A    9
C15
A   10
N16
A   11
C18
A   12
C19
A   13
N22
A   14
C25
A   15
C26
A   16
C28
A   17
C29
A   18
C30
A   19
C31
A   20
C32
A   21
O37
A   22
C39
A   23
O40
A   24
C41
M  END
