3K47_D09_A_188
     RDKit          3D

 38 40  0  0  0  0  0  0  0  0999 V2000
   -6.7100    1.0210   13.3430 C   0  0  0  0  0  0  0  0  0  0  0  0
   -7.4320    0.7900   14.5490 C   0  0  0  0  0  0  0  0  0  0  0  0
   -8.8100    1.0490   14.5860 C   0  0  0  0  0  0  0  0  0  0  0  0
   -9.4690    1.5000   13.4240 C   0  0  0  0  0  0  0  0  0  0  0  0
   -8.7730    1.7120   12.2130 C   0  0  0  0  0  0  0  0  0  0  0  0
   -7.3800    1.4640   12.1810 C   0  0  0  0  0  0  0  0  0  0  0  0
    0.2930    3.3510   13.6210 N   0  0  0  0  0  0  0  0  0  0  0  0
   -4.8480   -0.6710   13.0480 C   0  0  0  0  0  0  0  0  0  0  0  0
   -5.3310    0.7620   13.3440 C   0  0  0  0  0  0  0  0  0  0  0  0
   -6.9180   -0.9120   16.3950 C   0  0  0  0  0  0  0  0  0  0  0  0
   -6.7390    0.3700   15.6780 O   0  0  0  0  0  0  0  0  0  0  0  0
    0.0510    4.6490   13.8750 C   0  0  0  0  0  0  0  0  0  0  0  0
    1.0290    5.5040   13.9220 N   0  0  0  0  0  0  0  0  0  0  0  0
   -1.2070    5.0990   14.0440 N   0  0  0  0  0  0  0  0  0  0  0  0
   -2.2650    4.2510   13.9900 C   0  0  0  0  0  0  0  0  0  0  0  0
   -3.4840    4.7630   14.2020 N   0  0  0  0  0  0  0  0  0  0  0  0
   -2.0390    2.8800   13.7270 C   0  0  0  0  0  0  0  0  0  0  0  0
   -2.8750    1.7640   13.6000 C   0  0  0  0  0  0  0  0  0  0  0  0
   -2.1020    0.7010   13.3120 C   0  0  0  0  0  0  0  0  0  0  0  0
   -0.7170    2.4410   13.5330 C   0  0  0  0  0  0  0  0  0  0  0  0
   -0.7570    1.0640   13.2760 O   0  0  0  0  0  0  0  0  0  0  0  0
   -4.3960    1.8940   13.7360 C   0  0  0  0  0  0  0  0  0  0  0  0
   -9.3746    0.9008   15.5183 H   0  0  0  0  0  0  0  0  0  0  0  0
  -10.5516    1.6915   13.4613 H   0  0  0  0  0  0  0  0  0  0  0  0
   -9.3023    2.0622   11.3145 H   0  0  0  0  0  0  0  0  0  0  0  0
   -6.8172    1.6167   11.2483 H   0  0  0  0  0  0  0  0  0  0  0  0
   -4.6694   -1.2008   13.9953 H   0  0  0  0  0  0  0  0  0  0  0  0
   -5.6160   -1.2045   12.4687 H   0  0  0  0  0  0  0  0  0  0  0  0
   -3.9138   -0.6307   12.4687 H   0  0  0  0  0  0  0  0  0  0  0  0
   -6.8929   -0.7320   17.4799 H   0  0  0  0  0  0  0  0  0  0  0  0
   -7.8866   -1.3543   16.1191 H   0  0  0  0  0  0  0  0  0  0  0  0
   -6.1076   -1.6027   16.1191 H   0  0  0  0  0  0  0  0  0  0  0  0
    1.3922    5.8215   14.8320 H   0  0  0  0  0  0  0  0  0  0  0  0
    1.4408    5.8640   13.0492 H   0  0  0  0  0  0  0  0  0  0  0  0
   -3.8226    4.9052   15.1643 H   0  0  0  0  0  0  0  0  0  0  0  0
   -4.0830    5.0146   13.4028 H   0  0  0  0  0  0  0  0  0  0  0  0
   -2.4801   -0.3158   13.1298 H   0  0  0  0  0  0  0  0  0  0  0  0
   -4.8215    2.8300   14.1271 H   0  0  0  0  0  0  0  0  0  0  0  0
  6  1  1  0
  1  9  1  0
  1  2  2  0
  2  3  1  0
  2 11  1  0
  4  3  2  0
  5  4  1  0
  6  5  2  0
 20  7  2  0
  7 12  1  0
  8  9  1  0
  9 22  2  0
 11 10  1  0
 12 13  1  0
 12 14  2  0
 15 14  1  0
 17 15  2  0
 15 16  1  0
 20 17  1  0
 18 17  1  0
 19 18  2  0
 18 22  1  0
 21 19  1  0
 21 20  1  0
  3 23  1  0
  4 24  1  0
  5 25  1  0
  6 26  1  0
  8 27  1  0
  8 28  1  0
  8 29  1  0
 10 30  1  0
 10 31  1  0
 10 32  1  0
 13 33  1  0
 13 34  1  0
 16 35  1  0
 16 36  1  0
 19 37  1  0
 22 38  1  0
A    1
C'1
A    2
C'2
A    3
C'3
A    4
C'4
A    5
C'5
A    6
C'6
A    7
N1'
A    8
C10
A    9
C11
A   10
C13
A   11
O13
A   12
C2'
A   13
N2'
A   14
N3'
A   15
C4'
A   16
N4'
A   17
C5'
A   18
C6'
A   19
C7'
A   20
C8'
A   21
O8'
A   22
C9'
M  END
