1LR8_IHS_A_30
     RDKit          3D

 40 37  0  0  0  0  0  0  0  0999 V2000
   60.6630   16.1120   21.7700 C   0  0  0  0  0  0  0  0  0  0  0  0
   61.7160   15.1690   21.9540 O   0  0  0  0  0  0  0  0  0  0  0  0
   61.3210   13.5030   21.5430 S   0  0  0  0  0  0  0  0  0  0  0  0
   61.7820   17.9850   22.7450 C   0  0  0  0  0  0  0  0  0  0  0  0
   62.0910   13.0470   20.3540 O   0  0  0  0  0  0  0  0  0  0  0  0
   62.3320   19.1260   25.2060 S   0  0  0  0  0  0  0  0  0  0  0  0
   62.3460   17.8790   19.0530 C   0  0  0  0  0  0  0  0  0  0  0  0
   59.8710   13.5420   21.3060 O   0  0  0  0  0  0  0  0  0  0  0  0
   63.6960   16.9280   16.7300 S   0  0  0  0  0  0  0  0  0  0  0  0
   61.5280   12.5690   22.6020 O   0  0  0  0  0  0  0  0  0  0  0  0
   63.4470   20.7860   20.7160 S   0  0  0  0  0  0  0  0  0  0  0  0
   65.8300   16.8320   21.6130 S   0  0  0  0  0  0  0  0  0  0  0  0
   61.2640   18.3580   24.0160 O   0  0  0  0  0  0  0  0  0  0  0  0
   62.6560   18.0250   17.6580 O   0  0  0  0  0  0  0  0  0  0  0  0
   63.2770   19.0000   21.6470 O   0  0  0  0  0  0  0  0  0  0  0  0
   66.4690   17.6820   22.6010 O   0  0  0  0  0  0  0  0  0  0  0  0
   61.4670   19.8580   26.1490 O   0  0  0  0  0  0  0  0  0  0  0  0
   63.0660   16.6490   15.4160 O   0  0  0  0  0  0  0  0  0  0  0  0
   63.4260   22.0560   21.4410 O   0  0  0  0  0  0  0  0  0  0  0  0
   65.9780   15.4390   21.9960 O   0  0  0  0  0  0  0  0  0  0  0  0
   63.2390   20.1120   24.5890 O   0  0  0  0  0  0  0  0  0  0  0  0
   63.9290   15.6390   17.4320 O   0  0  0  0  0  0  0  0  0  0  0  0
   62.3350   20.7240   19.7660 O   0  0  0  0  0  0  0  0  0  0  0  0
   64.3940   17.1740   21.4860 O   0  0  0  0  0  0  0  0  0  0  0  0
   63.0910   18.1600   25.9840 O   0  0  0  0  0  0  0  0  0  0  0  0
   64.9520   17.5620   16.4480 O   0  0  0  0  0  0  0  0  0  0  0  0
   64.7300   20.6920   20.0210 O   0  0  0  0  0  0  0  0  0  0  0  0
   66.4770   17.0270   20.3240 O   0  0  0  0  0  0  0  0  0  0  0  0
   59.7495   15.8355   22.3169 H   0  0  0  0  0  0  0  0  0  0  0  0
   60.2893   16.2402   20.7434 H   0  0  0  0  0  0  0  0  0  0  0  0
   62.5245   18.5841   23.2925 H   0  0  0  0  0  0  0  0  0  0  0  0
   62.9034   12.5659   20.6516 H   0  0  0  0  0  0  0  0  0  0  0  0
   62.8523   16.9042   19.1113 H   0  0  0  0  0  0  0  0  0  0  0  0
   61.7203   18.7799   18.9696 H   0  0  0  0  0  0  0  0  0  0  0  0
   63.2900   19.1364   22.6275 H   0  0  0  0  0  0  0  0  0  0  0  0
   66.2325   17.3674   23.5094 H   0  0  0  0  0  0  0  0  0  0  0  0
   63.7063   20.6200   25.2988 H   0  0  0  0  0  0  0  0  0  0  0  0
   63.9023   15.7866   18.4106 H   0  0  0  0  0  0  0  0  0  0  0  0
   63.9963   17.2687   22.3877 H   0  0  0  0  0  0  0  0  0  0  0  0
   65.4620   20.6384   20.6853 H   0  0  0  0  0  0  0  0  0  0  0  0
  4  1  1  0
  1  2  1  0
  2  3  1  0
  8  3  2  0
 10  3  2  0
  3  5  1  0
  7  4  1  0
  4 13  1  0
 17  6  2  0
 13  6  1  0
  6 25  2  0
  6 21  1  0
  7 14  1  0
 26  9  2  0
 18  9  2  0
  9 22  1  0
  9 14  1  0
 23 11  2  0
 19 11  2  0
 11 27  1  0
 11 15  1  0
 28 12  2  0
 20 12  2  0
 12 24  1  0
 12 16  1  0
  1 29  1  0
  1 30  1  0
  4 31  1  0
  5 32  1  0
  7 33  1  0
  7 34  1  0
 15 35  1  0
 16 36  1  0
 21 37  1  0
 22 38  1  0
 24 39  1  0
 27 40  1  0
A    1
C1
A    2
O1
A    3
S1
A    4
C2
A    5
O2
A    6
S2
A    7
C3
A    8
O3
A    9
S3
A   10
O4
A   11
S4
A   12
S5
A   13
O12
A   14
O13
A   15
O14
A   16
O15
A   17
O22
A   18
O23
A   19
O24
A   20
O25
A   21
O32
A   22
O33
A   23
O34
A   24
O35
A   25
O42
A   26
O43
A   27
O44
A   28
O45
M  END
