3K5E_K5E_A_369
     RDKit          3D

 35 37  0  0  0  0  0  0  0  0999 V2000
   27.4080   12.4750   11.5710 S   0  0  0  0  0  0  0  0  0  0  0  0
   31.9510   11.3690   16.7580 C   0  0  0  0  0  0  0  0  0  0  0  0
   28.3040   12.1830   13.9040 N   0  0  0  0  0  0  0  0  0  0  0  0
   32.4100   10.5890   17.8010 O   0  0  0  0  0  0  0  0  0  0  0  0
   32.8630   11.9650   15.8840 C   0  0  0  0  0  0  0  0  0  0  0  0
   27.4050   14.2750   13.3320 N   0  0  0  0  0  0  0  0  0  0  0  0
   28.4760   13.5420   17.9900 O   0  0  0  0  0  0  0  0  0  0  0  0
   32.4120   12.7580   14.8400 C   0  0  0  0  0  0  0  0  0  0  0  0
   31.0360   12.9490   14.6380 C   0  0  0  0  0  0  0  0  0  0  0  0
   30.1150   12.3470   15.4980 C   0  0  0  0  0  0  0  0  0  0  0  0
   30.5760   11.5580   16.5550 C   0  0  0  0  0  0  0  0  0  0  0  0
   28.6470   12.5500   15.2910 C   0  0  0  0  0  0  0  0  0  0  0  0
   27.7330   13.0090   13.0270 C   0  0  0  0  0  0  0  0  0  0  0  0
   27.6410   14.7970   14.5430 C   0  0  0  0  0  0  0  0  0  0  0  0
   28.2680   13.9550   15.6000 C   0  0  0  0  0  0  0  0  0  0  0  0
   28.5740   14.5240   16.9490 C   0  0  0  0  0  0  0  0  0  0  0  0
   27.7380   15.7740   17.2350 C   0  0  0  0  0  0  0  0  0  0  0  0
   27.9290   16.7630   16.0890 C   0  0  0  0  0  0  0  0  0  0  0  0
   27.2570   16.2460   14.8090 C   0  0  0  0  0  0  0  0  0  0  0  0
   28.5199   11.2253   13.5925 H   0  0  0  0  0  0  0  0  0  0  0  0
   32.2461   10.8675   18.7368 H   0  0  0  0  0  0  0  0  0  0  0  0
   33.9422   11.8048   16.0244 H   0  0  0  0  0  0  0  0  0  0  0  0
   26.9586   14.8623   12.6132 H   0  0  0  0  0  0  0  0  0  0  0  0
   28.5207   13.9901   18.8716 H   0  0  0  0  0  0  0  0  0  0  0  0
   33.1360   13.2399   14.1666 H   0  0  0  0  0  0  0  0  0  0  0  0
   30.6835   13.5723   13.8030 H   0  0  0  0  0  0  0  0  0  0  0  0
   29.8541   11.0808   17.2341 H   0  0  0  0  0  0  0  0  0  0  0  0
   28.0778   11.9044   15.9760 H   0  0  0  0  0  0  0  0  0  0  0  0
   29.6266   14.8432   16.9353 H   0  0  0  0  0  0  0  0  0  0  0  0
   26.6758   15.4990   17.3134 H   0  0  0  0  0  0  0  0  0  0  0  0
   28.0597   16.2314   18.1823 H   0  0  0  0  0  0  0  0  0  0  0  0
   27.4817   17.7287   16.3670 H   0  0  0  0  0  0  0  0  0  0  0  0
   29.0061   16.8819   15.9000 H   0  0  0  0  0  0  0  0  0  0  0  0
   27.5770   16.8657   13.9584 H   0  0  0  0  0  0  0  0  0  0  0  0
   26.1659   16.3035   14.9362 H   0  0  0  0  0  0  0  0  0  0  0  0
  1 13  2  0
  2  4  1  0
  2  5  2  0
  2 11  1  0
  3 12  1  0
  3 13  1  0
  5  8  1  0
  6 13  1  0
  6 14  1  0
  7 16  1  0
  8  9  2  0
  9 10  1  0
 10 11  2  0
 10 12  1  0
 12 15  1  0
 14 15  2  0
 14 19  1  0
 15 16  1  0
 16 17  1  0
 17 18  1  0
 18 19  1  0
  3 20  1  0
  4 21  1  0
  5 22  1  0
  6 23  1  0
  7 24  1  0
  8 25  1  0
  9 26  1  0
 11 27  1  0
 12 28  1  0
 16 29  1  0
 17 30  1  0
 17 31  1  0
 18 32  1  0
 18 33  1  0
 19 34  1  0
 19 35  1  0
A    1
S
A    2
C1
A    3
N1
A    4
O1
A    5
C2
A    6
N2
A    7
O2
A    8
C3
A    9
C4
A   10
C5
A   11
C6
A   12
C7
A   13
C8
A   14
C9
A   15
C10
A   16
C11
A   17
C12
A   18
C13
A   19
C14
M  END
