3K6P_5FB_A_1
     RDKit          3D

 42 44  0  0  0  0  0  0  0  0999 V2000
   36.0560   -2.3890   35.3520 C   0  0  0  0  0  0  0  0  0  0  0  0
   34.7780    1.1560   37.8020 C   0  0  0  0  0  0  0  0  0  0  0  0
   35.5420    2.3750   37.5420 C   0  0  0  0  0  0  0  0  0  0  0  0
   34.9030    3.7310   37.7300 C   0  0  0  0  0  0  0  0  0  0  0  0
   36.9190    2.3240   37.1050 C   0  0  0  0  0  0  0  0  0  0  0  0
   38.9840    0.9110   36.3970 C   0  0  0  0  0  0  0  0  0  0  0  0
   37.4810   -4.6950   39.5060 C   0  0  0  0  0  0  0  0  0  0  0  0
   37.0440   -3.5210   38.8730 O   0  0  0  0  0  0  0  0  0  0  0  0
   36.4510   -3.5810   37.6150 C   0  0  0  0  0  0  0  0  0  0  0  0
   35.6290   -4.7100   37.1930 C   0  0  0  0  0  0  0  0  0  0  0  0
   35.0430   -4.6650   35.8610 C   0  0  0  0  0  0  0  0  0  0  0  0
   34.2870   -5.8590   35.2680 C   0  0  0  0  0  0  0  0  0  0  0  0
   35.0130   -6.9440   34.8920 C   0  0  0  0  0  0  0  0  0  0  0  0
   36.2230   -7.6530   35.9810 S   0  0  0  0  0  0  0  0  0  0  0  0
   35.9390   -9.3090   35.7030 C   0  0  0  0  0  0  0  0  0  0  0  0
   36.3860  -10.2310   36.3360 O   0  0  0  0  0  0  0  0  0  0  0  0
   34.5970   -9.4650   34.9950 N   0  0  0  0  0  0  0  0  0  0  0  0
   34.2670   -8.1170   34.2210 C   0  0  0  0  0  0  0  0  0  0  0  0
   33.1980   -7.9530   33.7300 O   0  0  0  0  0  0  0  0  0  0  0  0
   35.2480   -3.5060   34.9250 C   0  0  0  0  0  0  0  0  0  0  0  0
   36.6420   -2.4190   36.6650 C   0  0  0  0  0  0  0  0  0  0  0  0
   37.4890   -1.3700   37.0480 O   0  0  0  0  0  0  0  0  0  0  0  0
   36.7750   -0.1660   37.1770 C   0  0  0  0  0  0  0  0  0  0  0  0
   35.3940   -0.1350   37.6130 C   0  0  0  0  0  0  0  0  0  0  0  0
   34.4680    4.7300   37.8870 N   0  0  0  0  0  0  0  0  0  0  0  0
   37.5360    1.0440   36.9260 C   0  0  0  0  0  0  0  0  0  0  0  0
   38.9520    0.2660   35.2050 F   0  0  0  0  0  0  0  0  0  0  0  0
   39.7560    0.1320   37.2030 F   0  0  0  0  0  0  0  0  0  0  0  0
   39.5080    2.1740   36.2690 F   0  0  0  0  0  0  0  0  0  0  0  0
   36.2207   -1.5299   34.6850 H   0  0  0  0  0  0  0  0  0  0  0  0
   33.7339    1.2230   38.1416 H   0  0  0  0  0  0  0  0  0  0  0  0
   37.4816    3.2497   36.9138 H   0  0  0  0  0  0  0  0  0  0  0  0
   37.4320   -4.5634   40.5970 H   0  0  0  0  0  0  0  0  0  0  0  0
   36.8350   -5.5342   39.2086 H   0  0  0  0  0  0  0  0  0  0  0  0
   38.5185   -4.9076   39.2086 H   0  0  0  0  0  0  0  0  0  0  0  0
   35.4575   -5.5678   37.8599 H   0  0  0  0  0  0  0  0  0  0  0  0
   33.5609   -6.1954   36.0227 H   0  0  0  0  0  0  0  0  0  0  0  0
   33.8548   -5.4764   34.3316 H   0  0  0  0  0  0  0  0  0  0  0  0
   35.5641   -6.3530   34.1456 H   0  0  0  0  0  0  0  0  0  0  0  0
   34.0025  -10.3058   35.0153 H   0  0  0  0  0  0  0  0  0  0  0  0
   34.7873   -3.5095   33.9261 H   0  0  0  0  0  0  0  0  0  0  0  0
   34.8338   -1.0642   37.7939 H   0  0  0  0  0  0  0  0  0  0  0  0
 20  1  2  0
  1 21  1  0
  3  2  2  0
 24  2  1  0
  5  3  1  0
  3  4  1  0
  4 25  3  0
 26  5  2  0
 27  6  1  0
 29  6  1  0
  6 26  1  0
  6 28  1  0
  8  7  1  0
  9  8  1  0
 21  9  2  0
 10  9  1  0
 11 10  2  0
 20 11  1  0
 12 11  1  0
 13 12  1  0
 18 13  1  0
 13 14  1  0
 15 14  1  0
 17 15  1  0
 15 16  2  0
 18 17  1  0
 19 18  2  0
 21 22  1  0
 22 23  1  0
 26 23  1  0
 23 24  2  0
  1 30  1  0
  2 31  1  0
  5 32  1  0
  7 33  1  0
  7 34  1  0
  7 35  1  0
 10 36  1  0
 12 37  1  0
 12 38  1  0
 13 39  1  0
 17 40  1  0
 20 41  1  0
 24 42  1  0
A    1
C15
A    2
C20
A    3
C21
A    4
C22
A    5
C24
A    6
C26
A    7
C01
A    8
O02
A    9
C03
A   10
C04
A   11
C05
A   12
C06
A   13
C07
A   14
S08
A   15
C09
A   16
O10
A   17
N11
A   18
C12
A   19
O13
A   20
C14
A   21
C16
A   22
O17
A   23
C18
A   24
C19
A   25
N23
A   26
C25
A   27
F27
A   28
F28
A   29
F29
M  END
