3KA0_MK3_A_500
     RDKit          3D

 43 46  0  0  0  0  0  0  0  0999 V2000
  229.8000   81.4010  183.6040 C   0  0  0  0  0  0  0  0  0  0  0  0
  231.0680   81.8190  183.6340 N   0  0  0  0  0  0  0  0  0  0  0  0
  235.7980   85.5500  181.3460 O   0  0  0  0  0  0  0  0  0  0  0  0
  241.1260   84.1600  181.5110 S   0  0  0  0  0  0  0  0  0  0  0  0
  230.3740   79.2930  184.1670 C   0  0  0  0  0  0  0  0  0  0  0  0
  229.4030   80.1540  183.8600 N   0  0  0  0  0  0  0  0  0  0  0  0
  243.9140   83.5430  179.6580 O   0  0  0  0  0  0  0  0  0  0  0  0
  231.7060   79.6280  184.2200 C   0  0  0  0  0  0  0  0  0  0  0  0
  228.8280   82.3420  183.2840 N   0  0  0  0  0  0  0  0  0  0  0  0
  232.0260   80.9350  183.9380 C   0  0  0  0  0  0  0  0  0  0  0  0
  233.3870   81.2970  183.9830 N   0  0  0  0  0  0  0  0  0  0  0  0
  233.9430   82.4130  183.3120 C   0  0  0  0  0  0  0  0  0  0  0  0
  244.1510   82.1180  181.4400 N   0  0  0  0  0  0  0  0  0  0  0  0
  235.2540   82.3210  182.8940 C   0  0  0  0  0  0  0  0  0  0  0  0
  235.9410   83.3180  182.2290 C   0  0  0  0  0  0  0  0  0  0  0  0
  235.2320   84.4820  181.9960 C   0  0  0  0  0  0  0  0  0  0  0  0
  233.9220   84.6210  182.4110 C   0  0  0  0  0  0  0  0  0  0  0  0
  233.2720   83.5930  183.0600 C   0  0  0  0  0  0  0  0  0  0  0  0
  237.3000   83.0060  181.8230 C   0  0  0  0  0  0  0  0  0  0  0  0
  237.4890   81.7470  181.2950 C   0  0  0  0  0  0  0  0  0  0  0  0
  238.6810   81.2250  180.8530 C   0  0  0  0  0  0  0  0  0  0  0  0
  238.3900   83.8400  181.9320 C   0  0  0  0  0  0  0  0  0  0  0  0
  239.6070   83.3390  181.4930 C   0  0  0  0  0  0  0  0  0  0  0  0
  239.7750   82.0590  180.9590 C   0  0  0  0  0  0  0  0  0  0  0  0
  241.1220   81.7890  180.5870 C   0  0  0  0  0  0  0  0  0  0  0  0
  241.9910   82.8340  180.8230 C   0  0  0  0  0  0  0  0  0  0  0  0
  243.4120   82.8930  180.5650 C   0  0  0  0  0  0  0  0  0  0  0  0
  244.3340   82.4860  182.8300 C   0  0  0  0  0  0  0  0  0  0  0  0
  236.1923   86.2940  181.8667 H   0  0  0  0  0  0  0  0  0  0  0  0
  230.0924   78.2535  184.3910 H   0  0  0  0  0  0  0  0  0  0  0  0
  232.4778   78.8870  184.4754 H   0  0  0  0  0  0  0  0  0  0  0  0
  228.3204   82.8334  184.0335 H   0  0  0  0  0  0  0  0  0  0  0  0
  228.6154   82.5478  182.2974 H   0  0  0  0  0  0  0  0  0  0  0  0
  234.0212   80.7092  184.5426 H   0  0  0  0  0  0  0  0  0  0  0  0
  235.7920   81.3852  183.1056 H   0  0  0  0  0  0  0  0  0  0  0  0
  233.3900   85.5649  182.2211 H   0  0  0  0  0  0  0  0  0  0  0  0
  232.2249   83.7122  183.3752 H   0  0  0  0  0  0  0  0  0  0  0  0
  236.6029   81.0995  181.2204 H   0  0  0  0  0  0  0  0  0  0  0  0
  238.7579   80.2079  180.4413 H   0  0  0  0  0  0  0  0  0  0  0  0
  238.3003   84.8547  182.3472 H   0  0  0  0  0  0  0  0  0  0  0  0
  241.4418   80.8316  180.1499 H   0  0  0  0  0  0  0  0  0  0  0  0
  244.9291   81.8432  183.4954 H   0  0  0  0  0  0  0  0  0  0  0  0
  243.8778   83.4081  183.2195 H   0  0  0  0  0  0  0  0  0  0  0  0
  9  1  1  0
  1  2  2  0
  1  6  1  0
  2 10  1  0
  3 16  1  0
 26  4  1  0
 23  4  1  0
  6  5  2  0
  5  8  1  0
  7 27  2  0
 10  8  2  0
 10 11  1  0
 12 11  1  0
 14 12  2  0
 18 12  1  0
 27 13  1  0
 13 28  2  3
 15 14  1  0
 19 15  1  0
 16 15  2  0
 16 17  1  0
 17 18  2  0
 20 19  2  0
 19 22  1  0
 21 20  1  0
 21 24  2  0
 23 22  2  0
 24 23  1  0
 25 24  1  0
 25 26  2  0
 27 26  1  0
  3 29  1  0
  5 30  1  0
  8 31  1  0
  9 32  1  0
  9 33  1  0
 11 34  1  0
 14 35  1  0
 17 36  1  0
 18 37  1  0
 20 38  1  0
 21 39  1  0
 22 40  1  0
 25 41  1  0
 28 42  1  0
 28 43  1  0
A    1
C1
A    2
N1
A    3
O1
A    4
S1
A    5
C2
A    6
N2
A    7
O2
A    8
C3
A    9
N3
A   10
C4
A   11
N4
A   12
C5
A   13
N5
A   14
C6
A   15
C7
A   16
C8
A   17
C9
A   18
C10
A   19
C11
A   20
C12
A   21
C13
A   22
C14
A   23
C15
A   24
C16
A   25
C17
A   26
C18
A   27
C19
A   28
C20
M  END
