3KAD_4C0_A_164
     RDKit          3D

 44 46  0  0  0  0  0  0  0  0999 V2000
   31.4660  -15.0670   -0.1880 C   0  0  0  0  0  0  0  0  0  0  0  0
   31.9410  -15.3660   -1.4600 C   0  0  0  0  0  0  0  0  0  0  0  0
   31.2360  -16.2400   -2.2790 C   0  0  0  0  0  0  0  0  0  0  0  0
   30.2850  -15.6430    0.2660 C   0  0  0  0  0  0  0  0  0  0  0  0
   29.5810  -16.5170   -0.5540 C   0  0  0  0  0  0  0  0  0  0  0  0
   30.0550  -16.8150   -1.8230 C   0  0  0  0  0  0  0  0  0  0  0  0
   29.1850  -17.6770   -2.3880 N   0  0  0  0  0  0  0  0  0  0  0  0
   28.1910  -17.9160   -1.5030 C   0  0  0  0  0  0  0  0  0  0  0  0
   28.4340  -17.2060   -0.3790 N   0  0  0  0  0  0  0  0  0  0  0  0
   27.0080  -18.8260   -1.7310 C   0  0  0  0  0  0  0  0  0  0  0  0
   25.8530  -18.0210   -2.3130 C   0  0  0  0  0  0  0  0  0  0  0  0
   26.1370  -17.6710   -3.6920 N   0  0  0  0  0  0  0  0  0  0  0  0
   26.4370  -16.4250   -4.0450 C   0  0  0  0  0  0  0  0  0  0  0  0
   26.4700  -15.4990   -3.2510 O   0  0  0  0  0  0  0  0  0  0  0  0
   26.7420  -16.1930   -5.5050 C   0  0  0  0  0  0  0  0  0  0  0  0
   28.0570  -15.4330   -5.6350 C   0  0  0  0  0  0  0  0  0  0  0  0
   28.5960  -15.5950   -7.0370 C   0  0  0  0  0  0  0  0  0  0  0  0
   28.2010  -16.6790   -7.8130 C   0  0  0  0  0  0  0  0  0  0  0  0
   28.6970  -16.8280   -9.1030 C   0  0  0  0  0  0  0  0  0  0  0  0
   29.5880  -15.8930   -9.6170 C   0  0  0  0  0  0  0  0  0  0  0  0
   29.9830  -14.8090   -8.8410 C   0  0  0  0  0  0  0  0  0  0  0  0
   29.4870  -14.6600   -7.5510 C   0  0  0  0  0  0  0  0  0  0  0  0
   24.5830  -18.8110   -2.1940 C   0  0  0  0  0  0  0  0  0  0  0  0
   24.1120  -19.3410   -3.2230 O   0  0  0  0  0  0  0  0  0  0  0  0
   24.0440  -18.9080   -1.0710 O   0  0  0  0  0  0  0  0  0  0  0  0
   32.0246  -14.3747    0.4591 H   0  0  0  0  0  0  0  0  0  0  0  0
   32.8758  -14.9103   -1.8186 H   0  0  0  0  0  0  0  0  0  0  0  0
   31.6114  -16.4763   -3.2856 H   0  0  0  0  0  0  0  0  0  0  0  0
   29.9084  -15.4075    1.2723 H   0  0  0  0  0  0  0  0  0  0  0  0
   29.2641  -18.0833   -3.3312 H   0  0  0  0  0  0  0  0  0  0  0  0
   27.2894  -19.6242   -2.4337 H   0  0  0  0  0  0  0  0  0  0  0  0
   26.6987  -19.2721   -0.7743 H   0  0  0  0  0  0  0  0  0  0  0  0
   25.7293  -17.0842   -1.7498 H   0  0  0  0  0  0  0  0  0  0  0  0
   26.1055  -18.4048   -4.4141 H   0  0  0  0  0  0  0  0  0  0  0  0
   26.8256  -17.1612   -6.0204 H   0  0  0  0  0  0  0  0  0  0  0  0
   25.9318  -15.6042   -5.9597 H   0  0  0  0  0  0  0  0  0  0  0  0
   27.8858  -14.3661   -5.4290 H   0  0  0  0  0  0  0  0  0  0  0  0
   28.7847  -15.8335   -4.9139 H   0  0  0  0  0  0  0  0  0  0  0  0
   27.4959  -17.4188   -7.4061 H   0  0  0  0  0  0  0  0  0  0  0  0
   28.3845  -17.6856   -9.7169 H   0  0  0  0  0  0  0  0  0  0  0  0
   29.9806  -16.0107  -10.6378 H   0  0  0  0  0  0  0  0  0  0  0  0
   30.6881  -14.0692   -9.2479 H   0  0  0  0  0  0  0  0  0  0  0  0
   29.7995  -13.8024   -6.9371 H   0  0  0  0  0  0  0  0  0  0  0  0
   24.5889  -18.8099   -0.2503 H   0  0  0  0  0  0  0  0  0  0  0  0
  2  1  2  0
  1  4  1  0
  3  2  1  0
  3  6  2  0
  5  4  2  0
  6  5  1  0
  5  9  1  0
  7  6  1  0
  7  8  1  0
 10  8  1  0
  8  9  2  0
 11 10  1  0
 12 11  1  0
 11 23  1  0
 13 12  1  0
 15 13  1  0
 13 14  2  0
 16 15  1  0
 17 16  1  0
 18 17  2  0
 22 17  1  0
 19 18  1  0
 20 19  2  0
 20 21  1  0
 21 22  2  0
 24 23  2  0
 23 25  1  0
  1 26  1  0
  2 27  1  0
  3 28  1  0
  4 29  1  0
  7 30  1  0
 10 31  1  0
 10 32  1  0
 11 33  1  0
 12 34  1  0
 15 35  1  0
 15 36  1  0
 16 37  1  0
 16 38  1  0
 18 39  1  0
 19 40  1  0
 20 41  1  0
 21 42  1  0
 22 43  1  0
 25 44  1  0
A    1
C1
A    2
C2
A    3
C3
A    4
C4
A    5
C5
A    6
C6
A    7
N7
A    8
C8
A    9
N9
A   10
C10
A   11
C11
A   12
N12
A   13
C13
A   14
O14
A   15
C15
A   16
C16
A   17
C17
A   18
C18
A   19
C19
A   20
C20
A   21
C21
A   22
C22
A   23
C23
A   24
O24
A   25
O25
M  END
