3KAF_4D9_A_164
     RDKit          3D

 41 44  0  0  0  0  0  0  0  0999 V2000
   39.4250  -18.6440   13.8430 C   0  0  0  0  0  0  0  0  0  0  0  0
   39.5920  -20.0110   13.6630 C   0  0  0  0  0  0  0  0  0  0  0  0
   39.3950  -20.5720   12.3980 C   0  0  0  0  0  0  0  0  0  0  0  0
   39.0440  -19.8190   11.2720 C   0  0  0  0  0  0  0  0  0  0  0  0
   38.8480  -16.5370   12.6120 N   0  0  0  0  0  0  0  0  0  0  0  0
   39.0750  -17.8420   12.7620 C   0  0  0  0  0  0  0  0  0  0  0  0
   38.8810  -18.4580   11.4310 C   0  0  0  0  0  0  0  0  0  0  0  0
   38.5540  -17.4610   10.6150 N   0  0  0  0  0  0  0  0  0  0  0  0
   38.5370  -16.3020   11.3270 C   0  0  0  0  0  0  0  0  0  0  0  0
   38.2230  -14.9440   10.7320 C   0  0  0  0  0  0  0  0  0  0  0  0
   39.4590  -14.0650   10.4470 C   0  0  0  0  0  0  0  0  0  0  0  0
   38.9880  -12.7680    9.8200 C   0  0  0  0  0  0  0  0  0  0  0  0
   40.5630  -14.6250    9.6610 N   0  0  0  0  0  0  0  0  0  0  0  0
   38.7250  -12.7230    8.5820 O   0  0  0  0  0  0  0  0  0  0  0  0
   38.8700  -11.7700   10.5820 O   0  0  0  0  0  0  0  0  0  0  0  0
   40.8110  -15.8950    9.2800 C   0  0  0  0  0  0  0  0  0  0  0  0
   40.5640  -16.2580    7.8460 C   0  0  0  0  0  0  0  0  0  0  0  0
   41.2420  -16.7450   10.0490 O   0  0  0  0  0  0  0  0  0  0  0  0
   40.0610  -15.4570    6.7990 C   0  0  0  0  0  0  0  0  0  0  0  0
   40.9320  -17.9190    7.3540 S   0  0  0  0  0  0  0  0  0  0  0  0
   40.4510  -17.6430    5.7510 C   0  0  0  0  0  0  0  0  0  0  0  0
   39.9910  -16.2320    5.5810 C   0  0  0  0  0  0  0  0  0  0  0  0
   39.5440  -15.7990    4.3260 C   0  0  0  0  0  0  0  0  0  0  0  0
   39.5440  -16.7200    3.2730 C   0  0  0  0  0  0  0  0  0  0  0  0
   39.9870  -18.0550    3.4450 C   0  0  0  0  0  0  0  0  0  0  0  0
   40.4550  -18.5410    4.6780 C   0  0  0  0  0  0  0  0  0  0  0  0
   39.5691  -18.1969   14.8377 H   0  0  0  0  0  0  0  0  0  0  0  0
   39.8780  -20.6492   14.5120 H   0  0  0  0  0  0  0  0  0  0  0  0
   39.5221  -21.6585   12.2820 H   0  0  0  0  0  0  0  0  0  0  0  0
   38.9025  -20.2968   10.2913 H   0  0  0  0  0  0  0  0  0  0  0  0
   38.9021  -15.8278   13.3569 H   0  0  0  0  0  0  0  0  0  0  0  0
   37.6876  -15.1005    9.7839 H   0  0  0  0  0  0  0  0  0  0  0  0
   37.6248  -14.4062   11.4823 H   0  0  0  0  0  0  0  0  0  0  0  0
   39.9231  -13.9412   11.4366 H   0  0  0  0  0  0  0  0  0  0  0  0
   41.2629  -13.9367    9.3491 H   0  0  0  0  0  0  0  0  0  0  0  0
   38.8845  -11.8927   11.5643 H   0  0  0  0  0  0  0  0  0  0  0  0
   39.7665  -14.4015    6.8952 H   0  0  0  0  0  0  0  0  0  0  0  0
   39.2028  -14.7645    4.1729 H   0  0  0  0  0  0  0  0  0  0  0  0
   39.1897  -16.3985    2.2825 H   0  0  0  0  0  0  0  0  0  0  0  0
   39.9638  -18.7362    2.5816 H   0  0  0  0  0  0  0  0  0  0  0  0
   40.8072  -19.5767    4.7938 H   0  0  0  0  0  0  0  0  0  0  0  0
  6  1  2  0
  2  1  1  0
  3  2  2  0
  4  3  1  0
  4  7  2  0
  9  5  1  0
  5  6  1  0
  7  6  1  0
  8  7  1  0
  8  9  2  0
 10  9  1  0
 11 10  1  0
 13 11  1  0
 12 11  1  0
 14 12  2  0
 12 15  1  0
 16 13  1  0
 17 16  1  0
 16 18  2  0
 19 17  2  0
 20 17  1  0
 22 19  1  0
 21 20  1  0
 26 21  1  0
 22 21  2  0
 23 22  1  0
 24 23  2  0
 24 25  1  0
 25 26  2  0
  1 27  1  0
  2 28  1  0
  3 29  1  0
  4 30  1  0
  5 31  1  0
 10 32  1  0
 10 33  1  0
 11 34  1  0
 13 35  1  0
 15 36  1  0
 19 37  1  0
 23 38  1  0
 24 39  1  0
 25 40  1  0
 26 41  1  0
A    1
C1
A    2
C2
A    3
C3
A    4
C4
A    5
N5
A    6
C6
A    7
C7
A    8
N8
A    9
C9
A   10
C10
A   11
C11
A   12
C12
A   13
N13
A   14
O14
A   15
O15
A   16
C16
A   17
C17
A   18
O18
A   19
C19
A   20
S20
A   21
C21
A   22
C22
A   23
C23
A   24
C24
A   25
C25
A   26
C26
M  END
