3KAG_4D7_A_164
     RDKit          3D

 38 40  0  0  0  0  0  0  0  0999 V2000
  -31.6940   24.2470   26.6670 C   0  0  0  0  0  0  0  0  0  0  0  0
  -31.6130   23.7120   25.3860 C   0  0  0  0  0  0  0  0  0  0  0  0
  -32.6650   23.8830   24.4930 C   0  0  0  0  0  0  0  0  0  0  0  0
  -32.8260   24.9520   27.0570 C   0  0  0  0  0  0  0  0  0  0  0  0
  -35.0510   25.7340   26.2590 N   0  0  0  0  0  0  0  0  0  0  0  0
  -33.8760   25.1210   26.1630 C   0  0  0  0  0  0  0  0  0  0  0  0
  -33.7960   24.5890   24.8860 C   0  0  0  0  0  0  0  0  0  0  0  0
  -34.9260   24.9010   24.2590 N   0  0  0  0  0  0  0  0  0  0  0  0
  -35.6910   25.5990   25.0970 C   0  0  0  0  0  0  0  0  0  0  0  0
  -37.0800   26.1570   24.7780 C   0  0  0  0  0  0  0  0  0  0  0  0
  -36.9790   27.5190   24.0880 C   0  0  0  0  0  0  0  0  0  0  0  0
  -38.3560   28.1850   24.0690 C   0  0  0  0  0  0  0  0  0  0  0  0
  -38.7620   28.8030   25.0510 O   0  0  0  0  0  0  0  0  0  0  0  0
  -39.0700   28.1090   23.0700 O   0  0  0  0  0  0  0  0  0  0  0  0
  -36.5020   27.3360   22.7100 N   0  0  0  0  0  0  0  0  0  0  0  0
  -35.2570   27.6330   22.3490 C   0  0  0  0  0  0  0  0  0  0  0  0
  -34.9330   27.3810   20.8750 C   0  0  0  0  0  0  0  0  0  0  0  0
  -34.4060   28.0780   23.1180 O   0  0  0  0  0  0  0  0  0  0  0  0
  -35.2560   28.2180   19.8250 C   0  0  0  0  0  0  0  0  0  0  0  0
  -34.7990   27.6450   18.6810 O   0  0  0  0  0  0  0  0  0  0  0  0
  -34.2010   26.4610   19.0650 C   0  0  0  0  0  0  0  0  0  0  0  0
  -34.2920   26.3200   20.3930 C   0  0  0  0  0  0  0  0  0  0  0  0
  -35.9980   29.5520   19.9320 C   0  0  0  0  0  0  0  0  0  0  0  0
  -30.8609   24.1119   27.3724 H   0  0  0  0  0  0  0  0  0  0  0  0
  -30.7165   23.1534   25.0791 H   0  0  0  0  0  0  0  0  0  0  0  0
  -32.6024   23.4610   23.4791 H   0  0  0  0  0  0  0  0  0  0  0  0
  -32.8907   25.3750   28.0704 H   0  0  0  0  0  0  0  0  0  0  0  0
  -35.4067   26.2290   27.0893 H   0  0  0  0  0  0  0  0  0  0  0  0
  -37.6056   25.4553   24.1136 H   0  0  0  0  0  0  0  0  0  0  0  0
  -37.6323   26.2822   25.7210 H   0  0  0  0  0  0  0  0  0  0  0  0
  -36.2719   28.1574   24.6380 H   0  0  0  0  0  0  0  0  0  0  0  0
  -38.5494   28.4794   25.9622 H   0  0  0  0  0  0  0  0  0  0  0  0
  -37.1522   26.9662   22.0019 H   0  0  0  0  0  0  0  0  0  0  0  0
  -33.7225   25.7427   18.3830 H   0  0  0  0  0  0  0  0  0  0  0  0
  -33.9049   25.4754   20.9819 H   0  0  0  0  0  0  0  0  0  0  0  0
  -36.1405   29.8083   20.9922 H   0  0  0  0  0  0  0  0  0  0  0  0
  -35.4085   30.3399   19.4404 H   0  0  0  0  0  0  0  0  0  0  0  0
  -36.9783   29.4668   19.4404 H   0  0  0  0  0  0  0  0  0  0  0  0
  2  1  2  0
  1  4  1  0
  3  2  1  0
  3  7  2  0
  6  4  2  0
  9  5  1  0
  6  5  1  0
  7  6  1  0
  8  7  1  0
  8  9  2  0
 10  9  1  0
 11 10  1  0
 15 11  1  0
 12 11  1  0
 14 12  2  0
 12 13  1  0
 16 15  1  0
 17 16  1  0
 16 18  2  0
 19 17  2  0
 22 17  1  0
 20 19  1  0
 19 23  1  0
 20 21  1  0
 21 22  2  0
  1 24  1  0
  2 25  1  0
  3 26  1  0
  4 27  1  0
  5 28  1  0
 10 29  1  0
 10 30  1  0
 11 31  1  0
 13 32  1  0
 15 33  1  0
 21 34  1  0
 22 35  1  0
 23 36  1  0
 23 37  1  0
 23 38  1  0
A    1
C1
A    2
C2
A    3
C3
A    4
C4
A    5
N5
A    6
C6
A    7
C7
A    8
N8
A    9
C9
A   10
C10
A   11
C11
A   12
C12
A   13
O13
A   14
O14
A   15
N15
A   16
C16
A   17
C17
A   18
O18
A   19
C19
A   20
O20
A   21
C21
A   22
C22
A   23
C23
M  END
