3KAH_4DH_A_165
     RDKit          3D

 48 51  0  0  0  0  0  0  0  0999 V2000
   32.0150  -24.0450  -15.6130 C   0  0  0  0  0  0  0  0  0  0  0  0
   32.1730  -24.7840  -14.4460 C   0  0  0  0  0  0  0  0  0  0  0  0
   33.3600  -25.4680  -14.2110 C   0  0  0  0  0  0  0  0  0  0  0  0
   33.0430  -23.9890  -16.5460 C   0  0  0  0  0  0  0  0  0  0  0  0
   35.3530  -24.7970  -17.0060 N   0  0  0  0  0  0  0  0  0  0  0  0
   34.2290  -24.6740  -16.3090 C   0  0  0  0  0  0  0  0  0  0  0  0
   34.3870  -25.4110  -15.1460 C   0  0  0  0  0  0  0  0  0  0  0  0
   35.6000  -25.9510  -15.1850 N   0  0  0  0  0  0  0  0  0  0  0  0
   36.1900  -25.5760  -16.3200 C   0  0  0  0  0  0  0  0  0  0  0  0
   37.5980  -25.9760  -16.7640 C   0  0  0  0  0  0  0  0  0  0  0  0
   37.5500  -27.1330  -17.7640 C   0  0  0  0  0  0  0  0  0  0  0  0
   38.9740  -27.5070  -18.1810 C   0  0  0  0  0  0  0  0  0  0  0  0
   39.3330  -27.3840  -19.3510 O   0  0  0  0  0  0  0  0  0  0  0  0
   39.7750  -27.9340  -17.3500 O   0  0  0  0  0  0  0  0  0  0  0  0
   36.7820  -26.7260  -18.9490 N   0  0  0  0  0  0  0  0  0  0  0  0
   35.5200  -27.1020  -19.1330 C   0  0  0  0  0  0  0  0  0  0  0  0
   34.8740  -26.5870  -20.4210 C   0  0  0  0  0  0  0  0  0  0  0  0
   34.8900  -27.8080  -18.3480 O   0  0  0  0  0  0  0  0  0  0  0  0
   33.5760  -26.4220  -20.6240 N   0  0  0  0  0  0  0  0  0  0  0  0
   33.3790  -25.9940  -21.7610 N   0  0  0  0  0  0  0  0  0  0  0  0
   34.5610  -25.8550  -22.3710 C   0  0  0  0  0  0  0  0  0  0  0  0
   35.5170  -26.2310  -21.5220 C   0  0  0  0  0  0  0  0  0  0  0  0
   32.5180  -26.7100  -19.6290 C   0  0  0  0  0  0  0  0  0  0  0  0
   34.7590  -25.3960  -23.6680 C   0  0  0  0  0  0  0  0  0  0  0  0
   35.9150  -25.7400  -24.3580 C   0  0  0  0  0  0  0  0  0  0  0  0
   36.1120  -25.2820  -25.6560 C   0  0  0  0  0  0  0  0  0  0  0  0
   35.1530  -24.4780  -26.2620 C   0  0  0  0  0  0  0  0  0  0  0  0
   33.9970  -24.1340  -25.5720 C   0  0  0  0  0  0  0  0  0  0  0  0
   33.8000  -24.5930  -24.2740 C   0  0  0  0  0  0  0  0  0  0  0  0
   31.0752  -23.5041  -15.7978 H   0  0  0  0  0  0  0  0  0  0  0  0
   31.3582  -24.8274  -13.7083 H   0  0  0  0  0  0  0  0  0  0  0  0
   33.4863  -26.0527  -13.2879 H   0  0  0  0  0  0  0  0  0  0  0  0
   32.9187  -23.4043  -17.4694 H   0  0  0  0  0  0  0  0  0  0  0  0
   35.5453  -24.3643  -17.9207 H   0  0  0  0  0  0  0  0  0  0  0  0
   38.0850  -25.1110  -17.2379 H   0  0  0  0  0  0  0  0  0  0  0  0
   38.1652  -26.3009  -15.8793 H   0  0  0  0  0  0  0  0  0  0  0  0
   37.0657  -28.0023  -17.2953 H   0  0  0  0  0  0  0  0  0  0  0  0
   39.5863  -27.8334  -16.3834 H   0  0  0  0  0  0  0  0  0  0  0  0
   37.2348  -26.1318  -19.6581 H   0  0  0  0  0  0  0  0  0  0  0  0
   36.6028  -26.2429  -21.6977 H   0  0  0  0  0  0  0  0  0  0  0  0
   32.9285  -26.5983  -18.6146 H   0  0  0  0  0  0  0  0  0  0  0  0
   31.6839  -26.0062  -19.7666 H   0  0  0  0  0  0  0  0  0  0  0  0
   32.1557  -27.7395  -19.7666 H   0  0  0  0  0  0  0  0  0  0  0  0
   36.6742  -26.3746  -23.8774 H   0  0  0  0  0  0  0  0  0  0  0  0
   37.0262  -25.5556  -26.2032 H   0  0  0  0  0  0  0  0  0  0  0  0
   35.3095  -24.1141  -27.2882 H   0  0  0  0  0  0  0  0  0  0  0  0
   33.2380  -23.4989  -26.0522 H   0  0  0  0  0  0  0  0  0  0  0  0
   32.8853  -24.3205  -23.7271 H   0  0  0  0  0  0  0  0  0  0  0  0
  4  1  2  0
  1  2  1  0
  2  3  2  0
  7  3  1  0
  4  6  1  0
  5  9  1  0
  5  6  1  0
  6  7  2  0
  8  7  1  0
  9  8  2  0
 10  9  1  0
 11 10  1  0
 15 11  1  0
 12 11  1  0
 13 12  2  0
 12 14  1  0
 16 15  1  0
 17 16  1  0
 16 18  2  0
 22 17  2  0
 19 17  1  0
 20 19  1  0
 19 23  1  0
 21 20  2  0
 24 21  1  0
 21 22  1  0
 25 24  2  0
 29 24  1  0
 26 25  1  0
 27 26  2  0
 27 28  1  0
 28 29  2  0
  1 30  1  0
  2 31  1  0
  3 32  1  0
  4 33  1  0
  5 34  1  0
 10 35  1  0
 10 36  1  0
 11 37  1  0
 14 38  1  0
 15 39  1  0
 22 40  1  0
 23 41  1  0
 23 42  1  0
 23 43  1  0
 25 44  1  0
 26 45  1  0
 27 46  1  0
 28 47  1  0
 29 48  1  0
A    1
C1
A    2
C2
A    3
C3
A    4
C4
A    5
N5
A    6
C6
A    7
C7
A    8
N8
A    9
C9
A   10
C10
A   11
C11
A   12
C12
A   13
O13
A   14
O14
A   15
N15
A   16
C16
A   17
C17
A   18
O18
A   19
N19
A   20
N20
A   21
C21
A   22
C22
A   23
C23
A   24
C24
A   25
C25
A   26
C26
A   27
C27
A   28
C28
A   29
C29
M  END
