3KBO_NDB_A_314
     RDKit          3D

 31 30  0  0  0  0  0  0  0  0999 V2000
    6.5740   -1.6940  -28.6630 C   0  0  0  0  0  0  0  0  0  0  0  0
    4.5610   -1.3170  -27.4560 C   0  0  0  0  0  0  0  0  0  0  0  0
    9.4680   -5.8190  -25.9960 O   0  0  0  0  0  0  0  0  0  0  0  0
    8.5270   -7.7550  -27.0990 O   0  0  0  0  0  0  0  0  0  0  0  0
    8.4160   -0.2590  -24.9930 O   0  0  0  0  0  0  0  0  0  0  0  0
    9.4700   -5.9500  -28.3820 O   0  0  0  0  0  0  0  0  0  0  0  0
    7.9990   -1.1070  -26.0690 C   0  0  0  0  0  0  0  0  0  0  0  0
    7.2360   -3.8580  -27.4690 C   0  0  0  0  0  0  0  0  0  0  0  0
    6.5630   -0.7470  -26.4360 C   0  0  0  0  0  0  0  0  0  0  0  0
    6.0870   -3.0940  -26.7700 C   0  0  0  0  0  0  0  0  0  0  0  0
    7.1020   -5.3920  -27.2830 C   0  0  0  0  0  0  0  0  0  0  0  0
    5.9580   -1.7330  -27.3320 N   0  0  0  0  0  0  0  0  0  0  0  0
    8.7070   -6.2650  -27.2020 S   0  0  0  0  0  0  0  0  0  0  0  0
    7.6669   -1.6248  -28.5593 H   0  0  0  0  0  0  0  0  0  0  0  0
    6.3152   -2.6103  -29.2138 H   0  0  0  0  0  0  0  0  0  0  0  0
    6.2017   -0.8176  -29.2138 H   0  0  0  0  0  0  0  0  0  0  0  0
    4.1266   -1.1876  -26.4537 H   0  0  0  0  0  0  0  0  0  0  0  0
    4.5093   -0.3645  -28.0038 H   0  0  0  0  0  0  0  0  0  0  0  0
    3.9966   -2.0861  -28.0038 H   0  0  0  0  0  0  0  0  0  0  0  0
    8.4952   -8.0184  -26.1452 H   0  0  0  0  0  0  0  0  0  0  0  0
    8.2026   -0.6929  -24.1291 H   0  0  0  0  0  0  0  0  0  0  0  0
    8.6546   -0.9533  -26.9388 H   0  0  0  0  0  0  0  0  0  0  0  0
    8.0582   -2.1621  -25.7638 H   0  0  0  0  0  0  0  0  0  0  0  0
    7.2158   -3.6262  -28.5441 H   0  0  0  0  0  0  0  0  0  0  0  0
    8.1857   -3.5393  -27.0146 H   0  0  0  0  0  0  0  0  0  0  0  0
    5.9650   -0.6918  -25.5144 H   0  0  0  0  0  0  0  0  0  0  0  0
    6.5806    0.2199  -26.9602 H   0  0  0  0  0  0  0  0  0  0  0  0
    5.1439   -3.6397  -26.9212 H   0  0  0  0  0  0  0  0  0  0  0  0
    6.3105   -3.0173  -25.6957 H   0  0  0  0  0  0  0  0  0  0  0  0
    6.5556   -5.5821  -26.3474 H   0  0  0  0  0  0  0  0  0  0  0  0
    6.5701   -5.7778  -28.1652 H   0  0  0  0  0  0  0  0  0  0  0  0
  1 12  1  0
  2 12  1  0
  3 13  2  0
  4 13  1  0
  5  7  1  0
  6 13  2  0
  7  9  1  0
  8 10  1  0
  8 11  1  0
  9 12  1  0
 10 12  1  0
 11 13  1  0
  1 14  1  0
  1 15  1  0
  1 16  1  0
  2 17  1  0
  2 18  1  0
  2 19  1  0
  4 20  1  0
  5 21  1  0
  7 22  1  0
  7 23  1  0
  8 24  1  0
  8 25  1  0
  9 26  1  0
  9 27  1  0
 10 28  1  0
 10 29  1  0
 11 30  1  0
 11 31  1  0
M  CHG  1  12   1
A    1
CAA
A    2
CAB
A    3
OAC
A    4
OAD
A    5
OAE
A    6
OAF
A    7
CAG
A    8
CAH
A    9
CAI
A   10
CAJ
A   11
CAK
A   12
NAL
A   13
SAM
M  END
