3KBZ_2T4_A_401
     RDKit          3D

 30 32  0  0  0  0  0  0  0  0999 V2000
   19.1950   60.2110   16.2870 C   0  0  0  0  0  0  0  0  0  0  0  0
   19.5140   61.2060   15.3430 C   0  0  0  0  0  0  0  0  0  0  0  0
   20.8510   61.6260   15.1790 C   0  0  0  0  0  0  0  0  0  0  0  0
   21.8660   61.0470   15.9600 C   0  0  0  0  0  0  0  0  0  0  0  0
   21.5150   60.0670   16.8810 C   0  0  0  0  0  0  0  0  0  0  0  0
   20.2060   59.6740   17.0270 C   0  0  0  0  0  0  0  0  0  0  0  0
   22.4540   59.2920   17.8420 C   0  0  0  0  0  0  0  0  0  0  0  0
   21.3660   58.4490   18.4850 C   0  0  0  0  0  0  0  0  0  0  0  0
   20.1410   58.6580   18.0410 C   0  0  0  0  0  0  0  0  0  0  0  0
   21.3760   57.2700   19.6740 S   0  0  0  0  0  0  0  0  0  0  0  0
   19.6740   57.0690   19.5600 C   0  0  0  0  0  0  0  0  0  0  0  0
   19.1280   57.9120   18.6040 N   0  0  0  0  0  0  0  0  0  0  0  0
   18.9050   56.1220   20.3750 N   0  0  0  0  0  0  0  0  0  0  0  0
   17.8990   59.7630   16.4840 O   0  0  0  0  0  0  0  0  0  0  0  0
   16.9690   60.6900   15.9840 C   0  0  0  0  0  0  0  0  0  0  0  0
   15.2870   60.0580   16.2380 P   0  0  0  0  0  0  0  0  0  0  0  0
   14.3060   60.8680   15.4440 O   0  0  0  0  0  0  0  0  0  0  0  0
   15.2250   58.6290   15.7960 O   0  0  0  0  0  0  0  0  0  0  0  0
   14.9490   60.1490   17.6920 O   0  0  0  0  0  0  0  0  0  0  0  0
   18.7185   61.6571   14.7317 H   0  0  0  0  0  0  0  0  0  0  0  0
   21.0982   62.4043   14.4420 H   0  0  0  0  0  0  0  0  0  0  0  0
   22.9136   61.3621   15.8450 H   0  0  0  0  0  0  0  0  0  0  0  0
   23.2012   58.6860   17.3086 H   0  0  0  0  0  0  0  0  0  0  0  0
   23.0875   59.8898   18.5138 H   0  0  0  0  0  0  0  0  0  0  0  0
   18.9474   56.1742   21.4028 H   0  0  0  0  0  0  0  0  0  0  0  0
   18.3227   55.4049   19.9194 H   0  0  0  0  0  0  0  0  0  0  0  0
   17.0847   61.6472   16.5135 H   0  0  0  0  0  0  0  0  0  0  0  0
   17.1448   60.8417   14.9088 H   0  0  0  0  0  0  0  0  0  0  0  0
   13.7091   61.3609   16.0611 H   0  0  0  0  0  0  0  0  0  0  0  0
   15.1994   58.0387   16.5903 H   0  0  0  0  0  0  0  0  0  0  0  0
  1  2  2  0
  1  6  1  0
  1 14  1  0
  2  3  1  0
  3  4  2  0
  4  5  1  0
  5  6  2  0
  5  7  1  0
  6  9  1  0
  7  8  1  0
  8  9  2  0
  8 10  1  0
  9 12  1  0
 10 11  1  0
 11 12  2  0
 11 13  1  0
 14 15  1  0
 15 16  1  0
 16 17  1  0
 16 18  1  0
 16 19  2  0
  2 20  1  0
  3 21  1  0
  4 22  1  0
  7 23  1  0
  7 24  1  0
 13 25  1  0
 13 26  1  0
 15 27  1  0
 15 28  1  0
 17 29  1  0
 18 30  1  0
A    1
C1
A    2
C2
A    3
C3
A    4
C4
A    5
C5
A    6
C6
A    7
C7
A    8
C8
A    9
C9
A   10
S10
A   11
C11
A   12
N12
A   13
N13
A   14
O14
A   15
C15
A   16
P16
A   17
O17
A   18
O18
A   19
O19
M  END
