3KC1_2T6_A_401
     RDKit          3D

 32 34  0  0  0  0  0  0  0  0999 V2000
   21.4810   59.5520   17.1310 C   0  0  0  0  0  0  0  0  0  0  0  0
   20.1440   59.3110   17.3450 C   0  0  0  0  0  0  0  0  0  0  0  0
   19.1640   60.0040   16.6910 C   0  0  0  0  0  0  0  0  0  0  0  0
   19.5470   60.9980   15.7680 C   0  0  0  0  0  0  0  0  0  0  0  0
   20.9070   61.2580   15.5360 C   0  0  0  0  0  0  0  0  0  0  0  0
   21.8890   60.5260   16.2260 C   0  0  0  0  0  0  0  0  0  0  0  0
   22.3770   58.6250   18.0020 C   0  0  0  0  0  0  0  0  0  0  0  0
   21.2390   57.8850   18.6770 C   0  0  0  0  0  0  0  0  0  0  0  0
   20.0160   58.2580   18.3220 C   0  0  0  0  0  0  0  0  0  0  0  0
   21.1890   56.6540   19.8150 S   0  0  0  0  0  0  0  0  0  0  0  0
   19.4740   56.6610   19.7960 C   0  0  0  0  0  0  0  0  0  0  0  0
   18.9580   57.6030   18.9190 N   0  0  0  0  0  0  0  0  0  0  0  0
   17.8380   59.7180   16.9470 O   0  0  0  0  0  0  0  0  0  0  0  0
   17.0110   60.4050   16.0400 C   0  0  0  0  0  0  0  0  0  0  0  0
   14.9930   59.9330   17.7720 O   0  0  0  0  0  0  0  0  0  0  0  0
   23.3110   60.7870   15.9930 C   0  0  0  0  0  0  0  0  0  0  0  0
   23.5670   61.9400   15.3460 N   0  0  0  0  0  0  0  0  0  0  0  0
   24.2090   60.0260   16.3380 O   0  0  0  0  0  0  0  0  0  0  0  0
   15.2840   59.9270   16.3050 P   0  0  0  0  0  0  0  0  0  0  0  0
   14.3740   60.8930   15.6120 O   0  0  0  0  0  0  0  0  0  0  0  0
   15.0690   58.5500   15.7530 O   0  0  0  0  0  0  0  0  0  0  0  0
   18.7788   61.5712   15.2283 H   0  0  0  0  0  0  0  0  0  0  0  0
   21.2039   62.0338   14.8149 H   0  0  0  0  0  0  0  0  0  0  0  0
   23.0149   57.9625   17.3985 H   0  0  0  0  0  0  0  0  0  0  0  0
   23.1140   59.1132   18.6566 H   0  0  0  0  0  0  0  0  0  0  0  0
   18.8529   55.9929   20.4108 H   0  0  0  0  0  0  0  0  0  0  0  0
   17.1184   61.4886   16.1959 H   0  0  0  0  0  0  0  0  0  0  0  0
   17.3062   60.1484   15.0119 H   0  0  0  0  0  0  0  0  0  0  0  0
   23.7578   62.7993   15.8809 H   0  0  0  0  0  0  0  0  0  0  0  0
   23.5720   61.9626   14.3163 H   0  0  0  0  0  0  0  0  0  0  0  0
   13.8772   61.4204   16.2866 H   0  0  0  0  0  0  0  0  0  0  0  0
   14.9686   57.9073   16.4993 H   0  0  0  0  0  0  0  0  0  0  0  0
  1  2  1  0
  1  6  2  0
  1  7  1  0
  2  3  2  0
  2  9  1  0
  3  4  1  0
  3 13  1  0
  4  5  2  0
  5  6  1  0
  6 16  1  0
  7  8  1  0
  8  9  2  0
  8 10  1  0
  9 12  1  0
 10 11  1  0
 11 12  2  0
 13 14  1  0
 14 19  1  0
 15 19  2  0
 16 17  1  0
 16 18  2  0
 19 20  1  0
 19 21  1  0
  4 22  1  0
  5 23  1  0
  7 24  1  0
  7 25  1  0
 11 26  1  0
 14 27  1  0
 14 28  1  0
 17 29  1  0
 17 30  1  0
 20 31  1  0
 21 32  1  0
A    1
C1
A    2
C2
A    3
C3
A    4
C4
A    5
C5
A    6
C6
A    7
C7
A    8
C8
A    9
C9
A   10
S10
A   11
C11
A   12
N12
A   13
O13
A   14
C14
A   15
O15
A   16
C16
A   17
N17
A   18
O18
A   19
P19
A   20
O20
A   21
O21
M  END
