3KCE_4BY_A_165
     RDKit          3D

 22 23  0  0  0  0  0  0  0  0999 V2000
    4.6570   44.5260   11.5760 C   0  0  0  0  0  0  0  0  0  0  0  0
    4.3070   43.5550   10.7230 N   0  0  0  0  0  0  0  0  0  0  0  0
    5.0860   44.0210   12.7380 C   0  0  0  0  0  0  0  0  0  0  0  0
    5.0100   42.6880   12.6280 C   0  0  0  0  0  0  0  0  0  0  0  0
    4.5220   42.3910   11.3480 C   0  0  0  0  0  0  0  0  0  0  0  0
    4.5490   46.0040   11.2330 C   0  0  0  0  0  0  0  0  0  0  0  0
    5.3230   41.6450   13.5020 C   0  0  0  0  0  0  0  0  0  0  0  0
    3.9740   46.2840   10.1500 O   0  0  0  0  0  0  0  0  0  0  0  0
    4.3650   41.0640   10.9470 C   0  0  0  0  0  0  0  0  0  0  0  0
    5.0260   46.8500   12.0290 O   0  0  0  0  0  0  0  0  0  0  0  0
    5.1470   40.3080   13.1010 C   0  0  0  0  0  0  0  0  0  0  0  0
    4.6680   40.0180   11.8210 C   0  0  0  0  0  0  0  0  0  0  0  0
    5.4800   39.1640   14.0680 C   0  0  0  0  0  0  0  0  0  0  0  0
    3.9419   43.6799    9.7680 H   0  0  0  0  0  0  0  0  0  0  0  0
    5.4335   44.5894   13.6133 H   0  0  0  0  0  0  0  0  0  0  0  0
    5.7085   41.8695   14.5075 H   0  0  0  0  0  0  0  0  0  0  0  0
    3.9995   40.8399    9.9340 H   0  0  0  0  0  0  0  0  0  0  0  0
    4.9471   46.7101   13.0059 H   0  0  0  0  0  0  0  0  0  0  0  0
    4.5306   38.9736   11.5041 H   0  0  0  0  0  0  0  0  0  0  0  0
    5.3769   39.5181   15.1043 H   0  0  0  0  0  0  0  0  0  0  0  0
    4.7885   38.3259   13.8964 H   0  0  0  0  0  0  0  0  0  0  0  0
    6.5133   38.8279   13.8964 H   0  0  0  0  0  0  0  0  0  0  0  0
  2  1  1  0
  6  1  1  0
  1  3  2  0
  2  5  1  0
  4  3  1  0
  5  4  2  0
  4  7  1  0
  9  5  1  0
  8  6  2  0
  6 10  1  0
 11  7  2  0
  9 12  2  0
 12 11  1  0
 11 13  1  0
  2 14  1  0
  3 15  1  0
  7 16  1  0
  9 17  1  0
 10 18  1  0
 12 19  1  0
 13 20  1  0
 13 21  1  0
 13 22  1  0
A    1
C1
A    2
N2
A    3
C3
A    4
C4
A    5
C5
A    6
C6
A    7
C7
A    8
O8
A    9
C9
A   10
O10
A   11
C11
A   12
C12
A   13
C13
M  END
