3KDS_NHX_E_998
     RDKit          3D

 65 66  0  0  0  0  0  0  0  0999 V2000
   32.4960    8.4270   26.3180 C   0  0  0  0  0  0  0  0  0  0  0  0
   32.4400   10.9580   26.1380 N   0  0  0  0  0  0  0  0  0  0  0  0
   33.0630    7.3360   26.2120 O   0  0  0  0  0  0  0  0  0  0  0  0
   33.2590    9.7300   26.0270 C   0  0  0  0  0  0  0  0  0  0  0  0
   34.3590    9.8340   27.0650 C   0  0  0  0  0  0  0  0  0  0  0  0
   33.7960   13.8840   22.2130 C   0  0  0  0  0  0  0  0  0  0  0  0
   34.3970   15.7790   20.5530 C   0  0  0  0  0  0  0  0  0  0  0  0
   31.2410    8.5840   26.7290 N   0  0  0  0  0  0  0  0  0  0  0  0
   29.3240   17.4460   21.2610 O   0  0  0  0  0  0  0  0  0  0  0  0
   32.3680   14.9040   24.8750 O   0  0  0  0  0  0  0  0  0  0  0  0
   31.7760   10.9270   23.9670 O   0  0  0  0  0  0  0  0  0  0  0  0
   30.7880   19.4970   21.2000 O   0  0  0  0  0  0  0  0  0  0  0  0
   26.7410    7.9280   22.5420 C   0  0  0  0  0  0  0  0  0  0  0  0
   28.0560    8.0320   22.1330 C   0  0  0  0  0  0  0  0  0  0  0  0
   27.4700   11.3100   25.9170 C   0  0  0  0  0  0  0  0  0  0  0  0
   26.2710    8.7130   23.5780 C   0  0  0  0  0  0  0  0  0  0  0  0
   28.9030    8.9280   22.7640 C   0  0  0  0  0  0  0  0  0  0  0  0
   26.6450   10.3930   25.2630 C   0  0  0  0  0  0  0  0  0  0  0  0
   29.2620   10.6260   24.4410 C   0  0  0  0  0  0  0  0  0  0  0  0
   30.2650   16.6520   23.3540 C   0  0  0  0  0  0  0  0  0  0  0  0
   29.7370   12.3860   26.1930 C   0  0  0  0  0  0  0  0  0  0  0  0
   32.4980   16.1730   22.2040 C   0  0  0  0  0  0  0  0  0  0  0  0
   30.8990   18.6630   22.2990 N   0  0  0  0  0  0  0  0  0  0  0  0
   30.6950   13.5730   24.2240 N   0  0  0  0  0  0  0  0  0  0  0  0
   30.1680   17.5830   22.1800 C   0  0  0  0  0  0  0  0  0  0  0  0
   31.4640   14.6460   24.0820 C   0  0  0  0  0  0  0  0  0  0  0  0
   31.8060   11.4680   25.0810 C   0  0  0  0  0  0  0  0  0  0  0  0
   28.7870   11.4290   25.4780 C   0  0  0  0  0  0  0  0  0  0  0  0
   27.1180    9.6080   24.2120 C   0  0  0  0  0  0  0  0  0  0  0  0
   28.4320    9.7210   23.8010 C   0  0  0  0  0  0  0  0  0  0  0  0
   33.2850   15.1100   21.3940 C   0  0  0  0  0  0  0  0  0  0  0  0
   31.2280   15.5600   22.8900 C   0  0  0  0  0  0  0  0  0  0  0  0
   31.0130   12.7550   25.4060 C   0  0  0  0  0  0  0  0  0  0  0  0
   32.3579   11.4286   27.0506 H   0  0  0  0  0  0  0  0  0  0  0  0
   33.6139    9.6743   24.9873 H   0  0  0  0  0  0  0  0  0  0  0  0
   33.9181    9.7923   28.0719 H   0  0  0  0  0  0  0  0  0  0  0  0
   35.0631    8.9984   26.9381 H   0  0  0  0  0  0  0  0  0  0  0  0
   34.8940   10.7867   26.9381 H   0  0  0  0  0  0  0  0  0  0  0  0
   33.7067   14.0983   23.2882 H   0  0  0  0  0  0  0  0  0  0  0  0
   33.1918   12.9992   21.9641 H   0  0  0  0  0  0  0  0  0  0  0  0
   34.8498   13.6902   21.9641 H   0  0  0  0  0  0  0  0  0  0  0  0
   35.1440   16.2284   21.2239 H   0  0  0  0  0  0  0  0  0  0  0  0
   34.8820   15.0226   19.9184 H   0  0  0  0  0  0  0  0  0  0  0  0
   33.9560   16.5619   19.9184 H   0  0  0  0  0  0  0  0  0  0  0  0
   31.0285    8.6106   27.7365 H   0  0  0  0  0  0  0  0  0  0  0  0
   30.4815    8.6790   26.0398 H   0  0  0  0  0  0  0  0  0  0  0  0
   30.6638   20.4305   21.5054 H   0  0  0  0  0  0  0  0  0  0  0  0
   26.0656    7.2183   22.0418 H   0  0  0  0  0  0  0  0  0  0  0  0
   28.4292    7.4057   21.3093 H   0  0  0  0  0  0  0  0  0  0  0  0
   27.0925   11.9188   26.7518 H   0  0  0  0  0  0  0  0  0  0  0  0
   25.2226    8.6271   23.8998 H   0  0  0  0  0  0  0  0  0  0  0  0
   29.9516    9.0113   22.4424 H   0  0  0  0  0  0  0  0  0  0  0  0
   25.5982   10.2874   25.5840 H   0  0  0  0  0  0  0  0  0  0  0  0
   30.3125   10.7131   24.1267 H   0  0  0  0  0  0  0  0  0  0  0  0
   30.6647   17.1757   24.2349 H   0  0  0  0  0  0  0  0  0  0  0  0
   29.2861   16.2499   23.6541 H   0  0  0  0  0  0  0  0  0  0  0  0
   29.1878   13.3150   26.4059 H   0  0  0  0  0  0  0  0  0  0  0  0
   30.0772   11.8599   27.0972 H   0  0  0  0  0  0  0  0  0  0  0  0
   33.1568   16.5882   22.9809 H   0  0  0  0  0  0  0  0  0  0  0  0
   32.1655   16.9565   21.5072 H   0  0  0  0  0  0  0  0  0  0  0  0
   31.4895   18.8685   23.1175 H   0  0  0  0  0  0  0  0  0  0  0  0
   29.9411   13.3336   23.5642 H   0  0  0  0  0  0  0  0  0  0  0  0
   32.5519   14.6581   20.7096 H   0  0  0  0  0  0  0  0  0  0  0  0
   30.8134   14.9355   22.0850 H   0  0  0  0  0  0  0  0  0  0  0  0
   31.6644   13.3893   26.0251 H   0  0  0  0  0  0  0  0  0  0  0  0
  1  3  2  0
  1  4  1  0
  1  8  1  0
  2  4  1  0
  2 27  1  0
  4  5  1  0
  6 31  1  0
  7 31  1  0
  9 25  2  0
 10 26  2  0
 11 27  2  0
 12 23  1  0
 13 14  2  0
 13 16  1  0
 14 17  1  0
 15 18  2  0
 15 28  1  0
 16 29  2  0
 17 30  2  0
 18 29  1  0
 19 28  2  0
 19 30  1  0
 20 25  1  0
 20 32  1  0
 21 28  1  0
 21 33  1  0
 22 31  1  0
 22 32  1  0
 23 25  1  0
 24 26  1  0
 24 33  1  0
 26 32  1  0
 27 33  1  0
 29 30  1  0
  2 34  1  0
  4 35  1  0
  5 36  1  0
  5 37  1  0
  5 38  1  0
  6 39  1  0
  6 40  1  0
  6 41  1  0
  7 42  1  0
  7 43  1  0
  7 44  1  0
  8 45  1  0
  8 46  1  0
 12 47  1  0
 13 48  1  0
 14 49  1  0
 15 50  1  0
 16 51  1  0
 17 52  1  0
 18 53  1  0
 19 54  1  0
 20 55  1  0
 20 56  1  0
 21 57  1  0
 21 58  1  0
 22 59  1  0
 22 60  1  0
 23 61  1  0
 24 62  1  0
 31 63  1  0
 32 64  1  0
 33 65  1  0
A    1
C
A    2
N
A    3
O
A    4
CA
A    5
CB
A    6
CAA
A    7
CAB
A    8
NAD
A    9
OAF
A   10
OAG
A   11
OAH
A   12
OAI
A   13
CAJ
A   14
CAK
A   15
CAL
A   16
CAM
A   17
CAN
A   18
CAO
A   19
CAP
A   20
CAQ
A   21
CAR
A   22
CAS
A   23
NAT
A   24
NAV
A   25
CAX
A   26
CAY
A   27
CAZ
A   28
CBA
A   29
CBB
A   30
CBC
A   31
CBD
A   32
CBF
A   33
CBG
M  END
