3KE1_829_A_164
     RDKit          3D

 42 44  0  0  0  0  0  0  0  0999 V2000
   10.1390  -27.0120  -24.4960 N   0  0  0  0  0  0  0  0  0  0  0  0
   10.5030  -26.7020  -25.7760 C   0  0  0  0  0  0  0  0  0  0  0  0
    9.7320  -26.8650  -26.7460 O   0  0  0  0  0  0  0  0  0  0  0  0
   11.7360  -26.2120  -26.0680 N   0  0  0  0  0  0  0  0  0  0  0  0
   12.6400  -25.9670  -25.0900 C   0  0  0  0  0  0  0  0  0  0  0  0
   13.8590  -25.4630  -25.4000 N   0  0  0  0  0  0  0  0  0  0  0  0
   12.3050  -26.2560  -23.7760 C   0  0  0  0  0  0  0  0  0  0  0  0
   11.0350  -26.7700  -23.5110 C   0  0  0  0  0  0  0  0  0  0  0  0
    9.6920  -26.3950  -19.2220 C   0  0  0  0  0  0  0  0  0  0  0  0
    8.2700  -27.4230  -17.3210 C   0  0  0  0  0  0  0  0  0  0  0  0
    8.1160  -27.7200  -15.9530 C   0  0  0  0  0  0  0  0  0  0  0  0
    8.7850  -27.5340  -24.1420 C   0  0  0  0  0  0  0  0  0  0  0  0
    9.0590  -27.3830  -15.0520 N   0  0  0  0  0  0  0  0  0  0  0  0
   10.1870  -26.7350  -15.4310 C   0  0  0  0  0  0  0  0  0  0  0  0
   10.3960  -26.4110  -16.7790 C   0  0  0  0  0  0  0  0  0  0  0  0
    9.4270  -26.7480  -17.7570 C   0  0  0  0  0  0  0  0  0  0  0  0
   10.8260  -26.5610  -19.6360 O   0  0  0  0  0  0  0  0  0  0  0  0
    8.7670  -28.8590  -23.3630 C   0  0  0  0  0  0  0  0  0  0  0  0
    7.5870  -29.5910  -23.7240 O   0  0  0  0  0  0  0  0  0  0  0  0
    8.6620  -28.4240  -21.9070 C   0  0  0  0  0  0  0  0  0  0  0  0
    8.0960  -29.3840  -21.0110 O   0  0  0  0  0  0  0  0  0  0  0  0
    7.7550  -27.2230  -22.0240 C   0  0  0  0  0  0  0  0  0  0  0  0
    8.1870  -26.5670  -23.2460 O   0  0  0  0  0  0  0  0  0  0  0  0
    7.6070  -26.4410  -20.6930 C   0  0  0  0  0  0  0  0  0  0  0  0
    8.7830  -25.8530  -20.0620 N   0  0  0  0  0  0  0  0  0  0  0  0
   14.5109  -25.1935  -24.6495 H   0  0  0  0  0  0  0  0  0  0  0  0
   14.1337  -25.3494  -26.3862 H   0  0  0  0  0  0  0  0  0  0  0  0
   13.0237  -26.0841  -22.9612 H   0  0  0  0  0  0  0  0  0  0  0  0
   10.7535  -26.9851  -22.4696 H   0  0  0  0  0  0  0  0  0  0  0  0
    7.4934  -27.7156  -18.0430 H   0  0  0  0  0  0  0  0  0  0  0  0
    7.2069  -28.2378  -15.6132 H   0  0  0  0  0  0  0  0  0  0  0  0
    8.2670  -27.7012  -25.0979 H   0  0  0  0  0  0  0  0  0  0  0  0
   10.9414  -26.4622  -14.6784 H   0  0  0  0  0  0  0  0  0  0  0  0
   11.3180  -25.8919  -17.0796 H   0  0  0  0  0  0  0  0  0  0  0  0
    9.6434  -29.4940  -23.5597 H   0  0  0  0  0  0  0  0  0  0  0  0
    7.1160  -29.8832  -22.9037 H   0  0  0  0  0  0  0  0  0  0  0  0
    9.6569  -28.2510  -21.4708 H   0  0  0  0  0  0  0  0  0  0  0  0
    8.2624  -29.1017  -20.0768 H   0  0  0  0  0  0  0  0  0  0  0  0
    6.6834  -27.4369  -22.1502 H   0  0  0  0  0  0  0  0  0  0  0  0
    6.9032  -25.6175  -20.8842 H   0  0  0  0  0  0  0  0  0  0  0  0
    7.2939  -27.2148  -19.9766 H   0  0  0  0  0  0  0  0  0  0  0  0
    8.9474  -24.8632  -20.2946 H   0  0  0  0  0  0  0  0  0  0  0  0
  8  1  1  0
  1 12  1  0
  1  2  1  0
  4  2  1  0
  2  3  2  0
  5  4  2  0
  7  5  1  0
  6  5  1  0
  7  8  2  0
 17  9  2  0
 16  9  1  0
  9 25  1  0
 11 10  2  0
 16 10  1  0
 13 11  1  0
 18 12  1  0
 12 23  1  0
 14 13  2  0
 14 15  1  0
 15 16  2  0
 20 18  1  0
 18 19  1  0
 21 20  1  0
 20 22  1  0
 24 22  1  0
 22 23  1  0
 25 24  1  0
  6 26  1  0
  6 27  1  0
  7 28  1  0
  8 29  1  0
 10 30  1  0
 11 31  1  0
 12 32  1  0
 14 33  1  0
 15 34  1  0
 18 35  1  0
 19 36  1  0
 20 37  1  0
 21 38  1  0
 22 39  1  0
 24 40  1  0
 24 41  1  0
 25 42  1  0
A    1
N1
A    2
C2
A    3
O2
A    4
N3
A    5
C4
A    6
N4
A    7
C5
A    8
C6
A    9
C07
A   10
C08
A   11
C09
A   12
C1'
A   13
N10
A   14
C11
A   15
C12
A   16
C13
A   17
O15
A   18
C2'
A   19
O2'
A   20
C3'
A   21
O3'
A   22
C4'
A   23
O4'
A   24
C5'
A   25
N5'
M  END
