3KEC_3KE_A_271
     RDKit          3D

 54 57  0  0  0  0  0  0  0  0999 V2000
   82.0980    9.6500   35.7790 C   0  0  0  0  0  0  0  0  0  0  0  0
   82.7220   10.8580   36.0090 C   0  0  0  0  0  0  0  0  0  0  0  0
   86.2950    9.9820   35.6580 C   0  0  0  0  0  0  0  0  0  0  0  0
   86.9950    8.9940   35.0160 N   0  0  0  0  0  0  0  0  0  0  0  0
   88.4260    9.1780   34.9210 C   0  0  0  0  0  0  0  0  0  0  0  0
   89.7000   10.9030   31.2400 C   0  0  0  0  0  0  0  0  0  0  0  0
   90.1860    9.6850   31.6570 C   0  0  0  0  0  0  0  0  0  0  0  0
   89.7650    9.1390   32.8490 C   0  0  0  0  0  0  0  0  0  0  0  0
   88.8550    9.8030   33.6370 C   0  0  0  0  0  0  0  0  0  0  0  0
   88.3670   11.0240   33.2210 C   0  0  0  0  0  0  0  0  0  0  0  0
   88.7870   11.5710   32.0270 C   0  0  0  0  0  0  0  0  0  0  0  0
   82.8550    8.5290   35.5030 C   0  0  0  0  0  0  0  0  0  0  0  0
   84.0950   10.9380   35.9650 C   0  0  0  0  0  0  0  0  0  0  0  0
   84.8380    9.8150   35.6910 C   0  0  0  0  0  0  0  0  0  0  0  0
   84.2340    8.6000   35.4580 C   0  0  0  0  0  0  0  0  0  0  0  0
   86.7990   10.9750   36.1690 O   0  0  0  0  0  0  0  0  0  0  0  0
   90.1690   11.4700   29.9610 C   0  0  0  0  0  0  0  0  0  0  0  0
   90.1810   12.7300   29.8510 O   0  0  0  0  0  0  0  0  0  0  0  0
   90.5280   10.6420   29.0800 O   0  0  0  0  0  0  0  0  0  0  0  0
   80.6850   12.2450   36.0680 N   0  0  0  0  0  0  0  0  0  0  0  0
   80.5640   13.4890   36.5520 N   0  0  0  0  0  0  0  0  0  0  0  0
   81.6710   14.0570   37.0550 N   0  0  0  0  0  0  0  0  0  0  0  0
   82.6070   13.1310   36.9020 N   0  0  0  0  0  0  0  0  0  0  0  0
   81.9900   12.0560   36.3110 C   0  0  0  0  0  0  0  0  0  0  0  0
   79.3030   14.1920   36.5280 C   0  0  0  0  0  0  0  0  0  0  0  0
   79.3940   17.4220   33.7590 C   0  0  0  0  0  0  0  0  0  0  0  0
   78.5060   17.4310   34.8210 C   0  0  0  0  0  0  0  0  0  0  0  0
   78.4990   16.3730   35.7050 C   0  0  0  0  0  0  0  0  0  0  0  0
   79.3630   15.3110   35.5430 C   0  0  0  0  0  0  0  0  0  0  0  0
   80.2510   15.3110   34.4800 C   0  0  0  0  0  0  0  0  0  0  0  0
   80.2670   16.3680   33.5890 C   0  0  0  0  0  0  0  0  0  0  0  0
   79.4330   18.4670   32.8370 O   0  0  0  0  0  0  0  0  0  0  0  0
   78.2980   19.3070   33.0240 C   0  0  0  0  0  0  0  0  0  0  0  0
   81.0008    9.5798   35.8153 H   0  0  0  0  0  0  0  0  0  0  0  0
   86.5270    8.1652   34.6224 H   0  0  0  0  0  0  0  0  0  0  0  0
   88.7510    9.8241   35.7498 H   0  0  0  0  0  0  0  0  0  0  0  0
   88.8872    8.1805   34.9686 H   0  0  0  0  0  0  0  0  0  0  0  0
   90.9147    9.1447   31.0348 H   0  0  0  0  0  0  0  0  0  0  0  0
   90.1596    8.1647   33.1730 H   0  0  0  0  0  0  0  0  0  0  0  0
   87.6393   11.5640   33.8446 H   0  0  0  0  0  0  0  0  0  0  0  0
   88.3917   12.5445   31.7013 H   0  0  0  0  0  0  0  0  0  0  0  0
   82.3541    7.5676   35.3166 H   0  0  0  0  0  0  0  0  0  0  0  0
   84.5970   11.8994   36.1489 H   0  0  0  0  0  0  0  0  0  0  0  0
   84.8361    7.7054   35.2408 H   0  0  0  0  0  0  0  0  0  0  0  0
   90.1864   13.2977   30.6621 H   0  0  0  0  0  0  0  0  0  0  0  0
   78.5024   13.4949   36.2395 H   0  0  0  0  0  0  0  0  0  0  0  0
   79.0979   14.6012   37.5282 H   0  0  0  0  0  0  0  0  0  0  0  0
   77.8128   18.2740   34.9582 H   0  0  0  0  0  0  0  0  0  0  0  0
   77.7951   16.3763   36.5503 H   0  0  0  0  0  0  0  0  0  0  0  0
   80.9449   14.4683   34.3444 H   0  0  0  0  0  0  0  0  0  0  0  0
   80.9743   16.3683   32.7466 H   0  0  0  0  0  0  0  0  0  0  0  0
   78.1153   19.4422   34.1003 H   0  0  0  0  0  0  0  0  0  0  0  0
   78.4854   20.2857   32.5581 H   0  0  0  0  0  0  0  0  0  0  0  0
   77.4168   18.8418   32.5581 H   0  0  0  0  0  0  0  0  0  0  0  0
 12  1  2  0
  1  2  1  0
 13  2  2  0
  2 24  1  0
  4  3  1  0
  3 14  1  0
  3 16  2  0
  5  4  1  0
  9  5  1  0
 17  6  1  0
  6  7  2  0
  6 11  1  0
  7  8  1  0
  8  9  2  0
 10  9  1  0
 11 10  2  0
 15 12  1  0
 14 13  1  0
 15 14  2  0
 19 17  2  0
 18 17  1  0
 20 24  2  0
 20 21  1  0
 25 21  1  0
 21 22  1  0
 23 22  2  0
 24 23  1  0
 29 25  1  0
 32 26  1  0
 31 26  2  0
 26 27  1  0
 27 28  2  0
 29 28  1  0
 30 29  2  0
 31 30  1  0
 32 33  1  0
  1 34  1  0
  4 35  1  0
  5 36  1  0
  5 37  1  0
  7 38  1  0
  8 39  1  0
 10 40  1  0
 11 41  1  0
 12 42  1  0
 13 43  1  0
 15 44  1  0
 18 45  1  0
 25 46  1  0
 25 47  1  0
 27 48  1  0
 28 49  1  0
 30 50  1  0
 31 51  1  0
 33 52  1  0
 33 53  1  0
 33 54  1  0
A    1
C3
A    2
C22
A    3
C7
A    4
N2
A    5
C11
A    6
C9
A    7
C12
A    8
C14
A    9
C20
A   10
C16
A   11
C18
A   12
C2
A   13
C23
A   14
C8
A   15
C6
A   16
O3
A   17
C24
A   18
O4
A   19
O5
A   20
N1
A   21
N5
A   22
N3
A   23
N4
A   24
C5
A   25
C1
A   26
C21
A   27
C15
A   28
C10
A   29
C4
A   30
C19
A   31
C17
A   32
O1
A   33
C13
M  END
