3KF4_B90_A_1
     RDKit          3D

 54 58  0  0  0  0  0  0  0  0999 V2000
   34.2750   -7.8030  -17.4230 N   0  0  0  0  0  0  0  0  0  0  0  0
   34.6230   -8.2210  -18.6310 C   0  0  0  0  0  0  0  0  0  0  0  0
   35.0800   -9.5950  -18.4450 C   0  0  0  0  0  0  0  0  0  0  0  0
   34.9610   -9.9030  -17.0400 C   0  0  0  0  0  0  0  0  0  0  0  0
   34.4640   -8.7540  -16.5000 N   0  0  0  0  0  0  0  0  0  0  0  0
   35.5730  -10.5790  -19.3290 C   0  0  0  0  0  0  0  0  0  0  0  0
   35.9430  -11.8760  -18.8160 C   0  0  0  0  0  0  0  0  0  0  0  0
   35.8120  -12.1370  -17.4220 C   0  0  0  0  0  0  0  0  0  0  0  0
   35.3190  -11.1430  -16.5450 C   0  0  0  0  0  0  0  0  0  0  0  0
   36.4690  -12.9690  -19.7130 C   0  0  0  0  0  0  0  0  0  0  0  0
   35.7100  -10.2770  -20.7860 C   0  0  0  0  0  0  0  0  0  0  0  0
   34.6530  -10.0660  -21.5910 C   0  0  0  0  0  0  0  0  0  0  0  0
   34.7920   -9.9020  -23.0510 N   0  0  0  0  0  0  0  0  0  0  0  0
   34.0260  -10.5100  -23.9910 C   0  0  0  0  0  0  0  0  0  0  0  0
   34.3870  -10.1680  -25.2330 N   0  0  0  0  0  0  0  0  0  0  0  0
   35.4560   -9.2820  -25.0910 C   0  0  0  0  0  0  0  0  0  0  0  0
   35.7130   -9.1000  -23.7070 C   0  0  0  0  0  0  0  0  0  0  0  0
   36.2650   -8.5690  -25.9620 C   0  0  0  0  0  0  0  0  0  0  0  0
   37.2640   -7.7440  -25.4940 N   0  0  0  0  0  0  0  0  0  0  0  0
   37.4390   -7.6350  -24.1440 C   0  0  0  0  0  0  0  0  0  0  0  0
   36.7000   -8.2890  -23.2350 N   0  0  0  0  0  0  0  0  0  0  0  0
   36.0390   -8.7250  -27.2980 N   0  0  0  0  0  0  0  0  0  0  0  0
   36.7240   -8.1820  -28.3700 C   0  0  0  0  0  0  0  0  0  0  0  0
   36.1840   -8.4100  -29.6670 C   0  0  0  0  0  0  0  0  0  0  0  0
   36.8140   -7.8760  -30.8100 C   0  0  0  0  0  0  0  0  0  0  0  0
   37.9860   -7.1120  -30.6780 C   0  0  0  0  0  0  0  0  0  0  0  0
   38.5470   -6.8800  -29.3980 C   0  0  0  0  0  0  0  0  0  0  0  0
   37.9220   -7.4110  -28.2470 C   0  0  0  0  0  0  0  0  0  0  0  0
   38.7440   -6.4260  -32.1840 P   0  0  0  0  0  0  0  0  0  0  0  0
   40.4190   -5.7360  -31.7720 C   0  0  0  0  0  0  0  0  0  0  0  0
   37.8000   -4.9630  -32.8030 C   0  0  0  0  0  0  0  0  0  0  0  0
   38.8470   -7.4690  -33.2170 O   0  0  0  0  0  0  0  0  0  0  0  0
   34.5774   -7.6541  -19.5726 H   0  0  0  0  0  0  0  0  0  0  0  0
   34.2579   -8.6319  -15.4982 H   0  0  0  0  0  0  0  0  0  0  0  0
   36.0972  -13.1218  -17.0234 H   0  0  0  0  0  0  0  0  0  0  0  0
   35.2206  -11.3564  -15.4704 H   0  0  0  0  0  0  0  0  0  0  0  0
   36.8642  -13.7903  -19.0972 H   0  0  0  0  0  0  0  0  0  0  0  0
   35.6538  -13.3463  -20.3479 H   0  0  0  0  0  0  0  0  0  0  0  0
   37.2724  -12.5674  -20.3479 H   0  0  0  0  0  0  0  0  0  0  0  0
   36.7197  -10.2249  -21.2195 H   0  0  0  0  0  0  0  0  0  0  0  0
   33.6489  -10.0138  -21.1449 H   0  0  0  0  0  0  0  0  0  0  0  0
   33.2040  -11.2033  -23.7592 H   0  0  0  0  0  0  0  0  0  0  0  0
   38.2354   -6.9696  -23.7792 H   0  0  0  0  0  0  0  0  0  0  0  0
   35.2453   -9.3338  -27.5436 H   0  0  0  0  0  0  0  0  0  0  0  0
   35.2674   -9.0078  -29.7787 H   0  0  0  0  0  0  0  0  0  0  0  0
   36.3870   -8.0579  -31.8073 H   0  0  0  0  0  0  0  0  0  0  0  0
   39.4683   -6.2870  -29.3001 H   0  0  0  0  0  0  0  0  0  0  0  0
   38.3584   -7.2307  -27.2535 H   0  0  0  0  0  0  0  0  0  0  0  0
   40.5369   -5.6874  -30.6794 H   0  0  0  0  0  0  0  0  0  0  0  0
   41.1980   -6.3865  -32.1963 H   0  0  0  0  0  0  0  0  0  0  0  0
   40.5138   -4.7256  -32.1963 H   0  0  0  0  0  0  0  0  0  0  0  0
   37.4243   -4.3808  -31.9486 H   0  0  0  0  0  0  0  0  0  0  0  0
   38.4615   -4.3317  -33.4144 H   0  0  0  0  0  0  0  0  0  0  0  0
   36.9522   -5.3056  -33.4144 H   0  0  0  0  0  0  0  0  0  0  0  0
  1  2  2  0
  1  5  1  0
  2  3  1  0
  3  4  2  0
  3  6  1  0
  4  5  1  0
  4  9  1  0
  6  7  2  0
  6 11  1  0
  7  8  1  0
  7 10  1  0
  8  9  2  0
 11 12  2  0
 12 13  1  0
 13 14  1  0
 13 17  1  0
 14 15  2  0
 15 16  1  0
 16 17  2  0
 16 18  1  0
 17 21  1  0
 18 19  2  0
 18 22  1  0
 19 20  1  0
 20 21  2  0
 22 23  1  0
 23 24  2  0
 23 28  1  0
 24 25  1  0
 25 26  2  0
 26 27  1  0
 26 29  1  0
 27 28  2  0
 29 30  1  0
 29 31  1  0
 29 32  2  0
  2 33  1  0
  5 34  1  0
  8 35  1  0
  9 36  1  0
 10 37  1  0
 10 38  1  0
 10 39  1  0
 11 40  1  0
 12 41  1  0
 14 42  1  0
 20 43  1  0
 22 44  1  0
 24 45  1  0
 25 46  1  0
 27 47  1  0
 28 48  1  0
 30 49  1  0
 30 50  1  0
 30 51  1  0
 31 52  1  0
 31 53  1  0
 31 54  1  0
A    1
N1
A    2
C2
A    3
C3
A    4
C4
A    5
N5
A    6
C6
A    7
C7
A    8
C8
A    9
C9
A   10
C10
A   11
C14
A   12
C15
A   13
N16
A   14
C17
A   15
N18
A   16
C19
A   17
C20
A   18
C21
A   19
N22
A   20
C23
A   21
N24
A   22
N25
A   23
C26
A   24
C27
A   25
C28
A   26
C29
A   27
C30
A   28
C31
A   29
P36
A   30
C37
A   31
C41
A   32
O45
M  END
