3KFJ_YEN_A_1
     RDKit          3D

 68 68  0  0  0  0  0  0  0  0999 V2000
    8.3790  -11.0000    2.5860 C   0  0  0  0  0  0  0  0  0  0  0  0
    8.9550  -11.2940    3.8160 C   0  0  0  0  0  0  0  0  0  0  0  0
   10.2710  -10.9360    4.0870 C   0  0  0  0  0  0  0  0  0  0  0  0
   11.0150  -10.2880    3.1050 C   0  0  0  0  0  0  0  0  0  0  0  0
   10.4390   -9.9900    1.8730 C   0  0  0  0  0  0  0  0  0  0  0  0
    9.1180  -10.3380    1.6120 C   0  0  0  0  0  0  0  0  0  0  0  0
   10.7490  -11.1920    5.3360 O   0  0  0  0  0  0  0  0  0  0  0  0
   12.2560  -10.7040    5.6270 P   0  0  0  0  0  0  0  0  0  0  0  0
   12.3490   -9.1370    5.2710 O   0  0  0  0  0  0  0  0  0  0  0  0
   12.4060  -10.7900    7.2280 O   0  0  0  0  0  0  0  0  0  0  0  0
   13.2890  -11.5130    4.9430 O   0  0  0  0  0  0  0  0  0  0  0  0
    8.4240   -9.9030    0.3180 C   0  0  0  0  0  0  0  0  0  0  0  0
    8.1320   -8.4020    0.3740 C   0  0  0  0  0  0  0  0  0  0  0  0
    7.2970   -7.9580   -0.8310 C   0  0  0  0  0  0  0  0  0  0  0  0
    6.1160   -8.2830   -0.9410 O   0  0  0  0  0  0  0  0  0  0  0  0
    7.3650   -8.0810    1.6590 C   0  0  0  0  0  0  0  0  0  0  0  0
    7.7030   -6.6700    2.1450 C   0  0  0  0  0  0  0  0  0  0  0  0
    6.7060   -5.7900    2.0980 N   0  0  0  0  0  0  0  0  0  0  0  0
    6.9990   -4.4340    2.5850 C   0  0  0  0  0  0  0  0  0  0  0  0
    8.8350   -6.4030    2.5440 O   0  0  0  0  0  0  0  0  0  0  0  0
    7.9410   -7.2070   -1.7200 N   0  0  0  0  0  0  0  0  0  0  0  0
    7.2910   -6.6670   -2.9230 C   0  0  0  0  0  0  0  0  0  0  0  0
    6.7350   -7.7770   -3.8200 C   0  0  0  0  0  0  0  0  0  0  0  0
    5.7480   -7.5750   -4.5250 O   0  0  0  0  0  0  0  0  0  0  0  0
    8.2920   -5.8260   -3.7180 C   0  0  0  0  0  0  0  0  0  0  0  0
    8.8490   -4.6650   -2.8910 C   0  0  0  0  0  0  0  0  0  0  0  0
    7.7660   -3.6410   -2.5440 C   0  0  0  0  0  0  0  0  0  0  0  0
    6.9650   -3.3270   -3.4500 O   0  0  0  0  0  0  0  0  0  0  0  0
    7.7710   -3.1860   -1.3790 O   0  0  0  0  0  0  0  0  0  0  0  0
    7.3850   -8.9380   -3.7880 N   0  0  0  0  0  0  0  0  0  0  0  0
    6.9420  -10.0710   -4.6130 C   0  0  0  0  0  0  0  0  0  0  0  0
    6.2220  -11.1090   -3.7500 C   0  0  0  0  0  0  0  0  0  0  0  0
    6.1670  -12.2890   -4.0930 O   0  0  0  0  0  0  0  0  0  0  0  0
    8.1400  -10.7100   -5.3200 C   0  0  0  0  0  0  0  0  0  0  0  0
    9.1660  -11.2480   -4.3210 C   0  0  0  0  0  0  0  0  0  0  0  0
    9.2470  -10.7850   -3.1850 O   0  0  0  0  0  0  0  0  0  0  0  0
    9.9350  -12.2320   -4.7790 N   0  0  0  0  0  0  0  0  0  0  0  0
    5.6690  -10.6320   -2.6390 N   0  0  0  0  0  0  0  0  0  0  0  0
    7.3379  -11.2912    2.3829 H   0  0  0  0  0  0  0  0  0  0  0  0
    8.3637  -11.8153    4.5832 H   0  0  0  0  0  0  0  0  0  0  0  0
   12.0609  -10.0106    3.3029 H   0  0  0  0  0  0  0  0  0  0  0  0
   11.0320   -9.4765    1.1018 H   0  0  0  0  0  0  0  0  0  0  0  0
   12.3803   -8.6097    6.1083 H   0  0  0  0  0  0  0  0  0  0  0  0
   13.8591  -11.9595    5.6181 H   0  0  0  0  0  0  0  0  0  0  0  0
    9.0794  -10.1171   -0.5391 H   0  0  0  0  0  0  0  0  0  0  0  0
    7.4797  -10.4557    0.2054 H   0  0  0  0  0  0  0  0  0  0  0  0
    9.0905   -7.8626    0.3557 H   0  0  0  0  0  0  0  0  0  0  0  0
    6.2848   -8.1473    1.4622 H   0  0  0  0  0  0  0  0  0  0  0  0
    7.6533   -8.8041    2.4361 H   0  0  0  0  0  0  0  0  0  0  0  0
    5.7754   -6.0460    1.7384 H   0  0  0  0  0  0  0  0  0  0  0  0
    6.9995   -4.4316    3.6850 H   0  0  0  0  0  0  0  0  0  0  0  0
    7.9862   -4.1176    2.2172 H   0  0  0  0  0  0  0  0  0  0  0  0
    6.2305   -3.7383    2.2172 H   0  0  0  0  0  0  0  0  0  0  0  0
    8.9360   -6.9950   -1.5590 H   0  0  0  0  0  0  0  0  0  0  0  0
    6.4474   -6.0430   -2.5929 H   0  0  0  0  0  0  0  0  0  0  0  0
    9.1262   -6.4702   -4.0328 H   0  0  0  0  0  0  0  0  0  0  0  0
    7.7664   -5.4031   -4.5868 H   0  0  0  0  0  0  0  0  0  0  0  0
    9.2731   -5.0643   -1.9579 H   0  0  0  0  0  0  0  0  0  0  0  0
    9.6188   -4.1574   -3.4908 H   0  0  0  0  0  0  0  0  0  0  0  0
    7.7642   -3.8045   -0.6060 H   0  0  0  0  0  0  0  0  0  0  0  0
    8.2081   -9.0438   -3.1780 H   0  0  0  0  0  0  0  0  0  0  0  0
    6.2394   -9.6986   -5.3730 H   0  0  0  0  0  0  0  0  0  0  0  0
    7.7827  -11.5408   -5.9462 H   0  0  0  0  0  0  0  0  0  0  0  0
    8.6293   -9.9374   -5.9313 H   0  0  0  0  0  0  0  0  0  0  0  0
   10.4219  -12.8550   -4.1189 H   0  0  0  0  0  0  0  0  0  0  0  0
   10.0436  -12.3710   -5.7938 H   0  0  0  0  0  0  0  0  0  0  0  0
    6.0192  -10.9341   -1.7187 H   0  0  0  0  0  0  0  0  0  0  0  0
    4.8904   -9.9604   -2.6986 H   0  0  0  0  0  0  0  0  0  0  0  0
  1  2  2  0
  1  6  1  0
  2  3  1  0
  3  4  2  0
  3  7  1  0
  4  5  1  0
  5  6  2  0
  6 12  1  0
  7  8  1  0
  8  9  1  0
  8 10  2  0
  8 11  1  0
 12 13  1  0
 13 14  1  0
 13 16  1  0
 14 15  2  0
 14 21  1  0
 16 17  1  0
 17 18  1  0
 17 20  2  0
 18 19  1  0
 21 22  1  0
 22 23  1  0
 22 25  1  0
 23 24  2  0
 23 30  1  0
 25 26  1  0
 26 27  1  0
 27 28  2  0
 27 29  1  0
 30 31  1  0
 31 32  1  0
 31 34  1  0
 32 33  2  0
 32 38  1  0
 34 35  1  0
 35 36  2  0
 35 37  1  0
  1 39  1  0
  2 40  1  0
  4 41  1  0
  5 42  1  0
  9 43  1  0
 11 44  1  0
 12 45  1  0
 12 46  1  0
 13 47  1  0
 16 48  1  0
 16 49  1  0
 18 50  1  0
 19 51  1  0
 19 52  1  0
 19 53  1  0
 21 54  1  0
 22 55  1  0
 25 56  1  0
 25 57  1  0
 26 58  1  0
 26 59  1  0
 29 60  1  0
 30 61  1  0
 31 62  1  0
 34 63  1  0
 34 64  1  0
 37 65  1  0
 37 66  1  0
 38 67  1  0
 38 68  1  0
A    1
C1
A    2
C2
A    3
C3
A    4
C4
A    5
C5
A    6
C6
A    7
O1
A    8
P1
A    9
O2
A   10
O3
A   11
O4
A   12
C7
A   13
C8
A   14
C9
A   15
O5
A   16
C10
A   17
C11
A   18
N1
A   19
C12
A   20
O7
A   21
N2
A   22
C13
A   23
C14
A   24
O8
A   25
C15
A   26
C16
A   27
C17
A   28
O9
A   29
O10
A   30
N3
A   31
C18
A   32
C19
A   33
O12
A   34
C20
A   35
C21
A   36
O13
A   37
N4
A   38
N5
M  END
