2RD6_78P_A_900
     RDKit          3D

 34 36  0  0  0  0  0  0  0  0999 V2000
   26.5400   65.6230    9.3920 C   0  0  0  0  0  0  0  0  0  0  0  0
   26.9380   66.4290   10.4920 C   0  0  0  0  0  0  0  0  0  0  0  0
   28.2920   66.3560   10.9360 C   0  0  0  0  0  0  0  0  0  0  0  0
   25.5670   64.5520    7.7490 C   0  0  0  0  0  0  0  0  0  0  0  0
   26.0130   67.3690   11.2180 C   0  0  0  0  0  0  0  0  0  0  0  0
   24.4690   64.0880    6.7730 C   0  0  0  0  0  0  0  0  0  0  0  0
   22.3940   63.6700    7.8910 C   0  0  0  0  0  0  0  0  0  0  0  0
   24.2720   62.5770    6.8630 C   0  0  0  0  0  0  0  0  0  0  0  0
   29.2270   65.4930   10.2900 C   0  0  0  0  0  0  0  0  0  0  0  0
   28.8190   64.6970    9.1930 C   0  0  0  0  0  0  0  0  0  0  0  0
   27.4990   64.7530    8.7410 C   0  0  0  0  0  0  0  0  0  0  0  0
   26.8370   64.1060    7.7180 N   0  0  0  0  0  0  0  0  0  0  0  0
   25.3440   65.4470    8.7180 N   0  0  0  0  0  0  0  0  0  0  0  0
   24.7080   67.3040   10.9130 N   0  0  0  0  0  0  0  0  0  0  0  0
   26.3940   68.1870   12.0460 O   0  0  0  0  0  0  0  0  0  0  0  0
   23.1570   64.6780    7.1410 N   0  0  0  0  0  0  0  0  0  0  0  0
   23.2480   62.4100    7.9760 C   0  0  0  0  0  0  0  0  0  0  0  0
   24.8840   64.5500    5.3750 C   0  0  0  0  0  0  0  0  0  0  0  0
   28.6190   66.9723   11.7864 H   0  0  0  0  0  0  0  0  0  0  0  0
   22.1744   64.0426    8.9024 H   0  0  0  0  0  0  0  0  0  0  0  0
   21.4402   63.4554    7.3868 H   0  0  0  0  0  0  0  0  0  0  0  0
   23.8883   62.1746    5.9139 H   0  0  0  0  0  0  0  0  0  0  0  0
   25.2093   62.0370    7.0628 H   0  0  0  0  0  0  0  0  0  0  0  0
   30.2670   65.4463   10.6453 H   0  0  0  0  0  0  0  0  0  0  0  0
   29.5423   64.0337    8.6961 H   0  0  0  0  0  0  0  0  0  0  0  0
   24.4507   65.9166    8.9237 H   0  0  0  0  0  0  0  0  0  0  0  0
   24.0046   67.2690   11.6646 H   0  0  0  0  0  0  0  0  0  0  0  0
   24.4096   67.2891    9.9273 H   0  0  0  0  0  0  0  0  0  0  0  0
   23.3021   65.5126    7.7270 H   0  0  0  0  0  0  0  0  0  0  0  0
   22.6352   61.5116    7.8107 H   0  0  0  0  0  0  0  0  0  0  0  0
   23.7160   62.2841    8.9635 H   0  0  0  0  0  0  0  0  0  0  0  0
   25.6168   65.3658    5.4609 H   0  0  0  0  0  0  0  0  0  0  0  0
   25.3350   63.7080    4.8294 H   0  0  0  0  0  0  0  0  0  0  0  0
   23.9986   64.9084    4.8294 H   0  0  0  0  0  0  0  0  0  0  0  0
 18  6  1  0
  6  8  1  0
  6 16  1  0
  6  4  1  0
  8 17  1  0
 16  7  1  0
 12  4  2  0
 12 11  1  0
  4 13  1  0
  7 17  1  0
 13  1  1  0
 11 10  2  0
 11  1  1  0
 10  9  1  0
  1  2  2  0
  9  3  2  0
  2  3  1  0
  2  5  1  0
 14  5  1  0
  5 15  2  0
  3 19  1  0
  7 20  1  0
  7 21  1  0
  8 22  1  0
  8 23  1  0
  9 24  1  0
 10 25  1  0
 13 26  1  0
 14 27  1  0
 14 28  1  0
 16 29  1  0
 17 30  1  0
 17 31  1  0
 18 32  1  0
 18 33  1  0
 18 34  1  0
A    1
C4
A    2
C5
A    3
C6
A    4
C8
A    5
C10
A    6
C13
A    7
C15
A    8
C17
A    9
C1
A   10
C2
A   11
C3
A   12
N7
A   13
N9
A   14
N11
A   15
O12
A   16
N14
A   17
C16
A   18
C18
M  END
