3KJS_DQ1_A_602
     RDKit          3D

 58 60  0  0  0  0  0  0  0  0999 V2000
   23.8680   34.8440   26.4350 C   0  0  0  0  0  0  0  0  0  0  0  0
   23.5870   33.5720   26.1010 N   0  0  0  0  0  0  0  0  0  0  0  0
   16.8920   41.8690   25.5180 O   0  0  0  0  0  0  0  0  0  0  0  0
   23.1980   35.8850   25.7830 C   0  0  0  0  0  0  0  0  0  0  0  0
   24.7700   35.0850   27.3810 N   0  0  0  0  0  0  0  0  0  0  0  0
   18.2230   42.6200   23.2720 O   0  0  0  0  0  0  0  0  0  0  0  0
   22.7490   38.2410   25.4110 C   0  0  0  0  0  0  0  0  0  0  0  0
   22.4270   32.0130   24.8360 N   0  0  0  0  0  0  0  0  0  0  0  0
   20.8110   40.2980   20.5920 O   0  0  0  0  0  0  0  0  0  0  0  0
   23.0330   39.7120   25.7680 C   0  0  0  0  0  0  0  0  0  0  0  0
   22.2420   40.6600   24.9510 N   0  0  0  0  0  0  0  0  0  0  0  0
   19.4420   39.3610   19.0560 O   0  0  0  0  0  0  0  0  0  0  0  0
   16.0600   40.8550   26.1160 C   0  0  0  0  0  0  0  0  0  0  0  0
   22.0280   34.2680   24.5090 N   0  0  0  0  0  0  0  0  0  0  0  0
   18.9760   42.9330   22.0650 C   0  0  0  0  0  0  0  0  0  0  0  0
   18.4060   42.2360   20.8210 C   0  0  0  0  0  0  0  0  0  0  0  0
   18.4630   40.7050   20.9340 C   0  0  0  0  0  0  0  0  0  0  0  0
   19.6620   40.1090   20.1850 C   0  0  0  0  0  0  0  0  0  0  0  0
   18.8090   37.0140   18.9960 C   0  0  0  0  0  0  0  0  0  0  0  0
   19.9460   38.0100   19.1900 C   0  0  0  0  0  0  0  0  0  0  0  0
   22.6810   33.2830   25.1490 C   0  0  0  0  0  0  0  0  0  0  0  0
   20.9430   40.9320   25.1370 C   0  0  0  0  0  0  0  0  0  0  0  0
   20.2640   41.6240   24.1320 C   0  0  0  0  0  0  0  0  0  0  0  0
   18.9060   41.9390   24.2540 C   0  0  0  0  0  0  0  0  0  0  0  0
   18.2190   41.5480   25.4060 C   0  0  0  0  0  0  0  0  0  0  0  0
   18.8960   40.8540   26.4180 C   0  0  0  0  0  0  0  0  0  0  0  0
   20.2520   40.5440   26.2850 C   0  0  0  0  0  0  0  0  0  0  0  0
   21.8140   37.9010   24.4300 C   0  0  0  0  0  0  0  0  0  0  0  0
   22.2620   35.5570   24.8010 C   0  0  0  0  0  0  0  0  0  0  0  0
   21.5720   36.5630   24.1260 C   0  0  0  0  0  0  0  0  0  0  0  0
   23.4380   37.2300   26.0870 C   0  0  0  0  0  0  0  0  0  0  0  0
   24.5061   35.0145   28.3741 H   0  0  0  0  0  0  0  0  0  0  0  0
   25.7329   35.3423   27.1210 H   0  0  0  0  0  0  0  0  0  0  0  0
   22.2877   31.3167   25.5821 H   0  0  0  0  0  0  0  0  0  0  0  0
   22.3699   31.7276   23.8480 H   0  0  0  0  0  0  0  0  0  0  0  0
   22.7872   39.8708   26.8284 H   0  0  0  0  0  0  0  0  0  0  0  0
   24.0967   39.9044   25.5644 H   0  0  0  0  0  0  0  0  0  0  0  0
   22.7259   41.1465   24.1828 H   0  0  0  0  0  0  0  0  0  0  0  0
   16.1213   40.9297   27.2118 H   0  0  0  0  0  0  0  0  0  0  0  0
   15.0176   41.0005   25.7963 H   0  0  0  0  0  0  0  0  0  0  0  0
   16.4063   39.8611   25.7963 H   0  0  0  0  0  0  0  0  0  0  0  0
   18.9486   44.0208   21.9039 H   0  0  0  0  0  0  0  0  0  0  0  0
   20.0051   42.5721   22.2092 H   0  0  0  0  0  0  0  0  0  0  0  0
   17.3574   42.5426   20.6928 H   0  0  0  0  0  0  0  0  0  0  0  0
   19.0194   42.5331   19.9576 H   0  0  0  0  0  0  0  0  0  0  0  0
   18.5386   40.4315   21.9968 H   0  0  0  0  0  0  0  0  0  0  0  0
   17.5472   40.3001   20.4785 H   0  0  0  0  0  0  0  0  0  0  0  0
   18.4361   36.6874   19.9780 H   0  0  0  0  0  0  0  0  0  0  0  0
   17.9933   37.4934   18.4350 H   0  0  0  0  0  0  0  0  0  0  0  0
   19.1769   36.1423   18.4350 H   0  0  0  0  0  0  0  0  0  0  0  0
   20.7211   37.8322   18.4300 H   0  0  0  0  0  0  0  0  0  0  0  0
   20.3755   37.8802   20.1943 H   0  0  0  0  0  0  0  0  0  0  0  0
   20.8080   41.9279   23.2255 H   0  0  0  0  0  0  0  0  0  0  0  0
   18.3545   40.5503   27.3261 H   0  0  0  0  0  0  0  0  0  0  0  0
   20.7732   39.9955   27.0834 H   0  0  0  0  0  0  0  0  0  0  0  0
   21.2672   38.6921   23.8960 H   0  0  0  0  0  0  0  0  0  0  0  0
   20.8355   36.3000   23.3524 H   0  0  0  0  0  0  0  0  0  0  0  0
   24.1729   37.4929   26.8622 H   0  0  0  0  0  0  0  0  0  0  0  0
  4  1  2  0
  2  1  1  0
  1  5  1  0
 21  2  2  0
 25  3  1  0
  3 13  1  0
 29  4  1  0
  4 31  1  0
 15  6  1  0
  6 24  1  0
 28  7  1  0
  7 10  1  0
  7 31  2  0
  8 21  1  0
 18  9  2  0
 11 10  1  0
 11 22  1  0
 12 20  1  0
 12 18  1  0
 14 29  2  0
 14 21  1  0
 16 15  1  0
 16 17  1  0
 18 17  1  0
 19 20  1  0
 23 22  2  0
 22 27  1  0
 23 24  1  0
 24 25  2  0
 25 26  1  0
 27 26  2  0
 30 28  2  0
 30 29  1  0
  5 32  1  0
  5 33  1  0
  8 34  1  0
  8 35  1  0
 10 36  1  0
 10 37  1  0
 11 38  1  0
 13 39  1  0
 13 40  1  0
 13 41  1  0
 15 42  1  0
 15 43  1  0
 16 44  1  0
 16 45  1  0
 17 46  1  0
 17 47  1  0
 19 48  1  0
 19 49  1  0
 19 50  1  0
 20 51  1  0
 20 52  1  0
 23 53  1  0
 26 54  1  0
 27 55  1  0
 28 56  1  0
 30 57  1  0
 31 58  1  0
A    1
C1
A    2
N1
A    3
O1
A    4
C2
A    5
N2
A    6
O2
A    7
C3
A    8
N3
A    9
O3
A   10
C4
A   11
N4
A   12
O4
A   13
C5
A   14
N5
A   15
C6
A   16
C7
A   17
C8
A   18
C9
A   19
C10
A   20
C11
A   21
C12
A   22
C13
A   23
C14
A   24
C15
A   25
C16
A   26
C17
A   27
C18
A   28
C19
A   29
C20
A   30
C21
A   31
C22
M  END
