3KKV_B99_A_351
     RDKit          3D

 60 65  0  0  0  0  0  0  0  0999 V2000
  -30.6920  -10.5550   -5.4560 C   0  0  0  0  0  0  0  0  0  0  0  0
  -31.3710  -10.3550   -4.1640 C   0  0  0  0  0  0  0  0  0  0  0  0
  -32.7270  -10.2440   -4.0610 N   0  0  0  0  0  0  0  0  0  0  0  0
  -33.1540  -10.0650   -2.7990 N   0  0  0  0  0  0  0  0  0  0  0  0
  -32.0470  -10.0570   -2.0430 C   0  0  0  0  0  0  0  0  0  0  0  0
  -31.9020   -9.9060   -0.6840 C   0  0  0  0  0  0  0  0  0  0  0  0
  -30.5730   -9.9610   -0.3120 C   0  0  0  0  0  0  0  0  0  0  0  0
  -29.4820  -10.1420   -1.1450 C   0  0  0  0  0  0  0  0  0  0  0  0
  -29.5960  -10.2910   -2.5140 C   0  0  0  0  0  0  0  0  0  0  0  0
  -30.9230  -10.2350   -2.8690 C   0  0  0  0  0  0  0  0  0  0  0  0
  -28.1770  -10.1700   -0.5470 C   0  0  0  0  0  0  0  0  0  0  0  0
  -27.2100   -9.2730   -0.9390 C   0  0  0  0  0  0  0  0  0  0  0  0
  -25.9870   -9.3620   -0.3150 C   0  0  0  0  0  0  0  0  0  0  0  0
  -24.9700   -8.4930   -0.6440 O   0  0  0  0  0  0  0  0  0  0  0  0
  -24.8460   -8.6290   -2.0450 C   0  0  0  0  0  0  0  0  0  0  0  0
  -23.5540   -7.9640   -2.4580 C   0  0  0  0  0  0  0  0  0  0  0  0
  -23.0400   -7.1990   -1.2980 N   0  0  0  0  0  0  0  0  0  0  0  0
  -22.5030   -9.0060   -2.7410 C   0  0  0  0  0  0  0  0  0  0  0  0
  -22.1800   -9.7760   -1.5330 C   0  0  0  0  0  0  0  0  0  0  0  0
  -21.5750   -9.2940   -0.3950 C   0  0  0  0  0  0  0  0  0  0  0  0
  -21.4610  -10.3350    0.4770 N   0  0  0  0  0  0  0  0  0  0  0  0
  -21.9740  -11.4780   -0.0640 C   0  0  0  0  0  0  0  0  0  0  0  0
  -22.0430  -12.7280    0.4990 C   0  0  0  0  0  0  0  0  0  0  0  0
  -22.6190  -13.6770   -0.3070 C   0  0  0  0  0  0  0  0  0  0  0  0
  -23.0810  -13.3880   -1.5660 C   0  0  0  0  0  0  0  0  0  0  0  0
  -23.0080  -12.1320   -2.1160 C   0  0  0  0  0  0  0  0  0  0  0  0
  -22.4330  -11.1560   -1.3280 C   0  0  0  0  0  0  0  0  0  0  0  0
  -25.7600  -10.3100    0.6530 C   0  0  0  0  0  0  0  0  0  0  0  0
  -26.6780  -11.1910    1.0480 N   0  0  0  0  0  0  0  0  0  0  0  0
  -27.8560  -11.0870    0.4300 C   0  0  0  0  0  0  0  0  0  0  0  0
  -28.8350  -12.0350    0.8720 C   0  0  0  0  0  0  0  0  0  0  0  0
  -29.6960  -12.9000    0.1540 C   0  0  0  0  0  0  0  0  0  0  0  0
  -30.4300  -13.5760    1.1030 C   0  0  0  0  0  0  0  0  0  0  0  0
  -30.0640  -13.1770    2.3520 O   0  0  0  0  0  0  0  0  0  0  0  0
  -29.0920  -12.2350    2.2080 C   0  0  0  0  0  0  0  0  0  0  0  0
  -29.6505  -10.8618   -5.2793 H   0  0  0  0  0  0  0  0  0  0  0  0
  -31.2130  -11.3378   -6.0267 H   0  0  0  0  0  0  0  0  0  0  0  0
  -30.7055   -9.6147   -6.0267 H   0  0  0  0  0  0  0  0  0  0  0  0
  -33.3614  -10.2926   -4.8710 H   0  0  0  0  0  0  0  0  0  0  0  0
  -32.7372   -9.7601    0.0169 H   0  0  0  0  0  0  0  0  0  0  0  0
  -30.3584   -9.8490    0.7610 H   0  0  0  0  0  0  0  0  0  0  0  0
  -28.7565  -10.4323   -3.2106 H   0  0  0  0  0  0  0  0  0  0  0  0
  -27.4058   -8.5192   -1.7158 H   0  0  0  0  0  0  0  0  0  0  0  0
  -24.8228   -9.6945   -2.3175 H   0  0  0  0  0  0  0  0  0  0  0  0
  -25.7008   -8.1606   -2.5549 H   0  0  0  0  0  0  0  0  0  0  0  0
  -23.7465   -7.3379   -3.3417 H   0  0  0  0  0  0  0  0  0  0  0  0
  -23.3449   -7.6528   -0.4251 H   0  0  0  0  0  0  0  0  0  0  0  0
  -22.0108   -7.1752   -1.3312 H   0  0  0  0  0  0  0  0  0  0  0  0
  -22.8775   -9.6925   -3.5147 H   0  0  0  0  0  0  0  0  0  0  0  0
  -21.5904   -8.4963   -3.0836 H   0  0  0  0  0  0  0  0  0  0  0  0
  -21.2444   -8.2594   -0.2212 H   0  0  0  0  0  0  0  0  0  0  0  0
  -21.0443  -10.2682    1.4166 H   0  0  0  0  0  0  0  0  0  0  0  0
  -21.6687  -12.9497    1.5093 H   0  0  0  0  0  0  0  0  0  0  0  0
  -22.7138  -14.7062    0.0696 H   0  0  0  0  0  0  0  0  0  0  0  0
  -23.5294  -14.1976   -2.1606 H   0  0  0  0  0  0  0  0  0  0  0  0
  -23.3860  -11.9163   -3.1263 H   0  0  0  0  0  0  0  0  0  0  0  0
  -24.7679  -10.3434    1.1270 H   0  0  0  0  0  0  0  0  0  0  0  0
  -29.7645  -13.0096   -0.9384 H   0  0  0  0  0  0  0  0  0  0  0  0
  -31.2007  -14.3295    0.8835 H   0  0  0  0  0  0  0  0  0  0  0  0
  -28.5885  -11.7129    3.0350 H   0  0  0  0  0  0  0  0  0  0  0  0
  1  2  1  0
  2  3  1  0
  2 10  2  0
  3  4  1  0
  4  5  2  0
 10  5  1  0
  5  6  1  0
  6  7  2  0
  8  7  1  0
  9  8  2  0
  8 11  1  0
 10  9  1  0
 12 11  2  0
 11 30  1  0
 12 13  1  0
 14 13  1  0
 13 28  2  0
 15 14  1  0
 16 15  1  0
 18 16  1  0
 16 17  1  0
 18 19  1  0
 19 27  1  0
 19 20  2  0
 20 21  1  0
 22 21  1  0
 27 22  2  0
 22 23  1  0
 24 23  2  0
 25 24  1  0
 26 25  2  0
 26 27  1  0
 28 29  1  0
 30 29  2  0
 30 31  1  0
 32 31  1  0
 31 35  2  0
 32 33  2  0
 33 34  1  0
 35 34  1  0
  1 36  1  0
  1 37  1  0
  1 38  1  0
  3 39  1  0
  6 40  1  0
  7 41  1  0
  9 42  1  0
 12 43  1  0
 15 44  1  0
 15 45  1  0
 16 46  1  0
 17 47  1  0
 17 48  1  0
 18 49  1  0
 18 50  1  0
 20 51  1  0
 21 52  1  0
 23 53  1  0
 24 54  1  0
 25 55  1  0
 26 56  1  0
 28 57  1  0
 32 58  1  0
 33 59  1  0
 35 60  1  0
A    1
C1
A    2
C2
A    3
N1
A    4
N2
A    5
C3
A    6
C4
A    7
C5
A    8
C6
A    9
C7
A   10
C8
A   11
C9
A   12
C10
A   13
C11
A   14
O1
A   15
C12
A   16
C13
A   17
N3
A   18
C14
A   19
C15
A   20
C16
A   21
N4
A   22
C17
A   23
C18
A   24
C19
A   25
C20
A   26
C21
A   27
C22
A   28
C23
A   29
N5
A   30
C24
A   31
C25
A   32
C26
A   33
C27
A   34
O2
A   35
C28
M  END
