3KL6_443_A_1
     RDKit          3D

 58 61  0  0  0  0  0  0  0  0999 V2000
    1.8430   -9.1500  -16.5290 C   0  0  0  0  0  0  0  0  0  0  0  0
    4.4350   -8.0650  -16.3690 C   0  0  0  0  0  0  0  0  0  0  0  0
    6.1080   -7.5760  -14.7230 C   0  0  0  0  0  0  0  0  0  0  0  0
    6.3900   -3.9080  -14.3980 C   0  0  0  0  0  0  0  0  0  0  0  0
    5.4380   -3.4900  -15.3520 C   0  0  0  0  0  0  0  0  0  0  0  0
    4.9240   -5.7800  -15.8780 C   0  0  0  0  0  0  0  0  0  0  0  0
   -1.4730  -10.5620  -13.1870 C   0  0  0  0  0  0  0  0  0  0  0  0
   -0.6470  -10.9160  -10.8590 C   0  0  0  0  0  0  0  0  0  0  0  0
    0.9450  -11.1940  -12.7730 C   0  0  0  0  0  0  0  0  0  0  0  0
    0.0020   -9.4580   -8.8660 C   0  0  0  0  0  0  0  0  0  0  0  0
    2.4780   -9.0860  -14.1740 O   0  0  0  0  0  0  0  0  0  0  0  0
    1.7620   -9.8460  -15.1700 C   0  0  0  0  0  0  0  0  0  0  0  0
    3.4910   -9.2420  -17.2640 S   0  0  0  0  0  0  0  0  0  0  0  0
    4.0900  -10.5140  -16.9920 O   0  0  0  0  0  0  0  0  0  0  0  0
    3.3890   -8.7440  -18.5940 O   0  0  0  0  0  0  0  0  0  0  0  0
    5.3910   -8.4820  -15.4340 C   0  0  0  0  0  0  0  0  0  0  0  0
    5.8930   -6.2020  -14.9260 C   0  0  0  0  0  0  0  0  0  0  0  0
    6.6140   -5.2410  -14.2010 C   0  0  0  0  0  0  0  0  0  0  0  0
    7.2870   -2.7420  -13.4710 Cl  0  0  0  0  0  0  0  0  0  0  0  0
    4.7170   -4.3970  -16.0770 C   0  0  0  0  0  0  0  0  0  0  0  0
    4.2010   -6.7420  -16.6030 C   0  0  0  0  0  0  0  0  0  0  0  0
    0.3040   -9.9030  -14.7670 C   0  0  0  0  0  0  0  0  0  0  0  0
   -0.5350   -9.3670  -15.4730 O   0  0  0  0  0  0  0  0  0  0  0  0
   -0.0590  -10.5200  -13.6180 N   0  0  0  0  0  0  0  0  0  0  0  0
   -1.5500  -10.0320  -11.7370 C   0  0  0  0  0  0  0  0  0  0  0  0
    0.8120  -10.7620  -11.3100 C   0  0  0  0  0  0  0  0  0  0  0  0
   -0.7190  -10.6220   -9.4150 N   0  0  0  0  0  0  0  0  0  0  0  0
   -0.6430   -8.9470   -7.5730 C   0  0  0  0  0  0  0  0  0  0  0  0
   -0.8380  -10.1060   -6.5880 C   0  0  0  0  0  0  0  0  0  0  0  0
   -1.4890  -11.2330   -7.2580 N   0  0  0  0  0  0  0  0  0  0  0  0
   -1.4060  -11.4380   -8.5860 C   0  0  0  0  0  0  0  0  0  0  0  0
   -1.9810  -12.4010   -9.0530 O   0  0  0  0  0  0  0  0  0  0  0  0
    1.5748   -8.0912  -16.3984 H   0  0  0  0  0  0  0  0  0  0  0  0
    1.1478   -9.6657  -17.2078 H   0  0  0  0  0  0  0  0  0  0  0  0
    6.8549   -7.9155  -13.9903 H   0  0  0  0  0  0  0  0  0  0  0  0
    5.2732   -2.4147  -15.5152 H   0  0  0  0  0  0  0  0  0  0  0  0
   -2.0831   -9.9289  -13.8481 H   0  0  0  0  0  0  0  0  0  0  0  0
   -1.8557  -11.5921  -13.2366 H   0  0  0  0  0  0  0  0  0  0  0  0
   -1.0171  -11.9431  -10.9933 H   0  0  0  0  0  0  0  0  0  0  0  0
    0.7999  -12.2823  -12.8411 H   0  0  0  0  0  0  0  0  0  0  0  0
    1.9472  -10.9150  -13.1305 H   0  0  0  0  0  0  0  0  0  0  0  0
    1.0411   -9.7503   -8.6542 H   0  0  0  0  0  0  0  0  0  0  0  0
   -0.0373   -8.6492   -9.6105 H   0  0  0  0  0  0  0  0  0  0  0  0
    2.2000   -9.3811  -13.2708 H   0  0  0  0  0  0  0  0  0  0  0  0
    2.2028  -10.8513  -15.2420 H   0  0  0  0  0  0  0  0  0  0  0  0
    5.5624   -9.5568  -15.2744 H   0  0  0  0  0  0  0  0  0  0  0  0
    7.3668   -5.5642  -13.4670 H   0  0  0  0  0  0  0  0  0  0  0  0
    3.9772   -4.0507  -16.8138 H   0  0  0  0  0  0  0  0  0  0  0  0
    3.4555   -6.4320  -17.3501 H   0  0  0  0  0  0  0  0  0  0  0  0
   -1.2003   -8.9897  -11.7015 H   0  0  0  0  0  0  0  0  0  0  0  0
   -2.5874  -10.0648  -11.3728 H   0  0  0  0  0  0  0  0  0  0  0  0
    1.1172   -9.7100  -11.2096 H   0  0  0  0  0  0  0  0  0  0  0  0
    1.4574  -11.3938  -10.6821 H   0  0  0  0  0  0  0  0  0  0  0  0
    0.0088   -8.1874   -7.1167 H   0  0  0  0  0  0  0  0  0  0  0  0
   -1.6228   -8.5062   -7.8090 H   0  0  0  0  0  0  0  0  0  0  0  0
    0.1422  -10.4272   -6.2058 H   0  0  0  0  0  0  0  0  0  0  0  0
   -1.4724   -9.7675   -5.7556 H   0  0  0  0  0  0  0  0  0  0  0  0
   -2.0335  -11.8972   -6.6894 H   0  0  0  0  0  0  0  0  0  0  0  0
 13  1  1  0
  1 12  1  0
 13  2  1  0
 21  2  2  0
  2 16  1  0
 16  3  2  0
 17  3  1  0
  5  4  1  0
  4 18  2  0
  4 19  1  0
 20  5  2  0
 21  6  1  0
 20  6  1  0
  6 17  2  0
 24  7  1  0
  7 25  1  0
 25  8  1  0
 26  8  1  0
  8 27  1  0
 24  9  1  0
  9 26  1  0
 27 10  1  0
 10 28  1  0
 12 11  1  0
 12 22  1  0
 15 13  2  0
 13 14  2  0
 17 18  1  0
 23 22  2  0
 22 24  1  0
 27 31  1  0
 28 29  1  0
 30 29  1  0
 31 30  1  0
 32 31  2  0
  1 33  1  0
  1 34  1  0
  3 35  1  0
  5 36  1  0
  7 37  1  0
  7 38  1  0
  8 39  1  0
  9 40  1  0
  9 41  1  0
 10 42  1  0
 10 43  1  0
 11 44  1  0
 12 45  1  0
 16 46  1  0
 18 47  1  0
 20 48  1  0
 21 49  1  0
 25 50  1  0
 25 51  1  0
 26 52  1  0
 26 53  1  0
 28 54  1  0
 28 55  1  0
 29 56  1  0
 29 57  1  0
 30 58  1  0
A    1
C4
A    2
C8
A    3
C10
A    4
C13
A    5
C15
A    6
C17
A    7
C22
A    8
C24
A    9
C26
A   10
C28
A   11
O1
A   12
C2
A   13
S5
A   14
O6
A   15
O7
A   16
C9
A   17
C11
A   18
C12
A   19
CL14
A   20
C16
A   21
C18
A   22
C19
A   23
O20
A   24
N21
A   25
C23
A   26
C25
A   27
N27
A   28
C29
A   29
C30
A   30
N31
A   31
C32
A   32
O33
M  END
