3KM4_22X_A_400
     RDKit          3D

 81 83  0  0  0  0  0  0  0  0999 V2000
   28.6930   -7.8480  -14.3900 C   0  0  0  0  0  0  0  0  0  0  0  0
   27.7630   -3.8300  -12.9020 N   0  0  0  0  0  0  0  0  0  0  0  0
   28.1280   -7.8550  -15.7090 O   0  0  0  0  0  0  0  0  0  0  0  0
   33.4010   -9.2330  -12.5040 Cl  0  0  0  0  0  0  0  0  0  0  0  0
   30.1860   -8.0800  -14.5970 C   0  0  0  0  0  0  0  0  0  0  0  0
   24.6580   -7.8770   -7.3670 N   0  0  0  0  0  0  0  0  0  0  0  0
   25.8140  -10.9840  -10.6280 O   0  0  0  0  0  0  0  0  0  0  0  0
   30.7920   -7.8190  -15.8350 C   0  0  0  0  0  0  0  0  0  0  0  0
   26.2720   -8.7660  -10.6730 N   0  0  0  0  0  0  0  0  0  0  0  0
   28.2170   -1.6900  -13.4900 O   0  0  0  0  0  0  0  0  0  0  0  0
   30.9840   -8.5220  -13.5650 C   0  0  0  0  0  0  0  0  0  0  0  0
   26.1450   -9.9980  -12.5940 N   0  0  0  0  0  0  0  0  0  0  0  0
   32.1490   -8.0400  -16.1270 C   0  0  0  0  0  0  0  0  0  0  0  0
   32.3640   -8.6870  -13.8460 C   0  0  0  0  0  0  0  0  0  0  0  0
   32.9720   -8.4880  -15.0890 C   0  0  0  0  0  0  0  0  0  0  0  0
   28.3820   -6.5660  -13.6210 C   0  0  0  0  0  0  0  0  0  0  0  0
   29.3960   -5.4510  -13.5840 C   0  0  0  0  0  0  0  0  0  0  0  0
   29.1030   -4.3230  -12.5960 C   0  0  0  0  0  0  0  0  0  0  0  0
   27.3940   -2.5930  -13.2740 C   0  0  0  0  0  0  0  0  0  0  0  0
   25.9300   -2.4080  -13.4990 C   0  0  0  0  0  0  0  0  0  0  0  0
   26.2270   -8.6060   -9.2100 C   0  0  0  0  0  0  0  0  0  0  0  0
   24.7950   -8.2240   -8.7950 C   0  0  0  0  0  0  0  0  0  0  0  0
   27.3650   -7.6370   -8.8080 C   0  0  0  0  0  0  0  0  0  0  0  0
   28.7680   -8.0460   -9.2500 C   0  0  0  0  0  0  0  0  0  0  0  0
   29.7510   -6.9060   -9.0760 C   0  0  0  0  0  0  0  0  0  0  0  0
   31.1270   -7.4370   -9.4480 C   0  0  0  0  0  0  0  0  0  0  0  0
   31.5740   -8.5900   -8.5340 C   0  0  0  0  0  0  0  0  0  0  0  0
   29.2470   -9.2660   -8.4250 C   0  0  0  0  0  0  0  0  0  0  0  0
   30.6340   -9.7380   -8.8660 C   0  0  0  0  0  0  0  0  0  0  0  0
   26.0760   -9.9430  -11.2760 C   0  0  0  0  0  0  0  0  0  0  0  0
   27.5230  -11.5740  -13.4270 C   0  0  0  0  0  0  0  0  0  0  0  0
   28.2460  -10.4420  -14.2590 C   0  0  0  0  0  0  0  0  0  0  0  0
   28.0430   -9.0360  -13.5950 C   0  0  0  0  0  0  0  0  0  0  0  0
   26.5080   -8.8920  -13.5100 C   0  0  0  0  0  0  0  0  0  0  0  0
   26.0450  -11.2210  -13.3590 C   0  0  0  0  0  0  0  0  0  0  0  0
   25.1310   -8.8900   -6.4150 C   0  0  0  0  0  0  0  0  0  0  0  0
   27.0024   -4.5199  -12.8223 H   0  0  0  0  0  0  0  0  0  0  0  0
   27.1402   -7.8672  -15.6448 H   0  0  0  0  0  0  0  0  0  0  0  0
   25.1917   -7.0121   -7.1993 H   0  0  0  0  0  0  0  0  0  0  0  0
   30.1584   -7.4113  -16.6364 H   0  0  0  0  0  0  0  0  0  0  0  0
   26.4621   -7.9379  -11.2552 H   0  0  0  0  0  0  0  0  0  0  0  0
   30.5699   -8.7370  -12.5689 H   0  0  0  0  0  0  0  0  0  0  0  0
   32.5496   -7.8666  -17.1367 H   0  0  0  0  0  0  0  0  0  0  0  0
   34.0451   -8.6746  -15.2430 H   0  0  0  0  0  0  0  0  0  0  0  0
   27.4635   -6.1471  -14.0579 H   0  0  0  0  0  0  0  0  0  0  0  0
   28.3327   -6.9014  -12.5745 H   0  0  0  0  0  0  0  0  0  0  0  0
   30.3699   -5.8883  -13.3189 H   0  0  0  0  0  0  0  0  0  0  0  0
   29.3717   -4.9897  -14.5823 H   0  0  0  0  0  0  0  0  0  0  0  0
   29.8398   -3.5149  -12.7148 H   0  0  0  0  0  0  0  0  0  0  0  0
   29.1633   -4.6824  -11.5581 H   0  0  0  0  0  0  0  0  0  0  0  0
   25.4153   -2.3430  -12.5290 H   0  0  0  0  0  0  0  0  0  0  0  0
   25.7605   -1.4813  -14.0669 H   0  0  0  0  0  0  0  0  0  0  0  0
   25.5353   -3.2634  -14.0669 H   0  0  0  0  0  0  0  0  0  0  0  0
   26.4259   -9.5311   -8.6491 H   0  0  0  0  0  0  0  0  0  0  0  0
   24.1334   -9.0763   -9.0092 H   0  0  0  0  0  0  0  0  0  0  0  0
   24.5256   -7.3251   -9.3690 H   0  0  0  0  0  0  0  0  0  0  0  0
   27.1442   -6.6542   -9.2499 H   0  0  0  0  0  0  0  0  0  0  0  0
   27.3847   -7.6365   -7.7082 H   0  0  0  0  0  0  0  0  0  0  0  0
   28.7235   -8.3106  -10.3168 H   0  0  0  0  0  0  0  0  0  0  0  0
   29.4787   -6.0696   -9.7365 H   0  0  0  0  0  0  0  0  0  0  0  0
   29.7420   -6.5377   -8.0395 H   0  0  0  0  0  0  0  0  0  0  0  0
   31.0975   -7.7995  -10.4861 H   0  0  0  0  0  0  0  0  0  0  0  0
   31.8483   -6.6149   -9.3300 H   0  0  0  0  0  0  0  0  0  0  0  0
   32.6166   -8.8698   -8.7454 H   0  0  0  0  0  0  0  0  0  0  0  0
   31.5328   -8.3151   -7.4697 H   0  0  0  0  0  0  0  0  0  0  0  0
   29.2875   -8.9841   -7.3625 H   0  0  0  0  0  0  0  0  0  0  0  0
   28.5367  -10.0900   -8.5874 H   0  0  0  0  0  0  0  0  0  0  0  0
   30.6450   -9.9446   -9.9464 H   0  0  0  0  0  0  0  0  0  0  0  0
   30.9298  -10.6690   -8.3604 H   0  0  0  0  0  0  0  0  0  0  0  0
   27.6540  -12.5466  -13.9239 H   0  0  0  0  0  0  0  0  0  0  0  0
   27.9507  -11.6437  -12.4160 H   0  0  0  0  0  0  0  0  0  0  0  0
   29.3222  -10.6641  -14.3081 H   0  0  0  0  0  0  0  0  0  0  0  0
   27.8097  -10.4178  -15.2685 H   0  0  0  0  0  0  0  0  0  0  0  0
   28.5463   -8.9837  -12.6183 H   0  0  0  0  0  0  0  0  0  0  0  0
   26.0393   -9.0203  -14.4969 H   0  0  0  0  0  0  0  0  0  0  0  0
   26.1739   -7.9025  -13.1647 H   0  0  0  0  0  0  0  0  0  0  0  0
   25.4600  -11.9904  -12.8338 H   0  0  0  0  0  0  0  0  0  0  0  0
   25.5320  -11.1346  -14.3282 H   0  0  0  0  0  0  0  0  0  0  0  0
   24.9646   -8.5337   -5.3877 H   0  0  0  0  0  0  0  0  0  0  0  0
   24.5775   -9.8276   -6.5721 H   0  0  0  0  0  0  0  0  0  0  0  0
   26.2051   -9.0676   -6.5721 H   0  0  0  0  0  0  0  0  0  0  0  0
  1  3  1  0
  1  5  1  0
  1 16  1  0
  1 33  1  0
  2 18  1  0
  2 19  1  0
  4 14  1  0
  5  8  2  0
  5 11  1  0
  6 22  1  0
  6 36  1  0
  7 30  2  0
  8 13  1  0
  9 21  1  0
  9 30  1  0
 10 19  2  0
 11 14  2  0
 12 30  1  0
 12 34  1  0
 12 35  1  0
 13 15  2  0
 14 15  1  0
 16 17  1  0
 17 18  1  0
 19 20  1  0
 21 22  1  0
 21 23  1  0
 23 24  1  0
 24 25  1  0
 24 28  1  0
 25 26  1  0
 26 27  1  0
 27 29  1  0
 28 29  1  0
 31 32  1  0
 31 35  1  0
 32 33  1  0
 33 34  1  0
  2 37  1  0
  3 38  1  0
  6 39  1  0
  8 40  1  0
  9 41  1  0
 11 42  1  0
 13 43  1  0
 15 44  1  0
 16 45  1  0
 16 46  1  0
 17 47  1  0
 17 48  1  0
 18 49  1  0
 18 50  1  0
 20 51  1  0
 20 52  1  0
 20 53  1  0
 21 54  1  0
 22 55  1  0
 22 56  1  0
 23 57  1  0
 23 58  1  0
 24 59  1  0
 25 60  1  0
 25 61  1  0
 26 62  1  0
 26 63  1  0
 27 64  1  0
 27 65  1  0
 28 66  1  0
 28 67  1  0
 29 68  1  0
 29 69  1  0
 31 70  1  0
 31 71  1  0
 32 72  1  0
 32 73  1  0
 33 74  1  0
 34 75  1  0
 34 76  1  0
 35 77  1  0
 35 78  1  0
 36 79  1  0
 36 80  1  0
 36 81  1  0
A    1
C1
A    2
N1
A    3
O1
A    4
CL1
A    5
C2
A    6
N2
A    7
O2
A    8
C3
A    9
N3
A   10
O3
A   11
C4
A   12
N4
A   13
C5
A   14
C6
A   15
C7
A   16
C8
A   17
C9
A   18
C10
A   19
C11
A   20
C12
A   21
C13
A   22
C14
A   23
C15
A   24
C16
A   25
C17
A   26
C18
A   27
C19
A   28
C20
A   29
C21
A   30
C22
A   31
C23
A   32
C24
A   33
C25
A   34
C26
A   35
C27
A   36
C28
M  END
