3KMG_538_A_1
     RDKit          3D

 71 75  0  0  0  0  0  0  0  0999 V2000
   21.4800   28.7840    7.3270 C   0  0  0  0  0  0  0  0  0  0  0  0
   21.8950   29.4560    8.6270 C   0  0  0  0  0  0  0  0  0  0  0  0
   22.3530   28.4060    9.6210 C   0  0  0  0  0  0  0  0  0  0  0  0
   21.2180   27.6750   10.1420 N   0  0  0  0  0  0  0  0  0  0  0  0
   20.2110   28.0120   10.9660 C   0  0  0  0  0  0  0  0  0  0  0  0
   19.9510   29.1100   11.4530 O   0  0  0  0  0  0  0  0  0  0  0  0
   19.4870   26.7800   11.3970 C   0  0  0  0  0  0  0  0  0  0  0  0
   18.9930   26.6930   12.7000 C   0  0  0  0  0  0  0  0  0  0  0  0
   18.3720   25.5260   13.1400 C   0  0  0  0  0  0  0  0  0  0  0  0
   18.2520   24.4290   12.2930 C   0  0  0  0  0  0  0  0  0  0  0  0
   17.7080   23.2070   12.4510 N   0  0  0  0  0  0  0  0  0  0  0  0
   17.0990   22.8120   13.7200 C   0  0  0  0  0  0  0  0  0  0  0  0
   18.1200   22.1030   14.5880 C   0  0  0  0  0  0  0  0  0  0  0  0
   19.3140   21.5650   14.0810 C   0  0  0  0  0  0  0  0  0  0  0  0
   20.1900   20.9090   14.9370 C   0  0  0  0  0  0  0  0  0  0  0  0
   19.8830   20.7810   16.2880 C   0  0  0  0  0  0  0  0  0  0  0  0
   18.7120   21.3190   16.7830 C   0  0  0  0  0  0  0  0  0  0  0  0
   17.8310   21.9710   15.9370 C   0  0  0  0  0  0  0  0  0  0  0  0
   20.8040   20.0630   17.2080 C   0  0  0  0  0  0  0  0  0  0  0  0
   21.2000   20.6680   18.3950 C   0  0  0  0  0  0  0  0  0  0  0  0
   22.0590   20.0030   19.2590 C   0  0  0  0  0  0  0  0  0  0  0  0
   22.5290   18.7270   18.9610 C   0  0  0  0  0  0  0  0  0  0  0  0
   22.1580   18.0700   17.7920 C   0  0  0  0  0  0  0  0  0  0  0  0
   21.2990   18.6820   16.8960 C   0  0  0  0  0  0  0  0  0  0  0  0
   20.9270   17.9250   15.6630 C   0  0  0  0  0  0  0  0  0  0  0  0
   19.7290   17.8570   15.3200 O   0  0  0  0  0  0  0  0  0  0  0  0
   21.8180   17.3510   15.0040 O   0  0  0  0  0  0  0  0  0  0  0  0
   17.8030   22.4310   11.3390 C   0  0  0  0  0  0  0  0  0  0  0  0
   17.3170   21.0090   11.1350 C   0  0  0  0  0  0  0  0  0  0  0  0
   18.5010   23.2320   10.3110 C   0  0  0  0  0  0  0  0  0  0  0  0
   18.9220   22.9710    8.9000 C   0  0  0  0  0  0  0  0  0  0  0  0
   18.7910   24.5370   10.9300 C   0  0  0  0  0  0  0  0  0  0  0  0
   19.3950   25.6990   10.5020 C   0  0  0  0  0  0  0  0  0  0  0  0
   23.3450   28.7460   10.6950 C   0  0  0  0  0  0  0  0  0  0  0  0
   24.3960   29.6280   10.4490 C   0  0  0  0  0  0  0  0  0  0  0  0
   25.3520   29.8970   11.4140 C   0  0  0  0  0  0  0  0  0  0  0  0
   25.2900   29.2580   12.6450 C   0  0  0  0  0  0  0  0  0  0  0  0
   24.2690   28.3480   12.9000 C   0  0  0  0  0  0  0  0  0  0  0  0
   23.3160   28.0820   11.9230 C   0  0  0  0  0  0  0  0  0  0  0  0
   20.9143   27.8679    7.5521 H   0  0  0  0  0  0  0  0  0  0  0  0
   20.8487   29.4710    6.7444 H   0  0  0  0  0  0  0  0  0  0  0  0
   22.3770   28.5272    6.7444 H   0  0  0  0  0  0  0  0  0  0  0  0
   22.7194   30.1569    8.4295 H   0  0  0  0  0  0  0  0  0  0  0  0
   21.0371   30.0035    9.0444 H   0  0  0  0  0  0  0  0  0  0  0  0
   22.9967   27.7802    8.9853 H   0  0  0  0  0  0  0  0  0  0  0  0
   21.1726   26.6992    9.8154 H   0  0  0  0  0  0  0  0  0  0  0  0
   19.0946   27.5498   13.3823 H   0  0  0  0  0  0  0  0  0  0  0  0
   17.9739   25.4717   14.1640 H   0  0  0  0  0  0  0  0  0  0  0  0
   16.7354   23.7083   14.2439 H   0  0  0  0  0  0  0  0  0  0  0  0
   16.2596   22.1297   13.5202 H   0  0  0  0  0  0  0  0  0  0  0  0
   19.5544   21.6624   13.0120 H   0  0  0  0  0  0  0  0  0  0  0  0
   21.1286   20.4898   14.5456 H   0  0  0  0  0  0  0  0  0  0  0  0
   18.4779   21.2293   17.8540 H   0  0  0  0  0  0  0  0  0  0  0  0
   16.8952   22.3871   16.3384 H   0  0  0  0  0  0  0  0  0  0  0  0
   20.8329   21.6732   18.6495 H   0  0  0  0  0  0  0  0  0  0  0  0
   22.3731   20.4916   20.1932 H   0  0  0  0  0  0  0  0  0  0  0  0
   23.2093   18.2267   19.6659 H   0  0  0  0  0  0  0  0  0  0  0  0
   22.5477   17.0635   17.5798 H   0  0  0  0  0  0  0  0  0  0  0  0
   22.5520   16.8782   15.4707 H   0  0  0  0  0  0  0  0  0  0  0  0
   17.1544   20.5332   12.1133 H   0  0  0  0  0  0  0  0  0  0  0  0
   16.3722   21.0217   10.5718 H   0  0  0  0  0  0  0  0  0  0  0  0
   18.0719   20.4407   10.5718 H   0  0  0  0  0  0  0  0  0  0  0  0
   19.8569   22.3914    8.8976 H   0  0  0  0  0  0  0  0  0  0  0  0
   18.1361   22.4015    8.3823 H   0  0  0  0  0  0  0  0  0  0  0  0
   19.0826   23.9282    8.3823 H   0  0  0  0  0  0  0  0  0  0  0  0
   19.7970   25.7796    9.4813 H   0  0  0  0  0  0  0  0  0  0  0  0
   24.4674   30.1205    9.4680 H   0  0  0  0  0  0  0  0  0  0  0  0
   26.1587   30.6153   11.2057 H   0  0  0  0  0  0  0  0  0  0  0  0
   26.0454   29.4704   13.4159 H   0  0  0  0  0  0  0  0  0  0  0  0
   24.2157   27.8393   13.8738 H   0  0  0  0  0  0  0  0  0  0  0  0
   22.5292   27.3390   12.1200 H   0  0  0  0  0  0  0  0  0  0  0  0
  1  2  1  0
  3  2  1  0
  4  3  1  0
  3 34  1  0
  5  4  1  0
  7  5  1  0
  5  6  2  0
  8  7  2  0
 33  7  1  0
  9  8  1  0
 10  9  2  0
 11 10  1  0
 10 32  1  0
 12 11  1  0
 28 11  1  0
 12 13  1  0
 18 13  1  0
 13 14  2  0
 14 15  1  0
 16 15  2  0
 17 16  1  0
 16 19  1  0
 18 17  2  0
 24 19  1  0
 19 20  2  0
 20 21  1  0
 22 21  2  0
 23 22  1  0
 24 23  2  0
 25 24  1  0
 26 25  2  0
 25 27  1  0
 29 28  1  0
 28 30  2  0
 30 31  1  0
 30 32  1  0
 32 33  2  0
 39 34  1  0
 34 35  2  0
 35 36  1  0
 37 36  2  0
 38 37  1  0
 39 38  2  0
  1 40  1  0
  1 41  1  0
  1 42  1  0
  2 43  1  0
  2 44  1  0
  3 45  1  0
  4 46  1  0
  8 47  1  0
  9 48  1  0
 12 49  1  0
 12 50  1  0
 14 51  1  0
 15 52  1  0
 17 53  1  0
 18 54  1  0
 20 55  1  0
 21 56  1  0
 22 57  1  0
 23 58  1  0
 27 59  1  0
 29 60  1  0
 29 61  1  0
 29 62  1  0
 31 63  1  0
 31 64  1  0
 31 65  1  0
 33 66  1  0
 35 67  1  0
 36 68  1  0
 37 69  1  0
 38 70  1  0
 39 71  1  0
A    1
C1
A    2
C2
A    3
C3
A    4
N4
A    5
C5
A    6
O6
A    7
C7
A    8
C8
A    9
C9
A   10
C10
A   11
N11
A   12
C12
A   13
C13
A   14
C14
A   15
C15
A   16
C16
A   17
C17
A   18
C18
A   19
C19
A   20
C20
A   21
C21
A   22
C22
A   23
C23
A   24
C24
A   25
C25
A   26
O26
A   27
O27
A   28
C28
A   29
C29
A   30
C30
A   31
C31
A   32
C32
A   33
C33
A   34
C34
A   35
C35
A   36
C36
A   37
C37
A   38
C38
A   39
C39
M  END
