3KOO_24D_A_556
     RDKit          3D

 43 45  0  0  0  0  0  0  0  0999 V2000
   75.8010   -8.4220   71.5040 Cl  0  0  0  0  0  0  0  0  0  0  0  0
   75.1260   -8.8050   69.9350 C   0  0  0  0  0  0  0  0  0  0  0  0
   75.2180   -7.8830   68.8990 C   0  0  0  0  0  0  0  0  0  0  0  0
   74.6840   -8.1720   67.6470 C   0  0  0  0  0  0  0  0  0  0  0  0
   74.0480   -9.3790   67.4100 C   0  0  0  0  0  0  0  0  0  0  0  0
   73.4590   -9.7490   66.0710 C   0  0  0  0  0  0  0  0  0  0  0  0
   73.5580   -8.6370   65.1250 N   0  0  0  0  0  0  0  0  0  0  0  0
   74.6880   -8.5020   64.4160 C   0  0  0  0  0  0  0  0  0  0  0  0
   75.5840   -9.2840   64.5770 O   0  0  0  0  0  0  0  0  0  0  0  0
   74.8410   -7.5270   63.5200 N   0  0  0  0  0  0  0  0  0  0  0  0
   76.1050   -7.4060   62.7770 C   0  0  0  0  0  0  0  0  0  0  0  0
   75.7920   -7.1070   61.3060 C   0  0  0  0  0  0  0  0  0  0  0  0
   74.8260   -5.9140   61.1870 C   0  0  0  0  0  0  0  0  0  0  0  0
   74.3760   -5.3700   62.5470 C   0  0  0  0  0  0  0  0  0  0  0  0
   73.7690   -6.5550   63.3010 C   0  0  0  0  0  0  0  0  0  0  0  0
   75.4260   -4.8660   60.4150 O   0  0  0  0  0  0  0  0  0  0  0  0
   76.4870   -4.1480   60.8600 C   0  0  0  0  0  0  0  0  0  0  0  0
   77.2350   -4.5940   61.8570 N   0  0  0  0  0  0  0  0  0  0  0  0
   78.2700   -3.8970   62.2820 C   0  0  0  0  0  0  0  0  0  0  0  0
   78.5540   -2.6950   61.6530 C   0  0  0  0  0  0  0  0  0  0  0  0
   77.7570   -2.2560   60.6060 C   0  0  0  0  0  0  0  0  0  0  0  0
   76.7400   -3.0090   60.2370 N   0  0  0  0  0  0  0  0  0  0  0  0
   73.9560  -10.2930   68.4290 C   0  0  0  0  0  0  0  0  0  0  0  0
   73.1470  -11.7790   68.0410 Cl  0  0  0  0  0  0  0  0  0  0  0  0
   74.4900  -10.0200   69.6910 C   0  0  0  0  0  0  0  0  0  0  0  0
   75.7167   -6.9176   69.0701 H   0  0  0  0  0  0  0  0  0  0  0  0
   74.7680   -7.4333   66.8363 H   0  0  0  0  0  0  0  0  0  0  0  0
   74.0038  -10.6145   65.6660 H   0  0  0  0  0  0  0  0  0  0  0  0
   72.3957   -9.9925   66.2130 H   0  0  0  0  0  0  0  0  0  0  0  0
   72.7786   -7.9741   65.0066 H   0  0  0  0  0  0  0  0  0  0  0  0
   76.7049   -6.5869   63.2004 H   0  0  0  0  0  0  0  0  0  0  0  0
   76.6725   -8.3453   62.8530 H   0  0  0  0  0  0  0  0  0  0  0  0
   76.7275   -6.8681   60.7790 H   0  0  0  0  0  0  0  0  0  0  0  0
   75.3173   -7.9926   60.8582 H   0  0  0  0  0  0  0  0  0  0  0  0
   73.9255   -6.2867   60.6769 H   0  0  0  0  0  0  0  0  0  0  0  0
   75.2370   -4.9666   63.1002 H   0  0  0  0  0  0  0  0  0  0  0  0
   73.6483   -4.5533   62.4312 H   0  0  0  0  0  0  0  0  0  0  0  0
   72.9651   -7.0095   62.7033 H   0  0  0  0  0  0  0  0  0  0  0  0
   73.3385   -6.2277   64.2589 H   0  0  0  0  0  0  0  0  0  0  0  0
   78.8918   -4.2597   63.1138 H   0  0  0  0  0  0  0  0  0  0  0  0
   79.4108   -2.0896   61.9838 H   0  0  0  0  0  0  0  0  0  0  0  0
   77.9682   -1.3041   60.0968 H   0  0  0  0  0  0  0  0  0  0  0  0
   74.4079  -10.7669   70.4944 H   0  0  0  0  0  0  0  0  0  0  0  0
  1  2  1  0
  2  3  2  0
  2 25  1  0
  3  4  1  0
  4  5  2  0
  5  6  1  0
  5 23  1  0
  6  7  1  0
  7  8  1  0
  8  9  2  0
  8 10  1  0
 10 11  1  0
 10 15  1  0
 11 12  1  0
 12 13  1  0
 13 14  1  0
 13 16  1  0
 14 15  1  0
 16 17  1  0
 17 18  2  0
 17 22  1  0
 18 19  1  0
 19 20  2  0
 20 21  1  0
 21 22  2  0
 23 24  1  0
 23 25  2  0
  3 26  1  0
  4 27  1  0
  6 28  1  0
  6 29  1  0
  7 30  1  0
 11 31  1  0
 11 32  1  0
 12 33  1  0
 12 34  1  0
 13 35  1  0
 14 36  1  0
 14 37  1  0
 15 38  1  0
 15 39  1  0
 19 40  1  0
 20 41  1  0
 21 42  1  0
 25 43  1  0
A    1
CL1
A    2
C2
A    3
C3
A    4
C4
A    5
C5
A    6
C6
A    7
N7
A    8
C8
A    9
O9
A   10
N10
A   11
C11
A   12
C12
A   13
C13
A   14
C14
A   15
C15
A   16
O16
A   17
C17
A   18
N18
A   19
C19
A   20
C20
A   21
C21
A   22
N22
A   23
C23
A   24
CL24
A   25
C25
M  END
