3KOX_Z98_A_767
     RDKit          3D

 41 41  0  0  0  0  0  0  0  0999 V2000
   -7.0470   96.5030   28.6780 C   0  0  0  0  0  0  0  0  0  0  0  0
   -7.5090   98.9970   28.6480 N   0  0  0  0  0  0  0  0  0  0  0  0
   -6.7490   95.4870   28.0050 O   0  0  0  0  0  0  0  0  0  0  0  0
   -7.1790  102.6220   19.5990 P   0  0  0  0  0  0  0  0  0  0  0  0
   -5.8050   97.7550   20.7930 N   0  0  0  0  0  0  0  0  0  0  0  0
   -6.4780   96.9120   21.5850 C   0  0  0  0  0  0  0  0  0  0  0  0
   -7.4060   97.4410   22.4920 C   0  0  0  0  0  0  0  0  0  0  0  0
   -8.1070   96.6120   23.3110 O   0  0  0  0  0  0  0  0  0  0  0  0
   -7.5960   98.8400   22.5830 C   0  0  0  0  0  0  0  0  0  0  0  0
   -6.8850   99.6670   21.7270 C   0  0  0  0  0  0  0  0  0  0  0  0
   -5.9900   99.0620   20.8590 C   0  0  0  0  0  0  0  0  0  0  0  0
   -7.7310   97.7090   27.9310 C   0  0  0  0  0  0  0  0  0  0  0  0
   -7.2740   97.7710   26.4360 C   0  0  0  0  0  0  0  0  0  0  0  0
   -8.4590   99.4600   24.8060 N   0  0  0  0  0  0  0  0  0  0  0  0
   -7.3070   99.1760   25.7220 C   0  0  0  0  0  0  0  0  0  0  0  0
   -6.1930   95.3900   21.4330 C   0  0  0  0  0  0  0  0  0  0  0  0
   -8.5180   99.3880   23.4750 C   0  0  0  0  0  0  0  0  0  0  0  0
   -6.9360  101.1840   21.7120 C   0  0  0  0  0  0  0  0  0  0  0  0
   -5.7890  102.9820   19.3290 O   0  0  0  0  0  0  0  0  0  0  0  0
   -8.1920  103.8570   19.8550 O   0  0  0  0  0  0  0  0  0  0  0  0
   -7.8420  101.6350   18.4710 O   0  0  0  0  0  0  0  0  0  0  0  0
   -7.6270  101.5820   20.6770 O   0  0  0  0  0  0  0  0  0  0  0  0
   -6.8430   96.6160   29.9130 O   0  0  0  0  0  0  0  0  0  0  0  0
   -7.5372   98.8334   29.6645 H   0  0  0  0  0  0  0  0  0  0  0  0
   -6.5894   99.3809   28.3874 H   0  0  0  0  0  0  0  0  0  0  0  0
   -6.5020   94.6448   28.4630 H   0  0  0  0  0  0  0  0  0  0  0  0
   -8.0288   96.7045   24.2936 H   0  0  0  0  0  0  0  0  0  0  0  0
   -5.4012   99.7049   20.1881 H   0  0  0  0  0  0  0  0  0  0  0  0
   -8.8176   97.5379   27.9313 H   0  0  0  0  0  0  0  0  0  0  0  0
   -6.2380   97.4038   26.3928 H   0  0  0  0  0  0  0  0  0  0  0  0
   -8.0121   97.1631   25.8922 H   0  0  0  0  0  0  0  0  0  0  0  0
   -7.3140   99.9451   26.5084 H   0  0  0  0  0  0  0  0  0  0  0  0
   -6.4221   99.1791   25.0686 H   0  0  0  0  0  0  0  0  0  0  0  0
   -6.1072   94.9317   22.4293 H   0  0  0  0  0  0  0  0  0  0  0  0
   -7.0180   94.9158   20.8811 H   0  0  0  0  0  0  0  0  0  0  0  0
   -5.2524   95.2464   20.8811 H   0  0  0  0  0  0  0  0  0  0  0  0
   -9.4195   99.8212   23.0171 H   0  0  0  0  0  0  0  0  0  0  0  0
   -7.4146  101.5448   22.6343 H   0  0  0  0  0  0  0  0  0  0  0  0
   -5.9142  101.5868   21.6503 H   0  0  0  0  0  0  0  0  0  0  0  0
   -5.3081  103.1066   20.1853 H   0  0  0  0  0  0  0  0  0  0  0  0
   -8.3337  100.9030   18.9210 H   0  0  0  0  0  0  0  0  0  0  0  0
 23  1  2  0
 12  1  1  0
  1  3  1  0
 12  2  1  0
 20  4  2  0
 21  4  1  0
  4 19  1  0
  4 22  1  0
 11  5  2  0
  5  6  1  0
  6 16  1  0
  6  7  2  0
  7  9  1  0
  7  8  1  0
 10  9  2  0
  9 17  1  0
 11 10  1  0
 18 10  1  0
 13 12  1  0
 15 13  1  0
 17 14  2  0
 14 15  1  0
 22 18  1  0
  2 24  1  0
  2 25  1  0
  3 26  1  0
  8 27  1  0
 11 28  1  0
 12 29  1  0
 13 30  1  0
 13 31  1  0
 15 32  1  0
 15 33  1  0
 16 34  1  0
 16 35  1  0
 16 36  1  0
 17 37  1  0
 18 38  1  0
 18 39  1  0
 19 40  1  0
 21 41  1  0
A    1
C
A    2
N
A    3
O
A    4
P
A    5
N1
A    6
C2
A    7
C3
A    8
O3
A    9
C4
A   10
C5
A   11
C6
A   12
CA
A   13
CB
A   14
ND
A   15
CG
A   16
C2A
A   17
C4A
A   18
C5A
A   19
OP1
A   20
OP2
A   21
OP3
A   22
OP4
A   23
OXT
M  END
