3KOY_Z97_A_767
     RDKit          3D

 44 44  0  0  0  0  0  0  0  0999 V2000
   -6.2170   97.4900   28.5990 C   0  0  0  0  0  0  0  0  0  0  0  0
   -8.2630   98.0780   29.9070 N   0  0  0  0  0  0  0  0  0  0  0  0
   -6.1130   96.3940   29.1430 O   0  0  0  0  0  0  0  0  0  0  0  0
   -6.4750  103.1120   19.4000 P   0  0  0  0  0  0  0  0  0  0  0  0
   -5.4030   98.1070   20.5430 N   0  0  0  0  0  0  0  0  0  0  0  0
   -5.9570   97.2990   21.5760 C   0  0  0  0  0  0  0  0  0  0  0  0
   -6.7910   97.8870   22.5900 C   0  0  0  0  0  0  0  0  0  0  0  0
   -7.2950   97.1010   23.6070 O   0  0  0  0  0  0  0  0  0  0  0  0
   -7.0750   99.2310   22.5640 C   0  0  0  0  0  0  0  0  0  0  0  0
   -6.4830  100.0650   21.4680 C   0  0  0  0  0  0  0  0  0  0  0  0
   -5.6870   99.4970   20.5140 C   0  0  0  0  0  0  0  0  0  0  0  0
   -7.5130   98.2710   28.6700 C   0  0  0  0  0  0  0  0  0  0  0  0
   -7.4090   99.7180   28.1660 C   0  0  0  0  0  0  0  0  0  0  0  0
   -8.2820   98.9890   25.7500 C   0  0  0  0  0  0  0  0  0  0  0  0
   -8.8890   99.2880   24.4420 N   0  0  0  0  0  0  0  0  0  0  0  0
   -8.1080  100.0790   26.8050 C   0  0  0  0  0  0  0  0  0  0  0  0
   -5.6430   95.7980   21.5560 C   0  0  0  0  0  0  0  0  0  0  0  0
   -7.9270   99.9500   23.5990 C   0  0  0  0  0  0  0  0  0  0  0  0
   -6.7850  101.5720   21.3930 C   0  0  0  0  0  0  0  0  0  0  0  0
   -7.4350  104.2620   19.8180 O   0  0  0  0  0  0  0  0  0  0  0  0
   -7.2840  102.1710   18.4460 O   0  0  0  0  0  0  0  0  0  0  0  0
   -5.2690  103.6960   18.6920 O   0  0  0  0  0  0  0  0  0  0  0  0
   -5.9050  102.3520   20.6460 O   0  0  0  0  0  0  0  0  0  0  0  0
   -5.3920   97.7700   27.5260 O   0  0  0  0  0  0  0  0  0  0  0  0
   -7.6423   98.2377   30.7133 H   0  0  0  0  0  0  0  0  0  0  0  0
   -9.0476   98.7445   29.9404 H   0  0  0  0  0  0  0  0  0  0  0  0
   -7.1348   97.3508   24.5515 H   0  0  0  0  0  0  0  0  0  0  0  0
   -5.2621  100.1232   19.7157 H   0  0  0  0  0  0  0  0  0  0  0  0
   -8.1646   97.8024   27.9178 H   0  0  0  0  0  0  0  0  0  0  0  0
   -7.8463  100.3659   28.9399 H   0  0  0  0  0  0  0  0  0  0  0  0
   -6.3364   99.8637   27.9703 H   0  0  0  0  0  0  0  0  0  0  0  0
   -8.9013   98.2049   26.2100 H   0  0  0  0  0  0  0  0  0  0  0  0
   -7.2435   98.7429   25.4836 H   0  0  0  0  0  0  0  0  0  0  0  0
   -9.1126  100.4552   27.0485 H   0  0  0  0  0  0  0  0  0  0  0  0
   -7.4162  100.7933   26.3346 H   0  0  0  0  0  0  0  0  0  0  0  0
   -5.5652   95.4259   22.5882 H   0  0  0  0  0  0  0  0  0  0  0  0
   -6.4484   95.2618   21.0327 H   0  0  0  0  0  0  0  0  0  0  0  0
   -4.6902   95.6297   21.0327 H   0  0  0  0  0  0  0  0  0  0  0  0
   -7.8012  101.0371   23.7099 H   0  0  0  0  0  0  0  0  0  0  0  0
   -7.7874  101.6893   20.9554 H   0  0  0  0  0  0  0  0  0  0  0  0
   -6.6878  101.9371   22.4261 H   0  0  0  0  0  0  0  0  0  0  0  0
   -7.8254  101.5412   18.9849 H   0  0  0  0  0  0  0  0  0  0  0  0
   -4.6139  104.0132   19.3631 H   0  0  0  0  0  0  0  0  0  0  0  0
   -4.4663   98.0842   27.6821 H   0  0  0  0  0  0  0  0  0  0  0  0
  3  1  2  0
  1 12  1  0
  1 24  1  0
 12  2  1  0
 20  4  2  0
  4 21  1  0
  4 22  1  0
  4 23  1  0
  5 11  2  0
  5  6  1  0
 17  6  1  0
  6  7  2  0
  7  9  1  0
  7  8  1  0
 10  9  2  0
  9 18  1  0
 11 10  1  0
 19 10  1  0
 13 12  1  0
 16 13  1  0
 15 14  1  0
 14 16  1  0
 18 15  2  0
 23 19  1  0
  2 25  1  0
  2 26  1  0
  8 27  1  0
 11 28  1  0
 12 29  1  0
 13 30  1  0
 13 31  1  0
 14 32  1  0
 14 33  1  0
 16 34  1  0
 16 35  1  0
 17 36  1  0
 17 37  1  0
 17 38  1  0
 18 39  1  0
 19 40  1  0
 19 41  1  0
 21 42  1  0
 22 43  1  0
 24 44  1  0
A    1
C
A    2
N
A    3
O
A    4
P
A    5
N1
A    6
C2
A    7
C3
A    8
O3
A    9
C4
A   10
C5
A   11
C6
A   12
CA
A   13
CB
A   14
CD
A   15
NE
A   16
CG
A   17
C2A
A   18
C4A
A   19
C5A
A   20
OP1
A   21
OP2
A   22
OP3
A   23
OP4
A   24
OXT
M  END
