3KPZ_ZNE_A_525
     RDKit          3D

 74 77  0  0  0  0  0  0  0  0999 V2000
   14.2050   17.4630   35.4920 C   0  0  0  0  0  0  0  0  0  0  0  0
    4.4730   23.3630   33.2760 N   0  0  0  0  0  0  0  0  0  0  0  0
   13.1600   16.9470   36.3920 O   0  0  0  0  0  0  0  0  0  0  0  0
    2.9200   24.9660   34.4570 S   0  0  0  0  0  0  0  0  0  0  0  0
   14.8380   16.3070   34.6130 C   0  0  0  0  0  0  0  0  0  0  0  0
   17.1090   17.5140   34.4130 O   0  0  0  0  0  0  0  0  0  0  0  0
   15.9900   16.9410   33.6170 C   0  0  0  0  0  0  0  0  0  0  0  0
    4.9860   26.7920   34.6170 O   0  0  0  0  0  0  0  0  0  0  0  0
   15.4160   18.1130   32.7260 C   0  0  0  0  0  0  0  0  0  0  0  0
   14.6500   19.2180   33.5360 C   0  0  0  0  0  0  0  0  0  0  0  0
   14.8560   20.5600   33.3680 C   0  0  0  0  0  0  0  0  0  0  0  0
   14.2650   21.7510   34.0050 C   0  0  0  0  0  0  0  0  0  0  0  0
   14.0480   22.9050   33.4880 C   0  0  0  0  0  0  0  0  0  0  0  0
   14.3880   23.3230   31.9630 C   0  0  0  0  0  0  0  0  0  0  0  0
   13.5940   18.5880   34.5890 C   0  0  0  0  0  0  0  0  0  0  0  0
   13.0510   23.8250   31.1070 C   0  0  0  0  0  0  0  0  0  0  0  0
   12.0860   24.8150   31.9660 C   0  0  0  0  0  0  0  0  0  0  0  0
   12.0170   24.5300   33.6170 C   0  0  0  0  0  0  0  0  0  0  0  0
   13.4280   24.0560   34.2610 C   0  0  0  0  0  0  0  0  0  0  0  0
   12.9740   23.8270   35.8900 C   0  0  0  0  0  0  0  0  0  0  0  0
   11.8590   24.9340   36.0610 C   0  0  0  0  0  0  0  0  0  0  0  0
   11.7660   25.7190   34.6310 C   0  0  0  0  0  0  0  0  0  0  0  0
   10.8860   23.1730   33.5030 C   0  0  0  0  0  0  0  0  0  0  0  0
   12.2300   18.9920   34.6970 C   0  0  0  0  0  0  0  0  0  0  0  0
   10.3070   26.3480   34.0180 C   0  0  0  0  0  0  0  0  0  0  0  0
   10.5160   27.4280   35.2280 C   0  0  0  0  0  0  0  0  0  0  0  0
    8.9300   25.8440   34.5090 C   0  0  0  0  0  0  0  0  0  0  0  0
    7.8200   26.5680   33.7840 C   0  0  0  0  0  0  0  0  0  0  0  0
    6.8630   25.7170   33.1960 C   0  0  0  0  0  0  0  0  0  0  0  0
    5.4570   25.6830   33.8360 C   0  0  0  0  0  0  0  0  0  0  0  0
    4.4620   24.6170   33.7720 C   0  0  0  0  0  0  0  0  0  0  0  0
    3.2880   22.7060   33.4400 C   0  0  0  0  0  0  0  0  0  0  0  0
    2.2770   23.4180   34.0790 C   0  0  0  0  0  0  0  0  0  0  0  0
   15.0206   17.8847   36.0978 H   0  0  0  0  0  0  0  0  0  0  0  0
   13.4373   17.0839   37.3324 H   0  0  0  0  0  0  0  0  0  0  0  0
   15.2966   15.5548   35.2717 H   0  0  0  0  0  0  0  0  0  0  0  0
   14.0507   15.8337   34.0080 H   0  0  0  0  0  0  0  0  0  0  0  0
   16.9127   17.4135   35.3781 H   0  0  0  0  0  0  0  0  0  0  0  0
   16.3344   16.1150   32.9774 H   0  0  0  0  0  0  0  0  0  0  0  0
    5.0762   26.5796   35.5797 H   0  0  0  0  0  0  0  0  0  0  0  0
   16.2560   18.5902   32.2000 H   0  0  0  0  0  0  0  0  0  0  0  0
   14.6861   17.6605   32.0386 H   0  0  0  0  0  0  0  0  0  0  0  0
   15.6131   20.7976   32.6062 H   0  0  0  0  0  0  0  0  0  0  0  0
   13.9725   21.6354   35.0591 H   0  0  0  0  0  0  0  0  0  0  0  0
   15.1204   24.1436   31.9804 H   0  0  0  0  0  0  0  0  0  0  0  0
   14.7820   22.4282   31.4588 H   0  0  0  0  0  0  0  0  0  0  0  0
   13.3902   24.3589   30.2071 H   0  0  0  0  0  0  0  0  0  0  0  0
   12.4648   22.9293   30.8540 H   0  0  0  0  0  0  0  0  0  0  0  0
   12.4436   25.8446   31.8176 H   0  0  0  0  0  0  0  0  0  0  0  0
   11.0678   24.6318   31.5922 H   0  0  0  0  0  0  0  0  0  0  0  0
   14.2758   24.7546   34.2045 H   0  0  0  0  0  0  0  0  0  0  0  0
   12.5684   22.8182   36.0567 H   0  0  0  0  0  0  0  0  0  0  0  0
   13.8056   23.9119   36.6050 H   0  0  0  0  0  0  0  0  0  0  0  0
   10.8928   24.4668   36.3022 H   0  0  0  0  0  0  0  0  0  0  0  0
   12.1054   25.6253   36.8804 H   0  0  0  0  0  0  0  0  0  0  0  0
   12.4180   26.5957   34.7586 H   0  0  0  0  0  0  0  0  0  0  0  0
   10.6090   22.8406   34.5143 H   0  0  0  0  0  0  0  0  0  0  0  0
    9.9832   23.4926   32.9619 H   0  0  0  0  0  0  0  0  0  0  0  0
   11.3630   22.3425   32.9619 H   0  0  0  0  0  0  0  0  0  0  0  0
   11.8383   19.7862   34.0445 H   0  0  0  0  0  0  0  0  0  0  0  0
   11.5700   18.5092   35.4328 H   0  0  0  0  0  0  0  0  0  0  0  0
   10.2342   26.3750   32.9207 H   0  0  0  0  0  0  0  0  0  0  0  0
   10.4171   26.9168   36.1969 H   0  0  0  0  0  0  0  0  0  0  0  0
   11.5175   27.8762   35.1505 H   0  0  0  0  0  0  0  0  0  0  0  0
    9.7540   28.2175   35.1505 H   0  0  0  0  0  0  0  0  0  0  0  0
    8.8476   24.7646   34.3140 H   0  0  0  0  0  0  0  0  0  0  0  0
    8.8406   26.0389   35.5879 H   0  0  0  0  0  0  0  0  0  0  0  0
    7.3051   27.2202   34.5048 H   0  0  0  0  0  0  0  0  0  0  0  0
    8.2914   27.1285   32.9632 H   0  0  0  0  0  0  0  0  0  0  0  0
    6.7418   26.0299   32.1484 H   0  0  0  0  0  0  0  0  0  0  0  0
    7.2625   24.7020   33.3376 H   0  0  0  0  0  0  0  0  0  0  0  0
    5.0335   26.1412   32.9300 H   0  0  0  0  0  0  0  0  0  0  0  0
    3.1406   21.6744   33.0879 H   0  0  0  0  0  0  0  0  0  0  0  0
    1.2611   23.0586   34.2997 H   0  0  0  0  0  0  0  0  0  0  0  0
  1  3  1  0
  1  5  1  0
  1 15  1  0
  2 31  2  0
  2 32  1  0
  4 31  1  0
  4 33  1  0
  5  7  1  0
  6  7  1  0
  7  9  1  0
  8 30  1  0
  9 10  1  0
 10 11  2  0
 10 15  1  0
 11 12  1  0
 12 13  2  0
 13 14  1  0
 13 19  1  0
 14 16  1  0
 15 24  2  0
 16 17  1  0
 17 18  1  0
 18 19  1  0
 18 22  1  0
 18 23  1  0
 19 20  1  0
 20 21  1  0
 21 22  1  0
 22 25  1  0
 25 26  1  0
 25 27  1  0
 27 28  1  0
 28 29  1  0
 29 30  1  0
 30 31  1  0
 32 33  2  0
  1 34  1  0
  3 35  1  0
  5 36  1  0
  5 37  1  0
  6 38  1  0
  7 39  1  0
  8 40  1  0
  9 41  1  0
  9 42  1  0
 11 43  1  0
 12 44  1  0
 14 45  1  0
 14 46  1  0
 16 47  1  0
 16 48  1  0
 17 49  1  0
 17 50  1  0
 19 51  1  0
 20 52  1  0
 20 53  1  0
 21 54  1  0
 21 55  1  0
 22 56  1  0
 23 57  1  0
 23 58  1  0
 23 59  1  0
 24 60  1  0
 24 61  1  0
 25 62  1  0
 26 63  1  0
 26 64  1  0
 26 65  1  0
 27 66  1  0
 27 67  1  0
 28 68  1  0
 28 69  1  0
 29 70  1  0
 29 71  1  0
 30 72  1  0
 32 73  1  0
 33 74  1  0
A    1
C1
A    2
N1
A    3
O1
A    4
S1
A    5
C2
A    6
O2
A    7
C3
A    8
O3
A    9
C4
A   10
C5
A   11
C6
A   12
C7
A   13
C8
A   14
C9
A   15
C10
A   16
C11
A   17
C12
A   18
C13
A   19
C14
A   20
C15
A   21
C16
A   22
C17
A   23
C18
A   24
C19
A   25
C20
A   26
C21
A   27
C22
A   28
C23
A   29
C24
A   30
C25
A   31
C26
A   32
C27
A   33
C31
M  END
