3KQM_ES3_A_290
     RDKit          3D

  9  9  0  0  0  0  0  0  0  0999 V2000
   26.7400   42.5740   16.1100 Br  0  0  0  0  0  0  0  0  0  0  0  0
   27.4980   44.2390   16.7550 C   0  0  0  0  0  0  0  0  0  0  0  0
   28.2280   44.4040   17.9250 C   0  0  0  0  0  0  0  0  0  0  0  0
   28.5990   45.6940   18.0070 N   0  0  0  0  0  0  0  0  0  0  0  0
   28.1170   46.3290   16.8920 C   0  0  0  0  0  0  0  0  0  0  0  0
   27.4400   45.4220   16.1210 N   0  0  0  0  0  0  0  0  0  0  0  0
   28.4619   43.6168   18.6569 H   0  0  0  0  0  0  0  0  0  0  0  0
   29.1444   46.1251   18.7670 H   0  0  0  0  0  0  0  0  0  0  0  0
   28.2521   47.3946   16.6549 H   0  0  0  0  0  0  0  0  0  0  0  0
  1  2  1  0
  2  3  2  0
  2  6  1  0
  3  4  1  0
  4  5  1  0
  5  6  2  0
  3  7  1  0
  4  8  1  0
  5  9  1  0
A    1
BR01
A    2
C02
A    3
C03
A    4
N04
A    5
C05
A    6
N06
M  END
