3KQT_ES7_A_290
     RDKit          3D

 20 21  0  0  0  0  0  0  0  0999 V2000
   28.2460   45.4760   17.3130 C   0  0  0  0  0  0  0  0  0  0  0  0
   27.7380   43.4010   18.7370 C   0  0  0  0  0  0  0  0  0  0  0  0
   27.8390   44.1530   17.4690 N   0  0  0  0  0  0  0  0  0  0  0  0
   27.5190   43.6600   16.2080 C   0  0  0  0  0  0  0  0  0  0  0  0
   27.0480   42.3590   15.7660 C   0  0  0  0  0  0  0  0  0  0  0  0
   26.7960   42.1140   14.3610 C   0  0  0  0  0  0  0  0  0  0  0  0
   27.0180   43.1660   13.4020 C   0  0  0  0  0  0  0  0  0  0  0  0
   27.4930   44.4620   13.8350 C   0  0  0  0  0  0  0  0  0  0  0  0
   27.7390   44.7080   15.2520 C   0  0  0  0  0  0  0  0  0  0  0  0
   28.1730   45.8100   15.9180 N   0  0  0  0  0  0  0  0  0  0  0  0
   28.6550   46.3650   18.3690 N   0  0  0  0  0  0  0  0  0  0  0  0
   27.8314   44.0964   19.5842 H   0  0  0  0  0  0  0  0  0  0  0  0
   26.7636   42.8929   18.7854 H   0  0  0  0  0  0  0  0  0  0  0  0
   28.5439   42.6538   18.7854 H   0  0  0  0  0  0  0  0  0  0  0  0
   26.8822   41.5573   16.5007 H   0  0  0  0  0  0  0  0  0  0  0  0
   26.4367   41.1292   14.0276 H   0  0  0  0  0  0  0  0  0  0  0  0
   26.8252   42.9827   12.3346 H   0  0  0  0  0  0  0  0  0  0  0  0
   27.6682   45.2597   13.0981 H   0  0  0  0  0  0  0  0  0  0  0  0
   28.5278   46.0886   19.3530 H   0  0  0  0  0  0  0  0  0  0  0  0
   29.0748   47.2774   18.1404 H   0  0  0  0  0  0  0  0  0  0  0  0
  1  3  1  0
  1 10  2  0
  1 11  1  0
  2  3  1  0
  3  4  1  0
  4  5  2  0
  4  9  1  0
  5  6  1  0
  6  7  2  0
  7  8  1  0
  8  9  2  0
  9 10  1  0
  2 12  1  0
  2 13  1  0
  2 14  1  0
  5 15  1  0
  6 16  1  0
  7 17  1  0
  8 18  1  0
 11 19  1  0
 11 20  1  0
A    1
C10
A    2
C01
A    3
N02
A    4
C03
A    5
C04
A    6
C05
A    7
C06
A    8
C07
A    9
C08
A   10
N09
A   11
N11
M  END
