3KQW_ES9_A_290
     RDKit          3D

 15 16  0  0  0  0  0  0  0  0999 V2000
   28.1610   42.9330   16.9100 C   0  0  0  0  0  0  0  0  0  0  0  0
   27.3190   41.3440   14.8010 Cl  0  0  0  0  0  0  0  0  0  0  0  0
   27.6270   42.9130   15.6050 C   0  0  0  0  0  0  0  0  0  0  0  0
   27.3410   44.1180   14.9350 C   0  0  0  0  0  0  0  0  0  0  0  0
   27.5890   45.3520   15.5630 C   0  0  0  0  0  0  0  0  0  0  0  0
   28.1310   45.3680   16.8720 C   0  0  0  0  0  0  0  0  0  0  0  0
   28.4560   46.3810   17.6930 N   0  0  0  0  0  0  0  0  0  0  0  0
   28.9410   45.8540   18.8740 C   0  0  0  0  0  0  0  0  0  0  0  0
   28.9110   44.4810   18.7640 N   0  0  0  0  0  0  0  0  0  0  0  0
   28.4130   44.1760   17.5430 C   0  0  0  0  0  0  0  0  0  0  0  0
   28.3805   41.9906   17.4331 H   0  0  0  0  0  0  0  0  0  0  0  0
   26.9226   44.0943   13.9180 H   0  0  0  0  0  0  0  0  0  0  0  0
   27.3644   46.2950   15.0431 H   0  0  0  0  0  0  0  0  0  0  0  0
   28.3595   47.3836   17.4775 H   0  0  0  0  0  0  0  0  0  0  0  0
   29.2888   46.4275   19.7458 H   0  0  0  0  0  0  0  0  0  0  0  0
  1  3  2  0
  1 10  1  0
  2  3  1  0
  3  4  1  0
  4  5  2  0
  5  6  1  0
  6  7  1  0
  6 10  2  0
  7  8  1  0
  8  9  2  0
  9 10  1  0
  1 11  1  0
  4 12  1  0
  5 13  1  0
  7 14  1  0
  8 15  1  0
A    1
C10
A    2
CL01
A    3
C02
A    4
C03
A    5
C04
A    6
C05
A    7
N06
A    8
C07
A    9
N08
A   10
C09
M  END
