3KQY_ES0_A_290
     RDKit          3D

 18 19  0  0  0  0  0  0  0  0999 V2000
   29.1910   46.5410   18.3960 N   0  0  0  0  0  0  0  0  0  0  0  0
   27.8280   41.6080   16.9250 O   0  0  0  0  0  0  0  0  0  0  0  0
   27.0200   43.5080   13.9220 C   0  0  0  0  0  0  0  0  0  0  0  0
   27.1680   42.4380   14.7950 C   0  0  0  0  0  0  0  0  0  0  0  0
   27.3840   44.7870   14.3240 C   0  0  0  0  0  0  0  0  0  0  0  0
   28.3160   46.0870   16.2350 N   0  0  0  0  0  0  0  0  0  0  0  0
   28.5440   44.4100   17.5980 N   0  0  0  0  0  0  0  0  0  0  0  0
   28.7110   45.7240   17.4590 C   0  0  0  0  0  0  0  0  0  0  0  0
   27.6790   42.6530   16.0700 C   0  0  0  0  0  0  0  0  0  0  0  0
   27.8950   44.9970   15.5980 C   0  0  0  0  0  0  0  0  0  0  0  0
   28.0420   43.9320   16.4680 C   0  0  0  0  0  0  0  0  0  0  0  0
   29.0588   46.3160   19.3924 H   0  0  0  0  0  0  0  0  0  0  0  0
   29.6942   47.3975   18.1238 H   0  0  0  0  0  0  0  0  0  0  0  0
   27.8061   41.7614   17.9028 H   0  0  0  0  0  0  0  0  0  0  0  0
   26.6148   43.3428   12.9128 H   0  0  0  0  0  0  0  0  0  0  0  0
   26.8819   41.4240   14.4788 H   0  0  0  0  0  0  0  0  0  0  0  0
   27.2673   45.6343   13.6323 H   0  0  0  0  0  0  0  0  0  0  0  0
   28.7668   43.8594   18.4395 H   0  0  0  0  0  0  0  0  0  0  0  0
  1  8  1  0
  2  9  1  0
  3  4  2  0
  3  5  1  0
  4  9  1  0
  5 10  2  0
  6  8  2  0
  6 10  1  0
  7  8  1  0
  7 11  1  0
  9 11  2  0
 10 11  1  0
  1 12  1  0
  1 13  1  0
  2 14  1  0
  3 15  1  0
  4 16  1  0
  5 17  1  0
  7 18  1  0
A    1
NAA
A    2
OAB
A    3
CAC
A    4
CAD
A    5
CAE
A    6
NAF
A    7
NAG
A    8
CAH
A    9
CAI
A   10
CAJ
A   11
CAK
M  END
