3KRJ_KRJ_A_923
     RDKit          3D

 53 56  0  0  0  0  0  0  0  0999 V2000
    7.7680   24.7790    4.4760 N   0  0  0  0  0  0  0  0  0  0  0  0
    8.1750   25.1810    5.4830 C   0  0  0  0  0  0  0  0  0  0  0  0
    8.6640   25.6850    6.7230 C   0  0  0  0  0  0  0  0  0  0  0  0
    9.6850   25.1970    7.5110 C   0  0  0  0  0  0  0  0  0  0  0  0
    9.7520   26.0480    8.6010 N   0  0  0  0  0  0  0  0  0  0  0  0
    8.8160   26.9840    8.4530 C   0  0  0  0  0  0  0  0  0  0  0  0
    8.1150   26.8190    7.3340 N   0  0  0  0  0  0  0  0  0  0  0  0
    8.6330   28.0060    9.5170 C   0  0  0  0  0  0  0  0  0  0  0  0
    9.2090   27.8790   10.6010 O   0  0  0  0  0  0  0  0  0  0  0  0
    7.8330   29.0140    9.1550 N   0  0  0  0  0  0  0  0  0  0  0  0
    7.3740   30.0960    9.9440 C   0  0  0  0  0  0  0  0  0  0  0  0
    7.5780   30.0390   11.3340 C   0  0  0  0  0  0  0  0  0  0  0  0
    7.1030   31.0480   12.1630 C   0  0  0  0  0  0  0  0  0  0  0  0
    6.4090   32.1570   11.6490 C   0  0  0  0  0  0  0  0  0  0  0  0
    6.1930   32.2330   10.2430 C   0  0  0  0  0  0  0  0  0  0  0  0
    6.6610   31.1950    9.3810 C   0  0  0  0  0  0  0  0  0  0  0  0
    6.4460   31.2990    7.9140 C   0  0  0  0  0  0  0  0  0  0  0  0
    5.7060   30.3750    7.2560 C   0  0  0  0  0  0  0  0  0  0  0  0
    5.5000   30.3350    5.7470 C   0  0  0  0  0  0  0  0  0  0  0  0
    6.6530   31.0070    4.9870 C   0  0  0  0  0  0  0  0  0  0  0  0
    6.9740   32.3660    5.6180 C   0  0  0  0  0  0  0  0  0  0  0  0
    7.3450   32.2360    7.1110 C   0  0  0  0  0  0  0  0  0  0  0  0
    5.9640   33.1700   12.7240 C   0  0  0  0  0  0  0  0  0  0  0  0
    4.4620   33.0150   13.1030 C   0  0  0  0  0  0  0  0  0  0  0  0
    3.7380   34.3240   13.4510 C   0  0  0  0  0  0  0  0  0  0  0  0
    4.6730   35.1550   14.1950 N   0  0  0  0  0  0  0  0  0  0  0  0
    5.5460   35.7390   13.1880 C   0  0  0  0  0  0  0  0  0  0  0  0
    6.4540   34.6400   12.5900 C   0  0  0  0  0  0  0  0  0  0  0  0
   10.3142   24.3163    7.3147 H   0  0  0  0  0  0  0  0  0  0  0  0
   10.4108   25.9708    9.3890 H   0  0  0  0  0  0  0  0  0  0  0  0
    7.5093   29.0018    8.1773 H   0  0  0  0  0  0  0  0  0  0  0  0
    8.1195   29.1865   11.7699 H   0  0  0  0  0  0  0  0  0  0  0  0
    7.2742   30.9772   13.2473 H   0  0  0  0  0  0  0  0  0  0  0  0
    5.6619   33.0975    9.8182 H   0  0  0  0  0  0  0  0  0  0  0  0
    5.2166   29.5942    7.8567 H   0  0  0  0  0  0  0  0  0  0  0  0
    5.4288   29.2851    5.4267 H   0  0  0  0  0  0  0  0  0  0  0  0
    4.5766   30.8867    5.5171 H   0  0  0  0  0  0  0  0  0  0  0  0
    7.5441   30.3638    5.0339 H   0  0  0  0  0  0  0  0  0  0  0  0
    6.3560   31.1565    3.9385 H   0  0  0  0  0  0  0  0  0  0  0  0
    7.8206   32.8168    5.0794 H   0  0  0  0  0  0  0  0  0  0  0  0
    6.0754   32.9961    5.5443 H   0  0  0  0  0  0  0  0  0  0  0  0
    7.2902   33.2361    7.5657 H   0  0  0  0  0  0  0  0  0  0  0  0
    8.3544   31.8000    7.1428 H   0  0  0  0  0  0  0  0  0  0  0  0
    6.5516   32.8627   13.6016 H   0  0  0  0  0  0  0  0  0  0  0  0
    3.9415   32.5543   12.2505 H   0  0  0  0  0  0  0  0  0  0  0  0
    4.4387   32.4009   14.0153 H   0  0  0  0  0  0  0  0  0  0  0  0
    3.4287   34.8389   12.5295 H   0  0  0  0  0  0  0  0  0  0  0  0
    2.8373   34.1220   14.0494 H   0  0  0  0  0  0  0  0  0  0  0  0
    4.1708   35.8924   14.7097 H   0  0  0  0  0  0  0  0  0  0  0  0
    4.9360   36.1852   12.3887 H   0  0  0  0  0  0  0  0  0  0  0  0
    6.1703   36.5169   13.6519 H   0  0  0  0  0  0  0  0  0  0  0  0
    7.4324   34.7105   13.0878 H   0  0  0  0  0  0  0  0  0  0  0  0
    6.4692   34.8389   11.5082 H   0  0  0  0  0  0  0  0  0  0  0  0
  1  2  3  0
  2  3  1  0
  3  7  1  0
  3  4  2  0
  4  5  1  0
  6  5  1  0
  7  6  2  0
  6  8  1  0
 10  8  1  0
  8  9  2  0
 10 11  1  0
 16 11  1  0
 11 12  2  0
 12 13  1  0
 14 13  2  0
 15 14  1  0
 14 23  1  0
 16 15  2  0
 17 16  1  0
 22 17  1  0
 18 17  2  0
 19 18  1  0
 20 19  1  0
 20 21  1  0
 21 22  1  0
 28 23  1  0
 23 24  1  0
 24 25  1  0
 25 26  1  0
 27 26  1  0
 28 27  1  0
  4 29  1  0
  5 30  1  0
 10 31  1  0
 12 32  1  0
 13 33  1  0
 15 34  1  0
 18 35  1  0
 19 36  1  0
 19 37  1  0
 20 38  1  0
 20 39  1  0
 21 40  1  0
 21 41  1  0
 22 42  1  0
 22 43  1  0
 23 44  1  0
 24 45  1  0
 24 46  1  0
 25 47  1  0
 25 48  1  0
 26 49  1  0
 27 50  1  0
 27 51  1  0
 28 52  1  0
 28 53  1  0
A    1
N01
A    2
C02
A    3
C03
A    4
C04
A    5
N05
A    6
C06
A    7
N07
A    8
C08
A    9
O09
A   10
N10
A   11
C11
A   12
C12
A   13
C13
A   14
C14
A   15
C15
A   16
C16
A   17
C17
A   18
C18
A   19
C19
A   20
C20
A   21
C21
A   22
C22
A   23
C23
A   24
C24
A   25
C25
A   26
N26
A   27
C27
A   28
C28
M  END
