3KSL_SZH_B_438
     RDKit          3D

 54 53  0  0  0  0  0  0  0  0999 V2000
  193.0670  123.5120   31.4730 C   0  0  0  0  0  0  0  0  0  0  0  0
  192.4360  122.9830   30.3950 C   0  0  0  0  0  0  0  0  0  0  0  0
  183.7190  121.1890   31.8760 C   0  0  0  0  0  0  0  0  0  0  0  0
  185.0910  120.7100   32.3270 C   0  0  0  0  0  0  0  0  0  0  0  0
  193.0540  122.6700   29.0830 C   0  0  0  0  0  0  0  0  0  0  0  0
  188.1740  122.2240   33.9570 C   0  0  0  0  0  0  0  0  0  0  0  0
  194.4940  123.9110   31.6950 C   0  0  0  0  0  0  0  0  0  0  0  0
  190.9450  122.6960   30.4300 C   0  0  0  0  0  0  0  0  0  0  0  0
  190.4740  121.3260   30.9310 C   0  0  0  0  0  0  0  0  0  0  0  0
  189.8280  121.3920   32.3330 C   0  0  0  0  0  0  0  0  0  0  0  0
  187.3710  121.2760   31.7220 C   0  0  0  0  0  0  0  0  0  0  0  0
  188.4590  122.0970   32.4510 C   0  0  0  0  0  0  0  0  0  0  0  0
  182.5390  120.3250   31.5530 C   0  0  0  0  0  0  0  0  0  0  0  0
  183.4780  123.6260   31.7060 N   0  0  0  0  0  0  0  0  0  0  0  0
  183.5640  122.4910   31.7760 N   0  0  0  0  0  0  0  0  0  0  0  0
  195.3320  123.6030   36.4530 O   0  0  0  0  0  0  0  0  0  0  0  0
  197.5170  124.4310   35.5120 O   0  0  0  0  0  0  0  0  0  0  0  0
  197.0350  125.4260   32.6640 O   0  0  0  0  0  0  0  0  0  0  0  0
  185.2470  119.6010   32.8250 O   0  0  0  0  0  0  0  0  0  0  0  0
  196.2510  122.6380   34.2020 O   0  0  0  0  0  0  0  0  0  0  0  0
  195.4870  127.3060   33.4140 O   0  0  0  0  0  0  0  0  0  0  0  0
  186.0370  121.6750   32.1130 O   0  0  0  0  0  0  0  0  0  0  0  0
  194.4610  125.2040   32.3120 O   0  0  0  0  0  0  0  0  0  0  0  0
  195.3220  124.9660   34.5000 O   0  0  0  0  0  0  0  0  0  0  0  0
  182.6590  118.9970   31.7060 F   0  0  0  0  0  0  0  0  0  0  0  0
  181.5050  120.5890   32.3750 F   0  0  0  0  0  0  0  0  0  0  0  0
  182.1080  120.5360   30.2820 F   0  0  0  0  0  0  0  0  0  0  0  0
  196.1840  123.7950   35.2280 P   0  0  0  0  0  0  0  0  0  0  0  0
  195.6660  125.8210   33.1820 P   0  0  0  0  0  0  0  0  0  0  0  0
  192.4125  123.6781   32.3414 H   0  0  0  0  0  0  0  0  0  0  0  0
  184.0382  121.1462   30.8242 H   0  0  0  0  0  0  0  0  0  0  0  0
  194.0249  122.1783   29.2430 H   0  0  0  0  0  0  0  0  0  0  0  0
  192.3918  121.9986   28.5166 H   0  0  0  0  0  0  0  0  0  0  0  0
  193.2035  123.6011   28.5166 H   0  0  0  0  0  0  0  0  0  0  0  0
  189.0336  121.8409   34.5264 H   0  0  0  0  0  0  0  0  0  0  0  0
  188.0078  123.2813   34.2108 H   0  0  0  0  0  0  0  0  0  0  0  0
  187.2767  121.6406   34.2108 H   0  0  0  0  0  0  0  0  0  0  0  0
  194.9932  123.1868   32.3556 H   0  0  0  0  0  0  0  0  0  0  0  0
  195.0534  123.9350   30.7482 H   0  0  0  0  0  0  0  0  0  0  0  0
  190.4837  123.4549   31.0790 H   0  0  0  0  0  0  0  0  0  0  0  0
  190.6432  122.7135   29.3724 H   0  0  0  0  0  0  0  0  0  0  0  0
  189.7341  120.9274   30.2213 H   0  0  0  0  0  0  0  0  0  0  0  0
  191.3593  120.6773   31.0040 H   0  0  0  0  0  0  0  0  0  0  0  0
  189.6985  120.3582   32.6859 H   0  0  0  0  0  0  0  0  0  0  0  0
  190.5150  122.0087   32.9311 H   0  0  0  0  0  0  0  0  0  0  0  0
  187.5082  120.2116   31.9633 H   0  0  0  0  0  0  0  0  0  0  0  0
  187.4763  121.4564   30.6420 H   0  0  0  0  0  0  0  0  0  0  0  0
  188.4620  123.0901   31.9779 H   0  0  0  0  0  0  0  0  0  0  0  0
  183.4476  124.0271   32.6542 H   0  0  0  0  0  0  0  0  0  0  0  0
  184.2929  124.0015   31.2003 H   0  0  0  0  0  0  0  0  0  0  0  0
  183.2830  122.3954   30.7897 H   0  0  0  0  0  0  0  0  0  0  0  0
  195.8865  123.7280   37.2635 H   0  0  0  0  0  0  0  0  0  0  0  0
  197.6504  124.4946   36.4909 H   0  0  0  0  0  0  0  0  0  0  0  0
  195.4651  127.4877   34.3869 H   0  0  0  0  0  0  0  0  0  0  0  0
  2  1  2  0
  1  7  1  0
  5  2  1  0
  2  8  1  0
 13  3  1  0
 15  3  1  0
  3  4  1  0
 22  4  1  0
  4 19  2  0
 12  6  1  0
  7 23  1  0
  8  9  1  0
  9 10  1  0
 10 12  1  0
 11 22  1  0
 11 12  1  0
 27 13  1  0
 13 25  1  0
 13 26  1  0
 14 15  1  0
 28 16  1  0
 28 17  1  0
 18 29  2  0
 20 28  2  0
 29 21  1  0
 23 29  1  0
 29 24  1  0
 24 28  1  0
  1 30  1  0
  3 31  1  0
  5 32  1  0
  5 33  1  0
  5 34  1  0
  6 35  1  0
  6 36  1  0
  6 37  1  0
  7 38  1  0
  7 39  1  0
  8 40  1  0
  8 41  1  0
  9 42  1  0
  9 43  1  0
 10 44  1  0
 10 45  1  0
 11 46  1  0
 11 47  1  0
 12 48  1  0
 14 49  1  0
 14 50  1  0
 15 51  1  0
 16 52  1  0
 17 53  1  0
 21 54  1  0
A    1
C1
A    2
C2
A    3
C3
A    4
C4
A    5
C5
A    6
C6
A    7
C7
A    8
C8
A    9
C9
A   10
C10
A   11
C11
A   12
C12
A   13
C13
A   14
N14
A   15
N15
A   16
O16
A   17
O17
A   18
O18
A   19
O19
A   20
O20
A   21
O21
A   22
O22
A   23
O23
A   24
O24
A   25
F25
A   26
F26
A   27
F27
A   28
P28
A   29
P29
M  END
