100D_SPM_A_21
     RDKit          3D

 40 39  0  0  0  0  0  0  0  0999 V2000
   10.6830   -8.7830   22.8390 N   0  0  0  0  0  0  0  0  0  0  0  0
   11.5310   -7.6210   23.3790 C   0  0  0  0  0  0  0  0  0  0  0  0
   10.8260   -6.3120   23.0330 C   0  0  0  0  0  0  0  0  0  0  0  0
   11.7540   -5.1160   22.9940 C   0  0  0  0  0  0  0  0  0  0  0  0
   10.9580   -3.9090   22.5490 N   0  0  0  0  0  0  0  0  0  0  0  0
   12.0180   -2.8780   22.2310 C   0  0  0  0  0  0  0  0  0  0  0  0
   11.4190   -1.5150   22.2200 C   0  0  0  0  0  0  0  0  0  0  0  0
   12.4600   -0.5860   21.6710 C   0  0  0  0  0  0  0  0  0  0  0  0
   12.0570    0.8470   21.8880 C   0  0  0  0  0  0  0  0  0  0  0  0
   13.0640    1.7490   21.2210 N   0  0  0  0  0  0  0  0  0  0  0  0
   13.4930    2.7490   22.2700 C   0  0  0  0  0  0  0  0  0  0  0  0
   14.2370    3.9460   21.6990 C   0  0  0  0  0  0  0  0  0  0  0  0
   14.6910    4.7120   22.9200 C   0  0  0  0  0  0  0  0  0  0  0  0
   14.4600    6.1750   22.6420 N   0  0  0  0  0  0  0  0  0  0  0  0
   10.2923   -9.3183   23.6275 H   0  0  0  0  0  0  0  0  0  0  0  0
    9.9148   -8.4090   22.2638 H   0  0  0  0  0  0  0  0  0  0  0  0
   11.6334   -7.7111   24.4705 H   0  0  0  0  0  0  0  0  0  0  0  0
   12.5340   -7.6421   22.9278 H   0  0  0  0  0  0  0  0  0  0  0  0
   10.3567   -6.4205   22.0441 H   0  0  0  0  0  0  0  0  0  0  0  0
   10.0888   -6.1227   23.8272 H   0  0  0  0  0  0  0  0  0  0  0  0
   12.1717   -4.9369   23.9957 H   0  0  0  0  0  0  0  0  0  0  0  0
   12.5817   -5.3022   22.2939 H   0  0  0  0  0  0  0  0  0  0  0  0
   10.3957   -4.1273   21.7141 H   0  0  0  0  0  0  0  0  0  0  0  0
   12.8087   -2.9218   22.9944 H   0  0  0  0  0  0  0  0  0  0  0  0
   12.4429   -3.0925   21.2393 H   0  0  0  0  0  0  0  0  0  0  0  0
   10.5240   -1.5003   21.5807 H   0  0  0  0  0  0  0  0  0  0  0  0
   11.1143   -1.2107   23.2322 H   0  0  0  0  0  0  0  0  0  0  0  0
   13.4169   -0.7737   22.1801 H   0  0  0  0  0  0  0  0  0  0  0  0
   12.5625   -0.7663   20.5907 H   0  0  0  0  0  0  0  0  0  0  0  0
   11.0620    1.0199   21.4521 H   0  0  0  0  0  0  0  0  0  0  0  0
   12.0226    1.0631   22.9660 H   0  0  0  0  0  0  0  0  0  0  0  0
   13.8741    1.2018   20.8967 H   0  0  0  0  0  0  0  0  0  0  0  0
   12.5955    3.1133   22.7914 H   0  0  0  0  0  0  0  0  0  0  0  0
   14.1871    2.2297   22.9472 H   0  0  0  0  0  0  0  0  0  0  0  0
   15.0995    3.6202   21.0990 H   0  0  0  0  0  0  0  0  0  0  0  0
   13.6109    4.5523   21.0279 H   0  0  0  0  0  0  0  0  0  0  0  0
   14.1083    4.3992   23.7990 H   0  0  0  0  0  0  0  0  0  0  0  0
   15.7534    4.5181   23.1289 H   0  0  0  0  0  0  0  0  0  0  0  0
   14.3794    6.6853   23.5331 H   0  0  0  0  0  0  0  0  0  0  0  0
   15.2520    6.5510   22.1014 H   0  0  0  0  0  0  0  0  0  0  0  0
  1  2  1  0
  2  3  1  0
  3  4  1  0
  4  5  1  0
  5  6  1  0
  6  7  1  0
  7  8  1  0
  8  9  1  0
  9 10  1  0
 10 11  1  0
 11 12  1  0
 12 13  1  0
 13 14  1  0
  1 15  1  0
  1 16  1  0
  2 17  1  0
  2 18  1  0
  3 19  1  0
  3 20  1  0
  4 21  1  0
  4 22  1  0
  5 23  1  0
  6 24  1  0
  6 25  1  0
  7 26  1  0
  7 27  1  0
  8 28  1  0
  8 29  1  0
  9 30  1  0
  9 31  1  0
 10 32  1  0
 11 33  1  0
 11 34  1  0
 12 35  1  0
 12 36  1  0
 13 37  1  0
 13 38  1  0
 14 39  1  0
 14 40  1  0
A    1
N1
A    2
C2
A    3
C3
A    4
C4
A    5
N5
A    6
C6
A    7
C7
A    8
C8
A    9
C9
A   10
N10
A   11
C11
A   12
C12
A   13
C13
A   14
N14
M  END
