3KVV_R2B_A_256
     RDKit          3D

 17 17  0  0  0  0  0  0  0  0999 V2000
   98.0470   13.6960  -46.9020 C   0  0  0  0  0  0  0  0  0  0  0  0
   97.1400   13.0750  -45.9630 O   0  0  0  0  0  0  0  0  0  0  0  0
   96.7840   11.7530  -46.3890 C   0  0  0  0  0  0  0  0  0  0  0  0
   97.2100   10.7340  -45.3460 C   0  0  0  0  0  0  0  0  0  0  0  0
   96.6720   11.1370  -44.0780 O   0  0  0  0  0  0  0  0  0  0  0  0
   97.4890   11.5530  -47.7250 C   0  0  0  0  0  0  0  0  0  0  0  0
   96.5110   11.2930  -48.7340 O   0  0  0  0  0  0  0  0  0  0  0  0
   98.1130   12.8930  -47.9640 C   0  0  0  0  0  0  0  0  0  0  0  0
   98.6610   13.2800  -49.0970 O   0  0  0  0  0  0  0  0  0  0  0  0
   98.5803   14.6484  -46.7662 H   0  0  0  0  0  0  0  0  0  0  0  0
   95.6982   11.6216  -46.5061 H   0  0  0  0  0  0  0  0  0  0  0  0
   96.8223    9.7407  -45.6160 H   0  0  0  0  0  0  0  0  0  0  0  0
   98.3075   10.6811  -45.2931 H   0  0  0  0  0  0  0  0  0  0  0  0
   97.2083   10.7353  -43.3493 H   0  0  0  0  0  0  0  0  0  0  0  0
   98.2086   10.7211  -47.7359 H   0  0  0  0  0  0  0  0  0  0  0  0
   95.6483   11.0636  -48.3060 H   0  0  0  0  0  0  0  0  0  0  0  0
   99.4696   13.8511  -49.0861 H   0  0  0  0  0  0  0  0  0  0  0  0
  1  2  1  0
  1  8  2  0
  2  3  1  0
  3  4  1  0
  3  6  1  0
  4  5  1  0
  6  7  1  0
  6  8  1  0
  8  9  1  0
  1 10  1  0
  3 11  1  0
  4 12  1  0
  4 13  1  0
  5 14  1  0
  6 15  1  0
  7 16  1  0
  9 17  1  0
A    1
C1'
A    2
O4'
A    3
C4'
A    4
C5'
A    5
O5'
A    6
C3'
A    7
O3'
A    8
C2'
A    9
O2'
M  END
