3KW1_ENW_D_140
     RDKit          3D

 21 20  0  0  0  0  0  0  0  0999 V2000
   18.9460    5.3500   39.5430 C   0  0  0  0  0  0  0  0  0  0  0  0
   19.4900    4.5960   40.7620 C   0  0  0  0  0  0  0  0  0  0  0  0
   20.7540    3.9990   40.6670 F   0  0  0  0  0  0  0  0  0  0  0  0
   17.6610    5.1790   39.1910 O   0  0  0  0  0  0  0  0  0  0  0  0
   19.6230    6.1240   38.8520 O   0  0  0  0  0  0  0  0  0  0  0  0
   17.0540    6.2290   38.4450 C   0  0  0  0  0  0  0  0  0  0  0  0
   15.6400    5.8180   38.0760 C   0  0  0  0  0  0  0  0  0  0  0  0
   15.3860    6.1920   36.7120 N   0  0  0  0  0  0  0  0  0  0  0  0
   14.3830    5.7450   35.9590 C   0  0  0  0  0  0  0  0  0  0  0  0
   13.3980    4.7380   36.4810 C   0  0  0  0  0  0  0  0  0  0  0  0
   14.3020    6.1630   34.8180 O   0  0  0  0  0  0  0  0  0  0  0  0
   19.5305    5.3123   41.5959 H   0  0  0  0  0  0  0  0  0  0  0  0
   18.7995    3.7487   40.8859 H   0  0  0  0  0  0  0  0  0  0  0  0
   17.0252    7.1450   39.0534 H   0  0  0  0  0  0  0  0  0  0  0  0
   17.6360    6.4212   37.5316 H   0  0  0  0  0  0  0  0  0  0  0  0
   15.5317    4.7289   38.1863 H   0  0  0  0  0  0  0  0  0  0  0  0
   14.9212    6.3209   38.7397 H   0  0  0  0  0  0  0  0  0  0  0  0
   16.0359    6.8639   36.2795 H   0  0  0  0  0  0  0  0  0  0  0  0
   13.4096    4.7498   37.5809 H   0  0  0  0  0  0  0  0  0  0  0  0
   12.3895    4.9914   36.1222 H   0  0  0  0  0  0  0  0  0  0  0  0
   13.6736    3.7354   36.1222 H   0  0  0  0  0  0  0  0  0  0  0  0
  1  4  1  0
  1  2  1  0
  3  2  1  0
  5  1  2  0
  6  4  1  0
  7  6  1  0
  8  7  1  0
  9  8  1  0
  9 10  1  0
 11  9  2  0
  2 12  1  0
  2 13  1  0
  6 14  1  0
  6 15  1  0
  7 16  1  0
  7 17  1  0
  8 18  1  0
 10 19  1  0
 10 20  1  0
 10 21  1  0
A    1
C2
A    2
C3
A    3
F4
A    4
O4
A    5
O5
A    6
C6
A    7
C7
A    8
N8
A    9
C9
A   10
C10
A   11
O11
M  END
