3KW4_TIC_A_600
     RDKit          3D

 31 33  0  0  0  0  0  0  0  0999 V2000
   -5.6610   31.1370   21.9540 C   0  0  0  0  0  0  0  0  0  0  0  0
   -4.5740   32.1490   21.8400 N   0  0  0  0  0  0  0  0  0  0  0  0
   -7.2040   32.2500   25.4850 S   0  0  0  0  0  0  0  0  0  0  0  0
   -2.1550   31.6710   19.4560 Cl  0  0  0  0  0  0  0  0  0  0  0  0
   -4.9970   33.4660   22.4040 C   0  0  0  0  0  0  0  0  0  0  0  0
   -6.0310   30.8250   23.4170 C   0  0  0  0  0  0  0  0  0  0  0  0
   -5.8330   33.3100   23.6140 C   0  0  0  0  0  0  0  0  0  0  0  0
   -6.2900   32.1080   24.0760 C   0  0  0  0  0  0  0  0  0  0  0  0
   -3.2580   31.6260   22.3190 C   0  0  0  0  0  0  0  0  0  0  0  0
   -2.9090   30.2950   21.7170 C   0  0  0  0  0  0  0  0  0  0  0  0
   -6.2430   34.3950   24.4520 C   0  0  0  0  0  0  0  0  0  0  0  0
   -6.9900   33.9410   25.4940 C   0  0  0  0  0  0  0  0  0  0  0  0
   -2.3970   30.2390   20.4230 C   0  0  0  0  0  0  0  0  0  0  0  0
   -3.0780   29.0870   22.4040 C   0  0  0  0  0  0  0  0  0  0  0  0
   -2.0530   29.0420   19.8100 C   0  0  0  0  0  0  0  0  0  0  0  0
   -2.7400   27.8820   21.7990 C   0  0  0  0  0  0  0  0  0  0  0  0
   -2.2280   27.8530   20.5070 C   0  0  0  0  0  0  0  0  0  0  0  0
   -6.5543   31.5203   21.4390 H   0  0  0  0  0  0  0  0  0  0  0  0
   -5.2970   30.2050   21.4970 H   0  0  0  0  0  0  0  0  0  0  0  0
   -4.0989   34.0448   22.6655 H   0  0  0  0  0  0  0  0  0  0  0  0
   -5.5975   33.9840   21.6417 H   0  0  0  0  0  0  0  0  0  0  0  0
   -6.9309   30.1934   23.4527 H   0  0  0  0  0  0  0  0  0  0  0  0
   -5.2176   30.2820   23.9206 H   0  0  0  0  0  0  0  0  0  0  0  0
   -2.4736   32.3495   22.0520 H   0  0  0  0  0  0  0  0  0  0  0  0
   -3.3316   31.4889   23.4079 H   0  0  0  0  0  0  0  0  0  0  0  0
   -5.9890   35.4509   24.2775 H   0  0  0  0  0  0  0  0  0  0  0  0
   -7.4140   34.5999   26.2661 H   0  0  0  0  0  0  0  0  0  0  0  0
   -3.4803   29.0914   23.4278 H   0  0  0  0  0  0  0  0  0  0  0  0
   -1.6478   29.0350   18.7874 H   0  0  0  0  0  0  0  0  0  0  0  0
   -2.8794   26.9399   22.3494 H   0  0  0  0  0  0  0  0  0  0  0  0
   -1.9628   26.8936   20.0389 H   0  0  0  0  0  0  0  0  0  0  0  0
  1  2  1  0
  1  6  1  0
  2  5  1  0
  2  9  1  0
  3  8  1  0
  3 12  1  0
  4 13  1  0
  5  7  1  0
  6  8  1  0
  7  8  2  0
  7 11  1  0
  9 10  1  0
 10 13  2  0
 10 14  1  0
 11 12  2  0
 13 15  1  0
 14 16  2  0
 15 17  2  0
 16 17  1  0
  1 18  1  0
  1 19  1  0
  5 20  1  0
  5 21  1  0
  6 22  1  0
  6 23  1  0
  9 24  1  0
  9 25  1  0
 11 26  1  0
 12 27  1  0
 14 28  1  0
 15 29  1  0
 16 30  1  0
 17 31  1  0
A    1
C1
A    2
N1
A    3
S1
A    4
CL1
A    5
C2
A    6
C3
A    7
C4
A    8
C5
A    9
C6
A   10
C7
A   11
C8
A   12
C9
A   13
C10
A   14
C11
A   15
C12
A   16
C13
A   17
C14
M  END
