3KX1_KX1_A_216
     RDKit          3D

 54 56  0  0  0  0  0  0  0  0999 V2000
  -16.9260   12.0360   -4.1590 N   0  0  0  0  0  0  0  0  0  0  0  0
  -16.8330   13.3810   -4.1810 C   0  0  0  0  0  0  0  0  0  0  0  0
  -16.1480   14.0510   -3.1420 C   0  0  0  0  0  0  0  0  0  0  0  0
  -15.6040   13.2800   -2.1000 C   0  0  0  0  0  0  0  0  0  0  0  0
  -15.6960   11.9390   -2.1110 N   0  0  0  0  0  0  0  0  0  0  0  0
  -16.3520   11.3800   -3.1390 C   0  0  0  0  0  0  0  0  0  0  0  0
  -14.8070   13.8190   -0.9160 C   0  0  0  0  0  0  0  0  0  0  0  0
  -15.6030   14.5560    0.1760 C   0  0  0  0  0  0  0  0  0  0  0  0
  -15.2720   14.0560    1.5930 C   0  0  0  0  0  0  0  0  0  0  0  0
  -17.5540   13.9210   -5.4470 C   0  0  0  0  0  0  0  0  0  0  0  0
  -19.0410   14.2250   -5.1970 C   0  0  0  0  0  0  0  0  0  0  0  0
  -20.0310   13.9550   -6.3310 C   0  0  0  0  0  0  0  0  0  0  0  0
  -16.9350   15.1360   -6.1150 C   0  0  0  0  0  0  0  0  0  0  0  0
  -20.0260   14.8590   -7.5680 C   0  0  0  0  0  0  0  0  0  0  0  0
  -17.4990   15.2980   -7.5260 C   0  0  0  0  0  0  0  0  0  0  0  0
  -18.9050   15.8820   -7.6390 C   0  0  0  0  0  0  0  0  0  0  0  0
  -16.5590    9.9250   -3.2250 C   0  0  0  0  0  0  0  0  0  0  0  0
  -16.2690   14.5740    2.6480 N   0  0  0  0  0  0  0  0  0  0  0  0
  -16.3120    9.0120   -2.3410 N   0  0  0  0  0  0  0  0  0  0  0  0
  -15.5600   14.8270    3.9770 C   0  0  0  0  0  0  0  0  0  0  0  0
  -16.5410   15.3120    5.0450 C   0  0  0  0  0  0  0  0  0  0  0  0
  -17.7030   14.3330    5.2480 C   0  0  0  0  0  0  0  0  0  0  0  0
  -18.4220   14.1000    3.9220 C   0  0  0  0  0  0  0  0  0  0  0  0
  -17.4670   13.6420    2.8200 C   0  0  0  0  0  0  0  0  0  0  0  0
  -16.0434   15.1460   -3.1486 H   0  0  0  0  0  0  0  0  0  0  0  0
  -14.2994   12.9668   -0.4405 H   0  0  0  0  0  0  0  0  0  0  0  0
  -14.1327   14.5762   -1.3425 H   0  0  0  0  0  0  0  0  0  0  0  0
  -15.3689   15.6292    0.1181 H   0  0  0  0  0  0  0  0  0  0  0  0
  -16.6707   14.3618   -0.0035 H   0  0  0  0  0  0  0  0  0  0  0  0
  -15.2966   12.9563    1.5940 H   0  0  0  0  0  0  0  0  0  0  0  0
  -14.2751   14.4378    1.8584 H   0  0  0  0  0  0  0  0  0  0  0  0
  -17.4309   13.0784   -6.1433 H   0  0  0  0  0  0  0  0  0  0  0  0
  -19.3580   13.6193   -4.3353 H   0  0  0  0  0  0  0  0  0  0  0  0
  -19.0778   15.3152   -5.0548 H   0  0  0  0  0  0  0  0  0  0  0  0
  -19.8425   12.9300   -6.6830 H   0  0  0  0  0  0  0  0  0  0  0  0
  -21.0106   14.1519   -5.8711 H   0  0  0  0  0  0  0  0  0  0  0  0
  -17.1667   16.0345   -5.5243 H   0  0  0  0  0  0  0  0  0  0  0  0
  -15.8450   15.0005   -6.1742 H   0  0  0  0  0  0  0  0  0  0  0  0
  -19.9504   14.2143   -8.4560 H   0  0  0  0  0  0  0  0  0  0  0  0
  -20.9573   15.4419   -7.5139 H   0  0  0  0  0  0  0  0  0  0  0  0
  -16.8181   15.9579   -8.0835 H   0  0  0  0  0  0  0  0  0  0  0  0
  -17.5773   14.2760   -7.9253 H   0  0  0  0  0  0  0  0  0  0  0  0
  -18.9812   16.4072   -8.6025 H   0  0  0  0  0  0  0  0  0  0  0  0
  -19.0357   16.5461   -6.7719 H   0  0  0  0  0  0  0  0  0  0  0  0
  -15.0926   13.8914    4.3178 H   0  0  0  0  0  0  0  0  0  0  0  0
  -14.8001   15.6072    3.8228 H   0  0  0  0  0  0  0  0  0  0  0  0
  -16.0017   15.4246    5.9971 H   0  0  0  0  0  0  0  0  0  0  0  0
  -16.9612   16.2712    4.7084 H   0  0  0  0  0  0  0  0  0  0  0  0
  -17.3125   13.3761    5.6245 H   0  0  0  0  0  0  0  0  0  0  0  0
  -18.4114   14.7567    5.9751 H   0  0  0  0  0  0  0  0  0  0  0  0
  -19.1917   13.3277    4.0673 H   0  0  0  0  0  0  0  0  0  0  0  0
  -18.8677   15.0551    3.6072 H   0  0  0  0  0  0  0  0  0  0  0  0
  -18.0202   13.6021    1.8701 H   0  0  0  0  0  0  0  0  0  0  0  0
  -17.0786   12.6541    3.1086 H   0  0  0  0  0  0  0  0  0  0  0  0
  1  2  2  0
  1  6  1  0
  2  3  1  0
  2 10  1  0
  3  4  2  0
  4  5  1  0
  4  7  1  0
  5  6  2  0
  6 17  1  0
  7  8  1  0
  8  9  1  0
  9 18  1  0
 10 11  1  0
 10 13  1  0
 11 12  1  0
 12 14  1  0
 13 15  1  0
 14 16  1  0
 15 16  1  0
 17 19  3  0
 18 20  1  0
 18 24  1  0
 20 21  1  0
 21 22  1  0
 22 23  1  0
 23 24  1  0
  3 25  1  0
  7 26  1  0
  7 27  1  0
  8 28  1  0
  8 29  1  0
  9 30  1  0
  9 31  1  0
 10 32  1  0
 11 33  1  0
 11 34  1  0
 12 35  1  0
 12 36  1  0
 13 37  1  0
 13 38  1  0
 14 39  1  0
 14 40  1  0
 15 41  1  0
 15 42  1  0
 16 43  1  0
 16 44  1  0
 20 45  1  0
 20 46  1  0
 21 47  1  0
 21 48  1  0
 22 49  1  0
 22 50  1  0
 23 51  1  0
 23 52  1  0
 24 53  1  0
 24 54  1  0
A    1
N1
A    2
C2
A    3
C3
A    4
C4
A    5
N5
A    6
C6
A    7
C7
A    8
C8
A    9
C9
A   10
C10
A   11
C11
A   12
C12
A   13
C13
A   14
C14
A   15
C15
A   16
C16
A   17
C17
A   18
N18
A   19
N19
A   20
C20
A   21
C21
A   22
C22
A   23
C23
A   24
C24
M  END
