3KXH_K66_A_1
     RDKit          3D

 29 30  0  0  0  0  0  0  0  0999 V2000
   21.9780    7.0870   20.7790 C   0  0  0  0  0  0  0  0  0  0  0  0
   23.0160    6.4820   20.0830 C   0  0  0  0  0  0  0  0  0  0  0  0
   23.4310    7.0490   18.8840 C   0  0  0  0  0  0  0  0  0  0  0  0
   22.8480    8.1920   18.3600 C   0  0  0  0  0  0  0  0  0  0  0  0
   21.8140    8.7830   19.0660 C   0  0  0  0  0  0  0  0  0  0  0  0
   21.3840    8.2330   20.2670 C   0  0  0  0  0  0  0  0  0  0  0  0
   23.4480    8.9240   16.7240 Br  0  0  0  0  0  0  0  0  0  0  0  0
   20.9850   10.3430   18.3940 Br  0  0  0  0  0  0  0  0  0  0  0  0
   19.9710    9.0540   21.2160 Br  0  0  0  0  0  0  0  0  0  0  0  0
   21.3770    6.3550   22.4150 Br  0  0  0  0  0  0  0  0  0  0  0  0
   23.7860    5.3890   20.3010 N   0  0  0  0  0  0  0  0  0  0  0  0
   24.4320    6.3420   18.3530 N   0  0  0  0  0  0  0  0  0  0  0  0
   24.6090    5.3600   19.2350 C   0  0  0  0  0  0  0  0  0  0  0  0
   25.5590    4.3930   19.0700 N   0  0  0  0  0  0  0  0  0  0  0  0
   26.1130    3.7130   20.2300 C   0  0  0  0  0  0  0  0  0  0  0  0
   26.0160    4.0430   17.7340 C   0  0  0  0  0  0  0  0  0  0  0  0
   25.1570    6.5870   17.1070 C   0  0  0  0  0  0  0  0  0  0  0  0
   24.2850    6.2090   15.9340 C   0  0  0  0  0  0  0  0  0  0  0  0
   23.1970    5.6360   16.1590 O   0  0  0  0  0  0  0  0  0  0  0  0
   24.6840    6.4830   14.7820 O   0  0  0  0  0  0  0  0  0  0  0  0
   25.7302    4.1829   21.1480 H   0  0  0  0  0  0  0  0  0  0  0  0
   25.8176    2.6536   20.2097 H   0  0  0  0  0  0  0  0  0  0  0  0
   27.2102    3.7882   20.2097 H   0  0  0  0  0  0  0  0  0  0  0  0
   26.8873    3.3757   17.8076 H   0  0  0  0  0  0  0  0  0  0  0  0
   25.2070    3.5313   17.1921 H   0  0  0  0  0  0  0  0  0  0  0  0
   26.2992    4.9574   17.1921 H   0  0  0  0  0  0  0  0  0  0  0  0
   25.4202    7.6529   17.0396 H   0  0  0  0  0  0  0  0  0  0  0  0
   26.0747    5.9807   17.0918 H   0  0  0  0  0  0  0  0  0  0  0  0
   22.9027    5.4810   17.0915 H   0  0  0  0  0  0  0  0  0  0  0  0
  2  1  2  0
  6  1  1  0
  1 10  1  0
  3  2  1  0
  2 11  1  0
 12  3  1  0
  4  3  2  0
  7  4  1  0
  4  5  1  0
  8  5  1  0
  5  6  2  0
  6  9  1  0
 13 11  2  0
 17 12  1  0
 12 13  1  0
 14 13  1  0
 16 14  1  0
 14 15  1  0
 18 17  1  0
 20 18  2  0
 19 18  1  0
 15 21  1  0
 15 22  1  0
 15 23  1  0
 16 24  1  0
 16 25  1  0
 16 26  1  0
 17 27  1  0
 17 28  1  0
 19 29  1  0
A    1
C1
A    2
C2
A    3
C3
A    4
C4
A    5
C5
A    6
C6
A    7
BR13
A    8
BR15
A    9
BR17
A   10
BR19
A   11
N21
A   12
N23
A   13
C25
A   14
N28
A   15
C30
A   16
C32
A   17
C34
A   18
C36
A   19
O38
A   20
O40
M  END
