1ZHW_HC2_A_1001
     RDKit          3D

 75 78  0  0  0  0  0  0  0  0999 V2000
   57.2880   36.2750   33.2290 C   0  0  0  0  0  0  0  0  0  0  0  0
   57.3430   36.3930   34.7560 C   0  0  0  0  0  0  0  0  0  0  0  0
   55.9560   36.1850   35.3730 C   0  0  0  0  0  0  0  0  0  0  0  0
   55.4390   34.7890   35.0140 C   0  0  0  0  0  0  0  0  0  0  0  0
   55.5270   34.5410   33.5060 C   0  0  0  0  0  0  0  0  0  0  0  0
   54.4320   33.9970   32.8420 C   0  0  0  0  0  0  0  0  0  0  0  0
   54.3420   33.7260   31.4810 C   0  0  0  0  0  0  0  0  0  0  0  0
   55.7030   33.7430   30.7770 C   0  0  0  0  0  0  0  0  0  0  0  0
   56.5470   34.9410   31.2330 C   0  0  0  0  0  0  0  0  0  0  0  0
   56.8100   34.9000   32.7460 C   0  0  0  0  0  0  0  0  0  0  0  0
   57.8370   35.0620   30.4090 C   0  0  0  0  0  0  0  0  0  0  0  0
   57.5770   35.0670   28.8970 C   0  0  0  0  0  0  0  0  0  0  0  0
   56.8090   33.8090   28.4790 C   0  0  0  0  0  0  0  0  0  0  0  0
   55.4940   33.8030   29.2610 C   0  0  0  0  0  0  0  0  0  0  0  0
   54.7520   32.6220   28.6320 C   0  0  0  0  0  0  0  0  0  0  0  0
   55.0120   32.8590   27.1410 C   0  0  0  0  0  0  0  0  0  0  0  0
   56.1730   33.8610   27.0840 C   0  0  0  0  0  0  0  0  0  0  0  0
   57.6340   32.5410   28.7270 C   0  0  0  0  0  0  0  0  0  0  0  0
   57.8660   33.8390   33.0770 C   0  0  0  0  0  0  0  0  0  0  0  0
   57.0790   33.6710   25.8600 C   0  0  0  0  0  0  0  0  0  0  0  0
   57.7750   32.3070   25.8680 C   0  0  0  0  0  0  0  0  0  0  0  0
   56.2410   33.8070   24.5830 C   0  0  0  0  0  0  0  0  0  0  0  0
   57.0610   33.6190   23.3030 C   0  0  0  0  0  0  0  0  0  0  0  0
   56.1880   33.6750   22.0460 C   0  0  0  0  0  0  0  0  0  0  0  0
   55.2100   32.5020   21.9370 C   0  0  0  0  0  0  0  0  0  0  0  0
   54.3080   32.6750   20.7120 C   0  0  0  0  0  0  0  0  0  0  0  0
   55.9410   31.1600   21.8490 C   0  0  0  0  0  0  0  0  0  0  0  0
   56.0370   36.3160   36.7960 O   0  0  0  0  0  0  0  0  0  0  0  0
   58.0600   34.7120   25.8590 O   0  0  0  0  0  0  0  0  0  0  0  0
   56.5979   37.0401   32.8439 H   0  0  0  0  0  0  0  0  0  0  0  0
   58.3122   36.4155   32.8532 H   0  0  0  0  0  0  0  0  0  0  0  0
   58.0305   35.6307   35.1512 H   0  0  0  0  0  0  0  0  0  0  0  0
   57.6951   37.4019   35.0171 H   0  0  0  0  0  0  0  0  0  0  0  0
   55.2643   36.9433   34.9773 H   0  0  0  0  0  0  0  0  0  0  0  0
   56.0451   34.0354   35.5382 H   0  0  0  0  0  0  0  0  0  0  0  0
   54.3847   34.7171   35.3195 H   0  0  0  0  0  0  0  0  0  0  0  0
   53.5501   33.7575   33.4543 H   0  0  0  0  0  0  0  0  0  0  0  0
   53.8920   32.7308   31.3505 H   0  0  0  0  0  0  0  0  0  0  0  0
   53.7265   34.5169   31.0275 H   0  0  0  0  0  0  0  0  0  0  0  0
   56.2434   32.8224   31.0426 H   0  0  0  0  0  0  0  0  0  0  0  0
   55.9672   35.8563   31.0431 H   0  0  0  0  0  0  0  0  0  0  0  0
   58.3420   36.0003   30.6821 H   0  0  0  0  0  0  0  0  0  0  0  0
   58.4590   34.1835   30.6357 H   0  0  0  0  0  0  0  0  0  0  0  0
   56.9849   35.9562   28.6347 H   0  0  0  0  0  0  0  0  0  0  0  0
   58.5427   35.0848   28.3706 H   0  0  0  0  0  0  0  0  0  0  0  0
   54.9071   34.7301   29.1833 H   0  0  0  0  0  0  0  0  0  0  0  0
   55.1703   31.6608   28.9653 H   0  0  0  0  0  0  0  0  0  0  0  0
   53.6863   32.5677   28.8989 H   0  0  0  0  0  0  0  0  0  0  0  0
   55.2912   31.9179   26.6447 H   0  0  0  0  0  0  0  0  0  0  0  0
   54.1179   33.2391   26.6252 H   0  0  0  0  0  0  0  0  0  0  0  0
   55.8555   34.8969   26.8937 H   0  0  0  0  0  0  0  0  0  0  0  0
   57.7398   32.3783   29.8097 H   0  0  0  0  0  0  0  0  0  0  0  0
   57.1243   31.6776   28.2746 H   0  0  0  0  0  0  0  0  0  0  0  0
   58.6299   32.6572   28.2746 H   0  0  0  0  0  0  0  0  0  0  0  0
   57.9606   33.7439   34.1688 H   0  0  0  0  0  0  0  0  0  0  0  0
   57.5610   32.8723   32.6498 H   0  0  0  0  0  0  0  0  0  0  0  0
   58.8341   34.1395   32.6498 H   0  0  0  0  0  0  0  0  0  0  0  0
   57.9392   31.9852   26.9070 H   0  0  0  0  0  0  0  0  0  0  0  0
   57.1429   31.5698   25.3514 H   0  0  0  0  0  0  0  0  0  0  0  0
   58.7429   32.3862   25.3514 H   0  0  0  0  0  0  0  0  0  0  0  0
   55.4455   33.0475   24.6038 H   0  0  0  0  0  0  0  0  0  0  0  0
   55.8345   34.8290   24.5649 H   0  0  0  0  0  0  0  0  0  0  0  0
   57.8168   34.4162   23.2457 H   0  0  0  0  0  0  0  0  0  0  0  0
   57.5312   32.6254   23.3448 H   0  0  0  0  0  0  0  0  0  0  0  0
   55.6105   34.6110   22.0631 H   0  0  0  0  0  0  0  0  0  0  0  0
   56.8615   33.6202   21.1780 H   0  0  0  0  0  0  0  0  0  0  0  0
   54.5975   32.4992   22.8507 H   0  0  0  0  0  0  0  0  0  0  0  0
   53.2771   32.8727   21.0408 H   0  0  0  0  0  0  0  0  0  0  0  0
   54.6686   33.5203   20.1076 H   0  0  0  0  0  0  0  0  0  0  0  0
   54.3303   31.7562   20.1076 H   0  0  0  0  0  0  0  0  0  0  0  0
   56.1446   30.7862   22.8633 H   0  0  0  0  0  0  0  0  0  0  0  0
   55.3131   30.4351   21.3102 H   0  0  0  0  0  0  0  0  0  0  0  0
   56.8906   31.2943   21.3102 H   0  0  0  0  0  0  0  0  0  0  0  0
   55.5677   35.5569   37.2245 H   0  0  0  0  0  0  0  0  0  0  0  0
   58.2868   34.9526   26.7922 H   0  0  0  0  0  0  0  0  0  0  0  0
  1  2  1  0
  1 10  1  0
  2  3  1  0
  3  4  1  0
  3 28  1  0
  4  5  1  0
  5  6  2  0
  5 10  1  0
  6  7  1  0
  7  8  1  0
  8  9  1  0
  8 14  1  0
  9 10  1  0
  9 11  1  0
 10 19  1  0
 11 12  1  0
 12 13  1  0
 13 14  1  0
 13 17  1  0
 13 18  1  0
 14 15  1  0
 15 16  1  0
 16 17  1  0
 17 20  1  0
 20 21  1  0
 20 22  1  0
 20 29  1  0
 22 23  1  0
 23 24  1  0
 24 25  1  0
 25 26  1  0
 25 27  1  0
  1 30  1  0
  1 31  1  0
  2 32  1  0
  2 33  1  0
  3 34  1  0
  4 35  1  0
  4 36  1  0
  6 37  1  0
  7 38  1  0
  7 39  1  0
  8 40  1  0
  9 41  1  0
 11 42  1  0
 11 43  1  0
 12 44  1  0
 12 45  1  0
 14 46  1  0
 15 47  1  0
 15 48  1  0
 16 49  1  0
 16 50  1  0
 17 51  1  0
 18 52  1  0
 18 53  1  0
 18 54  1  0
 19 55  1  0
 19 56  1  0
 19 57  1  0
 21 58  1  0
 21 59  1  0
 21 60  1  0
 22 61  1  0
 22 62  1  0
 23 63  1  0
 23 64  1  0
 24 65  1  0
 24 66  1  0
 25 67  1  0
 26 68  1  0
 26 69  1  0
 26 70  1  0
 27 71  1  0
 27 72  1  0
 27 73  1  0
 28 74  1  0
 29 75  1  0
A    1
C1
A    2
C2
A    3
C3
A    4
C4
A    5
C5
A    6
C6
A    7
C7
A    8
C8
A    9
C9
A   10
C10
A   11
C11
A   12
C12
A   13
C13
A   14
C14
A   15
C15
A   16
C16
A   17
C17
A   18
C18
A   19
C19
A   20
C20
A   21
C21
A   22
C22
A   23
C23
A   24
C24
A   25
C25
A   26
C26
A   27
C27
A   28
O1
A   29
O2
M  END
