3EX0_6AU_A_481
     RDKit          3D

 39 40  0  0  0  0  0  0  0  0999 V2000
   27.2930  -10.7730   13.7680 O   0  0  0  0  0  0  0  0  0  0  0  0
   26.2690  -11.0760   14.8420 P   0  0  0  0  0  0  0  0  0  0  0  0
   25.0380  -11.7150   14.3130 O   0  0  0  0  0  0  0  0  0  0  0  0
   26.9060  -11.8150   15.9800 O   0  0  0  0  0  0  0  0  0  0  0  0
   25.8970   -9.6760   15.5360 O   0  0  0  0  0  0  0  0  0  0  0  0
   25.0770   -8.7090   14.8900 C   0  0  0  0  0  0  0  0  0  0  0  0
   25.0710   -7.4640   15.7860 C   0  0  0  0  0  0  0  0  0  0  0  0
   24.2560   -7.6510   17.0510 C   0  0  0  0  0  0  0  0  0  0  0  0
   22.9130   -7.0770   16.6780 C   0  0  0  0  0  0  0  0  0  0  0  0
   22.2360   -6.5950   17.8250 O   0  0  0  0  0  0  0  0  0  0  0  0
   23.2730   -5.9870   15.6600 C   0  0  0  0  0  0  0  0  0  0  0  0
   24.5220   -6.3380   15.0870 O   0  0  0  0  0  0  0  0  0  0  0  0
   22.2770   -5.7520   14.5990 N   0  0  0  0  0  0  0  0  0  0  0  0
   21.6650   -4.4770   14.4270 C   0  0  0  0  0  0  0  0  0  0  0  0
   22.4430   -3.2290   14.5500 C   0  0  0  0  0  0  0  0  0  0  0  0
   23.9050   -3.2730   14.4800 C   0  0  0  0  0  0  0  0  0  0  0  0
   21.8140   -2.0880   14.6520 O   0  0  0  0  0  0  0  0  0  0  0  0
   20.5310   -4.3480   13.5510 C   0  0  0  0  0  0  0  0  0  0  0  0
   20.1930   -5.4480   12.8050 C   0  0  0  0  0  0  0  0  0  0  0  0
   19.2890   -5.3790   11.9520 O   0  0  0  0  0  0  0  0  0  0  0  0
   20.8760   -6.5830   12.9140 N   0  0  0  0  0  0  0  0  0  0  0  0
   21.8760   -6.7850   13.7850 C   0  0  0  0  0  0  0  0  0  0  0  0
   22.4060   -7.9040   13.8430 O   0  0  0  0  0  0  0  0  0  0  0  0
   24.8430   -6.9370   18.1610 O   0  0  0  0  0  0  0  0  0  0  0  0
   24.4691  -12.0103   15.0675 H   0  0  0  0  0  0  0  0  0  0  0  0
   26.5836  -11.4410   16.8380 H   0  0  0  0  0  0  0  0  0  0  0  0
   25.4903   -8.4619   13.9010 H   0  0  0  0  0  0  0  0  0  0  0  0
   24.0570   -9.0928   14.7404 H   0  0  0  0  0  0  0  0  0  0  0  0
   26.1228   -7.2918   16.0583 H   0  0  0  0  0  0  0  0  0  0  0  0
   24.2005   -8.6992   17.3798 H   0  0  0  0  0  0  0  0  0  0  0  0
   22.2088   -7.8055   16.2498 H   0  0  0  0  0  0  0  0  0  0  0  0
   22.6940   -6.9211   18.6399 H   0  0  0  0  0  0  0  0  0  0  0  0
   23.3084   -5.0345   16.2091 H   0  0  0  0  0  0  0  0  0  0  0  0
   24.3206   -3.2855   15.4984 H   0  0  0  0  0  0  0  0  0  0  0  0
   24.2193   -4.1810   13.9445 H   0  0  0  0  0  0  0  0  0  0  0  0
   24.2733   -2.3855   13.9445 H   0  0  0  0  0  0  0  0  0  0  0  0
   19.9610   -3.4097   13.4827 H   0  0  0  0  0  0  0  0  0  0  0  0
   20.6203   -7.3596   12.2876 H   0  0  0  0  0  0  0  0  0  0  0  0
   24.5216   -7.3279   19.0119 H   0  0  0  0  0  0  0  0  0  0  0  0
  1  2  2  0
  2  5  1  0
  2  4  1  0
  3  2  1  0
  6  5  1  0
  6  7  1  0
  7  8  1  0
  8 24  1  0
  9  8  1  0
  9 10  1  0
 11  9  1  0
 12  7  1  0
 12 11  1  0
 13 11  1  0
 14 13  1  0
 14 15  1  0
 15 17  2  0
 16 15  1  0
 18 14  2  0
 19 18  1  0
 19 21  1  0
 20 19  2  0
 21 22  1  0
 22 13  1  0
 22 23  2  0
  3 25  1  0
  4 26  1  0
  6 27  1  0
  6 28  1  0
  7 29  1  0
  8 30  1  0
  9 31  1  0
 10 32  1  0
 11 33  1  0
 16 34  1  0
 16 35  1  0
 16 36  1  0
 18 37  1  0
 21 38  1  0
 24 39  1  0
A    1
O3P
A    2
P
A    3
O1P
A    4
O2P
A    5
O5'
A    6
C5'
A    7
C4'
A    8
C3'
A    9
C2'
A   10
O2'
A   11
C1'
A   12
O4'
A   13
N1
A   14
C6
A   15
C7
A   16
C72
A   17
O71
A   18
C5
A   19
C4
A   20
O4
A   21
N3
A   22
C2
A   23
O2
A   24
O3'
M  END
