3EX5_S5P_A_481
     RDKit          3D

 35 36  0  0  0  0  0  0  0  0999 V2000
    2.7690    7.5010   21.5630 O   0  0  0  0  0  0  0  0  0  0  0  0
    3.1650    7.6730   22.7370 C   0  0  0  0  0  0  0  0  0  0  0  0
    3.5520    6.5640   23.5180 C   0  0  0  0  0  0  0  0  0  0  0  0
    4.0120    6.7650   24.8540 C   0  0  0  0  0  0  0  0  0  0  0  0
    4.0150    5.3760   25.9990 S   0  0  0  0  0  0  0  0  0  0  0  0
    3.1240    8.9230   23.2980 N   0  0  0  0  0  0  0  0  0  0  0  0
    3.5800    9.1150   24.6200 C   0  0  0  0  0  0  0  0  0  0  0  0
    3.5950   10.2930   25.1210 O   0  0  0  0  0  0  0  0  0  0  0  0
    4.1000    8.0300   25.3510 N   0  0  0  0  0  0  0  0  0  0  0  0
    4.6540    8.2420   26.7510 C   0  0  0  0  0  0  0  0  0  0  0  0
    3.5920    8.6650   27.6530 O   0  0  0  0  0  0  0  0  0  0  0  0
    5.7650    9.3190   26.7690 C   0  0  0  0  0  0  0  0  0  0  0  0
    7.1330    8.7980   26.6520 O   0  0  0  0  0  0  0  0  0  0  0  0
    5.5620    9.9010   28.1750 C   0  0  0  0  0  0  0  0  0  0  0  0
    6.3870    9.1670   28.9990 O   0  0  0  0  0  0  0  0  0  0  0  0
    4.0930    9.6830   28.5340 C   0  0  0  0  0  0  0  0  0  0  0  0
    3.3050   10.9560   28.2370 C   0  0  0  0  0  0  0  0  0  0  0  0
    3.6810   11.9960   29.0870 O   0  0  0  0  0  0  0  0  0  0  0  0
    2.7970   13.3670   29.1650 P   0  0  0  0  0  0  0  0  0  0  0  0
    3.6210   14.1010   30.2130 O   0  0  0  0  0  0  0  0  0  0  0  0
    2.8100   14.0530   27.8740 O   0  0  0  0  0  0  0  0  0  0  0  0
    1.4620   13.0190   29.6060 O   0  0  0  0  0  0  0  0  0  0  0  0
    3.4995    5.5483   23.0990 H   0  0  0  0  0  0  0  0  0  0  0  0
    4.0140    5.8452   27.2861 H   0  0  0  0  0  0  0  0  0  0  0  0
    2.7613    9.7203   22.7561 H   0  0  0  0  0  0  0  0  0  0  0  0
    5.0797    7.2823   27.0792 H   0  0  0  0  0  0  0  0  0  0  0  0
    5.6811   10.0117   25.9186 H   0  0  0  0  0  0  0  0  0  0  0  0
    7.5099    8.6545   27.5561 H   0  0  0  0  0  0  0  0  0  0  0  0
    5.7962   10.9725   28.2592 H   0  0  0  0  0  0  0  0  0  0  0  0
    6.1676    9.3622   29.9444 H   0  0  0  0  0  0  0  0  0  0  0  0
    3.9949    9.4103   29.5951 H   0  0  0  0  0  0  0  0  0  0  0  0
    3.4925   11.2586   27.1962 H   0  0  0  0  0  0  0  0  0  0  0  0
    2.2367   10.7474   28.3959 H   0  0  0  0  0  0  0  0  0  0  0  0
    3.3197   13.8326   31.1171 H   0  0  0  0  0  0  0  0  0  0  0  0
    1.4328   13.0114   30.5955 H   0  0  0  0  0  0  0  0  0  0  0  0
  1  2  2  0
  2  6  1  0
  2  3  1  0
  3  4  2  0
  4  9  1  0
  4  5  1  0
  6  7  1  0
  7  8  2  0
  7  9  1  0
  9 10  1  0
 10 12  1  0
 10 11  1  0
 11 16  1  0
 12 14  1  0
 13 12  1  0
 14 16  1  0
 14 15  1  0
 17 16  1  0
 17 18  1  0
 18 19  1  0
 19 22  1  0
 19 20  1  0
 21 19  2  0
  3 23  1  0
  5 24  1  0
  6 25  1  0
 10 26  1  0
 12 27  1  0
 13 28  1  0
 14 29  1  0
 15 30  1  0
 16 31  1  0
 17 32  1  0
 17 33  1  0
 20 34  1  0
 22 35  1  0
A    1
O4
A    2
C4
A    3
C5
A    4
C6
A    5
S22
A    6
N3
A    7
C2
A    8
O2
A    9
N1
A   10
C1'
A   11
O4'
A   12
C2'
A   13
O2'
A   14
C3'
A   15
O3'
A   16
C4'
A   17
C5'
A   18
O5'
A   19
P
A   20
O3P
A   21
O1P
A   22
O2P
M  END
