3L1B_635_A_1
     RDKit          3D

 79 83  0  0  0  0  0  0  0  0999 V2000
   -0.1560   -3.1250   10.3480 C   0  0  0  0  0  0  0  0  0  0  0  0
   -3.4710   -3.6290    0.0470 F   0  0  0  0  0  0  0  0  0  0  0  0
   -4.0040    0.3300    7.6470 N   0  0  0  0  0  0  0  0  0  0  0  0
   -1.0610   -1.8500    8.5270 O   0  0  0  0  0  0  0  0  0  0  0  0
    0.1700   -2.3610    9.0680 C   0  0  0  0  0  0  0  0  0  0  0  0
   -2.3800   -2.2840    4.5760 N   0  0  0  0  0  0  0  0  0  0  0  0
   -0.5140   -2.6500    6.4450 O   0  0  0  0  0  0  0  0  0  0  0  0
    1.0290   -1.1250    9.3130 C   0  0  0  0  0  0  0  0  0  0  0  0
    3.6870    5.9230   12.1080 N   0  0  0  0  0  0  0  0  0  0  0  0
   -5.1510    2.2380    8.3170 O   0  0  0  0  0  0  0  0  0  0  0  0
   -1.2650   -2.0660    7.2040 C   0  0  0  0  0  0  0  0  0  0  0  0
    0.5260    4.1930   10.1220 O   0  0  0  0  0  0  0  0  0  0  0  0
   -2.5750   -1.4650    6.8370 C   0  0  0  0  0  0  0  0  0  0  0  0
    5.6620    7.2800   13.6690 O   0  0  0  0  0  0  0  0  0  0  0  0
   -2.8150   -0.3670    7.5640 C   0  0  0  0  0  0  0  0  0  0  0  0
   -5.2450   -0.2770    7.1540 C   0  0  0  0  0  0  0  0  0  0  0  0
   -5.4010   -0.3460    5.6090 C   0  0  0  0  0  0  0  0  0  0  0  0
   -4.3040   -1.1920    4.9610 C   0  0  0  0  0  0  0  0  0  0  0  0
   -3.0960   -1.5780    5.5290 C   0  0  0  0  0  0  0  0  0  0  0  0
   -3.1040   -2.4060    3.4240 C   0  0  0  0  0  0  0  0  0  0  0  0
   -4.3140   -1.7380    3.6230 C   0  0  0  0  0  0  0  0  0  0  0  0
   -5.2360   -1.6960    2.5530 C   0  0  0  0  0  0  0  0  0  0  0  0
   -4.9370   -2.3450    1.3480 C   0  0  0  0  0  0  0  0  0  0  0  0
   -3.7360   -3.0200    1.2120 C   0  0  0  0  0  0  0  0  0  0  0  0
   -2.7860   -3.0760    2.2370 C   0  0  0  0  0  0  0  0  0  0  0  0
   -6.7860   -0.9460    5.2850 C   0  0  0  0  0  0  0  0  0  0  0  0
   -5.3380    1.0970    5.0590 C   0  0  0  0  0  0  0  0  0  0  0  0
   -4.0970    1.6140    8.2150 C   0  0  0  0  0  0  0  0  0  0  0  0
   -2.8870    2.2870    8.7140 C   0  0  0  0  0  0  0  0  0  0  0  0
   -2.8850    2.7570   10.0250 C   0  0  0  0  0  0  0  0  0  0  0  0
   -1.7460    3.3960   10.5080 C   0  0  0  0  0  0  0  0  0  0  0  0
   -0.6210    3.5700    9.7010 C   0  0  0  0  0  0  0  0  0  0  0  0
   -0.6300    3.0930    8.3750 C   0  0  0  0  0  0  0  0  0  0  0  0
   -1.7670    2.4510    7.8830 C   0  0  0  0  0  0  0  0  0  0  0  0
    1.3500    4.9120    9.1930 C   0  0  0  0  0  0  0  0  0  0  0  0
    2.2400    5.8610   10.0160 C   0  0  0  0  0  0  0  0  0  0  0  0
    3.2100    5.1040   10.9190 C   0  0  0  0  0  0  0  0  0  0  0  0
    4.1550    7.3180   11.7470 C   0  0  0  0  0  0  0  0  0  0  0  0
    4.6360    8.0240   13.0070 C   0  0  0  0  0  0  0  0  0  0  0  0
    5.2000    5.9970   14.0860 C   0  0  0  0  0  0  0  0  0  0  0  0
    4.7670    5.1750   12.8810 C   0  0  0  0  0  0  0  0  0  0  0  0
    0.1071   -2.5084   11.2201 H   0  0  0  0  0  0  0  0  0  0  0  0
   -1.2311   -3.3562   10.3733 H   0  0  0  0  0  0  0  0  0  0  0  0
    0.4210   -4.0612   10.3733 H   0  0  0  0  0  0  0  0  0  0  0  0
    0.7040   -3.0626    8.4103 H   0  0  0  0  0  0  0  0  0  0  0  0
   -1.4331   -2.6642    4.7166 H   0  0  0  0  0  0  0  0  0  0  0  0
    1.1404   -0.9646   10.3955 H   0  0  0  0  0  0  0  0  0  0  0  0
    2.0206   -1.2720    8.8601 H   0  0  0  0  0  0  0  0  0  0  0  0
    0.5456   -0.2468    8.8601 H   0  0  0  0  0  0  0  0  0  0  0  0
   -1.9753    0.0215    8.1589 H   0  0  0  0  0  0  0  0  0  0  0  0
   -5.2955   -1.3043    7.5439 H   0  0  0  0  0  0  0  0  0  0  0  0
   -6.0562    0.3774    7.5057 H   0  0  0  0  0  0  0  0  0  0  0  0
   -6.1869   -1.1546    2.6660 H   0  0  0  0  0  0  0  0  0  0  0  0
   -5.6533   -2.3184    0.5136 H   0  0  0  0  0  0  0  0  0  0  0  0
   -1.8370   -3.6191    2.1164 H   0  0  0  0  0  0  0  0  0  0  0  0
   -7.3147   -1.1750    6.2220 H   0  0  0  0  0  0  0  0  0  0  0  0
   -7.3721   -0.2211    4.7010 H   0  0  0  0  0  0  0  0  0  0  0  0
   -6.6581   -1.8694    4.7010 H   0  0  0  0  0  0  0  0  0  0  0  0
   -5.3070    1.8080    5.8977 H   0  0  0  0  0  0  0  0  0  0  0  0
   -4.4338    1.2158    4.4439 H   0  0  0  0  0  0  0  0  0  0  0  0
   -6.2284    1.2942    4.4439 H   0  0  0  0  0  0  0  0  0  0  0  0
   -3.7679    2.6257   10.6678 H   0  0  0  0  0  0  0  0  0  0  0  0
   -1.7328    3.7697   11.5425 H   0  0  0  0  0  0  0  0  0  0  0  0
    0.2529    3.2258    7.7325 H   0  0  0  0  0  0  0  0  0  0  0  0
   -1.7859    2.0752    6.8493 H   0  0  0  0  0  0  0  0  0  0  0  0
    1.9748    4.2100    8.6214 H   0  0  0  0  0  0  0  0  0  0  0  0
    0.7329    5.4762    8.4783 H   0  0  0  0  0  0  0  0  0  0  0  0
    2.8183    6.4922    9.3253 H   0  0  0  0  0  0  0  0  0  0  0  0
    1.5839    6.4669   10.6582 H   0  0  0  0  0  0  0  0  0  0  0  0
    4.0865    4.8111   10.3224 H   0  0  0  0  0  0  0  0  0  0  0  0
    2.6711    4.2322   11.3185 H   0  0  0  0  0  0  0  0  0  0  0  0
    4.9806    7.2536   11.0229 H   0  0  0  0  0  0  0  0  0  0  0  0
    3.3241    7.8834   11.2998 H   0  0  0  0  0  0  0  0  0  0  0  0
    3.7855    8.1477   13.6935 H   0  0  0  0  0  0  0  0  0  0  0  0
    5.0521    9.0000   12.7166 H   0  0  0  0  0  0  0  0  0  0  0  0
    6.0116    5.4719   14.6109 H   0  0  0  0  0  0  0  0  0  0  0  0
    4.3393    6.1275   14.7584 H   0  0  0  0  0  0  0  0  0  0  0  0
    4.3687    4.2081   13.2224 H   0  0  0  0  0  0  0  0  0  0  0  0
    5.6338    5.0074   12.2248 H   0  0  0  0  0  0  0  0  0  0  0  0
  1  5  1  0
  2 24  1  0
  3 15  1  0
  3 16  1  0
  3 28  1  0
  4  5  1  0
  4 11  1  0
  5  8  1  0
  6 19  1  0
  6 20  1  0
  7 11  2  0
  9 37  1  0
  9 38  1  0
  9 41  1  0
 10 28  2  0
 11 13  1  0
 12 32  1  0
 12 35  1  0
 13 15  2  0
 13 19  1  0
 14 39  1  0
 14 40  1  0
 16 17  1  0
 17 18  1  0
 17 26  1  0
 17 27  1  0
 18 19  2  0
 18 21  1  0
 20 21  2  0
 20 25  1  0
 21 22  1  0
 22 23  2  0
 23 24  1  0
 24 25  2  0
 28 29  1  0
 29 30  2  0
 29 34  1  0
 30 31  1  0
 31 32  2  0
 32 33  1  0
 33 34  2  0
 35 36  1  0
 36 37  1  0
 38 39  1  0
 40 41  1  0
  1 42  1  0
  1 43  1  0
  1 44  1  0
  5 45  1  0
  6 46  1  0
  8 47  1  0
  8 48  1  0
  8 49  1  0
 15 50  1  0
 16 51  1  0
 16 52  1  0
 22 53  1  0
 23 54  1  0
 25 55  1  0
 26 56  1  0
 26 57  1  0
 26 58  1  0
 27 59  1  0
 27 60  1  0
 27 61  1  0
 30 62  1  0
 31 63  1  0
 33 64  1  0
 34 65  1  0
 35 66  1  0
 35 67  1  0
 36 68  1  0
 36 69  1  0
 37 70  1  0
 37 71  1  0
 38 72  1  0
 38 73  1  0
 39 74  1  0
 39 75  1  0
 40 76  1  0
 40 77  1  0
 41 78  1  0
 41 79  1  0
A    1
C1
A    2
F1
A    3
N1
A    4
O1
A    5
C2
A    6
N2
A    7
O2
A    8
C3
A    9
N3
A   10
O3
A   11
C4
A   12
O4
A   13
C5
A   14
O5
A   15
C6
A   16
C7
A   17
C8
A   18
C9
A   19
C10
A   20
C11
A   21
C12
A   22
C13
A   23
C14
A   24
C15
A   25
C16
A   26
C17
A   27
C18
A   28
C19
A   29
C20
A   30
C21
A   31
C22
A   32
C23
A   33
C24
A   34
C25
A   35
C26
A   36
C27
A   37
C28
A   38
C29
A   39
C30
A   40
C31
A   41
C32
M  END
