3L1M_HQI_A_151
     RDKit          3D

 25 26  0  0  0  0  0  0  0  0999 V2000
    4.7430   18.0970   11.3880 N   0  0  0  0  0  0  0  0  0  0  0  0
    1.3040   16.5390   14.2030 N   0  0  0  0  0  0  0  0  0  0  0  0
    6.5750   18.4240    9.8440 C   0  0  0  0  0  0  0  0  0  0  0  0
    5.9710   20.0020   11.5390 O   0  0  0  0  0  0  0  0  0  0  0  0
    1.0990   18.9940   15.3870 O   0  0  0  0  0  0  0  0  0  0  0  0
    2.3160   15.0500   12.6740 C   0  0  0  0  0  0  0  0  0  0  0  0
    1.3970   15.3290   13.6800 C   0  0  0  0  0  0  0  0  0  0  0  0
    2.8220   19.8260   13.9590 C   0  0  0  0  0  0  0  0  0  0  0  0
    3.7560   19.6100   12.9490 C   0  0  0  0  0  0  0  0  0  0  0  0
    3.1440   16.0660   12.2140 C   0  0  0  0  0  0  0  0  0  0  0  0
    5.7030   18.9360   10.9930 C   0  0  0  0  0  0  0  0  0  0  0  0
    1.9900   18.7950   14.3780 C   0  0  0  0  0  0  0  0  0  0  0  0
    3.8600   18.3570   12.3510 C   0  0  0  0  0  0  0  0  0  0  0  0
    3.0280   17.3310   12.7790 C   0  0  0  0  0  0  0  0  0  0  0  0
    2.0900   17.5420   13.7850 C   0  0  0  0  0  0  0  0  0  0  0  0
    4.6805   17.1842   10.9149 H   0  0  0  0  0  0  0  0  0  0  0  0
    7.4553   17.9072   10.2539 H   0  0  0  0  0  0  0  0  0  0  0  0
    5.9935   17.7239    9.2262 H   0  0  0  0  0  0  0  0  0  0  0  0
    6.9030   19.2729    9.2262 H   0  0  0  0  0  0  0  0  0  0  0  0
    1.3953   18.9278   16.3293 H   0  0  0  0  0  0  0  0  0  0  0  0
    2.3862   14.0382   12.2483 H   0  0  0  0  0  0  0  0  0  0  0  0
    0.7366   14.5292   14.0464 H   0  0  0  0  0  0  0  0  0  0  0  0
    2.7424   20.8180   14.4276 H   0  0  0  0  0  0  0  0  0  0  0  0
    4.4124   20.4303   12.6232 H   0  0  0  0  0  0  0  0  0  0  0  0
    3.8778   15.8733   11.4175 H   0  0  0  0  0  0  0  0  0  0  0  0
  1 11  1  0
  1 13  1  0
  2  7  2  0
  2 15  1  0
  3 11  1  0
  4 11  2  0
  5 12  1  0
  6  7  1  0
  6 10  2  0
  8  9  2  0
  8 12  1  0
  9 13  1  0
 10 14  1  0
 12 15  2  0
 13 14  2  0
 14 15  1  0
  1 16  1  0
  3 17  1  0
  3 18  1  0
  3 19  1  0
  5 20  1  0
  6 21  1  0
  7 22  1  0
  8 23  1  0
  9 24  1  0
 10 25  1  0
A    1
N1
A    2
N2
A    3
CAA
A    4
OAB
A    5
OAC
A    6
CAD
A    7
CAE
A    8
CAF
A    9
CAG
A   10
CAH
A   11
CAK
A   12
CAL
A   13
CAM
A   14
CAN
A   15
CAO
M  END
