3L2U_ELV_A_397
     RDKit          3D

 54 56  0  0  0  0  0  0  0  0999 V2000
  -39.3390   34.7140  -25.3860 C   0  0  0  0  0  0  0  0  0  0  0  0
  -39.9040   29.8640  -23.7560 C   0  0  0  0  0  0  0  0  0  0  0  0
  -39.8840   29.4750  -21.1820 C   0  0  0  0  0  0  0  0  0  0  0  0
  -35.9260   31.3350  -17.2100 O   0  0  0  0  0  0  0  0  0  0  0  0
  -36.1380   33.3860  -19.2550 O   0  0  0  0  0  0  0  0  0  0  0  0
  -35.7650   28.4020  -23.5890 O   0  0  0  0  0  0  0  0  0  0  0  0
  -35.8150   29.3640  -18.1390 O   0  0  0  0  0  0  0  0  0  0  0  0
  -40.1500   37.2970  -23.0410 F   0  0  0  0  0  0  0  0  0  0  0  0
  -41.0740   38.2210  -20.1380 Cl  0  0  0  0  0  0  0  0  0  0  0  0
  -37.6770   36.6400  -19.7900 C   0  0  0  0  0  0  0  0  0  0  0  0
  -38.8850   37.2570  -19.5810 C   0  0  0  0  0  0  0  0  0  0  0  0
  -37.3090   36.2520  -21.0740 C   0  0  0  0  0  0  0  0  0  0  0  0
  -36.9720   34.0490  -21.7990 C   0  0  0  0  0  0  0  0  0  0  0  0
  -37.7670   32.0770  -23.5140 C   0  0  0  0  0  0  0  0  0  0  0  0
  -36.8750   30.1000  -20.4440 C   0  0  0  0  0  0  0  0  0  0  0  0
  -37.0390   28.9140  -23.8510 C   0  0  0  0  0  0  0  0  0  0  0  0
  -37.3640   35.8930  -23.4150 C   0  0  0  0  0  0  0  0  0  0  0  0
  -38.2160   33.7730  -25.2510 O   0  0  0  0  0  0  0  0  0  0  0  0
  -36.0380   30.5770  -18.1990 C   0  0  0  0  0  0  0  0  0  0  0  0
  -39.6690   37.4530  -20.6880 C   0  0  0  0  0  0  0  0  0  0  0  0
  -39.3270   37.0700  -22.0110 C   0  0  0  0  0  0  0  0  0  0  0  0
  -38.0910   36.4430  -22.1980 C   0  0  0  0  0  0  0  0  0  0  0  0
  -37.3870   34.4190  -23.0780 C   0  0  0  0  0  0  0  0  0  0  0  0
  -37.7940   33.4230  -23.9590 C   0  0  0  0  0  0  0  0  0  0  0  0
  -36.4720   31.1060  -19.5770 C   0  0  0  0  0  0  0  0  0  0  0  0
  -36.4930   32.4570  -20.0070 C   0  0  0  0  0  0  0  0  0  0  0  0
  -36.9350   32.7310  -21.3350 C   0  0  0  0  0  0  0  0  0  0  0  0
  -37.3460   31.7100  -22.2200 C   0  0  0  0  0  0  0  0  0  0  0  0
  -39.2600   29.0640  -22.5520 C   0  0  0  0  0  0  0  0  0  0  0  0
  -37.6940   29.1120  -22.4920 C   0  0  0  0  0  0  0  0  0  0  0  0
  -37.3110   30.3490  -21.7490 N   0  0  0  0  0  0  0  0  0  0  0  0
  -39.6918   35.0096  -24.3869 H   0  0  0  0  0  0  0  0  0  0  0  0
  -39.0055   35.6064  -25.9360 H   0  0  0  0  0  0  0  0  0  0  0  0
  -40.1592   34.2295  -25.9360 H   0  0  0  0  0  0  0  0  0  0  0  0
  -40.5480   30.6640  -23.3619 H   0  0  0  0  0  0  0  0  0  0  0  0
  -39.1062   30.3052  -24.3715 H   0  0  0  0  0  0  0  0  0  0  0  0
  -40.5054   29.1788  -24.3715 H   0  0  0  0  0  0  0  0  0  0  0  0
  -39.2703   29.0708  -20.3635 H   0  0  0  0  0  0  0  0  0  0  0  0
  -39.9168   30.5720  -21.1084 H   0  0  0  0  0  0  0  0  0  0  0  0
  -40.9048   29.0719  -21.1084 H   0  0  0  0  0  0  0  0  0  0  0  0
  -35.9808   30.9644  -16.2936 H   0  0  0  0  0  0  0  0  0  0  0  0
  -35.6266   28.3464  -22.6103 H   0  0  0  0  0  0  0  0  0  0  0  0
  -37.0006   36.4525  -18.9430 H   0  0  0  0  0  0  0  0  0  0  0  0
  -39.2067   37.5770  -18.5789 H   0  0  0  0  0  0  0  0  0  0  0  0
  -36.3329   35.7616  -21.2035 H   0  0  0  0  0  0  0  0  0  0  0  0
  -36.6532   34.8458  -21.1109 H   0  0  0  0  0  0  0  0  0  0  0  0
  -38.0881   31.2861  -24.2078 H   0  0  0  0  0  0  0  0  0  0  0  0
  -36.8503   29.0594  -20.0883 H   0  0  0  0  0  0  0  0  0  0  0  0
  -36.9641   29.8736  -24.3835 H   0  0  0  0  0  0  0  0  0  0  0  0
  -37.6251   28.2349  -24.4877 H   0  0  0  0  0  0  0  0  0  0  0  0
  -36.3372   36.2806  -23.4889 H   0  0  0  0  0  0  0  0  0  0  0  0
  -37.8105   36.1575  -24.3849 H   0  0  0  0  0  0  0  0  0  0  0  0
  -39.5124   28.0130  -22.7562 H   0  0  0  0  0  0  0  0  0  0  0  0
  -37.2930   28.2530  -21.9341 H   0  0  0  0  0  0  0  0  0  0  0  0
  1 18  1  0
  2 29  1  0
 29  3  1  0
 19  4  1  0
 26  5  2  0
 16  6  1  0
 19  7  2  0
  8 21  1  0
 20  9  1  0
 12 10  2  0
 10 11  1  0
 20 11  2  0
 22 12  1  0
 23 13  2  0
 13 27  1  0
 24 14  2  0
 14 28  1  0
 31 15  1  0
 15 25  2  0
 16 30  1  0
 17 23  1  0
 17 22  1  0
 18 24  1  0
 25 19  1  0
 21 20  1  0
 22 21  2  0
 24 23  1  0
 26 25  1  0
 27 26  1  0
 28 27  2  0
 28 31  1  0
 29 30  1  0
 30 31  1  0
  1 32  1  0
  1 33  1  0
  1 34  1  0
  2 35  1  0
  2 36  1  0
  2 37  1  0
  3 38  1  0
  3 39  1  0
  3 40  1  0
  4 41  1  0
  6 42  1  0
 10 43  1  0
 11 44  1  0
 12 45  1  0
 13 46  1  0
 14 47  1  0
 15 48  1  0
 16 49  1  0
 16 50  1  0
 17 51  1  0
 17 52  1  0
 29 53  1  0
 30 54  1  0
A    1
CAA
A    2
CAB
A    3
CAC
A    4
OAD
A    5
OAE
A    6
OAF
A    7
OAG
A    8
FAH
A    9
CLAI
A   10
CAJ
A   11
CAK
A   12
CAL
A   13
CAM
A   14
CAN
A   15
CAO
A   16
CAP
A   17
CAQ
A   18
OAR
A   19
CAS
A   20
CAT
A   21
CAU
A   22
CAV
A   23
CAW
A   24
CAX
A   25
CAY
A   26
CAZ
A   27
CBA
A   28
CBB
A   29
CBC
A   30
CBD
A   31
NBE
M  END
