3L3M_A92_A_351
     RDKit          3D

 44 47  0  0  0  0  0  0  0  0999 V2000
   28.0630    9.0520   27.6280 F   0  0  0  0  0  0  0  0  0  0  0  0
   23.1200    7.5990   24.0440 C   0  0  0  0  0  0  0  0  0  0  0  0
   26.4820   12.3000   27.5780 C   0  0  0  0  0  0  0  0  0  0  0  0
   22.8040    8.7820   23.4140 C   0  0  0  0  0  0  0  0  0  0  0  0
   27.3410   12.9870   28.4090 C   0  0  0  0  0  0  0  0  0  0  0  0
   24.0070    7.5420   25.0950 C   0  0  0  0  0  0  0  0  0  0  0  0
   28.6460   11.0240   28.6900 C   0  0  0  0  0  0  0  0  0  0  0  0
   26.6910   10.9670   27.3020 C   0  0  0  0  0  0  0  0  0  0  0  0
   23.3840    9.9690   23.7940 C   0  0  0  0  0  0  0  0  0  0  0  0
   28.4250   12.3500   28.9680 C   0  0  0  0  0  0  0  0  0  0  0  0
   24.2810    9.9110   24.8340 C   0  0  0  0  0  0  0  0  0  0  0  0
   24.5840    8.7360   25.4850 C   0  0  0  0  0  0  0  0  0  0  0  0
   27.7860   10.3430   27.8630 C   0  0  0  0  0  0  0  0  0  0  0  0
   25.7690   10.2530   26.4470 C   0  0  0  0  0  0  0  0  0  0  0  0
   23.0150   11.2080   23.1100 C   0  0  0  0  0  0  0  0  0  0  0  0
   29.7750   13.6030   32.2360 C   0  0  0  0  0  0  0  0  0  0  0  0
   30.1780   15.0010   31.8350 C   0  0  0  0  0  0  0  0  0  0  0  0
   28.7530   13.0680   31.2650 C   0  0  0  0  0  0  0  0  0  0  0  0
   30.6730   15.0210   30.4090 C   0  0  0  0  0  0  0  0  0  0  0  0
   29.3590   13.0510   29.8860 C   0  0  0  0  0  0  0  0  0  0  0  0
   25.0340   10.8580   25.4660 N   0  0  0  0  0  0  0  0  0  0  0  0
   25.4970    8.9650   26.4760 N   0  0  0  0  0  0  0  0  0  0  0  0
   29.6010   14.4680   29.5490 N   0  0  0  0  0  0  0  0  0  0  0  0
   23.7070   12.3020   23.5630 N   0  0  0  0  0  0  0  0  0  0  0  0
   22.1520   11.1890   22.2410 O   0  0  0  0  0  0  0  0  0  0  0  0
   22.6478    6.6685   23.6957 H   0  0  0  0  0  0  0  0  0  0  0  0
   25.6222   12.8210   27.1315 H   0  0  0  0  0  0  0  0  0  0  0  0
   22.0738    8.7771   22.5913 H   0  0  0  0  0  0  0  0  0  0  0  0
   27.1589   14.0498   28.6263 H   0  0  0  0  0  0  0  0  0  0  0  0
   24.2448    6.5938   25.5993 H   0  0  0  0  0  0  0  0  0  0  0  0
   29.5117   10.5068   29.1294 H   0  0  0  0  0  0  0  0  0  0  0  0
   30.6612   12.9514   32.2294 H   0  0  0  0  0  0  0  0  0  0  0  0
   29.3395   13.6260   33.2459 H   0  0  0  0  0  0  0  0  0  0  0  0
   29.3082   15.6683   31.9255 H   0  0  0  0  0  0  0  0  0  0  0  0
   30.9879   15.3411   32.4971 H   0  0  0  0  0  0  0  0  0  0  0  0
   28.4656   12.0467   31.5555 H   0  0  0  0  0  0  0  0  0  0  0  0
   27.8579   13.7074   31.2730 H   0  0  0  0  0  0  0  0  0  0  0  0
   30.9000   16.0539   30.1063 H   0  0  0  0  0  0  0  0  0  0  0  0
   31.5902   14.4215   30.3125 H   0  0  0  0  0  0  0  0  0  0  0  0
   30.3101   12.5036   29.8101 H   0  0  0  0  0  0  0  0  0  0  0  0
   25.0463   11.8630   25.2408 H   0  0  0  0  0  0  0  0  0  0  0  0
   28.7349   15.0057   29.6963 H   0  0  0  0  0  0  0  0  0  0  0  0
   23.8094   12.4638   24.5750 H   0  0  0  0  0  0  0  0  0  0  0  0
   24.1244   12.9618   22.8912 H   0  0  0  0  0  0  0  0  0  0  0  0
  1 13  1  0
  2  4  2  0
  2  6  1  0
  3  5  2  0
  3  8  1  0
  4  9  1  0
  5 10  1  0
  6 12  2  0
  7 10  2  0
  7 13  1  0
  8 13  2  0
  8 14  1  0
  9 11  2  0
  9 15  1  0
 10 20  1  0
 11 12  1  0
 11 21  1  0
 12 22  1  0
 14 21  1  0
 14 22  2  0
 15 24  1  0
 15 25  2  0
 16 17  1  0
 16 18  1  0
 17 19  1  0
 18 20  1  0
 19 23  1  0
 20 23  1  0
  2 26  1  0
  3 27  1  0
  4 28  1  0
  5 29  1  0
  6 30  1  0
  7 31  1  0
 16 32  1  0
 16 33  1  0
 17 34  1  0
 17 35  1  0
 18 36  1  0
 18 37  1  0
 19 38  1  0
 19 39  1  0
 20 40  1  0
 21 41  1  0
 23 42  1  0
 24 43  1  0
 24 44  1  0
A    1
F
A    2
C1
A    3
C2
A    4
C3
A    5
C4
A    6
C5
A    7
C6
A    8
C7
A    9
C8
A   10
C9
A   11
C10
A   12
C11
A   13
C12
A   14
C13
A   15
C14
A   16
C15
A   17
C16
A   18
C17
A   19
C18
A   20
C19
A   21
N20
A   22
N21
A   23
N22
A   24
N23
A   25
O24
M  END
