3L4T_BJ1_A_1001
     RDKit          3D

 42 42  0  0  0  0  0  0  0  0999 V2000
   41.3810   87.1480   31.3680 O   0  0  0  0  0  0  0  0  0  0  0  0
   43.0890   94.7440   36.0540 O   0  0  0  0  0  0  0  0  0  0  0  0
   43.1620   86.1780   33.4480 O   0  0  0  0  0  0  0  0  0  0  0  0
   47.8800   94.2930   34.0510 O   0  0  0  0  0  0  0  0  0  0  0  0
   44.6570   89.8960   32.0640 O   0  0  0  0  0  0  0  0  0  0  0  0
   46.8690   94.2400   36.6970 O   0  0  0  0  0  0  0  0  0  0  0  0
   45.3230   88.5870   36.8070 O   0  0  0  0  0  0  0  0  0  0  0  0
   43.7000   86.8590   36.2730 O   0  0  0  0  0  0  0  0  0  0  0  0
   46.0650   86.5100   35.9230 O   0  0  0  0  0  0  0  0  0  0  0  0
   41.7900   87.9280   32.5020 C   0  0  0  0  0  0  0  0  0  0  0  0
   43.6770   93.6370   36.7340 C   0  0  0  0  0  0  0  0  0  0  0  0
   45.7890   93.2480   33.3150 C   0  0  0  0  0  0  0  0  0  0  0  0
   44.7500   90.6850   34.3820 C   0  0  0  0  0  0  0  0  0  0  0  0
   44.9900   87.9200   34.4750 O   0  0  0  0  0  0  0  0  0  0  0  0
   43.1860   87.5070   32.8860 C   0  0  0  0  0  0  0  0  0  0  0  0
   46.8090   93.4260   34.4430 C   0  0  0  0  0  0  0  0  0  0  0  0
   43.9810   89.8790   33.3560 C   0  0  0  0  0  0  0  0  0  0  0  0
   45.9910   94.0990   35.5800 C   0  0  0  0  0  0  0  0  0  0  0  0
   44.8760   93.0740   35.8940 C   0  0  0  0  0  0  0  0  0  0  0  0
   43.7650   88.4540   33.9260 C   0  0  0  0  0  0  0  0  0  0  0  0
   44.4190   92.4650   34.2410 S   0  0  0  0  0  0  0  0  0  0  0  0
   45.0170   87.4590   35.8830 S   0  0  0  0  0  0  0  0  0  0  0  0
   40.9447   86.3159   31.6799 H   0  0  0  0  0  0  0  0  0  0  0  0
   42.7441   95.3932   36.7171 H   0  0  0  0  0  0  0  0  0  0  0  0
   43.1631   86.2375   34.4362 H   0  0  0  0  0  0  0  0  0  0  0  0
   48.3252   94.6534   34.8585 H   0  0  0  0  0  0  0  0  0  0  0  0
   45.6367   89.9206   32.2044 H   0  0  0  0  0  0  0  0  0  0  0  0
   46.3509   94.1568   37.5365 H   0  0  0  0  0  0  0  0  0  0  0  0
   41.7820   88.9966   32.2411 H   0  0  0  0  0  0  0  0  0  0  0  0
   41.0998   87.7657   33.3430 H   0  0  0  0  0  0  0  0  0  0  0  0
   44.0428   93.9653   37.7181 H   0  0  0  0  0  0  0  0  0  0  0  0
   42.9220   92.8476   36.8639 H   0  0  0  0  0  0  0  0  0  0  0  0
   45.4886   94.2131   32.8810 H   0  0  0  0  0  0  0  0  0  0  0  0
   46.1514   92.6718   32.4509 H   0  0  0  0  0  0  0  0  0  0  0  0
   44.4586   90.3487   35.3880 H   0  0  0  0  0  0  0  0  0  0  0  0
   45.8235   90.5251   34.2028 H   0  0  0  0  0  0  0  0  0  0  0  0
   43.8084   87.5282   31.9793 H   0  0  0  0  0  0  0  0  0  0  0  0
   47.2703   92.4701   34.7319 H   0  0  0  0  0  0  0  0  0  0  0  0
   42.9933   90.3249   33.1670 H   0  0  0  0  0  0  0  0  0  0  0  0
   45.5748   95.0858   35.3289 H   0  0  0  0  0  0  0  0  0  0  0  0
   45.2195   92.2731   36.5652 H   0  0  0  0  0  0  0  0  0  0  0  0
   43.0300   88.5422   34.7396 H   0  0  0  0  0  0  0  0  0  0  0  0
  1 10  1  0
  2 11  1  0
  3 15  1  0
  4 16  1  0
  5 17  1  0
  6 18  1  0
  7 22  2  0
  8 22  1  0
  9 22  2  0
 10 15  1  0
 11 19  1  0
 12 16  1  0
 12 21  1  0
 13 17  1  0
 13 21  1  0
 14 20  1  0
 14 22  1  0
 15 20  1  0
 16 18  1  0
 17 20  1  0
 18 19  1  0
 19 21  1  0
  1 23  1  0
  2 24  1  0
  3 25  1  0
  4 26  1  0
  5 27  1  0
  6 28  1  0
 10 29  1  0
 10 30  1  0
 11 31  1  0
 11 32  1  0
 12 33  1  0
 12 34  1  0
 13 35  1  0
 13 36  1  0
 15 37  1  0
 16 38  1  0
 17 39  1  0
 18 40  1  0
 19 41  1  0
 20 42  1  0
M  CHG  2   8  -1  21   1
A    1
OAA
A    2
OAB
A    3
OAC
A    4
OAD
A    5
OAE
A    6
OAF
A    7
OAG
A    8
OAH
A    9
OAI
A   10
CAJ
A   11
CAK
A   12
CAL
A   13
CAM
A   14
OAN
A   15
CAO
A   16
CAP
A   17
CAQ
A   18
CAR
A   19
CAS
A   20
CAT
A   21
SAU
A   22
SAV
M  END
