3L4X_NR3_A_1001
     RDKit          3D

 50 50  0  0  0  0  0  0  0  0999 V2000
    3.8520  -25.9490   20.8560 O   0  0  0  0  0  0  0  0  0  0  0  0
    3.7070  -14.0180   18.5140 O   0  0  0  0  0  0  0  0  0  0  0  0
    5.3250  -22.7480   21.4240 O   0  0  0  0  0  0  0  0  0  0  0  0
   -0.9850  -14.5900   20.7570 O   0  0  0  0  0  0  0  0  0  0  0  0
    2.2010  -18.7470   22.6660 O   0  0  0  0  0  0  0  0  0  0  0  0
    1.7340  -23.4440   21.9790 O   0  0  0  0  0  0  0  0  0  0  0  0
    0.0640  -14.6200   18.0800 O   0  0  0  0  0  0  0  0  0  0  0  0
    4.2710  -20.9270   22.7360 O   0  0  0  0  0  0  0  0  0  0  0  0
    1.5370  -20.4540   18.1660 O   0  0  0  0  0  0  0  0  0  0  0  0
    3.3830  -21.9840   17.7250 O   0  0  0  0  0  0  0  0  0  0  0  0
    1.5710  -22.5760   19.1850 O   0  0  0  0  0  0  0  0  0  0  0  0
    4.4240  -25.0100   21.8050 C   0  0  0  0  0  0  0  0  0  0  0  0
    3.2050  -15.2750   18.0170 C   0  0  0  0  0  0  0  0  0  0  0  0
    1.1560  -15.7830   21.4640 C   0  0  0  0  0  0  0  0  0  0  0  0
    2.2670  -18.2260   20.2920 C   0  0  0  0  0  0  0  0  0  0  0  0
    3.1310  -20.9840   19.9040 O   0  0  0  0  0  0  0  0  0  0  0  0
    4.1110  -23.5460   21.4060 C   0  0  0  0  0  0  0  0  0  0  0  0
    0.1450  -15.4450   20.3480 C   0  0  0  0  0  0  0  0  0  0  0  0
    2.7790  -19.1290   21.4140 C   0  0  0  0  0  0  0  0  0  0  0  0
    3.0270  -22.9430   22.3280 C   0  0  0  0  0  0  0  0  0  0  0  0
    0.9430  -14.7780   19.2030 C   0  0  0  0  0  0  0  0  0  0  0  0
    2.9740  -21.4090   22.3840 C   0  0  0  0  0  0  0  0  0  0  0  0
    2.0400  -15.8190   18.8590 C   0  0  0  0  0  0  0  0  0  0  0  0
    2.4720  -20.6200   21.1350 C   0  0  0  0  0  0  0  0  0  0  0  0
    2.5670  -16.4600   20.4860 S   0  0  0  0  0  0  0  0  0  0  0  0
    2.4010  -21.5030   18.7600 S   0  0  0  0  0  0  0  0  0  0  0  0
    3.4048  -26.6832   21.3470 H   0  0  0  0  0  0  0  0  0  0  0  0
    3.7026  -14.0291   19.5039 H   0  0  0  0  0  0  0  0  0  0  0  0
    5.5911  -22.5731   22.3614 H   0  0  0  0  0  0  0  0  0  0  0  0
   -1.0314  -14.5549   21.7453 H   0  0  0  0  0  0  0  0  0  0  0  0
    2.7490  -19.1092   23.4067 H   0  0  0  0  0  0  0  0  0  0  0  0
    1.2232  -23.6419   22.8036 H   0  0  0  0  0  0  0  0  0  0  0  0
   -0.8572  -14.4544   18.4027 H   0  0  0  0  0  0  0  0  0  0  0  0
    4.3551  -20.8958   23.7219 H   0  0  0  0  0  0  0  0  0  0  0  0
    4.0037  -25.2074   22.8022 H   0  0  0  0  0  0  0  0  0  0  0  0
    5.5159  -25.1428   21.8099 H   0  0  0  0  0  0  0  0  0  0  0  0
    2.8563  -15.1316   16.9836 H   0  0  0  0  0  0  0  0  0  0  0  0
    4.0250  -16.0063   18.0699 H   0  0  0  0  0  0  0  0  0  0  0  0
    1.4505  -14.8842   22.0256 H   0  0  0  0  0  0  0  0  0  0  0  0
    0.7676  -16.4720   22.2285 H   0  0  0  0  0  0  0  0  0  0  0  0
    2.7499  -18.5469   19.3572 H   0  0  0  0  0  0  0  0  0  0  0  0
    1.1729  -18.3396   20.3014 H   0  0  0  0  0  0  0  0  0  0  0  0
    3.7131  -23.5395   20.3805 H   0  0  0  0  0  0  0  0  0  0  0  0
   -0.3355  -16.3850   20.0391 H   0  0  0  0  0  0  0  0  0  0  0  0
    3.8711  -19.0059   21.4598 H   0  0  0  0  0  0  0  0  0  0  0  0
    3.3246  -23.2668   23.3363 H   0  0  0  0  0  0  0  0  0  0  0  0
    1.3604  -13.7946   19.4649 H   0  0  0  0  0  0  0  0  0  0  0  0
    2.1895  -21.2127   23.1296 H   0  0  0  0  0  0  0  0  0  0  0  0
    1.6441  -16.6057   18.2000 H   0  0  0  0  0  0  0  0  0  0  0  0
    1.4043  -20.8446   20.9955 H   0  0  0  0  0  0  0  0  0  0  0  0
  1 12  1  0
  2 13  1  0
  3 17  1  0
  4 18  1  0
  5 19  1  0
  6 20  1  0
  7 21  1  0
  8 22  1  0
  9 26  2  0
 10 26  1  0
 11 26  2  0
 12 17  1  0
 13 23  1  0
 14 18  1  0
 14 25  1  0
 15 19  1  0
 15 25  1  0
 16 24  1  0
 16 26  1  0
 17 20  1  0
 18 21  1  0
 19 24  1  0
 20 22  1  0
 21 23  1  0
 22 24  1  0
 23 25  1  0
  1 27  1  0
  2 28  1  0
  3 29  1  0
  4 30  1  0
  5 31  1  0
  6 32  1  0
  7 33  1  0
  8 34  1  0
 12 35  1  0
 12 36  1  0
 13 37  1  0
 13 38  1  0
 14 39  1  0
 14 40  1  0
 15 41  1  0
 15 42  1  0
 17 43  1  0
 18 44  1  0
 19 45  1  0
 20 46  1  0
 21 47  1  0
 22 48  1  0
 23 49  1  0
 24 50  1  0
M  CHG  2  10  -1  25   1
A    1
OAA
A    2
OAB
A    3
OAC
A    4
OAD
A    5
OAE
A    6
OAF
A    7
OAG
A    8
OAH
A    9
OAI
A   10
OAJ
A   11
OAK
A   12
CAL
A   13
CAM
A   14
CAN
A   15
CAO
A   16
OAP
A   17
CAQ
A   18
CAR
A   19
CAS
A   20
CAT
A   21
CAU
A   22
CAV
A   23
CAW
A   24
CAX
A   25
SAY
A   26
SAZ
M  END
