1TQT_SSD_A_1201
     RDKit          3D

 38 38  0  0  0  0  0  0  0  0999 V2000
   31.6450   66.3340    6.7900 C   0  0  0  0  0  0  0  0  0  0  0  0
   32.6540   66.5060    7.9130 C   0  0  0  0  0  0  0  0  0  0  0  0
   32.2120   65.7520    9.1450 C   0  0  0  0  0  0  0  0  0  0  0  0
   30.2510   66.5090    7.4380 C   0  0  0  0  0  0  0  0  0  0  0  0
   30.5050   65.3080    8.7660 S   0  0  0  0  0  0  0  0  0  0  0  0
   33.8040   66.0110    7.2820 O   0  0  0  0  0  0  0  0  0  0  0  0
   31.7150   67.3100    5.7710 O   0  0  0  0  0  0  0  0  0  0  0  0
   29.0730   66.2880    6.4860 C   0  0  0  0  0  0  0  0  0  0  0  0
   27.9090   66.4140    7.2690 O   0  0  0  0  0  0  0  0  0  0  0  0
   29.6200   65.9470   10.1780 C   0  0  0  0  0  0  0  0  0  0  0  0
   29.3380   65.0430   11.3310 C   0  0  0  0  0  0  0  0  0  0  0  0
   28.2290   65.5730   12.2690 C   0  0  0  0  0  0  0  0  0  0  0  0
   28.0340   64.6970   13.4960 C   0  0  0  0  0  0  0  0  0  0  0  0
   29.1960   64.6730   14.2940 O   0  0  0  0  0  0  0  0  0  0  0  0
   28.7950   63.7910   10.8910 O   0  0  0  0  0  0  0  0  0  0  0  0
   28.4820   66.9020   12.7360 O   0  0  0  0  0  0  0  0  0  0  0  0
   27.6150   68.0770   12.3870 S   0  0  0  0  0  0  0  0  0  0  0  0
   27.2890   68.0650   10.9970 O   0  0  0  0  0  0  0  0  0  0  0  0
   28.3810   69.2550   12.8170 O   0  0  0  0  0  0  0  0  0  0  0  0
   26.4340   67.8860   13.1270 O   0  0  0  0  0  0  0  0  0  0  0  0
   31.8446   65.3573    6.3250 H   0  0  0  0  0  0  0  0  0  0  0  0
   32.7977   67.5231    8.3065 H   0  0  0  0  0  0  0  0  0  0  0  0
   32.8281   64.8540    9.3001 H   0  0  0  0  0  0  0  0  0  0  0  0
   32.3097   66.3405   10.0692 H   0  0  0  0  0  0  0  0  0  0  0  0
   29.9545   67.5142    7.7723 H   0  0  0  0  0  0  0  0  0  0  0  0
   34.4605   65.7284    7.9670 H   0  0  0  0  0  0  0  0  0  0  0  0
   31.7795   68.2095    6.1795 H   0  0  0  0  0  0  0  0  0  0  0  0
   29.0800   67.0449    5.6879 H   0  0  0  0  0  0  0  0  0  0  0  0
   29.1270   65.3016    6.0021 H   0  0  0  0  0  0  0  0  0  0  0  0
   28.1522   66.3877    8.2283 H   0  0  0  0  0  0  0  0  0  0  0  0
   30.2054   66.7925   10.5684 H   0  0  0  0  0  0  0  0  0  0  0  0
   28.6221   66.1792    9.7778 H   0  0  0  0  0  0  0  0  0  0  0  0
   30.3107   64.9620   11.8383 H   0  0  0  0  0  0  0  0  0  0  0  0
   27.3228   65.5617   11.6456 H   0  0  0  0  0  0  0  0  0  0  0  0
   27.1980   65.0935   14.0910 H   0  0  0  0  0  0  0  0  0  0  0  0
   27.8193   63.6713   13.1617 H   0  0  0  0  0  0  0  0  0  0  0  0
   28.9398   64.6783   15.2503 H   0  0  0  0  0  0  0  0  0  0  0  0
   28.5561   63.2401   11.6781 H   0  0  0  0  0  0  0  0  0  0  0  0
  1  2  1  0
  1  4  1  0
  1  7  1  0
  2  3  1  0
  2  6  1  0
  3  5  1  0
  4  5  1  0
  4  8  1  0
  5 10  1  0
  8  9  1  0
 10 11  1  0
 11 12  1  0
 11 15  1  0
 12 13  1  0
 12 16  1  0
 13 14  1  0
 16 17  1  0
 17 18  1  0
 17 19  1  0
 17 20  1  0
  1 21  1  0
  2 22  1  0
  3 23  1  0
  3 24  1  0
  4 25  1  0
  6 26  1  0
  7 27  1  0
  8 28  1  0
  8 29  1  0
  9 30  1  0
 10 31  1  0
 10 32  1  0
 11 33  1  0
 12 34  1  0
 13 35  1  0
 13 36  1  0
 14 37  1  0
 15 38  1  0
M  CHG  4   5   1  18  -1  19  -1  20  -1
A    1
C1
A    2
C2
A    3
C3
A    4
C5
A    5
S4
A    6
O2
A    7
O1
A    8
C6
A    9
O6
A   10
C7
A   11
C8
A   12
C9
A   13
C10
A   14
O10
A   15
O8
A   16
O9
A   17
S9
A   18
O11
A   19
O12
A   20
O13
M  END
