3L54_LXX_A_1
     RDKit          3D

 38 42  0  0  0  0  0  0  0  0999 V2000
   27.2000   13.5330   19.0520 C   0  0  0  0  0  0  0  0  0  0  0  0
   28.5530   13.3400   19.0890 N   0  0  0  0  0  0  0  0  0  0  0  0
   29.0360   12.9930   20.2950 N   0  0  0  0  0  0  0  0  0  0  0  0
   27.9490   12.9630   21.0730 C   0  0  0  0  0  0  0  0  0  0  0  0
   27.8690   12.6710   22.3760 N   0  0  0  0  0  0  0  0  0  0  0  0
   26.5960   12.7500   22.7880 C   0  0  0  0  0  0  0  0  0  0  0  0
   25.4470   13.0700   22.0860 C   0  0  0  0  0  0  0  0  0  0  0  0
   25.4890   13.3740   20.7410 C   0  0  0  0  0  0  0  0  0  0  0  0
   26.7970   13.2940   20.3410 C   0  0  0  0  0  0  0  0  0  0  0  0
   24.1670   13.0540   22.7320 C   0  0  0  0  0  0  0  0  0  0  0  0
   23.8100   11.9710   23.4920 C   0  0  0  0  0  0  0  0  0  0  0  0
   22.5640   11.9090   24.0610 C   0  0  0  0  0  0  0  0  0  0  0  0
   21.6440   12.9170   23.9000 C   0  0  0  0  0  0  0  0  0  0  0  0
   20.4470   12.8030   24.4790 N   0  0  0  0  0  0  0  0  0  0  0  0
   19.6030   13.8140   24.2920 C   0  0  0  0  0  0  0  0  0  0  0  0
   19.8910   14.9350   23.5570 C   0  0  0  0  0  0  0  0  0  0  0  0
   21.1260   15.0460   22.9650 C   0  0  0  0  0  0  0  0  0  0  0  0
   21.4300   16.2380   22.2140 C   0  0  0  0  0  0  0  0  0  0  0  0
   20.5800   16.7010   21.2380 C   0  0  0  0  0  0  0  0  0  0  0  0
   20.9060   17.8610   20.5740 C   0  0  0  0  0  0  0  0  0  0  0  0
   21.9940   18.6000   20.8020 N   0  0  0  0  0  0  0  0  0  0  0  0
   22.7970   18.1250   21.7560 C   0  0  0  0  0  0  0  0  0  0  0  0
   22.5640   16.9750   22.4720 C   0  0  0  0  0  0  0  0  0  0  0  0
   22.0190   14.0130   23.1490 C   0  0  0  0  0  0  0  0  0  0  0  0
   23.2630   14.0740   22.5660 C   0  0  0  0  0  0  0  0  0  0  0  0
   26.5789   13.8146   18.1889 H   0  0  0  0  0  0  0  0  0  0  0  0
   30.0125   12.7967   20.5574 H   0  0  0  0  0  0  0  0  0  0  0  0
   26.4397   12.5247   23.8533 H   0  0  0  0  0  0  0  0  0  0  0  0
   24.6293   13.6333   20.1057 H   0  0  0  0  0  0  0  0  0  0  0  0
   24.5249   11.1493   23.6460 H   0  0  0  0  0  0  0  0  0  0  0  0
   22.2936   11.0287   24.6626 H   0  0  0  0  0  0  0  0  0  0  0  0
   18.6087   13.7462   24.7576 H   0  0  0  0  0  0  0  0  0  0  0  0
   19.1439   15.7343   23.4428 H   0  0  0  0  0  0  0  0  0  0  0  0
   19.6573   16.1548   20.9927 H   0  0  0  0  0  0  0  0  0  0  0  0
   20.2142   18.2075   19.7921 H   0  0  0  0  0  0  0  0  0  0  0  0
   23.7100   18.6940   21.9857 H   0  0  0  0  0  0  0  0  0  0  0  0
   23.2763   16.6468   23.2433 H   0  0  0  0  0  0  0  0  0  0  0  0
   23.5370   14.9500   21.9597 H   0  0  0  0  0  0  0  0  0  0  0  0
  1  2  2  0
  1  9  1  0
  2  3  1  0
  3  4  1  0
  4  5  1  0
  4  9  2  0
  5  6  2  0
  6  7  1  0
  7  8  2  0
  7 10  1  0
  8  9  1  0
 10 11  2  0
 10 25  1  0
 11 12  1  0
 12 13  2  0
 13 14  1  0
 13 24  1  0
 14 15  2  0
 15 16  1  0
 16 17  2  0
 17 18  1  0
 17 24  1  0
 18 19  2  0
 18 23  1  0
 19 20  1  0
 20 21  2  0
 21 22  1  0
 22 23  2  0
 24 25  2  0
  1 26  1  0
  3 27  1  0
  6 28  1  0
  8 29  1  0
 11 30  1  0
 12 31  1  0
 15 32  1  0
 16 33  1  0
 19 34  1  0
 20 35  1  0
 22 36  1  0
 23 37  1  0
 25 38  1  0
A    1
C1
A    2
N2
A    3
N3
A    4
C4
A    5
N5
A    6
C6
A    7
C7
A    8
C8
A    9
C9
A   10
C10
A   11
C11
A   12
C12
A   13
C13
A   14
N14
A   15
C15
A   16
C16
A   17
C17
A   18
C18
A   19
C19
A   20
C20
A   21
N21
A   22
C22
A   23
C23
A   24
C24
A   25
C25
M  END
