3L5P_428_A_123
     RDKit          3D

 24 25  0  0  0  0  0  0  0  0999 V2000
   17.6360  -39.4480  -26.0050 C   0  0  0  0  0  0  0  0  0  0  0  0
   16.5490  -39.0690  -25.2060 N   0  0  0  0  0  0  0  0  0  0  0  0
   17.9170  -40.7200  -25.7330 N   0  0  0  0  0  0  0  0  0  0  0  0
   18.1900  -38.5190  -26.8770 C   0  0  0  0  0  0  0  0  0  0  0  0
   16.2170  -40.1340  -24.4810 C   0  0  0  0  0  0  0  0  0  0  0  0
   16.0720  -37.9340  -25.2590 N   0  0  0  0  0  0  0  0  0  0  0  0
   17.0500  -41.1210  -24.8090 C   0  0  0  0  0  0  0  0  0  0  0  0
   17.6250  -37.2480  -26.9090 C   0  0  0  0  0  0  0  0  0  0  0  0
   16.5460  -36.9790  -26.0750 C   0  0  0  0  0  0  0  0  0  0  0  0
   17.0290  -42.5370  -24.2260 C   0  0  0  0  0  0  0  0  0  0  0  0
   15.9660  -35.7480  -26.0920 O   0  0  0  0  0  0  0  0  0  0  0  0
   15.9580  -42.6940  -23.1440 C   0  0  0  0  0  0  0  0  0  0  0  0
   16.8230  -43.5580  -25.3480 C   0  0  0  0  0  0  0  0  0  0  0  0
   19.0446  -38.7790  -27.5190 H   0  0  0  0  0  0  0  0  0  0  0  0
   15.4022  -40.1897  -23.7441 H   0  0  0  0  0  0  0  0  0  0  0  0
   18.0236  -36.4727  -27.5798 H   0  0  0  0  0  0  0  0  0  0  0  0
   18.0008  -42.7207  -23.7445 H   0  0  0  0  0  0  0  0  0  0  0  0
   15.7505  -35.2906  -25.2409 H   0  0  0  0  0  0  0  0  0  0  0  0
   16.4268  -42.6253  -22.1513 H   0  0  0  0  0  0  0  0  0  0  0  0
   15.2084  -41.8961  -23.2515 H   0  0  0  0  0  0  0  0  0  0  0  0
   15.4690  -43.6734  -23.2515 H   0  0  0  0  0  0  0  0  0  0  0  0
   16.6233  -44.5476  -24.9111 H   0  0  0  0  0  0  0  0  0  0  0  0
   15.9684  -43.2524  -25.9695 H   0  0  0  0  0  0  0  0  0  0  0  0
   17.7292  -43.6076  -25.9695 H   0  0  0  0  0  0  0  0  0  0  0  0
  8  4  2  0
  8  9  1  0
  4  1  1  0
 11  9  1  0
  9  6  2  0
  1  3  2  0
  1  2  1  0
  3  7  1  0
 13 10  1  0
  6  2  1  0
  2  5  1  0
  7  5  2  0
  7 10  1  0
 10 12  1  0
  4 14  1  0
  5 15  1  0
  8 16  1  0
 10 17  1  0
 11 18  1  0
 12 19  1  0
 12 20  1  0
 12 21  1  0
 13 22  1  0
 13 23  1  0
 13 24  1  0
A    1
CAA
A    2
NAB
A    3
NAC
A    4
CAD
A    5
CAE
A    6
NAF
A    7
CAG
A    8
CAH
A    9
CAI
A   10
CAJ
A   11
OAK
A   12
CAL
A   13
CAM
M  END
