3L7G_M44_A_518
     RDKit          3D

 28 27  0  0  0  0  0  0  0  0999 V2000
   17.2560   32.4750    7.6090 P   0  0  0  0  0  0  0  0  0  0  0  0
   15.1320   33.1470    6.2340 C   0  0  0  0  0  0  0  0  0  0  0  0
   16.0490   32.0450    6.5060 N   0  0  0  0  0  0  0  0  0  0  0  0
   17.0300   31.7010    8.8590 O   0  0  0  0  0  0  0  0  0  0  0  0
   13.9430   32.9730    7.1620 C   0  0  0  0  0  0  0  0  0  0  0  0
   18.7990   32.1350    6.9920 N   0  0  0  0  0  0  0  0  0  0  0  0
   17.1850   33.9430    7.9070 O   0  0  0  0  0  0  0  0  0  0  0  0
   14.6670   33.0990    4.7910 C   0  0  0  0  0  0  0  0  0  0  0  0
   19.1280   32.9400    5.8200 C   0  0  0  0  0  0  0  0  0  0  0  0
   18.9160   32.1040    4.5630 C   0  0  0  0  0  0  0  0  0  0  0  0
   20.5830   33.3700    5.9050 C   0  0  0  0  0  0  0  0  0  0  0  0
   15.6274   34.1152    6.3991 H   0  0  0  0  0  0  0  0  0  0  0  0
   16.4941   31.7582    5.6225 H   0  0  0  0  0  0  0  0  0  0  0  0
   17.1997   32.2822    9.6423 H   0  0  0  0  0  0  0  0  0  0  0  0
   14.2831   33.0228    8.2069 H   0  0  0  0  0  0  0  0  0  0  0  0
   13.2122   33.7738    6.9757 H   0  0  0  0  0  0  0  0  0  0  0  0
   13.4723   31.9964    6.9757 H   0  0  0  0  0  0  0  0  0  0  0  0
   19.4961   32.3226    7.7266 H   0  0  0  0  0  0  0  0  0  0  0  0
   13.5732   32.9861    4.7618 H   0  0  0  0  0  0  0  0  0  0  0  0
   14.9531   34.0314    4.2824 H   0  0  0  0  0  0  0  0  0  0  0  0
   15.1375   32.2447    4.2824 H   0  0  0  0  0  0  0  0  0  0  0  0
   18.4822   33.8297    5.7825 H   0  0  0  0  0  0  0  0  0  0  0  0
   18.6548   31.0740    4.8474 H   0  0  0  0  0  0  0  0  0  0  0  0
   18.0995   32.5381    3.9673 H   0  0  0  0  0  0  0  0  0  0  0  0
   19.8407   32.0966    3.9673 H   0  0  0  0  0  0  0  0  0  0  0  0
   20.8784   33.4573    6.9610 H   0  0  0  0  0  0  0  0  0  0  0  0
   21.2164   32.6207    5.4078 H   0  0  0  0  0  0  0  0  0  0  0  0
   20.7074   34.3433    5.4078 H   0  0  0  0  0  0  0  0  0  0  0  0
  3  1  1  0
  6  1  1  0
  1  7  2  0
  1  4  1  0
  8  2  1  0
  2  3  1  0
  2  5  1  0
  9  6  1  0
 10  9  1  0
  9 11  1  0
  2 12  1  0
  3 13  1  0
  4 14  1  0
  5 15  1  0
  5 16  1  0
  5 17  1  0
  6 18  1  0
  8 19  1  0
  8 20  1  0
  8 21  1  0
  9 22  1  0
 10 23  1  0
 10 24  1  0
 10 25  1  0
 11 26  1  0
 11 27  1  0
 11 28  1  0
A    1
P
A    2
C1
A    3
N1
A    4
O1
A    5
C2
A    6
N2
A    7
O2
A    8
C3
A    9
C4
A   10
C5
A   11
C6
M  END
