1N1D_C2G_A_130
     RDKit          3D

 51 52  0  0  0  0  0  0  0  0999 V2000
   21.0140   61.1750   27.7970 N   0  0  0  0  0  0  0  0  0  0  0  0
   20.0070   61.8300   28.4890 C   0  0  0  0  0  0  0  0  0  0  0  0
   20.2060   62.9990   29.1460 N   0  0  0  0  0  0  0  0  0  0  0  0
   21.4340   63.5660   29.1370 C   0  0  0  0  0  0  0  0  0  0  0  0
   22.4920   62.9670   28.4570 C   0  0  0  0  0  0  0  0  0  0  0  0
   22.2130   61.7750   27.8090 C   0  0  0  0  0  0  0  0  0  0  0  0
   18.8480   61.3840   28.5490 O   0  0  0  0  0  0  0  0  0  0  0  0
   21.5870   64.7060   29.7980 N   0  0  0  0  0  0  0  0  0  0  0  0
   20.7820   59.8530   27.1500 C   0  0  0  0  0  0  0  0  0  0  0  0
   20.8250   59.9360   25.6660 C   0  0  0  0  0  0  0  0  0  0  0  0
   19.6230   60.5200   25.2040 O   0  0  0  0  0  0  0  0  0  0  0  0
   21.0370   58.5030   25.2700 C   0  0  0  0  0  0  0  0  0  0  0  0
   21.8010   57.9090   26.4610 C   0  0  0  0  0  0  0  0  0  0  0  0
   21.8630   58.9880   27.4050 O   0  0  0  0  0  0  0  0  0  0  0  0
   19.8540   57.7340   25.1320 O   0  0  0  0  0  0  0  0  0  0  0  0
   23.1170   57.6000   25.7810 C   0  0  0  0  0  0  0  0  0  0  0  0
   24.1780   58.4920   26.0870 O   0  0  0  0  0  0  0  0  0  0  0  0
   25.4000   58.6000   24.9540 P   0  0  0  0  0  0  0  0  0  0  0  0
   26.6880   58.2480   25.7670 O   0  0  0  0  0  0  0  0  0  0  0  0
   25.4650   60.0700   24.4260 O   0  0  0  0  0  0  0  0  0  0  0  0
   25.2230   57.4480   23.7980 O   0  0  0  0  0  0  0  0  0  0  0  0
   24.8060   57.9550   22.2800 P   0  0  0  0  0  0  0  0  0  0  0  0
   26.0770   58.5740   21.6000 O   0  0  0  0  0  0  0  0  0  0  0  0
   23.6050   58.9680   22.3520 O   0  0  0  0  0  0  0  0  0  0  0  0
   24.4440   56.5630   21.4620 O   0  0  0  0  0  0  0  0  0  0  0  0
   22.6960   53.6840   18.3860 O   0  0  0  0  0  0  0  0  0  0  0  0
   22.6680   54.9200   19.1090 C   0  0  0  0  0  0  0  0  0  0  0  0
   24.1080   55.2210   19.3720 C   0  0  0  0  0  0  0  0  0  0  0  0
   24.7210   54.1940   20.1760 O   0  0  0  0  0  0  0  0  0  0  0  0
   24.3280   56.5600   20.0410 C   0  0  0  0  0  0  0  0  0  0  0  0
   23.4956   63.4167   28.4358 H   0  0  0  0  0  0  0  0  0  0  0  0
   23.0342   61.2854   27.2651 H   0  0  0  0  0  0  0  0  0  0  0  0
   21.5873   64.7081   30.8280 H   0  0  0  0  0  0  0  0  0  0  0  0
   21.7055   65.5891   29.2812 H   0  0  0  0  0  0  0  0  0  0  0  0
   19.8099   59.5176   27.5405 H   0  0  0  0  0  0  0  0  0  0  0  0
   21.6107   60.5718   25.2319 H   0  0  0  0  0  0  0  0  0  0  0  0
   19.0682   60.7896   25.9783 H   0  0  0  0  0  0  0  0  0  0  0  0
   21.5342   58.4773   24.2891 H   0  0  0  0  0  0  0  0  0  0  0  0
   21.4107   57.0299   26.9948 H   0  0  0  0  0  0  0  0  0  0  0  0
   19.5025   57.5055   26.0288 H   0  0  0  0  0  0  0  0  0  0  0  0
   23.4259   56.5877   26.0809 H   0  0  0  0  0  0  0  0  0  0  0  0
   22.9344   57.7010   24.7010 H   0  0  0  0  0  0  0  0  0  0  0  0
   25.4926   60.6952   25.1931 H   0  0  0  0  0  0  0  0  0  0  0  0
   23.3857   59.1530   23.2995 H   0  0  0  0  0  0  0  0  0  0  0  0
   22.7131   52.9281   19.0251 H   0  0  0  0  0  0  0  0  0  0  0  0
   22.2068   55.7153   18.5051 H   0  0  0  0  0  0  0  0  0  0  0  0
   22.0746   54.8553   20.0329 H   0  0  0  0  0  0  0  0  0  0  0  0
   24.5811   55.2559   18.3795 H   0  0  0  0  0  0  0  0  0  0  0  0
   24.5945   54.4060   21.1347 H   0  0  0  0  0  0  0  0  0  0  0  0
   23.4785   57.2067   19.7762 H   0  0  0  0  0  0  0  0  0  0  0  0
   25.3059   56.9050   19.6741 H   0  0  0  0  0  0  0  0  0  0  0  0
  1  2  1  0
  1  6  1  0
  1  9  1  0
  2  3  1  0
  2  7  2  0
  3  4  2  0
  4  5  1  0
  4  8  1  0
  5  6  2  0
  9 10  1  0
  9 14  1  0
 10 11  1  0
 10 12  1  0
 12 13  1  0
 12 15  1  0
 13 14  1  0
 13 16  1  0
 16 17  1  0
 17 18  1  0
 18 19  2  0
 18 20  1  0
 18 21  1  0
 21 22  1  0
 22 23  2  0
 22 24  1  0
 22 25  1  0
 25 30  1  0
 26 27  1  0
 27 28  1  0
 28 29  1  0
 28 30  1  0
  5 31  1  0
  6 32  1  0
  8 33  1  0
  8 34  1  0
  9 35  1  0
 10 36  1  0
 11 37  1  0
 12 38  1  0
 13 39  1  0
 15 40  1  0
 16 41  1  0
 16 42  1  0
 20 43  1  0
 24 44  1  0
 26 45  1  0
 27 46  1  0
 27 47  1  0
 28 48  1  0
 29 49  1  0
 30 50  1  0
 30 51  1  0
A    1
N1
A    2
C2
A    3
N3
A    4
C4
A    5
C5
A    6
C6
A    7
O2
A    8
N4
A    9
C1'
A   10
C2'
A   11
O2'
A   12
C3'
A   13
C4'
A   14
O4'
A   15
O3'
A   16
C5'
A   17
O5'
A   18
PA
A   19
O1A
A   20
O2A
A   21
O3A
A   22
PB
A   23
O1B
A   24
O2B
A   25
O3B
A   26
O1G
A   27
C1G
A   28
C2G
A   29
O2G
A   30
C3G
M  END
