3L8P_0CE_A_2207
     RDKit          3D

 62 68  0  0  0  0  0  0  0  0999 V2000
   18.5930   73.6800   41.1430 C   0  0  0  0  0  0  0  0  0  0  0  0
   12.4770   75.3710   42.2030 N   0  0  0  0  0  0  0  0  0  0  0  0
   16.7930   78.0550   42.0270 O   0  0  0  0  0  0  0  0  0  0  0  0
   17.4210   72.8570   41.0900 C   0  0  0  0  0  0  0  0  0  0  0  0
   12.8270   76.6560   42.0250 N   0  0  0  0  0  0  0  0  0  0  0  0
   23.8280   72.3800   39.0110 O   0  0  0  0  0  0  0  0  0  0  0  0
   16.1200   73.4790   41.3140 C   0  0  0  0  0  0  0  0  0  0  0  0
   18.9090   77.3270   41.7420 N   0  0  0  0  0  0  0  0  0  0  0  0
   16.0380   74.9230   41.5700 C   0  0  0  0  0  0  0  0  0  0  0  0
   17.7850   71.5150   40.8190 N   0  0  0  0  0  0  0  0  0  0  0  0
   14.6250   75.5110   41.7880 C   0  0  0  0  0  0  0  0  0  0  0  0
   13.4900   74.6340   42.0790 C   0  0  0  0  0  0  0  0  0  0  0  0
   14.1050   76.7490   41.7770 C   0  0  0  0  0  0  0  0  0  0  0  0
   11.9020   77.7730   42.1030 C   0  0  0  0  0  0  0  0  0  0  0  0
   13.6110   73.1450   42.1910 C   0  0  0  0  0  0  0  0  0  0  0  0
   14.7820   72.6620   41.2800 C   0  0  0  0  0  0  0  0  0  0  0  0
   17.2500   75.6870   41.6030 C   0  0  0  0  0  0  0  0  0  0  0  0
   18.5170   75.0870   41.3970 C   0  0  0  0  0  0  0  0  0  0  0  0
   19.6500   76.1110   41.4810 C   0  0  0  0  0  0  0  0  0  0  0  0
   17.5920   77.1530   41.8170 C   0  0  0  0  0  0  0  0  0  0  0  0
   17.1830   70.5250   39.8530 C   0  0  0  0  0  0  0  0  0  0  0  0
   16.2460   69.4630   40.4940 C   0  0  0  0  0  0  0  0  0  0  0  0
   16.4840   71.1790   38.6170 C   0  0  0  0  0  0  0  0  0  0  0  0
   19.1590   71.5570   40.7090 C   0  0  0  0  0  0  0  0  0  0  0  0
   19.6940   72.8480   40.8960 C   0  0  0  0  0  0  0  0  0  0  0  0
   21.1020   73.0860   40.8130 C   0  0  0  0  0  0  0  0  0  0  0  0
   21.9800   71.9800   40.5320 C   0  0  0  0  0  0  0  0  0  0  0  0
   23.5040   72.1080   40.4050 C   0  0  0  0  0  0  0  0  0  0  0  0
   24.2180   73.1800   41.2910 C   0  0  0  0  0  0  0  0  0  0  0  0
   25.7500   73.1220   41.0420 C   0  0  0  0  0  0  0  0  0  0  0  0
   26.0430   73.3700   39.5340 C   0  0  0  0  0  0  0  0  0  0  0  0
   25.2450   72.3310   38.6880 C   0  0  0  0  0  0  0  0  0  0  0  0
   21.4340   70.6870   40.3470 C   0  0  0  0  0  0  0  0  0  0  0  0
   20.0420   70.4520   40.4310 C   0  0  0  0  0  0  0  0  0  0  0  0
   14.6601   77.6803   41.5911 H   0  0  0  0  0  0  0  0  0  0  0  0
   11.7040   78.0121   43.1583 H   0  0  0  0  0  0  0  0  0  0  0  0
   12.3425   78.6493   41.6049 H   0  0  0  0  0  0  0  0  0  0  0  0
   10.9590   77.5036   41.6049 H   0  0  0  0  0  0  0  0  0  0  0  0
   13.8181   72.8691   43.2355 H   0  0  0  0  0  0  0  0  0  0  0  0
   12.6713   72.6702   41.8724 H   0  0  0  0  0  0  0  0  0  0  0  0
   14.4168   72.6737   40.2425 H   0  0  0  0  0  0  0  0  0  0  0  0
   15.0517   71.6723   41.6772 H   0  0  0  0  0  0  0  0  0  0  0  0
   20.7346   75.9634   41.3724 H   0  0  0  0  0  0  0  0  0  0  0  0
   18.0741   69.9890   39.4942 H   0  0  0  0  0  0  0  0  0  0  0  0
   16.3079   69.5332   41.5900 H   0  0  0  0  0  0  0  0  0  0  0  0
   15.2101   69.6464   40.1728 H   0  0  0  0  0  0  0  0  0  0  0  0
   16.5570   68.4580   40.1728 H   0  0  0  0  0  0  0  0  0  0  0  0
   15.7213   71.8926   38.9621 H   0  0  0  0  0  0  0  0  0  0  0  0
   17.2330   71.7081   38.0096 H   0  0  0  0  0  0  0  0  0  0  0  0
   16.0058   70.3964   38.0096 H   0  0  0  0  0  0  0  0  0  0  0  0
   21.5075   74.0977   40.9615 H   0  0  0  0  0  0  0  0  0  0  0  0
   23.8864   71.1470   40.7794 H   0  0  0  0  0  0  0  0  0  0  0  0
   23.8420   74.1803   41.0303 H   0  0  0  0  0  0  0  0  0  0  0  0
   24.0114   72.9750   42.3518 H   0  0  0  0  0  0  0  0  0  0  0  0
   26.2484   73.8961   41.6440 H   0  0  0  0  0  0  0  0  0  0  0  0
   26.1298   72.1306   41.3299 H   0  0  0  0  0  0  0  0  0  0  0  0
   25.7303   74.3883   39.2595 H   0  0  0  0  0  0  0  0  0  0  0  0
   27.1202   73.2605   39.3402 H   0  0  0  0  0  0  0  0  0  0  0  0
   25.6285   71.3222   38.9007 H   0  0  0  0  0  0  0  0  0  0  0  0
   25.3719   72.5726   37.6224 H   0  0  0  0  0  0  0  0  0  0  0  0
   22.1086   69.8450   40.1328 H   0  0  0  0  0  0  0  0  0  0  0  0
   19.6383   69.4391   40.2861 H   0  0  0  0  0  0  0  0  0  0  0  0
  1  4  2  0
  1 18  1  0
  1 25  1  0
  2  5  1  0
  2 12  2  0
  3 20  2  0
  4  7  1  0
  4 10  1  0
  5 13  1  0
  5 14  1  0
  6 28  1  0
  6 32  1  0
  7  9  2  0
  7 16  1  0
  8 19  2  0
  8 20  1  0
  9 11  1  0
  9 17  1  0
 10 21  1  0
 10 24  1  0
 11 12  1  0
 11 13  2  0
 12 15  1  0
 15 16  1  0
 17 18  2  0
 17 20  1  0
 18 19  1  0
 21 22  1  0
 21 23  1  0
 24 25  2  0
 24 34  1  0
 25 26  1  0
 26 27  2  0
 27 28  1  0
 27 33  1  0
 28 29  1  0
 29 30  1  0
 30 31  1  0
 31 32  1  0
 33 34  2  0
 13 35  1  0
 14 36  1  0
 14 37  1  0
 14 38  1  0
 15 39  1  0
 15 40  1  0
 16 41  1  0
 16 42  1  0
 19 43  1  0
 21 44  1  0
 22 45  1  0
 22 46  1  0
 22 47  1  0
 23 48  1  0
 23 49  1  0
 23 50  1  0
 26 51  1  0
 28 52  1  0
 29 53  1  0
 29 54  1  0
 30 55  1  0
 30 56  1  0
 31 57  1  0
 31 58  1  0
 32 59  1  0
 32 60  1  0
 33 61  1  0
 34 62  1  0
A    1
C1
A    2
N1
A    3
O1
A    4
C2
A    5
N2
A    6
O2
A    7
C3
A    8
N3
A    9
C4
A   10
N4
A   11
C5
A   12
C6
A   13
C7
A   14
C8
A   15
C9
A   16
C10
A   17
C11
A   18
C12
A   19
C13
A   20
C14
A   21
C15
A   22
C16
A   23
C17
A   24
C18
A   25
C19
A   26
C20
A   27
C21
A   28
C22
A   29
C23
A   30
C24
A   31
C25
A   32
C26
A   33
C27
A   34
C28
M  END
