3L8V_L8V_A_1
     RDKit          3D

 49 52  0  0  0  0  0  0  0  0999 V2000
   -1.0800   12.6670   59.4050 N   0  0  0  0  0  0  0  0  0  0  0  0
    0.1640   13.1890   59.4510 C   0  0  0  0  0  0  0  0  0  0  0  0
    1.1450   12.7510   58.5530 C   0  0  0  0  0  0  0  0  0  0  0  0
    0.7660   11.7540   57.6200 C   0  0  0  0  0  0  0  0  0  0  0  0
    1.7840   11.3410   56.7350 O   0  0  0  0  0  0  0  0  0  0  0  0
    1.6480   10.1220   56.0550 C   0  0  0  0  0  0  0  0  0  0  0  0
    1.8910    8.8670   56.6850 C   0  0  0  0  0  0  0  0  0  0  0  0
    1.7390    7.6710   55.9570 C   0  0  0  0  0  0  0  0  0  0  0  0
    1.3510    7.7180   54.6080 C   0  0  0  0  0  0  0  0  0  0  0  0
    1.1130    8.9410   53.9780 C   0  0  0  0  0  0  0  0  0  0  0  0
    1.2610   10.1180   54.7060 C   0  0  0  0  0  0  0  0  0  0  0  0
    1.0220   11.2600   54.0730 F   0  0  0  0  0  0  0  0  0  0  0  0
    1.2300    6.5300   53.9840 N   0  0  0  0  0  0  0  0  0  0  0  0
    0.8820    6.1930   52.7140 C   0  0  0  0  0  0  0  0  0  0  0  0
    0.4760    4.8700   52.4940 C   0  0  0  0  0  0  0  0  0  0  0  0
    0.1210    4.5360   51.1730 C   0  0  0  0  0  0  0  0  0  0  0  0
    0.1570    5.4470   50.1170 C   0  0  0  0  0  0  0  0  0  0  0  0
    0.5750    6.7420   50.4390 C   0  0  0  0  0  0  0  0  0  0  0  0
    0.9260    7.1010   51.7000 N   0  0  0  0  0  0  0  0  0  0  0  0
    0.4260    3.8780   53.5830 C   0  0  0  0  0  0  0  0  0  0  0  0
    0.6860    4.1310   54.7620 O   0  0  0  0  0  0  0  0  0  0  0  0
    0.0680    2.6320   53.2070 N   0  0  0  0  0  0  0  0  0  0  0  0
   -0.0170    1.6110   54.1220 C   0  0  0  0  0  0  0  0  0  0  0  0
   -1.0350    1.5510   55.1340 C   0  0  0  0  0  0  0  0  0  0  0  0
   -1.0530    0.4560   56.0480 C   0  0  0  0  0  0  0  0  0  0  0  0
   -0.0510   -0.5530   55.9240 C   0  0  0  0  0  0  0  0  0  0  0  0
    0.9430   -0.5190   54.9570 C   0  0  0  0  0  0  0  0  0  0  0  0
    0.9430    0.5620   54.0720 C   0  0  0  0  0  0  0  0  0  0  0  0
    0.0090   -1.6100   56.7300 F   0  0  0  0  0  0  0  0  0  0  0  0
   -1.4470   11.7160   58.5190 C   0  0  0  0  0  0  0  0  0  0  0  0
   -0.5540   11.2180   57.5930 C   0  0  0  0  0  0  0  0  0  0  0  0
    1.9090    0.5700   53.1520 F   0  0  0  0  0  0  0  0  0  0  0  0
    0.3990   14.1410   60.3990 N   0  0  0  0  0  0  0  0  0  0  0  0
    2.1649   13.1627   58.5710 H   0  0  0  0  0  0  0  0  0  0  0  0
    2.1976    8.8324   57.7409 H   0  0  0  0  0  0  0  0  0  0  0  0
    1.9238    6.7021   56.4439 H   0  0  0  0  0  0  0  0  0  0  0  0
    0.8125    8.9739   52.9203 H   0  0  0  0  0  0  0  0  0  0  0  0
    1.4421    5.7211   54.5854 H   0  0  0  0  0  0  0  0  0  0  0  0
   -0.2008    3.5053   50.9631 H   0  0  0  0  0  0  0  0  0  0  0  0
   -0.1264    5.1636   49.0926 H   0  0  0  0  0  0  0  0  0  0  0  0
    0.6210    7.4976   49.6409 H   0  0  0  0  0  0  0  0  0  0  0  0
   -0.1451    2.4436   52.2171 H   0  0  0  0  0  0  0  0  0  0  0  0
   -1.7948    2.3434   55.2035 H   0  0  0  0  0  0  0  0  0  0  0  0
   -1.8224    0.3906   56.8314 H   0  0  0  0  0  0  0  0  0  0  0  0
    1.7019   -1.3125   54.8896 H   0  0  0  0  0  0  0  0  0  0  0  0
   -2.4774   11.3313   58.5361 H   0  0  0  0  0  0  0  0  0  0  0  0
   -0.8469   10.4440   56.8683 H   0  0  0  0  0  0  0  0  0  0  0  0
    0.3391   13.8985   61.3983 H   0  0  0  0  0  0  0  0  0  0  0  0
    0.6363   15.1024   60.1157 H   0  0  0  0  0  0  0  0  0  0  0  0
  1  2  2  0
  1 30  1  0
  2  3  1  0
  2 33  1  0
  3  4  2  0
  4  5  1  0
  4 31  1  0
  5  6  1  0
  6  7  2  0
  6 11  1  0
  7  8  1  0
  8  9  2  0
  9 10  1  0
  9 13  1  0
 10 11  2  0
 11 12  1  0
 13 14  1  0
 14 15  1  0
 14 19  2  0
 15 16  2  0
 15 20  1  0
 16 17  1  0
 17 18  2  0
 18 19  1  0
 20 21  2  0
 20 22  1  0
 22 23  1  0
 23 24  2  0
 23 28  1  0
 24 25  1  0
 25 26  2  0
 26 27  1  0
 26 29  1  0
 27 28  2  0
 28 32  1  0
 30 31  2  0
  3 34  1  0
  7 35  1  0
  8 36  1  0
 10 37  1  0
 13 38  1  0
 16 39  1  0
 17 40  1  0
 18 41  1  0
 22 42  1  0
 24 43  1  0
 25 44  1  0
 27 45  1  0
 30 46  1  0
 31 47  1  0
 33 48  1  0
 33 49  1  0
A    1
N1
A    2
C2
A    3
C3
A    4
C4
A    5
O5
A    6
C6
A    7
C7
A    8
C8
A    9
C9
A   10
C10
A   11
C11
A   12
F12
A   13
N13
A   14
C14
A   15
C15
A   16
C16
A   17
C17
A   18
C18
A   19
N19
A   20
C20
A   21
O21
A   22
N22
A   23
C23
A   24
C24
A   25
C25
A   26
C26
A   27
C27
A   28
C28
A   29
F29
A   30
C30
A   31
C31
A   32
F32
A   33
N33
M  END
