3CG2_N4D_A_361
     RDKit          3D

 45 48  0  0  0  0  0  0  0  0999 V2000
   -5.2150   -3.0400  -22.0500 C   0  0  0  0  0  0  0  0  0  0  0  0
   -2.1980   -1.2630  -24.5530 C   0  0  0  0  0  0  0  0  0  0  0  0
   -3.0880   -4.3910  -19.7370 C   0  0  0  0  0  0  0  0  0  0  0  0
   -2.4540   -5.4030  -17.6440 C   0  0  0  0  0  0  0  0  0  0  0  0
   -3.8690   -3.4770  -21.9610 C   0  0  0  0  0  0  0  0  0  0  0  0
   -6.2990   -3.6360  -21.1910 C   0  0  0  0  0  0  0  0  0  0  0  0
   -1.5870    0.5520  -26.0480 C   0  0  0  0  0  0  0  0  0  0  0  0
   -2.8940   -5.5480  -18.9540 C   0  0  0  0  0  0  0  0  0  0  0  0
   -3.2490   -1.8770  -23.6990 C   0  0  0  0  0  0  0  0  0  0  0  0
   -1.2680   -7.9590  -13.1920 C   0  0  0  0  0  0  0  0  0  0  0  0
   -0.8310   -6.7290  -13.6690 C   0  0  0  0  0  0  0  0  0  0  0  0
   -2.0510   -8.7560  -14.0170 C   0  0  0  0  0  0  0  0  0  0  0  0
   -4.5790   -1.4530  -23.7790 C   0  0  0  0  0  0  0  0  0  0  0  0
   -5.5520   -2.0290  -22.9600 C   0  0  0  0  0  0  0  0  0  0  0  0
   -1.1730   -6.2930  -14.9610 C   0  0  0  0  0  0  0  0  0  0  0  0
   -2.3960   -8.3290  -15.3060 C   0  0  0  0  0  0  0  0  0  0  0  0
   -2.8910   -2.8890  -22.7860 C   0  0  0  0  0  0  0  0  0  0  0  0
   -3.0170   -6.9370  -19.1270 C   0  0  0  0  0  0  0  0  0  0  0  0
   -2.4100   -3.1870  -17.8710 C   0  0  0  0  0  0  0  0  0  0  0  0
   -1.9560   -7.0910  -15.7960 C   0  0  0  0  0  0  0  0  0  0  0  0
   -2.6970   -7.6210  -18.0320 N   0  0  0  0  0  0  0  0  0  0  0  0
   -2.2020   -4.2220  -17.0400 N   0  0  0  0  0  0  0  0  0  0  0  0
   -2.8220   -3.1990  -19.1580 N   0  0  0  0  0  0  0  0  0  0  0  0
   -2.3390   -6.6840  -17.1120 N   0  0  0  0  0  0  0  0  0  0  0  0
   -3.5200   -4.4930  -21.0590 N   0  0  0  0  0  0  0  0  0  0  0  0
   -2.5870   -0.3070  -25.4620 N   0  0  0  0  0  0  0  0  0  0  0  0
   -1.0380   -1.6150  -24.4150 O   0  0  0  0  0  0  0  0  0  0  0  0
   -6.0446   -3.4961  -20.1300 H   0  0  0  0  0  0  0  0  0  0  0  0
   -7.2548   -3.1366  -21.4078 H   0  0  0  0  0  0  0  0  0  0  0  0
   -6.3894   -4.7106  -21.4078 H   0  0  0  0  0  0  0  0  0  0  0  0
   -1.0133    1.0448  -25.2493 H   0  0  0  0  0  0  0  0  0  0  0  0
   -0.9074   -0.0482  -26.6708 H   0  0  0  0  0  0  0  0  0  0  0  0
   -2.0778    1.3144  -26.6708 H   0  0  0  0  0  0  0  0  0  0  0  0
   -0.9987   -8.2951  -12.1798 H   0  0  0  0  0  0  0  0  0  0  0  0
   -0.2091   -6.0879  -13.0269 H   0  0  0  0  0  0  0  0  0  0  0  0
   -2.4040   -9.7328  -13.6546 H   0  0  0  0  0  0  0  0  0  0  0  0
   -4.8599   -0.6623  -24.4902 H   0  0  0  0  0  0  0  0  0  0  0  0
   -6.5946   -1.6854  -23.0298 H   0  0  0  0  0  0  0  0  0  0  0  0
   -0.8201   -5.3138  -15.3170 H   0  0  0  0  0  0  0  0  0  0  0  0
   -3.0204   -8.9735  -15.9422 H   0  0  0  0  0  0  0  0  0  0  0  0
   -1.8444   -3.2206  -22.7176 H   0  0  0  0  0  0  0  0  0  0  0  0
   -3.3427   -7.4078  -20.0663 H   0  0  0  0  0  0  0  0  0  0  0  0
   -2.2183   -2.1914  -17.4445 H   0  0  0  0  0  0  0  0  0  0  0  0
   -3.5934   -5.4526  -21.4260 H   0  0  0  0  0  0  0  0  0  0  0  0
   -3.5788   -0.2057  -25.7209 H   0  0  0  0  0  0  0  0  0  0  0  0
  1  5  2  0
  1  6  1  0
  1 14  1  0
  2  9  1  0
  2 26  1  0
  2 27  2  0
  3  8  2  0
  3 23  1  0
  3 25  1  0
  4  8  1  0
  4 22  2  0
  4 24  1  0
  5 17  1  0
  5 25  1  0
  7 26  1  0
  8 18  1  0
  9 13  1  0
  9 17  2  0
 10 11  2  0
 10 12  1  0
 11 15  1  0
 12 16  2  0
 13 14  2  0
 15 20  2  0
 16 20  1  0
 18 21  2  0
 19 22  1  0
 19 23  2  0
 20 24  1  0
 21 24  1  0
  6 28  1  0
  6 29  1  0
  6 30  1  0
  7 31  1  0
  7 32  1  0
  7 33  1  0
 10 34  1  0
 11 35  1  0
 12 36  1  0
 13 37  1  0
 14 38  1  0
 15 39  1  0
 16 40  1  0
 17 41  1  0
 18 42  1  0
 19 43  1  0
 25 44  1  0
 26 45  1  0
A    1
C13
A    2
C18
A    3
C17
A    4
C16
A    5
C15
A    6
C19
A    7
C20
A    8
C11
A    9
C12
A   10
C1
A   11
C2
A   12
C3
A   13
C4
A   14
C5
A   15
C6
A   16
C7
A   17
C8
A   18
C9
A   19
C10
A   20
C14
A   21
N21
A   22
N22
A   23
N23
A   24
N24
A   25
N25
A   26
N26
A   27
O27
M  END
