3L9L_L9L_A_351
     RDKit          3D

 49 52  0  0  0  0  0  0  0  0999 V2000
   28.9430    7.0250    6.4340 C   0  0  0  0  0  0  0  0  0  0  0  0
   28.6550    3.7990   11.8450 F   0  0  0  0  0  0  0  0  0  0  0  0
   32.0410    1.4530    6.1440 N   0  0  0  0  0  0  0  0  0  0  0  0
   25.3400    8.4900   10.7180 O   0  0  0  0  0  0  0  0  0  0  0  0
   30.4850    3.3240    7.4590 S   0  0  0  0  0  0  0  0  0  0  0  0
   28.0410    8.0320    6.8960 C   0  0  0  0  0  0  0  0  0  0  0  0
   27.3350    2.2900   12.8090 F   0  0  0  0  0  0  0  0  0  0  0  0
   31.9030    3.7860    5.3270 N   0  0  0  0  0  0  0  0  0  0  0  0
   27.5230    7.8480    8.2330 C   0  0  0  0  0  0  0  0  0  0  0  0
   26.4330    3.6470   11.1910 F   0  0  0  0  0  0  0  0  0  0  0  0
   30.5480   -1.0390    5.3660 N   0  0  0  0  0  0  0  0  0  0  0  0
   27.8710    6.7480    9.0430 C   0  0  0  0  0  0  0  0  0  0  0  0
   26.5810    8.5670    8.8350 N   0  0  0  0  0  0  0  0  0  0  0  0
   28.7780    5.7380    8.5770 C   0  0  0  0  0  0  0  0  0  0  0  0
   29.3600    5.8680    7.2270 C   0  0  0  0  0  0  0  0  0  0  0  0
   30.2010   -0.1500    6.5220 C   0  0  0  0  0  0  0  0  0  0  0  0
   26.2330    8.0430   10.0240 C   0  0  0  0  0  0  0  0  0  0  0  0
   30.3570    4.8600    6.7270 C   0  0  0  0  0  0  0  0  0  0  0  0
   31.2020    4.9580    5.5640 C   0  0  0  0  0  0  0  0  0  0  0  0
   31.6230    2.8360    6.2550 C   0  0  0  0  0  0  0  0  0  0  0  0
   31.4900    0.4680    7.0710 C   0  0  0  0  0  0  0  0  0  0  0  0
   27.8380    0.8960    8.2950 C   0  0  0  0  0  0  0  0  0  0  0  0
   27.4180    1.8890    9.2580 C   0  0  0  0  0  0  0  0  0  0  0  0
   28.0290    1.9740   10.5960 C   0  0  0  0  0  0  0  0  0  0  0  0
   29.1460    1.0400   10.8900 C   0  0  0  0  0  0  0  0  0  0  0  0
   29.5610    0.0230    9.9600 C   0  0  0  0  0  0  0  0  0  0  0  0
   28.9070    0.0330    8.6730 C   0  0  0  0  0  0  0  0  0  0  0  0
   27.5650    3.0040   11.6880 C   0  0  0  0  0  0  0  0  0  0  0  0
   29.4060   -0.9170    7.5860 C   0  0  0  0  0  0  0  0  0  0  0  0
   27.1220    6.8330   10.3540 C   0  0  0  0  0  0  0  0  0  0  0  0
   29.3501    7.1258    5.4171 H   0  0  0  0  0  0  0  0  0  0  0  0
   32.7174    1.1685    5.4212 H   0  0  0  0  0  0  0  0  0  0  0  0
   27.7583    8.8935    6.2732 H   0  0  0  0  0  0  0  0  0  0  0  0
   30.8998   -1.9402    5.7195 H   0  0  0  0  0  0  0  0  0  0  0  0
   29.7079   -1.1996    4.7921 H   0  0  0  0  0  0  0  0  0  0  0  0
   26.1671    9.4228    8.4386 H   0  0  0  0  0  0  0  0  0  0  0  0
   29.0353    4.8804    9.2160 H   0  0  0  0  0  0  0  0  0  0  0  0
   29.5437    0.6668    6.1891 H   0  0  0  0  0  0  0  0  0  0  0  0
   31.2815    5.8583    4.9371 H   0  0  0  0  0  0  0  0  0  0  0  0
   32.2310   -0.3294    7.2292 H   0  0  0  0  0  0  0  0  0  0  0  0
   31.2566    0.9748    8.0190 H   0  0  0  0  0  0  0  0  0  0  0  0
   27.3527    0.8102    7.3116 H   0  0  0  0  0  0  0  0  0  0  0  0
   26.6229    2.5984    8.9852 H   0  0  0  0  0  0  0  0  0  0  0  0
   29.6738    1.1286   11.8510 H   0  0  0  0  0  0  0  0  0  0  0  0
   30.3319   -0.7190   10.2151 H   0  0  0  0  0  0  0  0  0  0  0  0
   28.5436   -1.4065    7.1099 H   0  0  0  0  0  0  0  0  0  0  0  0
   30.0637   -1.6688    8.0467 H   0  0  0  0  0  0  0  0  0  0  0  0
   26.5320    5.9266   10.5548 H   0  0  0  0  0  0  0  0  0  0  0  0
   27.7438    6.9265   11.2566 H   0  0  0  0  0  0  0  0  0  0  0  0
  1  6  2  0
  1 15  1  0
 28  2  1  0
  3 20  1  0
  3 21  1  0
 17  4  2  0
 20  5  1  0
 18  5  1  0
  6  9  1  0
 28  7  1  0
  8 19  1  0
  8 20  2  0
  9 12  2  0
  9 13  1  0
 10 28  1  0
 11 16  1  0
 12 14  1  0
 12 30  1  0
 13 17  1  0
 14 15  2  0
 18 15  1  0
 16 21  1  0
 16 29  1  0
 17 30  1  0
 19 18  2  0
 22 27  2  0
 22 23  1  0
 23 24  2  0
 24 25  1  0
 24 28  1  0
 26 25  2  0
 27 26  1  0
 29 27  1  0
  1 31  1  0
  3 32  1  0
  6 33  1  0
 11 34  1  0
 11 35  1  0
 13 36  1  0
 14 37  1  0
 16 38  1  0
 19 39  1  0
 21 40  1  0
 21 41  1  0
 22 42  1  0
 23 43  1  0
 25 44  1  0
 26 45  1  0
 29 46  1  0
 29 47  1  0
 30 48  1  0
 30 49  1  0
A    1
C1
A    2
F1
A    3
N1
A    4
O1
A    5
S1
A    6
C2
A    7
F2
A    8
N2
A    9
C3
A   10
F3
A   11
N3
A   12
C4
A   13
N4
A   14
C5
A   15
C6
A   16
C7
A   17
C8
A   18
C9
A   19
C10
A   20
C11
A   21
C12
A   22
C13
A   23
C14
A   24
C15
A   25
C16
A   26
C17
A   27
C18
A   28
C19
A   29
C20
A   30
C21
M  END
