3L9M_L9M_A_351
     RDKit          3D

 49 52  0  0  0  0  0  0  0  0999 V2000
   27.7810    1.1500    8.8420 C   0  0  0  0  0  0  0  0  0  0  0  0
   25.6970    8.4820    9.3970 N   0  0  0  0  0  0  0  0  0  0  0  0
   30.0540    3.5020    7.6100 S   0  0  0  0  0  0  0  0  0  0  0  0
   27.3810    2.0450    9.9040 C   0  0  0  0  0  0  0  0  0  0  0  0
   31.5370    4.0450    5.6520 N   0  0  0  0  0  0  0  0  0  0  0  0
   28.1870    2.0530   11.1160 C   0  0  0  0  0  0  0  0  0  0  0  0
   30.5300   -0.8930    5.7050 N   0  0  0  0  0  0  0  0  0  0  0  0
   29.3640    1.2250   11.3350 C   0  0  0  0  0  0  0  0  0  0  0  0
   26.2750    9.0600    8.3410 N   0  0  0  0  0  0  0  0  0  0  0  0
   29.7520    0.3440   10.2740 C   0  0  0  0  0  0  0  0  0  0  0  0
   30.8120    5.0500    5.7470 N   0  0  0  0  0  0  0  0  0  0  0  0
   28.9600    0.3250    9.0570 C   0  0  0  0  0  0  0  0  0  0  0  0
   31.9660    1.7630    6.3140 N   0  0  0  0  0  0  0  0  0  0  0  0
   31.4970    0.7340    7.2850 C   0  0  0  0  0  0  0  0  0  0  0  0
   29.4160   -0.6210    7.9330 C   0  0  0  0  0  0  0  0  0  0  0  0
   26.1770    7.2750    9.6450 C   0  0  0  0  0  0  0  0  0  0  0  0
   30.2030    0.0630    6.8040 C   0  0  0  0  0  0  0  0  0  0  0  0
   29.0360    7.3230    6.2970 C   0  0  0  0  0  0  0  0  0  0  0  0
   31.3030    2.9930    6.4540 C   0  0  0  0  0  0  0  0  0  0  0  0
   28.1390    8.4110    6.6210 C   0  0  0  0  0  0  0  0  0  0  0  0
   27.2330    8.2640    7.7620 C   0  0  0  0  0  0  0  0  0  0  0  0
   27.1860    7.0510    8.6160 C   0  0  0  0  0  0  0  0  0  0  0  0
   28.0920    5.9700    8.2750 C   0  0  0  0  0  0  0  0  0  0  0  0
   29.0030    6.1150    7.1230 C   0  0  0  0  0  0  0  0  0  0  0  0
   25.7470    6.4170   10.7630 C   0  0  0  0  0  0  0  0  0  0  0  0
   29.9220    5.0400    6.7610 C   0  0  0  0  0  0  0  0  0  0  0  0
   27.6800    3.1600   12.3800 C   0  0  0  0  0  0  0  0  0  0  0  0
   27.2126    1.0944    7.9019 H   0  0  0  0  0  0  0  0  0  0  0  0
   26.5003    2.6958    9.8002 H   0  0  0  0  0  0  0  0  0  0  0  0
   30.8366   -1.7893    6.1095 H   0  0  0  0  0  0  0  0  0  0  0  0
   29.6938   -1.0468    5.1236 H   0  0  0  0  0  0  0  0  0  0  0  0
   29.9318    1.2737   12.2759 H   0  0  0  0  0  0  0  0  0  0  0  0
   26.0293    9.9997    7.9983 H   0  0  0  0  0  0  0  0  0  0  0  0
   30.6333   -0.3058   10.3792 H   0  0  0  0  0  0  0  0  0  0  0  0
   32.7004    1.5898    5.6129 H   0  0  0  0  0  0  0  0  0  0  0  0
   32.2773   -0.0328    7.3994 H   0  0  0  0  0  0  0  0  0  0  0  0
   31.2949    1.2296    8.2460 H   0  0  0  0  0  0  0  0  0  0  0  0
   30.0564   -1.3977    8.3764 H   0  0  0  0  0  0  0  0  0  0  0  0
   28.5016   -1.0267    7.4755 H   0  0  0  0  0  0  0  0  0  0  0  0
   29.5349    0.8505    6.4252 H   0  0  0  0  0  0  0  0  0  0  0  0
   29.7292    7.4021    5.4466 H   0  0  0  0  0  0  0  0  0  0  0  0
   28.1376    9.3327    6.0206 H   0  0  0  0  0  0  0  0  0  0  0  0
   28.0997    5.0465    8.8725 H   0  0  0  0  0  0  0  0  0  0  0  0
   25.9926    6.9070   11.7167 H   0  0  0  0  0  0  0  0  0  0  0  0
   24.6608    6.2541   10.7035 H   0  0  0  0  0  0  0  0  0  0  0  0
   26.2667    5.4493   10.7035 H   0  0  0  0  0  0  0  0  0  0  0  0
   27.8851    2.7122   13.3636 H   0  0  0  0  0  0  0  0  0  0  0  0
   28.2351    4.1048   12.2843 H   0  0  0  0  0  0  0  0  0  0  0  0
   26.6020    3.3568   12.2843 H   0  0  0  0  0  0  0  0  0  0  0  0
  1  4  2  0
  1 12  1  0
  2  9  1  0
  2 16  2  0
  3 19  1  0
  3 26  1  0
  4  6  1  0
  5 11  1  0
  5 19  2  0
  6  8  2  0
  6 27  1  0
  7 17  1  0
  8 10  1  0
  9 21  1  0
 10 12  2  0
 11 26  2  0
 12 15  1  0
 13 14  1  0
 13 19  1  0
 14 17  1  0
 15 17  1  0
 16 22  1  0
 16 25  1  0
 18 20  1  0
 18 24  2  0
 20 21  2  0
 21 22  1  0
 22 23  2  0
 23 24  1  0
 24 26  1  0
  1 28  1  0
  4 29  1  0
  7 30  1  0
  7 31  1  0
  8 32  1  0
  9 33  1  0
 10 34  1  0
 13 35  1  0
 14 36  1  0
 14 37  1  0
 15 38  1  0
 15 39  1  0
 17 40  1  0
 18 41  1  0
 20 42  1  0
 23 43  1  0
 25 44  1  0
 25 45  1  0
 25 46  1  0
 27 47  1  0
 27 48  1  0
 27 49  1  0
A    1
C1
A    2
N1
A    3
S1
A    4
C2
A    5
N2
A    6
C3
A    7
N3
A    8
C4
A    9
N4
A   10
C5
A   11
N5
A   12
C6
A   13
N6
A   14
C7
A   15
C8
A   16
C9
A   17
C10
A   18
C11
A   19
C12
A   20
C13
A   21
C14
A   22
C15
A   23
C16
A   24
C17
A   25
C18
A   26
C19
A   27
CL1
M  END
