3L9N_L9N_A_351
     RDKit          3D

 46 49  0  0  0  0  0  0  0  0999 V2000
   33.2850   19.8420   57.4660 C   0  0  0  0  0  0  0  0  0  0  0  0
   34.7850   12.6360   55.9320 N   0  0  0  0  0  0  0  0  0  0  0  0
   31.0860   17.6540   58.9400 S   0  0  0  0  0  0  0  0  0  0  0  0
   34.2570   18.7700   57.5560 C   0  0  0  0  0  0  0  0  0  0  0  0
   28.6840   17.3840   59.3000 N   0  0  0  0  0  0  0  0  0  0  0  0
   34.9850   18.6460   58.8070 C   0  0  0  0  0  0  0  0  0  0  0  0
   29.6000   22.2690   58.5680 N   0  0  0  0  0  0  0  0  0  0  0  0
   34.8130   19.5120   59.9510 C   0  0  0  0  0  0  0  0  0  0  0  0
   33.5410   12.1190   55.8610 N   0  0  0  0  0  0  0  0  0  0  0  0
   33.8510   20.5700   59.8560 C   0  0  0  0  0  0  0  0  0  0  0  0
   28.9930   16.2070   58.6980 N   0  0  0  0  0  0  0  0  0  0  0  0
   33.1040   20.7110   58.6180 C   0  0  0  0  0  0  0  0  0  0  0  0
   29.4300   19.6270   60.1750 N   0  0  0  0  0  0  0  0  0  0  0  0
   30.4600   20.6520   60.1920 C   0  0  0  0  0  0  0  0  0  0  0  0
   32.0450   21.8180   58.5330 C   0  0  0  0  0  0  0  0  0  0  0  0
   34.6460   13.8420   56.5680 C   0  0  0  0  0  0  0  0  0  0  0  0
   30.6360   21.2270   58.7690 C   0  0  0  0  0  0  0  0  0  0  0  0
   30.3580   13.8280   57.2290 C   0  0  0  0  0  0  0  0  0  0  0  0
   29.6280   18.3220   59.5400 C   0  0  0  0  0  0  0  0  0  0  0  0
   31.0830   12.7200   56.5520 C   0  0  0  0  0  0  0  0  0  0  0  0
   32.5250   12.8370   56.3860 C   0  0  0  0  0  0  0  0  0  0  0  0
   33.2650   14.0390   56.8860 C   0  0  0  0  0  0  0  0  0  0  0  0
   32.5200   15.0970   57.5440 C   0  0  0  0  0  0  0  0  0  0  0  0
   31.0550   15.0350   57.7380 C   0  0  0  0  0  0  0  0  0  0  0  0
   30.3390   16.1750   58.4130 C   0  0  0  0  0  0  0  0  0  0  0  0
   36.1800   17.3630   59.0120 C   0  0  0  0  0  0  0  0  0  0  0  0
   32.6983   19.9944   56.5481 H   0  0  0  0  0  0  0  0  0  0  0  0
   34.4350   18.0825   56.7160 H   0  0  0  0  0  0  0  0  0  0  0  0
   29.2674   22.6036   59.4836 H   0  0  0  0  0  0  0  0  0  0  0  0
   30.0029   23.0565   58.0404 H   0  0  0  0  0  0  0  0  0  0  0  0
   35.4029   19.3635   60.8675 H   0  0  0  0  0  0  0  0  0  0  0  0
   33.3713   11.2040   55.4196 H   0  0  0  0  0  0  0  0  0  0  0  0
   33.6827   21.2572   60.6983 H   0  0  0  0  0  0  0  0  0  0  0  0
   28.5260   19.8258   60.6268 H   0  0  0  0  0  0  0  0  0  0  0  0
   30.1641   21.4581   60.8794 H   0  0  0  0  0  0  0  0  0  0  0  0
   31.4099   20.2125   60.5305 H   0  0  0  0  0  0  0  0  0  0  0  0
   32.2528   22.5795   59.2992 H   0  0  0  0  0  0  0  0  0  0  0  0
   32.0807   22.2733   57.5323 H   0  0  0  0  0  0  0  0  0  0  0  0
   35.4621   14.5433   56.7965 H   0  0  0  0  0  0  0  0  0  0  0  0
   30.5225   20.4089   58.0424 H   0  0  0  0  0  0  0  0  0  0  0  0
   29.2682   13.7501   57.3567 H   0  0  0  0  0  0  0  0  0  0  0  0
   30.5435   11.8341   56.1858 H   0  0  0  0  0  0  0  0  0  0  0  0
   33.0657   15.9782   57.9123 H   0  0  0  0  0  0  0  0  0  0  0  0
   36.3461   17.1846   60.0847 H   0  0  0  0  0  0  0  0  0  0  0  0
   35.8120   16.4403   58.5395 H   0  0  0  0  0  0  0  0  0  0  0  0
   37.1265   17.6646   58.5395 H   0  0  0  0  0  0  0  0  0  0  0  0
  1  4  2  0
  1 12  1  0
  2  9  1  0
  2 16  2  0
  3 19  1  0
  3 25  1  0
  4  6  1  0
  5 11  1  0
  5 19  2  0
  6  8  2  0
  6 26  1  0
  7 17  1  0
  8 10  1  0
  9 21  1  0
 10 12  2  0
 11 25  2  0
 12 15  1  0
 13 14  1  0
 13 19  1  0
 14 17  1  0
 15 17  1  0
 16 22  1  0
 18 20  1  0
 18 24  2  0
 20 21  2  0
 21 22  1  0
 22 23  2  0
 23 24  1  0
 24 25  1  0
  1 27  1  0
  4 28  1  0
  7 29  1  0
  7 30  1  0
  8 31  1  0
  9 32  1  0
 10 33  1  0
 13 34  1  0
 14 35  1  0
 14 36  1  0
 15 37  1  0
 15 38  1  0
 16 39  1  0
 17 40  1  0
 18 41  1  0
 20 42  1  0
 23 43  1  0
 26 44  1  0
 26 45  1  0
 26 46  1  0
A    1
C1
A    2
N1
A    3
S1
A    4
C2
A    5
N2
A    6
C3
A    7
N3
A    8
C4
A    9
N4
A   10
C5
A   11
N5
A   12
C6
A   13
N6
A   14
C7
A   15
C8
A   16
C9
A   17
C10
A   18
C11
A   19
C12
A   20
C13
A   21
C14
A   22
C15
A   23
C16
A   24
C17
A   25
C18
A   26
CL1
M  END
