3LAM_KRP_A_561
     RDKit          3D

 46 47  0  0  0  0  0  0  0  0999 V2000
    6.3060   10.6090   15.5010 C   0  0  0  0  0  0  0  0  0  0  0  0
    6.8960    9.3000   16.0390 C   0  0  0  0  0  0  0  0  0  0  0  0
    7.0050   11.8980   16.0920 C   0  0  0  0  0  0  0  0  0  0  0  0
    8.3090   12.3400   15.3240 N   0  0  0  0  0  0  0  0  0  0  0  0
    9.6560   12.2910   15.9250 C   0  0  0  0  0  0  0  0  0  0  0  0
    9.6790   11.7310   17.3840 C   0  0  0  0  0  0  0  0  0  0  0  0
    9.4550   10.5420   17.5130 O   0  0  0  0  0  0  0  0  0  0  0  0
    9.9360   12.5970   18.6470 C   0  0  0  0  0  0  0  0  0  0  0  0
    9.8880   11.9800   19.9690 C   0  0  0  0  0  0  0  0  0  0  0  0
   10.1130   12.8040   21.1500 C   0  0  0  0  0  0  0  0  0  0  0  0
   10.0490   12.2460   22.4330 C   0  0  0  0  0  0  0  0  0  0  0  0
    9.9400   11.8020   23.4890 N   0  0  0  0  0  0  0  0  0  0  0  0
   10.3920   14.2130   21.0400 C   0  0  0  0  0  0  0  0  0  0  0  0
   10.4520   14.8420   19.7530 C   0  0  0  0  0  0  0  0  0  0  0  0
   10.7490   16.3340   19.6340 C   0  0  0  0  0  0  0  0  0  0  0  0
   10.2210   14.0460   18.5630 C   0  0  0  0  0  0  0  0  0  0  0  0
   10.8100   12.6960   15.1910 C   0  0  0  0  0  0  0  0  0  0  0  0
   12.2880   12.6700   15.7380 C   0  0  0  0  0  0  0  0  0  0  0  0
   12.9390   14.1040   15.7360 C   0  0  0  0  0  0  0  0  0  0  0  0
   13.1670   11.7060   14.8710 C   0  0  0  0  0  0  0  0  0  0  0  0
   10.4700   13.2110   13.7460 C   0  0  0  0  0  0  0  0  0  0  0  0
   11.3110   13.6080   12.9690 O   0  0  0  0  0  0  0  0  0  0  0  0
    9.1930   13.2210   13.3150 N   0  0  0  0  0  0  0  0  0  0  0  0
    8.1160   12.8200   14.0510 C   0  0  0  0  0  0  0  0  0  0  0  0
    6.9850   12.8910   13.4980 O   0  0  0  0  0  0  0  0  0  0  0  0
    6.4203   10.6201   14.4070 H   0  0  0  0  0  0  0  0  0  0  0  0
    5.2499   10.6411   15.8071 H   0  0  0  0  0  0  0  0  0  0  0  0
    6.8876    9.3187   17.1388 H   0  0  0  0  0  0  0  0  0  0  0  0
    6.2930    8.4520   15.6821 H   0  0  0  0  0  0  0  0  0  0  0  0
    7.9307    9.1902   15.6821 H   0  0  0  0  0  0  0  0  0  0  0  0
    6.2847   12.7285   16.0537 H   0  0  0  0  0  0  0  0  0  0  0  0
    7.3139   11.6462   17.1173 H   0  0  0  0  0  0  0  0  0  0  0  0
    9.6841   10.9041   20.0729 H   0  0  0  0  0  0  0  0  0  0  0  0
   10.5600   14.8098   21.9487 H   0  0  0  0  0  0  0  0  0  0  0  0
   10.8362   16.7718   20.6393 H   0  0  0  0  0  0  0  0  0  0  0  0
   11.6933   16.4775   19.0884 H   0  0  0  0  0  0  0  0  0  0  0  0
    9.9316   16.8282   19.0884 H   0  0  0  0  0  0  0  0  0  0  0  0
   10.2586   14.5305   17.5762 H   0  0  0  0  0  0  0  0  0  0  0  0
   12.2456   12.3110   16.7769 H   0  0  0  0  0  0  0  0  0  0  0  0
   13.0911   14.4391   16.7726 H   0  0  0  0  0  0  0  0  0  0  0  0
   13.9081   14.0660   15.2170 H   0  0  0  0  0  0  0  0  0  0  0  0
   12.2725   14.8085   15.2170 H   0  0  0  0  0  0  0  0  0  0  0  0
   13.7595   11.0562   15.5318 H   0  0  0  0  0  0  0  0  0  0  0  0
   12.5157   11.0873   14.2362 H   0  0  0  0  0  0  0  0  0  0  0  0
   13.8430   12.2976   14.2362 H   0  0  0  0  0  0  0  0  0  0  0  0
    9.0166   13.5568   12.3574 H   0  0  0  0  0  0  0  0  0  0  0  0
  1  2  1  0
  1  3  1  0
  4  3  1  0
 24  4  1  0
  4  5  1  0
 17  5  2  0
  5  6  1  0
  6  7  2  0
  6  8  1  0
 16  8  1  0
  8  9  2  0
  9 10  1  0
 13 10  2  0
 10 11  1  0
 11 12  3  0
 14 13  1  0
 16 14  2  0
 15 14  1  0
 21 17  1  0
 17 18  1  0
 20 18  1  0
 19 18  1  0
 22 21  2  0
 23 21  1  0
 23 24  1  0
 25 24  2  0
  1 26  1  0
  1 27  1  0
  2 28  1  0
  2 29  1  0
  2 30  1  0
  3 31  1  0
  3 32  1  0
  9 33  1  0
 13 34  1  0
 15 35  1  0
 15 36  1  0
 15 37  1  0
 16 38  1  0
 18 39  1  0
 19 40  1  0
 19 41  1  0
 19 42  1  0
 20 43  1  0
 20 44  1  0
 20 45  1  0
 23 46  1  0
A    1
C1
A    2
C2
A    3
C4
A    4
N5
A    5
C6
A    6
C7
A    7
O8
A    8
C9
A    9
C10
A   10
C11
A   11
C12
A   12
N13
A   13
C14
A   14
C15
A   15
C16
A   16
C17
A   17
C18
A   18
C19
A   19
C20
A   20
C21
A   21
C22
A   22
O23
A   23
N24
A   24
C25
A   25
O26
M  END
