3LAN_KBT_A_561
     RDKit          3D

 49 50  0  0  0  0  0  0  0  0999 V2000
    6.6540   10.2910   16.0940 C   0  0  0  0  0  0  0  0  0  0  0  0
    6.0340    9.5920   17.3160 C   0  0  0  0  0  0  0  0  0  0  0  0
    5.6690    8.1410   16.9450 C   0  0  0  0  0  0  0  0  0  0  0  0
    7.0190   11.7460   16.4800 C   0  0  0  0  0  0  0  0  0  0  0  0
    8.2520   12.2250   15.7100 N   0  0  0  0  0  0  0  0  0  0  0  0
    9.5730   12.1940   16.2580 C   0  0  0  0  0  0  0  0  0  0  0  0
    9.6430   11.6580   17.6840 C   0  0  0  0  0  0  0  0  0  0  0  0
    9.4480   10.4590   17.8200 O   0  0  0  0  0  0  0  0  0  0  0  0
    9.9010   12.5270   18.9080 C   0  0  0  0  0  0  0  0  0  0  0  0
    9.8790   11.9150   20.1960 C   0  0  0  0  0  0  0  0  0  0  0  0
   10.0890   12.7150   21.3590 C   0  0  0  0  0  0  0  0  0  0  0  0
   10.0320   12.1070   22.6320 C   0  0  0  0  0  0  0  0  0  0  0  0
    9.9510   11.6150   23.6670 N   0  0  0  0  0  0  0  0  0  0  0  0
   10.3330   14.1290   21.2550 C   0  0  0  0  0  0  0  0  0  0  0  0
   10.3650   14.7480   19.9670 C   0  0  0  0  0  0  0  0  0  0  0  0
   10.6220   16.2500   19.8160 C   0  0  0  0  0  0  0  0  0  0  0  0
   10.1410   13.9510   18.8060 C   0  0  0  0  0  0  0  0  0  0  0  0
   10.6870   12.6420   15.5240 C   0  0  0  0  0  0  0  0  0  0  0  0
   12.1430   12.6460   16.0310 C   0  0  0  0  0  0  0  0  0  0  0  0
   12.7560   14.0890   16.0320 C   0  0  0  0  0  0  0  0  0  0  0  0
   13.0140   11.6640   15.1560 C   0  0  0  0  0  0  0  0  0  0  0  0
   10.3390   13.1470   14.1140 C   0  0  0  0  0  0  0  0  0  0  0  0
   11.1820   13.5750   13.3420 O   0  0  0  0  0  0  0  0  0  0  0  0
    9.0530   13.1270   13.7110 N   0  0  0  0  0  0  0  0  0  0  0  0
    8.0270   12.6800   14.4650 C   0  0  0  0  0  0  0  0  0  0  0  0
    6.9020   12.7200   13.9650 O   0  0  0  0  0  0  0  0  0  0  0  0
    5.9295   10.2992   15.2663 H   0  0  0  0  0  0  0  0  0  0  0  0
    7.5583    9.7519   15.7753 H   0  0  0  0  0  0  0  0  0  0  0  0
    6.7587    9.5881   18.1435 H   0  0  0  0  0  0  0  0  0  0  0  0
    5.1270   10.1311   17.6269 H   0  0  0  0  0  0  0  0  0  0  0  0
    5.5213    7.5538   17.8634 H   0  0  0  0  0  0  0  0  0  0  0  0
    4.7416    8.1360   16.3534 H   0  0  0  0  0  0  0  0  0  0  0  0
    6.4836    7.6978   16.3534 H   0  0  0  0  0  0  0  0  0  0  0  0
    6.1698   12.4044   16.2447 H   0  0  0  0  0  0  0  0  0  0  0  0
    7.2441   11.7770   17.5563 H   0  0  0  0  0  0  0  0  0  0  0  0
    9.7014   10.8337   20.2923 H   0  0  0  0  0  0  0  0  0  0  0  0
   10.4941   14.7305   22.1618 H   0  0  0  0  0  0  0  0  0  0  0  0
   10.7008   16.7105   20.8119 H   0  0  0  0  0  0  0  0  0  0  0  0
   11.5602   16.4078   19.2638 H   0  0  0  0  0  0  0  0  0  0  0  0
    9.7896   16.7107   19.2638 H   0  0  0  0  0  0  0  0  0  0  0  0
   10.1507   14.4271   17.8144 H   0  0  0  0  0  0  0  0  0  0  0  0
   12.1445   12.2971   17.0742 H   0  0  0  0  0  0  0  0  0  0  0  0
   12.8991   14.4259   17.0693 H   0  0  0  0  0  0  0  0  0  0  0  0
   13.7261   14.0756   15.5137 H   0  0  0  0  0  0  0  0  0  0  0  0
   12.0728   14.7780   15.5137 H   0  0  0  0  0  0  0  0  0  0  0  0
   13.5982   11.0054   15.8156 H   0  0  0  0  0  0  0  0  0  0  0  0
   12.3537   11.0550   14.5212 H   0  0  0  0  0  0  0  0  0  0  0  0
   13.6975   12.2469   14.5212 H   0  0  0  0  0  0  0  0  0  0  0  0
    8.8394   13.4757   12.7657 H   0  0  0  0  0  0  0  0  0  0  0  0
  1  4  1  0
  1  2  1  0
  3  2  1  0
  5  4  1  0
 25  5  1  0
  5  6  1  0
 18  6  2  0
  6  7  1  0
  7  8  2  0
  7  9  1  0
 17  9  1  0
  9 10  2  0
 10 11  1  0
 14 11  2  0
 11 12  1  0
 12 13  3  0
 15 14  1  0
 17 15  2  0
 16 15  1  0
 22 18  1  0
 18 19  1  0
 21 19  1  0
 19 20  1  0
 23 22  2  0
 24 22  1  0
 24 25  1  0
 26 25  2  0
  1 27  1  0
  1 28  1  0
  2 29  1  0
  2 30  1  0
  3 31  1  0
  3 32  1  0
  3 33  1  0
  4 34  1  0
  4 35  1  0
 10 36  1  0
 14 37  1  0
 16 38  1  0
 16 39  1  0
 16 40  1  0
 17 41  1  0
 19 42  1  0
 20 43  1  0
 20 44  1  0
 20 45  1  0
 21 46  1  0
 21 47  1  0
 21 48  1  0
 24 49  1  0
A    1
C1
A    2
C2
A    3
C3
A    4
C4
A    5
N5
A    6
C6
A    7
C7
A    8
O8
A    9
C9
A   10
C10
A   11
C11
A   12
C12
A   13
N13
A   14
C14
A   15
C15
A   16
C16
A   17
C17
A   18
C18
A   19
C19
A   20
C20
A   21
C21
A   22
C22
A   23
O23
A   24
N24
A   25
C25
A   26
O26
M  END
