3LAP_GGB_A_200
     RDKit          3D

 24 23  0  0  0  0  0  0  0  0999 V2000
   -3.5960   -8.1200  -49.2550 N   0  0  0  0  0  0  0  0  0  0  0  0
   -3.9500   -6.9570  -48.4810 C   0  0  0  0  0  0  0  0  0  0  0  0
   -4.9290   -7.2280  -47.3710 C   0  0  0  0  0  0  0  0  0  0  0  0
   -4.4340   -8.0540  -46.2230 C   0  0  0  0  0  0  0  0  0  0  0  0
   -2.7330   -6.2560  -47.9970 C   0  0  0  0  0  0  0  0  0  0  0  0
   -5.3760   -8.3440  -45.2520 O   0  0  0  0  0  0  0  0  0  0  0  0
   -5.1190   -9.1320  -44.2520 N   0  0  0  0  0  0  0  0  0  0  0  0
   -4.9480   -8.5630  -42.9580 C   0  0  0  0  0  0  0  0  0  0  0  0
   -4.7430   -7.2490  -42.8420 N   0  0  0  0  0  0  0  0  0  0  0  0
   -4.8260   -9.3620  -41.9120 N   0  0  0  0  0  0  0  0  0  0  0  0
   -2.7320   -5.0530  -47.7230 O   0  0  0  0  0  0  0  0  0  0  0  0
   -1.6420   -7.0420  -47.7130 O   0  0  0  0  0  0  0  0  0  0  0  0
   -3.3598   -8.8960  -48.6202 H   0  0  0  0  0  0  0  0  0  0  0  0
   -4.3921   -8.3925  -49.8490 H   0  0  0  0  0  0  0  0  0  0  0  0
   -4.4892   -6.2864  -49.1663 H   0  0  0  0  0  0  0  0  0  0  0  0
   -5.2526   -6.2571  -46.9678 H   0  0  0  0  0  0  0  0  0  0  0  0
   -5.7301   -7.8246  -47.8318 H   0  0  0  0  0  0  0  0  0  0  0  0
   -4.0583   -9.0058  -46.6266 H   0  0  0  0  0  0  0  0  0  0  0  0
   -3.6612   -7.4498  -45.7253 H   0  0  0  0  0  0  0  0  0  0  0  0
   -5.0404  -10.1494  -44.3924 H   0  0  0  0  0  0  0  0  0  0  0  0
   -4.6181   -6.8275  -41.9105 H   0  0  0  0  0  0  0  0  0  0  0  0
   -4.8850   -8.9755  -40.9591 H   0  0  0  0  0  0  0  0  0  0  0  0
   -4.6719  -10.3710  -42.0499 H   0  0  0  0  0  0  0  0  0  0  0  0
   -1.3928   -7.2215  -46.7718 H   0  0  0  0  0  0  0  0  0  0  0  0
  1  2  1  0
  2  3  1  0
  2  5  1  0
  3  4  1  0
  4  6  1  0
  5 11  2  0
  5 12  1  0
  6  7  1  0
  7  8  1  0
  8  9  2  3
  8 10  1  0
  1 13  1  0
  1 14  1  0
  2 15  1  0
  3 16  1  0
  3 17  1  0
  4 18  1  0
  4 19  1  0
  7 20  1  0
  9 21  1  0
 10 22  1  0
 10 23  1  0
 12 24  1  0
A    1
N
A    2
CA
A    3
CB
A    4
CG
A    5
C
A    6
OD
A    7
NE
A    8
CZ
A    9
NH1
A   10
NH2
A   11
OA1
A   12
OA2
M  END
