3LBZ_Z89_A_201
     RDKit          3D

 35 37  0  0  0  0  0  0  0  0999 V2000
   -5.8640    6.9850   20.3670 C   0  0  0  0  0  0  0  0  0  0  0  0
   -5.4560    5.2670   18.8240 N   0  0  0  0  0  0  0  0  0  0  0  0
   -6.4920    6.0600   20.9680 O   0  0  0  0  0  0  0  0  0  0  0  0
   -4.8740    6.5840   19.2700 C   0  0  0  0  0  0  0  0  0  0  0  0
   -3.4770    6.5540   19.9250 C   0  0  0  0  0  0  0  0  0  0  0  0
   -2.9580    7.9740   20.1740 C   0  0  0  0  0  0  0  0  0  0  0  0
   -4.1380   -0.2320   18.9500 C   0  0  0  0  0  0  0  0  0  0  0  0
   -4.1090    1.1540   19.0870 C   0  0  0  0  0  0  0  0  0  0  0  0
   -2.9920    1.8170   19.6220 C   0  0  0  0  0  0  0  0  0  0  0  0
   -1.8710    1.0990   20.0470 C   0  0  0  0  0  0  0  0  0  0  0  0
   -0.3140    1.9250   20.8020 Br  0  0  0  0  0  0  0  0  0  0  0  0
   -1.9140   -0.2780   19.9040 C   0  0  0  0  0  0  0  0  0  0  0  0
   -3.0250   -0.9210   19.3760 C   0  0  0  0  0  0  0  0  0  0  0  0
   -5.3240    1.5950   18.5780 C   0  0  0  0  0  0  0  0  0  0  0  0
   -6.0160    0.4740   18.1640 C   0  0  0  0  0  0  0  0  0  0  0  0
   -5.3120   -0.6460   18.3940 N   0  0  0  0  0  0  0  0  0  0  0  0
   -7.1820    0.4550   17.6350 O   0  0  0  0  0  0  0  0  0  0  0  0
   -5.7460    2.9440   18.5110 C   0  0  0  0  0  0  0  0  0  0  0  0
   -4.9350    4.0280   18.9710 C   0  0  0  0  0  0  0  0  0  0  0  0
   -6.7000    5.0920   18.2730 C   0  0  0  0  0  0  0  0  0  0  0  0
   -7.6560    6.5660   17.9670 S   0  0  0  0  0  0  0  0  0  0  0  0
   -7.2990    3.4720   17.8520 S   0  0  0  0  0  0  0  0  0  0  0  0
   -3.7360    3.9040   19.4760 O   0  0  0  0  0  0  0  0  0  0  0  0
   -2.7970    8.4080   21.3470 O   0  0  0  0  0  0  0  0  0  0  0  0
   -2.7190    8.7030   19.1830 O   0  0  0  0  0  0  0  0  0  0  0  0
   -6.0800    8.2020   20.6580 O   0  0  0  0  0  0  0  0  0  0  0  0
   -6.5089    6.0351   21.9575 H   0  0  0  0  0  0  0  0  0  0  0  0
   -4.7421    7.2376   18.3951 H   0  0  0  0  0  0  0  0  0  0  0  0
   -3.5409    6.0206   20.8849 H   0  0  0  0  0  0  0  0  0  0  0  0
   -2.7815    6.0403   19.2450 H   0  0  0  0  0  0  0  0  0  0  0  0
   -2.9999    2.9137   19.7073 H   0  0  0  0  0  0  0  0  0  0  0  0
   -1.0460   -0.8770   20.2167 H   0  0  0  0  0  0  0  0  0  0  0  0
   -3.0158   -2.0180   19.2953 H   0  0  0  0  0  0  0  0  0  0  0  0
   -5.5987   -1.6146   18.1927 H   0  0  0  0  0  0  0  0  0  0  0  0
   -3.0112    7.8306   22.1222 H   0  0  0  0  0  0  0  0  0  0  0  0
  4  1  1  0
  1 26  2  0
  1  3  1  0
 20  2  1  0
  2 19  1  0
  2  4  1  0
  4  5  1  0
  5  6  1  0
 25  6  2  0
  6 24  1  0
 16  7  1  0
  7  8  1  0
  7 13  2  0
 14  8  1  0
  8  9  2  0
  9 10  1  0
 12 10  2  0
 10 11  1  0
 13 12  1  0
 15 14  1  0
 18 14  2  0
 17 15  2  0
 15 16  1  0
 22 18  1  0
 18 19  1  0
 19 23  2  0
 22 20  1  0
 21 20  2  0
  3 27  1  0
  4 28  1  0
  5 29  1  0
  5 30  1  0
  9 31  1  0
 12 32  1  0
 13 33  1  0
 16 34  1  0
 24 35  1  0
A    1
C
A    2
N
A    3
O
A    4
CA
A    5
CB
A    6
CG
A    7
CAA
A    8
CAB
A    9
CAC
A   10
CAD
A   11
BRAE
A   12
CAF
A   13
CAG
A   14
CAH
A   15
CAI
A   16
NAJ
A   17
OAK
A   18
CAL
A   19
CAM
A   20
CAW
A   21
SAX
A   22
SAY
A   23
OAZ
A   24
OD1
A   25
OD2
A   26
OXT
M  END
