3LC3_IYX_A_1
     RDKit          3D

 40 42  0  0  0  0  0  0  0  0999 V2000
   24.2260  -14.8210   18.5720 C   0  0  0  0  0  0  0  0  0  0  0  0
   23.5690  -13.6300   18.7900 C   0  0  0  0  0  0  0  0  0  0  0  0
   23.5320  -16.0040   18.3500 C   0  0  0  0  0  0  0  0  0  0  0  0
   22.1760  -13.6090   18.8060 C   0  0  0  0  0  0  0  0  0  0  0  0
   22.1420  -16.0090   18.3420 C   0  0  0  0  0  0  0  0  0  0  0  0
   21.4590  -14.8000   18.5790 C   0  0  0  0  0  0  0  0  0  0  0  0
   25.6010  -14.6820   18.5940 C   0  0  0  0  0  0  0  0  0  0  0  0
   25.9910  -13.3700   18.8360 C   0  0  0  0  0  0  0  0  0  0  0  0
   24.6580  -12.4430   18.9970 S   0  0  0  0  0  0  0  0  0  0  0  0
   21.4320  -17.2990   18.1180 C   0  0  0  0  0  0  0  0  0  0  0  0
   21.9120  -18.4070   18.8080 C   0  0  0  0  0  0  0  0  0  0  0  0
   20.3460  -17.4530   17.2580 C   0  0  0  0  0  0  0  0  0  0  0  0
   21.3220  -19.6560   18.6590 C   0  0  0  0  0  0  0  0  0  0  0  0
   19.7330  -18.7140   17.1150 C   0  0  0  0  0  0  0  0  0  0  0  0
   20.2450  -19.8070   17.8150 C   0  0  0  0  0  0  0  0  0  0  0  0
   18.6670  -18.9010   16.2670 O   0  0  0  0  0  0  0  0  0  0  0  0
   17.6870  -17.8980   15.9600 C   0  0  0  0  0  0  0  0  0  0  0  0
   19.7200  -21.0650   17.7390 O   0  0  0  0  0  0  0  0  0  0  0  0
   18.8850  -21.5650   16.6900 C   0  0  0  0  0  0  0  0  0  0  0  0
   27.3940  -12.8940   18.8890 C   0  0  0  0  0  0  0  0  0  0  0  0
   27.6570  -11.6450   19.0610 N   0  0  0  0  0  0  0  0  0  0  0  0
   28.4720  -13.7380   18.7040 N   0  0  0  0  0  0  0  0  0  0  0  0
   24.0844  -16.9399   18.1800 H   0  0  0  0  0  0  0  0  0  0  0  0
   21.6392  -12.6677   18.9948 H   0  0  0  0  0  0  0  0  0  0  0  0
   20.3591  -14.7859   18.5868 H   0  0  0  0  0  0  0  0  0  0  0  0
   26.3047  -15.5129   18.4381 H   0  0  0  0  0  0  0  0  0  0  0  0
   22.7731  -18.2926   19.4829 H   0  0  0  0  0  0  0  0  0  0  0  0
   19.9672  -16.5900   16.6907 H   0  0  0  0  0  0  0  0  0  0  0  0
   21.7141  -20.5213   19.2136 H   0  0  0  0  0  0  0  0  0  0  0  0
   17.2817  -17.4832   16.8947 H   0  0  0  0  0  0  0  0  0  0  0  0
   18.1566  -17.0934   15.3750 H   0  0  0  0  0  0  0  0  0  0  0  0
   16.8718  -18.3488   15.3750 H   0  0  0  0  0  0  0  0  0  0  0  0
   18.0188  -22.0837   17.1266 H   0  0  0  0  0  0  0  0  0  0  0  0
   18.5358  -20.7273   16.0685 H   0  0  0  0  0  0  0  0  0  0  0  0
   19.4586  -22.2684   16.0685 H   0  0  0  0  0  0  0  0  0  0  0  0
   27.4216  -13.0957   19.9700 H   0  0  0  0  0  0  0  0  0  0  0  0
   27.7004  -11.4390   20.0692 H   0  0  0  0  0  0  0  0  0  0  0  0
   28.5634  -11.4219   18.6257 H   0  0  0  0  0  0  0  0  0  0  0  0
   28.8423  -14.0279   19.6204 H   0  0  0  0  0  0  0  0  0  0  0  0
   28.1703  -14.5698   18.1769 H   0  0  0  0  0  0  0  0  0  0  0  0
  3  1  2  0
  1  7  1  0
  1  2  1  0
  2  4  2  0
  2  9  1  0
  5  3  1  0
  6  4  1  0
 10  5  1  0
  5  6  2  0
  7  8  2  0
  8 20  1  0
  8  9  1  0
 12 10  1  0
 10 11  2  0
 13 11  1  0
 14 12  2  0
 15 13  2  0
 16 14  1  0
 14 15  1  0
 18 15  1  0
 17 16  1  0
 19 18  1  0
 22 20  1  0
 20 21  1  0
  3 23  1  0
  4 24  1  0
  6 25  1  0
  7 26  1  0
 11 27  1  0
 12 28  1  0
 13 29  1  0
 17 30  1  0
 17 31  1  0
 17 32  1  0
 19 33  1  0
 19 34  1  0
 19 35  1  0
 20 36  1  0
 21 37  1  0
 21 38  1  0
 22 39  1  0
 22 40  1  0
A    1
C1
A    2
C2
A    3
C3
A    4
C4
A    5
C5
A    6
C6
A    7
C7
A    8
C8
A    9
S9
A   10
C10
A   11
C11
A   12
C12
A   13
C13
A   14
C14
A   15
C15
A   16
O16
A   17
C17
A   18
O18
A   19
C19
A   20
C20
A   21
N21
A   22
N22
M  END
