3LD4_8NX_A_300
     RDKit          3D

 17 18  0  0  0  0  0  0  0  0999 V2000
   29.3840   27.2170   36.3510 N   0  0  0  0  0  0  0  0  0  0  0  0
   28.5680   27.0780   37.4550 C   0  0  0  0  0  0  0  0  0  0  0  0
   27.4540   27.5090   37.4810 O   0  0  0  0  0  0  0  0  0  0  0  0
   29.1110   26.3990   38.5540 N   0  0  0  0  0  0  0  0  0  0  0  0
   30.3770   26.0090   38.4360 C   0  0  0  0  0  0  0  0  0  0  0  0
   31.1960   26.0610   37.3140 C   0  0  0  0  0  0  0  0  0  0  0  0
   30.6740   26.7970   36.1840 C   0  0  0  0  0  0  0  0  0  0  0  0
   31.2650   26.9890   35.1100 O   0  0  0  0  0  0  0  0  0  0  0  0
   32.3640   25.4610   37.4920 N   0  0  0  0  0  0  0  0  0  0  0  0
   32.2920   25.0810   38.7310 C   0  0  0  0  0  0  0  0  0  0  0  0
   31.1300   25.3220   39.3770 N   0  0  0  0  0  0  0  0  0  0  0  0
   33.1650   24.3940   39.4790 N   0  0  0  0  0  0  0  0  0  0  0  0
   33.8780   23.4550   39.0490 O   0  0  0  0  0  0  0  0  0  0  0  0
   33.2590   24.6470   40.7160 O   0  0  0  0  0  0  0  0  0  0  0  0
   28.9650   27.7022   35.5448 H   0  0  0  0  0  0  0  0  0  0  0  0
   28.5610   26.2126   39.4047 H   0  0  0  0  0  0  0  0  0  0  0  0
   33.1326   25.3297   36.8191 H   0  0  0  0  0  0  0  0  0  0  0  0
  1  2  1  0
  1  7  1  0
  2  3  2  0
  2  4  1  0
  4  5  1  0
  5  6  2  0
  5 11  1  0
  6  7  1  0
  6  9  1  0
  7  8  2  0
  9 10  1  0
 10 11  2  0
 10 12  1  0
 12 13  2  0
 12 14  1  0
  1 15  1  0
  4 16  1  0
  9 17  1  0
M  CHG  2  12   1  14  -1
A    1
N1
A    2
C2
A    3
O2
A    4
N3
A    5
C4
A    6
C5
A    7
C6
A    8
O6
A    9
N7
A   10
C8
A   11
N9
A   12
N10
A   13
O11
A   14
O12
M  END
