3LDP_3P1_A_408
     RDKit          3D

 52 56  0  0  0  0  0  0  0  0999 V2000
   12.5140  -10.0740    6.0020 N   0  0  0  0  0  0  0  0  0  0  0  0
   12.6290   -9.0420    6.8560 C   0  0  0  0  0  0  0  0  0  0  0  0
   13.7050   -8.2470    6.8200 N   0  0  0  0  0  0  0  0  0  0  0  0
   13.4760  -10.3220    5.0870 C   0  0  0  0  0  0  0  0  0  0  0  0
   15.8380   -7.8660    5.6790 N   0  0  0  0  0  0  0  0  0  0  0  0
   16.4530   -8.4880    4.6510 C   0  0  0  0  0  0  0  0  0  0  0  0
   15.6780   -9.5230    4.2610 N   0  0  0  0  0  0  0  0  0  0  0  0
   14.5850   -9.5250    5.0400 C   0  0  0  0  0  0  0  0  0  0  0  0
   14.6970   -8.4840    5.9250 C   0  0  0  0  0  0  0  0  0  0  0  0
   16.3230   -6.7200    6.3670 C   0  0  0  0  0  0  0  0  0  0  0  0
   16.8270   -5.7790    5.4060 O   0  0  0  0  0  0  0  0  0  0  0  0
   17.7450   -4.9130    6.1840 C   0  0  0  0  0  0  0  0  0  0  0  0
   18.2160   -5.7800    7.3690 C   0  0  0  0  0  0  0  0  0  0  0  0
   17.5380   -7.1120    7.1410 C   0  0  0  0  0  0  0  0  0  0  0  0
   13.3450  -11.3340    4.2410 N   0  0  0  0  0  0  0  0  0  0  0  0
   17.6380   -8.1360    4.1250 N   0  0  0  0  0  0  0  0  0  0  0  0
   18.2690   -8.9520    3.1070 C   0  0  0  0  0  0  0  0  0  0  0  0
   19.2080   -9.9480    3.7600 C   0  0  0  0  0  0  0  0  0  0  0  0
   19.1250  -11.2680    3.4300 N   0  0  0  0  0  0  0  0  0  0  0  0
   21.0120  -10.4400    5.2630 C   0  0  0  0  0  0  0  0  0  0  0  0
   20.1530   -9.5160    4.6690 C   0  0  0  0  0  0  0  0  0  0  0  0
   20.9080  -11.7860    4.9270 C   0  0  0  0  0  0  0  0  0  0  0  0
   19.9600  -12.1890    4.0010 C   0  0  0  0  0  0  0  0  0  0  0  0
   19.8530  -13.5510    3.6480 C   0  0  0  0  0  0  0  0  0  0  0  0
   20.7060  -14.4930    4.2300 C   0  0  0  0  0  0  0  0  0  0  0  0
   21.6640  -14.0850    5.1590 C   0  0  0  0  0  0  0  0  0  0  0  0
   21.7650  -12.7250    5.5080 C   0  0  0  0  0  0  0  0  0  0  0  0
   18.9660   -4.5700    5.3240 C   0  0  0  0  0  0  0  0  0  0  0  0
   19.4990   -5.7730    4.7270 O   0  0  0  0  0  0  0  0  0  0  0  0
   17.7500   -5.2120    8.5750 O   0  0  0  0  0  0  0  0  0  0  0  0
   17.1410   -7.6950    8.4150 O   0  0  0  0  0  0  0  0  0  0  0  0
   11.8326   -8.8496    7.5900 H   0  0  0  0  0  0  0  0  0  0  0  0
   15.5132   -6.3136    6.9908 H   0  0  0  0  0  0  0  0  0  0  0  0
   17.2569   -3.9809    6.5048 H   0  0  0  0  0  0  0  0  0  0  0  0
   19.3108   -5.8643    7.4349 H   0  0  0  0  0  0  0  0  0  0  0  0
   18.1742   -7.8532    6.6352 H   0  0  0  0  0  0  0  0  0  0  0  0
   13.2210  -12.2918    4.5990 H   0  0  0  0  0  0  0  0  0  0  0  0
   13.3672  -11.1626    3.2256 H   0  0  0  0  0  0  0  0  0  0  0  0
   18.1035   -7.2762    4.4490 H   0  0  0  0  0  0  0  0  0  0  0  0
   17.4964   -9.4940    2.5420 H   0  0  0  0  0  0  0  0  0  0  0  0
   18.8405   -8.3058    2.4245 H   0  0  0  0  0  0  0  0  0  0  0  0
   21.7660  -10.1072    5.9916 H   0  0  0  0  0  0  0  0  0  0  0  0
   20.2280   -8.4484    4.9234 H   0  0  0  0  0  0  0  0  0  0  0  0
   19.0982  -13.8714    2.9147 H   0  0  0  0  0  0  0  0  0  0  0  0
   20.6222  -15.5550    3.9560 H   0  0  0  0  0  0  0  0  0  0  0  0
   22.3381  -14.8237    5.6171 H   0  0  0  0  0  0  0  0  0  0  0  0
   22.5199  -12.4006    6.2394 H   0  0  0  0  0  0  0  0  0  0  0  0
   18.6680   -3.8696    4.5299 H   0  0  0  0  0  0  0  0  0  0  0  0
   19.7371   -4.1069    5.9572 H   0  0  0  0  0  0  0  0  0  0  0  0
   19.7770   -6.4003    5.4406 H   0  0  0  0  0  0  0  0  0  0  0  0
   18.1467   -5.6955    9.3424 H   0  0  0  0  0  0  0  0  0  0  0  0
   17.5107   -7.1522    9.1558 H   0  0  0  0  0  0  0  0  0  0  0  0
  2  1  2  0
  4  1  1  0
  3  2  1  0
  9  3  2  0
  8  4  2  0
  4 15  1  0
 10  5  1  0
  5  6  1  0
  5  9  1  0
 16  6  1  0
  6  7  2  0
  7  8  1  0
  9  8  1  0
 14 10  1  0
 10 11  1  0
 12 11  1  0
 13 12  1  0
 28 12  1  0
 30 13  1  0
 13 14  1  0
 31 14  1  0
 16 17  1  0
 18 17  1  0
 21 18  1  0
 18 19  2  0
 23 19  1  0
 20 22  1  0
 20 21  2  0
 27 22  1  0
 22 23  2  0
 23 24  1  0
 25 24  2  0
 26 25  1  0
 27 26  2  0
 28 29  1  0
  2 32  1  0
 10 33  1  0
 12 34  1  0
 13 35  1  0
 14 36  1  0
 15 37  1  0
 15 38  1  0
 16 39  1  0
 17 40  1  0
 17 41  1  0
 20 42  1  0
 21 43  1  0
 24 44  1  0
 25 45  1  0
 26 46  1  0
 27 47  1  0
 28 48  1  0
 28 49  1  0
 29 50  1  0
 30 51  1  0
 31 52  1  0
A    1
N1
A    2
C2
A    3
N3
A    4
C4
A    5
N5
A    6
C6
A    7
N7
A    8
C8
A    9
C9
A   10
C10
A   11
O11
A   12
C12
A   13
C13
A   14
C14
A   15
N15
A   16
N16
A   17
C17
A   18
C18
A   19
N19
A   20
C20
A   21
C21
A   22
C22
A   23
C23
A   24
C24
A   25
C25
A   26
C26
A   27
C27
A   28
C28
A   29
O29
A   30
O30
A   31
O31
M  END
