3LFN_A27_A_299
     RDKit          3D

 49 52  0  0  0  0  0  0  0  0999 V2000
   38.4760   -6.9670   27.6650 C   0  0  0  0  0  0  0  0  0  0  0  0
   38.7670   -7.8590   26.6150 C   0  0  0  0  0  0  0  0  0  0  0  0
   39.0740   -7.3820   25.3280 C   0  0  0  0  0  0  0  0  0  0  0  0
   39.1280   -5.9940   25.1150 C   0  0  0  0  0  0  0  0  0  0  0  0
   38.8470   -5.1040   26.1550 C   0  0  0  0  0  0  0  0  0  0  0  0
   38.5160   -5.5890   27.4290 C   0  0  0  0  0  0  0  0  0  0  0  0
   39.3850   -8.2550   24.2700 C   0  0  0  0  0  0  0  0  0  0  0  0
   38.6430   -8.3330   23.0630 C   0  0  0  0  0  0  0  0  0  0  0  0
   39.0840   -9.1830   22.0430 C   0  0  0  0  0  0  0  0  0  0  0  0
   40.2340   -9.9550   22.1960 C   0  0  0  0  0  0  0  0  0  0  0  0
   40.9740   -9.8770   23.3690 C   0  0  0  0  0  0  0  0  0  0  0  0
   40.5430   -9.0360   24.4000 C   0  0  0  0  0  0  0  0  0  0  0  0
   37.4790   -7.6120   22.8050 C   0  0  0  0  0  0  0  0  0  0  0  0
   37.3270   -7.0710   21.5260 C   0  0  0  0  0  0  0  0  0  0  0  0
   36.2100   -6.3090   21.2130 C   0  0  0  0  0  0  0  0  0  0  0  0
   35.2150   -6.1260   22.1670 C   0  0  0  0  0  0  0  0  0  0  0  0
   35.3470   -6.6840   23.4390 C   0  0  0  0  0  0  0  0  0  0  0  0
   36.4610   -7.4660   23.7540 C   0  0  0  0  0  0  0  0  0  0  0  0
   34.1130   -5.4060   21.8380 O   0  0  0  0  0  0  0  0  0  0  0  0
   40.8560  -10.8010   21.3770 N   0  0  0  0  0  0  0  0  0  0  0  0
   41.8720  -11.2570   21.9120 N   0  0  0  0  0  0  0  0  0  0  0  0
   42.0350  -10.7480   23.1300 C   0  0  0  0  0  0  0  0  0  0  0  0
   43.1070  -11.0760   23.8700 N   0  0  0  0  0  0  0  0  0  0  0  0
   43.5290  -10.6280   25.0590 C   0  0  0  0  0  0  0  0  0  0  0  0
   44.8490  -11.2560   25.5110 C   0  0  0  0  0  0  0  0  0  0  0  0
   44.6370  -12.7000   25.9650 C   0  0  0  0  0  0  0  0  0  0  0  0
   45.8120  -13.1940   26.8070 C   0  0  0  0  0  0  0  0  0  0  0  0
   42.9620   -9.8040   25.7770 O   0  0  0  0  0  0  0  0  0  0  0  0
   38.2192   -7.3510   28.6633 H   0  0  0  0  0  0  0  0  0  0  0  0
   38.7541   -8.9426   26.8037 H   0  0  0  0  0  0  0  0  0  0  0  0
   39.3937   -5.6048   24.1211 H   0  0  0  0  0  0  0  0  0  0  0  0
   38.8855   -4.0197   25.9741 H   0  0  0  0  0  0  0  0  0  0  0  0
   38.2878   -4.8851   28.2429 H   0  0  0  0  0  0  0  0  0  0  0  0
   38.5134   -9.2429   21.1045 H   0  0  0  0  0  0  0  0  0  0  0  0
   41.1243   -8.9859   25.3325 H   0  0  0  0  0  0  0  0  0  0  0  0
   38.0977   -7.2501   20.7619 H   0  0  0  0  0  0  0  0  0  0  0  0
   36.1125   -5.8528   20.2168 H   0  0  0  0  0  0  0  0  0  0  0  0
   34.5702   -6.5073   24.1975 H   0  0  0  0  0  0  0  0  0  0  0  0
   36.5368   -7.9599   24.7340 H   0  0  0  0  0  0  0  0  0  0  0  0
   33.5369   -5.0296   22.5498 H   0  0  0  0  0  0  0  0  0  0  0  0
   40.5345  -11.0419   20.4286 H   0  0  0  0  0  0  0  0  0  0  0  0
   43.7093  -11.7980   23.4494 H   0  0  0  0  0  0  0  0  0  0  0  0
   45.5604  -11.2427   24.6721 H   0  0  0  0  0  0  0  0  0  0  0  0
   45.2436  -10.6751   26.3576 H   0  0  0  0  0  0  0  0  0  0  0  0
   43.7171  -12.7556   26.5656 H   0  0  0  0  0  0  0  0  0  0  0  0
   44.5571  -13.3371   25.0719 H   0  0  0  0  0  0  0  0  0  0  0  0
   45.5671  -13.0910   27.8744 H   0  0  0  0  0  0  0  0  0  0  0  0
   46.0094  -14.2513   26.5764 H   0  0  0  0  0  0  0  0  0  0  0  0
   46.7056  -12.5954   26.5764 H   0  0  0  0  0  0  0  0  0  0  0  0
  2  1  2  0
  6  1  1  0
  3  2  1  0
  7  3  1  0
  4  3  2  0
  4  5  1  0
  5  6  2  0
  8  7  1  0
  7 12  2  0
  9  8  2  0
 13  8  1  0
  9 10  1  0
 20 10  1  0
 10 11  2  0
 22 11  1  0
 11 12  1  0
 14 13  2  0
 13 18  1  0
 15 14  1  0
 15 16  2  0
 19 16  1  0
 16 17  1  0
 17 18  2  0
 20 21  1  0
 21 22  2  0
 22 23  1  0
 23 24  1  0
 24 25  1  0
 24 28  2  0
 25 26  1  0
 26 27  1  0
  1 29  1  0
  2 30  1  0
  4 31  1  0
  5 32  1  0
  6 33  1  0
  9 34  1  0
 12 35  1  0
 14 36  1  0
 15 37  1  0
 17 38  1  0
 18 39  1  0
 19 40  1  0
 20 41  1  0
 23 42  1  0
 25 43  1  0
 25 44  1  0
 26 45  1  0
 26 46  1  0
 27 47  1  0
 27 48  1  0
 27 49  1  0
A    1
C1
A    2
C2
A    3
C3
A    4
C4
A    5
C5
A    6
C6
A    7
C12
A    8
C13
A    9
C14
A   10
C15
A   11
C16
A   12
C17
A   13
C20
A   14
C21
A   15
C22
A   16
C23
A   17
C24
A   18
C25
A   19
O30
A   20
N31
A   21
N32
A   22
C33
A   23
N34
A   24
C35
A   25
C36
A   26
C37
A   27
C40
A   28
O46
M  END
