2R58_MLY_A_436
     RDKit          3D

 30 29  0  0  0  0  0  0  0  0999 V2000
  -27.4310  -20.9950  -15.7020 N   0  0  0  0  0  0  0  0  0  0  0  0
  -27.1070  -20.7590  -17.1440 C   0  0  0  0  0  0  0  0  0  0  0  0
  -25.8200  -19.9430  -17.2420 C   0  0  0  0  0  0  0  0  0  0  0  0
  -25.6240  -19.4670  -18.6730 C   0  0  0  0  0  0  0  0  0  0  0  0
  -24.5780  -18.3710  -18.7750 C   0  0  0  0  0  0  0  0  0  0  0  0
  -24.1050  -18.2510  -20.2200 C   0  0  0  0  0  0  0  0  0  0  0  0
  -23.2310  -17.0770  -20.3810 N   0  0  0  0  0  0  0  0  0  0  0  0
  -22.9850  -16.8360  -21.8120 C   0  0  0  0  0  0  0  0  0  0  0  0
  -21.9540  -17.3240  -19.6980 C   0  0  0  0  0  0  0  0  0  0  0  0
  -26.9690  -22.0410  -17.9280 C   0  0  0  0  0  0  0  0  0  0  0  0
  -26.2410  -22.9510  -17.5270 O   0  0  0  0  0  0  0  0  0  0  0  0
  -27.5670  -22.2100  -18.9990 O   0  0  0  0  0  0  0  0  0  0  0  0
  -26.7491  -20.4983  -15.1111 H   0  0  0  0  0  0  0  0  0  0  0  0
  -28.3786  -20.6448  -15.5012 H   0  0  0  0  0  0  0  0  0  0  0  0
  -27.9472  -20.2055  -17.5885 H   0  0  0  0  0  0  0  0  0  0  0  0
  -25.8868  -19.0725  -16.5728 H   0  0  0  0  0  0  0  0  0  0  0  0
  -24.9666  -20.5709  -16.9463 H   0  0  0  0  0  0  0  0  0  0  0  0
  -25.3044  -20.3201  -19.2894 H   0  0  0  0  0  0  0  0  0  0  0  0
  -26.5808  -19.0544  -19.0256 H   0  0  0  0  0  0  0  0  0  0  0  0
  -25.0162  -17.4151  -18.4522 H   0  0  0  0  0  0  0  0  0  0  0  0
  -23.7229  -18.6196  -18.1292 H   0  0  0  0  0  0  0  0  0  0  0  0
  -23.5468  -19.1582  -20.4946 H   0  0  0  0  0  0  0  0  0  0  0  0
  -24.9825  -18.1333  -20.8728 H   0  0  0  0  0  0  0  0  0  0  0  0
  -22.2035  -16.0703  -21.9258 H   0  0  0  0  0  0  0  0  0  0  0  0
  -22.6553  -17.7703  -22.2898 H   0  0  0  0  0  0  0  0  0  0  0  0
  -23.9124  -16.4872  -22.2898 H   0  0  0  0  0  0  0  0  0  0  0  0
  -22.1087  -17.2941  -18.6093 H   0  0  0  0  0  0  0  0  0  0  0  0
  -21.5691  -18.3132  -19.9866 H   0  0  0  0  0  0  0  0  0  0  0  0
  -21.2280  -16.5496  -19.9866 H   0  0  0  0  0  0  0  0  0  0  0  0
  -28.5197  -22.4792  -18.9969 H   0  0  0  0  0  0  0  0  0  0  0  0
  1  2  1  0
  2  3  1  0
  2 10  1  0
  3  4  1  0
  4  5  1  0
  5  6  1  0
  6  7  1  0
  7  8  1  0
  7  9  1  0
 10 11  2  0
 10 12  1  0
  1 13  1  0
  1 14  1  0
  2 15  1  0
  3 16  1  0
  3 17  1  0
  4 18  1  0
  4 19  1  0
  5 20  1  0
  5 21  1  0
  6 22  1  0
  6 23  1  0
  8 24  1  0
  8 25  1  0
  8 26  1  0
  9 27  1  0
  9 28  1  0
  9 29  1  0
 12 30  1  0
A    1
N
A    2
CA
A    3
CB
A    4
CG
A    5
CD
A    6
CE
A    7
NZ
A    8
CH1
A    9
CH2
A   10
C
A   11
O
A   12
OXT
M  END
