3LGP_50X_A_485
     RDKit          3D

 67 71  0  0  0  0  0  0  0  0999 V2000
    5.6520   11.7720   21.4920 N   0  0  0  0  0  0  0  0  0  0  0  0
    6.0790   12.1030   20.1490 C   0  0  0  0  0  0  0  0  0  0  0  0
    4.8590   11.8620   19.2330 C   0  0  0  0  0  0  0  0  0  0  0  0
    3.8930   10.9710   20.0510 C   0  0  0  0  0  0  0  0  0  0  0  0
    4.3410   11.0020   21.5500 C   0  0  0  0  0  0  0  0  0  0  0  0
    8.8720    5.3210   31.6940 C   0  0  0  0  0  0  0  0  0  0  0  0
    9.3350    3.9740   31.7980 C   0  0  0  0  0  0  0  0  0  0  0  0
    8.4160    2.9260   32.1580 C   0  0  0  0  0  0  0  0  0  0  0  0
    7.0380    3.2680   32.4160 C   0  0  0  0  0  0  0  0  0  0  0  0
    6.5840    4.6300   32.3500 C   0  0  0  0  0  0  0  0  0  0  0  0
    7.5040    5.6450   31.9610 C   0  0  0  0  0  0  0  0  0  0  0  0
   10.0370    6.0480   31.3190 N   0  0  0  0  0  0  0  0  0  0  0  0
   11.0750    5.1150   31.2070 C   0  0  0  0  0  0  0  0  0  0  0  0
   10.6650    3.8930   31.5000 N   0  0  0  0  0  0  0  0  0  0  0  0
    7.6900    8.0880   28.0590 C   0  0  0  0  0  0  0  0  0  0  0  0
    7.7860    8.2870   29.8030 S   0  0  0  0  0  0  0  0  0  0  0  0
    9.4610    7.8480   29.7830 C   0  0  0  0  0  0  0  0  0  0  0  0
    9.8430    7.4240   28.4830 C   0  0  0  0  0  0  0  0  0  0  0  0
    8.8760    7.7010   27.4600 C   0  0  0  0  0  0  0  0  0  0  0  0
    6.4500   12.2280   22.5690 C   0  0  0  0  0  0  0  0  0  0  0  0
    5.9780   11.6570   23.9710 C   0  0  0  0  0  0  0  0  0  0  0  0
    6.5210   10.2790   23.9900 C   0  0  0  0  0  0  0  0  0  0  0  0
    6.0230    9.3460   25.0680 C   0  0  0  0  0  0  0  0  0  0  0  0
    4.9090    8.8250   25.0380 O   0  0  0  0  0  0  0  0  0  0  0  0
    6.8690    9.1960   26.1520 N   0  0  0  0  0  0  0  0  0  0  0  0
    6.4670   12.5140   24.9840 O   0  0  0  0  0  0  0  0  0  0  0  0
    6.4940    8.5770   27.3870 C   0  0  0  0  0  0  0  0  0  0  0  0
    7.9590   10.4540   23.9400 O   0  0  0  0  0  0  0  0  0  0  0  0
    7.4260   13.0900   22.4360 O   0  0  0  0  0  0  0  0  0  0  0  0
   10.1700    7.5030   31.0720 C   0  0  0  0  0  0  0  0  0  0  0  0
   12.5070    5.4620   30.8310 C   0  0  0  0  0  0  0  0  0  0  0  0
   13.1710    4.3240   30.5880 F   0  0  0  0  0  0  0  0  0  0  0  0
   12.6150    6.2450   29.6550 F   0  0  0  0  0  0  0  0  0  0  0  0
   13.1600    6.0450   31.9310 F   0  0  0  0  0  0  0  0  0  0  0  0
    7.3180   11.3140   19.7720 C   0  0  0  0  0  0  0  0  0  0  0  0
    7.4900    9.9540   20.1560 C   0  0  0  0  0  0  0  0  0  0  0  0
    8.6700    9.2490   19.7710 C   0  0  0  0  0  0  0  0  0  0  0  0
    9.6780    9.8900   19.0210 C   0  0  0  0  0  0  0  0  0  0  0  0
    9.4900   11.2600   18.6360 C   0  0  0  0  0  0  0  0  0  0  0  0
    8.3270   11.9700   19.0060 C   0  0  0  0  0  0  0  0  0  0  0  0
    8.8280    7.6000   20.2440 Cl  0  0  0  0  0  0  0  0  0  0  0  0
    6.3899   13.1534   20.0491 H   0  0  0  0  0  0  0  0  0  0  0  0
    4.3766   12.8169   18.9770 H   0  0  0  0  0  0  0  0  0  0  0  0
    5.1496   11.3840   18.2858 H   0  0  0  0  0  0  0  0  0  0  0  0
    2.8667   11.3568   19.9621 H   0  0  0  0  0  0  0  0  0  0  0  0
    3.9177    9.9391   19.6708 H   0  0  0  0  0  0  0  0  0  0  0  0
    4.4955    9.9847   21.9388 H   0  0  0  0  0  0  0  0  0  0  0  0
    3.5962   11.4583   22.2186 H   0  0  0  0  0  0  0  0  0  0  0  0
    8.7580    1.8834   32.2350 H   0  0  0  0  0  0  0  0  0  0  0  0
    6.3220    2.4717   32.6678 H   0  0  0  0  0  0  0  0  0  0  0  0
    5.5425    4.8844   32.5960 H   0  0  0  0  0  0  0  0  0  0  0  0
    7.1606    6.6856   31.8651 H   0  0  0  0  0  0  0  0  0  0  0  0
   10.8011    6.9244   28.2772 H   0  0  0  0  0  0  0  0  0  0  0  0
    9.0490    7.6192   26.3768 H   0  0  0  0  0  0  0  0  0  0  0  0
    4.8914   11.6185   24.1377 H   0  0  0  0  0  0  0  0  0  0  0  0
    6.1375    9.7172   23.1256 H   0  0  0  0  0  0  0  0  0  0  0  0
    7.8313    9.5529   26.0649 H   0  0  0  0  0  0  0  0  0  0  0  0
    6.2497   12.1333   25.8717 H   0  0  0  0  0  0  0  0  0  0  0  0
    5.8148    7.7355   27.1856 H   0  0  0  0  0  0  0  0  0  0  0  0
    5.9830    9.3103   28.0282 H   0  0  0  0  0  0  0  0  0  0  0  0
    8.3183   10.4977   24.8614 H   0  0  0  0  0  0  0  0  0  0  0  0
    9.7162    8.0616   31.9039 H   0  0  0  0  0  0  0  0  0  0  0  0
   11.2338    7.7721   30.9955 H   0  0  0  0  0  0  0  0  0  0  0  0
    6.7144    9.4470   20.7488 H   0  0  0  0  0  0  0  0  0  0  0  0
   10.5926    9.3493   18.7360 H   0  0  0  0  0  0  0  0  0  0  0  0
   10.2657   11.7657   18.0422 H   0  0  0  0  0  0  0  0  0  0  0  0
    8.2000   13.0206   18.7060 H   0  0  0  0  0  0  0  0  0  0  0  0
  2  1  1  0
  1  5  1  0
  1 20  1  0
  3  2  1  0
 35  2  1  0
  3  4  1  0
  4  5  1  0
 12  6  1  0
  6  7  1  0
  6 11  2  0
 14  7  1  0
  7  8  2  0
  8  9  1  0
 10  9  2  0
 11 10  1  0
 30 12  1  0
 13 12  1  0
 31 13  1  0
 13 14  2  0
 27 15  1  0
 19 15  2  0
 15 16  1  0
 17 16  1  0
 18 17  2  0
 17 30  1  0
 19 18  1  0
 29 20  2  0
 20 21  1  0
 21 22  1  0
 21 26  1  0
 28 22  1  0
 22 23  1  0
 24 23  2  0
 23 25  1  0
 25 27  1  0
 33 31  1  0
 32 31  1  0
 31 34  1  0
 40 35  1  0
 35 36  2  0
 37 36  1  0
 38 37  2  0
 37 41  1  0
 39 38  1  0
 39 40  2  0
  2 42  1  0
  3 43  1  0
  3 44  1  0
  4 45  1  0
  4 46  1  0
  5 47  1  0
  5 48  1  0
  8 49  1  0
  9 50  1  0
 10 51  1  0
 11 52  1  0
 18 53  1  0
 19 54  1  0
 21 55  1  0
 22 56  1  0
 25 57  1  0
 26 58  1  0
 27 59  1  0
 27 60  1  0
 28 61  1  0
 30 62  1  0
 30 63  1  0
 36 64  1  0
 38 65  1  0
 39 66  1  0
 40 67  1  0
A    1
N1
A    2
C2
A    3
C3
A    4
C4
A    5
C5
A    6
C6
A    7
C7
A    8
C8
A    9
C9
A   10
C10
A   11
C11
A   12
N12
A   13
C13
A   14
N14
A   15
C15
A   16
S16
A   17
C17
A   18
C18
A   19
C19
A   20
C20
A   21
C21
A   22
C22
A   23
C23
A   24
O24
A   25
N25
A   26
O26
A   27
C27
A   28
O28
A   29
O29
A   30
C30
A   31
C31
A   32
F32
A   33
F33
A   34
F34
A   35
C35
A   36
C36
A   37
C37
A   38
C38
A   39
C39
A   40
C40
A   41
CL41
M  END
