3LIK_EEG_A_301
     RDKit          3D

 71 73  0  0  0  0  0  0  0  0999 V2000
    9.8280   26.0040    4.5010 O   0  0  0  0  0  0  0  0  0  0  0  0
    2.7520   22.3740    8.6150 S   0  0  0  0  0  0  0  0  0  0  0  0
    8.7340   26.1580    4.0480 C   0  0  0  0  0  0  0  0  0  0  0  0
    8.0240   25.0240    3.3070 C   0  0  0  0  0  0  0  0  0  0  0  0
    7.8240   23.7690    4.1440 C   0  0  0  0  0  0  0  0  0  0  0  0
    5.2080   24.1310    4.3600 C   0  0  0  0  0  0  0  0  0  0  0  0
    5.3230   22.5490    6.7990 C   0  0  0  0  0  0  0  0  0  0  0  0
    4.0790   23.0640    6.2870 C   0  0  0  0  0  0  0  0  0  0  0  0
    4.0030   23.8460    5.0940 C   0  0  0  0  0  0  0  0  0  0  0  0
    2.8130   22.7430    7.0870 C   0  0  0  0  0  0  0  0  0  0  0  0
    1.4110   22.7470    6.4930 C   0  0  0  0  0  0  0  0  0  0  0  0
    0.3600   22.3420    7.7320 C   0  0  0  0  0  0  0  0  0  0  0  0
   -1.1480   22.2940    7.5200 C   0  0  0  0  0  0  0  0  0  0  0  0
   -1.9130   21.3110    8.0770 C   0  0  0  0  0  0  0  0  0  0  0  0
   -3.3230   21.3120    7.8240 C   0  0  0  0  0  0  0  0  0  0  0  0
   -3.8990   22.3170    6.9700 C   0  0  0  0  0  0  0  0  0  0  0  0
   -3.0940   23.3160    6.3790 C   0  0  0  0  0  0  0  0  0  0  0  0
   -1.7270   23.3270    6.6230 C   0  0  0  0  0  0  0  0  0  0  0  0
    6.5000   23.6030    4.9020 C   0  0  0  0  0  0  0  0  0  0  0  0
    6.5490   22.8540    6.0560 C   0  0  0  0  0  0  0  0  0  0  0  0
    1.1030   22.1290    8.9660 C   0  0  0  0  0  0  0  0  0  0  0  0
    7.8900   27.2780    4.4360 N   0  0  0  0  0  0  0  0  0  0  0  0
    8.4970   28.4490    5.0590 C   0  0  0  0  0  0  0  0  0  0  0  0
    7.7930   28.7170    6.3940 C   0  0  0  0  0  0  0  0  0  0  0  0
    6.6200   28.5580    6.4770 O   0  0  0  0  0  0  0  0  0  0  0  0
    8.3390   29.6620    4.1290 C   0  0  0  0  0  0  0  0  0  0  0  0
    9.5940   30.4250    3.7290 C   0  0  0  0  0  0  0  0  0  0  0  0
    9.3820   31.6180    2.8020 C   0  0  0  0  0  0  0  0  0  0  0  0
    9.5890   32.7130    3.1980 O   0  0  0  0  0  0  0  0  0  0  0  0
    8.7330   31.4260    1.5830 O   0  0  0  0  0  0  0  0  0  0  0  0
    8.4630   29.5250    7.3940 N   0  0  0  0  0  0  0  0  0  0  0  0
    7.6500   29.8940    8.5330 C   0  0  0  0  0  0  0  0  0  0  0  0
    6.7370   31.0620    8.1530 C   0  0  0  0  0  0  0  0  0  0  0  0
    5.6780   31.1890    8.6720 O   0  0  0  0  0  0  0  0  0  0  0  0
    8.5270   30.1650    9.7660 C   0  0  0  0  0  0  0  0  0  0  0  0
    8.8270   31.6160   10.1530 C   0  0  0  0  0  0  0  0  0  0  0  0
   10.2150   31.9420   10.7150 C   0  0  0  0  0  0  0  0  0  0  0  0
   10.6920   31.2430   11.5470 O   0  0  0  0  0  0  0  0  0  0  0  0
   11.0590   32.7830    9.9790 O   0  0  0  0  0  0  0  0  0  0  0  0
    7.0570   31.8590    6.9870 N   0  0  0  0  0  0  0  0  0  0  0  0
    7.0366   25.3861    2.9847 H   0  0  0  0  0  0  0  0  0  0  0  0
    8.6685   24.7435    2.4609 H   0  0  0  0  0  0  0  0  0  0  0  0
    7.9221   22.9073    3.4674 H   0  0  0  0  0  0  0  0  0  0  0  0
    8.5825   23.8479    4.9368 H   0  0  0  0  0  0  0  0  0  0  0  0
    5.1805   24.7182    3.4302 H   0  0  0  0  0  0  0  0  0  0  0  0
    5.3519   21.9459    7.7185 H   0  0  0  0  0  0  0  0  0  0  0  0
    3.0336   24.2265    4.7399 H   0  0  0  0  0  0  0  0  0  0  0  0
    1.1407   22.9725    5.4508 H   0  0  0  0  0  0  0  0  0  0  0  0
   -1.4564   20.5337    8.7074 H   0  0  0  0  0  0  0  0  0  0  0  0
   -3.9650   20.5452    8.2821 H   0  0  0  0  0  0  0  0  0  0  0  0
   -4.9815   22.3071    6.7747 H   0  0  0  0  0  0  0  0  0  0  0  0
   -3.5469   24.0800    5.7300 H   0  0  0  0  0  0  0  0  0  0  0  0
   -1.0829   24.0887    6.1593 H   0  0  0  0  0  0  0  0  0  0  0  0
    7.5165   22.4813    6.4236 H   0  0  0  0  0  0  0  0  0  0  0  0
    0.6781   21.8596    9.9442 H   0  0  0  0  0  0  0  0  0  0  0  0
    6.8737   27.2443    4.2723 H   0  0  0  0  0  0  0  0  0  0  0  0
    9.5682   28.2722    5.2357 H   0  0  0  0  0  0  0  0  0  0  0  0
    7.8647   29.3045    3.2031 H   0  0  0  0  0  0  0  0  0  0  0  0
    7.7544   30.3846    4.7174 H   0  0  0  0  0  0  0  0  0  0  0  0
   10.0717   30.7937    4.6487 H   0  0  0  0  0  0  0  0  0  0  0  0
   10.2073   29.7111    3.1596 H   0  0  0  0  0  0  0  0  0  0  0  0
    7.7838   31.1452    1.5664 H   0  0  0  0  0  0  0  0  0  0  0  0
    9.4468   29.8155    7.3006 H   0  0  0  0  0  0  0  0  0  0  0  0
    6.9952   29.0573    8.8180 H   0  0  0  0  0  0  0  0  0  0  0  0
    8.0275   29.6973   10.6272 H   0  0  0  0  0  0  0  0  0  0  0  0
    9.5094   29.7548    9.4892 H   0  0  0  0  0  0  0  0  0  0  0  0
    8.6876   32.2299    9.2510 H   0  0  0  0  0  0  0  0  0  0  0  0
    8.1392   31.8244   10.9858 H   0  0  0  0  0  0  0  0  0  0  0  0
   11.6765   33.3983   10.4483 H   0  0  0  0  0  0  0  0  0  0  0  0
    7.4384   32.8089    7.1014 H   0  0  0  0  0  0  0  0  0  0  0  0
    6.9032   31.4759    6.0433 H   0  0  0  0  0  0  0  0  0  0  0  0
 33 32  1  0
 33 40  1  0
 33 34  2  0
 31 32  1  0
 31 24  1  0
 25 24  2  0
 32 35  1  0
 22 23  1  0
 22  3  1  0
  1  3  2  0
 35 36  1  0
 36 37  1  0
 30 28  1  0
 37 39  1  0
 37 38  2  0
 24 23  1  0
 23 26  1  0
  2 10  1  0
  2 21  1  0
 26 27  1  0
 27 28  1  0
 28 29  2  0
  3  4  1  0
  4  5  1  0
  5 19  1  0
  6  9  2  0
  6 19  1  0
  7  8  2  0
  7 20  1  0
  8  9  1  0
  8 10  1  0
 10 11  2  0
 11 12  1  0
 12 13  1  0
 12 21  2  0
 13 14  2  0
 13 18  1  0
 14 15  1  0
 15 16  2  0
 16 17  1  0
 17 18  2  0
 19 20  2  0
  4 41  1  0
  4 42  1  0
  5 43  1  0
  5 44  1  0
  6 45  1  0
  7 46  1  0
  9 47  1  0
 11 48  1  0
 14 49  1  0
 15 50  1  0
 16 51  1  0
 17 52  1  0
 18 53  1  0
 20 54  1  0
 21 55  1  0
 22 56  1  0
 23 57  1  0
 26 58  1  0
 26 59  1  0
 27 60  1  0
 27 61  1  0
 30 62  1  0
 31 63  1  0
 32 64  1  0
 35 65  1  0
 35 66  1  0
 36 67  1  0
 36 68  1  0
 39 69  1  0
 40 70  1  0
 40 71  1  0
A    1
O2
A    2
S7
A    3
C11
A    4
C12
A    5
C13
A    6
C14
A    7
C15
A    8
C16
A    9
C17
A   10
C18
A   11
C19
A   12
C20
A   13
C21
A   14
C22
A   15
C23
A   16
C24
A   17
C25
A   18
C26
A   19
C27
A   20
C28
A   21
C29
A   22
N2
A   23
C7
A   24
C6
A   25
O1
A   26
C8
A   27
C9
A   28
C10
A   29
O4E
A   30
O4
A   31
N1
A   32
C2
A   33
C1
A   34
O9
A   35
C3
A   36
C4
A   37
C5
A   38
O8E
A   39
O8
A   40
N9
M  END
