3LIN_E13_B_117
     RDKit          3D

103105  0  0  0  0  0  0  0  0999 V2000
   32.8800   -0.0900   51.3140 C   0  0  0  0  0  0  0  0  0  0  0  0
   32.1600    0.1800   50.1050 O   0  0  0  0  0  0  0  0  0  0  0  0
   34.1470   -0.9400   51.2490 O   0  0  0  0  0  0  0  0  0  0  0  0
   33.8720   -2.2270   50.4590 C   0  0  0  0  0  0  0  0  0  0  0  0
   30.9850    2.3800   53.4500 C   0  0  0  0  0  0  0  0  0  0  0  0
   32.3950    0.4490   52.5980 N   0  0  0  0  0  0  0  0  0  0  0  0
   31.2120    2.2750   54.6300 O   0  0  0  0  0  0  0  0  0  0  0  0
   31.1470    1.2120   52.4560 C   0  0  0  0  0  0  0  0  0  0  0  0
   29.9800    0.2220   52.7670 C   0  0  0  0  0  0  0  0  0  0  0  0
   27.6180   -1.7350   53.3770 C   0  0  0  0  0  0  0  0  0  0  0  0
   27.9240   -0.5690   54.3520 C   0  0  0  0  0  0  0  0  0  0  0  0
   28.5030   -1.9170   52.1210 C   0  0  0  0  0  0  0  0  0  0  0  0
   29.0940    0.3890   54.0290 C   0  0  0  0  0  0  0  0  0  0  0  0
   29.6680   -0.9490   51.8140 C   0  0  0  0  0  0  0  0  0  0  0  0
   30.4530    3.6100   52.8790 N   0  0  0  0  0  0  0  0  0  0  0  0
   30.2640    4.7330   53.7910 C   0  0  0  0  0  0  0  0  0  0  0  0
   31.4030    5.8020   53.5510 C   0  0  0  0  0  0  0  0  0  0  0  0
   32.7300    5.2860   54.1540 C   0  0  0  0  0  0  0  0  0  0  0  0
   31.6420    6.0870   52.0560 C   0  0  0  0  0  0  0  0  0  0  0  0
   31.0480    7.1130   54.2860 C   0  0  0  0  0  0  0  0  0  0  0  0
   28.8330    5.3040   53.6850 C   0  0  0  0  0  0  0  0  0  0  0  0
   28.4240    5.9600   52.7750 O   0  0  0  0  0  0  0  0  0  0  0  0
   25.8580    7.6620   56.0100 C   0  0  0  0  0  0  0  0  0  0  0  0
   28.0250    4.9850   54.8340 N   0  0  0  0  0  0  0  0  0  0  0  0
   24.7690    7.5840   56.4670 O   0  0  0  0  0  0  0  0  0  0  0  0
   26.8800    6.5220   56.1560 C   0  0  0  0  0  0  0  0  0  0  0  0
   25.6510    3.7150   53.7510 C   0  0  0  0  0  0  0  0  0  0  0  0
   25.6420    4.4350   55.1120 C   0  0  0  0  0  0  0  0  0  0  0  0
   25.6480    2.3210   51.0160 C   0  0  0  0  0  0  0  0  0  0  0  0
   26.6990    5.5300   54.9710 C   0  0  0  0  0  0  0  0  0  0  0  0
   26.7620    5.9710   57.4240 O   0  0  0  0  0  0  0  0  0  0  0  0
   24.7180    4.2100   52.6500 C   0  0  0  0  0  0  0  0  0  0  0  0
   26.5930    2.5310   53.5010 C   0  0  0  0  0  0  0  0  0  0  0  0
   24.7020    3.5090   51.2830 C   0  0  0  0  0  0  0  0  0  0  0  0
   26.5920    1.8310   52.1290 C   0  0  0  0  0  0  0  0  0  0  0  0
   24.1130    9.4170   54.0530 C   0  0  0  0  0  0  0  0  0  0  0  0
   26.2180    8.8580   55.2810 N   0  0  0  0  0  0  0  0  0  0  0  0
   24.4440    8.6470   53.1850 O   0  0  0  0  0  0  0  0  0  0  0  0
   25.1360    9.9870   55.0690 C   0  0  0  0  0  0  0  0  0  0  0  0
   25.8930   11.2450   54.5270 C   0  0  0  0  0  0  0  0  0  0  0  0
   27.5460    9.1830   54.5870 C   0  0  0  0  0  0  0  0  0  0  0  0
   25.0480   12.1400   53.6090 C   0  0  0  0  0  0  0  0  0  0  0  0
   26.3950   12.0540   55.7330 C   0  0  0  0  0  0  0  0  0  0  0  0
   27.2690   10.5630   53.6520 S   0  0  0  0  0  0  0  0  0  0  0  0
   22.7270    9.8640   54.1520 N   0  0  0  0  0  0  0  0  0  0  0  0
   21.7660    9.3610   53.1770 C   0  0  0  0  0  0  0  0  0  0  0  0
   20.8020    8.3200   53.7780 C   0  0  0  0  0  0  0  0  0  0  0  0
   21.5660    7.0900   54.3370 C   0  0  0  0  0  0  0  0  0  0  0  0
   19.9610    8.9280   54.9180 C   0  0  0  0  0  0  0  0  0  0  0  0
   19.9000    7.8680   52.6050 C   0  0  0  0  0  0  0  0  0  0  0  0
   33.6948   -3.0564   51.1595 H   0  0  0  0  0  0  0  0  0  0  0  0
   32.9838   -2.0858   49.8257 H   0  0  0  0  0  0  0  0  0  0  0  0
   34.7404   -2.4611   49.8257 H   0  0  0  0  0  0  0  0  0  0  0  0
   32.8782    0.3063   53.4964 H   0  0  0  0  0  0  0  0  0  0  0  0
   31.1504    1.6387   51.4422 H   0  0  0  0  0  0  0  0  0  0  0  0
   26.7833   -2.4233   53.5755 H   0  0  0  0  0  0  0  0  0  0  0  0
   27.3185   -0.4255   55.2590 H   0  0  0  0  0  0  0  0  0  0  0  0
   28.2991   -2.7512   51.4335 H   0  0  0  0  0  0  0  0  0  0  0  0
   29.3056    1.2190   54.7192 H   0  0  0  0  0  0  0  0  0  0  0  0
   30.2779   -1.0963   50.9105 H   0  0  0  0  0  0  0  0  0  0  0  0
   30.2211    3.6835   51.8781 H   0  0  0  0  0  0  0  0  0  0  0  0
   30.3581    4.3925   54.8327 H   0  0  0  0  0  0  0  0  0  0  0  0
   32.6677    5.3102   55.2520 H   0  0  0  0  0  0  0  0  0  0  0  0
   32.9077    4.2533   53.8195 H   0  0  0  0  0  0  0  0  0  0  0  0
   33.5587    5.9274   53.8195 H   0  0  0  0  0  0  0  0  0  0  0  0
   32.3456    6.9260   51.9506 H   0  0  0  0  0  0  0  0  0  0  0  0
   32.0637    5.1921   51.5750 H   0  0  0  0  0  0  0  0  0  0  0  0
   30.6874    6.3464   51.5750 H   0  0  0  0  0  0  0  0  0  0  0  0
   31.0927    6.9478   55.3726 H   0  0  0  0  0  0  0  0  0  0  0  0
   31.7661    7.8972   54.0045 H   0  0  0  0  0  0  0  0  0  0  0  0
   30.0323    7.4277   54.0045 H   0  0  0  0  0  0  0  0  0  0  0  0
   28.3988    4.3618   55.5639 H   0  0  0  0  0  0  0  0  0  0  0  0
   27.9198    6.8743   56.0872 H   0  0  0  0  0  0  0  0  0  0  0  0
   24.6532    4.8725   55.3142 H   0  0  0  0  0  0  0  0  0  0  0  0
   25.8547    3.7527   55.9482 H   0  0  0  0  0  0  0  0  0  0  0  0
   25.6484    1.8255   50.0339 H   0  0  0  0  0  0  0  0  0  0  0  0
   26.2993    6.0590   54.0933 H   0  0  0  0  0  0  0  0  0  0  0  0
   26.9126    6.6740   58.1046 H   0  0  0  0  0  0  0  0  0  0  0  0
   24.0565    5.0692   52.8350 H   0  0  0  0  0  0  0  0  0  0  0  0
   27.2665    2.1831   54.2981 H   0  0  0  0  0  0  0  0  0  0  0  0
   24.0162    3.8543   50.4953 H   0  0  0  0  0  0  0  0  0  0  0  0
   27.2656    0.9812   51.9445 H   0  0  0  0  0  0  0  0  0  0  0  0
   24.5991   10.2813   55.9829 H   0  0  0  0  0  0  0  0  0  0  0  0
   28.3280    9.3807   55.3350 H   0  0  0  0  0  0  0  0  0  0  0  0
   27.8882    8.3420   53.9660 H   0  0  0  0  0  0  0  0  0  0  0  0
   24.4206   12.8046   54.2211 H   0  0  0  0  0  0  0  0  0  0  0  0
   25.7121   12.7449   52.9741 H   0  0  0  0  0  0  0  0  0  0  0  0
   24.4060   11.5117   52.9741 H   0  0  0  0  0  0  0  0  0  0  0  0
   26.0856   11.5554   56.6634 H   0  0  0  0  0  0  0  0  0  0  0  0
   27.4925   12.1193   55.6995 H   0  0  0  0  0  0  0  0  0  0  0  0
   25.9662   13.0664   55.6995 H   0  0  0  0  0  0  0  0  0  0  0  0
   22.4349   10.5183   54.8919 H   0  0  0  0  0  0  0  0  0  0  0  0
   21.1767   10.2073   52.7943 H   0  0  0  0  0  0  0  0  0  0  0  0
   22.3331    8.8660   52.3750 H   0  0  0  0  0  0  0  0  0  0  0  0
   21.5494    7.1167   55.4366 H   0  0  0  0  0  0  0  0  0  0  0  0
   21.0821    6.1669   53.9853 H   0  0  0  0  0  0  0  0  0  0  0  0
   22.6080    7.1147   53.9853 H   0  0  0  0  0  0  0  0  0  0  0  0
   20.3825    8.6233   55.8873 H   0  0  0  0  0  0  0  0  0  0  0  0
   19.9764   10.0251   54.8401 H   0  0  0  0  0  0  0  0  0  0  0  0
   18.9240    8.5694   54.8401 H   0  0  0  0  0  0  0  0  0  0  0  0
   18.9833    7.4086   53.0033 H   0  0  0  0  0  0  0  0  0  0  0  0
   19.6353    8.7400   51.9889 H   0  0  0  0  0  0  0  0  0  0  0  0
   20.4401    7.1340   51.9889 H   0  0  0  0  0  0  0  0  0  0  0  0
  2  1  2  0
  3  1  1  0
  4  3  1  0
  5  7  2  0
  8  5  1  0
  8  6  1  0
  8  9  1  0
  9 13  2  0
 10 11  2  0
 12 10  1  0
 13 11  1  0
 14  9  1  0
 14 12  2  0
 15 16  1  0
 16 17  1  0
 16 21  1  0
 17 18  1  0
 17 19  1  0
 17 20  1  0
 21 22  2  0
 23 26  1  0
 23 25  2  0
 24 30  1  0
 26 31  1  0
 27 28  1  0
 29 34  2  0
 29 35  1  0
 30 26  1  0
 30 28  1  0
 32 27  2  0
 33 27  1  0
 34 32  1  0
 35 33  2  0
 36 39  1  0
 38 36  2  0
 39 37  1  0
 40 39  1  0
 40 43  1  0
 41 37  1  0
 42 40  1  0
 44 40  1  0
 44 41  1  0
 45 46  1  0
 46 47  1  0
 47 48  1  0
 47 49  1  0
 47 50  1  0
  1  6  1  0
  5 15  1  0
 21 24  1  0
 23 37  1  0
 36 45  1  0
  4 51  1  0
  4 52  1  0
  4 53  1  0
  6 54  1  0
  8 55  1  0
 10 56  1  0
 11 57  1  0
 12 58  1  0
 13 59  1  0
 14 60  1  0
 15 61  1  0
 16 62  1  0
 18 63  1  0
 18 64  1  0
 18 65  1  0
 19 66  1  0
 19 67  1  0
 19 68  1  0
 20 69  1  0
 20 70  1  0
 20 71  1  0
 24 72  1  0
 26 73  1  0
 28 74  1  0
 28 75  1  0
 29 76  1  0
 30 77  1  0
 31 78  1  0
 32 79  1  0
 33 80  1  0
 34 81  1  0
 35 82  1  0
 39 83  1  0
 41 84  1  0
 41 85  1  0
 42 86  1  0
 42 87  1  0
 42 88  1  0
 43 89  1  0
 43 90  1  0
 43 91  1  0
 45 92  1  0
 46 93  1  0
 46 94  1  0
 48 95  1  0
 48 96  1  0
 48 97  1  0
 49 98  1  0
 49 99  1  0
 49100  1  0
 50101  1  0
 50102  1  0
 50103  1  0
A    1
CB1
A    2
OA1
A    3
OA2
A    4
CB2
A    5
CBF
A    6
NAJ
A    7
OAK
A    8
CBM
A    9
CBK
A   10
CAQ
A   11
CAT
A   12
CAU
A   13
CAX
A   14
CAY
A   15
N
A   16
CA
A   17
CB
A   18
CAG
A   19
CG1
A   20
CG2
A   21
C
A   22
O
A   23
CBI
A   24
NBC
A   25
OAN
A   26
CBN
A   27
CBJ
A   28
CBA
A   29
CAP
A   30
CBO
A   31
OAO
A   32
CAV
A   33
CAW
A   34
CAR
A   35
CAS
A   36
CBH
A   37
NBR
A   38
OAM
A   39
CBQ
A   40
CBU
A   41
CAZ
A   42
CAH
A   43
CAI
A   44
SBE
A   45
NBB
A   46
CBL
A   47
CBS
A   48
CAB
A   49
CAC
A   50
CAD
M  END
