3LIT_E15_A_117
     RDKit          3D

 97 99  0  0  0  0  0  0  0  0999 V2000
   23.6190   29.6800   26.3250 C   0  0  0  0  0  0  0  0  0  0  0  0
   25.6170   28.4130   27.1380 N   0  0  0  0  0  0  0  0  0  0  0  0
   23.7770   29.4310   25.1540 O   0  0  0  0  0  0  0  0  0  0  0  0
   24.7840   29.6080   27.3400 C   0  0  0  0  0  0  0  0  0  0  0  0
   25.6880   30.8500   27.1450 C   0  0  0  0  0  0  0  0  0  0  0  0
   27.4740   33.3400   26.7660 C   0  0  0  0  0  0  0  0  0  0  0  0
   27.2060   32.7750   28.1830 C   0  0  0  0  0  0  0  0  0  0  0  0
   26.8600   32.6650   25.5220 C   0  0  0  0  0  0  0  0  0  0  0  0
   26.3140   31.5330   28.3790 C   0  0  0  0  0  0  0  0  0  0  0  0
   25.9670   31.4230   25.7230 C   0  0  0  0  0  0  0  0  0  0  0  0
   22.3190   30.0660   26.8750 N   0  0  0  0  0  0  0  0  0  0  0  0
   21.1520   30.1920   26.0010 C   0  0  0  0  0  0  0  0  0  0  0  0
   20.1750   28.9640   26.1730 C   0  0  0  0  0  0  0  0  0  0  0  0
   20.8570   27.6540   25.6810 C   0  0  0  0  0  0  0  0  0  0  0  0
   19.7360   28.7850   27.6460 C   0  0  0  0  0  0  0  0  0  0  0  0
   18.9090   29.2200   25.3100 C   0  0  0  0  0  0  0  0  0  0  0  0
   20.5300   31.6060   26.0430 C   0  0  0  0  0  0  0  0  0  0  0  0
   19.8920   32.0120   26.9710 O   0  0  0  0  0  0  0  0  0  0  0  0
   18.2660   34.6950   23.5760 C   0  0  0  0  0  0  0  0  0  0  0  0
   20.7750   32.3950   24.8500 N   0  0  0  0  0  0  0  0  0  0  0  0
   18.4060   35.7830   23.1580 O   0  0  0  0  0  0  0  0  0  0  0  0
   19.3440   33.6320   23.4140 C   0  0  0  0  0  0  0  0  0  0  0  0
   22.0940   34.9820   25.8440 C   0  0  0  0  0  0  0  0  0  0  0  0
   21.3680   34.8000   24.4970 C   0  0  0  0  0  0  0  0  0  0  0  0
   23.5650   35.3490   28.4810 C   0  0  0  0  0  0  0  0  0  0  0  0
   20.2610   33.7510   24.6550 C   0  0  0  0  0  0  0  0  0  0  0  0
   19.9970   33.7310   22.2010 O   0  0  0  0  0  0  0  0  0  0  0  0
   21.7530   36.1970   26.7270 C   0  0  0  0  0  0  0  0  0  0  0  0
   23.1660   33.9620   26.2580 C   0  0  0  0  0  0  0  0  0  0  0  0
   22.4980   36.3820   28.0590 C   0  0  0  0  0  0  0  0  0  0  0  0
   23.9090   34.1390   27.5870 C   0  0  0  0  0  0  0  0  0  0  0  0
   16.5290   36.4750   25.4740 C   0  0  0  0  0  0  0  0  0  0  0  0
   17.0560   34.3330   24.2920 N   0  0  0  0  0  0  0  0  0  0  0  0
   17.3570   36.1420   26.2580 O   0  0  0  0  0  0  0  0  0  0  0  0
   15.9280   35.4190   24.5050 C   0  0  0  0  0  0  0  0  0  0  0  0
   14.6780   34.6410   25.0370 C   0  0  0  0  0  0  0  0  0  0  0  0
   16.7020   32.9580   24.9080 C   0  0  0  0  0  0  0  0  0  0  0  0
   13.7950   35.5180   25.9520 C   0  0  0  0  0  0  0  0  0  0  0  0
   13.8840   34.2190   23.7920 C   0  0  0  0  0  0  0  0  0  0  0  0
   15.3450   33.2060   25.8820 S   0  0  0  0  0  0  0  0  0  0  0  0
   16.1140   37.8830   25.4190 N   0  0  0  0  0  0  0  0  0  0  0  0
   16.6600   38.8840   26.3590 C   0  0  0  0  0  0  0  0  0  0  0  0
   17.7250   39.8090   25.6910 C   0  0  0  0  0  0  0  0  0  0  0  0
   18.9160   38.9400   25.2050 C   0  0  0  0  0  0  0  0  0  0  0  0
   17.1130   40.6880   24.5430 C   0  0  0  0  0  0  0  0  0  0  0  0
   15.4570   39.7460   26.8020 C   0  0  0  0  0  0  0  0  0  0  0  0
   25.8877   28.0246   28.0527 H   0  0  0  0  0  0  0  0  0  0  0  0
   25.0834   27.7078   26.6099 H   0  0  0  0  0  0  0  0  0  0  0  0
   24.3482   29.5684   28.3492 H   0  0  0  0  0  0  0  0  0  0  0  0
   28.1080   34.2308   26.6455 H   0  0  0  0  0  0  0  0  0  0  0  0
   27.6568   33.2650   29.0586 H   0  0  0  0  0  0  0  0  0  0  0  0
   27.0546   33.0604   24.5141 H   0  0  0  0  0  0  0  0  0  0  0  0
   26.1257   31.1378   29.3881 H   0  0  0  0  0  0  0  0  0  0  0  0
   25.5189   30.9328   24.8461 H   0  0  0  0  0  0  0  0  0  0  0  0
   22.2247   30.2502   27.8840 H   0  0  0  0  0  0  0  0  0  0  0  0
   21.4726   30.1190   24.9513 H   0  0  0  0  0  0  0  0  0  0  0  0
   21.1690   27.0547   26.5490 H   0  0  0  0  0  0  0  0  0  0  0  0
   20.1453   27.0761   25.0731 H   0  0  0  0  0  0  0  0  0  0  0  0
   21.7386   27.9056   25.0731 H   0  0  0  0  0  0  0  0  0  0  0  0
   20.5461   29.1153   28.3128 H   0  0  0  0  0  0  0  0  0  0  0  0
   18.8358   29.3879   27.8362 H   0  0  0  0  0  0  0  0  0  0  0  0
   19.5140   27.7245   27.8362 H   0  0  0  0  0  0  0  0  0  0  0  0
   18.0454   29.3946   25.9686 H   0  0  0  0  0  0  0  0  0  0  0  0
   19.0705   30.1037   24.6751 H   0  0  0  0  0  0  0  0  0  0  0  0
   18.7145   28.3430   24.6751 H   0  0  0  0  0  0  0  0  0  0  0  0
   21.3423   31.9772   24.0987 H   0  0  0  0  0  0  0  0  0  0  0  0
   18.9166   32.6191   23.3781 H   0  0  0  0  0  0  0  0  0  0  0  0
   20.9249   35.7576   24.1862 H   0  0  0  0  0  0  0  0  0  0  0  0
   22.0861   34.4654   23.7339 H   0  0  0  0  0  0  0  0  0  0  0  0
   24.0908   35.4781   29.4385 H   0  0  0  0  0  0  0  0  0  0  0  0
   19.7122   34.1157   25.5358 H   0  0  0  0  0  0  0  0  0  0  0  0
   20.9635   33.8775   22.3575 H   0  0  0  0  0  0  0  0  0  0  0  0
   20.9883   36.9211   26.4095 H   0  0  0  0  0  0  0  0  0  0  0  0
   23.3991   33.1089   25.6038 H   0  0  0  0  0  0  0  0  0  0  0  0
   22.2728   37.2428   28.7057 H   0  0  0  0  0  0  0  0  0  0  0  0
   24.6758   33.4145   27.8988 H   0  0  0  0  0  0  0  0  0  0  0  0
   15.6010   35.9654   23.6080 H   0  0  0  0  0  0  0  0  0  0  0  0
   16.4723   32.2330   24.1132 H   0  0  0  0  0  0  0  0  0  0  0  0
   17.5427   32.5544   25.4913 H   0  0  0  0  0  0  0  0  0  0  0  0
   14.0213   35.2933   27.0048 H   0  0  0  0  0  0  0  0  0  0  0  0
   14.0004   36.5799   25.7514 H   0  0  0  0  0  0  0  0  0  0  0  0
   12.7345   35.3054   25.7514 H   0  0  0  0  0  0  0  0  0  0  0  0
   12.9520   33.7237   24.1020 H   0  0  0  0  0  0  0  0  0  0  0  0
   13.6441   35.1086   23.1911 H   0  0  0  0  0  0  0  0  0  0  0  0
   14.4871   33.5224   23.1911 H   0  0  0  0  0  0  0  0  0  0  0  0
   15.4278   38.1789   24.7101 H   0  0  0  0  0  0  0  0  0  0  0  0
   17.1612   38.3748   27.1954 H   0  0  0  0  0  0  0  0  0  0  0  0
   18.0945   40.5271   26.4378 H   0  0  0  0  0  0  0  0  0  0  0  0
   19.4596   38.5434   26.0752 H   0  0  0  0  0  0  0  0  0  0  0  0
   18.5368   38.1049   24.5977 H   0  0  0  0  0  0  0  0  0  0  0  0
   19.5956   39.5560   24.5977 H   0  0  0  0  0  0  0  0  0  0  0  0
   16.5368   41.5156   24.9824 H   0  0  0  0  0  0  0  0  0  0  0  0
   17.9238   41.0953   23.9212 H   0  0  0  0  0  0  0  0  0  0  0  0
   16.4496   40.0689   23.9212 H   0  0  0  0  0  0  0  0  0  0  0  0
   15.4132   39.7774   27.9007 H   0  0  0  0  0  0  0  0  0  0  0  0
   15.5737   40.7673   26.4104 H   0  0  0  0  0  0  0  0  0  0  0  0
   14.5275   39.3071   26.4104 H   0  0  0  0  0  0  0  0  0  0  0  0
  1  3  2  0
  4  1  1  0
  4  2  1  0
  4  5  1  0
  5  9  2  0
  6  7  2  0
  8  6  1  0
  9  7  1  0
 10  5  1  0
 10  8  2  0
 11 12  1  0
 12 13  1  0
 12 17  1  0
 13 14  1  0
 13 15  1  0
 13 16  1  0
 17 18  2  0
 19 22  1  0
 19 21  2  0
 20 26  1  0
 22 27  1  0
 23 24  1  0
 25 30  2  0
 25 31  1  0
 26 22  1  0
 26 24  1  0
 28 23  2  0
 29 23  1  0
 30 28  1  0
 31 29  2  0
 32 35  1  0
 34 32  2  0
 35 33  1  0
 36 35  1  0
 36 39  1  0
 37 33  1  0
 38 36  1  0
 40 36  1  0
 40 37  1  0
 41 42  1  0
 42 43  1  0
 42 46  1  0
 43 44  1  0
 43 45  1  0
  1 11  1  0
 17 20  1  0
 19 33  1  0
 32 41  1  0
  2 47  1  0
  2 48  1  0
  4 49  1  0
  6 50  1  0
  7 51  1  0
  8 52  1  0
  9 53  1  0
 10 54  1  0
 11 55  1  0
 12 56  1  0
 14 57  1  0
 14 58  1  0
 14 59  1  0
 15 60  1  0
 15 61  1  0
 15 62  1  0
 16 63  1  0
 16 64  1  0
 16 65  1  0
 20 66  1  0
 22 67  1  0
 24 68  1  0
 24 69  1  0
 25 70  1  0
 26 71  1  0
 27 72  1  0
 28 73  1  0
 29 74  1  0
 30 75  1  0
 31 76  1  0
 35 77  1  0
 37 78  1  0
 37 79  1  0
 38 80  1  0
 38 81  1  0
 38 82  1  0
 39 83  1  0
 39 84  1  0
 39 85  1  0
 41 86  1  0
 42 87  1  0
 43 88  1  0
 44 89  1  0
 44 90  1  0
 44 91  1  0
 45 92  1  0
 45 93  1  0
 45 94  1  0
 46 95  1  0
 46 96  1  0
 46 97  1  0
A    1
CBF
A    2
NAJ
A    3
OAK
A    4
CBM
A    5
CBK
A    6
CAQ
A    7
CAT
A    8
CAU
A    9
CAX
A   10
CAY
A   11
N
A   12
CA
A   13
CB
A   14
CAG
A   15
CG1
A   16
CG2
A   17
C
A   18
O
A   19
CBI
A   20
NBC
A   21
OAN
A   22
CBN
A   23
CBJ
A   24
CBA
A   25
CAP
A   26
CBO
A   27
OAO
A   28
CAV
A   29
CAW
A   30
CAR
A   31
CAS
A   32
CBH
A   33
NBR
A   34
OAM
A   35
CBQ
A   36
CBU
A   37
CAZ
A   38
CAH
A   39
CAI
A   40
SBE
A   41
NBB
A   42
CBL
A   43
CBS
A   44
CAB
A   45
CAC
A   46
CAA
M  END
