3LIV_E16_B_117
     RDKit          3D

100102  0  0  0  0  0  0  0  0999 V2000
   23.7120   29.3370   26.4580 C   0  0  0  0  0  0  0  0  0  0  0  0
   25.7050   28.0970   27.3270 N   0  0  0  0  0  0  0  0  0  0  0  0
   23.8980   29.0550   25.3150 O   0  0  0  0  0  0  0  0  0  0  0  0
   24.8670   29.2960   27.4920 C   0  0  0  0  0  0  0  0  0  0  0  0
   25.7700   30.5520   27.2830 C   0  0  0  0  0  0  0  0  0  0  0  0
   27.5680   33.0880   26.8990 C   0  0  0  0  0  0  0  0  0  0  0  0
   26.7320   32.5300   25.7180 C   0  0  0  0  0  0  0  0  0  0  0  0
   27.5010   32.3680   28.2740 C   0  0  0  0  0  0  0  0  0  0  0  0
   25.8410   31.2760   25.9130 C   0  0  0  0  0  0  0  0  0  0  0  0
   26.6090   31.1140   28.4670 C   0  0  0  0  0  0  0  0  0  0  0  0
   22.3840   29.7500   26.9040 N   0  0  0  0  0  0  0  0  0  0  0  0
   21.3470   29.8290   25.8950 C   0  0  0  0  0  0  0  0  0  0  0  0
   20.2810   28.7180   26.1320 C   0  0  0  0  0  0  0  0  0  0  0  0
   20.7760   27.3870   25.5340 C   0  0  0  0  0  0  0  0  0  0  0  0
   20.0240   28.5190   27.6390 C   0  0  0  0  0  0  0  0  0  0  0  0
   18.9670   29.1140   25.4120 C   0  0  0  0  0  0  0  0  0  0  0  0
   20.7370   31.2540   25.9530 C   0  0  0  0  0  0  0  0  0  0  0  0
   20.1290   31.6820   26.8930 O   0  0  0  0  0  0  0  0  0  0  0  0
   18.3150   34.2340   23.6120 C   0  0  0  0  0  0  0  0  0  0  0  0
   20.9440   32.0580   24.7580 N   0  0  0  0  0  0  0  0  0  0  0  0
   18.3900   35.2970   23.1310 O   0  0  0  0  0  0  0  0  0  0  0  0
   19.4260   33.2100   23.5060 C   0  0  0  0  0  0  0  0  0  0  0  0
   22.1300   34.6500   25.7600 C   0  0  0  0  0  0  0  0  0  0  0  0
   21.3870   34.4810   24.4530 C   0  0  0  0  0  0  0  0  0  0  0  0
   23.6290   34.9920   28.3910 C   0  0  0  0  0  0  0  0  0  0  0  0
   20.3520   33.3800   24.7090 C   0  0  0  0  0  0  0  0  0  0  0  0
   20.1050   33.3260   22.2930 O   0  0  0  0  0  0  0  0  0  0  0  0
   21.7810   35.8170   26.6560 C   0  0  0  0  0  0  0  0  0  0  0  0
   23.2140   33.6490   26.1460 C   0  0  0  0  0  0  0  0  0  0  0  0
   22.5370   35.9930   27.9810 C   0  0  0  0  0  0  0  0  0  0  0  0
   23.9670   33.8080   27.4670 C   0  0  0  0  0  0  0  0  0  0  0  0
   16.4600   36.0630   25.3670 C   0  0  0  0  0  0  0  0  0  0  0  0
   17.1060   33.8910   24.3080 N   0  0  0  0  0  0  0  0  0  0  0  0
   17.3890   35.8970   26.0780 O   0  0  0  0  0  0  0  0  0  0  0  0
   15.9500   34.9560   24.4240 C   0  0  0  0  0  0  0  0  0  0  0  0
   14.7020   34.1420   24.9520 C   0  0  0  0  0  0  0  0  0  0  0  0
   16.7630   32.5660   25.0250 C   0  0  0  0  0  0  0  0  0  0  0  0
   13.6280   34.9570   25.7130 C   0  0  0  0  0  0  0  0  0  0  0  0
   14.0340   33.5620   23.7020 C   0  0  0  0  0  0  0  0  0  0  0  0
   15.4040   32.8580   25.9680 S   0  0  0  0  0  0  0  0  0  0  0  0
   15.7780   37.3420   25.3780 N   0  0  0  0  0  0  0  0  0  0  0  0
   16.2100   38.3910   26.2930 C   0  0  0  0  0  0  0  0  0  0  0  0
   17.4580   39.2080   25.8250 C   0  0  0  0  0  0  0  0  0  0  0  0
   14.9320   39.2430   26.4810 C   0  0  0  0  0  0  0  0  0  0  0  0
   18.6140   38.3280   25.2760 C   0  0  0  0  0  0  0  0  0  0  0  0
   16.9860   40.2530   24.7670 C   0  0  0  0  0  0  0  0  0  0  0  0
   18.0890   39.8810   27.0570 C   0  0  0  0  0  0  0  0  0  0  0  0
   25.9628   27.7281   28.2535 H   0  0  0  0  0  0  0  0  0  0  0  0
   25.1800   27.3802   26.8060 H   0  0  0  0  0  0  0  0  0  0  0  0
   24.4228   29.2777   28.4982 H   0  0  0  0  0  0  0  0  0  0  0  0
   28.1984   33.9794   26.7652 H   0  0  0  0  0  0  0  0  0  0  0  0
   26.7713   33.0263   24.7371 H   0  0  0  0  0  0  0  0  0  0  0  0
   28.0919   32.7513   29.1189 H   0  0  0  0  0  0  0  0  0  0  0  0
   25.2505   30.8941   25.0672 H   0  0  0  0  0  0  0  0  0  0  0  0
   26.5691   30.6182   29.4481 H   0  0  0  0  0  0  0  0  0  0  0  0
   22.1932   29.9749   27.8909 H   0  0  0  0  0  0  0  0  0  0  0  0
   21.7579   29.6576   24.8891 H   0  0  0  0  0  0  0  0  0  0  0  0
   21.0341   26.6930   26.3475 H   0  0  0  0  0  0  0  0  0  0  0  0
   19.9818   26.9458   24.9138 H   0  0  0  0  0  0  0  0  0  0  0  0
   21.6655   27.5720   24.9138 H   0  0  0  0  0  0  0  0  0  0  0  0
   20.7644   29.0923   28.2161 H   0  0  0  0  0  0  0  0  0  0  0  0
   19.0122   28.8715   27.8881 H   0  0  0  0  0  0  0  0  0  0  0  0
   20.1120   27.4512   27.8881 H   0  0  0  0  0  0  0  0  0  0  0  0
   18.1948   29.3467   26.1600 H   0  0  0  0  0  0  0  0  0  0  0  0
   19.1459   29.9981   24.7825 H   0  0  0  0  0  0  0  0  0  0  0  0
   18.6276   28.2782   24.7825 H   0  0  0  0  0  0  0  0  0  0  0  0
   21.4969   31.6970   23.9675 H   0  0  0  0  0  0  0  0  0  0  0  0
   19.0062   32.1933   23.5201 H   0  0  0  0  0  0  0  0  0  0  0  0
   20.8878   35.4196   24.1706 H   0  0  0  0  0  0  0  0  0  0  0  0
   22.0664   34.2184   23.6287 H   0  0  0  0  0  0  0  0  0  0  0  0
   24.1672   35.1212   29.3416 H   0  0  0  0  0  0  0  0  0  0  0  0
   19.8661   33.6904   25.6458 H   0  0  0  0  0  0  0  0  0  0  0  0
   21.0657   33.4901   22.4670 H   0  0  0  0  0  0  0  0  0  0  0  0
   20.9964   36.5300   26.3627 H   0  0  0  0  0  0  0  0  0  0  0  0
   23.4542   32.8122   25.4736 H   0  0  0  0  0  0  0  0  0  0  0  0
   22.2958   36.8399   28.6402 H   0  0  0  0  0  0  0  0  0  0  0  0
   24.7429   33.0833   27.7545 H   0  0  0  0  0  0  0  0  0  0  0  0
   15.6562   35.4607   23.4918 H   0  0  0  0  0  0  0  0  0  0  0  0
   16.5484   31.7804   24.2855 H   0  0  0  0  0  0  0  0  0  0  0  0
   17.6055   32.2243   25.6442 H   0  0  0  0  0  0  0  0  0  0  0  0
   13.7797   34.8419   26.7964 H   0  0  0  0  0  0  0  0  0  0  0  0
   13.7135   36.0196   25.4417 H   0  0  0  0  0  0  0  0  0  0  0  0
   12.6277   34.5886   25.4417 H   0  0  0  0  0  0  0  0  0  0  0  0
   13.2348   32.8681   24.0018 H   0  0  0  0  0  0  0  0  0  0  0  0
   13.6048   34.3788   23.1031 H   0  0  0  0  0  0  0  0  0  0  0  0
   14.7825   33.0224   23.1031 H   0  0  0  0  0  0  0  0  0  0  0  0
   14.9878   37.5096   24.7389 H   0  0  0  0  0  0  0  0  0  0  0  0
   16.5901   37.9763   27.2383 H   0  0  0  0  0  0  0  0  0  0  0  0
   14.7340   39.3750   27.5550 H   0  0  0  0  0  0  0  0  0  0  0  0
   15.0750   40.2271   26.0108 H   0  0  0  0  0  0  0  0  0  0  0  0
   14.0786   38.7325   26.0108 H   0  0  0  0  0  0  0  0  0  0  0  0
   19.1786   37.8982   26.1165 H   0  0  0  0  0  0  0  0  0  0  0  0
   18.1971   37.5166   24.6613 H   0  0  0  0  0  0  0  0  0  0  0  0
   19.2851   38.9459   24.6613 H   0  0  0  0  0  0  0  0  0  0  0  0
   16.5856   41.1395   25.2806 H   0  0  0  0  0  0  0  0  0  0  0  0
   17.8383   40.5478   24.1372 H   0  0  0  0  0  0  0  0  0  0  0  0
   16.2013   39.8084   24.1372 H   0  0  0  0  0  0  0  0  0  0  0  0
   17.6715   39.4357   27.9721 H   0  0  0  0  0  0  0  0  0  0  0  0
   19.1784   39.7298   27.0397 H   0  0  0  0  0  0  0  0  0  0  0  0
   17.8680   40.9584   27.0397 H   0  0  0  0  0  0  0  0  0  0  0  0
  1  3  2  0
  4  1  1  0
  4  2  1  0
  4  5  1  0
  5  9  2  0
  6  7  2  0
  8  6  1  0
  9  7  1  0
 10  5  1  0
 10  8  2  0
 11 12  1  0
 12 13  1  0
 12 17  1  0
 13 14  1  0
 13 15  1  0
 13 16  1  0
 17 18  2  0
 19 22  1  0
 19 21  2  0
 20 26  1  0
 22 27  1  0
 23 24  1  0
 25 30  2  0
 25 31  1  0
 26 22  1  0
 26 24  1  0
 28 23  2  0
 29 23  1  0
 30 28  1  0
 31 29  2  0
 32 35  1  0
 34 32  2  0
 35 33  1  0
 36 35  1  0
 36 39  1  0
 37 33  1  0
 38 36  1  0
 40 36  1  0
 40 37  1  0
 41 42  1  0
 43 42  1  0
 42 44  1  0
 46 43  1  0
 45 43  1  0
 43 47  1  0
  1 11  1  0
 17 20  1  0
 19 33  1  0
 32 41  1  0
  2 48  1  0
  2 49  1  0
  4 50  1  0
  6 51  1  0
  7 52  1  0
  8 53  1  0
  9 54  1  0
 10 55  1  0
 11 56  1  0
 12 57  1  0
 14 58  1  0
 14 59  1  0
 14 60  1  0
 15 61  1  0
 15 62  1  0
 15 63  1  0
 16 64  1  0
 16 65  1  0
 16 66  1  0
 20 67  1  0
 22 68  1  0
 24 69  1  0
 24 70  1  0
 25 71  1  0
 26 72  1  0
 27 73  1  0
 28 74  1  0
 29 75  1  0
 30 76  1  0
 31 77  1  0
 35 78  1  0
 37 79  1  0
 37 80  1  0
 38 81  1  0
 38 82  1  0
 38 83  1  0
 39 84  1  0
 39 85  1  0
 39 86  1  0
 41 87  1  0
 42 88  1  0
 44 89  1  0
 44 90  1  0
 44 91  1  0
 45 92  1  0
 45 93  1  0
 45 94  1  0
 46 95  1  0
 46 96  1  0
 46 97  1  0
 47 98  1  0
 47 99  1  0
 47100  1  0
A    1
CBF
A    2
NAJ
A    3
OAK
A    4
CBM
A    5
CBK
A    6
CAQ
A    7
CAT
A    8
CAU
A    9
CAX
A   10
CAY
A   11
N
A   12
CA
A   13
CB
A   14
CAG
A   15
CG1
A   16
CG2
A   17
C
A   18
O
A   19
CBI
A   20
NBC
A   21
OAN
A   22
CBN
A   23
CBJ
A   24
CBA
A   25
CAP
A   26
CBO
A   27
OAO
A   28
CAV
A   29
CAW
A   30
CAR
A   31
CAS
A   32
CBH
A   33
NBR
A   34
OAM
A   35
CBQ
A   36
CBU
A   37
CAZ
A   38
CAH
A   39
CAI
A   40
SBE
A   41
NBB
A   42
CBL
A   43
CBS
A   44
CAA
A   45
CAB
A   46
CAC
A   47
CAD
M  END
