3LJ3_WYE_A_1109
     RDKit          3D

 52 56  0  0  0  0  0  0  0  0999 V2000
   48.8120   14.5970   30.6800 C   0  0  0  0  0  0  0  0  0  0  0  0
   48.4030   12.8030   29.0760 N   0  0  0  0  0  0  0  0  0  0  0  0
   42.1990   13.9790   33.9640 O   0  0  0  0  0  0  0  0  0  0  0  0
   40.5460   11.0180   30.6370 C   0  0  0  0  0  0  0  0  0  0  0  0
   46.2290   11.8000   29.3050 N   0  0  0  0  0  0  0  0  0  0  0  0
   42.6960   12.0660   31.0330 O   0  0  0  0  0  0  0  0  0  0  0  0
   38.8140   11.5640   32.2740 C   0  0  0  0  0  0  0  0  0  0  0  0
   47.1710   15.2780   32.3250 N   0  0  0  0  0  0  0  0  0  0  0  0
   38.3810   10.0870   30.4130 O   0  0  0  0  0  0  0  0  0  0  0  0
   49.1730   13.7700   29.6240 C   0  0  0  0  0  0  0  0  0  0  0  0
   47.1890   17.9710   33.2370 N   0  0  0  0  0  0  0  0  0  0  0  0
   39.2670   13.0350   34.1080 O   0  0  0  0  0  0  0  0  0  0  0  0
   45.1330   11.9670   30.1040 C   0  0  0  0  0  0  0  0  0  0  0  0
   46.7030   13.4580   30.7290 C   0  0  0  0  0  0  0  0  0  0  0  0
   40.9770   12.5040   32.5060 C   0  0  0  0  0  0  0  0  0  0  0  0
   45.3890   12.9840   30.9970 C   0  0  0  0  0  0  0  0  0  0  0  0
   47.5490   14.4490   31.2580 C   0  0  0  0  0  0  0  0  0  0  0  0
   41.3900   11.8310   31.3550 C   0  0  0  0  0  0  0  0  0  0  0  0
   39.2400   10.8850   31.1060 C   0  0  0  0  0  0  0  0  0  0  0  0
   39.6880   12.3900   32.9940 C   0  0  0  0  0  0  0  0  0  0  0  0
   47.1960   12.7000   29.6640 C   0  0  0  0  0  0  0  0  0  0  0  0
   42.1280   13.2650   32.9900 C   0  0  0  0  0  0  0  0  0  0  0  0
   43.1820   12.9300   31.9990 C   0  0  0  0  0  0  0  0  0  0  0  0
   44.4540   13.3800   31.9850 C   0  0  0  0  0  0  0  0  0  0  0  0
   45.9760   16.1220   32.1590 C   0  0  0  0  0  0  0  0  0  0  0  0
   48.1460   15.6930   33.3370 C   0  0  0  0  0  0  0  0  0  0  0  0
   46.3340   17.5960   32.0550 C   0  0  0  0  0  0  0  0  0  0  0  0
   48.4690   17.1770   33.2260 C   0  0  0  0  0  0  0  0  0  0  0  0
   46.3230   10.8270   28.2430 C   0  0  0  0  0  0  0  0  0  0  0  0
   47.4490   19.4510   33.2890 C   0  0  0  0  0  0  0  0  0  0  0  0
   49.5113   15.3583   31.0561 H   0  0  0  0  0  0  0  0  0  0  0  0
   40.8864   10.4948   29.7313 H   0  0  0  0  0  0  0  0  0  0  0  0
   37.7779   11.4407   32.6224 H   0  0  0  0  0  0  0  0  0  0  0  0
   37.7492    9.5001   30.8992 H   0  0  0  0  0  0  0  0  0  0  0  0
   50.1755   13.9148   29.1949 H   0  0  0  0  0  0  0  0  0  0  0  0
   39.4986   12.6802   35.0028 H   0  0  0  0  0  0  0  0  0  0  0  0
   44.2010   11.3857   30.0440 H   0  0  0  0  0  0  0  0  0  0  0  0
   44.7769   14.0801   32.7696 H   0  0  0  0  0  0  0  0  0  0  0  0
   45.4503   15.8180   31.2418 H   0  0  0  0  0  0  0  0  0  0  0  0
   45.3375   15.9875   33.0446 H   0  0  0  0  0  0  0  0  0  0  0  0
   47.7321   15.4911   34.3360 H   0  0  0  0  0  0  0  0  0  0  0  0
   49.0740   15.1250   33.1753 H   0  0  0  0  0  0  0  0  0  0  0  0
   45.4152   18.2008   32.0563 H   0  0  0  0  0  0  0  0  0  0  0  0
   46.8841   17.7826   31.1209 H   0  0  0  0  0  0  0  0  0  0  0  0
   49.0095   17.3655   32.2867 H   0  0  0  0  0  0  0  0  0  0  0  0
   49.0965   17.4806   34.0770 H   0  0  0  0  0  0  0  0  0  0  0  0
   46.4203    9.8203   28.6756 H   0  0  0  0  0  0  0  0  0  0  0  0
   45.4162   10.8732   27.6220 H   0  0  0  0  0  0  0  0  0  0  0  0
   47.2042   11.0460   27.6220 H   0  0  0  0  0  0  0  0  0  0  0  0
   47.5062   19.7766   34.3382 H   0  0  0  0  0  0  0  0  0  0  0  0
   48.4001   19.6742   32.7834 H   0  0  0  0  0  0  0  0  0  0  0  0
   46.6309   19.9850   32.7834 H   0  0  0  0  0  0  0  0  0  0  0  0
  1 10  2  0
  1 17  1  0
  2 10  1  0
  2 21  2  0
  3 22  2  0
  4 18  2  0
  4 19  1  0
  5 13  1  0
  5 21  1  0
  5 29  1  0
  6 18  1  0
  6 23  1  0
  7 19  2  0
  7 20  1  0
  8 17  1  0
  8 25  1  0
  8 26  1  0
  9 19  1  0
 11 27  1  0
 11 28  1  0
 11 30  1  0
 12 20  1  0
 13 16  2  0
 14 16  1  0
 14 17  2  0
 14 21  1  0
 15 18  1  0
 15 20  2  0
 15 22  1  0
 16 24  1  0
 22 23  1  0
 23 24  2  0
 25 27  1  0
 26 28  1  0
  1 31  1  0
  4 32  1  0
  7 33  1  0
  9 34  1  0
 10 35  1  0
 12 36  1  0
 13 37  1  0
 24 38  1  0
 25 39  1  0
 25 40  1  0
 26 41  1  0
 26 42  1  0
 27 43  1  0
 27 44  1  0
 28 45  1  0
 28 46  1  0
 29 47  1  0
 29 48  1  0
 29 49  1  0
 30 50  1  0
 30 51  1  0
 30 52  1  0
A    1
C1
A    2
N1
A    3
O1
A    4
C2
A    5
N2
A    6
O2
A    7
C3
A    8
N3
A    9
O3
A   10
C4
A   11
N4
A   12
O4
A   13
C5
A   14
C6
A   15
C7
A   16
C8
A   17
C9
A   18
C10
A   19
C11
A   20
C12
A   21
C13
A   22
C14
A   23
C15
A   24
C16
A   25
C17
A   26
C18
A   27
C19
A   28
C20
A   29
C21
A   30
C22
M  END
