3LK9_TFF_A_338
     RDKit          3D

 50 51  0  0  0  0  0  0  0  0999 V2000
    6.4210    7.7410   10.4460 N   0  0  0  0  0  0  0  0  0  0  0  0
    7.3030    8.0920    9.4290 C   0  0  0  0  0  0  0  0  0  0  0  0
    6.9540    8.4810    8.3260 O   0  0  0  0  0  0  0  0  0  0  0  0
    8.6240    7.9650    9.7580 N   0  0  0  0  0  0  0  0  0  0  0  0
    9.1460    7.5460   10.9590 C   0  0  0  0  0  0  0  0  0  0  0  0
   10.3530    7.4320   11.0790 O   0  0  0  0  0  0  0  0  0  0  0  0
    8.1860    7.2510   11.9930 C   0  0  0  0  0  0  0  0  0  0  0  0
    6.8910    7.3710   11.6930 C   0  0  0  0  0  0  0  0  0  0  0  0
    4.9930    5.6990   15.0100 P   0  0  0  0  0  0  0  0  0  0  0  0
    3.8420    2.9140   13.9320 P   0  0  0  0  0  0  0  0  0  0  0  0
    3.5820    1.1180   16.5500 P   0  0  0  0  0  0  0  0  0  0  0  0
    4.9620    7.7170   10.1500 C   0  0  0  0  0  0  0  0  0  0  0  0
    6.3260    3.8480   13.6890 F   0  0  0  0  0  0  0  0  0  0  0  0
    3.8230    5.8100   15.9190 O   0  0  0  0  0  0  0  0  0  0  0  0
    3.3990    0.2840   14.1050 F   0  0  0  0  0  0  0  0  0  0  0  0
    4.0280    2.7500   12.4750 O   0  0  0  0  0  0  0  0  0  0  0  0
    4.5610    0.2950   17.3160 O   0  0  0  0  0  0  0  0  0  0  0  0
    4.5590    6.3860    9.5010 C   0  0  0  0  0  0  0  0  0  0  0  0
    5.7050    3.2880   15.7760 F   0  0  0  0  0  0  0  0  0  0  0  0
    6.2790    6.3140   15.4410 O   0  0  0  0  0  0  0  0  0  0  0  0
    5.4680    0.9410   14.6540 F   0  0  0  0  0  0  0  0  0  0  0  0
    2.5700    3.4900   14.4240 O   0  0  0  0  0  0  0  0  0  0  0  0
    2.1490    0.7610   16.6150 O   0  0  0  0  0  0  0  0  0  0  0  0
    4.1820    5.5610   10.7240 C   0  0  0  0  0  0  0  0  0  0  0  0
    3.3000    4.4910   10.4210 O   0  0  0  0  0  0  0  0  0  0  0  0
    5.2800    3.9010   14.6020 C   0  0  0  0  0  0  0  0  0  0  0  0
    4.1230    1.2670   14.7690 C   0  0  0  0  0  0  0  0  0  0  0  0
    3.7250    2.4670   17.1630 O   0  0  0  0  0  0  0  0  0  0  0  0
    3.4540    6.5920   11.5620 C   0  0  0  0  0  0  0  0  0  0  0  0
    4.2290    7.8100   11.3680 O   0  0  0  0  0  0  0  0  0  0  0  0
    3.3380    6.2340   13.0260 C   0  0  0  0  0  0  0  0  0  0  0  0
    4.5540    6.5160   13.7110 O   0  0  0  0  0  0  0  0  0  0  0  0
    8.6520    6.5150   13.2080 C   0  0  0  0  0  0  0  0  0  0  0  0
    9.3039    8.2106    9.0243 H   0  0  0  0  0  0  0  0  0  0  0  0
    6.1547    7.1636   12.4835 H   0  0  0  0  0  0  0  0  0  0  0  0
    4.7450    8.5579    9.4749 H   0  0  0  0  0  0  0  0  0  0  0  0
    4.4106    0.4214   18.2863 H   0  0  0  0  0  0  0  0  0  0  0  0
    3.7037    6.5121    8.8209 H   0  0  0  0  0  0  0  0  0  0  0  0
    5.3430    5.9335    8.8761 H   0  0  0  0  0  0  0  0  0  0  0  0
    6.3203    6.3337   16.4299 H   0  0  0  0  0  0  0  0  0  0  0  0
    2.5690    3.4904   15.4140 H   0  0  0  0  0  0  0  0  0  0  0  0
    5.0530    5.0834   11.1966 H   0  0  0  0  0  0  0  0  0  0  0  0
    2.9682    4.0885   11.2624 H   0  0  0  0  0  0  0  0  0  0  0  0
    3.7162    2.3838   18.1495 H   0  0  0  0  0  0  0  0  0  0  0  0
    2.4045    6.6831   11.2455 H   0  0  0  0  0  0  0  0  0  0  0  0
    2.5246    6.8207   13.4778 H   0  0  0  0  0  0  0  0  0  0  0  0
    3.1254    5.1581   13.1112 H   0  0  0  0  0  0  0  0  0  0  0  0
    8.3154    7.0466   14.1103 H   0  0  0  0  0  0  0  0  0  0  0  0
    8.2329    5.4980   13.2038 H   0  0  0  0  0  0  0  0  0  0  0  0
    9.7506    6.4589   13.2038 H   0  0  0  0  0  0  0  0  0  0  0  0
  1  2  1  0
  1  8  1  0
  1 12  1  0
  2  3  2  0
  2  4  1  0
  4  5  1  0
  5  6  2  0
  5  7  1  0
  7  8  2  0
  7 33  1  0
  9 14  2  0
  9 20  1  0
  9 26  1  0
  9 32  1  0
 10 16  2  0
 10 22  1  0
 10 26  1  0
 10 27  1  0
 11 17  1  0
 11 23  2  0
 11 27  1  0
 11 28  1  0
 12 18  1  0
 12 30  1  0
 13 26  1  0
 15 27  1  0
 18 24  1  0
 19 26  1  0
 21 27  1  0
 24 25  1  0
 24 29  1  0
 29 30  1  0
 29 31  1  0
 31 32  1  0
  4 34  1  0
  8 35  1  0
 12 36  1  0
 17 37  1  0
 18 38  1  0
 18 39  1  0
 20 40  1  0
 22 41  1  0
 24 42  1  0
 25 43  1  0
 28 44  1  0
 29 45  1  0
 31 46  1  0
 31 47  1  0
 33 48  1  0
 33 49  1  0
 33 50  1  0
A    1
N1
A    2
C2
A    3
O2
A    4
N3
A    5
C4
A    6
O4
A    7
C5
A    8
C6
A    9
PA
A   10
PB
A   11
PG
A   12
C1'
A   13
F1A
A   14
O1A
A   15
F1B
A   16
O1B
A   17
O1G
A   18
C2'
A   19
F2A
A   20
O2A
A   21
F2B
A   22
O2B
A   23
O2G
A   24
C3'
A   25
O3'
A   26
C3A
A   27
C3B
A   28
O3G
A   29
C4'
A   30
O4'
A   31
C5'
A   32
O5'
A   33
C5M
M  END
