3LKA_M4S_A_1
     RDKit          3D

 21 21  0  0  0  0  0  0  0  0999 V2000
    2.5270   -5.5670    7.6560 C   0  0  0  0  0  0  0  0  0  0  0  0
    2.5500   -5.1900    4.1660 N   0  0  0  0  0  0  0  0  0  0  0  0
    5.4310   -6.2350    9.7660 O   0  0  0  0  0  0  0  0  0  0  0  0
    1.9130   -6.0750    5.1750 S   0  0  0  0  0  0  0  0  0  0  0  0
    3.3880   -5.6130    8.7410 C   0  0  0  0  0  0  0  0  0  0  0  0
    1.8930   -7.4750    4.6600 O   0  0  0  0  0  0  0  0  0  0  0  0
    4.6400   -6.2080    8.6440 C   0  0  0  0  0  0  0  0  0  0  0  0
    0.5000   -5.6780    5.4410 O   0  0  0  0  0  0  0  0  0  0  0  0
    5.0640   -6.7450    7.4250 C   0  0  0  0  0  0  0  0  0  0  0  0
    2.9190   -6.1190    6.4370 C   0  0  0  0  0  0  0  0  0  0  0  0
    6.6490   -6.9730    9.7830 C   0  0  0  0  0  0  0  0  0  0  0  0
    4.1900   -6.7080    6.3270 C   0  0  0  0  0  0  0  0  0  0  0  0
    1.5377   -5.0966    7.7561 H   0  0  0  0  0  0  0  0  0  0  0  0
    3.0825   -4.4502    4.6456 H   0  0  0  0  0  0  0  0  0  0  0  0
    3.1871   -5.7444    3.5764 H   0  0  0  0  0  0  0  0  0  0  0  0
    3.0742   -5.1699    9.6976 H   0  0  0  0  0  0  0  0  0  0  0  0
    6.0657   -7.1891    7.3277 H   0  0  0  0  0  0  0  0  0  0  0  0
    6.9520   -7.1566   10.8244 H   0  0  0  0  0  0  0  0  0  0  0  0
    6.5024   -7.9343    9.2689 H   0  0  0  0  0  0  0  0  0  0  0  0
    7.4333   -6.3981    9.2689 H   0  0  0  0  0  0  0  0  0  0  0  0
    4.5043   -7.1458    5.3681 H   0  0  0  0  0  0  0  0  0  0  0  0
  1  5  2  0
  1 10  1  0
  2  4  1  0
  3  7  1  0
  3 11  1  0
  4  6  2  0
  4  8  2  0
  4 10  1  0
  5  7  1  0
  7  9  2  0
  9 12  1  0
 10 12  2  0
  1 13  1  0
  2 14  1  0
  2 15  1  0
  5 16  1  0
  9 17  1  0
 11 18  1  0
 11 19  1  0
 11 20  1  0
 12 21  1  0
A    1
C1
A    2
N1
A    3
O1
A    4
S1
A    5
C2
A    6
O2
A    7
C3
A    8
O3
A    9
C4
A   10
C5
A   11
C6
A   12
C7
M  END
