3LM0_EBD_A_1
     RDKit          3D

 45 48  0  0  0  0  0  0  0  0999 V2000
   25.2500   39.6420    3.1250 N   0  0  0  0  0  0  0  0  0  0  0  0
   23.9330   39.3500    2.9980 C   0  0  0  0  0  0  0  0  0  0  0  0
   23.0450   40.0570    3.7290 N   0  0  0  0  0  0  0  0  0  0  0  0
   23.4340   41.0320    4.6090 C   0  0  0  0  0  0  0  0  0  0  0  0
   24.8220   41.3110    4.7300 C   0  0  0  0  0  0  0  0  0  0  0  0
   25.7190   40.5870    3.9350 C   0  0  0  0  0  0  0  0  0  0  0  0
   22.5030   41.7030    5.3040 N   0  0  0  0  0  0  0  0  0  0  0  0
   21.1430   41.5070    5.1960 C   0  0  0  0  0  0  0  0  0  0  0  0
   23.5890   38.3560    2.1240 N   0  0  0  0  0  0  0  0  0  0  0  0
   22.3770   38.0110    1.6460 C   0  0  0  0  0  0  0  0  0  0  0  0
   22.0470   36.6470    1.5980 C   0  0  0  0  0  0  0  0  0  0  0  0
   20.8200   36.1700    1.0950 C   0  0  0  0  0  0  0  0  0  0  0  0
   19.8740   37.1020    0.6380 C   0  0  0  0  0  0  0  0  0  0  0  0
   20.2190   38.4660    0.6570 C   0  0  0  0  0  0  0  0  0  0  0  0
   21.4490   38.9260    1.1460 C   0  0  0  0  0  0  0  0  0  0  0  0
   20.3240   41.9680    6.1440 N   0  0  0  0  0  0  0  0  0  0  0  0
   19.1260   41.7030    5.9140 N   0  0  0  0  0  0  0  0  0  0  0  0
   19.0820   41.0420    4.7550 C   0  0  0  0  0  0  0  0  0  0  0  0
   20.3580   40.9100    4.2520 C   0  0  0  0  0  0  0  0  0  0  0  0
   17.7390   40.5640    4.1530 C   0  0  0  0  0  0  0  0  0  0  0  0
   17.6200   39.1380    3.5860 C   0  0  0  0  0  0  0  0  0  0  0  0
   18.5160   36.6130    0.0540 C   0  0  0  0  0  0  0  0  0  0  0  0
   17.8030   40.2970    2.6350 C   0  0  0  0  0  0  0  0  0  0  0  0
   25.4310   42.3770    5.6420 C   0  0  0  0  0  0  0  0  0  0  0  0
   17.3520   37.3850    0.4900 C   0  0  0  0  0  0  0  0  0  0  0  0
   16.4400   37.9660    0.8770 N   0  0  0  0  0  0  0  0  0  0  0  0
   26.7978   40.7971    3.9798 H   0  0  0  0  0  0  0  0  0  0  0  0
   22.8294   42.4189    5.9687 H   0  0  0  0  0  0  0  0  0  0  0  0
   24.3741   37.7853    1.7793 H   0  0  0  0  0  0  0  0  0  0  0  0
   22.7805   35.9167    1.9704 H   0  0  0  0  0  0  0  0  0  0  0  0
   20.6078   35.0912    1.0611 H   0  0  0  0  0  0  0  0  0  0  0  0
   19.4950   39.1998    0.2731 H   0  0  0  0  0  0  0  0  0  0  0  0
   21.6817   40.0011    1.1359 H   0  0  0  0  0  0  0  0  0  0  0  0
   18.3212   41.9487    6.5080 H   0  0  0  0  0  0  0  0  0  0  0  0
   20.6708   40.4349    3.3105 H   0  0  0  0  0  0  0  0  0  0  0  0
   17.1282   41.1444    4.8602 H   0  0  0  0  0  0  0  0  0  0  0  0
   18.4383   38.4185    3.7366 H   0  0  0  0  0  0  0  0  0  0  0  0
   16.8842   38.3261    3.6831 H   0  0  0  0  0  0  0  0  0  0  0  0
   18.5740   36.6697   -1.0430 H   0  0  0  0  0  0  0  0  0  0  0  0
   18.3676   35.5885    0.4259 H   0  0  0  0  0  0  0  0  0  0  0  0
   16.9715   40.6115    1.9872 H   0  0  0  0  0  0  0  0  0  0  0  0
   18.5195   40.5375    1.8357 H   0  0  0  0  0  0  0  0  0  0  0  0
   25.2702   42.0956    6.6932 H   0  0  0  0  0  0  0  0  0  0  0  0
   26.5103   42.4555    5.4444 H   0  0  0  0  0  0  0  0  0  0  0  0
   24.9505   43.3466    5.4444 H   0  0  0  0  0  0  0  0  0  0  0  0
  1  2  2  0
  1  6  1  0
  2  3  1  0
  2  9  1  0
  3  4  2  0
  4  5  1  0
  4  7  1  0
  5  6  2  0
  5 24  1  0
  7  8  1  0
  8 16  2  0
  8 19  1  0
  9 10  1  0
 10 11  2  0
 10 15  1  0
 11 12  1  0
 12 13  2  0
 13 14  1  0
 13 22  1  0
 14 15  2  0
 16 17  1  0
 17 18  1  0
 18 19  2  0
 18 20  1  0
 20 21  1  0
 20 23  1  0
 21 23  1  0
 22 25  1  0
 25 26  3  0
  6 27  1  0
  7 28  1  0
  9 29  1  0
 11 30  1  0
 12 31  1  0
 14 32  1  0
 15 33  1  0
 17 34  1  0
 19 35  1  0
 20 36  1  0
 21 37  1  0
 21 38  1  0
 22 39  1  0
 22 40  1  0
 23 41  1  0
 23 42  1  0
 24 43  1  0
 24 44  1  0
 24 45  1  0
A    1
N1
A    2
C2
A    3
N3
A    4
C4
A    5
C5
A    6
C6
A    7
NAG
A    8
CAH
A    9
NAI
A   10
CAJ
A   11
CAK
A   12
CAL
A   13
CAM
A   14
CAN
A   15
CAO
A   16
NAP
A   17
NAQ
A   18
CAR
A   19
CAS
A   20
CAT
A   21
CAU
A   22
CAV
A   23
CAW
A   24
CAX
A   25
CAY
A   26
NAZ
M  END
