3LP1_LP8_A_601
     RDKit          3D

 32 34  0  0  0  0  0  0  0  0999 V2000
   -3.6770   74.2700   34.2670 C   0  0  0  0  0  0  0  0  0  0  0  0
   -4.1660   73.3390   33.4110 N   0  0  0  0  0  0  0  0  0  0  0  0
   -5.5480   73.2280   33.3130 O   0  0  0  0  0  0  0  0  0  0  0  0
   -1.4930   73.5220   33.5850 C   0  0  0  0  0  0  0  0  0  0  0  0
   -2.2800   74.3790   34.3660 C   0  0  0  0  0  0  0  0  0  0  0  0
   -4.4980   75.0450   34.9750 O   0  0  0  0  0  0  0  0  0  0  0  0
   -3.4520   72.4910   32.6350 C   0  0  0  0  0  0  0  0  0  0  0  0
   -2.0610   72.5830   32.7230 C   0  0  0  0  0  0  0  0  0  0  0  0
   -1.3150   71.7140   31.9250 C   0  0  0  0  0  0  0  0  0  0  0  0
   -1.9420   70.7980   31.0830 C   0  0  0  0  0  0  0  0  0  0  0  0
   -3.3340   70.7840   31.0690 C   0  0  0  0  0  0  0  0  0  0  0  0
   -4.0920   71.6110   31.8270 N   0  0  0  0  0  0  0  0  0  0  0  0
   -0.1610   73.5110   33.5810 O   0  0  0  0  0  0  0  0  0  0  0  0
   -1.7320   75.4160   35.3310 C   0  0  0  0  0  0  0  0  0  0  0  0
   -1.2590   74.8600   36.6780 C   0  0  0  0  0  0  0  0  0  0  0  0
    0.1470   75.4150   36.9060 C   0  0  0  0  0  0  0  0  0  0  0  0
    0.1910   76.6900   36.0620 C   0  0  0  0  0  0  0  0  0  0  0  0
   -0.5960   76.3040   34.8070 C   0  0  0  0  0  0  0  0  0  0  0  0
   -6.1004   73.1836   34.1333 H   0  0  0  0  0  0  0  0  0  0  0  0
   -0.2163   71.7530   31.9614 H   0  0  0  0  0  0  0  0  0  0  0  0
   -1.3585   70.1110   30.4524 H   0  0  0  0  0  0  0  0  0  0  0  0
   -3.8431   70.0657   30.4096 H   0  0  0  0  0  0  0  0  0  0  0  0
    0.3366   73.5069   34.4369 H   0  0  0  0  0  0  0  0  0  0  0  0
   -2.6362   76.0292   35.4593 H   0  0  0  0  0  0  0  0  0  0  0  0
   -1.9328   75.1891   37.4828 H   0  0  0  0  0  0  0  0  0  0  0  0
   -1.2574   73.7600   36.6763 H   0  0  0  0  0  0  0  0  0  0  0  0
    0.3072   75.6459   37.9695 H   0  0  0  0  0  0  0  0  0  0  0  0
    0.9326   74.6979   36.6257 H   0  0  0  0  0  0  0  0  0  0  0  0
   -0.2902   77.5280   36.5875 H   0  0  0  0  0  0  0  0  0  0  0  0
    1.2146   77.0281   35.8431 H   0  0  0  0  0  0  0  0  0  0  0  0
    0.0407   75.7477   34.1034 H   0  0  0  0  0  0  0  0  0  0  0  0
   -0.9675   77.1813   34.2571 H   0  0  0  0  0  0  0  0  0  0  0  0
  1  5  1  0
  1  6  2  0
  2  1  1  0
  3  2  1  0
  4  5  2  0
  5 14  1  0
  7  2  1  0
  7  8  2  0
  8  4  1  0
  9  8  1  0
 10  9  2  0
 11 10  1  0
 11 12  2  0
 12  7  1  0
 13  4  1  0
 14 15  1  0
 15 16  1  0
 17 16  1  0
 18 14  1  0
 18 17  1  0
  3 19  1  0
  9 20  1  0
 10 21  1  0
 11 22  1  0
 13 23  1  0
 14 24  1  0
 15 25  1  0
 15 26  1  0
 16 27  1  0
 16 28  1  0
 17 29  1  0
 17 30  1  0
 18 31  1  0
 18 32  1  0
A    1
C
A    2
N
A    3
O
A    4
C1
A    5
C2
A    6
O3
A    7
C4
A    8
C5
A    9
C6
A   10
C7
A   11
C8
A   12
N9
A   13
O10
A   14
C11
A   15
C12
A   16
C13
A   17
C14
A   18
C15
M  END
