3LPF_Z77_A_604
     RDKit          3D

 54 56  0  0  0  0  0  0  0  0999 V2000
  -24.3860    4.2490   -4.1660 N   0  0  0  0  0  0  0  0  0  0  0  0
  -24.4770    6.6260   -4.1080 N   0  0  0  0  0  0  0  0  0  0  0  0
  -27.0610    6.4190   -7.9640 N   0  0  0  0  0  0  0  0  0  0  0  0
  -23.1520    0.3580   -0.2350 C   0  0  0  0  0  0  0  0  0  0  0  0
  -27.2850   11.6030  -10.3560 C   0  0  0  0  0  0  0  0  0  0  0  0
  -29.2220    9.5050  -11.1710 C   0  0  0  0  0  0  0  0  0  0  0  0
  -26.0620    4.9640   -6.4790 O   0  0  0  0  0  0  0  0  0  0  0  0
  -25.6080    9.9230   -2.7320 O   0  0  0  0  0  0  0  0  0  0  0  0
  -24.9050    5.4350   -1.8140 S   0  0  0  0  0  0  0  0  0  0  0  0
  -24.9480    0.6390   -4.0340 C   0  0  0  0  0  0  0  0  0  0  0  0
  -24.8060    1.9430   -4.5130 C   0  0  0  0  0  0  0  0  0  0  0  0
  -24.7960    0.3780   -2.6750 C   0  0  0  0  0  0  0  0  0  0  0  0
  -24.3570    2.7270   -2.2810 C   0  0  0  0  0  0  0  0  0  0  0  0
  -26.2530    9.9310   -8.7460 C   0  0  0  0  0  0  0  0  0  0  0  0
  -28.0710    7.9700   -9.5160 C   0  0  0  0  0  0  0  0  0  0  0  0
  -25.2310    8.3500   -7.1700 C   0  0  0  0  0  0  0  0  0  0  0  0
  -25.6460    8.8360   -3.6600 C   0  0  0  0  0  0  0  0  0  0  0  0
  -24.5720    7.8300   -3.2410 C   0  0  0  0  0  0  0  0  0  0  0  0
  -24.0810    6.7760   -5.5310 C   0  0  0  0  0  0  0  0  0  0  0  0
  -24.3520    1.1580   -0.4650 O   0  0  0  0  0  0  0  0  0  0  0  0
  -24.5550    5.4190   -3.5030 C   0  0  0  0  0  0  0  0  0  0  0  0
  -27.2160   10.2140   -9.7180 C   0  0  0  0  0  0  0  0  0  0  0  0
  -28.1370    9.2310  -10.1010 C   0  0  0  0  0  0  0  0  0  0  0  0
  -24.5100    3.0040   -3.6480 C   0  0  0  0  0  0  0  0  0  0  0  0
  -24.5010    1.4230   -1.7950 C   0  0  0  0  0  0  0  0  0  0  0  0
  -25.1820    7.0700   -6.5800 C   0  0  0  0  0  0  0  0  0  0  0  0
  -26.0990    6.1010   -6.9840 C   0  0  0  0  0  0  0  0  0  0  0  0
  -26.1940    8.6700   -8.1480 C   0  0  0  0  0  0  0  0  0  0  0  0
  -27.1050    7.6910   -8.5510 C   0  0  0  0  0  0  0  0  0  0  0  0
  -24.1385    4.3133   -5.1637 H   0  0  0  0  0  0  0  0  0  0  0  0
  -27.7435    5.7041   -8.2538 H   0  0  0  0  0  0  0  0  0  0  0  0
  -22.9866    0.2477    0.8469 H   0  0  0  0  0  0  0  0  0  0  0  0
  -23.2810   -0.6355   -0.6893 H   0  0  0  0  0  0  0  0  0  0  0  0
  -22.2846    0.8591   -0.6893 H   0  0  0  0  0  0  0  0  0  0  0  0
  -27.3230   12.3678   -9.5663 H   0  0  0  0  0  0  0  0  0  0  0  0
  -26.3938   11.7645  -10.9802 H   0  0  0  0  0  0  0  0  0  0  0  0
  -28.1878   11.6753  -10.9802 H   0  0  0  0  0  0  0  0  0  0  0  0
  -30.1739    9.7454  -10.6748 H   0  0  0  0  0  0  0  0  0  0  0  0
  -28.9116   10.3530  -11.7992 H   0  0  0  0  0  0  0  0  0  0  0  0
  -29.3514    8.6113  -11.7992 H   0  0  0  0  0  0  0  0  0  0  0  0
  -25.6204    9.5684   -1.8078 H   0  0  0  0  0  0  0  0  0  0  0  0
  -25.1797   -0.1810   -4.7297 H   0  0  0  0  0  0  0  0  0  0  0  0
  -24.9287    2.1403   -5.5882 H   0  0  0  0  0  0  0  0  0  0  0  0
  -24.9078   -0.6481   -2.2947 H   0  0  0  0  0  0  0  0  0  0  0  0
  -24.1212    3.5443   -1.5836 H   0  0  0  0  0  0  0  0  0  0  0  0
  -25.5343   10.7089   -8.4488 H   0  0  0  0  0  0  0  0  0  0  0  0
  -28.7851    7.1893   -9.8169 H   0  0  0  0  0  0  0  0  0  0  0  0
  -24.5028    9.1142   -6.8606 H   0  0  0  0  0  0  0  0  0  0  0  0
  -26.6365    8.3581   -3.6371 H   0  0  0  0  0  0  0  0  0  0  0  0
  -25.4597    9.1954   -4.6828 H   0  0  0  0  0  0  0  0  0  0  0  0
  -24.7948    7.4977   -2.2163 H   0  0  0  0  0  0  0  0  0  0  0  0
  -23.6073    8.3515   -3.3265 H   0  0  0  0  0  0  0  0  0  0  0  0
  -23.3569    7.6025   -5.5806 H   0  0  0  0  0  0  0  0  0  0  0  0
  -23.7031    5.7815   -5.8104 H   0  0  0  0  0  0  0  0  0  0  0  0
  1 24  1  0
  1 21  1  0
 19  2  1  0
  2 21  1  0
  2 18  1  0
 29  3  1  0
  3 27  1  0
 20  4  1  0
  5 22  1  0
  6 23  1  0
 27  7  2  0
 17  8  1  0
 21  9  2  0
 11 10  2  0
 10 12  1  0
 11 24  1  0
 12 25  2  0
 24 13  2  0
 13 25  1  0
 22 14  1  0
 14 28  2  0
 23 15  1  0
 15 29  2  0
 28 16  1  0
 16 26  2  0
 17 18  1  0
 26 19  1  0
 25 20  1  0
 23 22  2  0
 27 26  1  0
 29 28  1  0
  1 30  1  0
  3 31  1  0
  4 32  1  0
  4 33  1  0
  4 34  1  0
  5 35  1  0
  5 36  1  0
  5 37  1  0
  6 38  1  0
  6 39  1  0
  6 40  1  0
  8 41  1  0
 10 42  1  0
 11 43  1  0
 12 44  1  0
 13 45  1  0
 14 46  1  0
 15 47  1  0
 16 48  1  0
 17 49  1  0
 17 50  1  0
 18 51  1  0
 18 52  1  0
 19 53  1  0
 19 54  1  0
A    1
N1
A    2
N2
A    3
N3
A    4
CAA
A    5
CAB
A    6
CAC
A    7
OAD
A    8
OAE
A    9
SAF
A   10
CAG
A   11
CAH
A   12
CAI
A   13
CAJ
A   14
CAK
A   15
CAL
A   16
CAM
A   17
CAN
A   18
CAO
A   19
CAP
A   20
OAS
A   21
CAT
A   22
CAU
A   23
CAV
A   24
CAW
A   25
CAX
A   26
CAY
A   27
CAZ
A   28
CBA
A   29
CBB
M  END
