3LPT_P03_A_4
     RDKit          3D

 37 36  0  0  0  0  0  0  0  0999 V2000
    5.9570   51.1770   -8.8600 C   0  0  0  0  0  0  0  0  0  0  0  0
    6.7670   52.2780   -8.4330 O   0  0  0  0  0  0  0  0  0  0  0  0
    6.7190   50.3770   -9.9120 C   0  0  0  0  0  0  0  0  0  0  0  0
    5.9780   49.2050  -10.2420 O   0  0  0  0  0  0  0  0  0  0  0  0
    6.8140   48.0500  -10.2860 C   0  0  0  0  0  0  0  0  0  0  0  0
    8.4290   47.5640  -12.7740 O   0  0  0  0  0  0  0  0  0  0  0  0
    6.4250   47.1720  -11.4710 C   0  0  0  0  0  0  0  0  0  0  0  0
   11.4720   51.2600  -13.3600 O   0  0  0  0  0  0  0  0  0  0  0  0
    7.0090   47.7040  -12.7770 C   0  0  0  0  0  0  0  0  0  0  0  0
   13.2240   53.5230  -13.8840 O   0  0  0  0  0  0  0  0  0  0  0  0
    9.0470   48.4260  -13.7280 C   0  0  0  0  0  0  0  0  0  0  0  0
   10.1060   49.2840  -13.0440 C   0  0  0  0  0  0  0  0  0  0  0  0
   10.7610   50.2280  -14.0460 C   0  0  0  0  0  0  0  0  0  0  0  0
   11.0070   52.5650  -13.7100 C   0  0  0  0  0  0  0  0  0  0  0  0
   12.0200   53.2610  -14.6160 C   0  0  0  0  0  0  0  0  0  0  0  0
    5.7294   50.5311   -7.9991 H   0  0  0  0  0  0  0  0  0  0  0  0
    5.0162   51.5526   -9.2888 H   0  0  0  0  0  0  0  0  0  0  0  0
    6.7887   52.3075   -7.4437 H   0  0  0  0  0  0  0  0  0  0  0  0
    6.8546   50.9919  -10.8140 H   0  0  0  0  0  0  0  0  0  0  0  0
    7.7037   50.0901   -9.5143 H   0  0  0  0  0  0  0  0  0  0  0  0
    7.8631   48.3630  -10.3929 H   0  0  0  0  0  0  0  0  0  0  0  0
    6.6897   47.4774   -9.3550 H   0  0  0  0  0  0  0  0  0  0  0  0
    6.8021   46.1529  -11.2998 H   0  0  0  0  0  0  0  0  0  0  0  0
    5.3284   47.1745  -11.5570 H   0  0  0  0  0  0  0  0  0  0  0  0
    6.7488   48.7673  -12.8851 H   0  0  0  0  0  0  0  0  0  0  0  0
    6.5930   47.1287  -13.6173 H   0  0  0  0  0  0  0  0  0  0  0  0
   13.0354   53.4820  -12.9130 H   0  0  0  0  0  0  0  0  0  0  0  0
    9.5209   47.8197  -14.5140 H   0  0  0  0  0  0  0  0  0  0  0  0
    8.2829   49.0805  -14.1726 H   0  0  0  0  0  0  0  0  0  0  0  0
    9.6324   49.8753  -12.2465 H   0  0  0  0  0  0  0  0  0  0  0  0
   10.8781   48.6243  -12.6212 H   0  0  0  0  0  0  0  0  0  0  0  0
    9.9843   50.6813  -14.6795 H   0  0  0  0  0  0  0  0  0  0  0  0
   11.4672   49.6578  -14.6675 H   0  0  0  0  0  0  0  0  0  0  0  0
   10.0462   52.4786  -14.2385 H   0  0  0  0  0  0  0  0  0  0  0  0
   10.8793   53.1583  -12.7925 H   0  0  0  0  0  0  0  0  0  0  0  0
   11.5969   54.2106  -14.9756 H   0  0  0  0  0  0  0  0  0  0  0  0
   12.2493   52.6103  -15.4728 H   0  0  0  0  0  0  0  0  0  0  0  0
  1  2  1  0
  1  3  1  0
  3  4  1  0
  4  5  1  0
  5  7  1  0
  6  9  1  0
  6 11  1  0
  7  9  1  0
  8 13  1  0
  8 14  1  0
 10 15  1  0
 11 12  1  0
 12 13  1  0
 14 15  1  0
  1 16  1  0
  1 17  1  0
  2 18  1  0
  3 19  1  0
  3 20  1  0
  5 21  1  0
  5 22  1  0
  7 23  1  0
  7 24  1  0
  9 25  1  0
  9 26  1  0
 10 27  1  0
 11 28  1  0
 11 29  1  0
 12 30  1  0
 12 31  1  0
 13 32  1  0
 13 33  1  0
 14 34  1  0
 14 35  1  0
 15 36  1  0
 15 37  1  0
A    1
C1
A    2
O1
A    3
C2
A    4
O2
A    5
C3
A    6
O3
A    7
C4
A    8
O4
A    9
C5
A   10
O5
A   11
C6
A   12
C7
A   13
C8
A   14
C9
A   15
C10
M  END
