3LQ5_SLQ_A_331
     RDKit          3D

 61 64  0  0  0  0  0  0  0  0999 V2000
   55.3360  -17.5040  -11.3650 N   0  0  0  0  0  0  0  0  0  0  0  0
   52.5640  -20.6300  -12.4950 O   0  0  0  0  0  0  0  0  0  0  0  0
   53.9860  -17.4670  -11.4850 C   0  0  0  0  0  0  0  0  0  0  0  0
   53.1850  -18.5830  -11.0300 N   0  0  0  0  0  0  0  0  0  0  0  0
   53.3860  -16.3350  -11.9370 N   0  0  0  0  0  0  0  0  0  0  0  0
   54.1220  -15.2610  -12.2740 C   0  0  0  0  0  0  0  0  0  0  0  0
   55.4730  -15.3040  -12.1610 C   0  0  0  0  0  0  0  0  0  0  0  0
   56.0670  -16.4410  -11.7000 C   0  0  0  0  0  0  0  0  0  0  0  0
   57.4890  -16.5040  -11.4960 N   0  0  0  0  0  0  0  0  0  0  0  0
   55.9610  -14.1320  -12.5600 N   0  0  0  0  0  0  0  0  0  0  0  0
   54.9160  -13.3570  -12.9260 C   0  0  0  0  0  0  0  0  0  0  0  0
   52.4200  -13.6060  -12.9800 C   0  0  0  0  0  0  0  0  0  0  0  0
   53.7810  -14.0610  -12.7440 N   0  0  0  0  0  0  0  0  0  0  0  0
   59.3820  -17.8390  -12.1210 C   0  0  0  0  0  0  0  0  0  0  0  0
   51.6790  -14.3280  -14.1040 C   0  0  0  0  0  0  0  0  0  0  0  0
   51.5930  -13.4670  -11.7050 C   0  0  0  0  0  0  0  0  0  0  0  0
   52.0570  -19.2990  -10.4650 C   0  0  0  0  0  0  0  0  0  0  0  0
   50.7890  -18.4390  -10.5570 C   0  0  0  0  0  0  0  0  0  0  0  0
   49.4790  -19.1140  -10.1560 C   0  0  0  0  0  0  0  0  0  0  0  0
   51.8790  -20.5580  -11.2750 C   0  0  0  0  0  0  0  0  0  0  0  0
   61.1020  -19.7340  -15.3930 C   0  0  0  0  0  0  0  0  0  0  0  0
   61.8240  -18.9440  -16.2670 N   0  0  0  0  0  0  0  0  0  0  0  0
   60.1650  -17.1100  -13.0120 C   0  0  0  0  0  0  0  0  0  0  0  0
   60.9340  -21.1080  -15.6340 C   0  0  0  0  0  0  0  0  0  0  0  0
   60.7360  -17.7670  -14.0950 C   0  0  0  0  0  0  0  0  0  0  0  0
   61.5130  -21.6670  -16.7460 C   0  0  0  0  0  0  0  0  0  0  0  0
   60.5150  -19.1370  -14.2840 C   0  0  0  0  0  0  0  0  0  0  0  0
   62.2370  -20.8740  -17.6090 C   0  0  0  0  0  0  0  0  0  0  0  0
   59.7060  -19.8630  -13.3830 C   0  0  0  0  0  0  0  0  0  0  0  0
   62.3990  -19.4980  -17.3760 C   0  0  0  0  0  0  0  0  0  0  0  0
   59.1250  -19.2070  -12.2890 C   0  0  0  0  0  0  0  0  0  0  0  0
   58.7250  -17.0630  -11.0090 C   0  0  0  0  0  0  0  0  0  0  0  0
   53.5337  -20.7319  -12.3235 H   0  0  0  0  0  0  0  0  0  0  0  0
   53.8181  -19.3673  -11.2421 H   0  0  0  0  0  0  0  0  0  0  0  0
   57.8133  -15.6546  -11.9800 H   0  0  0  0  0  0  0  0  0  0  0  0
   54.9807  -12.3273  -13.3074 H   0  0  0  0  0  0  0  0  0  0  0  0
   52.5541  -12.5845  -13.3654 H   0  0  0  0  0  0  0  0  0  0  0  0
   50.9546  -15.0338  -13.6714 H   0  0  0  0  0  0  0  0  0  0  0  0
   51.1476  -13.5918  -14.7250 H   0  0  0  0  0  0  0  0  0  0  0  0
   52.4012  -14.8783  -14.7250 H   0  0  0  0  0  0  0  0  0  0  0  0
   52.2488  -13.5772  -10.8288 H   0  0  0  0  0  0  0  0  0  0  0  0
   51.1159  -12.4761  -11.6836 H   0  0  0  0  0  0  0  0  0  0  0  0
   50.8182  -14.2475  -11.6836 H   0  0  0  0  0  0  0  0  0  0  0  0
   52.2359  -19.5340   -9.4054 H   0  0  0  0  0  0  0  0  0  0  0  0
   50.9291  -17.5656   -9.9032 H   0  0  0  0  0  0  0  0  0  0  0  0
   50.6776  -18.1966  -11.6242 H   0  0  0  0  0  0  0  0  0  0  0  0
   49.4066  -19.1513   -9.0590 H   0  0  0  0  0  0  0  0  0  0  0  0
   48.6321  -18.5400  -10.5601 H   0  0  0  0  0  0  0  0  0  0  0  0
   49.4548  -20.1368  -10.5601 H   0  0  0  0  0  0  0  0  0  0  0  0
   50.8056  -20.6656  -11.4899 H   0  0  0  0  0  0  0  0  0  0  0  0
   52.3100  -21.3594  -10.6569 H   0  0  0  0  0  0  0  0  0  0  0  0
   60.3287  -16.0328  -12.8612 H   0  0  0  0  0  0  0  0  0  0  0  0
   60.3462  -21.7276  -14.9407 H   0  0  0  0  0  0  0  0  0  0  0  0
   61.3634  -17.2095  -14.8060 H   0  0  0  0  0  0  0  0  0  0  0  0
   61.3995  -22.7425  -16.9470 H   0  0  0  0  0  0  0  0  0  0  0  0
   62.6978  -21.3275  -18.4989 H   0  0  0  0  0  0  0  0  0  0  0  0
   59.5325  -20.9380  -13.5388 H   0  0  0  0  0  0  0  0  0  0  0  0
   62.9790  -18.8770  -18.0746 H   0  0  0  0  0  0  0  0  0  0  0  0
   58.4838  -19.7516  -11.5803 H   0  0  0  0  0  0  0  0  0  0  0  0
   59.3923  -16.2528  -10.6800 H   0  0  0  0  0  0  0  0  0  0  0  0
   58.5223  -17.7304  -10.1584 H   0  0  0  0  0  0  0  0  0  0  0  0
  1  3  2  0
  1  8  1  0
  2 20  1  0
  3  4  1  0
  3  5  1  0
  4 17  1  0
  5  6  2  0
  6  7  1  0
  6 13  1  0
  7  8  2  0
  7 10  1  0
  8  9  1  0
  9 32  1  0
 10 11  2  0
 11 13  1  0
 12 13  1  0
 12 15  1  0
 12 16  1  0
 14 23  2  0
 14 31  1  0
 14 32  1  0
 17 18  1  0
 17 20  1  0
 18 19  1  0
 21 22  2  0
 21 24  1  0
 21 27  1  0
 22 30  1  0
 23 25  1  0
 24 26  2  0
 25 27  2  0
 26 28  1  0
 27 29  1  0
 28 30  2  0
 29 31  2  0
  2 33  1  0
  4 34  1  0
  9 35  1  0
 11 36  1  0
 12 37  1  0
 15 38  1  0
 15 39  1  0
 15 40  1  0
 16 41  1  0
 16 42  1  0
 16 43  1  0
 17 44  1  0
 18 45  1  0
 18 46  1  0
 19 47  1  0
 19 48  1  0
 19 49  1  0
 20 50  1  0
 20 51  1  0
 23 52  1  0
 24 53  1  0
 25 54  1  0
 26 55  1  0
 28 56  1  0
 29 57  1  0
 30 58  1  0
 31 59  1  0
 32 60  1  0
 32 61  1  0
A    1
N1
A    2
O1
A    3
C2
A    4
N2
A    5
N3
A    6
C4
A    7
C5
A    8
C6
A    9
N6
A   10
N7
A   11
C8
A   12
C9
A   13
N9
A   14
C1'
A   15
C10
A   16
C11
A   17
C12
A   18
C13
A   19
C14
A   20
C15
A   21
C1B
A   22
N1B
A   23
C2'
A   24
C2B
A   25
C3'
A   26
C3B
A   27
C4'
A   28
C4B
A   29
C5'
A   30
C5B
A   31
C6'
A   32
CA'
M  END
