3LQ8_88Z_A_1
     RDKit          3D

 80 85  0  0  0  0  0  0  0  0999 V2000
   -4.1270    3.1380   30.7040 C   0  0  0  0  0  0  0  0  0  0  0  0
   -5.0100    4.3010   30.5130 C   0  0  0  0  0  0  0  0  0  0  0  0
   -4.5070    5.6010   30.3670 C   0  0  0  0  0  0  0  0  0  0  0  0
   -3.1310    5.7950   30.3810 C   0  0  0  0  0  0  0  0  0  0  0  0
   -2.2500    4.6130   30.5820 C   0  0  0  0  0  0  0  0  0  0  0  0
   -2.7380    3.3300   30.7410 C   0  0  0  0  0  0  0  0  0  0  0  0
   -2.5880    7.0190   30.2290 N   0  0  0  0  0  0  0  0  0  0  0  0
   -1.2580    7.2500   30.2170 C   0  0  0  0  0  0  0  0  0  0  0  0
   -0.3540    6.1810   30.4530 C   0  0  0  0  0  0  0  0  0  0  0  0
   -0.8220    4.8600   30.6120 C   0  0  0  0  0  0  0  0  0  0  0  0
   -4.7660    1.9090   30.8150 O   0  0  0  0  0  0  0  0  0  0  0  0
   -4.0970    0.6650   31.0330 C   0  0  0  0  0  0  0  0  0  0  0  0
   -6.3280    3.9790   30.5020 O   0  0  0  0  0  0  0  0  0  0  0  0
   -0.0100    3.7510   30.7610 O   0  0  0  0  0  0  0  0  0  0  0  0
    1.2820    3.8340   30.3260 C   0  0  0  0  0  0  0  0  0  0  0  0
    1.6580    3.7710   28.9990 C   0  0  0  0  0  0  0  0  0  0  0  0
    2.9920    3.8710   28.6730 C   0  0  0  0  0  0  0  0  0  0  0  0
    3.9860    4.0490   29.6490 C   0  0  0  0  0  0  0  0  0  0  0  0
    3.6530    4.0910   30.9980 C   0  0  0  0  0  0  0  0  0  0  0  0
    2.3080    4.0020   31.3610 C   0  0  0  0  0  0  0  0  0  0  0  0
    1.8570    4.0670   32.6250 F   0  0  0  0  0  0  0  0  0  0  0  0
    5.2660    4.1510   29.2260 N   0  0  0  0  0  0  0  0  0  0  0  0
   -7.3870    4.9350   30.6280 C   0  0  0  0  0  0  0  0  0  0  0  0
   -8.6720    4.1240   30.7980 C   0  0  0  0  0  0  0  0  0  0  0  0
   -9.1570    3.8610   29.3920 C   0  0  0  0  0  0  0  0  0  0  0  0
  -10.3380    3.0260   29.3180 N   0  0  0  0  0  0  0  0  0  0  0  0
  -10.6240    2.5090   27.9740 C   0  0  0  0  0  0  0  0  0  0  0  0
  -12.1230    2.2180   27.8660 C   0  0  0  0  0  0  0  0  0  0  0  0
  -12.4340    1.3970   28.9820 O   0  0  0  0  0  0  0  0  0  0  0  0
  -12.3360    2.2120   30.1590 C   0  0  0  0  0  0  0  0  0  0  0  0
  -10.8380    2.3140   30.4910 C   0  0  0  0  0  0  0  0  0  0  0  0
    6.4110    3.8540   29.8760 C   0  0  0  0  0  0  0  0  0  0  0  0
    7.7140    3.9280   29.1010 C   0  0  0  0  0  0  0  0  0  0  0  0
    7.6440    4.1760   27.5770 C   0  0  0  0  0  0  0  0  0  0  0  0
    8.7740    4.3730   26.8710 N   0  0  0  0  0  0  0  0  0  0  0  0
    6.4690    3.5060   31.0310 O   0  0  0  0  0  0  0  0  0  0  0  0
    6.5800    4.5870   27.0980 O   0  0  0  0  0  0  0  0  0  0  0  0
    8.7450    4.5550   25.5100 C   0  0  0  0  0  0  0  0  0  0  0  0
    8.1720    5.7060   24.9340 C   0  0  0  0  0  0  0  0  0  0  0  0
    8.1180    5.9050   23.5480 C   0  0  0  0  0  0  0  0  0  0  0  0
    8.7120    4.9090   22.7350 C   0  0  0  0  0  0  0  0  0  0  0  0
    9.2930    3.7690   23.2980 C   0  0  0  0  0  0  0  0  0  0  0  0
    9.3470    3.5810   24.6850 C   0  0  0  0  0  0  0  0  0  0  0  0
    8.7230    5.0430   21.3910 F   0  0  0  0  0  0  0  0  0  0  0  0
    8.6780    2.8460   29.6270 C   0  0  0  0  0  0  0  0  0  0  0  0
    8.9860    4.3190   29.8840 C   0  0  0  0  0  0  0  0  0  0  0  0
   -5.1904    6.4540   30.2433 H   0  0  0  0  0  0  0  0  0  0  0  0
   -2.0549    2.4812   30.8927 H   0  0  0  0  0  0  0  0  0  0  0  0
   -0.8758    8.2634   30.0249 H   0  0  0  0  0  0  0  0  0  0  0  0
    0.7252    6.3856   30.5126 H   0  0  0  0  0  0  0  0  0  0  0  0
   -4.0003    0.4852   32.1139 H   0  0  0  0  0  0  0  0  0  0  0  0
   -4.6789   -0.1492   30.5765 H   0  0  0  0  0  0  0  0  0  0  0  0
   -3.0969    0.7016   30.5765 H   0  0  0  0  0  0  0  0  0  0  0  0
    0.9008    3.6424   28.2115 H   0  0  0  0  0  0  0  0  0  0  0  0
    3.2883    3.8096   27.6154 H   0  0  0  0  0  0  0  0  0  0  0  0
    4.4348    4.1925   31.7651 H   0  0  0  0  0  0  0  0  0  0  0  0
    5.3848    4.5077   28.2671 H   0  0  0  0  0  0  0  0  0  0  0  0
   -7.2207    5.5755   31.5067 H   0  0  0  0  0  0  0  0  0  0  0  0
   -7.4407    5.5936   29.7486 H   0  0  0  0  0  0  0  0  0  0  0  0
   -8.4658    3.1775   31.3192 H   0  0  0  0  0  0  0  0  0  0  0  0
   -9.4213    4.6585   31.4004 H   0  0  0  0  0  0  0  0  0  0  0  0
   -9.3877    4.8275   28.9202 H   0  0  0  0  0  0  0  0  0  0  0  0
   -8.3521    3.3166   28.8766 H   0  0  0  0  0  0  0  0  0  0  0  0
  -10.3376    3.2581   27.2211 H   0  0  0  0  0  0  0  0  0  0  0  0
  -10.0507    1.5868   27.7985 H   0  0  0  0  0  0  0  0  0  0  0  0
  -12.6996    3.1539   27.9053 H   0  0  0  0  0  0  0  0  0  0  0  0
  -12.3744    1.7250   26.9154 H   0  0  0  0  0  0  0  0  0  0  0  0
  -12.7520    3.2118   29.9655 H   0  0  0  0  0  0  0  0  0  0  0  0
  -12.9016    1.7755   30.9953 H   0  0  0  0  0  0  0  0  0  0  0  0
  -10.3772    1.3197   30.5864 H   0  0  0  0  0  0  0  0  0  0  0  0
  -10.6194    2.8096   31.4484 H   0  0  0  0  0  0  0  0  0  0  0  0
    9.6792    4.3875   27.3623 H   0  0  0  0  0  0  0  0  0  0  0  0
    7.7516    6.4768   25.5967 H   0  0  0  0  0  0  0  0  0  0  0  0
    7.6369    6.7929   23.1120 H   0  0  0  0  0  0  0  0  0  0  0  0
    9.7182    3.0007   22.6355 H   0  0  0  0  0  0  0  0  0  0  0  0
    9.8438    2.7004   25.1183 H   0  0  0  0  0  0  0  0  0  0  0  0
    8.3716    2.1959   30.4598 H   0  0  0  0  0  0  0  0  0  0  0  0
    9.2252    2.0075   29.1716 H   0  0  0  0  0  0  0  0  0  0  0  0
    9.8245    4.8039   29.3627 H   0  0  0  0  0  0  0  0  0  0  0  0
    9.1911    4.9244   30.7792 H   0  0  0  0  0  0  0  0  0  0  0  0
  2  1  2  0
  1  6  1  0
  1 11  1  0
  3  2  1  0
 13  2  1  0
  3  4  2  0
  7  4  1  0
  4  5  1  0
  5 10  1  0
  5  6  2  0
  8  7  2  0
  8  9  1  0
  9 10  2  0
 10 14  1  0
 11 12  1  0
 13 23  1  0
 15 14  1  0
 16 15  2  0
 15 20  1  0
 17 16  1  0
 17 18  2  0
 22 18  1  0
 18 19  1  0
 19 20  2  0
 20 21  1  0
 22 32  1  0
 23 24  1  0
 25 24  1  0
 26 25  1  0
 27 26  1  0
 26 31  1  0
 28 27  1  0
 28 29  1  0
 29 30  1  0
 30 31  1  0
 33 32  1  0
 32 36  2  0
 34 33  1  0
 33 45  1  0
 33 46  1  0
 35 34  1  0
 37 34  2  0
 38 35  1  0
 43 38  1  0
 39 38  2  0
 40 39  1  0
 41 40  2  0
 44 41  1  0
 41 42  1  0
 42 43  2  0
 45 46  1  0
  3 47  1  0
  6 48  1  0
  8 49  1  0
  9 50  1  0
 12 51  1  0
 12 52  1  0
 12 53  1  0
 16 54  1  0
 17 55  1  0
 19 56  1  0
 22 57  1  0
 23 58  1  0
 23 59  1  0
 24 60  1  0
 24 61  1  0
 25 62  1  0
 25 63  1  0
 27 64  1  0
 27 65  1  0
 28 66  1  0
 28 67  1  0
 30 68  1  0
 30 69  1  0
 31 70  1  0
 31 71  1  0
 35 72  1  0
 39 73  1  0
 40 74  1  0
 42 75  1  0
 43 76  1  0
 45 77  1  0
 45 78  1  0
 46 79  1  0
 46 80  1  0
A    1
C1
A    2
C2
A    3
C3
A    4
C4
A    5
C5
A    6
C6
A    7
N7
A    8
C8
A    9
C9
A   10
C10
A   11
O11
A   12
C12
A   13
O13
A   14
O14
A   15
C15
A   16
C16
A   17
C17
A   18
C18
A   19
C19
A   20
C20
A   21
F21
A   22
N22
A   23
C23
A   24
C24
A   25
C25
A   26
N26
A   27
C27
A   28
C28
A   29
O29
A   30
C30
A   31
C31
A   32
C32
A   33
C33
A   34
C34
A   35
N35
A   36
O36
A   37
O37
A   38
C38
A   39
C39
A   40
C40
A   41
C41
A   42
C42
A   43
C43
A   44
F44
A   45
C45
A   46
C46
M  END
