3LQU_5SP_A_500
     RDKit          3D

 25 24  0  0  0  0  0  0  0  0999 V2000
   -9.7220  -21.7720   20.4800 O   0  0  0  0  0  0  0  0  0  0  0  0
   -8.8330  -22.6740   21.0650 C   0  0  0  0  0  0  0  0  0  0  0  0
   -8.0050  -23.5370   20.1500 C   0  0  0  0  0  0  0  0  0  0  0  0
   -8.2220  -23.5230   18.9560 O   0  0  0  0  0  0  0  0  0  0  0  0
   -6.9940  -24.5210   20.7090 C   0  0  0  0  0  0  0  0  0  0  0  0
   -7.4760  -25.2910   21.9370 C   0  0  0  0  0  0  0  0  0  0  0  0
   -7.5340  -26.7810   21.6710 C   0  0  0  0  0  0  0  0  0  0  0  0
   -7.3040  -27.1840   20.3430 O   0  0  0  0  0  0  0  0  0  0  0  0
   -6.3300  -28.3990   20.0840 P   0  0  0  0  0  0  0  0  0  0  0  0
   -6.3460  -29.2160   21.3610 O   0  0  0  0  0  0  0  0  0  0  0  0
   -4.8740  -27.8940   19.8380 O   0  0  0  0  0  0  0  0  0  0  0  0
   -6.8340  -29.2310   18.8370 O   0  0  0  0  0  0  0  0  0  0  0  0
   -5.6870  -24.0380   20.7540 O   0  0  0  0  0  0  0  0  0  0  0  0
   -6.8880  -24.9570   23.1420 O   0  0  0  0  0  0  0  0  0  0  0  0
  -10.2070  -21.2799   21.1890 H   0  0  0  0  0  0  0  0  0  0  0  0
   -8.1365  -22.0920   21.6864 H   0  0  0  0  0  0  0  0  0  0  0  0
   -9.4750  -23.3828   21.6085 H   0  0  0  0  0  0  0  0  0  0  0  0
   -6.9223  -25.3155   19.9516 H   0  0  0  0  0  0  0  0  0  0  0  0
   -8.5072  -24.9419   22.0947 H   0  0  0  0  0  0  0  0  0  0  0  0
   -6.7761  -27.2648   22.3046 H   0  0  0  0  0  0  0  0  0  0  0  0
   -8.5687  -27.0800   21.8945 H   0  0  0  0  0  0  0  0  0  0  0  0
   -4.4271  -27.7390   20.7077 H   0  0  0  0  0  0  0  0  0  0  0  0
   -7.3205  -30.0341   19.1509 H   0  0  0  0  0  0  0  0  0  0  0  0
   -5.4059  -23.9341   21.6975 H   0  0  0  0  0  0  0  0  0  0  0  0
   -7.4553  -25.2793   23.8866 H   0  0  0  0  0  0  0  0  0  0  0  0
  1  2  1  0
  2  3  1  0
  3  4  2  0
  3  5  1  0
  5  6  1  0
  5 13  1  0
  6  7  1  0
  6 14  1  0
  7  8  1  0
  8  9  1  0
  9 10  2  0
  9 11  1  0
  9 12  1  0
  1 15  1  0
  2 16  1  0
  2 17  1  0
  5 18  1  0
  6 19  1  0
  7 20  1  0
  7 21  1  0
 11 22  1  0
 12 23  1  0
 13 24  1  0
 14 25  1  0
A    1
O1
A    2
C2
A    3
C3
A    4
O4
A    5
C5
A    6
C6
A    7
C7
A    8
O8
A    9
P9
A   10
O10
A   11
O11
A   12
O12
A   13
O13
A   14
O14
M  END
