3LS8_AJZ_A_1000
     RDKit          3D

 37 40  0  0  0  0  0  0  0  0999 V2000
  -25.9920   40.6650  -36.3950 N   0  0  0  0  0  0  0  0  0  0  0  0
  -25.7320   41.8080  -35.7340 C   0  0  0  0  0  0  0  0  0  0  0  0
  -25.7350   42.9880  -36.3890 N   0  0  0  0  0  0  0  0  0  0  0  0
  -25.9800   43.0650  -37.7100 C   0  0  0  0  0  0  0  0  0  0  0  0
  -26.2310   41.8720  -38.4010 C   0  0  0  0  0  0  0  0  0  0  0  0
  -26.2350   40.6760  -37.7110 C   0  0  0  0  0  0  0  0  0  0  0  0
  -26.0910   39.3480  -31.6710 O   0  0  0  0  0  0  0  0  0  0  0  0
  -24.7550   42.7250  -32.2610 C   0  0  0  0  0  0  0  0  0  0  0  0
  -26.2780   43.9500  -39.8130 C   0  0  0  0  0  0  0  0  0  0  0  0
  -25.1300   41.5610  -31.5830 C   0  0  0  0  0  0  0  0  0  0  0  0
  -24.9540   42.8150  -33.6530 C   0  0  0  0  0  0  0  0  0  0  0  0
  -26.0160   44.1570  -38.5080 C   0  0  0  0  0  0  0  0  0  0  0  0
  -25.8850   40.6040  -33.6700 C   0  0  0  0  0  0  0  0  0  0  0  0
  -27.6620   38.1080  -40.0240 C   0  0  0  0  0  0  0  0  0  0  0  0
  -27.1240   37.1290  -38.0200 C   0  0  0  0  0  0  0  0  0  0  0  0
  -26.9410   39.4030  -39.7430 C   0  0  0  0  0  0  0  0  0  0  0  0
  -26.2110   38.2410  -37.5600 C   0  0  0  0  0  0  0  0  0  0  0  0
  -26.9420   37.0550  -39.4420 O   0  0  0  0  0  0  0  0  0  0  0  0
  -26.5020   42.2840  -40.0050 S   0  0  0  0  0  0  0  0  0  0  0  0
  -25.6990   40.4990  -32.2990 C   0  0  0  0  0  0  0  0  0  0  0  0
  -25.5050   41.7460  -34.3580 C   0  0  0  0  0  0  0  0  0  0  0  0
  -26.4690   39.4630  -38.3380 N   0  0  0  0  0  0  0  0  0  0  0  0
  -26.1059   39.3041  -30.6821 H   0  0  0  0  0  0  0  0  0  0  0  0
  -24.3072   43.5657  -31.7108 H   0  0  0  0  0  0  0  0  0  0  0  0
  -26.3352   44.7155  -40.6009 H   0  0  0  0  0  0  0  0  0  0  0  0
  -24.9796   41.4795  -30.4964 H   0  0  0  0  0  0  0  0  0  0  0  0
  -24.6728   43.7347  -34.1869 H   0  0  0  0  0  0  0  0  0  0  0  0
  -25.8395   45.1670  -38.1096 H   0  0  0  0  0  0  0  0  0  0  0  0
  -26.3413   39.7677  -34.2198 H   0  0  0  0  0  0  0  0  0  0  0  0
  -28.6734   38.1469  -39.5933 H   0  0  0  0  0  0  0  0  0  0  0  0
  -27.7407   37.9519  -41.1100 H   0  0  0  0  0  0  0  0  0  0  0  0
  -26.8422   36.1776  -37.5452 H   0  0  0  0  0  0  0  0  0  0  0  0
  -28.1729   37.3206  -37.7497 H   0  0  0  0  0  0  0  0  0  0  0  0
  -26.0746   39.4841  -40.4159 H   0  0  0  0  0  0  0  0  0  0  0  0
  -27.6421   40.2341  -39.9096 H   0  0  0  0  0  0  0  0  0  0  0  0
  -26.3928   38.4433  -36.4942 H   0  0  0  0  0  0  0  0  0  0  0  0
  -25.1657   37.9332  -37.7101 H   0  0  0  0  0  0  0  0  0  0  0  0
  1  2  2  0
  1  6  1  0
  2  3  1  0
  2 21  1  0
  3  4  2  0
  4  5  1  0
  4 12  1  0
  5  6  2  0
  5 19  1  0
  6 22  1  0
  7 20  1  0
  8 10  2  0
  8 11  1  0
  9 12  2  0
  9 19  1  0
 10 20  1  0
 11 21  2  0
 13 20  2  0
 13 21  1  0
 14 16  1  0
 14 18  1  0
 15 17  1  0
 15 18  1  0
 16 22  1  0
 17 22  1  0
  7 23  1  0
  8 24  1  0
  9 25  1  0
 10 26  1  0
 11 27  1  0
 12 28  1  0
 13 29  1  0
 14 30  1  0
 14 31  1  0
 15 32  1  0
 15 33  1  0
 16 34  1  0
 16 35  1  0
 17 36  1  0
 17 37  1  0
A    1
N1
A    2
C2
A    3
N3
A    4
C4
A    5
C5
A    6
C6
A    7
OAA
A    8
CAB
A    9
CAC
A   10
CAD
A   11
CAE
A   12
CAF
A   13
CAG
A   14
CAH
A   15
CAI
A   16
CAJ
A   17
CAK
A   18
OAN
A   19
SAO
A   20
CAP
A   21
CAQ
A   22
NAV
M  END
