2AL5_4MP_A_801
     RDKit          3D

 29 30  0  0  0  0  0  0  0  0999 V2000
   21.7420   78.1590   29.7690 O   0  0  0  0  0  0  0  0  0  0  0  0
   17.9840   80.0620   29.0590 O   0  0  0  0  0  0  0  0  0  0  0  0
   20.6390   76.7420   24.2610 O   0  0  0  0  0  0  0  0  0  0  0  0
   19.7830   79.3420   30.2670 N   0  0  0  0  0  0  0  0  0  0  0  0
   21.0340   78.7310   30.5450 C   0  0  0  0  0  0  0  0  0  0  0  0
   21.3090   78.9340   31.9970 C   0  0  0  0  0  0  0  0  0  0  0  0
   20.2000   79.6590   32.5630 C   0  0  0  0  0  0  0  0  0  0  0  0
   19.2630   80.0250   31.4820 C   0  0  0  0  0  0  0  0  0  0  0  0
   19.0360   79.4380   29.0520 C   0  0  0  0  0  0  0  0  0  0  0  0
   19.4730   78.7470   27.7870 C   0  0  0  0  0  0  0  0  0  0  0  0
   19.4950   77.3230   27.6850 C   0  0  0  0  0  0  0  0  0  0  0  0
   19.8960   76.6950   26.4790 C   0  0  0  0  0  0  0  0  0  0  0  0
   20.2800   77.4770   25.3580 C   0  0  0  0  0  0  0  0  0  0  0  0
   20.2590   78.9080   25.4580 C   0  0  0  0  0  0  0  0  0  0  0  0
   19.8570   79.5380   26.6700 C   0  0  0  0  0  0  0  0  0  0  0  0
   21.0520   77.4170   23.0420 C   0  0  0  0  0  0  0  0  0  0  0  0
   21.4123   77.9597   32.4971 H   0  0  0  0  0  0  0  0  0  0  0  0
   22.2437   79.4975   32.1338 H   0  0  0  0  0  0  0  0  0  0  0  0
   19.6837   79.0266   33.3002 H   0  0  0  0  0  0  0  0  0  0  0  0
   20.5662   80.5687   33.0613 H   0  0  0  0  0  0  0  0  0  0  0  0
   19.2497   81.1152   31.3358 H   0  0  0  0  0  0  0  0  0  0  0  0
   18.2307   79.7233   31.7131 H   0  0  0  0  0  0  0  0  0  0  0  0
   19.1987   76.7090   28.5482 H   0  0  0  0  0  0  0  0  0  0  0  0
   19.9097   75.5972   26.4115 H   0  0  0  0  0  0  0  0  0  0  0  0
   20.5549   79.5215   24.5942 H   0  0  0  0  0  0  0  0  0  0  0  0
   19.8436   80.6356   26.7419 H   0  0  0  0  0  0  0  0  0  0  0  0
   21.6102   78.3293   23.2991 H   0  0  0  0  0  0  0  0  0  0  0  0
   21.6953   76.7475   22.4521 H   0  0  0  0  0  0  0  0  0  0  0  0
   20.1631   77.6850   22.4521 H   0  0  0  0  0  0  0  0  0  0  0  0
  1  5  2  0
  2  9  2  0
  3 13  1  0
  3 16  1  0
  4  5  1  0
  4  8  1  0
  4  9  1  0
  5  6  1  0
  6  7  1  0
  7  8  1  0
  9 10  1  0
 10 11  2  0
 10 15  1  0
 11 12  1  0
 12 13  2  0
 13 14  1  0
 14 15  2  0
  6 17  1  0
  6 18  1  0
  7 19  1  0
  7 20  1  0
  8 21  1  0
  8 22  1  0
 11 23  1  0
 12 24  1  0
 14 25  1  0
 15 26  1  0
 16 27  1  0
 16 28  1  0
 16 29  1  0
A    1
O1
A    2
O2
A    3
O3
A    4
N1
A    5
C1
A    6
C2
A    7
C3
A    8
C4
A    9
C5
A   10
C6
A   11
C7
A   12
C8
A   13
C9
A   14
C10
A   15
C11
A   16
C12
M  END
