3LT5_BLQ_A_215
     RDKit          3D

 41 42  0  0  0  0  0  0  0  0999 V2000
  -37.8260  -14.1880   -3.3390 C   0  0  0  0  0  0  0  0  0  0  0  0
  -37.3250  -14.9880   -2.1040 C   0  0  0  0  0  0  0  0  0  0  0  0
  -36.3660  -16.0010   -2.2520 C   0  0  0  0  0  0  0  0  0  0  0  0
  -35.7290  -16.2380   -3.5910 C   0  0  0  0  0  0  0  0  0  0  0  0
  -36.1310  -15.3680   -4.7790 C   0  0  0  0  0  0  0  0  0  0  0  0
  -37.0950  -14.3410   -4.6240 C   0  0  0  0  0  0  0  0  0  0  0  0
  -41.8810  -12.2580   -1.6560 C   0  0  0  0  0  0  0  0  0  0  0  0
  -35.5070  -15.6050   -6.1060 C   0  0  0  0  0  0  0  0  0  0  0  0
  -44.4010  -13.7230    0.8660 C   0  0  0  0  0  0  0  0  0  0  0  0
  -45.1930  -14.6170    3.1350 C   0  0  0  0  0  0  0  0  0  0  0  0
  -44.9340  -14.6980    5.7540 C   0  0  0  0  0  0  0  0  0  0  0  0
  -44.3500  -14.3380    4.3860 C   0  0  0  0  0  0  0  0  0  0  0  0
  -40.7030  -13.1500   -1.4580 C   0  0  0  0  0  0  0  0  0  0  0  0
  -40.7700  -14.2000   -0.5030 C   0  0  0  0  0  0  0  0  0  0  0  0
  -41.9300  -14.4130    0.2520 C   0  0  0  0  0  0  0  0  0  0  0  0
  -43.1330  -13.5030    0.0490 C   0  0  0  0  0  0  0  0  0  0  0  0
  -43.0750  -12.4760   -0.8780 C   0  0  0  0  0  0  0  0  0  0  0  0
  -39.4620  -12.9520   -2.2240 N   0  0  0  0  0  0  0  0  0  0  0  0
  -39.1750  -13.6690   -3.3650 N   0  0  0  0  0  0  0  0  0  0  0  0
  -44.4760  -14.8100    1.8500 N   0  0  0  0  0  0  0  0  0  0  0  0
  -34.7560  -17.2330   -3.7350 O   0  0  0  0  0  0  0  0  0  0  0  0
  -35.8550  -14.8060   -7.1880 O   0  0  0  0  0  0  0  0  0  0  0  0
  -34.5650  -16.5930   -6.2320 O   0  0  0  0  0  0  0  0  0  0  0  0
  -44.2640  -14.3260    6.9200 O   0  0  0  0  0  0  0  0  0  0  0  0
  -45.4990  -12.8730    0.6630 O   0  0  0  0  0  0  0  0  0  0  0  0
  -46.1330  -15.3980    5.8360 O   0  0  0  0  0  0  0  0  0  0  0  0
  -37.7258  -14.7579   -1.1058 H   0  0  0  0  0  0  0  0  0  0  0  0
  -36.0812  -16.6205   -1.3888 H   0  0  0  0  0  0  0  0  0  0  0  0
  -37.3031  -13.6544   -5.4579 H   0  0  0  0  0  0  0  0  0  0  0  0
  -41.8395  -11.4398   -2.3901 H   0  0  0  0  0  0  0  0  0  0  0  0
  -45.7744  -15.5307    3.3275 H   0  0  0  0  0  0  0  0  0  0  0  0
  -45.7854  -13.7018    2.9886 H   0  0  0  0  0  0  0  0  0  0  0  0
  -43.4101  -14.8988    4.2762 H   0  0  0  0  0  0  0  0  0  0  0  0
  -44.2594  -13.2420    4.4113 H   0  0  0  0  0  0  0  0  0  0  0  0
  -39.8985  -14.8546   -0.3547 H   0  0  0  0  0  0  0  0  0  0  0  0
  -41.9714  -15.2314    0.9858 H   0  0  0  0  0  0  0  0  0  0  0  0
  -43.9470  -11.8212   -1.0220 H   0  0  0  0  0  0  0  0  0  0  0  0
  -38.7827  -12.2513   -1.8948 H   0  0  0  0  0  0  0  0  0  0  0  0
  -44.0271  -15.7145    1.6467 H   0  0  0  0  0  0  0  0  0  0  0  0
  -36.2456  -13.9092   -7.0357 H   0  0  0  0  0  0  0  0  0  0  0  0
  -46.5161  -15.6217    6.7211 H   0  0  0  0  0  0  0  0  0  0  0  0
  2  1  1  0
  6  1  1  0
  1 19  2  0
  3  2  2  0
  4  3  1  0
 21  4  2  0
  4  5  1  0
  8  5  1  0
  5  6  2  0
 13  7  2  0
  7 17  1  0
 23  8  2  0
  8 22  1  0
 20  9  1  0
 16  9  1  0
  9 25  2  0
 12 10  1  0
 10 20  1  0
 12 11  1  0
 24 11  2  0
 11 26  1  0
 14 13  1  0
 18 13  1  0
 14 15  2  0
 15 16  1  0
 16 17  2  0
 18 19  1  0
  2 27  1  0
  3 28  1  0
  6 29  1  0
  7 30  1  0
 10 31  1  0
 10 32  1  0
 12 33  1  0
 12 34  1  0
 14 35  1  0
 15 36  1  0
 17 37  1  0
 18 38  1  0
 20 39  1  0
 22 40  1  0
 26 41  1  0
A    1
CAA
A    2
CAB
A    3
CAC
A    4
CAD
A    5
CAE
A    6
CAF
A    7
CAG
A    8
CAH
A    9
CAI
A   10
CAJ
A   11
CAK
A   12
CAL
A   13
CAM
A   14
CAN
A   15
CAO
A   16
CAP
A   17
CAQ
A   18
NAR
A   19
NAS
A   20
NAT
A   21
OAU
A   22
OAV
A   23
OAW
A   24
OAX
A   25
OAY
A   26
OAZ
M  END
