3LU7_IPX_A_586
     RDKit          3D

 49 52  0  0  0  0  0  0  0  0999 V2000
   11.6810   -4.5690    0.7580 C   0  0  0  0  0  0  0  0  0  0  0  0
   10.0620   -1.2870   -4.0030 C   0  0  0  0  0  0  0  0  0  0  0  0
    9.5600   -0.7100   -2.8640 C   0  0  0  0  0  0  0  0  0  0  0  0
    9.6850   -0.8750   -5.2590 C   0  0  0  0  0  0  0  0  0  0  0  0
    8.6440    0.3220   -2.9340 C   0  0  0  0  0  0  0  0  0  0  0  0
    8.7670    0.1670   -5.3480 C   0  0  0  0  0  0  0  0  0  0  0  0
    8.2520    0.7650   -4.1960 C   0  0  0  0  0  0  0  0  0  0  0  0
   10.1020   -1.3140   -1.7940 N   0  0  0  0  0  0  0  0  0  0  0  0
   10.9520   -2.2680   -2.2220 C   0  0  0  0  0  0  0  0  0  0  0  0
   10.9170   -2.2630   -3.5920 C   0  0  0  0  0  0  0  0  0  0  0  0
    8.3780    0.5920   -6.5400 F   0  0  0  0  0  0  0  0  0  0  0  0
   11.7040   -3.1870   -1.3820 C   0  0  0  0  0  0  0  0  0  0  0  0
   12.7840   -3.5800   -1.7290 O   0  0  0  0  0  0  0  0  0  0  0  0
   11.1130   -3.6170   -0.2070 N   0  0  0  0  0  0  0  0  0  0  0  0
   13.1660   -4.3520    1.1470 C   0  0  0  0  0  0  0  0  0  0  0  0
   13.6770   -5.7510    1.2390 C   0  0  0  0  0  0  0  0  0  0  0  0
   12.8090   -6.6580    0.6910 C   0  0  0  0  0  0  0  0  0  0  0  0
   11.5780   -5.9910    0.1420 C   0  0  0  0  0  0  0  0  0  0  0  0
   14.8770   -6.1730    1.7840 C   0  0  0  0  0  0  0  0  0  0  0  0
   15.1880   -7.5320    1.7820 C   0  0  0  0  0  0  0  0  0  0  0  0
   14.3090   -8.4540    1.2250 C   0  0  0  0  0  0  0  0  0  0  0  0
   13.1120   -8.0160    0.6710 C   0  0  0  0  0  0  0  0  0  0  0  0
   10.2210   -6.6050    0.5420 C   0  0  0  0  0  0  0  0  0  0  0  0
    9.2860   -6.8510   -0.6380 C   0  0  0  0  0  0  0  0  0  0  0  0
    8.3050   -7.9700   -0.3190 C   0  0  0  0  0  0  0  0  0  0  0  0
    8.8690   -9.3030   -0.7230 C   0  0  0  0  0  0  0  0  0  0  0  0
    8.9760   -9.5540   -1.9000 O   0  0  0  0  0  0  0  0  0  0  0  0
    9.2520  -10.2140    0.2180 O   0  0  0  0  0  0  0  0  0  0  0  0
   11.1002   -4.4219    1.6805 H   0  0  0  0  0  0  0  0  0  0  0  0
   10.0944   -1.3520   -6.1617 H   0  0  0  0  0  0  0  0  0  0  0  0
    8.2363    0.7803   -2.0209 H   0  0  0  0  0  0  0  0  0  0  0  0
    7.5318    1.5916   -4.2852 H   0  0  0  0  0  0  0  0  0  0  0  0
    9.9013   -1.0860   -0.8098 H   0  0  0  0  0  0  0  0  0  0  0  0
   11.4857   -2.9362   -4.2504 H   0  0  0  0  0  0  0  0  0  0  0  0
   10.1834   -3.2319    0.0130 H   0  0  0  0  0  0  0  0  0  0  0  0
   13.7015   -3.7821    0.3734 H   0  0  0  0  0  0  0  0  0  0  0  0
   13.2993   -3.7721    2.0722 H   0  0  0  0  0  0  0  0  0  0  0  0
   11.5727   -6.0704   -0.9551 H   0  0  0  0  0  0  0  0  0  0  0  0
   15.5786   -5.4433    2.2146 H   0  0  0  0  0  0  0  0  0  0  0  0
   16.1345   -7.8769    2.2238 H   0  0  0  0  0  0  0  0  0  0  0  0
   14.5597   -9.5250    1.2228 H   0  0  0  0  0  0  0  0  0  0  0  0
   12.4115   -8.7352    0.2215 H   0  0  0  0  0  0  0  0  0  0  0  0
   10.4091   -7.5666    1.0420 H   0  0  0  0  0  0  0  0  0  0  0  0
    9.7221   -5.8790    1.2008 H   0  0  0  0  0  0  0  0  0  0  0  0
    8.7256   -5.9293   -0.8536 H   0  0  0  0  0  0  0  0  0  0  0  0
    9.8867   -7.1439   -1.5117 H   0  0  0  0  0  0  0  0  0  0  0  0
    8.1036   -7.9761    0.7624 H   0  0  0  0  0  0  0  0  0  0  0  0
    7.3750   -7.7952   -0.8799 H   0  0  0  0  0  0  0  0  0  0  0  0
    9.1618   -9.9994    1.1803 H   0  0  0  0  0  0  0  0  0  0  0  0
  1 14  1  0
  1 15  1  0
  1 18  1  0
  2  3  1  0
  2  4  2  0
  2 10  1  0
  3  5  2  0
  3  8  1  0
  4  6  1  0
  5  7  1  0
  6  7  2  0
  6 11  1  0
  8  9  1  0
  9 10  2  0
  9 12  1  0
 12 13  2  0
 12 14  1  0
 15 16  1  0
 16 17  2  0
 16 19  1  0
 17 18  1  0
 17 22  1  0
 18 23  1  0
 19 20  2  0
 20 21  1  0
 21 22  2  0
 23 24  1  0
 24 25  1  0
 25 26  1  0
 26 27  2  0
 26 28  1  0
  1 29  1  0
  4 30  1  0
  5 31  1  0
  7 32  1  0
  8 33  1  0
 10 34  1  0
 14 35  1  0
 15 36  1  0
 15 37  1  0
 18 38  1  0
 19 39  1  0
 20 40  1  0
 21 41  1  0
 22 42  1  0
 23 43  1  0
 23 44  1  0
 24 45  1  0
 24 46  1  0
 25 47  1  0
 25 48  1  0
 28 49  1  0
A    1
C1
A    2
C2
A    3
C3
A    4
C4
A    5
C5
A    6
C6
A    7
C7
A    8
N8
A    9
C9
A   10
C10
A   11
F11
A   12
C12
A   13
O13
A   14
N14
A   15
C15
A   16
C16
A   17
C17
A   18
C18
A   19
C19
A   20
C20
A   21
C21
A   22
C22
A   23
C23
A   24
C24
A   25
C25
A   26
C26
A   27
O27
A   28
O28
M  END
