3LU8_IQX_A_586
     RDKit          3D

 44 46  0  0  0  0  0  0  0  0999 V2000
  -12.7040  -13.2070   10.8430 N   0  0  0  0  0  0  0  0  0  0  0  0
  -11.9700  -12.1440   11.3190 C   0  0  0  0  0  0  0  0  0  0  0  0
  -13.6260  -13.0260    9.8390 C   0  0  0  0  0  0  0  0  0  0  0  0
  -12.1590  -10.8810   10.7970 C   0  0  0  0  0  0  0  0  0  0  0  0
  -13.8270  -11.7750    9.2870 C   0  0  0  0  0  0  0  0  0  0  0  0
  -13.0930  -10.7000    9.7720 C   0  0  0  0  0  0  0  0  0  0  0  0
  -14.8510  -11.6650    8.2120 C   0  0  0  0  0  0  0  0  0  0  0  0
  -14.9510  -12.4320    7.0630 C   0  0  0  0  0  0  0  0  0  0  0  0
  -16.0120  -12.0910    6.2980 N   0  0  0  0  0  0  0  0  0  0  0  0
  -16.7340  -11.0880    6.8280 C   0  0  0  0  0  0  0  0  0  0  0  0
  -16.0750  -10.6260    8.2030 S   0  0  0  0  0  0  0  0  0  0  0  0
  -13.9950  -13.5320    6.6690 C   0  0  0  0  0  0  0  0  0  0  0  0
  -17.8900  -10.5590    6.2060 N   0  0  0  0  0  0  0  0  0  0  0  0
  -19.2020  -10.8760    6.5140 C   0  0  0  0  0  0  0  0  0  0  0  0
  -20.3660  -10.2630    5.7720 C   0  0  0  0  0  0  0  0  0  0  0  0
  -19.4260  -11.6670    7.4040 O   0  0  0  0  0  0  0  0  0  0  0  0
  -11.3470   -9.8560   11.3440 N   0  0  0  0  0  0  0  0  0  0  0  0
  -11.2570   -8.3050   10.8490 S   0  0  0  0  0  0  0  0  0  0  0  0
  -10.9440   -7.4560   11.9560 O   0  0  0  0  0  0  0  0  0  0  0  0
  -12.5280   -7.9050   10.3030 O   0  0  0  0  0  0  0  0  0  0  0  0
   -9.9900   -8.2250    9.6300 C   0  0  0  0  0  0  0  0  0  0  0  0
   -9.9050   -7.4130    8.5000 C   0  0  0  0  0  0  0  0  0  0  0  0
   -8.6770   -9.1410    9.6460 S   0  0  0  0  0  0  0  0  0  0  0  0
   -8.0030   -8.5630    8.3080 C   0  0  0  0  0  0  0  0  0  0  0  0
   -8.7870   -7.6160    7.7710 N   0  0  0  0  0  0  0  0  0  0  0  0
  -10.9010   -6.3860    8.0510 C   0  0  0  0  0  0  0  0  0  0  0  0
   -6.6860   -9.0010    7.7170 C   0  0  0  0  0  0  0  0  0  0  0  0
  -11.0860  -12.3400   12.2900 F   0  0  0  0  0  0  0  0  0  0  0  0
  -14.2084  -13.8840    9.4721 H   0  0  0  0  0  0  0  0  0  0  0  0
  -13.2478   -9.6977    9.3461 H   0  0  0  0  0  0  0  0  0  0  0  0
  -13.5853  -14.0034    7.5745 H   0  0  0  0  0  0  0  0  0  0  0  0
  -14.5295  -14.2862    6.0727 H   0  0  0  0  0  0  0  0  0  0  0  0
  -13.1737  -13.1079    6.0727 H   0  0  0  0  0  0  0  0  0  0  0  0
  -17.7410   -9.8728    5.4524 H   0  0  0  0  0  0  0  0  0  0  0  0
  -21.0994   -9.8768    6.4952 H   0  0  0  0  0  0  0  0  0  0  0  0
  -20.0047   -9.4382    5.1402 H   0  0  0  0  0  0  0  0  0  0  0  0
  -20.8417  -11.0276    5.1402 H   0  0  0  0  0  0  0  0  0  0  0  0
  -10.7491  -10.1194   12.1403 H   0  0  0  0  0  0  0  0  0  0  0  0
  -11.3608   -5.9119    8.9307 H   0  0  0  0  0  0  0  0  0  0  0  0
  -10.3917   -5.6210    7.4465 H   0  0  0  0  0  0  0  0  0  0  0  0
  -11.6812   -6.8716    7.4465 H   0  0  0  0  0  0  0  0  0  0  0  0
   -5.9803   -9.2357    8.5275 H   0  0  0  0  0  0  0  0  0  0  0  0
   -6.8421   -9.8956    7.0963 H   0  0  0  0  0  0  0  0  0  0  0  0
   -6.2752   -8.1911    7.0963 H   0  0  0  0  0  0  0  0  0  0  0  0
  1  2  2  0
  1  3  1  0
  2  4  1  0
  2 28  1  0
  3  5  2  0
  4  6  2  0
  4 17  1  0
  5  6  1  0
  5  7  1  0
  7  8  2  0
  7 11  1  0
  8  9  1  0
  8 12  1  0
  9 10  2  0
 10 11  1  0
 10 13  1  0
 13 14  1  0
 14 15  1  0
 14 16  2  0
 17 18  1  0
 18 19  2  0
 18 20  2  0
 18 21  1  0
 21 22  2  0
 21 23  1  0
 22 25  1  0
 22 26  1  0
 23 24  1  0
 24 25  2  0
 24 27  1  0
  3 29  1  0
  6 30  1  0
 12 31  1  0
 12 32  1  0
 12 33  1  0
 13 34  1  0
 15 35  1  0
 15 36  1  0
 15 37  1  0
 17 38  1  0
 26 39  1  0
 26 40  1  0
 26 41  1  0
 27 42  1  0
 27 43  1  0
 27 44  1  0
A    1
N1
A    2
C2
A    3
C3
A    4
C4
A    5
C5
A    6
C6
A    7
C7
A    8
C8
A    9
N9
A   10
C10
A   11
S11
A   12
C12
A   13
N13
A   14
C14
A   15
C15
A   16
O16
A   17
N17
A   18
S18
A   19
O19
A   20
O20
A   21
C21
A   22
C22
A   23
S23
A   24
C24
A   25
N25
A   26
C26
A   27
C27
A   28
F28
M  END
