1QSY_DDS_A_113
     RDKit          3D

 45 47  0  0  0  0  0  0  0  0999 V2000
   -7.6850   25.9280  -11.5780 N   0  0  0  0  0  0  0  0  0  0  0  0
   -8.7710   26.0550  -10.8820 C   0  0  0  0  0  0  0  0  0  0  0  0
   -8.8900   26.0790   -9.5990 N   0  0  0  0  0  0  0  0  0  0  0  0
   -7.6880   25.9480   -9.0050 C   0  0  0  0  0  0  0  0  0  0  0  0
   -6.4900   25.8060   -9.6020 C   0  0  0  0  0  0  0  0  0  0  0  0
   -6.5050   25.7990  -10.9310 C   0  0  0  0  0  0  0  0  0  0  0  0
   -5.4200   25.6750  -11.6060 N   0  0  0  0  0  0  0  0  0  0  0  0
   -5.4590   25.6920   -8.6810 N   0  0  0  0  0  0  0  0  0  0  0  0
   -6.0630   25.7710   -7.5550 C   0  0  0  0  0  0  0  0  0  0  0  0
   -7.4130   25.9950   -7.6760 N   0  0  0  0  0  0  0  0  0  0  0  0
   -4.1010   25.3400   -3.8920 P   0  0  0  0  0  0  0  0  0  0  0  0
   -5.5330   23.0170   -2.9590 P   0  0  0  0  0  0  0  0  0  0  0  0
   -3.0490   22.1830   -1.3830 P   0  0  0  0  0  0  0  0  0  0  0  0
   -8.3870   26.3670   -6.6250 C   0  0  0  0  0  0  0  0  0  0  0  0
   -2.9550   25.3820   -4.8370 O   0  0  0  0  0  0  0  0  0  0  0  0
   -6.3900   22.2240   -3.8020 O   0  0  0  0  0  0  0  0  0  0  0  0
   -2.8850   23.4260   -0.7230 O   0  0  0  0  0  0  0  0  0  0  0  0
   -8.8760   25.1120   -5.9260 C   0  0  0  0  0  0  0  0  0  0  0  0
   -3.8480   25.4190   -2.4600 O   0  0  0  0  0  0  0  0  0  0  0  0
   -6.2500   23.6740   -1.8910 O   0  0  0  0  0  0  0  0  0  0  0  0
   -3.0130   21.0260   -0.4880 O   0  0  0  0  0  0  0  0  0  0  0  0
   -7.9120   25.0240   -4.7520 C   0  0  0  0  0  0  0  0  0  0  0  0
   -4.8290   23.9870   -4.0310 O   0  0  0  0  0  0  0  0  0  0  0  0
   -4.4000   22.0690   -2.2870 O   0  0  0  0  0  0  0  0  0  0  0  0
   -1.9280   22.1410   -2.3950 O   0  0  0  0  0  0  0  0  0  0  0  0
   -7.7380   26.4820   -4.3620 C   0  0  0  0  0  0  0  0  0  0  0  0
   -7.7680   27.1910   -5.6300 O   0  0  0  0  0  0  0  0  0  0  0  0
   -6.4480   26.8050   -3.6330 C   0  0  0  0  0  0  0  0  0  0  0  0
   -5.2010   26.3560   -4.3150 O   0  0  0  0  0  0  0  0  0  0  0  0
   -9.7041   26.1543  -11.4559 H   0  0  0  0  0  0  0  0  0  0  0  0
   -4.5188   25.5720  -11.1180 H   0  0  0  0  0  0  0  0  0  0  0  0
   -5.4507   25.6785  -12.6355 H   0  0  0  0  0  0  0  0  0  0  0  0
   -5.5516   25.6696   -6.5864 H   0  0  0  0  0  0  0  0  0  0  0  0
   -9.2148   26.9094   -7.1051 H   0  0  0  0  0  0  0  0  0  0  0  0
   -9.9160   25.2213   -5.5847 H   0  0  0  0  0  0  0  0  0  0  0  0
   -8.8866   24.2173   -6.5658 H   0  0  0  0  0  0  0  0  0  0  0  0
   -4.6667   25.1633   -1.9656 H   0  0  0  0  0  0  0  0  0  0  0  0
   -5.9050   23.3579   -1.0186 H   0  0  0  0  0  0  0  0  0  0  0  0
   -3.0226   21.3357    0.4523 H   0  0  0  0  0  0  0  0  0  0  0  0
   -8.3435   24.4399   -3.9258 H   0  0  0  0  0  0  0  0  0  0  0  0
   -6.9661   24.5190   -4.9972 H   0  0  0  0  0  0  0  0  0  0  0  0
   -1.0584   22.1084   -1.9230 H   0  0  0  0  0  0  0  0  0  0  0  0
   -8.5252   26.7667   -3.6483 H   0  0  0  0  0  0  0  0  0  0  0  0
   -6.3926   27.8964   -3.5077 H   0  0  0  0  0  0  0  0  0  0  0  0
   -6.4899   26.2536   -2.6821 H   0  0  0  0  0  0  0  0  0  0  0  0
  1  2  2  0
  1  6  1  0
  2  3  1  0
  3  4  2  0
  4  5  1  0
  4 10  1  0
  5  6  2  0
  5  8  1  0
  6  7  1  0
  8  9  2  0
  9 10  1  0
 10 14  1  0
 11 15  2  0
 11 19  1  0
 11 23  1  0
 11 29  1  0
 12 16  2  0
 12 20  1  0
 12 23  1  0
 12 24  1  0
 13 17  2  0
 13 21  1  0
 13 24  1  0
 13 25  1  0
 14 18  1  0
 14 27  1  0
 18 22  1  0
 22 26  1  0
 26 27  1  0
 26 28  1  0
 28 29  1  0
  2 30  1  0
  7 31  1  0
  7 32  1  0
  9 33  1  0
 14 34  1  0
 18 35  1  0
 18 36  1  0
 19 37  1  0
 20 38  1  0
 21 39  1  0
 22 40  1  0
 22 41  1  0
 25 42  1  0
 26 43  1  0
 28 44  1  0
 28 45  1  0
A    1
N1
A    2
C2
A    3
N3
A    4
C4
A    5
C5
A    6
C6
A    7
N6
A    8
N7
A    9
C8
A   10
N9
A   11
PA
A   12
PB
A   13
PG
A   14
C1'
A   15
O1A
A   16
O1B
A   17
O1G
A   18
C2'
A   19
O2A
A   20
O2B
A   21
O2G
A   22
C3'
A   23
O3A
A   24
O3B
A   25
O3G
A   26
C4'
A   27
O4'
A   28
C5'
A   29
O5'
M  END
