3LXG_Z73_A_1
     RDKit          3D

 38 40  0  0  0  0  0  0  0  0999 V2000
   14.4540   15.2040  -11.0020 C   0  0  0  0  0  0  0  0  0  0  0  0
   14.3880   15.6980   -9.6930 C   0  0  0  0  0  0  0  0  0  0  0  0
   13.6970   15.8320  -12.0020 N   0  0  0  0  0  0  0  0  0  0  0  0
   13.6040   16.7480   -9.4040 N   0  0  0  0  0  0  0  0  0  0  0  0
   12.8950   16.9260  -11.6630 C   0  0  0  0  0  0  0  0  0  0  0  0
   12.8650   17.3780  -10.3370 C   0  0  0  0  0  0  0  0  0  0  0  0
   11.3270   19.1390  -10.9570 C   0  0  0  0  0  0  0  0  0  0  0  0
   12.0860   18.4710  -10.0020 N   0  0  0  0  0  0  0  0  0  0  0  0
   11.3520   18.6900  -12.2750 C   0  0  0  0  0  0  0  0  0  0  0  0
   12.1360   17.5940  -12.6190 C   0  0  0  0  0  0  0  0  0  0  0  0
   13.7320   17.0210   -8.0890 C   0  0  0  0  0  0  0  0  0  0  0  0
   14.5840   16.1380   -7.5120 N   0  0  0  0  0  0  0  0  0  0  0  0
   15.0050   15.3150   -8.4930 C   0  0  0  0  0  0  0  0  0  0  0  0
   15.3100   14.0200  -11.3770 C   0  0  0  0  0  0  0  0  0  0  0  0
   15.9790   14.1920   -8.2360 C   0  0  0  0  0  0  0  0  0  0  0  0
   13.0310   18.0920   -7.3100 C   0  0  0  0  0  0  0  0  0  0  0  0
   11.6980   17.4430   -6.8970 C   0  0  0  0  0  0  0  0  0  0  0  0
   10.7420   18.3330   -6.0940 C   0  0  0  0  0  0  0  0  0  0  0  0
   10.5670   20.2170  -10.5740 O   0  0  0  0  0  0  0  0  0  0  0  0
   10.3430   20.4910   -9.1860 C   0  0  0  0  0  0  0  0  0  0  0  0
   10.7527   19.2013  -13.0427 H   0  0  0  0  0  0  0  0  0  0  0  0
   12.1564   17.2497  -13.6635 H   0  0  0  0  0  0  0  0  0  0  0  0
   15.6691   13.5232  -10.4636 H   0  0  0  0  0  0  0  0  0  0  0  0
   14.7147   13.3104  -11.9704 H   0  0  0  0  0  0  0  0  0  0  0  0
   16.1704   14.3629  -11.9704 H   0  0  0  0  0  0  0  0  0  0  0  0
   16.1000   14.0525   -7.1516 H   0  0  0  0  0  0  0  0  0  0  0  0
   15.5951   13.2638   -8.6845 H   0  0  0  0  0  0  0  0  0  0  0  0
   16.9521   14.4408   -8.6845 H   0  0  0  0  0  0  0  0  0  0  0  0
   13.6172   18.3780   -6.4242 H   0  0  0  0  0  0  0  0  0  0  0  0
   12.8893   19.0142   -7.8926 H   0  0  0  0  0  0  0  0  0  0  0  0
   11.1771   17.1295   -7.8138 H   0  0  0  0  0  0  0  0  0  0  0  0
   11.9655   16.6122   -6.2274 H   0  0  0  0  0  0  0  0  0  0  0  0
   10.9109   18.1757   -5.0185 H   0  0  0  0  0  0  0  0  0  0  0  0
   10.9266   19.3883   -6.3437 H   0  0  0  0  0  0  0  0  0  0  0  0
    9.7026   18.0735   -6.3437 H   0  0  0  0  0  0  0  0  0  0  0  0
   10.9217   19.7831   -8.5745 H   0  0  0  0  0  0  0  0  0  0  0  0
   10.6630   21.5186   -8.9588 H   0  0  0  0  0  0  0  0  0  0  0  0
    9.2723   20.3817   -8.9588 H   0  0  0  0  0  0  0  0  0  0  0  0
  1  2  1  0
  2  4  1  0
  2 13  2  0
  3  1  2  0
  3  5  1  0
  4 11  1  0
  5  6  2  0
  6  4  1  0
  6  8  1  0
  7 19  1  0
  7  8  2  0
  9  7  1  0
 10  5  1  0
 10  9  2  0
 11 12  2  0
 11 16  1  0
 13 12  1  0
 13 15  1  0
 14  1  1  0
 16 17  1  0
 17 18  1  0
 19 20  1  0
  9 21  1  0
 10 22  1  0
 14 23  1  0
 14 24  1  0
 14 25  1  0
 15 26  1  0
 15 27  1  0
 15 28  1  0
 16 29  1  0
 16 30  1  0
 17 31  1  0
 17 32  1  0
 18 33  1  0
 18 34  1  0
 18 35  1  0
 20 36  1  0
 20 37  1  0
 20 38  1  0
A    1
C1
A    2
C2
A    3
N3
A    4
N4
A    5
C5
A    6
C6
A    7
C7
A    8
N8
A    9
C9
A   10
C10
A   11
C11
A   12
N12
A   13
C13
A   14
C14
A   15
C15
A   16
C16
A   17
C17
A   18
C18
A   19
O19
A   20
C20
M  END
