3EYG_MI1_A_1
     RDKit          3D

 43 45  0  0  0  0  0  0  0  0999 V2000
   11.4000   14.0760  -15.3490 C   0  0  0  0  0  0  0  0  0  0  0  0
   11.1110   14.1980  -16.8320 C   0  0  0  0  0  0  0  0  0  0  0  0
   10.0430   11.9040  -16.9620 C   0  0  0  0  0  0  0  0  0  0  0  0
   10.5440   11.6320  -15.5380 C   0  0  0  0  0  0  0  0  0  0  0  0
   11.7130   12.5520  -15.1220 C   0  0  0  0  0  0  0  0  0  0  0  0
    9.9090   13.3800  -17.0700 N   0  0  0  0  0  0  0  0  0  0  0  0
    8.6640   15.1600  -17.5640 O   0  0  0  0  0  0  0  0  0  0  0  0
    8.7790   13.9460  -17.4370 C   0  0  0  0  0  0  0  0  0  0  0  0
    7.5860   13.0420  -17.6590 C   0  0  0  0  0  0  0  0  0  0  0  0
    6.4020   13.8860  -17.8860 C   0  0  0  0  0  0  0  0  0  0  0  0
    5.4400   14.5060  -18.0770 N   0  0  0  0  0  0  0  0  0  0  0  0
   13.0070   11.9550  -15.7290 C   0  0  0  0  0  0  0  0  0  0  0  0
   12.6080   14.8790  -14.9290 N   0  0  0  0  0  0  0  0  0  0  0  0
   13.6000   15.3730  -15.8880 C   0  0  0  0  0  0  0  0  0  0  0  0
   12.8720   15.1980  -13.6120 C   0  0  0  0  0  0  0  0  0  0  0  0
   12.0370   14.7960  -12.5530 C   0  0  0  0  0  0  0  0  0  0  0  0
   10.7790   14.0680  -12.4890 C   0  0  0  0  0  0  0  0  0  0  0  0
   10.5020   14.0170  -11.1370 C   0  0  0  0  0  0  0  0  0  0  0  0
   11.4780   14.6740  -10.4210 N   0  0  0  0  0  0  0  0  0  0  0  0
   12.4150   15.1380  -11.2680 C   0  0  0  0  0  0  0  0  0  0  0  0
   13.5300   15.8160  -10.9460 N   0  0  0  0  0  0  0  0  0  0  0  0
   14.3090   16.1740  -12.0020 C   0  0  0  0  0  0  0  0  0  0  0  0
   14.0160   15.9020  -13.3080 N   0  0  0  0  0  0  0  0  0  0  0  0
   10.5483   14.4522  -14.7633 H   0  0  0  0  0  0  0  0  0  0  0  0
   10.9207   15.2475  -17.1011 H   0  0  0  0  0  0  0  0  0  0  0  0
   11.9614   13.8588  -17.4417 H   0  0  0  0  0  0  0  0  0  0  0  0
    9.0696   11.4182  -17.1247 H   0  0  0  0  0  0  0  0  0  0  0  0
   10.7353   11.5043  -17.7176 H   0  0  0  0  0  0  0  0  0  0  0  0
    9.7100   11.7869  -14.8377 H   0  0  0  0  0  0  0  0  0  0  0  0
   10.9155   10.5970  -15.5126 H   0  0  0  0  0  0  0  0  0  0  0  0
   11.8757   12.5678  -14.0342 H   0  0  0  0  0  0  0  0  0  0  0  0
    7.7615   12.4036  -18.5374 H   0  0  0  0  0  0  0  0  0  0  0  0
    7.4297   12.3985  -16.7807 H   0  0  0  0  0  0  0  0  0  0  0  0
   13.6823   11.6434  -14.9185 H   0  0  0  0  0  0  0  0  0  0  0  0
   12.7525   11.0833  -16.3498 H   0  0  0  0  0  0  0  0  0  0  0  0
   13.5051   12.7143  -16.3498 H   0  0  0  0  0  0  0  0  0  0  0  0
   14.4557   15.7991  -15.3437 H   0  0  0  0  0  0  0  0  0  0  0  0
   13.9448   14.5414  -16.5200 H   0  0  0  0  0  0  0  0  0  0  0  0
   13.1441   16.1493  -16.5200 H   0  0  0  0  0  0  0  0  0  0  0  0
   10.1884   13.6559  -13.3205 H   0  0  0  0  0  0  0  0  0  0  0  0
    9.6254   13.5215  -10.6943 H   0  0  0  0  0  0  0  0  0  0  0  0
   11.4890   14.7917   -9.3978 H   0  0  0  0  0  0  0  0  0  0  0  0
   15.2396   16.7206  -11.7894 H   0  0  0  0  0  0  0  0  0  0  0  0
  2  1  1  0
  1  5  1  0
  1 13  1  0
  6  2  1  0
  6  3  1  0
  3  4  1  0
  4  5  1  0
 12  5  1  0
  8  6  1  0
  7  8  2  0
  9  8  1  0
 10  9  1  0
 11 10  3  0
 14 13  1  0
 13 15  1  0
 15 23  1  0
 15 16  2  0
 16 17  1  0
 16 20  1  0
 17 18  2  0
 18 19  1  0
 20 19  1  0
 20 21  2  0
 22 21  1  0
 23 22  2  0
  1 24  1  0
  2 25  1  0
  2 26  1  0
  3 27  1  0
  3 28  1  0
  4 29  1  0
  4 30  1  0
  5 31  1  0
  9 32  1  0
  9 33  1  0
 12 34  1  0
 12 35  1  0
 12 36  1  0
 14 37  1  0
 14 38  1  0
 14 39  1  0
 17 40  1  0
 18 41  1  0
 19 42  1  0
 22 43  1  0
A    1
C1
A    2
C2
A    3
C4
A    4
C5
A    5
C6
A    6
N3
A    7
O21
A    8
C20
A    9
C22
A   10
C23
A   11
N24
A   12
C7
A   13
N8
A   14
C9
A   15
C10
A   16
C15
A   17
C16
A   18
C11
A   19
N12
A   20
C14
A   21
N17
A   22
C18
A   23
N19
M  END
