3LZB_ITI_A_1
     RDKit          3D

 72 78  0  0  0  0  0  0  0  0999 V2000
   15.7310    7.2150   -4.6190 C   0  0  0  0  0  0  0  0  0  0  0  0
   15.9960    7.8550   -3.4340 C   0  0  0  0  0  0  0  0  0  0  0  0
   19.9780    2.7350   -5.8490 C   0  0  0  0  0  0  0  0  0  0  0  0
   19.8650    0.5560   -4.8720 C   0  0  0  0  0  0  0  0  0  0  0  0
   13.3330   12.0430    2.5220 C   0  0  0  0  0  0  0  0  0  0  0  0
   16.1820    5.9370   -4.8070 C   0  0  0  0  0  0  0  0  0  0  0  0
   13.8500    7.1610   -1.4780 C   0  0  0  0  0  0  0  0  0  0  0  0
   12.4960    7.1050   -1.6000 C   0  0  0  0  0  0  0  0  0  0  0  0
   19.2590    1.7440   -5.2150 C   0  0  0  0  0  0  0  0  0  0  0  0
   16.8630    5.2930   -3.8040 C   0  0  0  0  0  0  0  0  0  0  0  0
   14.3280    8.0380   -0.5410 C   0  0  0  0  0  0  0  0  0  0  0  0
   16.8250    7.8290   -1.1300 C   0  0  0  0  0  0  0  0  0  0  0  0
   12.2620    8.6740    0.0570 C   0  0  0  0  0  0  0  0  0  0  0  0
   15.8070    9.2680    1.9420 C   0  0  0  0  0  0  0  0  0  0  0  0
   17.2850    3.2670   -5.1250 C   0  0  0  0  0  0  0  0  0  0  0  0
   21.9260    1.3230   -5.8050 C   0  0  0  0  0  0  0  0  0  0  0  0
   21.3100    2.5140   -6.1330 C   0  0  0  0  0  0  0  0  0  0  0  0
   21.1960    0.3430   -5.1700 C   0  0  0  0  0  0  0  0  0  0  0  0
   11.2390   11.7270    3.6830 C   0  0  0  0  0  0  0  0  0  0  0  0
   12.9790   11.0740    1.6200 C   0  0  0  0  0  0  0  0  0  0  0  0
   10.9010   10.7750    2.7500 C   0  0  0  0  0  0  0  0  0  0  0  0
   17.0810    5.9200   -2.6070 C   0  0  0  0  0  0  0  0  0  0  0  0
   16.6770    7.2130   -2.4260 C   0  0  0  0  0  0  0  0  0  0  0  0
   12.4700   12.3220    3.5640 C   0  0  0  0  0  0  0  0  0  0  0  0
   11.7720   10.4210    1.7440 C   0  0  0  0  0  0  0  0  0  0  0  0
   15.7470    8.1830   -0.3400 C   0  0  0  0  0  0  0  0  0  0  0  0
   17.6240    8.6570    0.6260 C   0  0  0  0  0  0  0  0  0  0  0  0
   16.8380    9.6330    2.7150 C   0  0  0  0  0  0  0  0  0  0  0  0
   14.0770   13.8760    4.5700 C   0  0  0  0  0  0  0  0  0  0  0  0
   11.8660   13.3660    5.6180 C   0  0  0  0  0  0  0  0  0  0  0  0
   13.9810   14.9860    5.5980 C   0  0  0  0  0  0  0  0  0  0  0  0
   12.8010   13.2890    6.8090 C   0  0  0  0  0  0  0  0  0  0  0  0
   17.8200    1.8960   -4.8840 C   0  0  0  0  0  0  0  0  0  0  0  0
   11.7090    7.8660   -0.8480 N   0  0  0  0  0  0  0  0  0  0  0  0
   13.5710    8.7820    0.2520 N   0  0  0  0  0  0  0  0  0  0  0  0
   18.0140    8.1210   -0.5130 N   0  0  0  0  0  0  0  0  0  0  0  0
   16.2850    8.7110    0.7860 N   0  0  0  0  0  0  0  0  0  0  0  0
   12.7750   13.2520    4.5270 N   0  0  0  0  0  0  0  0  0  0  0  0
   11.3800    9.4570    0.8130 N   0  0  0  0  0  0  0  0  0  0  0  0
   17.3050    3.9630   -3.9340 N   0  0  0  0  0  0  0  0  0  0  0  0
   16.9050    3.6460   -6.2300 O   0  0  0  0  0  0  0  0  0  0  0  0
   13.5800   14.4850    6.8900 O   0  0  0  0  0  0  0  0  0  0  0  0
   18.4130    9.2930    2.0410 S   0  0  0  0  0  0  0  0  0  0  0  0
   15.1614    7.7248   -5.4100 H   0  0  0  0  0  0  0  0  0  0  0  0
   15.6602    8.8924   -3.2889 H   0  0  0  0  0  0  0  0  0  0  0  0
   19.4978    3.6858   -6.1238 H   0  0  0  0  0  0  0  0  0  0  0  0
   19.2864   -0.2261   -4.3587 H   0  0  0  0  0  0  0  0  0  0  0  0
   14.2836   12.5868    2.4186 H   0  0  0  0  0  0  0  0  0  0  0  0
   15.9987    5.4249   -5.7631 H   0  0  0  0  0  0  0  0  0  0  0  0
   14.5186    6.5409   -2.0932 H   0  0  0  0  0  0  0  0  0  0  0  0
   12.0462    6.4189   -2.3328 H   0  0  0  0  0  0  0  0  0  0  0  0
   14.7443    9.3955    2.1956 H   0  0  0  0  0  0  0  0  0  0  0  0
   22.9863    1.1588   -6.0477 H   0  0  0  0  0  0  0  0  0  0  0  0
   21.8929    3.3029   -6.6309 H   0  0  0  0  0  0  0  0  0  0  0  0
   21.6739   -0.6103   -4.9000 H   0  0  0  0  0  0  0  0  0  0  0  0
   10.5486   12.0013    4.4943 H   0  0  0  0  0  0  0  0  0  0  0  0
   13.6599   10.8169    0.7952 H   0  0  0  0  0  0  0  0  0  0  0  0
    9.9167   10.2873    2.8084 H   0  0  0  0  0  0  0  0  0  0  0  0
   17.5824    5.3821   -1.7890 H   0  0  0  0  0  0  0  0  0  0  0  0
   16.7034   10.1095    3.6973 H   0  0  0  0  0  0  0  0  0  0  0  0
   14.8410   13.1437    4.8700 H   0  0  0  0  0  0  0  0  0  0  0  0
   14.3663   14.2675    3.5836 H   0  0  0  0  0  0  0  0  0  0  0  0
   11.3278   14.3250    5.5925 H   0  0  0  0  0  0  0  0  0  0  0  0
   11.0757   12.6009    5.6215 H   0  0  0  0  0  0  0  0  0  0  0  0
   14.9644   15.4696    5.6930 H   0  0  0  0  0  0  0  0  0  0  0  0
   13.2196   15.7031    5.2575 H   0  0  0  0  0  0  0  0  0  0  0  0
   12.2107   13.1744    7.7301 H   0  0  0  0  0  0  0  0  0  0  0  0
   13.4719   12.4255    6.6894 H   0  0  0  0  0  0  0  0  0  0  0  0
   17.2465    1.1875   -5.4997 H   0  0  0  0  0  0  0  0  0  0  0  0
   17.7181    1.6988   -3.8066 H   0  0  0  0  0  0  0  0  0  0  0  0
   10.3702    9.3112    0.6720 H   0  0  0  0  0  0  0  0  0  0  0  0
   17.6624    3.4838   -3.0952 H   0  0  0  0  0  0  0  0  0  0  0  0
  6  1  2  0
  1  2  1  0
  2 23  2  0
 17  3  2  0
  3  9  1  0
  9  4  2  0
 18  4  1  0
 20  5  2  0
  5 24  1  0
  6 10  1  0
  8  7  2  0
  7 11  1  0
  8 34  1  0
  9 33  1  0
 40 10  1  0
 10 22  2  0
 11 26  1  0
 11 35  2  0
 23 12  1  0
 12 36  1  0
 12 26  2  0
 34 13  2  0
 13 35  1  0
 13 39  1  0
 37 14  1  0
 14 28  2  0
 41 15  2  0
 15 33  1  0
 15 40  1  0
 17 16  1  0
 16 18  2  0
 21 19  1  0
 24 19  2  0
 20 25  1  0
 25 21  2  0
 22 23  1  0
 24 38  1  0
 39 25  1  0
 26 37  1  0
 36 27  2  0
 27 37  1  0
 27 43  1  0
 43 28  1  0
 38 29  1  0
 29 31  1  0
 38 30  1  0
 30 32  1  0
 31 42  1  0
 32 42  1  0
  1 44  1  0
  2 45  1  0
  3 46  1  0
  4 47  1  0
  5 48  1  0
  6 49  1  0
  7 50  1  0
  8 51  1  0
 14 52  1  0
 16 53  1  0
 17 54  1  0
 18 55  1  0
 19 56  1  0
 20 57  1  0
 21 58  1  0
 22 59  1  0
 28 60  1  0
 29 61  1  0
 29 62  1  0
 30 63  1  0
 30 64  1  0
 31 65  1  0
 31 66  1  0
 32 67  1  0
 32 68  1  0
 33 69  1  0
 33 70  1  0
 39 71  1  0
 40 72  1  0
A    1
C4
A    2
C5
A    3
C6
A    4
C7
A    5
C8
A    6
C10
A    7
C13
A    8
C15
A    9
C17
A   10
C20
A   11
C21
A   12
C22
A   13
C24
A   14
C26
A   15
C28
A   16
C1
A   17
C2
A   18
C3
A   19
C9
A   20
C11
A   21
C12
A   22
C14
A   23
C16
A   24
C18
A   25
C19
A   26
C23
A   27
C25
A   28
C27
A   29
C29
A   30
C30
A   31
C31
A   32
C32
A   33
C33
A   34
N34
A   35
N35
A   36
N36
A   37
N37
A   38
N38
A   39
N39
A   40
N40
A   41
O41
A   42
O42
A   43
S43
M  END
