3M00_2CF_A_549
     RDKit          3D

 52 51  0  0  0  0  0  0  0  0999 V2000
  110.0620   43.4770   46.9760 F   0  0  0  0  0  0  0  0  0  0  0  0
  110.3960   42.1960   46.9300 C   0  0  0  0  0  0  0  0  0  0  0  0
  111.2710   41.7410   45.9700 C   0  0  0  0  0  0  0  0  0  0  0  0
  111.7270   40.2920   45.8050 C   0  0  0  0  0  0  0  0  0  0  0  0
  111.8750   42.6850   44.9530 C   0  0  0  0  0  0  0  0  0  0  0  0
  112.9280   39.8720   46.6770 C   0  0  0  0  0  0  0  0  0  0  0  0
  112.4720   38.8660   47.7050 C   0  0  0  0  0  0  0  0  0  0  0  0
  112.5230   38.9200   49.0630 C   0  0  0  0  0  0  0  0  0  0  0  0
  111.9880   37.8020   49.9730 C   0  0  0  0  0  0  0  0  0  0  0  0
  110.7960   36.9080   49.5160 C   0  0  0  0  0  0  0  0  0  0  0  0
  109.0770   42.2000   50.4940 P   0  0  0  0  0  0  0  0  0  0  0  0
  106.4360   40.9740   50.8930 P   0  0  0  0  0  0  0  0  0  0  0  0
  109.5150   37.6480   49.1540 C   0  0  0  0  0  0  0  0  0  0  0  0
  108.3300   37.1430   48.7300 C   0  0  0  0  0  0  0  0  0  0  0  0
  107.1670   38.0600   48.4170 C   0  0  0  0  0  0  0  0  0  0  0  0
  108.0070   35.6820   48.5180 C   0  0  0  0  0  0  0  0  0  0  0  0
  113.0990   40.0810   49.8580 C   0  0  0  0  0  0  0  0  0  0  0  0
  109.7240   41.3370   48.0060 C   0  0  0  0  0  0  0  0  0  0  0  0
  108.8340   42.0310   48.8940 O   0  0  0  0  0  0  0  0  0  0  0  0
  110.2690   41.2110   50.8650 O   0  0  0  0  0  0  0  0  0  0  0  0
  109.4790   43.8100   50.9530 O   0  0  0  0  0  0  0  0  0  0  0  0
  105.3650   41.8210   51.7010 O   0  0  0  0  0  0  0  0  0  0  0  0
  106.1550   41.2840   49.3580 O   0  0  0  0  0  0  0  0  0  0  0  0
  106.3030   39.2880   51.2110 O   0  0  0  0  0  0  0  0  0  0  0  0
  107.8240   41.6360   51.3170 O   0  0  0  0  0  0  0  0  0  0  0  0
  110.8791   39.6386   46.0582 H   0  0  0  0  0  0  0  0  0  0  0  0
  112.0626   40.1973   44.7617 H   0  0  0  0  0  0  0  0  0  0  0  0
  112.3970   43.5008   45.4746 H   0  0  0  0  0  0  0  0  0  0  0  0
  112.5901   42.1361   44.3226 H   0  0  0  0  0  0  0  0  0  0  0  0
  111.0770   43.1042   44.3226 H   0  0  0  0  0  0  0  0  0  0  0  0
  113.7038   39.4210   46.0408 H   0  0  0  0  0  0  0  0  0  0  0  0
  113.3407   40.7560   47.1851 H   0  0  0  0  0  0  0  0  0  0  0  0
  112.0301   37.9471   47.2924 H   0  0  0  0  0  0  0  0  0  0  0  0
  112.8323   37.1245   50.1684 H   0  0  0  0  0  0  0  0  0  0  0  0
  111.5664   38.3579   50.8234 H   0  0  0  0  0  0  0  0  0  0  0  0
  111.1195   36.3401   48.6312 H   0  0  0  0  0  0  0  0  0  0  0  0
  110.5438   36.2793   50.3827 H   0  0  0  0  0  0  0  0  0  0  0  0
  109.5568   38.7430   49.2497 H   0  0  0  0  0  0  0  0  0  0  0  0
  106.7169   38.4149   49.3559 H   0  0  0  0  0  0  0  0  0  0  0  0
  107.5256   38.9210   47.8338 H   0  0  0  0  0  0  0  0  0  0  0  0
  106.4134   37.5105   47.8338 H   0  0  0  0  0  0  0  0  0  0  0  0
  107.8972   35.1855   49.4934 H   0  0  0  0  0  0  0  0  0  0  0  0
  107.0674   35.5924   47.9531 H   0  0  0  0  0  0  0  0  0  0  0  0
  108.8213   35.2047   47.9531 H   0  0  0  0  0  0  0  0  0  0  0  0
  112.9969   39.8752   50.9337 H   0  0  0  0  0  0  0  0  0  0  0  0
  114.1630   40.2047   49.6077 H   0  0  0  0  0  0  0  0  0  0  0  0
  112.5538   41.0030   49.6077 H   0  0  0  0  0  0  0  0  0  0  0  0
  109.1478   40.5496   47.4981 H   0  0  0  0  0  0  0  0  0  0  0  0
  110.5403   40.9571   48.6379 H   0  0  0  0  0  0  0  0  0  0  0  0
  109.4958   43.8772   51.9406 H   0  0  0  0  0  0  0  0  0  0  0  0
  105.5151   41.7023   52.6723 H   0  0  0  0  0  0  0  0  0  0  0  0
  106.2911   39.1366   52.1893 H   0  0  0  0  0  0  0  0  0  0  0  0
  2  1  1  0
  3  2  2  0
  2 18  1  0
  5  3  1  0
  4  3  1  0
  4  6  1  0
  6  7  1  0
  7  8  2  0
  8 17  1  0
  8  9  1  0
 10  9  1  0
 13 10  1  0
 19 11  1  0
 11 20  2  0
 11 21  1  0
 11 25  1  0
 23 12  2  0
 12 24  1  0
 12 25  1  0
 12 22  1  0
 14 13  2  0
 15 14  1  0
 16 14  1  0
 18 19  1  0
  4 26  1  0
  4 27  1  0
  5 28  1  0
  5 29  1  0
  5 30  1  0
  6 31  1  0
  6 32  1  0
  7 33  1  0
  9 34  1  0
  9 35  1  0
 10 36  1  0
 10 37  1  0
 13 38  1  0
 15 39  1  0
 15 40  1  0
 15 41  1  0
 16 42  1  0
 16 43  1  0
 16 44  1  0
 17 45  1  0
 17 46  1  0
 17 47  1  0
 18 48  1  0
 18 49  1  0
 21 50  1  0
 22 51  1  0
 24 52  1  0
A    1
F
A    2
C1
A    3
C2
A    4
C3
A    5
C4
A    6
C5
A    7
C6
A    8
C7
A    9
C8
A   10
C9
A   11
PA
A   12
PB
A   13
C10
A   14
C11
A   15
C12
A   16
C13
A   17
C14
A   18
C15
A   19
O1A
A   20
O2A
A   21
O3A
A   22
OB1
A   23
OB2
A   24
OB3
A   25
OB4
M  END
