3M11_AKI_A_1
     RDKit          3D

 67 72  0  0  0  0  0  0  0  0999 V2000
    3.8610   31.3560    9.0250 N   0  0  0  0  0  0  0  0  0  0  0  0
    4.6360   30.4240    9.5570 C   0  0  0  0  0  0  0  0  0  0  0  0
    5.3550   29.6010    8.8100 N   0  0  0  0  0  0  0  0  0  0  0  0
    5.3220   29.6850    7.4730 C   0  0  0  0  0  0  0  0  0  0  0  0
    4.5200   30.6500    6.8830 C   0  0  0  0  0  0  0  0  0  0  0  0
    3.7780   31.4990    7.6950 C   0  0  0  0  0  0  0  0  0  0  0  0
    6.0140   30.5940    2.3700 C   0  0  0  0  0  0  0  0  0  0  0  0
    5.4790   31.1880    3.5080 C   0  0  0  0  0  0  0  0  0  0  0  0
    4.7880   30.4160    4.4350 C   0  0  0  0  0  0  0  0  0  0  0  0
    4.6330   29.0510    4.2250 C   0  0  0  0  0  0  0  0  0  0  0  0
    5.1680   28.4570    3.0870 C   0  0  0  0  0  0  0  0  0  0  0  0
    5.8590   29.2290    2.1600 C   0  0  0  0  0  0  0  0  0  0  0  0
    4.2530   31.0090    5.5720 C   0  0  0  0  0  0  0  0  0  0  0  0
    3.3580   32.0640    5.5960 C   0  0  0  0  0  0  0  0  0  0  0  0
    3.0660   32.3650    6.8970 O   0  0  0  0  0  0  0  0  0  0  0  0
    2.8410   32.7110    4.4800 C   0  0  0  0  0  0  0  0  0  0  0  0
    3.0300   32.1710    3.2140 C   0  0  0  0  0  0  0  0  0  0  0  0
    2.5130   32.8190    2.0980 C   0  0  0  0  0  0  0  0  0  0  0  0
    1.8070   34.0060    2.2490 C   0  0  0  0  0  0  0  0  0  0  0  0
    1.6170   34.5460    3.5150 C   0  0  0  0  0  0  0  0  0  0  0  0
    2.1340   33.8990    4.6310 C   0  0  0  0  0  0  0  0  0  0  0  0
    6.8750   27.8250    7.3630 C   0  0  0  0  0  0  0  0  0  0  0  0
    8.2600   28.3990    7.6670 C   0  0  0  0  0  0  0  0  0  0  0  0
    9.1770   27.3310    8.2680 C   0  0  0  0  0  0  0  0  0  0  0  0
    8.8950   26.7970    9.5200 C   0  0  0  0  0  0  0  0  0  0  0  0
    9.7280   25.8270   10.0650 C   0  0  0  0  0  0  0  0  0  0  0  0
   10.8420   25.3910    9.3590 C   0  0  0  0  0  0  0  0  0  0  0  0
   11.1240   25.9240    8.1070 C   0  0  0  0  0  0  0  0  0  0  0  0
   10.2920   26.8940    7.5610 C   0  0  0  0  0  0  0  0  0  0  0  0
   11.6390   24.4620    9.8810 N   0  0  0  0  0  0  0  0  0  0  0  0
   11.7550   23.2760    9.2910 C   0  0  0  0  0  0  0  0  0  0  0  0
   12.5700   22.3990    9.8700 N   0  0  0  0  0  0  0  0  0  0  0  0
   12.7350   21.1920    9.3370 C   0  0  0  0  0  0  0  0  0  0  0  0
   13.9480   20.5280    9.4840 C   0  0  0  0  0  0  0  0  0  0  0  0
   14.1210   19.2660    8.9270 C   0  0  0  0  0  0  0  0  0  0  0  0
   13.0820   18.6690    8.2220 C   0  0  0  0  0  0  0  0  0  0  0  0
   11.8700   19.3330    8.0750 C   0  0  0  0  0  0  0  0  0  0  0  0
   11.6970   20.5940    8.6330 C   0  0  0  0  0  0  0  0  0  0  0  0
   11.1400   23.0040    8.2610 O   0  0  0  0  0  0  0  0  0  0  0  0
    6.0450   28.8570    6.7250 N   0  0  0  0  0  0  0  0  0  0  0  0
    4.6839   30.3307   10.6520 H   0  0  0  0  0  0  0  0  0  0  0  0
    6.5600   31.2048    1.6359 H   0  0  0  0  0  0  0  0  0  0  0  0
    5.6025   32.2683    3.6746 H   0  0  0  0  0  0  0  0  0  0  0  0
    4.0870   28.4402    4.9591 H   0  0  0  0  0  0  0  0  0  0  0  0
    5.0445   27.3767    2.9204 H   0  0  0  0  0  0  0  0  0  0  0  0
    6.2831   28.7594    1.2602 H   0  0  0  0  0  0  0  0  0  0  0  0
    3.5886   31.2309    3.0947 H   0  0  0  0  0  0  0  0  0  0  0  0
    2.6629   32.3919    1.0954 H   0  0  0  0  0  0  0  0  0  0  0  0
    1.3982   34.5186    1.3657 H   0  0  0  0  0  0  0  0  0  0  0  0
    1.0574   35.4855    3.6339 H   0  0  0  0  0  0  0  0  0  0  0  0
    1.9840   34.3264    5.6334 H   0  0  0  0  0  0  0  0  0  0  0  0
    6.9756   26.9647    6.6849 H   0  0  0  0  0  0  0  0  0  0  0  0
    6.3994   27.5002    8.3002 H   0  0  0  0  0  0  0  0  0  0  0  0
    8.7069   28.7732    6.7341 H   0  0  0  0  0  0  0  0  0  0  0  0
    8.1486   29.2154    8.3957 H   0  0  0  0  0  0  0  0  0  0  0  0
    8.0128   27.1420   10.0793 H   0  0  0  0  0  0  0  0  0  0  0  0
    9.5050   25.4044   11.0558 H   0  0  0  0  0  0  0  0  0  0  0  0
   12.0060   25.5780    7.5480 H   0  0  0  0  0  0  0  0  0  0  0  0
   10.5153   27.3160    6.5700 H   0  0  0  0  0  0  0  0  0  0  0  0
   12.1665   24.6618   10.7428 H   0  0  0  0  0  0  0  0  0  0  0  0
   13.0735   22.6547   10.7314 H   0  0  0  0  0  0  0  0  0  0  0  0
   14.7703   21.0011   10.0408 H   0  0  0  0  0  0  0  0  0  0  0  0
   15.0799   18.7398    9.0441 H   0  0  0  0  0  0  0  0  0  0  0  0
   13.2193   17.6709    7.7805 H   0  0  0  0  0  0  0  0  0  0  0  0
   11.0480   18.8607    7.5172 H   0  0  0  0  0  0  0  0  0  0  0  0
   10.7374   21.1192    8.5172 H   0  0  0  0  0  0  0  0  0  0  0  0
    6.0235   28.9387    5.6985 H   0  0  0  0  0  0  0  0  0  0  0  0
  1  2  2  0
  1  6  1  0
  2  3  1  0
  3  4  2  0
  4  5  1  0
  4 40  1  0
  5  6  2  0
  5 13  1  0
  6 15  1  0
  7  8  2  0
  7 12  1  0
  8  9  1  0
  9 10  2  0
  9 13  1  0
 10 11  1  0
 11 12  2  0
 13 14  2  0
 14 15  1  0
 14 16  1  0
 16 17  2  0
 16 21  1  0
 17 18  1  0
 18 19  2  0
 19 20  1  0
 20 21  2  0
 22 23  1  0
 22 40  1  0
 23 24  1  0
 24 25  2  0
 24 29  1  0
 25 26  1  0
 26 27  2  0
 27 28  1  0
 27 30  1  0
 28 29  2  0
 30 31  1  0
 31 32  1  0
 31 39  2  0
 32 33  1  0
 33 34  2  0
 33 38  1  0
 34 35  1  0
 35 36  2  0
 36 37  1  0
 37 38  2  0
  2 41  1  0
  7 42  1  0
  8 43  1  0
 10 44  1  0
 11 45  1  0
 12 46  1  0
 17 47  1  0
 18 48  1  0
 19 49  1  0
 20 50  1  0
 21 51  1  0
 22 52  1  0
 22 53  1  0
 23 54  1  0
 23 55  1  0
 25 56  1  0
 26 57  1  0
 28 58  1  0
 29 59  1  0
 30 60  1  0
 32 61  1  0
 34 62  1  0
 35 63  1  0
 36 64  1  0
 37 65  1  0
 38 66  1  0
 40 67  1  0
A    1
N1
A    2
C2
A    3
N3
A    4
C4
A    5
C5
A    6
C6
A    7
CAA
A    8
CAB
A    9
CAC
A   10
CAD
A   11
CAE
A   12
CAF
A   13
CAG
A   14
CAH
A   15
OAI
A   16
CAL
A   17
CAM
A   18
CAN
A   19
CAO
A   20
CAP
A   21
CAQ
A   22
CAV
A   23
CAW
A   24
CAX
A   25
CAY
A   26
CAZ
A   27
CBA
A   28
CBB
A   29
CBC
A   30
NBD
A   31
CBE
A   32
NBF
A   33
CBG
A   34
CBH
A   35
CBI
A   36
CBJ
A   37
CBK
A   38
CBL
A   39
OBM
A   40
NBN
M  END
