3M2J_F5M_A_292
     RDKit          3D

 45 49  0  0  0  0  0  0  0  0999 V2000
   17.7400   12.6680   20.0030 C   0  0  0  0  0  0  0  0  0  0  0  0
   18.3630   13.4210   20.9070 O   0  0  0  0  0  0  0  0  0  0  0  0
   18.2800   11.9410   19.1040 C   0  0  0  0  0  0  0  0  0  0  0  0
   19.0240   10.4330   17.3040 O   0  0  0  0  0  0  0  0  0  0  0  0
   18.1420   11.1230   18.1040 C   0  0  0  0  0  0  0  0  0  0  0  0
   19.7660    8.2260   13.2430 O   0  0  0  0  0  0  0  0  0  0  0  0
   18.5140    9.6030   16.3060 C   0  0  0  0  0  0  0  0  0  0  0  0
   14.7290    6.5550   16.5160 O   0  0  0  0  0  0  0  0  0  0  0  0
   19.4450    8.9220   15.5170 C   0  0  0  0  0  0  0  0  0  0  0  0
   14.5560    7.4540   18.5930 O   0  0  0  0  0  0  0  0  0  0  0  0
   19.0550    7.9790   14.4570 C   0  0  0  0  0  0  0  0  0  0  0  0
   17.5940    7.8870   14.2540 C   0  0  0  0  0  0  0  0  0  0  0  0
   16.6840    8.5780   15.0500 C   0  0  0  0  0  0  0  0  0  0  0  0
   17.1160    9.4320   16.0760 C   0  0  0  0  0  0  0  0  0  0  0  0
   16.0900   10.1340   16.9300 C   0  0  0  0  0  0  0  0  0  0  0  0
   16.6650   11.0260   17.9460 C   0  0  0  0  0  0  0  0  0  0  0  0
   16.1410   11.7740   18.8610 C   0  0  0  0  0  0  0  0  0  0  0  0
   16.2530   12.5480   19.8640 C   0  0  0  0  0  0  0  0  0  0  0  0
   14.6210    9.9910   16.6520 C   0  0  0  0  0  0  0  0  0  0  0  0
   13.9890   11.1110   16.1560 C   0  0  0  0  0  0  0  0  0  0  0  0
   12.6430   11.1080   15.8040 C   0  0  0  0  0  0  0  0  0  0  0  0
   11.8190    9.9920   15.9230 C   0  0  0  0  0  0  0  0  0  0  0  0
   12.4090    8.8050   16.4270 C   0  0  0  0  0  0  0  0  0  0  0  0
   13.7830    8.7560   16.7760 C   0  0  0  0  0  0  0  0  0  0  0  0
   14.4040    7.4980   17.3210 C   0  0  0  0  0  0  0  0  0  0  0  0
   10.4950   10.1670   15.5460 N   0  0  0  0  0  0  0  0  0  0  0  0
    9.5440    9.2720   15.4390 C   0  0  0  0  0  0  0  0  0  0  0  0
    8.1840    9.8800   15.1560 C   0  0  0  0  0  0  0  0  0  0  0  0
    8.5490   11.2810   14.6820 C   0  0  0  0  0  0  0  0  0  0  0  0
   10.0130   11.3130   15.0880 C   0  0  0  0  0  0  0  0  0  0  0  0
   10.6770   12.3380   15.0600 O   0  0  0  0  0  0  0  0  0  0  0  0
    9.7740    8.0330   15.3470 O   0  0  0  0  0  0  0  0  0  0  0  0
   18.2235   13.2524   21.8725 H   0  0  0  0  0  0  0  0  0  0  0  0
   19.3650   12.0637   19.2375 H   0  0  0  0  0  0  0  0  0  0  0  0
   20.5158    9.0986   15.6962 H   0  0  0  0  0  0  0  0  0  0  0  0
   13.7974    7.6736   19.1901 H   0  0  0  0  0  0  0  0  0  0  0  0
   17.2111    7.2489   13.4439 H   0  0  0  0  0  0  0  0  0  0  0  0
   15.6060    8.4519   14.8710 H   0  0  0  0  0  0  0  0  0  0  0  0
   15.0574   11.7082   18.6835 H   0  0  0  0  0  0  0  0  0  0  0  0
   15.4619   13.0103   20.4727 H   0  0  0  0  0  0  0  0  0  0  0  0
   14.5682   12.0382   16.0344 H   0  0  0  0  0  0  0  0  0  0  0  0
   12.2061   12.0376   15.4104 H   0  0  0  0  0  0  0  0  0  0  0  0
   11.7890    7.9047   16.5497 H   0  0  0  0  0  0  0  0  0  0  0  0
    7.1882    9.4255   15.2651 H   0  0  0  0  0  0  0  0  0  0  0  0
    7.9321   12.0468   14.1891 H   0  0  0  0  0  0  0  0  0  0  0  0
  1  2  1  0
  1  3  2  0
  1 18  1  0
  3  5  1  0
  4  5  1  0
  4  7  1  0
  5 16  2  0
  6 11  2  0
  7  9  2  0
  7 14  1  0
  8 25  2  0
  9 11  1  0
 10 25  1  0
 11 12  1  0
 12 13  2  0
 13 14  1  0
 14 15  2  0
 15 16  1  0
 15 19  1  0
 16 17  1  0
 17 18  2  0
 19 20  2  0
 19 24  1  0
 20 21  1  0
 21 22  2  0
 22 23  1  0
 22 26  1  0
 23 24  2  0
 24 25  1  0
 26 27  1  0
 26 30  1  0
 27 28  1  0
 27 32  2  0
 28 29  2  0
 29 30  1  0
 30 31  2  0
  2 33  1  0
  3 34  1  0
  9 35  1  0
 10 36  1  0
 12 37  1  0
 13 38  1  0
 17 39  1  0
 18 40  1  0
 20 41  1  0
 21 42  1  0
 23 43  1  0
 28 44  1  0
 29 45  1  0
A    1
C1
A    2
O1
A    3
C2
A    4
O2
A    5
C3
A    6
O3
A    7
C4
A    8
O4
A    9
C5
A   10
O5
A   11
C6
A   12
C7
A   13
C8
A   14
C9
A   15
C10
A   16
C11
A   17
C12
A   18
C13
A   19
C14
A   20
C15
A   21
C16
A   22
C17
A   23
C18
A   24
C19
A   25
C20
A   26
NAB
A   27
CAZ
A   28
CBA
A   29
CBB
A   30
CBC
A   31
OBJ
A   32
OBK
M  END
