3M2X_BEX_A_502
     RDKit          3D

 43 44  0  0  0  0  0  0  0  0999 V2000
   15.7840    6.4520   13.9990 C   0  0  0  0  0  0  0  0  0  0  0  0
   16.9660    7.2040   13.9590 C   0  0  0  0  0  0  0  0  0  0  0  0
   17.0170    8.4180   13.2700 C   0  0  0  0  0  0  0  0  0  0  0  0
   14.8460   10.8370   11.4170 C   0  0  0  0  0  0  0  0  0  0  0  0
   19.2720    8.7300   14.0050 C   0  0  0  0  0  0  0  0  0  0  0  0
   18.6930    3.2260   11.7270 C   0  0  0  0  0  0  0  0  0  0  0  0
   19.1270    2.1570   10.9270 C   0  0  0  0  0  0  0  0  0  0  0  0
   18.2370    1.1110   10.6550 C   0  0  0  0  0  0  0  0  0  0  0  0
   16.5180    2.1920   11.9770 C   0  0  0  0  0  0  0  0  0  0  0  0
   16.0000   10.1340   11.9270 O   0  0  0  0  0  0  0  0  0  0  0  0
   15.8800    8.9030   12.6030 C   0  0  0  0  0  0  0  0  0  0  0  0
   18.1780    9.2040   13.2070 O   0  0  0  0  0  0  0  0  0  0  0  0
   15.6690    5.2170   14.6820 N   0  0  0  0  0  0  0  0  0  0  0  0
   16.2180    4.1340   14.1200 C   0  0  0  0  0  0  0  0  0  0  0  0
   16.5460    3.0800   14.8420 N   0  0  0  0  0  0  0  0  0  0  0  0
   15.8760    2.6950   16.2870 S   0  0  0  0  0  0  0  0  0  0  0  0
   16.7210    3.2300   17.3540 O   0  0  0  0  0  0  0  0  0  0  0  0
   14.5710    3.2610   16.3980 O   0  0  0  0  0  0  0  0  0  0  0  0
   15.7180    1.0830   16.5120 N   0  0  0  0  0  0  0  0  0  0  0  0
   16.9980    4.3230   13.0440 O   0  0  0  0  0  0  0  0  0  0  0  0
   17.3910    3.2510   12.2570 C   0  0  0  0  0  0  0  0  0  0  0  0
   16.9410    1.1230   11.1860 C   0  0  0  0  0  0  0  0  0  0  0  0
   14.6520    6.9390   13.3270 C   0  0  0  0  0  0  0  0  0  0  0  0
   14.7000    8.1620   12.6350 C   0  0  0  0  0  0  0  0  0  0  0  0
   17.8637    6.8340   14.4760 H   0  0  0  0  0  0  0  0  0  0  0  0
   14.2403   11.2060   12.2578 H   0  0  0  0  0  0  0  0  0  0  0  0
   15.1767   11.6872   10.8024 H   0  0  0  0  0  0  0  0  0  0  0  0
   14.2421   10.1532   10.8024 H   0  0  0  0  0  0  0  0  0  0  0  0
   19.0223    8.8382   15.0708 H   0  0  0  0  0  0  0  0  0  0  0  0
   19.4592    7.6701   13.7780 H   0  0  0  0  0  0  0  0  0  0  0  0
   20.1733    9.3183   13.7780 H   0  0  0  0  0  0  0  0  0  0  0  0
   19.3818    4.0562   11.9423 H   0  0  0  0  0  0  0  0  0  0  0  0
   20.1491    2.1415   10.5207 H   0  0  0  0  0  0  0  0  0  0  0  0
   18.5582    0.2729   10.0191 H   0  0  0  0  0  0  0  0  0  0  0  0
   15.4954    2.2030   12.3821 H   0  0  0  0  0  0  0  0  0  0  0  0
   15.1772    5.1542   15.5848 H   0  0  0  0  0  0  0  0  0  0  0  0
   15.2481    3.7844   13.7365 H   0  0  0  0  0  0  0  0  0  0  0  0
   16.3781    2.2657   14.2340 H   0  0  0  0  0  0  0  0  0  0  0  0
   15.6979    0.8775   17.5211 H   0  0  0  0  0  0  0  0  0  0  0  0
   14.8413    0.7601   16.0783 H   0  0  0  0  0  0  0  0  0  0  0  0
   16.2553    0.2882   10.9791 H   0  0  0  0  0  0  0  0  0  0  0  0
   13.7180    6.3581   13.3419 H   0  0  0  0  0  0  0  0  0  0  0  0
   13.8039    8.5350   12.1175 H   0  0  0  0  0  0  0  0  0  0  0  0
  1  2  2  0
  1 13  1  0
  1 23  1  0
  2  3  1  0
  3 11  2  0
  3 12  1  0
  4 10  1  0
  5 12  1  0
  6  7  2  0
  6 21  1  0
  7  8  1  0
  8 22  2  0
  9 21  2  0
  9 22  1  0
 10 11  1  0
 11 24  1  0
 13 14  1  0
 14 15  1  0
 14 20  1  0
 15 16  1  0
 16 17  2  0
 16 18  2  0
 16 19  1  0
 20 21  1  0
 23 24  2  0
  2 25  1  0
  4 26  1  0
  4 27  1  0
  4 28  1  0
  5 29  1  0
  5 30  1  0
  5 31  1  0
  6 32  1  0
  7 33  1  0
  8 34  1  0
  9 35  1  0
 13 36  1  0
 14 37  1  0
 15 38  1  0
 19 39  1  0
 19 40  1  0
 22 41  1  0
 23 42  1  0
 24 43  1  0
A    1
C4
A    2
C5
A    3
C6
A    4
C8
A    5
C10
A    6
C20
A    7
C21
A    8
C22
A    9
C24
A   10
O7
A   11
C1
A   12
O9
A   13
N11
A   14
C12
A   15
N13
A   16
S14
A   17
O15
A   18
O16
A   19
N17
A   20
O18
A   21
C19
A   22
C23
A   23
C3
A   24
C2
M  END
