3M67_E36_A_262
     RDKit          3D

 42 45  0  0  0  0  0  0  0  0999 V2000
   -0.9270   10.1030   12.6310 O   0  0  0  0  0  0  0  0  0  0  0  0
   -0.0930   10.6550   13.6500 C   0  0  0  0  0  0  0  0  0  0  0  0
   -0.2270    9.8520   14.9910 C   0  0  0  0  0  0  0  0  0  0  0  0
   -1.3620    9.0050   15.0230 O   0  0  0  0  0  0  0  0  0  0  0  0
   -1.4000    8.1260   13.9740 C   0  0  0  0  0  0  0  0  0  0  0  0
   -1.1380    8.7250   12.6270 C   0  0  0  0  0  0  0  0  0  0  0  0
   -1.1110    7.9580   11.5160 C   0  0  0  0  0  0  0  0  0  0  0  0
   -1.3320    6.5110   11.7280 C   0  0  0  0  0  0  0  0  0  0  0  0
   -1.3290    5.4380   10.7570 N   0  0  0  0  0  0  0  0  0  0  0  0
   -1.5480    4.3620   11.4530 C   0  0  0  0  0  0  0  0  0  0  0  0
   -1.7210    4.6760   12.8490 N   0  0  0  0  0  0  0  0  0  0  0  0
   -1.5620    6.0270   12.9320 C   0  0  0  0  0  0  0  0  0  0  0  0
   -1.6090    6.8340   14.1510 C   0  0  0  0  0  0  0  0  0  0  0  0
   -1.7000    2.6640   10.8590 S   0  0  0  0  0  0  0  0  0  0  0  0
   -2.8380    2.0910   12.2030 C   0  0  0  0  0  0  0  0  0  0  0  0
   -4.0810    3.0480   12.3070 C   0  0  0  0  0  0  0  0  0  0  0  0
   -4.5050    3.6230   11.2210 O   0  0  0  0  0  0  0  0  0  0  0  0
   -4.7750    3.2600   13.6590 C   0  0  0  0  0  0  0  0  0  0  0  0
   -4.9800    2.1460   14.6020 C   0  0  0  0  0  0  0  0  0  0  0  0
   -5.5860    2.3660   15.7880 C   0  0  0  0  0  0  0  0  0  0  0  0
   -6.0250    3.7320   16.0690 C   0  0  0  0  0  0  0  0  0  0  0  0
   -5.8820    4.7600   15.2190 C   0  0  0  0  0  0  0  0  0  0  0  0
   -5.2350    4.5050   13.9510 C   0  0  0  0  0  0  0  0  0  0  0  0
   -5.8860    0.9300   16.8560 S   0  0  0  0  0  0  0  0  0  0  0  0
   -7.4410    0.8990   16.8550 O   0  0  0  0  0  0  0  0  0  0  0  0
   -6.7940    3.9290   17.5810 Cl  0  0  0  0  0  0  0  0  0  0  0  0
   -5.2700    1.1430   18.2330 O   0  0  0  0  0  0  0  0  0  0  0  0
   -5.1900   -0.3770   16.0070 N   0  0  0  0  0  0  0  0  0  0  0  0
    0.9540   10.6204   13.3144 H   0  0  0  0  0  0  0  0  0  0  0  0
   -0.4080   11.6929   13.8330 H   0  0  0  0  0  0  0  0  0  0  0  0
    0.6740    9.2343   15.1202 H   0  0  0  0  0  0  0  0  0  0  0  0
   -0.3441   10.5864   15.8016 H   0  0  0  0  0  0  0  0  0  0  0  0
   -0.9357    8.3825   10.5165 H   0  0  0  0  0  0  0  0  0  0  0  0
   -1.9215    4.0207   13.6180 H   0  0  0  0  0  0  0  0  0  0  0  0
   -1.8039    6.3973   15.1416 H   0  0  0  0  0  0  0  0  0  0  0  0
   -3.1826    1.0711   11.9770 H   0  0  0  0  0  0  0  0  0  0  0  0
   -2.2963    2.1010   13.1603 H   0  0  0  0  0  0  0  0  0  0  0  0
   -4.6387    1.1339   14.3390 H   0  0  0  0  0  0  0  0  0  0  0  0
   -6.2455    5.7653   15.4784 H   0  0  0  0  0  0  0  0  0  0  0  0
   -5.1150    5.3199   13.2219 H   0  0  0  0  0  0  0  0  0  0  0  0
   -4.8230   -1.0662   16.6787 H   0  0  0  0  0  0  0  0  0  0  0  0
   -5.9058   -0.8220   15.4150 H   0  0  0  0  0  0  0  0  0  0  0  0
  1  2  1  0
  1  6  1  0
  2  3  1  0
  3  4  1  0
  4  5  1  0
  5  6  2  0
  5 13  1  0
  6  7  1  0
  7  8  2  0
  8  9  1  0
  8 12  1  0
  9 10  2  0
 10 11  1  0
 10 14  1  0
 11 12  1  0
 12 13  2  0
 14 15  1  0
 15 16  1  0
 16 17  2  0
 16 18  1  0
 18 19  2  0
 18 23  1  0
 19 20  1  0
 20 21  2  0
 20 24  1  0
 21 22  1  0
 21 26  1  0
 22 23  2  0
 24 25  2  0
 24 27  2  0
 24 28  1  0
  2 29  1  0
  2 30  1  0
  3 31  1  0
  3 32  1  0
  7 33  1  0
 11 34  1  0
 13 35  1  0
 15 36  1  0
 15 37  1  0
 19 38  1  0
 22 39  1  0
 23 40  1  0
 28 41  1  0
 28 42  1  0
A    1
O1
A    2
C2
A    3
C3
A    4
O4
A    5
C5
A    6
C6
A    7
C7
A    8
C8
A    9
N9
A   10
C10
A   11
N11
A   12
C12
A   13
C13
A   14
S14
A   15
C15
A   16
C16
A   17
O17
A   18
C18
A   19
C19
A   20
C20
A   21
C21
A   22
C22
A   23
C23
A   24
S24
A   25
O25
A   26
CL26
A   27
O27
A   28
N28
M  END
