3M8S_HXB_A_113
     RDKit          3D

 49 50  0  0  0  0  0  0  0  0999 V2000
   19.1760  -21.3230  -11.6890 C   0  0  0  0  0  0  0  0  0  0  0  0
   19.1540  -19.2830   -7.3410 N   0  0  0  0  0  0  0  0  0  0  0  0
   18.1530  -15.9420  -11.2270 O   0  0  0  0  0  0  0  0  0  0  0  0
   19.6540  -16.3050  -11.4920 P   0  0  0  0  0  0  0  0  0  0  0  0
   18.8200  -19.7310   -5.9860 C   0  0  0  0  0  0  0  0  0  0  0  0
   18.4130  -20.8830   -5.8010 O   0  0  0  0  0  0  0  0  0  0  0  0
   16.9990  -16.2620  -12.2260 P   0  0  0  0  0  0  0  0  0  0  0  0
   19.0010  -18.8280   -4.8930 N   0  0  0  0  0  0  0  0  0  0  0  0
   16.3830  -14.9140  -12.7580 O   0  0  0  0  0  0  0  0  0  0  0  0
   17.1360  -13.9580  -13.7490 P   0  0  0  0  0  0  0  0  0  0  0  0
   19.4780  -17.5500   -5.1150 C   0  0  0  0  0  0  0  0  0  0  0  0
   19.6230  -16.7900   -4.1630 O   0  0  0  0  0  0  0  0  0  0  0  0
   19.7980  -17.1080   -6.4610 C   0  0  0  0  0  0  0  0  0  0  0  0
   16.1230  -13.4210  -14.7280 O   0  0  0  0  0  0  0  0  0  0  0  0
   19.6180  -18.0210   -7.5710 C   0  0  0  0  0  0  0  0  0  0  0  0
   18.2790  -14.7060  -14.5100 O   0  0  0  0  0  0  0  0  0  0  0  0
   17.7530  -12.7700  -12.9690 O   0  0  0  0  0  0  0  0  0  0  0  0
   15.9240  -17.0070  -11.4630 O   0  0  0  0  0  0  0  0  0  0  0  0
   17.4960  -17.1270  -13.4270 O   0  0  0  0  0  0  0  0  0  0  0  0
   18.9290  -20.1890   -8.4640 C   0  0  0  0  0  0  0  0  0  0  0  0
   19.9760  -16.2710  -12.9730 O   0  0  0  0  0  0  0  0  0  0  0  0
   20.5490  -15.2560  -10.7360 O   0  0  0  0  0  0  0  0  0  0  0  0
   17.5680  -20.3680   -9.1360 C   0  0  0  0  0  0  0  0  0  0  0  0
   17.7420  -19.7210  -10.4440 C   0  0  0  0  0  0  0  0  0  0  0  0
   16.7160  -19.8470  -11.3740 O   0  0  0  0  0  0  0  0  0  0  0  0
   19.1700  -20.0850  -10.8530 C   0  0  0  0  0  0  0  0  0  0  0  0
   19.9020  -20.3560   -9.5940 O   0  0  0  0  0  0  0  0  0  0  0  0
   19.7920  -18.9290  -11.6090 C   0  0  0  0  0  0  0  0  0  0  0  0
   19.9560  -17.7350  -10.8940 O   0  0  0  0  0  0  0  0  0  0  0  0
   20.3110  -15.7160   -6.7060 C   0  0  0  0  0  0  0  0  0  0  0  0
   19.1803  -22.2072  -11.0347 H   0  0  0  0  0  0  0  0  0  0  0  0
   18.2779  -21.3410  -12.3239 H   0  0  0  0  0  0  0  0  0  0  0  0
   20.0742  -21.3323  -12.3239 H   0  0  0  0  0  0  0  0  0  0  0  0
   18.7748  -19.1312   -3.9350 H   0  0  0  0  0  0  0  0  0  0  0  0
   19.8546  -17.6979   -8.5955 H   0  0  0  0  0  0  0  0  0  0  0  0
   18.9003  -15.1126  -13.8552 H   0  0  0  0  0  0  0  0  0  0  0  0
   17.6678  -12.9340  -11.9964 H   0  0  0  0  0  0  0  0  0  0  0  0
   16.0763  -16.9015  -10.4905 H   0  0  0  0  0  0  0  0  0  0  0  0
   19.0947  -20.9274   -7.6657 H   0  0  0  0  0  0  0  0  0  0  0  0
   20.4456  -15.3772   -9.7589 H   0  0  0  0  0  0  0  0  0  0  0  0
   17.3254  -21.4344   -9.2543 H   0  0  0  0  0  0  0  0  0  0  0  0
   16.7421  -19.9363   -8.5516 H   0  0  0  0  0  0  0  0  0  0  0  0
   17.6320  -18.6285  -10.3783 H   0  0  0  0  0  0  0  0  0  0  0  0
   15.8529  -19.9530  -10.9008 H   0  0  0  0  0  0  0  0  0  0  0  0
   20.7851  -19.2510  -11.9555 H   0  0  0  0  0  0  0  0  0  0  0  0
   19.0835  -18.6920  -12.4164 H   0  0  0  0  0  0  0  0  0  0  0  0
   20.4945  -15.2180   -5.7425 H   0  0  0  0  0  0  0  0  0  0  0  0
   21.2496  -15.7664   -7.2774 H   0  0  0  0  0  0  0  0  0  0  0  0
   19.5641  -15.1453   -7.2774 H   0  0  0  0  0  0  0  0  0  0  0  0
  1 26  1  0
 20  2  1  0
 15  2  1  0
  2  5  1  0
  7  3  1  0
  4  3  1  0
 21  4  2  0
  4 29  1  0
  4 22  1  0
  5  6  2  0
  5  8  1  0
 19  7  2  0
  9  7  1  0
  7 18  1  0
 11  8  1  0
 10  9  1  0
 14 10  2  0
 16 10  1  0
 10 17  1  0
 13 11  1  0
 11 12  2  0
 15 13  2  0
 30 13  1  0
 27 20  1  0
 23 20  1  0
 24 23  1  0
 25 24  1  0
 26 24  1  0
 28 26  1  0
 26 27  1  0
 28 29  1  0
  1 31  1  0
  1 32  1  0
  1 33  1  0
  8 34  1  0
 15 35  1  0
 16 36  1  0
 17 37  1  0
 18 38  1  0
 20 39  1  0
 22 40  1  0
 23 41  1  0
 23 42  1  0
 24 43  1  0
 25 44  1  0
 28 45  1  0
 28 46  1  0
 30 47  1  0
 30 48  1  0
 30 49  1  0
A    1
C1
A    2
N1
A    3
O1
A    4
P1
A    5
C2
A    6
O2
A    7
P2
A    8
N3
A    9
O3
A   10
P3
A   11
C4
A   12
O4
A   13
C5
A   14
O5
A   15
C6
A   16
O6
A   17
O7
A   18
O8
A   19
O9
A   20
C1'
A   21
O10
A   22
O11
A   23
C2'
A   24
C3'
A   25
O3'
A   26
C4'
A   27
O4'
A   28
C5'
A   29
O5'
A   30
C5M
M  END
