2X6F_3MA_A_1949
     RDKit          3D

 19 20  0  0  0  0  0  0  0  0999 V2000
   18.6280   36.5340    6.2340 N   0  0  0  0  0  0  0  0  0  0  0  0
   17.4110   36.9660    6.6110 C   0  0  0  0  0  0  0  0  0  0  0  0
   16.5410   37.8870    6.1510 N   0  0  0  0  0  0  0  0  0  0  0  0
   16.8800   38.6810    4.9480 C   0  0  0  0  0  0  0  0  0  0  0  0
   15.3610   38.0770    6.7930 C   0  0  0  0  0  0  0  0  0  0  0  0
   14.9670   37.4030    7.8980 N   0  0  0  0  0  0  0  0  0  0  0  0
   15.7560   36.4480    8.4510 C   0  0  0  0  0  0  0  0  0  0  0  0
   15.4060   35.7420    9.5530 N   0  0  0  0  0  0  0  0  0  0  0  0
   17.0550   36.1720    7.8110 C   0  0  0  0  0  0  0  0  0  0  0  0
   18.0750   35.3280    8.0640 N   0  0  0  0  0  0  0  0  0  0  0  0
   19.0160   35.5530    7.1070 C   0  0  0  0  0  0  0  0  0  0  0  0
   19.1718   36.8800    5.4306 H   0  0  0  0  0  0  0  0  0  0  0  0
   17.2948   39.6525    5.2548 H   0  0  0  0  0  0  0  0  0  0  0  0
   17.6245   38.1375    4.3478 H   0  0  0  0  0  0  0  0  0  0  0  0
   15.9725   38.8428    4.3478 H   0  0  0  0  0  0  0  0  0  0  0  0
   14.6748   38.8340    6.3855 H   0  0  0  0  0  0  0  0  0  0  0  0
   15.5952   36.1237   10.4908 H   0  0  0  0  0  0  0  0  0  0  0  0
   14.9507   34.8235    9.4531 H   0  0  0  0  0  0  0  0  0  0  0  0
   19.9719   35.0126    7.0426 H   0  0  0  0  0  0  0  0  0  0  0  0
  1  2  1  0
  1 11  1  0
  2  3  2  0
  2  9  1  0
  3  4  1  0
  3  5  1  0
  5  6  2  0
  6  7  1  0
  7  8  1  0
  7  9  2  0
  9 10  1  0
 10 11  2  0
  1 12  1  0
  4 13  1  0
  4 14  1  0
  4 15  1  0
  5 16  1  0
  8 17  1  0
  8 18  1  0
 11 19  1  0
M  CHG  1   3   1
A    1
N9
A    2
C4
A    3
N3
A    4
CN3
A    5
C2
A    6
N1
A    7
C6
A    8
N6
A    9
C5
A   10
N7
A   11
C8
M  END
