3MAX_LLX_A_400
     RDKit          3D

 38 40  0  0  0  0  0  0  0  0999 V2000
   65.8820   28.8880   -1.6780 N   0  0  0  0  0  0  0  0  0  0  0  0
   65.4500   28.7330   -0.3430 C   0  0  0  0  0  0  0  0  0  0  0  0
   64.2210   28.1250   -0.0690 C   0  0  0  0  0  0  0  0  0  0  0  0
   63.7890   27.9790    1.2410 C   0  0  0  0  0  0  0  0  0  0  0  0
   64.5660   28.4370    2.3170 C   0  0  0  0  0  0  0  0  0  0  0  0
   65.7920   29.0770    2.0410 C   0  0  0  0  0  0  0  0  0  0  0  0
   66.2210   29.2180    0.7260 C   0  0  0  0  0  0  0  0  0  0  0  0
   67.4780   29.7880    0.4590 N   0  0  0  0  0  0  0  0  0  0  0  0
   67.6220   30.8320   -0.3730 C   0  0  0  0  0  0  0  0  0  0  0  0
   66.6320   31.3230   -0.8890 O   0  0  0  0  0  0  0  0  0  0  0  0
   69.0040   31.3170   -0.6050 C   0  0  0  0  0  0  0  0  0  0  0  0
   70.0600   30.4160   -0.4870 C   0  0  0  0  0  0  0  0  0  0  0  0
   71.3670   30.8260   -0.6850 C   0  0  0  0  0  0  0  0  0  0  0  0
   71.6380   32.1460   -1.0050 C   0  0  0  0  0  0  0  0  0  0  0  0
   70.5940   33.0570   -1.1190 C   0  0  0  0  0  0  0  0  0  0  0  0
   69.2780   32.6580   -0.9160 C   0  0  0  0  0  0  0  0  0  0  0  0
   64.0950   28.3080    3.7300 C   0  0  0  0  0  0  0  0  0  0  0  0
   65.0120   28.1180    4.7740 C   0  0  0  0  0  0  0  0  0  0  0  0
   64.5540   28.0390    6.0880 C   0  0  0  0  0  0  0  0  0  0  0  0
   63.1940   28.1440    6.3880 C   0  0  0  0  0  0  0  0  0  0  0  0
   62.2730   28.3410    5.3640 C   0  0  0  0  0  0  0  0  0  0  0  0
   62.7200   28.4250    4.0480 C   0  0  0  0  0  0  0  0  0  0  0  0
   66.8336   29.2294   -1.8750 H   0  0  0  0  0  0  0  0  0  0  0  0
   65.2456   28.6597   -2.4550 H   0  0  0  0  0  0  0  0  0  0  0  0
   63.5939   27.7608   -0.8961 H   0  0  0  0  0  0  0  0  0  0  0  0
   62.8210   27.4961    1.4403 H   0  0  0  0  0  0  0  0  0  0  0  0
   66.4085   29.4644    2.8656 H   0  0  0  0  0  0  0  0  0  0  0  0
   68.3130   29.3932    0.9149 H   0  0  0  0  0  0  0  0  0  0  0  0
   69.8525   29.3659   -0.2334 H   0  0  0  0  0  0  0  0  0  0  0  0
   72.1907   30.1034   -0.5882 H   0  0  0  0  0  0  0  0  0  0  0  0
   72.6757   32.4724   -1.1684 H   0  0  0  0  0  0  0  0  0  0  0  0
   70.8117   34.1050   -1.3726 H   0  0  0  0  0  0  0  0  0  0  0  0
   68.4584   33.3870   -0.9984 H   0  0  0  0  0  0  0  0  0  0  0  0
   66.0869   28.0318    4.5570 H   0  0  0  0  0  0  0  0  0  0  0  0
   65.2770   27.8912    6.9038 H   0  0  0  0  0  0  0  0  0  0  0  0
   62.8520   28.0711    7.4309 H   0  0  0  0  0  0  0  0  0  0  0  0
   61.2006   28.4297    5.5921 H   0  0  0  0  0  0  0  0  0  0  0  0
   61.9911   28.5853    3.2399 H   0  0  0  0  0  0  0  0  0  0  0  0
  2  1  1  0
  3  2  2  0
  2  7  1  0
  4  3  1  0
  4  5  2  0
 17  5  1  0
  5  6  1  0
  6  7  2  0
  7  8  1  0
  8  9  1  0
 10  9  2  0
  9 11  1  0
 16 11  1  0
 11 12  2  0
 12 13  1  0
 14 13  2  0
 15 14  1  0
 16 15  2  0
 22 17  1  0
 17 18  2  0
 19 18  1  0
 20 19  2  0
 21 20  1  0
 21 22  2  0
  1 23  1  0
  1 24  1  0
  3 25  1  0
  4 26  1  0
  6 27  1  0
  8 28  1  0
 12 29  1  0
 13 30  1  0
 14 31  1  0
 15 32  1  0
 16 33  1  0
 18 34  1  0
 19 35  1  0
 20 36  1  0
 21 37  1  0
 22 38  1  0
A    1
N1
A    2
C2
A    3
C3
A    4
C4
A    5
C5
A    6
C6
A    7
C7
A    8
N8
A    9
C9
A   10
O10
A   11
C11
A   12
C12
A   13
C13
A   14
C14
A   15
C15
A   16
C16
A   17
C17
A   18
C18
A   19
C19
A   20
C20
A   21
C21
A   22
C22
M  END
