3MBL_LSG_A_7
     RDKit          3D

 42 43  0  0  0  0  0  0  0  0999 V2000
   35.9590   28.1310   43.4100 C   0  0  0  0  0  0  0  0  0  0  0  0
   36.8190   27.3050   42.6850 C   0  0  0  0  0  0  0  0  0  0  0  0
   36.3010   26.4990   41.6310 C   0  0  0  0  0  0  0  0  0  0  0  0
   34.9600   26.5160   41.2970 C   0  0  0  0  0  0  0  0  0  0  0  0
   34.0630   27.3150   41.9990 C   0  0  0  0  0  0  0  0  0  0  0  0
   34.6000   28.1440   43.0990 C   0  0  0  0  0  0  0  0  0  0  0  0
   33.7140   28.8930   43.7720 F   0  0  0  0  0  0  0  0  0  0  0  0
   38.8950   27.2220   43.1730 I   0  0  0  0  0  0  0  0  0  0  0  0
   32.7170   27.3530   41.7890 N   0  0  0  0  0  0  0  0  0  0  0  0
   32.0440   26.6710   40.8290 C   0  0  0  0  0  0  0  0  0  0  0  0
   32.1490   25.3610   40.5930 N   0  0  0  0  0  0  0  0  0  0  0  0
   31.3390   25.1350   39.5260 C   0  0  0  0  0  0  0  0  0  0  0  0
   30.6900   26.3240   39.0710 C   0  0  0  0  0  0  0  0  0  0  0  0
   31.0990   27.3460   39.8960 C   0  0  0  0  0  0  0  0  0  0  0  0
   30.8190   28.7990   40.0490 C   0  0  0  0  0  0  0  0  0  0  0  0
   31.2800   29.3920   41.0480 O   0  0  0  0  0  0  0  0  0  0  0  0
   30.0550   29.4550   39.1800 N   0  0  0  0  0  0  0  0  0  0  0  0
   29.6830   30.8670   39.4560 O   0  0  0  0  0  0  0  0  0  0  0  0
   28.5140   31.5320   38.9290 C   0  0  0  0  0  0  0  0  0  0  0  0
   28.1550   32.7440   39.7870 C   0  0  0  0  0  0  0  0  0  0  0  0
   27.1380   33.5050   39.1040 O   0  0  0  0  0  0  0  0  0  0  0  0
   33.0240   24.4060   41.3140 C   0  0  0  0  0  0  0  0  0  0  0  0
   31.1730   23.8080   38.8880 C   0  0  0  0  0  0  0  0  0  0  0  0
   31.8090   22.7950   39.2000 O   0  0  0  0  0  0  0  0  0  0  0  0
   30.1550   23.8370   37.7960 C   0  0  0  0  0  0  0  0  0  0  0  0
   36.3496   28.7657   44.2191 H   0  0  0  0  0  0  0  0  0  0  0  0
   36.9854   25.8467   41.0688 H   0  0  0  0  0  0  0  0  0  0  0  0
   34.5980   25.8911   40.4673 H   0  0  0  0  0  0  0  0  0  0  0  0
   32.1613   27.9531   42.4151 H   0  0  0  0  0  0  0  0  0  0  0  0
   29.9952   26.4064   38.2222 H   0  0  0  0  0  0  0  0  0  0  0  0
   29.7242   28.9885   38.3234 H   0  0  0  0  0  0  0  0  0  0  0  0
   28.7195   31.8646   37.9008 H   0  0  0  0  0  0  0  0  0  0  0  0
   27.6695   30.8272   38.9382 H   0  0  0  0  0  0  0  0  0  0  0  0
   27.7740   32.4078   40.7626 H   0  0  0  0  0  0  0  0  0  0  0  0
   29.0465   33.3677   39.9489 H   0  0  0  0  0  0  0  0  0  0  0  0
   26.5514   33.9440   39.7698 H   0  0  0  0  0  0  0  0  0  0  0  0
   32.8997   24.5417   42.3985 H   0  0  0  0  0  0  0  0  0  0  0  0
   32.7486   23.3771   41.0393 H   0  0  0  0  0  0  0  0  0  0  0  0
   34.0730   24.5906   41.0393 H   0  0  0  0  0  0  0  0  0  0  0  0
   29.1469   23.8657   38.2352 H   0  0  0  0  0  0  0  0  0  0  0  0
   30.3097   24.7311   37.1742 H   0  0  0  0  0  0  0  0  0  0  0  0
   30.2585   22.9355   37.1742 H   0  0  0  0  0  0  0  0  0  0  0  0
  2  1  2  0
  6  1  1  0
  3  2  1  0
  2  8  1  0
  4  3  2  0
  4  5  1  0
  9  5  1  0
  5  6  2  0
  6  7  1  0
 10  9  1  0
 14 10  2  0
 11 10  1  0
 12 11  1  0
 11 22  1  0
 23 12  1  0
 13 12  2  0
 13 14  1  0
 14 15  1  0
 17 15  1  0
 15 16  2  0
 17 18  1  0
 19 18  1  0
 19 20  1  0
 21 20  1  0
 25 23  1  0
 23 24  2  0
  1 26  1  0
  3 27  1  0
  4 28  1  0
  9 29  1  0
 13 30  1  0
 17 31  1  0
 19 32  1  0
 19 33  1  0
 20 34  1  0
 20 35  1  0
 21 36  1  0
 22 37  1  0
 22 38  1  0
 22 39  1  0
 25 40  1  0
 25 41  1  0
 25 42  1  0
A    1
C1
A    2
C2
A    3
C3
A    4
C4
A    5
C5
A    6
C6
A    7
F7
A    8
I8
A    9
N9
A   10
C10
A   11
N11
A   12
C12
A   13
C13
A   14
C14
A   15
C15
A   16
O16
A   17
N17
A   18
O18
A   19
C19
A   20
C20
A   21
O21
A   22
C22
A   23
C23
A   24
O24
A   25
C25
M  END
