3MDL_1AG_A_1
     RDKit          3D

 65 64  0  0  0  0  0  0  0  0999 V2000
   16.9910   12.5620   65.7860 C   0  0  0  0  0  0  0  0  0  0  0  0
   17.4910   12.3510   64.6480 O   0  0  0  0  0  0  0  0  0  0  0  0
   17.9440   12.6870   66.9630 C   0  0  0  0  0  0  0  0  0  0  0  0
   17.1920   12.9480   68.2510 C   0  0  0  0  0  0  0  0  0  0  0  0
   15.7730   12.6740   66.0490 O   0  0  0  0  0  0  0  0  0  0  0  0
   17.9830   13.8820   69.1430 C   0  0  0  0  0  0  0  0  0  0  0  0
   19.3280   13.2590   69.4780 C   0  0  0  0  0  0  0  0  0  0  0  0
   20.4440   13.9700   69.4590 C   0  0  0  0  0  0  0  0  0  0  0  0
   20.4080   15.4550   69.1290 C   0  0  0  0  0  0  0  0  0  0  0  0
   20.3160   16.2070   70.4560 C   0  0  0  0  0  0  0  0  0  0  0  0
   20.2270   17.5260   70.4570 C   0  0  0  0  0  0  0  0  0  0  0  0
   20.2140   18.2730   69.1320 C   0  0  0  0  0  0  0  0  0  0  0  0
   21.2700   19.3720   69.1780 C   0  0  0  0  0  0  0  0  0  0  0  0
   22.2770   19.3950   68.3130 C   0  0  0  0  0  0  0  0  0  0  0  0
   22.4390   18.2970   67.2700 C   0  0  0  0  0  0  0  0  0  0  0  0
   23.3660   17.2530   67.8800 C   0  0  0  0  0  0  0  0  0  0  0  0
   24.2650   16.5980   67.1600 C   0  0  0  0  0  0  0  0  0  0  0  0
   24.4230   16.8190   65.6590 C   0  0  0  0  0  0  0  0  0  0  0  0
   25.5080   17.8370   65.3350 C   0  0  0  0  0  0  0  0  0  0  0  0
   25.0910   18.6330   64.1310 C   0  0  0  0  0  0  0  0  0  0  0  0
   25.0840   17.7800   62.8710 C   0  0  0  0  0  0  0  0  0  0  0  0
   25.0330   18.6470   61.5990 C   0  0  0  0  0  0  0  0  0  0  0  0
   18.6000   12.8390   64.3030 C   0  0  0  0  0  0  0  0  0  0  0  0
   18.7300   12.9560   62.7840 C   0  0  0  0  0  0  0  0  0  0  0  0
   20.1190   12.5070   62.3410 C   0  0  0  0  0  0  0  0  0  0  0  0
   18.5790   14.1470   62.4370 O   0  0  0  0  0  0  0  0  0  0  0  0
   20.1860   12.4920   61.0900 O   0  0  0  0  0  0  0  0  0  0  0  0
   18.5144   11.7519   67.0637 H   0  0  0  0  0  0  0  0  0  0  0  0
   18.6193   13.5349   66.7759 H   0  0  0  0  0  0  0  0  0  0  0  0
   16.2200   13.4068   68.0169 H   0  0  0  0  0  0  0  0  0  0  0  0
   17.0420   11.9935   68.7768 H   0  0  0  0  0  0  0  0  0  0  0  0
   18.1429   14.8370   68.6210 H   0  0  0  0  0  0  0  0  0  0  0  0
   17.4224   14.0569   70.0731 H   0  0  0  0  0  0  0  0  0  0  0  0
   19.3750   12.1923   69.7424 H   0  0  0  0  0  0  0  0  0  0  0  0
   21.4049   13.4838   69.6834 H   0  0  0  0  0  0  0  0  0  0  0  0
   21.3240   15.7450   68.5935 H   0  0  0  0  0  0  0  0  0  0  0  0
   19.5494   15.6924   68.4836 H   0  0  0  0  0  0  0  0  0  0  0  0
   20.3238   15.6532   71.4064 H   0  0  0  0  0  0  0  0  0  0  0  0
   20.1630   18.0778   71.4065 H   0  0  0  0  0  0  0  0  0  0  0  0
   20.4413   17.5758   68.3121 H   0  0  0  0  0  0  0  0  0  0  0  0
   19.2213   18.7150   68.9615 H   0  0  0  0  0  0  0  0  0  0  0  0
   21.1962   20.1602   69.9418 H   0  0  0  0  0  0  0  0  0  0  0  0
   23.0048   20.2190   68.3502 H   0  0  0  0  0  0  0  0  0  0  0  0
   21.4624   17.8478   67.0365 H   0  0  0  0  0  0  0  0  0  0  0  0
   22.8532   18.6971   66.3328 H   0  0  0  0  0  0  0  0  0  0  0  0
   23.2862   17.0355   68.9553 H   0  0  0  0  0  0  0  0  0  0  0  0
   24.9196   15.8702   67.6617 H   0  0  0  0  0  0  0  0  0  0  0  0
   24.6845   15.8609   65.1861 H   0  0  0  0  0  0  0  0  0  0  0  0
   23.4695   17.2101   65.2746 H   0  0  0  0  0  0  0  0  0  0  0  0
   25.6479   18.5118   66.1924 H   0  0  0  0  0  0  0  0  0  0  0  0
   26.4542   17.3165   65.1258 H   0  0  0  0  0  0  0  0  0  0  0  0
   24.0791   19.0305   64.2987 H   0  0  0  0  0  0  0  0  0  0  0  0
   25.8151   19.4490   63.9902 H   0  0  0  0  0  0  0  0  0  0  0  0
   25.9977   17.1679   62.8493 H   0  0  0  0  0  0  0  0  0  0  0  0
   24.1859   17.1451   62.8906 H   0  0  0  0  0  0  0  0  0  0  0  0
   24.9706   19.7084   61.8810 H   0  0  0  0  0  0  0  0  0  0  0  0
   25.9426   18.4786   61.0038 H   0  0  0  0  0  0  0  0  0  0  0  0
   24.1494   18.3732   61.0038 H   0  0  0  0  0  0  0  0  0  0  0  0
   18.6995   13.8411   64.7456 H   0  0  0  0  0  0  0  0  0  0  0  0
   19.3923   12.1644   64.6596 H   0  0  0  0  0  0  0  0  0  0  0  0
   17.9612   12.3208   62.3199 H   0  0  0  0  0  0  0  0  0  0  0  0
   20.8711   13.2048   62.7377 H   0  0  0  0  0  0  0  0  0  0  0  0
   20.3105   11.4941   62.7249 H   0  0  0  0  0  0  0  0  0  0  0  0
   18.5065   14.7186   63.2420 H   0  0  0  0  0  0  0  0  0  0  0  0
   21.1131   12.2844   60.8116 H   0  0  0  0  0  0  0  0  0  0  0  0
  1  2  1  0
  1  3  1  0
  1  5  2  0
  2 23  1  0
  3  4  1  0
  4  6  1  0
  6  7  1  0
  7  8  2  0
  8  9  1  0
  9 10  1  0
 10 11  2  0
 11 12  1  0
 12 13  1  0
 13 14  2  0
 14 15  1  0
 15 16  1  0
 16 17  2  0
 17 18  1  0
 18 19  1  0
 19 20  1  0
 20 21  1  0
 21 22  1  0
 23 24  1  0
 24 25  1  0
 24 26  1  0
 25 27  1  0
  3 28  1  0
  3 29  1  0
  4 30  1  0
  4 31  1  0
  6 32  1  0
  6 33  1  0
  7 34  1  0
  8 35  1  0
  9 36  1  0
  9 37  1  0
 10 38  1  0
 11 39  1  0
 12 40  1  0
 12 41  1  0
 13 42  1  0
 14 43  1  0
 15 44  1  0
 15 45  1  0
 16 46  1  0
 17 47  1  0
 18 48  1  0
 18 49  1  0
 19 50  1  0
 19 51  1  0
 20 52  1  0
 20 53  1  0
 21 54  1  0
 21 55  1  0
 22 56  1  0
 22 57  1  0
 22 58  1  0
 23 59  1  0
 23 60  1  0
 24 61  1  0
 25 62  1  0
 25 63  1  0
 26 64  1  0
 27 65  1  0
A    1
C01
A    2
O01
A    3
C02
A    4
C03
A    5
O03
A    6
C04
A    7
C05
A    8
C06
A    9
C07
A   10
C08
A   11
C09
A   12
C10
A   13
C11
A   14
C12
A   15
C13
A   16
C14
A   17
C15
A   18
C16
A   19
C17
A   20
C18
A   21
C19
A   22
C20
A   23
C21
A   24
C22
A   25
C23
A   26
O26
A   27
O27
M  END
