3MFV_Z70_A_0
     RDKit          3D

 25 25  0  0  0  0  0  0  0  0999 V2000
  -19.5010   16.4710   -5.2810 C   0  0  0  0  0  0  0  0  0  0  0  0
  -20.9540   16.8970   -5.5920 C   0  0  0  0  0  0  0  0  0  0  0  0
  -20.2620   12.6300   -5.6040 C   0  0  0  0  0  0  0  0  0  0  0  0
  -20.2510   10.4610   -5.6450 C   0  0  0  0  0  0  0  0  0  0  0  0
  -19.2420   12.2430   -6.5980 C   0  0  0  0  0  0  0  0  0  0  0  0
  -19.2760   14.9430   -5.1580 C   0  0  0  0  0  0  0  0  0  0  0  0
  -20.5410   14.1040   -5.3310 C   0  0  0  0  0  0  0  0  0  0  0  0
  -19.1230   17.0290   -4.0280 N   0  0  0  0  0  0  0  0  0  0  0  0
  -20.8500   11.5140   -5.0490 N   0  0  0  0  0  0  0  0  0  0  0  0
  -19.2840   10.8510   -6.5770 N   0  0  0  0  0  0  0  0  0  0  0  0
  -20.5650    9.1430   -5.3650 N   0  0  0  0  0  0  0  0  0  0  0  0
  -21.5310   16.5360   -6.6910 O   0  0  0  0  0  0  0  0  0  0  0  0
  -21.6040   17.6250   -4.7600 O   0  0  0  0  0  0  0  0  0  0  0  0
  -18.9061   16.8290   -6.1342 H   0  0  0  0  0  0  0  0  0  0  0  0
  -18.6022   12.8969   -7.2088 H   0  0  0  0  0  0  0  0  0  0  0  0
  -18.5528   14.6384   -5.9288 H   0  0  0  0  0  0  0  0  0  0  0  0
  -18.9146   14.7597   -4.1354 H   0  0  0  0  0  0  0  0  0  0  0  0
  -21.1160   14.5115   -6.1756 H   0  0  0  0  0  0  0  0  0  0  0  0
  -21.0963   14.1575   -4.3829 H   0  0  0  0  0  0  0  0  0  0  0  0
  -19.5114   16.4556   -3.2656 H   0  0  0  0  0  0  0  0  0  0  0  0
  -18.0957   17.0460   -3.9556 H   0  0  0  0  0  0  0  0  0  0  0  0
  -21.5891   11.4886   -4.3321 H   0  0  0  0  0  0  0  0  0  0  0  0
  -20.6400    8.8280   -4.3872 H   0  0  0  0  0  0  0  0  0  0  0  0
  -20.7237    8.4768   -6.1343 H   0  0  0  0  0  0  0  0  0  0  0  0
  -22.3699   16.0112   -6.6604 H   0  0  0  0  0  0  0  0  0  0  0  0
  2  1  1  0
  6  1  1  0
  1  8  1  0
 13  2  2  0
  2 12  1  0
  5  3  2  0
  3  7  1  0
  3  9  1  0
 10  4  2  0
  4 11  1  0
  4  9  1  0
 10  5  1  0
  7  6  1  0
  1 14  1  0
  5 15  1  0
  6 16  1  0
  6 17  1  0
  7 18  1  0
  7 19  1  0
  8 20  1  0
  8 21  1  0
  9 22  1  0
 11 23  1  0
 11 24  1  0
 12 25  1  0
A    1
CA
A    2
C
A    3
C3
A    4
C4
A    5
C5
A    6
C6
A    7
C7
A    8
N
A    9
N2
A   10
N3
A   11
N4
A   12
OXT
A   13
O
M  END
