3MFW_B3U_A_600
     RDKit          3D

 22 22  0  0  0  0  0  0  0  0999 V2000
    4.9060   25.4740   31.2040 N   0  0  0  0  0  0  0  0  0  0  0  0
    4.9090   25.5790   29.7380 C   0  0  0  0  0  0  0  0  0  0  0  0
    4.4850   24.3130   29.0350 C   0  0  0  0  0  0  0  0  0  0  0  0
    3.0360   24.0280   29.1850 C   0  0  0  0  0  0  0  0  0  0  0  0
    2.1190   24.3010   30.1390 C   0  0  0  0  0  0  0  0  0  0  0  0
    0.9480   23.7680   29.6880 N   0  0  0  0  0  0  0  0  0  0  0  0
    1.1280   23.1980   28.5120 C   0  0  0  0  0  0  0  0  0  0  0  0
    2.3960   23.3370   28.1790 N   0  0  0  0  0  0  0  0  0  0  0  0
    0.1920   22.5250   27.6790 N   0  0  0  0  0  0  0  0  0  0  0  0
    4.0780   26.8120   29.3450 C   0  0  0  0  0  0  0  0  0  0  0  0
    3.8010   27.1030   28.1780 O   0  0  0  0  0  0  0  0  0  0  0  0
    3.6960   27.4960   30.3120 O   0  0  0  0  0  0  0  0  0  0  0  0
    4.9330   26.4177   31.6159 H   0  0  0  0  0  0  0  0  0  0  0  0
    4.0508   24.9894   31.5118 H   0  0  0  0  0  0  0  0  0  0  0  0
    5.9439   25.7157   29.3911 H   0  0  0  0  0  0  0  0  0  0  0  0
    4.7143   24.4124   27.9638 H   0  0  0  0  0  0  0  0  0  0  0  0
    5.0354   23.4791   29.4951 H   0  0  0  0  0  0  0  0  0  0  0  0
    2.2831   24.8410   31.0832 H   0  0  0  0  0  0  0  0  0  0  0  0
    2.8338   22.9885   27.3142 H   0  0  0  0  0  0  0  0  0  0  0  0
   -0.5711   21.9763   28.1004 H   0  0  0  0  0  0  0  0  0  0  0  0
    0.2772   22.5863   26.6544 H   0  0  0  0  0  0  0  0  0  0  0  0
    3.1310   27.8069   27.9890 H   0  0  0  0  0  0  0  0  0  0  0  0
  1  2  1  0
  2  3  1  0
  2 10  1  0
  3  4  1  0
  4  5  2  0
  4  8  1  0
  5  6  1  0
  6  7  2  0
  7  8  1  0
  7  9  1  0
 10 11  1  0
 10 12  2  0
  1 13  1  0
  1 14  1  0
  2 15  1  0
  3 16  1  0
  3 17  1  0
  5 18  1  0
  8 19  1  0
  9 20  1  0
  9 21  1  0
 11 22  1  0
A    1
N
A    2
CA
A    3
CB
A    4
CG
A    5
CD2
A    6
NE2
A    7
CE1
A    8
ND1
A    9
NT
A   10
C
A   11
OXT
A   12
O
M  END
