3MHJ_M3F_A_2
     RDKit          3D

 29 31  0  0  0  0  0  0  0  0999 V2000
   11.3530   45.3340   17.9420 C   0  0  0  0  0  0  0  0  0  0  0  0
    7.9940   40.9070   14.3210 O   0  0  0  0  0  0  0  0  0  0  0  0
    7.3650   42.3670   21.0090 F   0  0  0  0  0  0  0  0  0  0  0  0
    9.0980   41.1160   21.1800 F   0  0  0  0  0  0  0  0  0  0  0  0
    9.2100   43.1820   21.8900 F   0  0  0  0  0  0  0  0  0  0  0  0
   10.5610   43.9160   12.7860 C   0  0  0  0  0  0  0  0  0  0  0  0
   11.2450   44.7040   13.7150 C   0  0  0  0  0  0  0  0  0  0  0  0
    9.6980   42.9430   13.2670 C   0  0  0  0  0  0  0  0  0  0  0  0
   11.0260   44.5480   15.0820 C   0  0  0  0  0  0  0  0  0  0  0  0
    9.9790   43.7960   19.3250 C   0  0  0  0  0  0  0  0  0  0  0  0
    8.5980   42.0490   18.5650 N   0  0  0  0  0  0  0  0  0  0  0  0
    8.3470   41.5590   16.3860 N   0  0  0  0  0  0  0  0  0  0  0  0
   10.3550   44.1310   18.0380 C   0  0  0  0  0  0  0  0  0  0  0  0
    9.1080   42.7450   19.5740 C   0  0  0  0  0  0  0  0  0  0  0  0
    8.6080   41.7040   15.0580 C   0  0  0  0  0  0  0  0  0  0  0  0
    9.4790   42.7470   14.6330 C   0  0  0  0  0  0  0  0  0  0  0  0
    8.9450   42.3500   17.3180 C   0  0  0  0  0  0  0  0  0  0  0  0
   10.1290   43.5710   15.5860 C   0  0  0  0  0  0  0  0  0  0  0  0
    9.8520   43.3720   16.9600 C   0  0  0  0  0  0  0  0  0  0  0  0
    8.6750   42.3540   20.9730 C   0  0  0  0  0  0  0  0  0  0  0  0
   11.6273   45.6646   18.9547 H   0  0  0  0  0  0  0  0  0  0  0  0
   12.2576   45.0178   17.4020 H   0  0  0  0  0  0  0  0  0  0  0  0
   10.8751   46.1647   17.4020 H   0  0  0  0  0  0  0  0  0  0  0  0
   10.7028   44.0630   11.7051 H   0  0  0  0  0  0  0  0  0  0  0  0
   11.9654   45.4570   13.3628 H   0  0  0  0  0  0  0  0  0  0  0  0
    9.1668   42.3026   12.5475 H   0  0  0  0  0  0  0  0  0  0  0  0
   11.5621   45.1988   15.7885 H   0  0  0  0  0  0  0  0  0  0  0  0
   10.3789   44.3752   20.1704 H   0  0  0  0  0  0  0  0  0  0  0  0
    7.6821   40.8345   16.6923 H   0  0  0  0  0  0  0  0  0  0  0  0
  1 13  1  0
  2 15  2  0
  3 20  1  0
  4 20  1  0
  5 20  1  0
  6  7  2  0
  6  8  1  0
  7  9  1  0
  8 16  2  0
  9 18  2  0
 10 13  1  0
 10 14  2  0
 11 14  1  0
 11 17  2  0
 12 15  1  0
 12 17  1  0
 13 19  2  0
 14 20  1  0
 15 16  1  0
 16 18  1  0
 17 19  1  0
 18 19  1  0
  1 21  1  0
  1 22  1  0
  1 23  1  0
  6 24  1  0
  7 25  1  0
  8 26  1  0
  9 27  1  0
 10 28  1  0
 12 29  1  0
A    1
CAA
A    2
OAB
A    3
FAC
A    4
FAD
A    5
FAE
A    6
CAF
A    7
CAG
A    8
CAH
A    9
CAI
A   10
CAJ
A   11
NAK
A   12
NAL
A   13
CAM
A   14
CAN
A   15
CAO
A   16
CAP
A   17
CAQ
A   18
CAR
A   19
CAS
A   20
CAT
M  END
