3MHL_J71_A_265
     RDKit          3D

 36 37  0  0  0  0  0  0  0  0999 V2000
   -3.3010    9.8570   11.0590 N   0  0  0  0  0  0  0  0  0  0  0  0
   -2.4370    9.1480   11.8180 C   0  0  0  0  0  0  0  0  0  0  0  0
   -2.7590    7.9360   12.3130 N   0  0  0  0  0  0  0  0  0  0  0  0
   -3.9750    7.3920   12.0330 C   0  0  0  0  0  0  0  0  0  0  0  0
   -4.9080    8.1060   11.2010 C   0  0  0  0  0  0  0  0  0  0  0  0
   -4.5270    9.4110   10.6980 C   0  0  0  0  0  0  0  0  0  0  0  0
   -4.2880    6.1130   12.5700 N   0  0  0  0  0  0  0  0  0  0  0  0
   -4.0820    4.3290   14.2150 C   0  0  0  0  0  0  0  0  0  0  0  0
   -5.4450    4.3270   14.5960 C   0  0  0  0  0  0  0  0  0  0  0  0
   -5.8950    3.2150   15.3960 C   0  0  0  0  0  0  0  0  0  0  0  0
   -5.0130    2.1350   15.6740 C   0  0  0  0  0  0  0  0  0  0  0  0
   -3.6740    2.1640   15.3040 C   0  0  0  0  0  0  0  0  0  0  0  0
   -3.2290    3.2510   14.5370 C   0  0  0  0  0  0  0  0  0  0  0  0
   -5.6340    0.8510   16.6480 S   0  0  0  0  0  0  0  0  0  0  0  0
   -5.1200    0.9100   17.9660 O   0  0  0  0  0  0  0  0  0  0  0  0
   -7.0900    0.8590   16.4600 O   0  0  0  0  0  0  0  0  0  0  0  0
   -4.9200   -0.4920   15.9450 N   0  0  0  0  0  0  0  0  0  0  0  0
   -6.2190    7.3910   10.9460 N   0  0  0  0  0  0  0  0  0  0  0  0
   -6.2740    6.3990   10.3250 O   0  0  0  0  0  0  0  0  0  0  0  0
   -7.3770    7.8660   11.3830 O   0  0  0  0  0  0  0  0  0  0  0  0
   -5.2760   10.3850    9.8140 O   0  0  0  0  0  0  0  0  0  0  0  0
   -5.7040   11.6980   10.1900 C   0  0  0  0  0  0  0  0  0  0  0  0
   -3.3920    5.4040   13.3930 C   0  0  0  0  0  0  0  0  0  0  0  0
   -1.4454    9.5704   12.0377 H   0  0  0  0  0  0  0  0  0  0  0  0
   -5.2012    5.6908   12.3494 H   0  0  0  0  0  0  0  0  0  0  0  0
   -6.1284    5.1351   14.2962 H   0  0  0  0  0  0  0  0  0  0  0  0
   -6.9214    3.2022   15.7915 H   0  0  0  0  0  0  0  0  0  0  0  0
   -2.9850    1.3603   15.6029 H   0  0  0  0  0  0  0  0  0  0  0  0
   -2.1895    3.2638   14.1775 H   0  0  0  0  0  0  0  0  0  0  0  0
   -4.5824   -1.1269   16.6825 H   0  0  0  0  0  0  0  0  0  0  0  0
   -5.6119   -0.9821   15.3602 H   0  0  0  0  0  0  0  0  0  0  0  0
   -5.7292   11.7753   11.2870 H   0  0  0  0  0  0  0  0  0  0  0  0
   -5.0019   12.4422    9.7860 H   0  0  0  0  0  0  0  0  0  0  0  0
   -6.7098   11.8855    9.7860 H   0  0  0  0  0  0  0  0  0  0  0  0
   -2.6310    4.9277   12.7574 H   0  0  0  0  0  0  0  0  0  0  0  0
   -2.9422    6.1228   14.0937 H   0  0  0  0  0  0  0  0  0  0  0  0
  1  2  2  0
  1  6  1  0
  2  3  1  0
  3  4  2  0
  4  5  1  0
  4  7  1  0
  5  6  2  0
  5 18  1  0
  6 21  1  0
  7 23  1  0
  8  9  2  0
  8 13  1  0
  8 23  1  0
  9 10  1  0
 10 11  2  0
 11 12  1  0
 11 14  1  0
 12 13  2  0
 14 15  2  0
 14 16  2  0
 14 17  1  0
 18 19  1  0
 18 20  2  0
 21 22  1  0
  2 24  1  0
  7 25  1  0
  9 26  1  0
 10 27  1  0
 12 28  1  0
 13 29  1  0
 17 30  1  0
 17 31  1  0
 22 32  1  0
 22 33  1  0
 22 34  1  0
 23 35  1  0
 23 36  1  0
M  CHG  2  18   1  19  -1
A    1
N1
A    2
C2
A    3
N3
A    4
C4
A    5
C5
A    6
C6
A    7
N7
A    8
C8
A    9
C9
A   10
C10
A   11
C11
A   12
C12
A   13
C13
A   14
S14
A   15
O15
A   16
O16
A   17
N17
A   18
N18
A   19
O19
A   20
O20
A   21
O21
A   22
C22
A   23
C23
M  END
