3MHW_ABV_U_245
     RDKit          3D

 16 17  0  0  0  0  0  0  0  0999 V2000
  -29.5790  -17.6000    9.0430 C   0  0  0  0  0  0  0  0  0  0  0  0
  -30.4030  -19.8040   11.6350 N   0  0  0  0  0  0  0  0  0  0  0  0
  -31.6130  -19.1420    9.4990 S   0  0  0  0  0  0  0  0  0  0  0  0
  -28.4240  -17.0880    9.4690 C   0  0  0  0  0  0  0  0  0  0  0  0
  -32.4300  -20.9140   11.2400 N   0  0  0  0  0  0  0  0  0  0  0  0
  -27.8510  -17.4600   10.6270 C   0  0  0  0  0  0  0  0  0  0  0  0
  -28.4280  -18.4020   11.4040 C   0  0  0  0  0  0  0  0  0  0  0  0
  -29.5950  -18.9180   11.0100 C   0  0  0  0  0  0  0  0  0  0  0  0
  -30.1590  -18.4920    9.8400 C   0  0  0  0  0  0  0  0  0  0  0  0
  -31.4920  -20.0710   10.8950 C   0  0  0  0  0  0  0  0  0  0  0  0
  -30.0276  -17.3006    8.0843 H   0  0  0  0  0  0  0  0  0  0  0  0
  -27.9203  -16.3318    8.8489 H   0  0  0  0  0  0  0  0  0  0  0  0
  -32.6244  -21.0887   12.2363 H   0  0  0  0  0  0  0  0  0  0  0  0
  -32.9745  -21.4034   10.5155 H   0  0  0  0  0  0  0  0  0  0  0  0
  -26.9062  -16.9941   10.9436 H   0  0  0  0  0  0  0  0  0  0  0  0
  -27.9494  -18.7354   12.3366 H   0  0  0  0  0  0  0  0  0  0  0  0
  1  4  2  0
  1  9  1  0
  2  8  1  0
  2 10  2  0
  3  9  1  0
  3 10  1  0
  4  6  1  0
  5 10  1  0
  6  7  2  0
  7  8  1  0
  8  9  2  0
  1 11  1  0
  4 12  1  0
  5 13  1  0
  5 14  1  0
  6 15  1  0
  7 16  1  0
A    1
C1
A    2
N1
A    3
S1
A    4
C2
A    5
N2
A    6
C3
A    7
C4
A    8
C5
A    9
C6
A   10
C7
M  END
