3MJ5_GRM_A_801
     RDKit          3D

 59 63  0  0  0  0  0  0  0  0999 V2000
  -18.6210   46.2440  -39.0660 C   0  0  0  0  0  0  0  0  0  0  0  0
  -19.6270   46.3800  -37.8630 C   0  0  0  0  0  0  0  0  0  0  0  0
  -18.7120   44.8990  -39.9200 C   0  0  0  0  0  0  0  0  0  0  0  0
  -17.1030   46.6510  -38.7930 N   0  0  0  0  0  0  0  0  0  0  0  0
  -16.0200   45.7380  -39.3450 C   0  0  0  0  0  0  0  0  0  0  0  0
  -14.5370   46.0460  -38.9090 C   0  0  0  0  0  0  0  0  0  0  0  0
  -14.3630   47.5270  -38.5190 C   0  0  0  0  0  0  0  0  0  0  0  0
  -15.3610   47.9260  -37.3880 C   0  0  0  0  0  0  0  0  0  0  0  0
  -16.7080   47.1220  -37.3970 C   0  0  0  0  0  0  0  0  0  0  0  0
  -12.9130   47.7370  -38.0830 C   0  0  0  0  0  0  0  0  0  0  0  0
  -12.6270   47.7180  -36.8950 O   0  0  0  0  0  0  0  0  0  0  0  0
  -11.9620   47.9310  -39.0380 N   0  0  0  0  0  0  0  0  0  0  0  0
  -10.5530   48.1280  -38.6590 C   0  0  0  0  0  0  0  0  0  0  0  0
   -9.6790   48.2140  -39.9130 C   0  0  0  0  0  0  0  0  0  0  0  0
   -9.8320   47.2170  -40.9310 C   0  0  0  0  0  0  0  0  0  0  0  0
   -9.0180   47.3230  -42.0720 C   0  0  0  0  0  0  0  0  0  0  0  0
   -8.0800   48.3570  -42.2330 C   0  0  0  0  0  0  0  0  0  0  0  0
   -7.9000   49.3780  -41.2350 C   0  0  0  0  0  0  0  0  0  0  0  0
   -8.7280   49.2830  -40.0640 C   0  0  0  0  0  0  0  0  0  0  0  0
   -9.0430   46.4560  -43.1300 O   0  0  0  0  0  0  0  0  0  0  0  0
   -8.2290   47.2260  -44.0850 C   0  0  0  0  0  0  0  0  0  0  0  0
   -7.3980   48.2470  -43.4430 O   0  0  0  0  0  0  0  0  0  0  0  0
  -18.6430   44.8190  -41.3750 C   0  0  0  0  0  0  0  0  0  0  0  0
  -18.7370   43.5070  -42.0220 C   0  0  0  0  0  0  0  0  0  0  0  0
  -18.8860   42.3430  -41.2370 C   0  0  0  0  0  0  0  0  0  0  0  0
  -18.9390   42.4160  -39.8220 C   0  0  0  0  0  0  0  0  0  0  0  0
  -18.8600   43.6620  -39.1730 C   0  0  0  0  0  0  0  0  0  0  0  0
  -18.5040   45.9530  -42.2370 C   0  0  0  0  0  0  0  0  0  0  0  0
  -18.4640   45.8050  -43.6490 C   0  0  0  0  0  0  0  0  0  0  0  0
  -18.5500   44.5130  -44.2410 C   0  0  0  0  0  0  0  0  0  0  0  0
  -18.6920   43.3640  -43.4320 C   0  0  0  0  0  0  0  0  0  0  0  0
  -19.0280   47.0426  -39.7036 H   0  0  0  0  0  0  0  0  0  0  0  0
  -19.0759   46.3055  -36.9139 H   0  0  0  0  0  0  0  0  0  0  0  0
  -20.1337   47.3548  -37.9172 H   0  0  0  0  0  0  0  0  0  0  0  0
  -20.3744   45.5747  -37.9172 H   0  0  0  0  0  0  0  0  0  0  0  0
  -16.2545   44.7124  -39.0239 H   0  0  0  0  0  0  0  0  0  0  0  0
  -16.0379   45.8974  -40.4332 H   0  0  0  0  0  0  0  0  0  0  0  0
  -14.2794   45.4155  -38.0452 H   0  0  0  0  0  0  0  0  0  0  0  0
  -13.8737   45.8312  -39.7598 H   0  0  0  0  0  0  0  0  0  0  0  0
  -14.5861   48.1732  -39.3807 H   0  0  0  0  0  0  0  0  0  0  0  0
  -14.8674   47.7589  -36.4193 H   0  0  0  0  0  0  0  0  0  0  0  0
  -15.6242   48.9801  -37.5599 H   0  0  0  0  0  0  0  0  0  0  0  0
  -17.5066   47.7689  -37.0048 H   0  0  0  0  0  0  0  0  0  0  0  0
  -16.5654   46.2277  -36.7726 H   0  0  0  0  0  0  0  0  0  0  0  0
  -12.2302   47.9400  -40.0324 H   0  0  0  0  0  0  0  0  0  0  0  0
  -10.4577   49.0610  -38.0842 H   0  0  0  0  0  0  0  0  0  0  0  0
  -10.2220   47.2763  -38.0467 H   0  0  0  0  0  0  0  0  0  0  0  0
  -10.5596   46.3990  -40.8234 H   0  0  0  0  0  0  0  0  0  0  0  0
   -7.1672   50.1886  -41.3617 H   0  0  0  0  0  0  0  0  0  0  0  0
   -8.6331   50.0393  -39.2709 H   0  0  0  0  0  0  0  0  0  0  0  0
   -7.5715   46.5291  -44.6254 H   0  0  0  0  0  0  0  0  0  0  0  0
   -8.9233   47.7470  -44.7606 H   0  0  0  0  0  0  0  0  0  0  0  0
  -18.9622   41.3633  -41.7313 H   0  0  0  0  0  0  0  0  0  0  0  0
  -19.0423   41.4951  -39.2293 H   0  0  0  0  0  0  0  0  0  0  0  0
  -18.9115   43.7002  -38.0749 H   0  0  0  0  0  0  0  0  0  0  0  0
  -18.4267   46.9584  -41.7975 H   0  0  0  0  0  0  0  0  0  0  0  0
  -18.3660   46.6941  -44.2892 H   0  0  0  0  0  0  0  0  0  0  0  0
  -18.5056   44.4090  -45.3352 H   0  0  0  0  0  0  0  0  0  0  0  0
  -18.7670   42.3674  -43.8915 H   0  0  0  0  0  0  0  0  0  0  0  0
  1  2  1  0
  1  3  1  0
  1  4  1  0
  3 23  2  0
  3 27  1  0
  4  5  1  0
  4  9  1  0
  5  6  1  0
  6  7  1  0
  7  8  1  0
  7 10  1  0
  8  9  1  0
 10 11  2  0
 10 12  1  0
 12 13  1  0
 13 14  1  0
 14 15  2  0
 14 19  1  0
 15 16  1  0
 16 17  2  0
 16 20  1  0
 17 18  1  0
 17 22  1  0
 18 19  2  0
 20 21  1  0
 21 22  1  0
 23 24  1  0
 23 28  1  0
 24 25  2  0
 24 31  1  0
 25 26  1  0
 26 27  2  0
 28 29  2  0
 29 30  1  0
 30 31  2  0
  1 32  1  0
  2 33  1  0
  2 34  1  0
  2 35  1  0
  5 36  1  0
  5 37  1  0
  6 38  1  0
  6 39  1  0
  7 40  1  0
  8 41  1  0
  8 42  1  0
  9 43  1  0
  9 44  1  0
 12 45  1  0
 13 46  1  0
 13 47  1  0
 15 48  1  0
 18 49  1  0
 19 50  1  0
 21 51  1  0
 21 52  1  0
 25 53  1  0
 26 54  1  0
 27 55  1  0
 28 56  1  0
 29 57  1  0
 30 58  1  0
 31 59  1  0
A    1
C1
A    2
C2
A    3
C3
A    4
N4
A    5
C5
A    6
C6
A    7
C7
A    8
C8
A    9
C9
A   10
C10
A   11
O11
A   12
N12
A   13
C13
A   14
C14
A   15
C15
A   16
C16
A   17
C17
A   18
C18
A   19
C19
A   20
O20
A   21
C21
A   22
O22
A   23
C23
A   24
C24
A   25
C25
A   26
C26
A   27
C27
A   28
C28
A   29
C29
A   30
C30
A   31
C31
M  END
