3MKS_C1C_D_1
     RDKit          3D

 40 43  0  0  0  0  0  0  0  0999 V2000
  171.3980   34.3160  -52.1780 C   0  0  0  0  0  0  0  0  0  0  0  0
  170.7940   35.1430  -53.1080 C   0  0  0  0  0  0  0  0  0  0  0  0
  171.4000   35.3260  -54.3500 C   0  0  0  0  0  0  0  0  0  0  0  0
  172.6200   34.6450  -54.6670 C   0  0  0  0  0  0  0  0  0  0  0  0
  173.2050   33.7990  -53.7110 C   0  0  0  0  0  0  0  0  0  0  0  0
  172.5980   33.6510  -52.4740 C   0  0  0  0  0  0  0  0  0  0  0  0
  170.7700   36.1640  -55.2780 C   0  0  0  0  0  0  0  0  0  0  0  0
  171.3890   36.3120  -56.5240 C   0  0  0  0  0  0  0  0  0  0  0  0
  172.5930   35.6460  -56.8290 C   0  0  0  0  0  0  0  0  0  0  0  0
  173.2270   34.7880  -55.9250 C   0  0  0  0  0  0  0  0  0  0  0  0
  174.4300   34.0990  -56.1690 C   0  0  0  0  0  0  0  0  0  0  0  0
  175.6580   34.7700  -56.0510 C   0  0  0  0  0  0  0  0  0  0  0  0
  176.8530   34.1010  -56.2260 C   0  0  0  0  0  0  0  0  0  0  0  0
  176.8650   32.7470  -56.5150 C   0  0  0  0  0  0  0  0  0  0  0  0
  175.6670   32.0560  -56.6300 C   0  0  0  0  0  0  0  0  0  0  0  0
  174.4650   32.7260  -56.4590 C   0  0  0  0  0  0  0  0  0  0  0  0
  175.7020   36.1290  -55.7350 C   0  0  0  0  0  0  0  0  0  0  0  0
  176.9080   36.8010  -55.6360 C   0  0  0  0  0  0  0  0  0  0  0  0
  178.1200   36.1220  -55.8330 C   0  0  0  0  0  0  0  0  0  0  0  0
  178.0720   34.7690  -56.1140 C   0  0  0  0  0  0  0  0  0  0  0  0
  173.2310   31.8710  -56.5780 C   0  0  0  0  0  0  0  0  0  0  0  0
  173.2510   30.7740  -55.9170 O   0  0  0  0  0  0  0  0  0  0  0  0
  172.2770   32.3330  -57.2520 O   0  0  0  0  0  0  0  0  0  0  0  0
  173.1690   35.8640  -58.1930 C   0  0  0  0  0  0  0  0  0  0  0  0
  173.3060   34.8500  -58.8830 O   0  0  0  0  0  0  0  0  0  0  0  0
  173.4250   37.0070  -58.5590 O   0  0  0  0  0  0  0  0  0  0  0  0
  170.9308   34.1775  -51.1918 H   0  0  0  0  0  0  0  0  0  0  0  0
  169.8472   35.6500  -52.8704 H   0  0  0  0  0  0  0  0  0  0  0  0
  174.1354   33.2594  -53.9416 H   0  0  0  0  0  0  0  0  0  0  0  0
  173.0624   33.0044  -51.7148 H   0  0  0  0  0  0  0  0  0  0  0  0
  169.8302   36.6829  -55.0382 H   0  0  0  0  0  0  0  0  0  0  0  0
  170.9262   36.9618  -57.2814 H   0  0  0  0  0  0  0  0  0  0  0  0
  177.8210   32.2207  -56.6530 H   0  0  0  0  0  0  0  0  0  0  0  0
  175.6709   30.9795  -56.8562 H   0  0  0  0  0  0  0  0  0  0  0  0
  174.7628   36.6748  -55.5618 H   0  0  0  0  0  0  0  0  0  0  0  0
  176.9163   37.8756  -55.4011 H   0  0  0  0  0  0  0  0  0  0  0  0
  179.0818   36.6515  -55.7657 H   0  0  0  0  0  0  0  0  0  0  0  0
  179.0099   34.2109  -56.2513 H   0  0  0  0  0  0  0  0  0  0  0  0
  173.2507   30.7924  -54.9272 H   0  0  0  0  0  0  0  0  0  0  0  0
  173.5841   37.7176  -57.8883 H   0  0  0  0  0  0  0  0  0  0  0  0
  2  1  2  0
  6  1  1  0
  3  2  1  0
  7  3  2  0
  4  3  1  0
 10  4  2  0
  4  5  1  0
  5  6  2  0
  8  7  1  0
  9  8  2  0
 24  9  1  0
  9 10  1  0
 11 10  1  0
 16 11  1  0
 11 12  2  0
 13 12  1  0
 12 17  1  0
 14 13  2  0
 13 20  1  0
 15 14  1  0
 15 16  2  0
 21 16  1  0
 17 18  2  0
 19 18  1  0
 20 19  2  0
 23 21  2  0
 21 22  1  0
 25 24  2  0
 26 24  1  0
  1 27  1  0
  2 28  1  0
  5 29  1  0
  6 30  1  0
  7 31  1  0
  8 32  1  0
 14 33  1  0
 15 34  1  0
 17 35  1  0
 18 36  1  0
 19 37  1  0
 20 38  1  0
 22 39  1  0
 26 40  1  0
A    1
C1
A    2
C2
A    3
C3
A    4
C4
A    5
C5
A    6
C6
A    7
C7
A    8
C8
A    9
C9
A   10
C10
A   11
C11
A   12
C12
A   13
C13
A   14
C14
A   15
C15
A   16
C16
A   17
C17
A   18
C18
A   19
C19
A   20
C20
A   21
C21
A   22
O22
A   23
O23
A   24
C24
A   25
O25
A   26
O26
M  END
