3ML8_ML8_A_9999
     RDKit          3D

 51 54  0  0  0  0  0  0  0  0999 V2000
   40.2380   13.7910   32.4470 C   0  0  0  0  0  0  0  0  0  0  0  0
   41.5660   14.1840   32.1430 C   0  0  0  0  0  0  0  0  0  0  0  0
   39.6270   12.7330   31.7470 C   0  0  0  0  0  0  0  0  0  0  0  0
   41.6660   12.4480   30.4330 C   0  0  0  0  0  0  0  0  0  0  0  0
   42.3300   13.5260   31.1230 C   0  0  0  0  0  0  0  0  0  0  0  0
   45.8860   13.4610   29.5700 C   0  0  0  0  0  0  0  0  0  0  0  0
   40.3350   12.0580   30.7410 C   0  0  0  0  0  0  0  0  0  0  0  0
   46.6520   12.6540   28.7130 C   0  0  0  0  0  0  0  0  0  0  0  0
   46.5250   14.6090   30.0580 C   0  0  0  0  0  0  0  0  0  0  0  0
   48.5040   14.0890   28.8870 C   0  0  0  0  0  0  0  0  0  0  0  0
   44.5090   13.1680   29.9570 C   0  0  0  0  0  0  0  0  0  0  0  0
   43.7710   13.9470   30.7860 C   0  0  0  0  0  0  0  0  0  0  0  0
   44.4530   15.2230   31.3380 C   0  0  0  0  0  0  0  0  0  0  0  0
   45.6370   18.7060   32.5290 C   0  0  0  0  0  0  0  0  0  0  0  0
   46.7590   18.1170   33.3850 C   0  0  0  0  0  0  0  0  0  0  0  0
   45.8050   18.0450   31.1630 C   0  0  0  0  0  0  0  0  0  0  0  0
   46.8160   16.6580   32.9510 C   0  0  0  0  0  0  0  0  0  0  0  0
   46.5610   16.7130   31.4280 C   0  0  0  0  0  0  0  0  0  0  0  0
   46.1190   11.4020   28.0970 C   0  0  0  0  0  0  0  0  0  0  0  0
   50.6420   15.1800   29.4370 C   0  0  0  0  0  0  0  0  0  0  0  0
   39.6980   10.9430   29.9960 C   0  0  0  0  0  0  0  0  0  0  0  0
   47.9480   12.9570   28.3740 N   0  0  0  0  0  0  0  0  0  0  0  0
   47.8090   14.9120   29.7190 N   0  0  0  0  0  0  0  0  0  0  0  0
   45.8060   15.4890   30.9410 N   0  0  0  0  0  0  0  0  0  0  0  0
   49.8400   14.3840   28.5160 N   0  0  0  0  0  0  0  0  0  0  0  0
   43.8320   15.9730   32.0960 O   0  0  0  0  0  0  0  0  0  0  0  0
   38.9470   11.4880   28.9150 O   0  0  0  0  0  0  0  0  0  0  0  0
   39.6805   14.3169   33.2361 H   0  0  0  0  0  0  0  0  0  0  0  0
   42.0215   15.0139   32.7032 H   0  0  0  0  0  0  0  0  0  0  0  0
   38.5958   12.4360   31.9885 H   0  0  0  0  0  0  0  0  0  0  0  0
   42.2081   11.9096   29.6417 H   0  0  0  0  0  0  0  0  0  0  0  0
   44.0413   12.2590   29.5509 H   0  0  0  0  0  0  0  0  0  0  0  0
   44.6536   18.4645   32.9586 H   0  0  0  0  0  0  0  0  0  0  0  0
   45.6902   19.8031   32.4702 H   0  0  0  0  0  0  0  0  0  0  0  0
   47.7140   18.6240   33.1829 H   0  0  0  0  0  0  0  0  0  0  0  0
   46.5787   18.2342   34.4638 H   0  0  0  0  0  0  0  0  0  0  0  0
   44.8224   17.8445   30.7109 H   0  0  0  0  0  0  0  0  0  0  0  0
   46.3565   18.6919   30.4650 H   0  0  0  0  0  0  0  0  0  0  0  0
   47.8033   16.2237   33.1671 H   0  0  0  0  0  0  0  0  0  0  0  0
   46.0856   16.0290   33.4809 H   0  0  0  0  0  0  0  0  0  0  0  0
   47.5025   16.6955   30.8594 H   0  0  0  0  0  0  0  0  0  0  0  0
   45.8206   10.7011   28.8906 H   0  0  0  0  0  0  0  0  0  0  0  0
   45.2455   11.6432   27.4734 H   0  0  0  0  0  0  0  0  0  0  0  0
   46.8983   10.9396   27.4734 H   0  0  0  0  0  0  0  0  0  0  0  0
   50.3787   14.9186   30.4725 H   0  0  0  0  0  0  0  0  0  0  0  0
   51.7089   14.9735   29.2667 H   0  0  0  0  0  0  0  0  0  0  0  0
   50.4436   16.2485   29.2667 H   0  0  0  0  0  0  0  0  0  0  0  0
   40.4735   10.2680   29.6050 H   0  0  0  0  0  0  0  0  0  0  0  0
   39.0349   10.3750   30.6650 H   0  0  0  0  0  0  0  0  0  0  0  0
   50.2313   14.0469   27.6248 H   0  0  0  0  0  0  0  0  0  0  0  0
   38.1998   12.0302   29.2725 H   0  0  0  0  0  0  0  0  0  0  0  0
  2  1  2  0
  3  1  1  0
  4  7  1  0
  4  5  2  0
  5  2  1  0
  6 11  1  0
  6  9  1  0
  7  3  2  0
  8  6  2  0
  9 24  1  0
 10 23  1  0
 11 12  2  0
 12  5  1  0
 12 13  1  0
 13 26  2  0
 14 15  1  0
 16 14  1  0
 16 18  1  0
 17 15  1  0
 18 17  1  0
 19  8  1  0
 21  7  1  0
 22  8  1  0
 22 10  2  0
 23  9  2  0
 24 13  1  0
 24 18  1  0
 25 10  1  0
 25 20  1  0
 27 21  1  0
  1 28  1  0
  2 29  1  0
  3 30  1  0
  4 31  1  0
 11 32  1  0
 14 33  1  0
 14 34  1  0
 15 35  1  0
 15 36  1  0
 16 37  1  0
 16 38  1  0
 17 39  1  0
 17 40  1  0
 18 41  1  0
 19 42  1  0
 19 43  1  0
 19 44  1  0
 20 45  1  0
 20 46  1  0
 20 47  1  0
 21 48  1  0
 21 49  1  0
 25 50  1  0
 27 51  1  0
A    1
C24
A    2
C25
A    3
C23
A    4
C21
A    5
C14
A    6
C1
A    7
C22
A    8
C6
A    9
C2
A   10
C4
A   11
C9
A   12
C10
A   13
C11
A   14
C16
A   15
C17
A   16
C15
A   17
C18
A   18
C8
A   19
C13
A   20
C19
A   21
C26
A   22
N5
A   23
N3
A   24
N7
A   25
N20
A   26
O12
A   27
O27
M  END
