3ML9_ML9_A_9999
     RDKit          3D

 58 61  0  0  0  0  0  0  0  0999 V2000
   42.1360   14.0480   32.8230 C   0  0  0  0  0  0  0  0  0  0  0  0
   40.8770   13.7520   33.3550 C   0  0  0  0  0  0  0  0  0  0  0  0
   41.4270   13.2580   30.6630 C   0  0  0  0  0  0  0  0  0  0  0  0
   42.4720   13.8180   31.4550 C   0  0  0  0  0  0  0  0  0  0  0  0
   45.7950   13.5940   29.5250 C   0  0  0  0  0  0  0  0  0  0  0  0
   46.4430   12.7580   28.5980 C   0  0  0  0  0  0  0  0  0  0  0  0
   46.5200   14.7270   29.9320 C   0  0  0  0  0  0  0  0  0  0  0  0
   39.9240   13.2110   32.4990 C   0  0  0  0  0  0  0  0  0  0  0  0
   48.3390   14.1230   28.5740 C   0  0  0  0  0  0  0  0  0  0  0  0
   44.4530   13.3450   30.0590 C   0  0  0  0  0  0  0  0  0  0  0  0
   43.8490   14.1590   30.9400 C   0  0  0  0  0  0  0  0  0  0  0  0
   44.5950   15.4080   31.3970 C   0  0  0  0  0  0  0  0  0  0  0  0
   45.9250   18.1900   30.9820 C   0  0  0  0  0  0  0  0  0  0  0  0
   47.1110   16.7740   32.8060 C   0  0  0  0  0  0  0  0  0  0  0  0
   46.7130   19.4200   31.4470 C   0  0  0  0  0  0  0  0  0  0  0  0
   47.8960   18.0330   33.2240 C   0  0  0  0  0  0  0  0  0  0  0  0
   46.6960   16.8630   31.2990 C   0  0  0  0  0  0  0  0  0  0  0  0
   47.0620   19.3070   32.9540 C   0  0  0  0  0  0  0  0  0  0  0  0
   45.8150   11.5160   28.0440 C   0  0  0  0  0  0  0  0  0  0  0  0
   37.7090   12.3850   32.2490 C   0  0  0  0  0  0  0  0  0  0  0  0
   47.9050   22.5730   34.4790 C   0  0  0  0  0  0  0  0  0  0  0  0
   47.0370   21.3660   34.1800 C   0  0  0  0  0  0  0  0  0  0  0  0
   40.1740   12.9540   31.1540 N   0  0  0  0  0  0  0  0  0  0  0  0
   47.7000   13.0150   28.1300 N   0  0  0  0  0  0  0  0  0  0  0  0
   47.7800   14.9770   29.4560 N   0  0  0  0  0  0  0  0  0  0  0  0
   45.9050   15.6370   30.8730 N   0  0  0  0  0  0  0  0  0  0  0  0
   49.6190   14.3930   28.1040 N   0  0  0  0  0  0  0  0  0  0  0  0
   44.0460   16.1770   32.2070 O   0  0  0  0  0  0  0  0  0  0  0  0
   48.0420   23.3480   33.2880 O   0  0  0  0  0  0  0  0  0  0  0  0
   38.6950   12.9420   33.1040 O   0  0  0  0  0  0  0  0  0  0  0  0
   47.7820   20.4910   33.3230 O   0  0  0  0  0  0  0  0  0  0  0  0
   42.9005   14.4767   33.4877 H   0  0  0  0  0  0  0  0  0  0  0  0
   40.6484   13.9407   34.4143 H   0  0  0  0  0  0  0  0  0  0  0  0
   41.6312   13.0571   29.6010 H   0  0  0  0  0  0  0  0  0  0  0  0
   43.9141   12.4474   29.7216 H   0  0  0  0  0  0  0  0  0  0  0  0
   45.7624   18.2587   29.8963 H   0  0  0  0  0  0  0  0  0  0  0  0
   44.9658   18.1698   31.5201 H   0  0  0  0  0  0  0  0  0  0  0  0
   46.2066   16.6886   33.4263 H   0  0  0  0  0  0  0  0  0  0  0  0
   47.7520   15.8913   32.9474 H   0  0  0  0  0  0  0  0  0  0  0  0
   47.6435   19.4945   30.8650 H   0  0  0  0  0  0  0  0  0  0  0  0
   46.0947   20.3166   31.2924 H   0  0  0  0  0  0  0  0  0  0  0  0
   48.1294   17.9741   34.2973 H   0  0  0  0  0  0  0  0  0  0  0  0
   48.8241   18.0846   32.6359 H   0  0  0  0  0  0  0  0  0  0  0  0
   47.6214   16.8837   30.7046 H   0  0  0  0  0  0  0  0  0  0  0  0
   46.1471   19.2233   33.5589 H   0  0  0  0  0  0  0  0  0  0  0  0
   45.4882   10.8697   28.8720 H   0  0  0  0  0  0  0  0  0  0  0  0
   44.9463   11.7884   27.4266 H   0  0  0  0  0  0  0  0  0  0  0  0
   46.5493   10.9779   27.4266 H   0  0  0  0  0  0  0  0  0  0  0  0
   36.9101   11.9337   32.8557 H   0  0  0  0  0  0  0  0  0  0  0  0
   37.2845   13.1767   31.6142 H   0  0  0  0  0  0  0  0  0  0  0  0
   38.1680   11.6128   31.6142 H   0  0  0  0  0  0  0  0  0  0  0  0
   48.8966   22.2400   34.8194 H   0  0  0  0  0  0  0  0  0  0  0  0
   47.4400   23.1811   35.2689 H   0  0  0  0  0  0  0  0  0  0  0  0
   46.7836   20.8464   35.1159 H   0  0  0  0  0  0  0  0  0  0  0  0
   46.1019   21.6772   33.6915 H   0  0  0  0  0  0  0  0  0  0  0  0
   50.3883   14.5553   28.7693 H   0  0  0  0  0  0  0  0  0  0  0  0
   49.7981   14.4308   27.0904 H   0  0  0  0  0  0  0  0  0  0  0  0
   48.2092   24.2940   33.5273 H   0  0  0  0  0  0  0  0  0  0  0  0
  4  1  2  0
  1  2  1  0
  8  2  2  0
  3 23  2  0
  3  4  1  0
 11  4  1  0
  6  5  2  0
  5  7  1  0
  5 10  1  0
 19  6  1  0
 24  6  1  0
 25  7  2  0
  7 26  1  0
 23  8  1  0
  8 30  1  0
 27  9  1  0
 24  9  2  0
  9 25  1  0
 10 11  2  0
 11 12  1  0
 26 12  1  0
 12 28  2  0
 13 17  1  0
 13 15  1  0
 17 14  1  0
 14 16  1  0
 15 18  1  0
 18 16  1  0
 26 17  1  0
 18 31  1  0
 20 30  1  0
 29 21  1  0
 22 21  1  0
 31 22  1  0
  1 32  1  0
  2 33  1  0
  3 34  1  0
 10 35  1  0
 13 36  1  0
 13 37  1  0
 14 38  1  0
 14 39  1  0
 15 40  1  0
 15 41  1  0
 16 42  1  0
 16 43  1  0
 17 44  1  0
 18 45  1  0
 19 46  1  0
 19 47  1  0
 19 48  1  0
 20 49  1  0
 20 50  1  0
 20 51  1  0
 21 52  1  0
 21 53  1  0
 22 54  1  0
 22 55  1  0
 27 56  1  0
 27 57  1  0
 29 58  1  0
A    1
C14
A    2
C15
A    3
C18
A    4
C13
A    5
C5
A    6
C6
A    7
C4
A    8
C16
A    9
C2
A   10
C10
A   11
C9
A   12
C8
A   13
C23
A   14
C27
A   15
C24
A   16
C26
A   17
C22
A   18
C25
A   19
C21
A   20
C20
A   21
C30
A   22
C29
A   23
N17
A   24
N1
A   25
N3
A   26
N7
A   27
N12
A   28
O11
A   29
O31
A   30
O19
A   31
O28
M  END
