3MLA_JJZ_A_190
     RDKit          3D

 51 54  0  0  0  0  0  0  0  0999 V2000
    4.3100  -33.3920  -10.8660 C   0  0  0  0  0  0  0  0  0  0  0  0
    4.2440  -32.2900  -11.6960 C   0  0  0  0  0  0  0  0  0  0  0  0
    5.3710  -31.5020  -11.8700 C   0  0  0  0  0  0  0  0  0  0  0  0
    9.6090  -32.5390  -11.1240 O   0  0  0  0  0  0  0  0  0  0  0  0
   11.7020  -28.6140  -12.4240 O   0  0  0  0  0  0  0  0  0  0  0  0
    5.5530  -35.0870   -9.1990 Cl  0  0  0  0  0  0  0  0  0  0  0  0
    5.4980  -33.7030  -10.2310 C   0  0  0  0  0  0  0  0  0  0  0  0
    6.6270  -32.9180  -10.4110 C   0  0  0  0  0  0  0  0  0  0  0  0
    6.5640  -31.8020  -11.2320 C   0  0  0  0  0  0  0  0  0  0  0  0
    7.6940  -30.9600  -11.4940 N   0  0  0  0  0  0  0  0  0  0  0  0
    8.9560  -31.4180  -11.4680 C   0  0  0  0  0  0  0  0  0  0  0  0
    9.9350  -30.3210  -11.8040 C   0  0  0  0  0  0  0  0  0  0  0  0
   11.3270  -30.8570  -12.0050 C   0  0  0  0  0  0  0  0  0  0  0  0
   12.3150  -29.8010  -12.4170 C   0  0  0  0  0  0  0  0  0  0  0  0
   13.5450  -30.3100  -12.6730 N   0  0  0  0  0  0  0  0  0  0  0  0
   13.7460  -31.4480  -13.3670 N   0  0  0  0  0  0  0  0  0  0  0  0
   14.8880  -31.6800  -13.9670 C   0  0  0  0  0  0  0  0  0  0  0  0
   19.0920  -32.0770  -13.9800 C   0  0  0  0  0  0  0  0  0  0  0  0
   17.7070  -31.9830  -13.9820 C   0  0  0  0  0  0  0  0  0  0  0  0
   16.9230  -33.1280  -14.0040 C   0  0  0  0  0  0  0  0  0  0  0  0
   15.5310  -33.0290  -14.0000 C   0  0  0  0  0  0  0  0  0  0  0  0
   14.7590  -34.1910  -14.0320 C   0  0  0  0  0  0  0  0  0  0  0  0
   13.3720  -34.1200  -14.0310 C   0  0  0  0  0  0  0  0  0  0  0  0
   12.6160  -35.2820  -14.0560 C   0  0  0  0  0  0  0  0  0  0  0  0
   19.7020  -33.3200  -14.0060 C   0  0  0  0  0  0  0  0  0  0  0  0
   18.9230  -34.4700  -14.0300 C   0  0  0  0  0  0  0  0  0  0  0  0
   17.5390  -34.3720  -14.0260 C   0  0  0  0  0  0  0  0  0  0  0  0
   16.7680  -35.5250  -14.0540 C   0  0  0  0  0  0  0  0  0  0  0  0
   15.3810  -35.4360  -14.0550 C   0  0  0  0  0  0  0  0  0  0  0  0
   14.6190  -36.6000  -14.0780 C   0  0  0  0  0  0  0  0  0  0  0  0
   13.2340  -36.5240  -14.0790 C   0  0  0  0  0  0  0  0  0  0  0  0
    3.4204  -34.0201  -10.7107 H   0  0  0  0  0  0  0  0  0  0  0  0
    3.3063  -32.0401  -12.2139 H   0  0  0  0  0  0  0  0  0  0  0  0
    5.3173  -30.6215  -12.5272 H   0  0  0  0  0  0  0  0  0  0  0  0
    7.5681  -33.1793   -9.9050 H   0  0  0  0  0  0  0  0  0  0  0  0
    7.5319  -29.9661  -11.7104 H   0  0  0  0  0  0  0  0  0  0  0  0
    9.6082  -29.8229  -12.7287 H   0  0  0  0  0  0  0  0  0  0  0  0
    9.9590  -29.6140  -10.9616 H   0  0  0  0  0  0  0  0  0  0  0  0
   11.6685  -31.3058  -11.0606 H   0  0  0  0  0  0  0  0  0  0  0  0
   11.2786  -31.5947  -12.8195 H   0  0  0  0  0  0  0  0  0  0  0  0
   14.3678  -29.8014  -12.3193 H   0  0  0  0  0  0  0  0  0  0  0  0
   15.3964  -30.8438  -14.4692 H   0  0  0  0  0  0  0  0  0  0  0  0
   19.7051  -31.1640  -13.9578 H   0  0  0  0  0  0  0  0  0  0  0  0
   17.2272  -30.9933  -13.9660 H   0  0  0  0  0  0  0  0  0  0  0  0
   12.8724  -33.1402  -14.0103 H   0  0  0  0  0  0  0  0  0  0  0  0
   11.5178  -35.2187  -14.0576 H   0  0  0  0  0  0  0  0  0  0  0  0
   20.7993  -33.3965  -14.0076 H   0  0  0  0  0  0  0  0  0  0  0  0
   19.4038  -35.4591  -14.0522 H   0  0  0  0  0  0  0  0  0  0  0  0
   17.2551  -36.5110  -14.0754 H   0  0  0  0  0  0  0  0  0  0  0  0
   15.1154  -37.5815  -14.0954 H   0  0  0  0  0  0  0  0  0  0  0  0
   12.6294  -37.4427  -14.0979 H   0  0  0  0  0  0  0  0  0  0  0  0
  1  2  2  0
  1  7  1  0
  2  3  1  0
  3  9  2  0
  4 11  2  0
  5 14  2  0
  6  7  1  0
  7  8  2  0
  8  9  1  0
  9 10  1  0
 10 11  1  0
 11 12  1  0
 12 13  1  0
 13 14  1  0
 14 15  1  0
 15 16  1  0
 16 17  2  0
 17 21  1  0
 18 19  2  0
 18 25  1  0
 19 20  1  0
 20 21  2  0
 20 27  1  0
 21 22  1  0
 22 23  2  0
 22 29  1  0
 23 24  1  0
 24 31  2  0
 25 26  2  0
 26 27  1  0
 27 28  2  0
 28 29  1  0
 29 30  2  0
 30 31  1  0
  1 32  1  0
  2 33  1  0
  3 34  1  0
  8 35  1  0
 10 36  1  0
 12 37  1  0
 12 38  1  0
 13 39  1  0
 13 40  1  0
 15 41  1  0
 17 42  1  0
 18 43  1  0
 19 44  1  0
 23 45  1  0
 24 46  1  0
 25 47  1  0
 26 48  1  0
 28 49  1  0
 30 50  1  0
 31 51  1  0
A    1
CAA
A    2
CAB
A    3
CAC
A    4
OAD
A    5
OAE
A    6
CLAF
A    7
CAG
A    8
CAH
A    9
CAI
A   10
NAJ
A   11
CAK
A   12
CAL
A   13
CAM
A   14
CAN
A   15
NAO
A   16
NAP
A   17
CAQ
A   18
CAR
A   19
CAS
A   20
CAT
A   21
CAU
A   22
CAV
A   23
CAW
A   24
CAX
A   25
CAY
A   26
CAZ
A   27
CBA
A   28
CBB
A   29
CBC
A   30
CBD
A   31
CBE
M  END
