3MNA_DWH_A_263
     RDKit          3D

 37 38  0  0  0  0  0  0  0  0999 V2000
   -5.2200    2.6390   15.7540 C   0  0  0  0  0  0  0  0  0  0  0  0
   -5.3950   -0.0150   16.0790 N   0  0  0  0  0  0  0  0  0  0  0  0
   -7.3310    1.5100   16.6350 O   0  0  0  0  0  0  0  0  0  0  0  0
   -5.8860    1.3350   16.7470 S   0  0  0  0  0  0  0  0  0  0  0  0
   -6.1000    3.7450   15.2940 C   0  0  0  0  0  0  0  0  0  0  0  0
   -5.3270    1.5240   18.0710 O   0  0  0  0  0  0  0  0  0  0  0  0
   -5.6000    4.7620   14.5530 C   0  0  0  0  0  0  0  0  0  0  0  0
   -4.1780    4.7370   14.2180 C   0  0  0  0  0  0  0  0  0  0  0  0
   -3.3630    3.7420   14.6190 C   0  0  0  0  0  0  0  0  0  0  0  0
   -3.8970    2.6560   15.4170 C   0  0  0  0  0  0  0  0  0  0  0  0
   -3.5240    5.7510   13.5140 N   0  0  0  0  0  0  0  0  0  0  0  0
   -4.1280    6.6130   12.6130 C   0  0  0  0  0  0  0  0  0  0  0  0
   -3.2450    7.6020   12.1200 N   0  0  0  0  0  0  0  0  0  0  0  0
   -3.7080    8.4890   11.3030 C   0  0  0  0  0  0  0  0  0  0  0  0
   -2.8580    9.5030   10.8120 N   0  0  0  0  0  0  0  0  0  0  0  0
   -5.0700    8.4840   10.9340 N   0  0  0  0  0  0  0  0  0  0  0  0
   -5.8540    7.5600   11.4100 C   0  0  0  0  0  0  0  0  0  0  0  0
   -7.4770    7.5490   10.9190 Cl  0  0  0  0  0  0  0  0  0  0  0  0
   -5.3860    6.5770   12.3180 N   0  0  0  0  0  0  0  0  0  0  0  0
   -1.4510    9.3600   11.0240 C   0  0  0  0  0  0  0  0  0  0  0  0
   -0.9020    8.5610    9.8920 C   0  0  0  0  0  0  0  0  0  0  0  0
    0.7800    7.9600    8.4800 C   0  0  0  0  0  0  0  0  0  0  0  0
    0.3040    8.6850    9.5590 O   0  0  0  0  0  0  0  0  0  0  0  0
   -1.6470    7.7850    9.2350 O   0  0  0  0  0  0  0  0  0  0  0  0
   -5.1486   -0.6924   16.8148 H   0  0  0  0  0  0  0  0  0  0  0  0
   -6.1489   -0.4026   15.4940 H   0  0  0  0  0  0  0  0  0  0  0  0
   -7.1678    3.7372   15.5581 H   0  0  0  0  0  0  0  0  0  0  0  0
   -6.2465    5.5843   14.2126 H   0  0  0  0  0  0  0  0  0  0  0  0
   -2.2984    3.7536   14.3424 H   0  0  0  0  0  0  0  0  0  0  0  0
   -3.2349    1.8439   15.7518 H   0  0  0  0  0  0  0  0  0  0  0  0
   -2.5137    5.8669   13.6775 H   0  0  0  0  0  0  0  0  0  0  0  0
   -3.2395   10.3212   10.3160 H   0  0  0  0  0  0  0  0  0  0  0  0
   -0.9733   10.3505   11.0500 H   0  0  0  0  0  0  0  0  0  0  0  0
   -1.2546    8.8567   11.9822 H   0  0  0  0  0  0  0  0  0  0  0  0
    1.3497    7.0923    8.8439 H   0  0  0  0  0  0  0  0  0  0  0  0
   -0.0665    7.6129    7.8693 H   0  0  0  0  0  0  0  0  0  0  0  0
    1.4350    8.5988    7.8693 H   0  0  0  0  0  0  0  0  0  0  0  0
  5  1  2  0
 10  1  1  0
  1  4  1  0
  2  4  1  0
  3  4  2  0
  4  6  2  0
  7  5  1  0
  8  7  2  0
 11  8  1  0
  8  9  1  0
  9 10  2  0
 12 11  1  0
 13 12  2  0
 19 12  1  0
 14 13  1  0
 15 14  1  0
 16 14  2  0
 15 20  1  0
 16 17  1  0
 18 17  1  0
 17 19  2  0
 21 20  1  0
 24 21  2  0
 23 21  1  0
 22 23  1  0
  2 25  1  0
  2 26  1  0
  5 27  1  0
  7 28  1  0
  9 29  1  0
 10 30  1  0
 11 31  1  0
 15 32  1  0
 20 33  1  0
 20 34  1  0
 22 35  1  0
 22 36  1  0
 22 37  1  0
A    1
C1
A    2
N1
A    3
O1
A    4
S1
A    5
C2
A    6
O2
A    7
C3
A    8
C4
A    9
C5
A   10
C6
A   11
N7
A   12
C8
A   13
N9
A   14
C10
A   15
N11
A   16
N12
A   17
C13
A   18
CL13
A   19
N14
A   20
C15
A   21
C16
A   22
C17
A   23
O17
A   24
O18
M  END
