3MO0_E11_A_2001
     RDKit          3D

 73 76  0  0  0  0  0  0  0  0999 V2000
  -20.1470   -8.2050   25.6820 N   0  0  0  0  0  0  0  0  0  0  0  0
  -19.1590   -9.0950   25.8610 C   0  0  0  0  0  0  0  0  0  0  0  0
  -18.1410   -9.1720   24.9910 N   0  0  0  0  0  0  0  0  0  0  0  0
  -18.0900   -8.3680   23.9200 C   0  0  0  0  0  0  0  0  0  0  0  0
  -19.1060   -7.4430   23.7080 C   0  0  0  0  0  0  0  0  0  0  0  0
  -20.1460   -7.3750   24.6290 C   0  0  0  0  0  0  0  0  0  0  0  0
  -17.0340   -8.4560   23.0180 C   0  0  0  0  0  0  0  0  0  0  0  0
  -17.0000   -7.6240   21.9030 C   0  0  0  0  0  0  0  0  0  0  0  0
  -18.0240   -6.7080   21.6860 C   0  0  0  0  0  0  0  0  0  0  0  0
  -19.0760   -6.6140   22.5930 C   0  0  0  0  0  0  0  0  0  0  0  0
  -18.0110   -5.9640   20.5470 O   0  0  0  0  0  0  0  0  0  0  0  0
  -15.9540   -7.6590   21.0310 O   0  0  0  0  0  0  0  0  0  0  0  0
  -21.0800   -6.4360   24.4980 N   0  0  0  0  0  0  0  0  0  0  0  0
  -19.1860   -9.9290   26.8970 N   0  0  0  0  0  0  0  0  0  0  0  0
  -20.2800   -9.8900   27.8770 C   0  0  0  0  0  0  0  0  0  0  0  0
  -21.5950  -10.2810   27.2010 C   0  0  0  0  0  0  0  0  0  0  0  0
  -22.7100  -10.4420   28.2360 C   0  0  0  0  0  0  0  0  0  0  0  0
  -22.1600  -10.8740   29.5300 N   0  0  0  0  0  0  0  0  0  0  0  0
  -22.7530  -12.1610   29.9230 C   0  0  0  0  0  0  0  0  0  0  0  0
  -20.6970  -11.0010   29.4540 C   0  0  0  0  0  0  0  0  0  0  0  0
  -22.1340   -6.2630   25.5080 C   0  0  0  0  0  0  0  0  0  0  0  0
  -23.5120   -6.5210   24.8930 C   0  0  0  0  0  0  0  0  0  0  0  0
  -24.6220   -6.1990   25.8960 C   0  0  0  0  0  0  0  0  0  0  0  0
  -24.5210   -4.7900   26.3030 N   0  0  0  0  0  0  0  0  0  0  0  0
  -23.2500   -4.5720   27.0110 C   0  0  0  0  0  0  0  0  0  0  0  0
  -22.0850   -4.8340   26.0550 C   0  0  0  0  0  0  0  0  0  0  0  0
  -25.6540   -4.4410   27.1740 C   0  0  0  0  0  0  0  0  0  0  0  0
  -25.6870   -2.9330   27.4320 C   0  0  0  0  0  0  0  0  0  0  0  0
  -25.8680   -2.4520   28.7250 C   0  0  0  0  0  0  0  0  0  0  0  0
  -25.8950   -1.0830   28.9670 C   0  0  0  0  0  0  0  0  0  0  0  0
  -25.7390   -0.1900   27.9130 C   0  0  0  0  0  0  0  0  0  0  0  0
  -25.5580   -0.6690   26.6190 C   0  0  0  0  0  0  0  0  0  0  0  0
  -25.5320   -2.0380   26.3780 C   0  0  0  0  0  0  0  0  0  0  0  0
  -15.3670   -8.9600   20.9410 C   0  0  0  0  0  0  0  0  0  0  0  0
  -18.5990   -4.6760   20.7480 C   0  0  0  0  0  0  0  0  0  0  0  0
  -16.2261   -9.1833   23.1864 H   0  0  0  0  0  0  0  0  0  0  0  0
  -19.8824   -5.8845   22.4273 H   0  0  0  0  0  0  0  0  0  0  0  0
  -21.0640   -5.8189   23.6735 H   0  0  0  0  0  0  0  0  0  0  0  0
  -18.4262  -10.6145   27.0143 H   0  0  0  0  0  0  0  0  0  0  0  0
  -20.0648  -10.5957   28.6929 H   0  0  0  0  0  0  0  0  0  0  0  0
  -20.3687   -8.8712   28.2821 H   0  0  0  0  0  0  0  0  0  0  0  0
  -21.8790   -9.4969   26.4837 H   0  0  0  0  0  0  0  0  0  0  0  0
  -21.4535  -11.2407   26.6824 H   0  0  0  0  0  0  0  0  0  0  0  0
  -23.2240   -9.4782   28.3658 H   0  0  0  0  0  0  0  0  0  0  0  0
  -23.4161  -11.2062   27.8791 H   0  0  0  0  0  0  0  0  0  0  0  0
  -22.7849  -12.2302   31.0204 H   0  0  0  0  0  0  0  0  0  0  0  0
  -23.7746  -12.2319   29.5213 H   0  0  0  0  0  0  0  0  0  0  0  0
  -22.1431  -12.9836   29.5213 H   0  0  0  0  0  0  0  0  0  0  0  0
  -20.2788  -11.0373   30.4708 H   0  0  0  0  0  0  0  0  0  0  0  0
  -20.4366  -11.9251   28.9172 H   0  0  0  0  0  0  0  0  0  0  0  0
  -20.2812  -10.1356   28.9172 H   0  0  0  0  0  0  0  0  0  0  0  0
  -21.9658   -6.9834   26.3221 H   0  0  0  0  0  0  0  0  0  0  0  0
  -23.6346   -5.8863   24.0030 H   0  0  0  0  0  0  0  0  0  0  0  0
  -23.5824   -7.5836   24.6173 H   0  0  0  0  0  0  0  0  0  0  0  0
  -25.6017   -6.3762   25.4282 H   0  0  0  0  0  0  0  0  0  0  0  0
  -24.5158   -6.8446   26.7803 H   0  0  0  0  0  0  0  0  0  0  0  0
  -23.2035   -3.5334   27.3704 H   0  0  0  0  0  0  0  0  0  0  0  0
  -23.1840   -5.2587   27.8678 H   0  0  0  0  0  0  0  0  0  0  0  0
  -21.1375   -4.6877   26.5942 H   0  0  0  0  0  0  0  0  0  0  0  0
  -22.1605   -4.1331   25.2106 H   0  0  0  0  0  0  0  0  0  0  0  0
  -26.5922   -4.7456   26.6871 H   0  0  0  0  0  0  0  0  0  0  0  0
  -25.5383   -4.9639   28.1348 H   0  0  0  0  0  0  0  0  0  0  0  0
  -25.9903   -3.1580   29.5596 H   0  0  0  0  0  0  0  0  0  0  0  0
  -26.0395   -0.7072   29.9907 H   0  0  0  0  0  0  0  0  0  0  0  0
  -25.7586    0.8935   28.1016 H   0  0  0  0  0  0  0  0  0  0  0  0
  -25.4352    0.0373   25.7847 H   0  0  0  0  0  0  0  0  0  0  0  0
  -25.3889   -2.4136   25.3541 H   0  0  0  0  0  0  0  0  0  0  0  0
  -15.1897   -9.3530   21.9530 H   0  0  0  0  0  0  0  0  0  0  0  0
  -16.0486   -9.6332   20.4004 H   0  0  0  0  0  0  0  0  0  0  0  0
  -14.4112   -8.8944   20.4004 H   0  0  0  0  0  0  0  0  0  0  0  0
  -18.6892   -4.4784   21.8263 H   0  0  0  0  0  0  0  0  0  0  0  0
  -17.9630   -3.9065   20.2861 H   0  0  0  0  0  0  0  0  0  0  0  0
  -19.5971   -4.6524   20.2861 H   0  0  0  0  0  0  0  0  0  0  0  0
  6  1  2  0
  1  2  1  0
  3  2  2  0
  2 14  1  0
  4  3  1  0
  7  4  1  0
  5  4  2  0
 10  5  1  0
  5  6  1  0
 13  6  1  0
  8  7  2  0
 12  8  1  0
  9  8  1  0
 11  9  1  0
  9 10  2  0
 11 35  1  0
 34 12  1  0
 13 21  1  0
 14 15  1  0
 15 16  1  0
 17 16  1  0
 17 18  1  0
 19 18  1  0
 20 18  1  0
 22 21  1  0
 21 26  1  0
 22 23  1  0
 23 24  1  0
 24 25  1  0
 24 27  1  0
 26 25  1  0
 27 28  1  0
 33 28  1  0
 28 29  2  0
 29 30  1  0
 31 30  2  0
 32 31  1  0
 33 32  2  0
  7 36  1  0
 10 37  1  0
 13 38  1  0
 14 39  1  0
 15 40  1  0
 15 41  1  0
 16 42  1  0
 16 43  1  0
 17 44  1  0
 17 45  1  0
 19 46  1  0
 19 47  1  0
 19 48  1  0
 20 49  1  0
 20 50  1  0
 20 51  1  0
 21 52  1  0
 22 53  1  0
 22 54  1  0
 23 55  1  0
 23 56  1  0
 25 57  1  0
 25 58  1  0
 26 59  1  0
 26 60  1  0
 27 61  1  0
 27 62  1  0
 29 63  1  0
 30 64  1  0
 31 65  1  0
 32 66  1  0
 33 67  1  0
 34 68  1  0
 34 69  1  0
 34 70  1  0
 35 71  1  0
 35 72  1  0
 35 73  1  0
A    1
N1
A    2
C2
A    3
N3
A    4
C4
A    5
C5
A    6
C6
A    7
CAC
A    8
CAD
A    9
CAE
A   10
CAF
A   11
OAK
A   12
OAL
A   13
NAM
A   14
NAN
A   15
CAO
A   16
CAP
A   17
CAQ
A   18
NAR
A   19
CAS
A   20
CAU
A   21
CAV
A   22
CAW
A   23
CAX
A   24
NAY
A   25
CAZ
A   26
CBA
A   27
CBB
A   28
CBC
A   29
CBD
A   30
CBE
A   31
CBF
A   32
CBG
A   33
CBH
A   34
CBI
A   35
CBJ
M  END
