3MO2_E67_A_1
     RDKit          3D

 87 90  0  0  0  0  0  0  0  0999 V2000
   15.0470   42.3080   37.1920 N   0  0  0  0  0  0  0  0  0  0  0  0
   14.2230   41.4860   37.9290 C   0  0  0  0  0  0  0  0  0  0  0  0
   12.8830   41.5070   37.7480 N   0  0  0  0  0  0  0  0  0  0  0  0
   12.3430   42.3570   36.8240 C   0  0  0  0  0  0  0  0  0  0  0  0
   13.1820   43.2220   36.0540 C   0  0  0  0  0  0  0  0  0  0  0  0
   14.5750   43.1740   36.2590 C   0  0  0  0  0  0  0  0  0  0  0  0
   10.3620   43.2720   35.6520 C   0  0  0  0  0  0  0  0  0  0  0  0
   11.1990   44.1350   34.8930 C   0  0  0  0  0  0  0  0  0  0  0  0
   12.6130   44.1010   35.1020 C   0  0  0  0  0  0  0  0  0  0  0  0
   10.9380   42.3840   36.6190 C   0  0  0  0  0  0  0  0  0  0  0  0
    9.0040   43.3390   35.3980 O   0  0  0  0  0  0  0  0  0  0  0  0
   10.5970   44.9880   33.9690 O   0  0  0  0  0  0  0  0  0  0  0  0
   11.3010   45.2120   32.7370 C   0  0  0  0  0  0  0  0  0  0  0  0
   15.4130   43.9640   35.5430 N   0  0  0  0  0  0  0  0  0  0  0  0
   16.9050   44.0310   35.6250 C   0  0  0  0  0  0  0  0  0  0  0  0
   17.3560   45.4870   35.4850 C   0  0  0  0  0  0  0  0  0  0  0  0
   18.9400   45.5900   35.5430 C   0  0  0  0  0  0  0  0  0  0  0  0
   19.5500   44.7860   34.4280 N   0  0  0  0  0  0  0  0  0  0  0  0
   19.1280   43.3390   34.6100 C   0  0  0  0  0  0  0  0  0  0  0  0
   17.5840   43.2220   34.4980 C   0  0  0  0  0  0  0  0  0  0  0  0
   14.8130   40.6820   38.8140 N   0  0  0  0  0  0  0  0  0  0  0  0
   16.2870   40.8220   38.8470 C   0  0  0  0  0  0  0  0  0  0  0  0
   16.7890   40.6000   40.2550 C   0  0  0  0  0  0  0  0  0  0  0  0
   16.7640   41.8020   41.0410 C   0  0  0  0  0  0  0  0  0  0  0  0
   17.2840   41.3920   42.3650 N   0  0  0  0  0  0  0  0  0  0  0  0
   16.2280   41.3690   43.3990 C   0  0  0  0  0  0  0  0  0  0  0  0
   18.4160   42.2920   42.7070 C   0  0  0  0  0  0  0  0  0  0  0  0
    8.1220   42.8910   36.4370 C   0  0  0  0  0  0  0  0  0  0  0  0
    6.6640   43.0270   35.9960 C   0  0  0  0  0  0  0  0  0  0  0  0
    6.1820   42.1310   34.8540 C   0  0  0  0  0  0  0  0  0  0  0  0
    6.1650   42.7430   33.4510 C   0  0  0  0  0  0  0  0  0  0  0  0
    5.6450   41.6570   32.4870 C   0  0  0  0  0  0  0  0  0  0  0  0
    5.5820   42.1280   31.1110 N   0  0  0  0  0  0  0  0  0  0  0  0
   21.0470   44.9540   34.5450 C   0  0  0  0  0  0  0  0  0  0  0  0
   21.9460   44.2540   33.4730 C   0  0  0  0  0  0  0  0  0  0  0  0
   23.2730   43.8550   33.8800 C   0  0  0  0  0  0  0  0  0  0  0  0
   24.1880   43.2190   32.9920 C   0  0  0  0  0  0  0  0  0  0  0  0
   23.7500   42.9570   31.5770 C   0  0  0  0  0  0  0  0  0  0  0  0
   22.3450   43.3900   31.1760 C   0  0  0  0  0  0  0  0  0  0  0  0
   21.4960   44.0210   32.1280 C   0  0  0  0  0  0  0  0  0  0  0  0
   13.2656   44.7653   34.5165 H   0  0  0  0  0  0  0  0  0  0  0  0
   10.2873   41.7192   37.2061 H   0  0  0  0  0  0  0  0  0  0  0  0
   12.3283   45.5389   32.9559 H   0  0  0  0  0  0  0  0  0  0  0  0
   11.3292   44.2785   32.1559 H   0  0  0  0  0  0  0  0  0  0  0  0
   10.7846   45.9902   32.1559 H   0  0  0  0  0  0  0  0  0  0  0  0
   14.9683   44.5940   34.8602 H   0  0  0  0  0  0  0  0  0  0  0  0
   17.1971   43.6065   36.5968 H   0  0  0  0  0  0  0  0  0  0  0  0
   17.0030   45.8837   34.5217 H   0  0  0  0  0  0  0  0  0  0  0  0
   16.9322   46.0708   36.3154 H   0  0  0  0  0  0  0  0  0  0  0  0
   19.2404   46.6431   35.4391 H   0  0  0  0  0  0  0  0  0  0  0  0
   19.2920   45.1945   36.5072 H   0  0  0  0  0  0  0  0  0  0  0  0
   19.5983   42.7210   33.8310 H   0  0  0  0  0  0  0  0  0  0  0  0
   19.4470   42.9904   35.6034 H   0  0  0  0  0  0  0  0  0  0  0  0
   17.2925   42.1648   34.5833 H   0  0  0  0  0  0  0  0  0  0  0  0
   17.2632   43.6225   33.5251 H   0  0  0  0  0  0  0  0  0  0  0  0
   14.2940   40.0271   39.4162 H   0  0  0  0  0  0  0  0  0  0  0  0
   16.7400   40.0775   38.1758 H   0  0  0  0  0  0  0  0  0  0  0  0
   16.5640   41.8342   38.5172 H   0  0  0  0  0  0  0  0  0  0  0  0
   16.1530   39.8461   40.7421 H   0  0  0  0  0  0  0  0  0  0  0  0
   17.8343   40.2638   40.1893 H   0  0  0  0  0  0  0  0  0  0  0  0
   17.4078   42.5729   40.5925 H   0  0  0  0  0  0  0  0  0  0  0  0
   15.7562   42.2382   41.1050 H   0  0  0  0  0  0  0  0  0  0  0  0
   16.6914   41.3791   44.3966 H   0  0  0  0  0  0  0  0  0  0  0  0
   15.5838   42.2533   43.2850 H   0  0  0  0  0  0  0  0  0  0  0  0
   15.6229   40.4575   43.2850 H   0  0  0  0  0  0  0  0  0  0  0  0
   18.5085   42.3655   43.8006 H   0  0  0  0  0  0  0  0  0  0  0  0
   19.3477   41.8853   42.2868 H   0  0  0  0  0  0  0  0  0  0  0  0
   18.2298   43.2914   42.2868 H   0  0  0  0  0  0  0  0  0  0  0  0
    8.3351   41.8358   36.6630 H   0  0  0  0  0  0  0  0  0  0  0  0
    8.2826   43.5099   37.3321 H   0  0  0  0  0  0  0  0  0  0  0  0
    6.0341   42.8113   36.8716 H   0  0  0  0  0  0  0  0  0  0  0  0
    6.5870   44.0501   35.5993 H   0  0  0  0  0  0  0  0  0  0  0  0
    6.8392   41.2495   34.8237 H   0  0  0  0  0  0  0  0  0  0  0  0
    5.1283   41.9157   35.0848 H   0  0  0  0  0  0  0  0  0  0  0  0
    5.4979   43.6174   33.4291 H   0  0  0  0  0  0  0  0  0  0  0  0
    7.1714   43.0765   33.1578 H   0  0  0  0  0  0  0  0  0  0  0  0
    6.3194   40.7892   32.5339 H   0  0  0  0  0  0  0  0  0  0  0  0
    4.6250   41.3885   32.7992 H   0  0  0  0  0  0  0  0  0  0  0  0
    5.4454   43.1489   31.1035 H   0  0  0  0  0  0  0  0  0  0  0  0
    6.4616   41.8957   30.6280 H   0  0  0  0  0  0  0  0  0  0  0  0
   21.2607   46.0321   34.4989 H   0  0  0  0  0  0  0  0  0  0  0  0
   21.3080   44.4582   35.4916 H   0  0  0  0  0  0  0  0  0  0  0  0
   23.5895   44.0496   34.9154 H   0  0  0  0  0  0  0  0  0  0  0  0
   25.1918   42.9263   33.3334 H   0  0  0  0  0  0  0  0  0  0  0  0
   24.4217   42.4689   30.8555 H   0  0  0  0  0  0  0  0  0  0  0  0
   21.9871   43.2148   30.1507 H   0  0  0  0  0  0  0  0  0  0  0  0
   20.4841   44.3339   31.8312 H   0  0  0  0  0  0  0  0  0  0  0  0
  6  1  2  0
  1  2  1  0
  3  2  2  0
  2 21  1  0
  4  3  1  0
  5  4  2  0
 10  4  1  0
  9  5  1  0
  5  6  1  0
 14  6  1  0
  8  7  1  0
 11  7  1  0
  7 10  2  0
 12  8  1  0
  8  9  2  0
 11 28  1  0
 13 12  1  0
 14 15  1  0
 20 15  1  0
 16 15  1  0
 16 17  1  0
 18 17  1  0
 18 34  1  0
 18 19  1  0
 20 19  1  0
 21 22  1  0
 22 23  1  0
 23 24  1  0
 24 25  1  0
 25 27  1  0
 25 26  1  0
 29 28  1  0
 30 29  1  0
 31 30  1  0
 32 31  1  0
 33 32  1  0
 35 34  1  0
 40 35  1  0
 35 36  2  0
 37 36  1  0
 38 37  2  0
 39 38  1  0
 39 40  2  0
  9 41  1  0
 10 42  1  0
 13 43  1  0
 13 44  1  0
 13 45  1  0
 14 46  1  0
 15 47  1  0
 16 48  1  0
 16 49  1  0
 17 50  1  0
 17 51  1  0
 19 52  1  0
 19 53  1  0
 20 54  1  0
 20 55  1  0
 21 56  1  0
 22 57  1  0
 22 58  1  0
 23 59  1  0
 23 60  1  0
 24 61  1  0
 24 62  1  0
 26 63  1  0
 26 64  1  0
 26 65  1  0
 27 66  1  0
 27 67  1  0
 27 68  1  0
 28 69  1  0
 28 70  1  0
 29 71  1  0
 29 72  1  0
 30 73  1  0
 30 74  1  0
 31 75  1  0
 31 76  1  0
 32 77  1  0
 32 78  1  0
 33 79  1  0
 33 80  1  0
 34 81  1  0
 34 82  1  0
 36 83  1  0
 37 84  1  0
 38 85  1  0
 39 86  1  0
 40 87  1  0
A    1
N1
A    2
C2
A    3
N3
A    4
C4
A    5
C5
A    6
C6
A    7
CAA
A    8
CAB
A    9
CAC
A   10
CAF
A   11
OAK
A   12
OAL
A   13
CAM
A   14
NAN
A   15
CAO
A   16
CAP
A   17
CAQ
A   18
NAR
A   19
CAS
A   20
CAT
A   21
NAU
A   22
CAV
A   23
CAW
A   24
CAX
A   25
NAY
A   26
CAZ
A   27
CBA
A   28
CBB
A   29
CBC
A   30
CBD
A   31
CBE
A   32
CBF
A   33
NBG
A   34
CBH
A   35
CBI
A   36
CBJ
A   37
CBK
A   38
CBL
A   39
CBM
A   40
CBN
M  END
