3MPE_N2A_A_901
     RDKit          3D

 79 84  0  0  0  0  0  0  0  0999 V2000
   13.7970  -19.5210  -39.2860 C   0  0  0  0  0  0  0  0  0  0  0  0
   12.9870  -18.8040  -40.1480 C   0  0  0  0  0  0  0  0  0  0  0  0
   11.6850  -18.5280  -39.7760 C   0  0  0  0  0  0  0  0  0  0  0  0
   11.1690  -18.9980  -38.4660 C   0  0  0  0  0  0  0  0  0  0  0  0
   12.0240  -19.7120  -37.6310 C   0  0  0  0  0  0  0  0  0  0  0  0
   13.3320  -19.9770  -38.0460 C   0  0  0  0  0  0  0  0  0  0  0  0
    9.8940  -18.5810  -38.3900 N   0  0  0  0  0  0  0  0  0  0  0  0
    9.6670  -17.9330  -39.5350 C   0  0  0  0  0  0  0  0  0  0  0  0
   10.7010  -17.8860  -40.3840 N   0  0  0  0  0  0  0  0  0  0  0  0
   10.8420  -17.2630  -41.7200 C   0  0  0  0  0  0  0  0  0  0  0  0
    8.9440  -18.7890  -37.2720 C   0  0  0  0  0  0  0  0  0  0  0  0
   15.4660  -19.8470  -39.8350 Cl  0  0  0  0  0  0  0  0  0  0  0  0
    9.5870  -17.3680  -42.5670 C   0  0  0  0  0  0  0  0  0  0  0  0
    9.9290  -16.8500  -43.9510 C   0  0  0  0  0  0  0  0  0  0  0  0
   10.5010  -15.5200  -43.7920 N   0  0  0  0  0  0  0  0  0  0  0  0
   10.6660  -14.8500  -42.5060 C   0  0  0  0  0  0  0  0  0  0  0  0
   11.2650  -15.8200  -41.5050 C   0  0  0  0  0  0  0  0  0  0  0  0
   10.9550  -14.8460  -44.9860 C   0  0  0  0  0  0  0  0  0  0  0  0
   10.1890  -13.5340  -45.1070 C   0  0  0  0  0  0  0  0  0  0  0  0
   10.6730  -12.7950  -46.3430 C   0  0  0  0  0  0  0  0  0  0  0  0
   12.1330  -12.5660  -46.3190 N   0  0  0  0  0  0  0  0  0  0  0  0
   12.6700  -11.5330  -45.5220 C   0  0  0  0  0  0  0  0  0  0  0  0
   14.1490  -11.3240  -45.5530 C   0  0  0  0  0  0  0  0  0  0  0  0
   14.8970  -12.1760  -46.3630 C   0  0  0  0  0  0  0  0  0  0  0  0
   14.2860  -13.1300  -47.0860 N   0  0  0  0  0  0  0  0  0  0  0  0
   12.9530  -13.3230  -47.0690 C   0  0  0  0  0  0  0  0  0  0  0  0
   11.9050  -10.8280  -44.8200 O   0  0  0  0  0  0  0  0  0  0  0  0
    8.5250  -17.4020  -39.7870 O   0  0  0  0  0  0  0  0  0  0  0  0
   14.8130  -10.2600  -44.7430 C   0  0  0  0  0  0  0  0  0  0  0  0
   14.1420   -9.0660  -44.4790 C   0  0  0  0  0  0  0  0  0  0  0  0
   14.7230   -8.0530  -43.7250 C   0  0  0  0  0  0  0  0  0  0  0  0
   15.9990   -8.2060  -43.2210 C   0  0  0  0  0  0  0  0  0  0  0  0
   16.7300   -9.4640  -43.5010 C   0  0  0  0  0  0  0  0  0  0  0  0
   16.1090  -10.4530  -44.2530 C   0  0  0  0  0  0  0  0  0  0  0  0
   16.7330   -6.8920  -42.2550 Cl  0  0  0  0  0  0  0  0  0  0  0  0
   18.1290   -9.6890  -42.9880 C   0  0  0  0  0  0  0  0  0  0  0  0
   18.0970  -10.6440  -41.9060 N   0  0  0  0  0  0  0  0  0  0  0  0
   19.0660  -11.5290  -41.7080 C   0  0  0  0  0  0  0  0  0  0  0  0
   20.0310  -11.6070  -42.4490 O   0  0  0  0  0  0  0  0  0  0  0  0
   18.9670  -12.4430  -40.5250 C   0  0  0  0  0  0  0  0  0  0  0  0
   20.0960  -12.7170  -39.7540 C   0  0  0  0  0  0  0  0  0  0  0  0
   19.9950  -13.5660  -38.6520 C   0  0  0  0  0  0  0  0  0  0  0  0
   18.7630  -14.1260  -38.3220 C   0  0  0  0  0  0  0  0  0  0  0  0
   17.6390  -13.8480  -39.0890 C   0  0  0  0  0  0  0  0  0  0  0  0
   17.7420  -13.0090  -40.1870 C   0  0  0  0  0  0  0  0  0  0  0  0
   18.6510  -14.9390  -37.2630 F   0  0  0  0  0  0  0  0  0  0  0  0
   13.3744  -18.4578  -41.1176 H   0  0  0  0  0  0  0  0  0  0  0  0
   11.6722  -20.0655  -36.6505 H   0  0  0  0  0  0  0  0  0  0  0  0
   14.0043  -20.5505  -37.3910 H   0  0  0  0  0  0  0  0  0  0  0  0
   11.6047  -17.8081  -42.2955 H   0  0  0  0  0  0  0  0  0  0  0  0
    9.4733  -18.6731  -36.3147 H   0  0  0  0  0  0  0  0  0  0  0  0
    8.1346  -18.0468  -37.3357 H   0  0  0  0  0  0  0  0  0  0  0  0
    8.5188  -19.8015  -37.3357 H   0  0  0  0  0  0  0  0  0  0  0  0
    9.2613  -18.4169  -42.6280 H   0  0  0  0  0  0  0  0  0  0  0  0
    8.7691  -16.7809  -42.1238 H   0  0  0  0  0  0  0  0  0  0  0  0
   10.6590  -17.5176  -44.4321 H   0  0  0  0  0  0  0  0  0  0  0  0
    9.0298  -16.8118  -44.5834 H   0  0  0  0  0  0  0  0  0  0  0  0
   11.3361  -13.9859  -42.6258 H   0  0  0  0  0  0  0  0  0  0  0  0
    9.6863  -14.5059  -42.1429 H   0  0  0  0  0  0  0  0  0  0  0  0
   10.9524  -15.5138  -40.4958 H   0  0  0  0  0  0  0  0  0  0  0  0
   12.3564  -15.7833  -41.6374 H   0  0  0  0  0  0  0  0  0  0  0  0
   12.0336  -14.6430  -44.9127 H   0  0  0  0  0  0  0  0  0  0  0  0
   10.7772  -15.4751  -45.8707 H   0  0  0  0  0  0  0  0  0  0  0  0
    9.1127  -13.7417  -45.1986 H   0  0  0  0  0  0  0  0  0  0  0  0
   10.3611  -12.9175  -44.2124 H   0  0  0  0  0  0  0  0  0  0  0  0
   10.4222  -13.3907  -47.2331 H   0  0  0  0  0  0  0  0  0  0  0  0
   10.1770  -11.8135  -46.3662 H   0  0  0  0  0  0  0  0  0  0  0  0
   15.9906  -12.0675  -46.4108 H   0  0  0  0  0  0  0  0  0  0  0  0
   12.5222  -14.1242  -47.6874 H   0  0  0  0  0  0  0  0  0  0  0  0
   13.1269   -8.9223  -44.8777 H   0  0  0  0  0  0  0  0  0  0  0  0
   14.1640   -7.1261  -43.5292 H   0  0  0  0  0  0  0  0  0  0  0  0
   16.6393  -11.3933  -44.4644 H   0  0  0  0  0  0  0  0  0  0  0  0
   18.7597  -10.0773  -43.8013 H   0  0  0  0  0  0  0  0  0  0  0  0
   18.5438   -8.7372  -42.6248 H   0  0  0  0  0  0  0  0  0  0  0  0
   17.2920  -10.6384  -41.2635 H   0  0  0  0  0  0  0  0  0  0  0  0
   21.0643  -12.2646  -40.0143 H   0  0  0  0  0  0  0  0  0  0  0  0
   20.8846  -13.7924  -38.0460 H   0  0  0  0  0  0  0  0  0  0  0  0
   16.6683  -14.2932  -38.8252 H   0  0  0  0  0  0  0  0  0  0  0  0
   16.8513  -12.7896  -40.7940 H   0  0  0  0  0  0  0  0  0  0  0  0
  1  2  2  0
  1  6  1  0
  1 12  1  0
  2  3  1  0
  3  4  2  0
  3  9  1  0
  4  5  1  0
  4  7  1  0
  5  6  2  0
  7  8  1  0
  7 11  1  0
  8  9  1  0
  8 28  2  0
  9 10  1  0
 10 13  1  0
 10 17  1  0
 13 14  1  0
 14 15  1  0
 15 16  1  0
 15 18  1  0
 16 17  1  0
 18 19  1  0
 19 20  1  0
 20 21  1  0
 21 22  1  0
 21 26  1  0
 22 23  1  0
 22 27  2  0
 23 24  2  0
 23 29  1  0
 24 25  1  0
 25 26  2  0
 29 30  2  0
 29 34  1  0
 30 31  1  0
 31 32  2  0
 32 33  1  0
 32 35  1  0
 33 34  2  0
 33 36  1  0
 36 37  1  0
 37 38  1  0
 38 39  2  0
 38 40  1  0
 40 41  2  0
 40 45  1  0
 41 42  1  0
 42 43  2  0
 43 44  1  0
 43 46  1  0
 44 45  2  0
  2 47  1  0
  5 48  1  0
  6 49  1  0
 10 50  1  0
 11 51  1  0
 11 52  1  0
 11 53  1  0
 13 54  1  0
 13 55  1  0
 14 56  1  0
 14 57  1  0
 16 58  1  0
 16 59  1  0
 17 60  1  0
 17 61  1  0
 18 62  1  0
 18 63  1  0
 19 64  1  0
 19 65  1  0
 20 66  1  0
 20 67  1  0
 24 68  1  0
 26 69  1  0
 30 70  1  0
 31 71  1  0
 34 72  1  0
 36 73  1  0
 36 74  1  0
 37 75  1  0
 41 76  1  0
 42 77  1  0
 44 78  1  0
 45 79  1  0
A    1
C1
A    2
C2
A    3
C3
A    4
C4
A    5
C5
A    6
C6
A    7
N13
A    8
C14
A    9
N15
A   10
C20
A   11
C22
A   12
CL24
A   13
C26
A   14
C27
A   15
N28
A   16
C29
A   17
C30
A   18
C37
A   19
C39
A   20
C41
A   21
N43
A   22
C45
A   23
C46
A   24
C47
A   25
N48
A   26
C49
A   27
O56
A   28
O58
A   29
C60
A   30
C62
A   31
C63
A   32
C64
A   33
C65
A   34
C66
A   35
CL73
A   36
C75
A   37
N77
A   38
C79
A   39
O81
A   40
C83
A   41
C85
A   42
C86
A   43
C87
A   44
C88
A   45
C89
A   46
F96
M  END
