3MRT_12E_A_920
     RDKit          3D

 41 42  0  0  0  0  0  0  0  0999 V2000
   19.2170   14.8630   55.6580 C   0  0  0  0  0  0  0  0  0  0  0  0
   18.8880   13.5550   55.1020 N   0  0  0  0  0  0  0  0  0  0  0  0
   18.1140   12.6850   57.5030 S   0  0  0  0  0  0  0  0  0  0  0  0
   20.6140   15.3230   55.1970 C   0  0  0  0  0  0  0  0  0  0  0  0
   18.0670   11.4130   55.1920 N   0  0  0  0  0  0  0  0  0  0  0  0
   21.6480   14.5200   55.7920 O   0  0  0  0  0  0  0  0  0  0  0  0
   20.8240   16.8040   55.5630 C   0  0  0  0  0  0  0  0  0  0  0  0
   18.0890   11.3500   53.9380 N   0  0  0  0  0  0  0  0  0  0  0  0
   22.0730   17.2840   55.0420 O   0  0  0  0  0  0  0  0  0  0  0  0
   19.6710   17.6650   55.0450 C   0  0  0  0  0  0  0  0  0  0  0  0
   17.8320    9.9150   49.0880 N   0  0  0  0  0  0  0  0  0  0  0  0
   19.7940   19.0140   55.4950 O   0  0  0  0  0  0  0  0  0  0  0  0
   18.3450   17.0980   55.5400 C   0  0  0  0  0  0  0  0  0  0  0  0
   18.2270   15.7400   55.1020 O   0  0  0  0  0  0  0  0  0  0  0  0
   17.1460   17.8820   55.0270 C   0  0  0  0  0  0  0  0  0  0  0  0
   15.9760   17.0970   55.2810 O   0  0  0  0  0  0  0  0  0  0  0  0
   18.3720   12.5500   55.8200 C   0  0  0  0  0  0  0  0  0  0  0  0
   17.7870   10.2760   53.3350 C   0  0  0  0  0  0  0  0  0  0  0  0
   17.8100   10.1650   51.8490 C   0  0  0  0  0  0  0  0  0  0  0  0
   18.4340   11.1300   51.0560 C   0  0  0  0  0  0  0  0  0  0  0  0
   18.4300   10.9780   49.6640 C   0  0  0  0  0  0  0  0  0  0  0  0
   17.2280    8.9620   49.8270 C   0  0  0  0  0  0  0  0  0  0  0  0
   17.1990    9.0750   51.2210 C   0  0  0  0  0  0  0  0  0  0  0  0
   19.2265   14.8495   56.7579 H   0  0  0  0  0  0  0  0  0  0  0  0
   19.0628   13.3957   54.0995 H   0  0  0  0  0  0  0  0  0  0  0  0
   20.6725   15.2025   54.1052 H   0  0  0  0  0  0  0  0  0  0  0  0
   17.8113   10.5796   55.7406 H   0  0  0  0  0  0  0  0  0  0  0  0
   21.5803   14.5726   56.7783 H   0  0  0  0  0  0  0  0  0  0  0  0
   20.8479   16.8793   56.6602 H   0  0  0  0  0  0  0  0  0  0  0  0
   22.6762   17.5158   55.7920 H   0  0  0  0  0  0  0  0  0  0  0  0
   19.7043   17.6535   53.9456 H   0  0  0  0  0  0  0  0  0  0  0  0
   19.7957   19.0328   56.4848 H   0  0  0  0  0  0  0  0  0  0  0  0
   18.3458   17.1676   56.6378 H   0  0  0  0  0  0  0  0  0  0  0  0
   17.0737   18.8448   55.5541 H   0  0  0  0  0  0  0  0  0  0  0  0
   17.2489   18.0859   53.9510 H   0  0  0  0  0  0  0  0  0  0  0  0
   15.8438   17.0083   56.2581 H   0  0  0  0  0  0  0  0  0  0  0  0
   17.4982    9.3964   53.9290 H   0  0  0  0  0  0  0  0  0  0  0  0
   18.9231   11.9996   51.5194 H   0  0  0  0  0  0  0  0  0  0  0  0
   18.9201   11.7341   49.0331 H   0  0  0  0  0  0  0  0  0  0  0  0
   16.7590    8.0975   49.3344 H   0  0  0  0  0  0  0  0  0  0  0  0
   16.6949    8.3054   51.8240 H   0  0  0  0  0  0  0  0  0  0  0  0
  2  1  1  0
 14  1  1  0
  4  1  1  0
  2 17  1  0
 17  3  2  0
  4  7  1  0
  4  6  1  0
  8  5  1  0
  5 17  1  0
  9  7  1  0
 10  7  1  0
 18  8  2  0
 10 12  1  0
 10 13  1  0
 11 21  2  0
 11 22  1  0
 15 13  1  0
 14 13  1  0
 15 16  1  0
 19 18  1  0
 20 19  2  0
 23 19  1  0
 21 20  1  0
 22 23  2  0
  1 24  1  0
  2 25  1  0
  4 26  1  0
  5 27  1  0
  6 28  1  0
  7 29  1  0
  9 30  1  0
 10 31  1  0
 12 32  1  0
 13 33  1  0
 15 34  1  0
 15 35  1  0
 16 36  1  0
 18 37  1  0
 20 38  1  0
 21 39  1  0
 22 40  1  0
 23 41  1  0
A    1
C1
A    2
N1
A    3
S1
A    4
C2
A    5
N2
A    6
O2
A    7
C3
A    8
N3
A    9
O3
A   10
C4
A   11
N4
A   12
O4
A   13
C5
A   14
O5
A   15
C6
A   16
O6
A   17
C7
A   18
C8
A   19
C9
A   20
C10
A   21
C11
A   22
C12
A   23
C13
M  END
