3MRV_16F_A_920
     RDKit          3D

 43 44  0  0  0  0  0  0  0  0999 V2000
   19.1840   14.9040   55.8610 C   0  0  0  0  0  0  0  0  0  0  0  0
   18.7750   13.6190   55.2950 N   0  0  0  0  0  0  0  0  0  0  0  0
   18.2150   12.6870   57.7310 S   0  0  0  0  0  0  0  0  0  0  0  0
   20.5850   15.3640   55.3960 C   0  0  0  0  0  0  0  0  0  0  0  0
   17.9290   11.4760   55.3970 N   0  0  0  0  0  0  0  0  0  0  0  0
   21.6350   14.5900   56.0150 O   0  0  0  0  0  0  0  0  0  0  0  0
   20.7750   16.8640   55.7190 C   0  0  0  0  0  0  0  0  0  0  0  0
   17.9580   11.3500   54.1530 N   0  0  0  0  0  0  0  0  0  0  0  0
   22.0410   17.3970   55.2670 O   0  0  0  0  0  0  0  0  0  0  0  0
   19.6060   17.6990   55.1750 C   0  0  0  0  0  0  0  0  0  0  0  0
   19.7280   19.0430   55.6160 O   0  0  0  0  0  0  0  0  0  0  0  0
   18.2950   17.1360   55.7100 C   0  0  0  0  0  0  0  0  0  0  0  0
   18.1960   15.7690   55.3020 O   0  0  0  0  0  0  0  0  0  0  0  0
   17.0570   17.8790   55.2230 C   0  0  0  0  0  0  0  0  0  0  0  0
   15.9180   17.0130   55.3920 O   0  0  0  0  0  0  0  0  0  0  0  0
   18.3040   12.5990   56.0240 C   0  0  0  0  0  0  0  0  0  0  0  0
   18.3600   11.4260   48.8960 O   0  0  0  0  0  0  0  0  0  0  0  0
   17.5810   10.2610   53.6360 C   0  0  0  0  0  0  0  0  0  0  0  0
   17.5330   10.0030   52.1700 C   0  0  0  0  0  0  0  0  0  0  0  0
   18.0210   10.9040   51.2180 C   0  0  0  0  0  0  0  0  0  0  0  0
   17.8950   10.5850   49.8540 C   0  0  0  0  0  0  0  0  0  0  0  0
   17.2750    9.4030   49.4450 C   0  0  0  0  0  0  0  0  0  0  0  0
   16.7750    8.5160   50.3890 C   0  0  0  0  0  0  0  0  0  0  0  0
   16.8920    8.8340   51.7430 C   0  0  0  0  0  0  0  0  0  0  0  0
   19.2509   14.8786   56.9587 H   0  0  0  0  0  0  0  0  0  0  0  0
   18.8538   13.4909   54.2760 H   0  0  0  0  0  0  0  0  0  0  0  0
   20.6499   15.2058   54.3094 H   0  0  0  0  0  0  0  0  0  0  0  0
   17.6023   10.6811   55.9647 H   0  0  0  0  0  0  0  0  0  0  0  0
   21.5529   14.6505   56.9997 H   0  0  0  0  0  0  0  0  0  0  0  0
   20.7856   16.9367   56.8165 H   0  0  0  0  0  0  0  0  0  0  0  0
   22.5988   17.6318   56.0505 H   0  0  0  0  0  0  0  0  0  0  0  0
   19.6205   17.6626   54.0757 H   0  0  0  0  0  0  0  0  0  0  0  0
   19.7301   19.0667   56.6057 H   0  0  0  0  0  0  0  0  0  0  0  0
   18.3194   17.2491   56.8039 H   0  0  0  0  0  0  0  0  0  0  0  0
   16.9176   18.7972   55.8125 H   0  0  0  0  0  0  0  0  0  0  0  0
   17.1710   18.1553   54.1644 H   0  0  0  0  0  0  0  0  0  0  0  0
   15.7443   16.8809   56.3576 H   0  0  0  0  0  0  0  0  0  0  0  0
   18.8225   12.2625   49.1537 H   0  0  0  0  0  0  0  0  0  0  0  0
   17.2681    9.4514   54.3117 H   0  0  0  0  0  0  0  0  0  0  0  0
   18.4952   11.8460   51.5307 H   0  0  0  0  0  0  0  0  0  0  0  0
   17.1824    9.1740   48.3731 H   0  0  0  0  0  0  0  0  0  0  0  0
   16.2944    7.5778   50.0748 H   0  0  0  0  0  0  0  0  0  0  0  0
   16.4701    8.1491   52.4932 H   0  0  0  0  0  0  0  0  0  0  0  0
  4  1  1  0
  1 13  1  0
  1  2  1  0
  2 16  1  0
 16  3  2  0
  7  4  1  0
  6  4  1  0
 16  5  1  0
  8  5  1  0
  9  7  1  0
  7 10  1  0
  8 18  2  0
 11 10  1  0
 10 12  1  0
 12 14  1  0
 12 13  1  0
 15 14  1  0
 21 17  1  0
 18 19  1  0
 19 20  2  0
 19 24  1  0
 20 21  1  0
 21 22  2  0
 23 22  1  0
 24 23  2  0
  1 25  1  0
  2 26  1  0
  4 27  1  0
  5 28  1  0
  6 29  1  0
  7 30  1  0
  9 31  1  0
 10 32  1  0
 11 33  1  0
 12 34  1  0
 14 35  1  0
 14 36  1  0
 15 37  1  0
 17 38  1  0
 18 39  1  0
 20 40  1  0
 22 41  1  0
 23 42  1  0
 24 43  1  0
A    1
C1
A    2
N1
A    3
S1
A    4
C2
A    5
N2
A    6
O2
A    7
C3
A    8
N3
A    9
O3
A   10
C4
A   11
O4
A   12
C5
A   13
O5
A   14
C6
A   15
O6
A   16
C7
A   17
O7
A   18
C8
A   19
C9
A   20
C10
A   21
C11
A   22
C12
A   23
C13
A   24
C14
M  END
