3MS2_18S_A_920
     RDKit          3D

 45 46  0  0  0  0  0  0  0  0999 V2000
   19.3350   14.9500   56.0300 C   0  0  0  0  0  0  0  0  0  0  0  0
   18.8510   13.6940   55.4910 N   0  0  0  0  0  0  0  0  0  0  0  0
   18.4110   12.8680   57.9660 S   0  0  0  0  0  0  0  0  0  0  0  0
   20.6050   15.3410   55.2690 C   0  0  0  0  0  0  0  0  0  0  0  0
   17.9330   11.6030   55.6760 N   0  0  0  0  0  0  0  0  0  0  0  0
   21.6850   14.4590   55.5860 O   0  0  0  0  0  0  0  0  0  0  0  0
   20.9460   16.7850   55.6180 C   0  0  0  0  0  0  0  0  0  0  0  0
   17.9240   11.5120   54.4310 N   0  0  0  0  0  0  0  0  0  0  0  0
   22.1210   17.2090   54.9230 O   0  0  0  0  0  0  0  0  0  0  0  0
   19.7860   17.6680   55.1760 C   0  0  0  0  0  0  0  0  0  0  0  0
   20.0570   19.0310   55.4920 O   0  0  0  0  0  0  0  0  0  0  0  0
   18.4500   17.2430   55.7890 C   0  0  0  0  0  0  0  0  0  0  0  0
   18.2440   15.8270   55.7350 O   0  0  0  0  0  0  0  0  0  0  0  0
   17.3240   17.8390   54.9590 C   0  0  0  0  0  0  0  0  0  0  0  0
   16.7780   18.9530   55.6660 O   0  0  0  0  0  0  0  0  0  0  0  0
   18.3920   12.7150   56.2660 C   0  0  0  0  0  0  0  0  0  0  0  0
   17.5070   10.4650   53.8810 C   0  0  0  0  0  0  0  0  0  0  0  0
   17.4810   10.2820   52.4130 C   0  0  0  0  0  0  0  0  0  0  0  0
   18.1800   11.1320   51.5460 C   0  0  0  0  0  0  0  0  0  0  0  0
   18.1250   10.9010   50.1690 C   0  0  0  0  0  0  0  0  0  0  0  0
   17.3800    9.8250   49.6590 C   0  0  0  0  0  0  0  0  0  0  0  0
   16.6870    8.9830   50.5240 C   0  0  0  0  0  0  0  0  0  0  0  0
   16.7410    9.2180   51.8980 C   0  0  0  0  0  0  0  0  0  0  0  0
   17.2990    9.5630   48.1750 C   0  0  0  0  0  0  0  0  0  0  0  0
   19.6003   14.9479   57.0975 H   0  0  0  0  0  0  0  0  0  0  0  0
   18.8630   13.5546   54.4705 H   0  0  0  0  0  0  0  0  0  0  0  0
   20.4340   15.2550   54.1858 H   0  0  0  0  0  0  0  0  0  0  0  0
   17.5869   10.8216   56.2509 H   0  0  0  0  0  0  0  0  0  0  0  0
   21.7740   14.3863   56.5693 H   0  0  0  0  0  0  0  0  0  0  0  0
   21.1219   16.8616   56.7011 H   0  0  0  0  0  0  0  0  0  0  0  0
   22.8191   17.4609   55.5782 H   0  0  0  0  0  0  0  0  0  0  0  0
   19.6923   17.5498   54.0864 H   0  0  0  0  0  0  0  0  0  0  0  0
   20.0794   19.1436   56.4753 H   0  0  0  0  0  0  0  0  0  0  0  0
   18.4620   17.5823   56.8353 H   0  0  0  0  0  0  0  0  0  0  0  0
   17.7166   18.1730   53.9872 H   0  0  0  0  0  0  0  0  0  0  0  0
   16.5432   17.0835   54.7869 H   0  0  0  0  0  0  0  0  0  0  0  0
   16.8552   18.7955   56.6403 H   0  0  0  0  0  0  0  0  0  0  0  0
   17.1441    9.6455   54.5188 H   0  0  0  0  0  0  0  0  0  0  0  0
   18.7662   11.9728   51.9453 H   0  0  0  0  0  0  0  0  0  0  0  0
   18.6680   11.5654   49.4807 H   0  0  0  0  0  0  0  0  0  0  0  0
   16.1020    8.1399   50.1277 H   0  0  0  0  0  0  0  0  0  0  0  0
   16.1928    8.5555   52.5841 H   0  0  0  0  0  0  0  0  0  0  0  0
   16.9781    8.5250   48.0029 H   0  0  0  0  0  0  0  0  0  0  0  0
   16.5719   10.2518   47.7202 H   0  0  0  0  0  0  0  0  0  0  0  0
   18.2880    9.7212   47.7202 H   0  0  0  0  0  0  0  0  0  0  0  0
  4  1  1  0
  2  1  1  0
 13  1  1  0
  2 16  1  0
 16  3  2  0
  4  7  1  0
  4  6  1  0
  8  5  1  0
  5 16  1  0
  9  7  1  0
 10  7  1  0
 17  8  2  0
 10 11  1  0
 10 12  1  0
 14 12  1  0
 13 12  1  0
 14 15  1  0
 18 17  1  0
 19 18  2  0
 23 18  1  0
 20 19  1  0
 21 20  2  0
 24 21  1  0
 21 22  1  0
 22 23  2  0
  1 25  1  0
  2 26  1  0
  4 27  1  0
  5 28  1  0
  6 29  1  0
  7 30  1  0
  9 31  1  0
 10 32  1  0
 11 33  1  0
 12 34  1  0
 14 35  1  0
 14 36  1  0
 15 37  1  0
 17 38  1  0
 19 39  1  0
 20 40  1  0
 22 41  1  0
 23 42  1  0
 24 43  1  0
 24 44  1  0
 24 45  1  0
A    1
C1
A    2
N1
A    3
S1
A    4
C2
A    5
N2
A    6
O2
A    7
C3
A    8
N3
A    9
O3
A   10
C4
A   11
O4
A   12
C5
A   13
O5
A   14
C6
A   15
O6
A   16
C7
A   17
C8
A   18
C9
A   19
C10
A   20
C11
A   21
C12
A   22
C13
A   23
C14
A   24
C15
M  END
