3MS5_REE_A_391
     RDKit          3D

 25 24  0  0  0  0  0  0  0  0999 V2000
   21.4780   27.2900   88.0700 C   0  0  0  0  0  0  0  0  0  0  0  0
   21.8490   30.5560   87.9770 N   0  0  0  0  0  0  0  0  0  0  0  0
   22.7250   27.2920   88.0060 O   0  0  0  0  0  0  0  0  0  0  0  0
   20.7030   28.4420   87.4420 C   0  0  0  0  0  0  0  0  0  0  0  0
   22.4660   31.8070   87.5960 N   0  0  0  0  0  0  0  0  0  0  0  0
   20.7640   26.3200   88.4500 O   0  0  0  0  0  0  0  0  0  0  0  0
   21.4610   29.6580   86.9080 C   0  0  0  0  0  0  0  0  0  0  0  0
   22.6400   32.5730   88.8550 C   0  0  0  0  0  0  0  0  0  0  0  0
   23.8320   31.5590   87.0470 C   0  0  0  0  0  0  0  0  0  0  0  0
   21.6880   32.5620   86.6080 C   0  0  0  0  0  0  0  0  0  0  0  0
   21.0009   30.7802   88.5169 H   0  0  0  0  0  0  0  0  0  0  0  0
   20.1354   28.0231   86.5980 H   0  0  0  0  0  0  0  0  0  0  0  0
   20.1209   28.8493   88.2818 H   0  0  0  0  0  0  0  0  0  0  0  0
   20.6371   26.1476   89.4166 H   0  0  0  0  0  0  0  0  0  0  0  0
   20.8141   30.2006   86.2030 H   0  0  0  0  0  0  0  0  0  0  0  0
   22.3744   29.3023   86.4088 H   0  0  0  0  0  0  0  0  0  0  0  0
   22.4881   31.9042   89.7151 H   0  0  0  0  0  0  0  0  0  0  0  0
   23.6563   32.9923   88.8916 H   0  0  0  0  0  0  0  0  0  0  0  0
   21.9046   33.3902   88.8916 H   0  0  0  0  0  0  0  0  0  0  0  0
   24.5427   31.4300   87.8766 H   0  0  0  0  0  0  0  0  0  0  0  0
   23.8194   30.6485   86.4300 H   0  0  0  0  0  0  0  0  0  0  0  0
   24.1403   32.4159   86.4300 H   0  0  0  0  0  0  0  0  0  0  0  0
   20.9922   33.2372   87.1275 H   0  0  0  0  0  0  0  0  0  0  0  0
   22.3697   33.1520   85.9778 H   0  0  0  0  0  0  0  0  0  0  0  0
   21.1187   31.8629   85.9778 H   0  0  0  0  0  0  0  0  0  0  0  0
  4  1  1  0
  3  1  2  0
  1  6  1  0
  7  2  1  0
  5  2  1  0
  7  4  1  0
 10  5  1  0
  9  5  1  0
  5  8  1  0
  2 11  1  0
  4 12  1  0
  4 13  1  0
  6 14  1  0
  7 15  1  0
  7 16  1  0
  8 17  1  0
  8 18  1  0
  8 19  1  0
  9 20  1  0
  9 21  1  0
  9 22  1  0
 10 23  1  0
 10 24  1  0
 10 25  1  0
M  CHG  1   5   1
A    1
C1
A    2
N1
A    3
O1
A    4
C2
A    5
N2
A    6
O2
A    7
C3
A    8
C4
A    9
C5
A   10
C6
M  END
