3MSS_MS7_A_516
     RDKit          3D

 41 42  0  0  0  0  0  0  0  0999 V2000
  -11.2200   -3.2570  -32.8550 N   0  0  0  0  0  0  0  0  0  0  0  0
  -11.7960   -3.2280  -31.5030 C   0  0  0  0  0  0  0  0  0  0  0  0
  -10.9210   -2.3020  -30.5940 C   0  0  0  0  0  0  0  0  0  0  0  0
   -9.4190   -2.6690  -30.6740 C   0  0  0  0  0  0  0  0  0  0  0  0
   -8.5230   -1.8830  -31.4210 C   0  0  0  0  0  0  0  0  0  0  0  0
   -7.1530   -2.2020  -31.5140 C   0  0  0  0  0  0  0  0  0  0  0  0
   -6.6630   -3.3380  -30.8330 C   0  0  0  0  0  0  0  0  0  0  0  0
   -7.5440   -4.1240  -30.0780 C   0  0  0  0  0  0  0  0  0  0  0  0
   -8.9170   -3.7940  -29.9950 C   0  0  0  0  0  0  0  0  0  0  0  0
   -5.3060   -3.6910  -30.8590 O   0  0  0  0  0  0  0  0  0  0  0  0
   -4.7980   -4.9980  -30.5120 C   0  0  0  0  0  0  0  0  0  0  0  0
   -3.2950   -4.8830  -30.5210 C   0  0  0  0  0  0  0  0  0  0  0  0
   -2.6650   -3.6910  -30.1680 C   0  0  0  0  0  0  0  0  0  0  0  0
   -1.2710   -3.6230  -30.1650 C   0  0  0  0  0  0  0  0  0  0  0  0
   -0.5240   -4.7450  -30.5980 C   0  0  0  0  0  0  0  0  0  0  0  0
   -1.1880   -5.8980  -31.0060 C   0  0  0  0  0  0  0  0  0  0  0  0
   -2.5670   -5.9950  -30.9590 C   0  0  0  0  0  0  0  0  0  0  0  0
  -13.2270   -2.7410  -31.5430 C   0  0  0  0  0  0  0  0  0  0  0  0
  -13.3660   -1.5930  -31.9460 O   0  0  0  0  0  0  0  0  0  0  0  0
  -14.2810   -3.5390  -31.1410 N   0  0  0  0  0  0  0  0  0  0  0  0
  -15.6800   -3.0700  -31.1660 C   0  0  0  0  0  0  0  0  0  0  0  0
  -10.1934   -3.3087  -32.7898 H   0  0  0  0  0  0  0  0  0  0  0  0
  -11.5738   -4.0812  -33.3613 H   0  0  0  0  0  0  0  0  0  0  0  0
  -11.8013   -4.2462  -31.0868 H   0  0  0  0  0  0  0  0  0  0  0  0
  -11.0503   -1.2592  -30.9192 H   0  0  0  0  0  0  0  0  0  0  0  0
  -11.2502   -2.4358  -29.5530 H   0  0  0  0  0  0  0  0  0  0  0  0
   -8.9019   -0.9945  -31.9473 H   0  0  0  0  0  0  0  0  0  0  0  0
   -6.4742   -1.5739  -32.1096 H   0  0  0  0  0  0  0  0  0  0  0  0
   -7.1636   -5.0073  -29.5440 H   0  0  0  0  0  0  0  0  0  0  0  0
   -9.5953   -4.4200  -29.3967 H   0  0  0  0  0  0  0  0  0  0  0  0
   -5.1517   -5.2912  -29.5125 H   0  0  0  0  0  0  0  0  0  0  0  0
   -5.1450   -5.7635  -31.2217 H   0  0  0  0  0  0  0  0  0  0  0  0
   -3.2627   -2.8093  -29.8935 H   0  0  0  0  0  0  0  0  0  0  0  0
   -0.7589   -2.7088  -29.8303 H   0  0  0  0  0  0  0  0  0  0  0  0
    0.5752   -4.7056  -30.6119 H   0  0  0  0  0  0  0  0  0  0  0  0
   -0.6021   -6.7528  -31.3748 H   0  0  0  0  0  0  0  0  0  0  0  0
   -3.0781   -6.9220  -31.2581 H   0  0  0  0  0  0  0  0  0  0  0  0
  -14.0832   -4.4949  -30.8123 H   0  0  0  0  0  0  0  0  0  0  0  0
  -16.0443   -2.9479  -30.1353 H   0  0  0  0  0  0  0  0  0  0  0  0
  -15.7338   -2.1047  -31.6907 H   0  0  0  0  0  0  0  0  0  0  0  0
  -16.3048   -3.8078  -31.6907 H   0  0  0  0  0  0  0  0  0  0  0  0
  1  2  1  0
  2  3  1  0
  2 18  1  0
  3  4  1  0
  4  5  2  0
  4  9  1  0
  5  6  1  0
  6  7  2  0
  7  8  1  0
  7 10  1  0
  8  9  2  0
 10 11  1  0
 11 12  1  0
 12 13  2  0
 12 17  1  0
 13 14  1  0
 14 15  2  0
 15 16  1  0
 16 17  2  0
 18 19  2  0
 18 20  1  0
 20 21  1  0
  1 22  1  0
  1 23  1  0
  2 24  1  0
  3 25  1  0
  3 26  1  0
  5 27  1  0
  6 28  1  0
  8 29  1  0
  9 30  1  0
 11 31  1  0
 11 32  1  0
 13 33  1  0
 14 34  1  0
 15 35  1  0
 16 36  1  0
 17 37  1  0
 20 38  1  0
 21 39  1  0
 21 40  1  0
 21 41  1  0
A    1
N1
A    2
C4
A    3
C6
A    4
C9
A    5
C10
A    6
C12
A    7
C14
A    8
C15
A    9
C17
A   10
O19
A   11
C20
A   12
C23
A   13
C24
A   14
C26
A   15
C28
A   16
C30
A   17
C32
A   18
C34
A   19
O35
A   20
N36
A   21
C38
M  END
