3MTA_22O_A_920
     RDKit          3D

 42 43  0  0  0  0  0  0  0  0999 V2000
   19.1760   15.2700   56.0100 C   0  0  0  0  0  0  0  0  0  0  0  0
   18.7250   13.9240   55.5660 N   0  0  0  0  0  0  0  0  0  0  0  0
   18.2710   13.2110   58.1530 S   0  0  0  0  0  0  0  0  0  0  0  0
   19.2410   11.6750   49.5480 Br  0  0  0  0  0  0  0  0  0  0  0  0
   20.6180   15.6350   55.5780 C   0  0  0  0  0  0  0  0  0  0  0  0
   17.9100   11.7850   55.9480 N   0  0  0  0  0  0  0  0  0  0  0  0
   21.5760   14.8180   56.2640 O   0  0  0  0  0  0  0  0  0  0  0  0
   20.9080   17.1290   55.8340 C   0  0  0  0  0  0  0  0  0  0  0  0
   17.9090   11.5470   54.7430 N   0  0  0  0  0  0  0  0  0  0  0  0
   22.1620   17.5200   55.2590 O   0  0  0  0  0  0  0  0  0  0  0  0
   19.7760   17.9960   55.2650 C   0  0  0  0  0  0  0  0  0  0  0  0
   20.0150   19.3700   55.5560 O   0  0  0  0  0  0  0  0  0  0  0  0
   18.4400   17.5620   55.8820 C   0  0  0  0  0  0  0  0  0  0  0  0
   18.2120   16.2000   55.4350 O   0  0  0  0  0  0  0  0  0  0  0  0
   17.2250   18.4740   55.5830 C   0  0  0  0  0  0  0  0  0  0  0  0
   17.2160   18.9050   54.2160 O   0  0  0  0  0  0  0  0  0  0  0  0
   18.3100   12.9690   56.4140 C   0  0  0  0  0  0  0  0  0  0  0  0
   17.5100   10.3680   54.3150 C   0  0  0  0  0  0  0  0  0  0  0  0
   17.5090   10.0800   52.9570 C   0  0  0  0  0  0  0  0  0  0  0  0
   16.7860    8.9910   52.4720 C   0  0  0  0  0  0  0  0  0  0  0  0
   16.7960    8.7010   51.1090 C   0  0  0  0  0  0  0  0  0  0  0  0
   17.5270    9.5000   50.2350 C   0  0  0  0  0  0  0  0  0  0  0  0
   18.2470   10.5850   50.7240 C   0  0  0  0  0  0  0  0  0  0  0  0
   18.2440   10.8760   52.0810 C   0  0  0  0  0  0  0  0  0  0  0  0
   19.2140   15.3054   57.1088 H   0  0  0  0  0  0  0  0  0  0  0  0
   18.7313   13.7139   54.5577 H   0  0  0  0  0  0  0  0  0  0  0  0
   20.7056   15.4448   54.4981 H   0  0  0  0  0  0  0  0  0  0  0  0
   17.5972   11.0593   56.6086 H   0  0  0  0  0  0  0  0  0  0  0  0
   21.4567   14.9197   57.2415 H   0  0  0  0  0  0  0  0  0  0  0  0
   20.9669   17.2806   56.9219 H   0  0  0  0  0  0  0  0  0  0  0  0
   22.8079   17.7214   55.9817 H   0  0  0  0  0  0  0  0  0  0  0  0
   19.7376   17.8655   54.1734 H   0  0  0  0  0  0  0  0  0  0  0  0
   20.0377   19.5004   56.5371 H   0  0  0  0  0  0  0  0  0  0  0  0
   18.5260   17.6425   56.9757 H   0  0  0  0  0  0  0  0  0  0  0  0
   16.2998   17.9155   55.7879 H   0  0  0  0  0  0  0  0  0  0  0  0
   17.2951   19.3642   56.2253 H   0  0  0  0  0  0  0  0  0  0  0  0
   17.1953   19.8942   54.1820 H   0  0  0  0  0  0  0  0  0  0  0  0
   17.1759    9.6077   55.0364 H   0  0  0  0  0  0  0  0  0  0  0  0
   16.2082    8.3613   53.1646 H   0  0  0  0  0  0  0  0  0  0  0  0
   16.2269    7.8418   50.7245 H   0  0  0  0  0  0  0  0  0  0  0  0
   17.5354    9.2737   49.1586 H   0  0  0  0  0  0  0  0  0  0  0  0
   18.8197   11.7318   52.4635 H   0  0  0  0  0  0  0  0  0  0  0  0
 14  1  1  0
  2  1  1  0
  5  1  1  0
  2 17  1  0
 17  3  2  0
  4 23  1  0
  5  8  1  0
  5  7  1  0
  9  6  1  0
  6 17  1  0
 10  8  1  0
 11  8  1  0
 18  9  2  0
 11 12  1  0
 11 13  1  0
 14 13  1  0
 15 13  1  0
 16 15  1  0
 19 18  1  0
 24 19  1  0
 20 19  2  0
 21 20  1  0
 22 21  2  0
 22 23  1  0
 23 24  2  0
  1 25  1  0
  2 26  1  0
  5 27  1  0
  6 28  1  0
  7 29  1  0
  8 30  1  0
 10 31  1  0
 11 32  1  0
 12 33  1  0
 13 34  1  0
 15 35  1  0
 15 36  1  0
 16 37  1  0
 18 38  1  0
 20 39  1  0
 21 40  1  0
 22 41  1  0
 24 42  1  0
A    1
C1
A    2
N1
A    3
S1
A    4
BR1
A    5
C2
A    6
N2
A    7
O2
A    8
C3
A    9
N3
A   10
O3
A   11
C4
A   12
O4
A   13
C5
A   14
O5
A   15
C6
A   16
O6
A   17
C7
A   18
C8
A   19
C9
A   20
C10
A   21
C11
A   22
C12
A   23
C13
A   24
C14
M  END
