3MTD_25E_A_843
     RDKit          3D

 43 44  0  0  0  0  0  0  0  0999 V2000
   33.5170   22.8360   27.8140 C   0  0  0  0  0  0  0  0  0  0  0  0
   33.8630   23.1060   26.3480 C   0  0  0  0  0  0  0  0  0  0  0  0
   34.0290   24.5190   26.1150 O   0  0  0  0  0  0  0  0  0  0  0  0
   32.7270   22.5220   25.4910 C   0  0  0  0  0  0  0  0  0  0  0  0
   33.0140   22.6670   24.0900 O   0  0  0  0  0  0  0  0  0  0  0  0
   32.4440   21.0480   25.8400 C   0  0  0  0  0  0  0  0  0  0  0  0
   31.2320   20.6480   25.2040 O   0  0  0  0  0  0  0  0  0  0  0  0
   32.3130   20.8190   27.3620 C   0  0  0  0  0  0  0  0  0  0  0  0
   33.4230   21.4160   28.0350 O   0  0  0  0  0  0  0  0  0  0  0  0
   32.2080   19.3500   27.7930 C   0  0  0  0  0  0  0  0  0  0  0  0
   33.2490   18.5370   27.2150 O   0  0  0  0  0  0  0  0  0  0  0  0
   34.5970   23.2930   28.6730 N   0  0  0  0  0  0  0  0  0  0  0  0
   34.3730   24.0010   29.7900 C   0  0  0  0  0  0  0  0  0  0  0  0
   35.4520   24.3210   30.5150 N   0  0  0  0  0  0  0  0  0  0  0  0
   32.7890   24.4750   30.2480 S   0  0  0  0  0  0  0  0  0  0  0  0
   36.5770   23.9310   30.1040 N   0  0  0  0  0  0  0  0  0  0  0  0
   37.6710   24.1590   30.6880 C   0  0  0  0  0  0  0  0  0  0  0  0
   37.8420   24.9290   31.9580 C   0  0  0  0  0  0  0  0  0  0  0  0
   36.7480   25.3140   32.7460 C   0  0  0  0  0  0  0  0  0  0  0  0
   36.9470   26.0330   33.9260 C   0  0  0  0  0  0  0  0  0  0  0  0
   38.2450   26.3650   34.3230 C   0  0  0  0  0  0  0  0  0  0  0  0
   39.3420   25.9860   33.5450 C   0  0  0  0  0  0  0  0  0  0  0  0
   39.1360   25.2650   32.3680 C   0  0  0  0  0  0  0  0  0  0  0  0
   38.4490   27.0620   35.4750 O   0  0  0  0  0  0  0  0  0  0  0  0
   32.5724   23.3536   28.0373 H   0  0  0  0  0  0  0  0  0  0  0  0
   34.8174   22.6296   26.0792 H   0  0  0  0  0  0  0  0  0  0  0  0
   34.0846   24.9923   26.9828 H   0  0  0  0  0  0  0  0  0  0  0  0
   31.8173   23.0959   25.7213 H   0  0  0  0  0  0  0  0  0  0  0  0
   33.8919   23.1105   23.9772 H   0  0  0  0  0  0  0  0  0  0  0  0
   33.2959   20.4494   25.4852 H   0  0  0  0  0  0  0  0  0  0  0  0
   30.5562   20.4250   25.8922 H   0  0  0  0  0  0  0  0  0  0  0  0
   31.3591   21.2894   27.6427 H   0  0  0  0  0  0  0  0  0  0  0  0
   32.2839   19.2961   28.8891 H   0  0  0  0  0  0  0  0  0  0  0  0
   31.2412   18.9625   27.4391 H   0  0  0  0  0  0  0  0  0  0  0  0
   33.7822   18.1206   27.9378 H   0  0  0  0  0  0  0  0  0  0  0  0
   35.5678   23.0653   28.4150 H   0  0  0  0  0  0  0  0  0  0  0  0
   35.3649   24.8694   31.3825 H   0  0  0  0  0  0  0  0  0  0  0  0
   38.5814   23.7551   30.2211 H   0  0  0  0  0  0  0  0  0  0  0  0
   35.7276   25.0481   32.4328 H   0  0  0  0  0  0  0  0  0  0  0  0
   36.0864   26.3366   34.5401 H   0  0  0  0  0  0  0  0  0  0  0  0
   40.3617   26.2543   33.8583 H   0  0  0  0  0  0  0  0  0  0  0  0
   39.9985   24.9585   31.7579 H   0  0  0  0  0  0  0  0  0  0  0  0
   38.3194   26.6193   36.3510 H   0  0  0  0  0  0  0  0  0  0  0  0
  2  1  1  0
  1  9  1  0
  1 12  1  0
  4  2  1  0
  3  2  1  0
  5  4  1  0
  4  6  1  0
  7  6  1  0
  6  8  1  0
  8 10  1  0
  8  9  1  0
 11 10  1  0
 12 13  1  0
 13 15  2  0
 13 14  1  0
 16 14  1  0
 16 17  2  0
 17 18  1  0
 18 19  2  0
 18 23  1  0
 19 20  1  0
 20 21  2  0
 22 21  1  0
 21 24  1  0
 23 22  2  0
  1 25  1  0
  2 26  1  0
  3 27  1  0
  4 28  1  0
  5 29  1  0
  6 30  1  0
  7 31  1  0
  8 32  1  0
 10 33  1  0
 10 34  1  0
 11 35  1  0
 12 36  1  0
 14 37  1  0
 17 38  1  0
 19 39  1  0
 20 40  1  0
 22 41  1  0
 23 42  1  0
 24 43  1  0
A    1
C1
A    2
C2
A    3
O2
A    4
C3
A    5
O3
A    6
C4
A    7
O4
A    8
C5
A    9
O5
A   10
C6
A   11
O6
A   12
NAL
A   13
CAM
A   14
NAN
A   15
SAO
A   16
NAP
A   17
CAQ
A   18
CAR
A   19
CAS
A   20
CAT
A   21
CAU
A   22
CAV
A   23
CAW
A   24
OAX
M  END
