2VK0_MPB_C_1022
     RDKit          3D

 19 19  0  0  0  0  0  0  0  0999 V2000
    3.7020   20.5500   -0.6740 C   0  0  0  0  0  0  0  0  0  0  0  0
    3.8020   21.3360    0.2540 O   0  0  0  0  0  0  0  0  0  0  0  0
    2.3820   20.2910   -1.2290 O   0  0  0  0  0  0  0  0  0  0  0  0
    1.3730   19.6870   -0.4240 C   0  0  0  0  0  0  0  0  0  0  0  0
    4.9130   19.8630   -1.2460 C   0  0  0  0  0  0  0  0  0  0  0  0
    4.8460   19.2850   -2.5140 C   0  0  0  0  0  0  0  0  0  0  0  0
    5.9620   18.6480   -3.0560 C   0  0  0  0  0  0  0  0  0  0  0  0
    7.1500   18.5860   -2.3330 C   0  0  0  0  0  0  0  0  0  0  0  0
    7.2210   19.1620   -1.0660 C   0  0  0  0  0  0  0  0  0  0  0  0
    6.1060   19.7990   -0.5240 C   0  0  0  0  0  0  0  0  0  0  0  0
    8.2400   17.9630   -2.8630 O   0  0  0  0  0  0  0  0  0  0  0  0
    1.6160   19.8325    0.6389 H   0  0  0  0  0  0  0  0  0  0  0  0
    0.4008   20.1518   -0.6448 H   0  0  0  0  0  0  0  0  0  0  0  0
    1.3234   18.6105   -0.6448 H   0  0  0  0  0  0  0  0  0  0  0  0
    3.9092   19.3319   -3.0886 H   0  0  0  0  0  0  0  0  0  0  0  0
    5.9034   18.1939   -4.0562 H   0  0  0  0  0  0  0  0  0  0  0  0
    8.1586   19.1139   -0.4927 H   0  0  0  0  0  0  0  0  0  0  0  0
    6.1663   20.2529    0.4762 H   0  0  0  0  0  0  0  0  0  0  0  0
    8.9254   17.5712   -2.2656 H   0  0  0  0  0  0  0  0  0  0  0  0
  1  2  2  0
  1  3  1  0
  1  5  1  0
  3  4  1  0
  5  6  2  0
  5 10  1  0
  6  7  1  0
  7  8  2  0
  8  9  1  0
  8 11  1  0
  9 10  2  0
  4 12  1  0
  4 13  1  0
  4 14  1  0
  6 15  1  0
  7 16  1  0
  9 17  1  0
 10 18  1  0
 11 19  1  0
A    1
C
A    2
O1
A    3
O2
A    4
CM
A    5
C1
A    6
C2
A    7
C3
A    8
C4
A    9
C5
A   10
C6
A   11
O4
M  END
