3MU6_BXL_A_100
     RDKit          3D

 48 49  0  0  0  0  0  0  0  0999 V2000
    0.4680  -23.0210   17.9690 C   0  0  0  0  0  0  0  0  0  0  0  0
   -3.1490  -22.6210   17.0520 N   0  0  0  0  0  0  0  0  0  0  0  0
   -3.2750  -22.6950   19.3690 O   0  0  0  0  0  0  0  0  0  0  0  0
    1.0090  -23.4390   16.7610 C   0  0  0  0  0  0  0  0  0  0  0  0
   -7.1020  -15.5520   21.7220 N   0  0  0  0  0  0  0  0  0  0  0  0
   -5.5370  -14.9050   23.2920 O   0  0  0  0  0  0  0  0  0  0  0  0
    0.1820  -23.5910   15.6570 C   0  0  0  0  0  0  0  0  0  0  0  0
   -9.5730  -15.4460   23.1340 N   0  0  0  0  0  0  0  0  0  0  0  0
   -1.1800  -23.3240   15.7570 C   0  0  0  0  0  0  0  0  0  0  0  0
   -1.7330  -22.9070   16.9640 C   0  0  0  0  0  0  0  0  0  0  0  0
   -0.8940  -22.7580   18.0650 C   0  0  0  0  0  0  0  0  0  0  0  0
   -3.8490  -22.4880   18.3070 C   0  0  0  0  0  0  0  0  0  0  0  0
   -5.3000  -22.1090   18.3360 C   0  0  0  0  0  0  0  0  0  0  0  0
   -5.7620  -21.1960   19.4350 C   0  0  0  0  0  0  0  0  0  0  0  0
   -4.8940  -20.0280   19.8050 C   0  0  0  0  0  0  0  0  0  0  0  0
   -5.1700  -19.2860   21.0810 C   0  0  0  0  0  0  0  0  0  0  0  0
   -5.2200  -17.7860   21.0390 C   0  0  0  0  0  0  0  0  0  0  0  0
   -5.1240  -17.0250   22.3290 C   0  0  0  0  0  0  0  0  0  0  0  0
   -5.8790  -15.7340   22.4580 C   0  0  0  0  0  0  0  0  0  0  0  0
   -7.8620  -14.3290   21.7870 C   0  0  0  0  0  0  0  0  0  0  0  0
   -7.3960  -13.1880   21.1400 C   0  0  0  0  0  0  0  0  0  0  0  0
   -8.1320  -12.0090   21.1660 C   0  0  0  0  0  0  0  0  0  0  0  0
   -9.3420  -11.9650   21.8470 C   0  0  0  0  0  0  0  0  0  0  0  0
   -9.8120  -13.1030   22.4930 C   0  0  0  0  0  0  0  0  0  0  0  0
   -9.0780  -14.2840   22.4620 C   0  0  0  0  0  0  0  0  0  0  0  0
    1.1160  -22.8979   18.8493 H   0  0  0  0  0  0  0  0  0  0  0  0
   -3.6821  -22.5071   16.1781 H   0  0  0  0  0  0  0  0  0  0  0  0
    2.0858  -23.6483   16.6793 H   0  0  0  0  0  0  0  0  0  0  0  0
   -7.4457  -16.3210   21.1292 H   0  0  0  0  0  0  0  0  0  0  0  0
    0.6053  -23.9243   14.6980 H   0  0  0  0  0  0  0  0  0  0  0  0
   -9.5870  -15.4788   24.1634 H   0  0  0  0  0  0  0  0  0  0  0  0
   -9.9154  -16.2497   22.5884 H   0  0  0  0  0  0  0  0  0  0  0  0
   -1.8252  -23.4436   14.8742 H   0  0  0  0  0  0  0  0  0  0  0  0
   -1.3151  -22.4271   19.0258 H   0  0  0  0  0  0  0  0  0  0  0  0
   -5.5295  -21.6149   17.3804 H   0  0  0  0  0  0  0  0  0  0  0  0
   -5.8304  -23.0550   18.5196 H   0  0  0  0  0  0  0  0  0  0  0  0
   -6.7133  -21.3784   19.9564 H   0  0  0  0  0  0  0  0  0  0  0  0
   -4.0662  -19.7197   19.1495 H   0  0  0  0  0  0  0  0  0  0  0  0
   -6.1445  -19.6334   21.4548 H   0  0  0  0  0  0  0  0  0  0  0  0
   -4.3007  -19.5096   21.7169 H   0  0  0  0  0  0  0  0  0  0  0  0
   -4.3867  -17.4520   20.4034 H   0  0  0  0  0  0  0  0  0  0  0  0
   -6.2327  -17.5628   20.6722 H   0  0  0  0  0  0  0  0  0  0  0  0
   -5.4829  -17.6920   23.1267 H   0  0  0  0  0  0  0  0  0  0  0  0
   -4.0672  -16.7252   22.3863 H   0  0  0  0  0  0  0  0  0  0  0  0
   -6.4364  -13.2196   20.6031 H   0  0  0  0  0  0  0  0  0  0  0  0
   -7.7573  -11.1134   20.6488 H   0  0  0  0  0  0  0  0  0  0  0  0
   -9.9261  -11.0333   21.8751 H   0  0  0  0  0  0  0  0  0  0  0  0
  -10.7703  -13.0691   23.0320 H   0  0  0  0  0  0  0  0  0  0  0  0
  4  1  2  0
  1 11  1  0
 10  2  1  0
  2 12  1  0
 12  3  2  0
  7  4  1  0
  5 20  1  0
  5 19  1  0
 19  6  2  0
  7  9  2  0
 25  8  1  0
  9 10  1  0
 10 11  2  0
 12 13  1  0
 13 14  1  0
 14 15  2  0
 15 16  1  0
 17 16  1  0
 17 18  1  0
 18 19  1  0
 21 20  2  0
 20 25  1  0
 21 22  1  0
 22 23  2  0
 23 24  1  0
 25 24  2  0
  1 26  1  0
  2 27  1  0
  4 28  1  0
  5 29  1  0
  7 30  1  0
  8 31  1  0
  8 32  1  0
  9 33  1  0
 11 34  1  0
 13 35  1  0
 13 36  1  0
 14 37  1  0
 15 38  1  0
 16 39  1  0
 16 40  1  0
 17 41  1  0
 17 42  1  0
 18 43  1  0
 18 44  1  0
 21 45  1  0
 22 46  1  0
 23 47  1  0
 24 48  1  0
A    1
C1
A    2
N1
A    3
O1
A    4
C2
A    5
N2
A    6
O2
A    7
C3
A    8
N3
A    9
C4
A   10
C5
A   11
C6
A   12
C7
A   13
C8
A   14
C9
A   15
C10
A   16
C11
A   17
C12
A   18
C13
A   19
C14
A   20
C15
A   21
C16
A   22
C17
A   23
C18
A   24
C19
A   25
C20
M  END
