3EYL_SMK_A_600
     RDKit          3D

 76 79  0  0  0  0  0  0  0  0999 V2000
   29.7810   -6.7240    7.5700 C   0  0  0  0  0  0  0  0  0  0  0  0
   29.3600   -5.4400    6.8680 C   0  0  0  0  0  0  0  0  0  0  0  0
   29.4730   -4.2460    7.8160 C   0  0  0  0  0  0  0  0  0  0  0  0
   28.8600   -3.0550    7.2100 N   0  0  0  0  0  0  0  0  0  0  0  0
   30.9470   -3.9980    8.0950 C   0  0  0  0  0  0  0  0  0  0  0  0
   31.7320   -3.7090    7.1960 O   0  0  0  0  0  0  0  0  0  0  0  0
   31.3150   -4.1290    9.3530 N   0  0  0  0  0  0  0  0  0  0  0  0
   32.7270   -3.9300    9.6930 C   0  0  0  0  0  0  0  0  0  0  0  0
   33.2140   -5.0750   10.6070 C   0  0  0  0  0  0  0  0  0  0  0  0
   32.4000   -5.9010   11.0150 O   0  0  0  0  0  0  0  0  0  0  0  0
   34.4890   -5.2500   10.9430 N   0  0  0  0  0  0  0  0  0  0  0  0
   33.0110   -2.4850   10.1940 C   0  0  0  0  0  0  0  0  0  0  0  0
   32.3330   -2.1190   11.5250 C   0  0  0  0  0  0  0  0  0  0  0  0
   31.9520   -0.6300   11.5590 C   0  0  0  0  0  0  0  0  0  0  0  0
   30.6900   -0.4170   10.8370 N   0  0  0  0  0  0  0  0  0  0  0  0
   34.5290   -2.1540   10.2070 C   0  0  0  0  0  0  0  0  0  0  0  0
   35.3860   -3.0150   11.1510 C   0  0  0  0  0  0  0  0  0  0  0  0
   35.6330   -4.4080   10.5670 C   0  0  0  0  0  0  0  0  0  0  0  0
   36.8530   -5.0280   11.2430 C   0  0  0  0  0  0  0  0  0  0  0  0
   36.4310   -6.4500   11.5890 C   0  0  0  0  0  0  0  0  0  0  0  0
   34.9180   -6.3650   11.7920 C   0  0  0  0  0  0  0  0  0  0  0  0
   34.5450   -6.0950   13.2540 C   0  0  0  0  0  0  0  0  0  0  0  0
   34.4250   -4.9520   13.6900 O   0  0  0  0  0  0  0  0  0  0  0  0
   34.3570   -7.1860   13.9830 N   0  0  0  0  0  0  0  0  0  0  0  0
   33.9730   -7.1100   15.3960 C   0  0  0  0  0  0  0  0  0  0  0  0
   35.1340   -6.5940   16.2620 C   0  0  0  0  0  0  0  0  0  0  0  0
   34.8440   -5.8200   17.3890 C   0  0  0  0  0  0  0  0  0  0  0  0
   35.8710   -5.3260   18.1940 C   0  0  0  0  0  0  0  0  0  0  0  0
   37.1950   -5.6060   17.8620 C   0  0  0  0  0  0  0  0  0  0  0  0
   37.4890   -6.3750   16.7340 C   0  0  0  0  0  0  0  0  0  0  0  0
   36.4620   -6.8690   15.9280 C   0  0  0  0  0  0  0  0  0  0  0  0
   33.4480   -8.4800   15.8190 C   0  0  0  0  0  0  0  0  0  0  0  0
   32.3600   -9.0040   15.1200 C   0  0  0  0  0  0  0  0  0  0  0  0
   31.8310  -10.2440   15.4550 C   0  0  0  0  0  0  0  0  0  0  0  0
   32.4080  -10.9580   16.5040 C   0  0  0  0  0  0  0  0  0  0  0  0
   33.4950  -10.4390   17.2080 C   0  0  0  0  0  0  0  0  0  0  0  0
   34.0210   -9.1980   16.8650 C   0  0  0  0  0  0  0  0  0  0  0  0
   29.7334   -6.5789    8.6593 H   0  0  0  0  0  0  0  0  0  0  0  0
   29.1034   -7.5402    7.2789 H   0  0  0  0  0  0  0  0  0  0  0  0
   30.8103   -6.9805    7.2789 H   0  0  0  0  0  0  0  0  0  0  0  0
   30.0118   -5.2735    5.9977 H   0  0  0  0  0  0  0  0  0  0  0  0
   28.3129   -5.5391    6.5460 H   0  0  0  0  0  0  0  0  0  0  0  0
   28.9430   -4.4588    8.7561 H   0  0  0  0  0  0  0  0  0  0  0  0
   28.5337   -2.4210    7.9532 H   0  0  0  0  0  0  0  0  0  0  0  0
   29.5562   -2.5699    6.6261 H   0  0  0  0  0  0  0  0  0  0  0  0
   30.6262   -4.3659   10.0813 H   0  0  0  0  0  0  0  0  0  0  0  0
   33.3456   -3.9986    8.7860 H   0  0  0  0  0  0  0  0  0  0  0  0
   32.5315   -1.8368    9.4457 H   0  0  0  0  0  0  0  0  0  0  0  0
   31.4232   -2.7258   11.6439 H   0  0  0  0  0  0  0  0  0  0  0  0
   33.0395   -2.3184   12.3442 H   0  0  0  0  0  0  0  0  0  0  0  0
   31.8324   -0.3085   12.6041 H   0  0  0  0  0  0  0  0  0  0  0  0
   32.7473   -0.0429   11.0765 H   0  0  0  0  0  0  0  0  0  0  0  0
   29.9247   -0.2878   11.5141 H   0  0  0  0  0  0  0  0  0  0  0  0
   30.7703    0.4223   10.2454 H   0  0  0  0  0  0  0  0  0  0  0  0
   34.9135   -2.2861    9.1849 H   0  0  0  0  0  0  0  0  0  0  0  0
   34.6103   -1.1228   10.5812 H   0  0  0  0  0  0  0  0  0  0  0  0
   36.3538   -2.5169   11.3099 H   0  0  0  0  0  0  0  0  0  0  0  0
   34.8449   -3.1294   12.1018 H   0  0  0  0  0  0  0  0  0  0  0  0
   35.7747   -4.3384    9.4784 H   0  0  0  0  0  0  0  0  0  0  0  0
   37.7129   -5.0359   10.5571 H   0  0  0  0  0  0  0  0  0  0  0  0
   37.1653   -4.4614   12.1326 H   0  0  0  0  0  0  0  0  0  0  0  0
   36.6743   -7.1383   10.7662 H   0  0  0  0  0  0  0  0  0  0  0  0
   36.9503   -6.8342   12.4794 H   0  0  0  0  0  0  0  0  0  0  0  0
   34.4290   -7.3152   11.5313 H   0  0  0  0  0  0  0  0  0  0  0  0
   34.4838   -8.1100   13.5460 H   0  0  0  0  0  0  0  0  0  0  0  0
   33.1673   -6.3758   15.5437 H   0  0  0  0  0  0  0  0  0  0  0  0
   33.7971   -5.5984   17.6436 H   0  0  0  0  0  0  0  0  0  0  0  0
   35.6376   -4.7211   19.0826 H   0  0  0  0  0  0  0  0  0  0  0  0
   38.0112   -5.2201   18.4904 H   0  0  0  0  0  0  0  0  0  0  0  0
   38.5366   -6.5928   16.4790 H   0  0  0  0  0  0  0  0  0  0  0  0
   36.6967   -7.4700   15.0371 H   0  0  0  0  0  0  0  0  0  0  0  0
   31.9161   -8.4286   14.2942 H   0  0  0  0  0  0  0  0  0  0  0  0
   30.9729  -10.6548   14.9028 H   0  0  0  0  0  0  0  0  0  0  0  0
   32.0015  -11.9422   16.7800 H   0  0  0  0  0  0  0  0  0  0  0  0
   33.9370  -11.0125   18.0361 H   0  0  0  0  0  0  0  0  0  0  0  0
   34.8811   -8.7880   17.4147 H   0  0  0  0  0  0  0  0  0  0  0  0
  1  2  1  0
  2  3  1  0
  3  4  1  0
  3  5  1  0
  5  6  2  0
  5  7  1  0
  7  8  1  0
  8  9  1  0
  8 12  1  0
  9 10  2  0
  9 11  1  0
 11 18  1  0
 11 21  1  0
 12 13  1  0
 12 16  1  0
 13 14  1  0
 14 15  1  0
 16 17  1  0
 17 18  1  0
 18 19  1  0
 19 20  1  0
 20 21  1  0
 21 22  1  0
 22 23  2  0
 22 24  1  0
 24 25  1  0
 25 26  1  0
 25 32  1  0
 26 27  2  0
 26 31  1  0
 27 28  1  0
 28 29  2  0
 29 30  1  0
 30 31  2  0
 32 33  2  0
 32 37  1  0
 33 34  1  0
 34 35  2  0
 35 36  1  0
 36 37  2  0
  1 38  1  0
  1 39  1  0
  1 40  1  0
  2 41  1  0
  2 42  1  0
  3 43  1  0
  4 44  1  0
  4 45  1  0
  7 46  1  0
  8 47  1  0
 12 48  1  0
 13 49  1  0
 13 50  1  0
 14 51  1  0
 14 52  1  0
 15 53  1  0
 15 54  1  0
 16 55  1  0
 16 56  1  0
 17 57  1  0
 17 58  1  0
 18 59  1  0
 19 60  1  0
 19 61  1  0
 20 62  1  0
 20 63  1  0
 21 64  1  0
 24 65  1  0
 25 66  1  0
 27 67  1  0
 28 68  1  0
 29 69  1  0
 30 70  1  0
 31 71  1  0
 33 72  1  0
 34 73  1  0
 35 74  1  0
 36 75  1  0
 37 76  1  0
A    1
CAA
A    2
CB
A    3
CA
A    4
N
A    5
C
A    6
O
A    7
NAY
A    8
CBI
A    9
CBB
A   10
OAF
A   11
NBK
A   12
CBF
A   13
CAS
A   14
CAQ
A   15
NAB
A   16
CAT
A   17
CAU
A   18
CBG
A   19
CAV
A   20
CAW
A   21
CBJ
A   22
CBA
A   23
OAE
A   24
NAX
A   25
CBH
A   26
CBC
A   27
CAM
A   28
CAI
A   29
CAG
A   30
CAJ
A   31
CAN
A   32
CBD
A   33
CAO
A   34
CAK
A   35
CAH
A   36
CAL
A   37
CAP
M  END
