3MV5_XFE_A_999
     RDKit          3D

 31 33  0  0  0  0  0  0  0  0999 V2000
    7.7030    2.9450   19.0800 C   0  0  0  0  0  0  0  0  0  0  0  0
    8.3500    4.1420   18.4140 C   0  0  0  0  0  0  0  0  0  0  0  0
    7.1770    4.8100   17.6990 C   0  0  0  0  0  0  0  0  0  0  0  0
    6.3720    3.6650   17.2890 N   0  0  0  0  0  0  0  0  0  0  0  0
    6.6440    2.4790   18.0890 C   0  0  0  0  0  0  0  0  0  0  0  0
    5.0950    3.9220   16.7430 C   0  0  0  0  0  0  0  0  0  0  0  0
    4.8810    5.2460   16.5710 N   0  0  0  0  0  0  0  0  0  0  0  0
    3.7070    5.7080   16.0980 C   0  0  0  0  0  0  0  0  0  0  0  0
    2.6930    4.8490   15.7390 N   0  0  0  0  0  0  0  0  0  0  0  0
    4.0540    3.0000   16.3770 C   0  0  0  0  0  0  0  0  0  0  0  0
    2.8290    3.5150   15.8680 C   0  0  0  0  0  0  0  0  0  0  0  0
    1.9170    2.5540   15.5790 N   0  0  0  0  0  0  0  0  0  0  0  0
    2.4280    1.3250   15.8460 C   0  0  0  0  0  0  0  0  0  0  0  0
    3.7330    1.5320   16.3170 C   0  0  0  0  0  0  0  0  0  0  0  0
    4.5770    0.3460   16.7110 C   0  0  0  0  0  0  0  0  0  0  0  0
    7.0470    3.3570   20.3150 N   0  0  0  0  0  0  0  0  0  0  0  0
    8.4355    2.1627   19.3279 H   0  0  0  0  0  0  0  0  0  0  0  0
    8.7953    4.8171   19.1597 H   0  0  0  0  0  0  0  0  0  0  0  0
    9.1735    3.8702   17.7372 H   0  0  0  0  0  0  0  0  0  0  0  0
    6.6170    5.4675   18.3803 H   0  0  0  0  0  0  0  0  0  0  0  0
    7.4808    5.4575   16.8632 H   0  0  0  0  0  0  0  0  0  0  0  0
    7.0278    1.6618   17.4606 H   0  0  0  0  0  0  0  0  0  0  0  0
    5.7442    2.0828   18.5824 H   0  0  0  0  0  0  0  0  0  0  0  0
    3.5559    6.7929   15.9967 H   0  0  0  0  0  0  0  0  0  0  0  0
    0.9719    2.7312   15.2098 H   0  0  0  0  0  0  0  0  0  0  0  0
    1.9193    0.3581   15.7183 H   0  0  0  0  0  0  0  0  0  0  0  0
    4.6251    0.2784   17.8079 H   0  0  0  0  0  0  0  0  0  0  0  0
    4.1290   -0.5735   16.3063 H   0  0  0  0  0  0  0  0  0  0  0  0
    5.5925    0.4680   16.3063 H   0  0  0  0  0  0  0  0  0  0  0  0
    7.5892    3.0165   21.1219 H   0  0  0  0  0  0  0  0  0  0  0  0
    6.9915    4.3850   20.3479 H   0  0  0  0  0  0  0  0  0  0  0  0
  5  1  1  0
  2  1  1  0
  1 16  1  0
  3  2  1  0
  4  3  1  0
  6  4  1  0
  4  5  1  0
 10  6  1  0
  7  6  2  0
  8  7  1  0
  9  8  2  0
  9 11  1  0
 11 10  2  0
 14 10  1  0
 12 11  1  0
 12 13  1  0
 13 14  2  0
 14 15  1  0
  1 17  1  0
  2 18  1  0
  2 19  1  0
  3 20  1  0
  3 21  1  0
  5 22  1  0
  5 23  1  0
  8 24  1  0
 12 25  1  0
 13 26  1  0
 15 27  1  0
 15 28  1  0
 15 29  1  0
 16 30  1  0
 16 31  1  0
A    1
C1
A    2
C2
A    3
C3
A    4
N4
A    5
C5
A    6
C6
A    7
N7
A    8
C8
A    9
N9
A   10
C10
A   11
C11
A   12
N12
A   13
C13
A   14
C14
A   15
C15
A   16
N16
M  END
