3MVM_39P_A_361
     RDKit          3D

 55 58  0  0  0  0  0  0  0  0999 V2000
   -2.3400    5.8340   36.1510 N   0  0  0  0  0  0  0  0  0  0  0  0
   -2.2860    4.4170   35.8610 N   0  0  0  0  0  0  0  0  0  0  0  0
   -2.5880    3.4830   36.7760 C   0  0  0  0  0  0  0  0  0  0  0  0
   -2.9720    3.8850   38.0660 N   0  0  0  0  0  0  0  0  0  0  0  0
   -3.0360    5.1870   38.3770 C   0  0  0  0  0  0  0  0  0  0  0  0
   -2.7050    6.2700   37.3810 C   0  0  0  0  0  0  0  0  0  0  0  0
   -2.6790    7.6480   37.4090 C   0  0  0  0  0  0  0  0  0  0  0  0
   -2.2610    8.0400   36.0660 C   0  0  0  0  0  0  0  0  0  0  0  0
   -2.0760    6.8980   35.3690 C   0  0  0  0  0  0  0  0  0  0  0  0
   -2.0680    9.4300   35.5420 C   0  0  0  0  0  0  0  0  0  0  0  0
   -2.4650   10.4040   36.2250 O   0  0  0  0  0  0  0  0  0  0  0  0
   -1.4580    9.5220   34.3260 N   0  0  0  0  0  0  0  0  0  0  0  0
   -1.1510   10.7410   33.5530 C   0  0  0  0  0  0  0  0  0  0  0  0
   -2.3630   11.0320   32.6680 C   0  0  0  0  0  0  0  0  0  0  0  0
   -2.2770   10.1430   31.4460 C   0  0  0  0  0  0  0  0  0  0  0  0
   -3.0070    8.5880   38.5580 C   0  0  0  0  0  0  0  0  0  0  0  0
   -3.4060    5.5170   39.6110 N   0  0  0  0  0  0  0  0  0  0  0  0
   -3.7680    4.5120   40.4930 C   0  0  0  0  0  0  0  0  0  0  0  0
   -5.1570    4.0860   40.6630 C   0  0  0  0  0  0  0  0  0  0  0  0
   -5.4340    3.0580   41.5830 C   0  0  0  0  0  0  0  0  0  0  0  0
   -4.3800    2.4770   42.3030 C   0  0  0  0  0  0  0  0  0  0  0  0
   -3.0310    2.9150   42.1140 C   0  0  0  0  0  0  0  0  0  0  0  0
   -2.7390    3.9180   41.2230 C   0  0  0  0  0  0  0  0  0  0  0  0
   -1.9020    2.3420   42.8410 C   0  0  0  0  0  0  0  0  0  0  0  0
   -0.7960    2.9320   42.7280 O   0  0  0  0  0  0  0  0  0  0  0  0
   -2.1080    1.2310   43.5810 N   0  0  0  0  0  0  0  0  0  0  0  0
   -1.2100    0.7670   44.4850 C   0  0  0  0  0  0  0  0  0  0  0  0
   -0.2490    1.4480   45.1150 N   0  0  0  0  0  0  0  0  0  0  0  0
    0.4170    0.5310   45.9500 O   0  0  0  0  0  0  0  0  0  0  0  0
   -0.1550   -0.6930   45.8090 C   0  0  0  0  0  0  0  0  0  0  0  0
   -1.1290   -0.6170   44.9520 C   0  0  0  0  0  0  0  0  0  0  0  0
   -6.3200    4.6970   39.8960 C   0  0  0  0  0  0  0  0  0  0  0  0
   -2.5354    2.4148   36.5188 H   0  0  0  0  0  0  0  0  0  0  0  0
   -1.7568    6.8449   34.3177 H   0  0  0  0  0  0  0  0  0  0  0  0
   -1.1767    8.6305   33.8935 H   0  0  0  0  0  0  0  0  0  0  0  0
   -0.9713   11.5848   34.2354 H   0  0  0  0  0  0  0  0  0  0  0  0
   -0.2469   10.5991   32.9428 H   0  0  0  0  0  0  0  0  0  0  0  0
   -3.2890   10.8167   33.2213 H   0  0  0  0  0  0  0  0  0  0  0  0
   -2.3715   12.0907   32.3694 H   0  0  0  0  0  0  0  0  0  0  0  0
   -2.1755    9.0942   31.7619 H   0  0  0  0  0  0  0  0  0  0  0  0
   -3.1904   10.2579   30.8440 H   0  0  0  0  0  0  0  0  0  0  0  0
   -1.4025   10.4308   30.8440 H   0  0  0  0  0  0  0  0  0  0  0  0
   -2.8279    8.0747   39.5142 H   0  0  0  0  0  0  0  0  0  0  0  0
   -2.3672    9.4806   38.4955 H   0  0  0  0  0  0  0  0  0  0  0  0
   -4.0632    8.8888   38.4955 H   0  0  0  0  0  0  0  0  0  0  0  0
   -3.4231    6.5037   39.9061 H   0  0  0  0  0  0  0  0  0  0  0  0
   -6.4673    2.7134   41.7360 H   0  0  0  0  0  0  0  0  0  0  0  0
   -4.5934    1.6733   43.0231 H   0  0  0  0  0  0  0  0  0  0  0  0
   -1.6996    4.2510   41.0858 H   0  0  0  0  0  0  0  0  0  0  0  0
   -2.9883    0.7119   43.4527 H   0  0  0  0  0  0  0  0  0  0  0  0
    0.1574   -1.6057   46.3375 H   0  0  0  0  0  0  0  0  0  0  0  0
   -1.7777   -1.4465   44.6340 H   0  0  0  0  0  0  0  0  0  0  0  0
   -7.0632    5.0875   40.6068 H   0  0  0  0  0  0  0  0  0  0  0  0
   -5.9512    5.5178   39.2633 H   0  0  0  0  0  0  0  0  0  0  0  0
   -6.7866    3.9276   39.2633 H   0  0  0  0  0  0  0  0  0  0  0  0
  9  1  1  0
  2  1  1  0
  1  6  1  0
  2  3  2  0
  3  4  1  0
  4  5  2  0
  6  5  1  0
  5 17  1  0
  7  6  2  0
  8  7  1  0
  7 16  1  0
 10  8  1  0
  9  8  2  0
 12 10  1  0
 10 11  2  0
 13 12  1  0
 14 13  1  0
 15 14  1  0
 17 18  1  0
 18 19  2  0
 18 23  1  0
 32 19  1  0
 19 20  1  0
 20 21  2  0
 22 21  1  0
 23 22  2  0
 22 24  1  0
 25 24  2  0
 24 26  1  0
 26 27  1  0
 27 31  1  0
 27 28  2  0
 28 29  1  0
 30 29  1  0
 31 30  2  0
  3 33  1  0
  9 34  1  0
 12 35  1  0
 13 36  1  0
 13 37  1  0
 14 38  1  0
 14 39  1  0
 15 40  1  0
 15 41  1  0
 15 42  1  0
 16 43  1  0
 16 44  1  0
 16 45  1  0
 17 46  1  0
 20 47  1  0
 21 48  1  0
 23 49  1  0
 26 50  1  0
 30 51  1  0
 31 52  1  0
 32 53  1  0
 32 54  1  0
 32 55  1  0
A    1
N1
A    2
N2
A    3
C3
A    4
N4
A    5
C5
A    6
C6
A    7
C7
A    8
C8
A    9
C9
A   10
C10
A   11
O11
A   12
N12
A   13
C13
A   14
C14
A   15
C15
A   16
C16
A   17
N17
A   18
C18
A   19
C19
A   20
C20
A   21
C21
A   22
C22
A   23
C23
A   24
C24
A   25
O25
A   26
N26
A   27
C27
A   28
N28
A   29
O29
A   30
C30
A   31
C31
A   32
C32
M  END
