3MW1_MIH_A_1
     RDKit          3D

 52 56  0  0  0  0  0  0  0  0999 V2000
   15.9660   12.2870   30.7970 C   0  0  0  0  0  0  0  0  0  0  0  0
   16.7490   13.0010   29.8890 C   0  0  0  0  0  0  0  0  0  0  0  0
   18.1390   12.9890   29.9890 C   0  0  0  0  0  0  0  0  0  0  0  0
   18.7230   12.2390   30.9930 C   0  0  0  0  0  0  0  0  0  0  0  0
   17.9260   11.5500   31.8870 C   0  0  0  0  0  0  0  0  0  0  0  0
   16.5560   11.5610   31.7990 C   0  0  0  0  0  0  0  0  0  0  0  0
   14.6320   12.2730   30.7310 F   0  0  0  0  0  0  0  0  0  0  0  0
   18.4770   10.8320   32.8670 F   0  0  0  0  0  0  0  0  0  0  0  0
   20.1800   12.1580   31.2270 C   0  0  0  0  0  0  0  0  0  0  0  0
   20.9030   10.9760   31.0510 C   0  0  0  0  0  0  0  0  0  0  0  0
   22.2700   10.9710   31.3360 C   0  0  0  0  0  0  0  0  0  0  0  0
   22.8780   12.0950   31.7890 N   0  0  0  0  0  0  0  0  0  0  0  0
   22.1980   13.2450   31.9960 C   0  0  0  0  0  0  0  0  0  0  0  0
   20.8320   13.2940   31.7140 C   0  0  0  0  0  0  0  0  0  0  0  0
   20.3310    9.7920   30.5930 C   0  0  0  0  0  0  0  0  0  0  0  0
   21.1240    8.6580   30.4360 C   0  0  0  0  0  0  0  0  0  0  0  0
   22.4300    8.6820   30.7070 N   0  0  0  0  0  0  0  0  0  0  0  0
   23.0270    9.8120   31.1420 C   0  0  0  0  0  0  0  0  0  0  0  0
   24.4740    9.8390   31.5080 C   0  0  0  0  0  0  0  0  0  0  0  0
   25.4640   10.4260   30.7560 C   0  0  0  0  0  0  0  0  0  0  0  0
   26.7810   10.4150   31.1860 C   0  0  0  0  0  0  0  0  0  0  0  0
   27.1140    9.8230   32.3970 C   0  0  0  0  0  0  0  0  0  0  0  0
   26.1210    9.2430   33.1680 C   0  0  0  0  0  0  0  0  0  0  0  0
   24.8050    9.2590   32.7270 C   0  0  0  0  0  0  0  0  0  0  0  0
   23.5270    8.5040   33.7500 Cl  0  0  0  0  0  0  0  0  0  0  0  0
   25.0630   11.1930   29.2060 Cl  0  0  0  0  0  0  0  0  0  0  0  0
   23.1690    7.4810   30.5010 O   0  0  0  0  0  0  0  0  0  0  0  0
   22.9270   14.4410   32.4690 C   0  0  0  0  0  0  0  0  0  0  0  0
   24.2770   14.0460   33.0750 C   0  0  0  0  0  0  0  0  0  0  0  0
   25.1710   15.2600   33.3220 C   0  0  0  0  0  0  0  0  0  0  0  0
   25.2570   16.0940   32.1370 N   0  0  0  0  0  0  0  0  0  0  0  0
   24.0520   16.4890   31.4340 C   0  0  0  0  0  0  0  0  0  0  0  0
   23.1100   15.3110   31.2290 C   0  0  0  0  0  0  0  0  0  0  0  0
   16.2649   13.5782   29.0875 H   0  0  0  0  0  0  0  0  0  0  0  0
   18.7581   13.5638   29.2844 H   0  0  0  0  0  0  0  0  0  0  0  0
   15.9435   10.9981   32.5187 H   0  0  0  0  0  0  0  0  0  0  0  0
   20.2694   14.2255   31.8749 H   0  0  0  0  0  0  0  0  0  0  0  0
   19.2575    9.7525   30.3562 H   0  0  0  0  0  0  0  0  0  0  0  0
   20.6642    7.7237   30.0814 H   0  0  0  0  0  0  0  0  0  0  0  0
   27.5644   10.8762   30.5667 H   0  0  0  0  0  0  0  0  0  0  0  0
   28.1587    9.8149   32.7412 H   0  0  0  0  0  0  0  0  0  0  0  0
   26.3745    8.7703   34.1284 H   0  0  0  0  0  0  0  0  0  0  0  0
   22.3809   14.9747   33.2608 H   0  0  0  0  0  0  0  0  0  0  0  0
   24.1003   13.5345   34.0326 H   0  0  0  0  0  0  0  0  0  0  0  0
   24.7902   13.3862   32.3600 H   0  0  0  0  0  0  0  0  0  0  0  0
   24.7524   15.8524   34.1489 H   0  0  0  0  0  0  0  0  0  0  0  0
   26.1812   14.9051   33.5741 H   0  0  0  0  0  0  0  0  0  0  0  0
   25.7334   16.9624   32.4196 H   0  0  0  0  0  0  0  0  0  0  0  0
   23.5340   17.2622   32.0204 H   0  0  0  0  0  0  0  0  0  0  0  0
   24.3416   16.8735   30.4449 H   0  0  0  0  0  0  0  0  0  0  0  0
   23.5129   14.6822   30.4214 H   0  0  0  0  0  0  0  0  0  0  0  0
   22.1228   15.7309   30.9857 H   0  0  0  0  0  0  0  0  0  0  0  0
  1  2  2  0
  1  6  1  0
  1  7  1  0
  2  3  1  0
  3  4  2  0
  4  5  1  0
  4  9  1  0
  5  6  2  0
  5  8  1  0
  9 10  2  0
  9 14  1  0
 10 11  1  0
 10 15  1  0
 11 12  2  0
 11 18  1  0
 12 13  1  0
 13 14  2  0
 13 28  1  0
 15 16  2  0
 16 17  1  0
 17 18  2  0
 17 27  1  0
 18 19  1  0
 19 20  2  0
 19 24  1  0
 20 21  1  0
 20 26  1  0
 21 22  2  0
 22 23  1  0
 23 24  2  0
 24 25  1  0
 28 29  1  0
 28 33  1  0
 29 30  1  0
 30 31  1  0
 31 32  1  0
 32 33  1  0
  2 34  1  0
  3 35  1  0
  6 36  1  0
 14 37  1  0
 15 38  1  0
 16 39  1  0
 21 40  1  0
 22 41  1  0
 23 42  1  0
 28 43  1  0
 29 44  1  0
 29 45  1  0
 30 46  1  0
 30 47  1  0
 31 48  1  0
 32 49  1  0
 32 50  1  0
 33 51  1  0
 33 52  1  0
M  CHG  2  17   1  27  -1
A    1
CAA
A    2
CAB
A    3
CAC
A    4
CAD
A    5
CAE
A    6
CAF
A    7
FAG
A    8
FAH
A    9
CAI
A   10
CAJ
A   11
CAK
A   12
NAL
A   13
CAM
A   14
CAN
A   15
CAO
A   16
CAP
A   17
NAQ
A   18
CAR
A   19
CAS
A   20
CAT
A   21
CAU
A   22
CAV
A   23
CAW
A   24
CAX
A   25
CLAY
A   26
CLAZ
A   27
OBA
A   28
CBB
A   29
CBC
A   30
CBD
A   31
NBE
A   32
CBF
A   33
CBG
M  END
