3MW0_BHR_A_504
     RDKit          3D

 53 54  0  0  0  0  0  0  0  0999 V2000
    4.3700   -2.0170   33.1120 C   0  0  0  0  0  0  0  0  0  0  0  0
    5.3690   -1.1810   32.6070 C   0  0  0  0  0  0  0  0  0  0  0  0
    5.5610    0.0980   33.1300 C   0  0  0  0  0  0  0  0  0  0  0  0
    4.7540    0.5490   34.1800 C   0  0  0  0  0  0  0  0  0  0  0  0
    3.7510   -0.2790   34.6970 C   0  0  0  0  0  0  0  0  0  0  0  0
    2.9600    0.1710   35.7270 O   0  0  0  0  0  0  0  0  0  0  0  0
    3.5640   -1.5560   34.1580 C   0  0  0  0  0  0  0  0  0  0  0  0
    2.6070   -2.3650   34.6730 O   0  0  0  0  0  0  0  0  0  0  0  0
    4.2560   -3.3900   32.4510 C   0  0  0  0  0  0  0  0  0  0  0  0
    3.8670   -4.4600   33.3820 N   0  0  0  0  0  0  0  0  0  0  0  0
    3.4900   -5.5810   32.4980 C   0  0  0  0  0  0  0  0  0  0  0  0
    2.7680   -6.7250   33.2420 C   0  0  0  0  0  0  0  0  0  0  0  0
    1.6410   -6.2470   34.0660 N   0  0  0  0  0  0  0  0  0  0  0  0
    1.5310   -7.1140   35.2530 C   0  0  0  0  0  0  0  0  0  0  0  0
    0.3940   -6.6350   36.1690 C   0  0  0  0  0  0  0  0  0  0  0  0
   -0.4830   -7.6030   36.6680 C   0  0  0  0  0  0  0  0  0  0  0  0
   -1.5500   -7.2470   37.5060 C   0  0  0  0  0  0  0  0  0  0  0  0
   -1.7290   -5.8970   37.8500 C   0  0  0  0  0  0  0  0  0  0  0  0
   -0.8480   -4.9250   37.3680 C   0  0  0  0  0  0  0  0  0  0  0  0
    0.2020   -5.2980   36.5320 C   0  0  0  0  0  0  0  0  0  0  0  0
    1.0500   -4.3600   36.0490 O   0  0  0  0  0  0  0  0  0  0  0  0
    5.1170   -4.8250   34.0810 C   0  0  0  0  0  0  0  0  0  0  0  0
    4.8840   -5.2210   35.5460 C   0  0  0  0  0  0  0  0  0  0  0  0
    3.7520   -5.0250   36.0480 O   0  0  0  0  0  0  0  0  0  0  0  0
    0.4110   -6.3730   33.2500 C   0  0  0  0  0  0  0  0  0  0  0  0
    5.8740   -5.6750   36.1480 O   0  0  0  0  0  0  0  0  0  0  0  0
    0.1410   -5.0620   32.4990 C   0  0  0  0  0  0  0  0  0  0  0  0
   -0.4250   -5.1700   31.3960 O   0  0  0  0  0  0  0  0  0  0  0  0
    0.5290   -3.9950   33.0140 O   0  0  0  0  0  0  0  0  0  0  0  0
    6.0116   -1.5354   31.7875 H   0  0  0  0  0  0  0  0  0  0  0  0
    6.3450    0.7503   32.7178 H   0  0  0  0  0  0  0  0  0  0  0  0
    4.9078    1.5543   34.5992 H   0  0  0  0  0  0  0  0  0  0  0  0
    3.2336    0.0154   36.6656 H   0  0  0  0  0  0  0  0  0  0  0  0
    2.5062   -2.4502   35.6542 H   0  0  0  0  0  0  0  0  0  0  0  0
    3.5004   -3.3307   31.6538 H   0  0  0  0  0  0  0  0  0  0  0  0
    5.2532   -3.6457   32.0634 H   0  0  0  0  0  0  0  0  0  0  0  0
    2.8216   -5.1978   31.7129 H   0  0  0  0  0  0  0  0  0  0  0  0
    4.4196   -5.9966   32.0821 H   0  0  0  0  0  0  0  0  0  0  0  0
    2.3828   -7.4395   32.4996 H   0  0  0  0  0  0  0  0  0  0  0  0
    3.4980   -7.1942   33.9180 H   0  0  0  0  0  0  0  0  0  0  0  0
    1.3248   -8.1450   34.9298 H   0  0  0  0  0  0  0  0  0  0  0  0
    2.4778   -7.0725   35.8115 H   0  0  0  0  0  0  0  0  0  0  0  0
   -0.3340   -8.6592   36.3994 H   0  0  0  0  0  0  0  0  0  0  0  0
   -2.2378   -8.0153   37.8889 H   0  0  0  0  0  0  0  0  0  0  0  0
   -2.5656   -5.6037   38.5012 H   0  0  0  0  0  0  0  0  0  0  0  0
   -0.9832   -3.8698   37.6476 H   0  0  0  0  0  0  0  0  0  0  0  0
    1.5653   -3.7900   36.6733 H   0  0  0  0  0  0  0  0  0  0  0  0
    5.5783   -5.6745   33.5561 H   0  0  0  0  0  0  0  0  0  0  0  0
    5.7703   -3.9400   34.0764 H   0  0  0  0  0  0  0  0  0  0  0  0
    0.5381   -7.1891   32.5235 H   0  0  0  0  0  0  0  0  0  0  0  0
   -0.4400   -6.5911   33.9120 H   0  0  0  0  0  0  0  0  0  0  0  0
    5.8908   -5.6827   37.1378 H   0  0  0  0  0  0  0  0  0  0  0  0
    0.5620   -3.9042   33.9993 H   0  0  0  0  0  0  0  0  0  0  0  0
  1  2  2  0
  1  7  1  0
  1  9  1  0
  2  3  1  0
  3  4  2  0
  4  5  1  0
  5  6  1  0
  5  7  2  0
  7  8  1  0
  9 10  1  0
 10 11  1  0
 10 22  1  0
 11 12  1  0
 12 13  1  0
 13 14  1  0
 13 25  1  0
 14 15  1  0
 15 16  2  0
 15 20  1  0
 16 17  1  0
 17 18  2  0
 18 19  1  0
 19 20  2  0
 20 21  1  0
 22 23  1  0
 23 24  2  0
 23 26  1  0
 25 27  1  0
 27 28  2  0
 27 29  1  0
  2 30  1  0
  3 31  1  0
  4 32  1  0
  6 33  1  0
  8 34  1  0
  9 35  1  0
  9 36  1  0
 11 37  1  0
 11 38  1  0
 12 39  1  0
 12 40  1  0
 14 41  1  0
 14 42  1  0
 16 43  1  0
 17 44  1  0
 18 45  1  0
 19 46  1  0
 21 47  1  0
 22 48  1  0
 22 49  1  0
 25 50  1  0
 25 51  1  0
 26 52  1  0
 29 53  1  0
A    1
C1
A    2
C2
A    3
C3
A    4
C4
A    5
C5
A    6
O5
A    7
C6
A    8
O6
A    9
C7
A   10
N8
A   11
C9
A   12
C10
A   13
N11
A   14
C12
A   15
C13
A   16
C14
A   17
C15
A   18
C16
A   19
C17
A   20
C18
A   21
O18
A   22
C19
A   23
C20
A   24
O20
A   25
C21
A   26
O21
A   27
C22
A   28
O22
A   29
O23
M  END
