1DG5_TOP_A_201
     RDKit          3D

 39 40  0  0  0  0  0  0  0  0999 V2000
    5.9830   25.7930   10.1880 C   0  0  0  0  0  0  0  0  0  0  0  0
    6.2400   26.2760    8.9520 N   0  0  0  0  0  0  0  0  0  0  0  0
    6.5570   25.4290    7.9930 C   0  0  0  0  0  0  0  0  0  0  0  0
    6.8030   25.9090    6.7380 N   0  0  0  0  0  0  0  0  0  0  0  0
    6.6800   24.0740    8.0500 N   0  0  0  0  0  0  0  0  0  0  0  0
    6.4370   23.5410    9.2500 C   0  0  0  0  0  0  0  0  0  0  0  0
    6.5300   22.2160    9.4330 N   0  0  0  0  0  0  0  0  0  0  0  0
    6.0550   24.4400   10.4130 C   0  0  0  0  0  0  0  0  0  0  0  0
    5.7660   23.8470   11.7890 C   0  0  0  0  0  0  0  0  0  0  0  0
    5.4170   24.8530   12.8490 C   0  0  0  0  0  0  0  0  0  0  0  0
    6.3880   25.0710   13.8240 C   0  0  0  0  0  0  0  0  0  0  0  0
    6.1740   26.0090   14.8470 C   0  0  0  0  0  0  0  0  0  0  0  0
    7.1040   26.2590   15.8270 O   0  0  0  0  0  0  0  0  0  0  0  0
    8.2680   25.4640   15.8470 C   0  0  0  0  0  0  0  0  0  0  0  0
    4.9590   26.7200   14.8540 C   0  0  0  0  0  0  0  0  0  0  0  0
    4.7110   27.6750   15.8490 O   0  0  0  0  0  0  0  0  0  0  0  0
    5.2380   28.8840   15.3710 C   0  0  0  0  0  0  0  0  0  0  0  0
    3.9730   26.5030   13.8830 C   0  0  0  0  0  0  0  0  0  0  0  0
    2.8140   27.2690   14.0130 O   0  0  0  0  0  0  0  0  0  0  0  0
    2.0460   27.2620   12.7990 C   0  0  0  0  0  0  0  0  0  0  0  0
    4.1840   25.5560   12.8500 C   0  0  0  0  0  0  0  0  0  0  0  0
    5.7183   26.4780   11.0070 H   0  0  0  0  0  0  0  0  0  0  0  0
    7.2695   26.8193    6.6171 H   0  0  0  0  0  0  0  0  0  0  0  0
    6.5220   25.3606    5.9126 H   0  0  0  0  0  0  0  0  0  0  0  0
    6.5572   21.8285   10.3869 H   0  0  0  0  0  0  0  0  0  0  0  0
    6.5742   21.5856    8.6196 H   0  0  0  0  0  0  0  0  0  0  0  0
    4.9225   23.1480   11.6899 H   0  0  0  0  0  0  0  0  0  0  0  0
    6.6965   23.3613   12.1180 H   0  0  0  0  0  0  0  0  0  0  0  0
    7.3299   24.5038   13.7923 H   0  0  0  0  0  0  0  0  0  0  0  0
    8.5586   25.2655   16.8892 H   0  0  0  0  0  0  0  0  0  0  0  0
    8.0703   24.5114   15.3337 H   0  0  0  0  0  0  0  0  0  0  0  0
    9.0834   25.9947   15.3337 H   0  0  0  0  0  0  0  0  0  0  0  0
    5.5170   29.5239   16.2211 H   0  0  0  0  0  0  0  0  0  0  0  0
    6.1285   28.6792   14.7585 H   0  0  0  0  0  0  0  0  0  0  0  0
    4.4818   29.3969   14.7585 H   0  0  0  0  0  0  0  0  0  0  0  0
    0.9736   27.2522   13.0436 H   0  0  0  0  0  0  0  0  0  0  0  0
    2.2800   28.1623   12.2119 H   0  0  0  0  0  0  0  0  0  0  0  0
    2.2964   26.3661   12.2119 H   0  0  0  0  0  0  0  0  0  0  0  0
    3.4215   25.3728   12.0786 H   0  0  0  0  0  0  0  0  0  0  0  0
  1  2  2  0
  1  8  1  0
  2  3  1  0
  3  4  1  0
  3  5  2  0
  5  6  1  0
  6  7  1  0
  6  8  2  0
  8  9  1  0
  9 10  1  0
 10 11  2  0
 10 21  1  0
 11 12  1  0
 12 13  1  0
 12 15  2  0
 13 14  1  0
 15 16  1  0
 15 18  1  0
 16 17  1  0
 18 19  1  0
 18 21  2  0
 19 20  1  0
  1 22  1  0
  4 23  1  0
  4 24  1  0
  7 25  1  0
  7 26  1  0
  9 27  1  0
  9 28  1  0
 11 29  1  0
 14 30  1  0
 14 31  1  0
 14 32  1  0
 17 33  1  0
 17 34  1  0
 17 35  1  0
 20 36  1  0
 20 37  1  0
 20 38  1  0
 21 39  1  0
A    1
C1
A    2
N2
A    3
C3
A    4
N4
A    5
N5
A    6
C6
A    7
N7
A    8
C8
A    9
C9
A   10
C10
A   11
C11
A   12
C12
A   13
O13
A   14
C14
A   15
C15
A   16
O16
A   17
C17
A   18
C18
A   19
O19
A   20
C20
A   21
C21
M  END
