3N0N_P9B_A_263
     RDKit          3D

 33 34  0  0  0  0  0  0  0  0999 V2000
   -5.1560    2.2640   15.7830 C   0  0  0  0  0  0  0  0  0  0  0  0
   -5.3990   -0.3890   16.0460 N   0  0  0  0  0  0  0  0  0  0  0  0
   -5.3500    1.0290   18.0300 O   0  0  0  0  0  0  0  0  0  0  0  0
   -5.8790    0.9470   16.6980 S   0  0  0  0  0  0  0  0  0  0  0  0
   -3.7120    2.2500   15.4550 C   0  0  0  0  0  0  0  0  0  0  0  0
   -7.2950    1.0720   16.6250 O   0  0  0  0  0  0  0  0  0  0  0  0
   -3.1370    3.2740   14.7980 C   0  0  0  0  0  0  0  0  0  0  0  0
   -3.9760    4.3770   14.3520 C   0  0  0  0  0  0  0  0  0  0  0  0
   -5.3110    4.4310   14.6390 C   0  0  0  0  0  0  0  0  0  0  0  0
   -5.9350    3.3190   15.3850 C   0  0  0  0  0  0  0  0  0  0  0  0
   -3.3560    5.4560   13.6950 N   0  0  0  0  0  0  0  0  0  0  0  0
   -4.0350    6.2540   12.7490 C   0  0  0  0  0  0  0  0  0  0  0  0
   -5.1520    5.9930   12.3080 O   0  0  0  0  0  0  0  0  0  0  0  0
   -3.2990    7.3430   12.2220 N   0  0  0  0  0  0  0  0  0  0  0  0
   -2.0410    7.7650   12.7340 C   0  0  0  0  0  0  0  0  0  0  0  0
   -1.9380    8.0970   14.0730 C   0  0  0  0  0  0  0  0  0  0  0  0
   -2.9420    7.9460   14.9360 F   0  0  0  0  0  0  0  0  0  0  0  0
   -0.7460    8.5890   14.5700 C   0  0  0  0  0  0  0  0  0  0  0  0
   -0.7340    8.8410   15.8680 F   0  0  0  0  0  0  0  0  0  0  0  0
    0.3580    8.7780   13.7280 C   0  0  0  0  0  0  0  0  0  0  0  0
    1.5250    9.2580   14.1640 F   0  0  0  0  0  0  0  0  0  0  0  0
    0.2080    8.4570   12.3750 C   0  0  0  0  0  0  0  0  0  0  0  0
    1.2260    8.6330   11.5510 F   0  0  0  0  0  0  0  0  0  0  0  0
   -1.0020    7.9830   11.8820 C   0  0  0  0  0  0  0  0  0  0  0  0
   -1.1810    7.6720   10.6030 F   0  0  0  0  0  0  0  0  0  0  0  0
   -5.1565   -1.0641   16.7852 H   0  0  0  0  0  0  0  0  0  0  0  0
   -6.1535   -0.7763   15.4615 H   0  0  0  0  0  0  0  0  0  0  0  0
   -3.0985    1.3872   15.7537 H   0  0  0  0  0  0  0  0  0  0  0  0
   -2.0546    3.2776   14.6018 H   0  0  0  0  0  0  0  0  0  0  0  0
   -5.9143    5.2930   14.3181 H   0  0  0  0  0  0  0  0  0  0  0  0
   -7.0099    3.3375   15.6178 H   0  0  0  0  0  0  0  0  0  0  0  0
   -2.3723    5.6710   13.9120 H   0  0  0  0  0  0  0  0  0  0  0  0
   -3.6968    7.8580   11.4236 H   0  0  0  0  0  0  0  0  0  0  0  0
 10  1  2  0
  5  1  1  0
  1  4  1  0
  2  4  1  0
  4  3  2  0
  6  4  2  0
  7  5  2  0
  8  7  1  0
 11  8  1  0
  8  9  2  0
  9 10  1  0
 12 11  1  0
 14 12  1  0
 13 12  2  0
 14 15  1  0
 24 15  1  0
 15 16  2  0
 16 18  1  0
 16 17  1  0
 20 18  2  0
 18 19  1  0
 22 20  1  0
 20 21  1  0
 23 22  1  0
 24 22  2  0
 25 24  1  0
  2 26  1  0
  2 27  1  0
  5 28  1  0
  7 29  1  0
  9 30  1  0
 10 31  1  0
 11 32  1  0
 14 33  1  0
A    1
C1
A    2
N1
A    3
O1
A    4
S1
A    5
C2
A    6
O2
A    7
C3
A    8
C4
A    9
C5
A   10
C6
A   11
N7
A   12
C8
A   13
O8
A   14
N9
A   15
C10
A   16
C11
A   17
F11
A   18
C12
A   19
F12
A   20
C13
A   21
F13
A   22
C14
A   23
F14
A   24
C15
A   25
F15
M  END
