3N1V_3N1_F_1
     RDKit          3D

 24 25  0  0  0  0  0  0  0  0999 V2000
   -0.1650   77.9230   28.9120 Cl  0  0  0  0  0  0  0  0  0  0  0  0
    1.5040   78.0890   28.5960 C   0  0  0  0  0  0  0  0  0  0  0  0
    2.3460   76.9620   28.6930 C   0  0  0  0  0  0  0  0  0  0  0  0
    3.6950   77.1810   28.4450 C   0  0  0  0  0  0  0  0  0  0  0  0
    4.1810   78.4370   28.1120 C   0  0  0  0  0  0  0  0  0  0  0  0
    5.9200   78.5420   27.8050 S   0  0  0  0  0  0  0  0  0  0  0  0
    5.9750   76.7620   28.1520 C   0  0  0  0  0  0  0  0  0  0  0  0
    4.8010   76.1820   28.4740 C   0  0  0  0  0  0  0  0  0  0  0  0
    4.5890   74.7150   28.8210 C   0  0  0  0  0  0  0  0  0  0  0  0
    7.2460   75.9870   28.0770 C   0  0  0  0  0  0  0  0  0  0  0  0
    7.5280   75.6680   26.6240 C   0  0  0  0  0  0  0  0  0  0  0  0
    8.6580   75.7440   26.1730 O   0  0  0  0  0  0  0  0  0  0  0  0
    6.4840   75.3040   25.8640 O   0  0  0  0  0  0  0  0  0  0  0  0
    3.3370   79.5540   28.0130 C   0  0  0  0  0  0  0  0  0  0  0  0
    1.9810   79.3660   28.2630 C   0  0  0  0  0  0  0  0  0  0  0  0
    1.9566   75.9660   28.9505 H   0  0  0  0  0  0  0  0  0  0  0  0
    4.5717   74.5956   29.9144 H   0  0  0  0  0  0  0  0  0  0  0  0
    3.6321   74.3731   28.3997 H   0  0  0  0  0  0  0  0  0  0  0  0
    5.4099   74.1162   28.3997 H   0  0  0  0  0  0  0  0  0  0  0  0
    8.0705   76.5849   28.4926 H   0  0  0  0  0  0  0  0  0  0  0  0
    7.1554   75.0566   28.6568 H   0  0  0  0  0  0  0  0  0  0  0  0
    9.4333   75.7961   26.7864 H   0  0  0  0  0  0  0  0  0  0  0  0
    3.7340   80.5447   27.7468 H   0  0  0  0  0  0  0  0  0  0  0  0
    1.2853   80.2157   28.1998 H   0  0  0  0  0  0  0  0  0  0  0  0
  2  1  1  0
 15  2  2  0
  2  3  1  0
  4  3  2  0
  5  4  1  0
  4  8  1  0
  6  5  1  0
 14  5  2  0
  6  7  1  0
 10  7  1  0
  7  8  2  0
  8  9  1  0
 11 10  1  0
 13 11  2  0
 12 11  1  0
 14 15  1  0
  3 16  1  0
  9 17  1  0
  9 18  1  0
  9 19  1  0
 10 20  1  0
 10 21  1  0
 12 22  1  0
 14 23  1  0
 15 24  1  0
A    1
CL1
A    2
C2
A    3
C3
A    4
C5
A    5
C6
A    6
S7
A    7
C8
A    8
C9
A    9
C10
A   10
C14
A   11
C17
A   12
O18
A   13
O19
A   14
C21
A   15
C23
M  END
