3N2P_AYX_A_263
     RDKit          3D

 35 36  0  0  0  0  0  0  0  0999 V2000
   -5.4610    2.3780   15.8890 C   0  0  0  0  0  0  0  0  0  0  0  0
   -5.3270   -0.3280   16.1250 N   0  0  0  0  0  0  0  0  0  0  0  0
   -7.3870    0.9760   16.7930 O   0  0  0  0  0  0  0  0  0  0  0  0
   -5.9410    0.9640   16.8390 S   0  0  0  0  0  0  0  0  0  0  0  0
   -4.1630    2.4900   15.4090 C   0  0  0  0  0  0  0  0  0  0  0  0
   -5.3590    1.0960   18.1770 O   0  0  0  0  0  0  0  0  0  0  0  0
   -3.8120    3.5980   14.6450 C   0  0  0  0  0  0  0  0  0  0  0  0
   -4.7720    4.5670   14.4060 C   0  0  0  0  0  0  0  0  0  0  0  0
   -6.0650    4.4680   14.8770 C   0  0  0  0  0  0  0  0  0  0  0  0
   -6.4130    3.3530   15.6390 C   0  0  0  0  0  0  0  0  0  0  0  0
   -4.3580    5.6910   13.5850 N   0  0  0  0  0  0  0  0  0  0  0  0
   -5.2390    6.3380   12.6440 C   0  0  0  0  0  0  0  0  0  0  0  0
   -6.4510    6.1820   12.5680 O   0  0  0  0  0  0  0  0  0  0  0  0
   -4.6130    7.4150   11.9430 N   0  0  0  0  0  0  0  0  0  0  0  0
   -5.1860    8.3130   10.9980 C   0  0  0  0  0  0  0  0  0  0  0  0
   -6.3740    7.9840   10.3530 C   0  0  0  0  0  0  0  0  0  0  0  0
   -6.8900    8.8770    9.4080 C   0  0  0  0  0  0  0  0  0  0  0  0
   -6.2520   10.0770    9.1560 C   0  0  0  0  0  0  0  0  0  0  0  0
   -5.0540   10.3820    9.8010 C   0  0  0  0  0  0  0  0  0  0  0  0
   -4.5210    9.5020   10.7460 C   0  0  0  0  0  0  0  0  0  0  0  0
   -8.1120    8.5820    8.7350 N   0  0  0  0  0  0  0  0  0  0  0  0
   -8.6190    9.4650    7.9200 O   0  0  0  0  0  0  0  0  0  0  0  0
   -8.6660    7.4290    8.8750 O   0  0  0  0  0  0  0  0  0  0  0  0
   -5.0090   -0.9972   16.8405 H   0  0  0  0  0  0  0  0  0  0  0  0
   -6.0478   -0.7706   15.5372 H   0  0  0  0  0  0  0  0  0  0  0  0
   -3.4196    1.7102   15.6307 H   0  0  0  0  0  0  0  0  0  0  0  0
   -2.7947    3.7022   14.2397 H   0  0  0  0  0  0  0  0  0  0  0  0
   -6.8051    5.2513   14.6564 H   0  0  0  0  0  0  0  0  0  0  0  0
   -7.4330    3.2487   16.0375 H   0  0  0  0  0  0  0  0  0  0  0  0
   -3.3939    6.0412   13.6787 H   0  0  0  0  0  0  0  0  0  0  0  0
   -3.6144    7.5610   12.1488 H   0  0  0  0  0  0  0  0  0  0  0  0
   -6.8958    7.0428   10.5810 H   0  0  0  0  0  0  0  0  0  0  0  0
   -6.6903   10.7929    8.4451 H   0  0  0  0  0  0  0  0  0  0  0  0
   -4.5271   11.3183    9.5650 H   0  0  0  0  0  0  0  0  0  0  0  0
   -3.5912    9.7483   11.2797 H   0  0  0  0  0  0  0  0  0  0  0  0
  1  4  1  0
  2  4  1  0
  3  4  2  0
  4  6  2  0
  5  1  2  0
  7  5  1  0
  8  7  2  0
  8  9  1  0
  9 10  2  0
 10  1  1  0
 11  8  1  0
 12 11  1  0
 13 12  2  0
 14 12  1  0
 15 14  1  0
 16 15  2  0
 17 16  1  0
 18 17  2  0
 18 19  1  0
 19 20  2  0
 20 15  1  0
 21 17  1  0
 21 23  1  0
 22 21  2  0
  2 24  1  0
  2 25  1  0
  5 26  1  0
  7 27  1  0
  9 28  1  0
 10 29  1  0
 11 30  1  0
 14 31  1  0
 16 32  1  0
 18 33  1  0
 19 34  1  0
 20 35  1  0
M  CHG  2  21   1  23  -1
A    1
C1
A    2
N1
A    3
O1
A    4
S1
A    5
C2
A    6
O2
A    7
C3
A    8
C4
A    9
C5
A   10
C6
A   11
N7
A   12
C8
A   13
O8
A   14
N9
A   15
C10
A   16
C11
A   17
C12
A   18
C13
A   19
C14
A   20
C15
A   21
N16
A   22
O16
A   23
O17
M  END
