3N2R_XJH_A_800
     RDKit          3D

 50 53  0  0  0  0  0  0  0  0999 V2000
   13.2850    0.4800   24.0630 N   0  0  0  0  0  0  0  0  0  0  0  0
   14.5000    0.2020   23.4890 C   0  0  0  0  0  0  0  0  0  0  0  0
   15.2730   -0.8170   23.9240 N   0  0  0  0  0  0  0  0  0  0  0  0
   14.9730    0.9720   22.4230 C   0  0  0  0  0  0  0  0  0  0  0  0
   14.1820    2.0200   21.9510 C   0  0  0  0  0  0  0  0  0  0  0  0
   12.9580    2.2830   22.5480 C   0  0  0  0  0  0  0  0  0  0  0  0
   12.5030    1.5150   23.6190 C   0  0  0  0  0  0  0  0  0  0  0  0
   11.1270    1.8350   24.2240 C   0  0  0  0  0  0  0  0  0  0  0  0
    9.0840   -1.0540   23.1440 N   0  0  0  0  0  0  0  0  0  0  0  0
    8.0740    1.7570   24.7540 O   0  0  0  0  0  0  0  0  0  0  0  0
    6.8100    1.8390   25.3570 C   0  0  0  0  0  0  0  0  0  0  0  0
    5.8900    0.7790   25.2110 C   0  0  0  0  0  0  0  0  0  0  0  0
    4.6250    0.8070   25.7920 C   0  0  0  0  0  0  0  0  0  0  0  0
    4.2530    1.9230   26.5440 C   0  0  0  0  0  0  0  0  0  0  0  0
    5.1300    3.0090   26.7180 C   0  0  0  0  0  0  0  0  0  0  0  0
    6.4140    2.9580   26.1190 C   0  0  0  0  0  0  0  0  0  0  0  0
   10.2280   -0.1880   22.9730 C   0  0  0  0  0  0  0  0  0  0  0  0
    4.7110    4.1050   27.4710 O   0  0  0  0  0  0  0  0  0  0  0  0
    3.3790    4.5060   27.4730 C   0  0  0  0  0  0  0  0  0  0  0  0
    2.5000    4.0830   28.4860 C   0  0  0  0  0  0  0  0  0  0  0  0
    1.1570    4.4810   28.4820 C   0  0  0  0  0  0  0  0  0  0  0  0
    0.6730    5.3080   27.4610 C   0  0  0  0  0  0  0  0  0  0  0  0
    1.5360    5.7350   26.4450 C   0  0  0  0  0  0  0  0  0  0  0  0
    2.8810    5.3330   26.4520 C   0  0  0  0  0  0  0  0  0  0  0  0
   10.3100    0.5480   24.3060 C   0  0  0  0  0  0  0  0  0  0  0  0
    8.8820    0.5610   24.8890 C   0  0  0  0  0  0  0  0  0  0  0  0
    8.2030   -0.6290   24.2190 C   0  0  0  0  0  0  0  0  0  0  0  0
   15.3941   -0.9766   24.9343 H   0  0  0  0  0  0  0  0  0  0  0  0
   15.7413   -1.4343   23.2453 H   0  0  0  0  0  0  0  0  0  0  0  0
   15.9496    0.7561   21.9651 H   0  0  0  0  0  0  0  0  0  0  0  0
   14.5281    2.6359   21.1078 H   0  0  0  0  0  0  0  0  0  0  0  0
   12.3374    3.1093   22.1711 H   0  0  0  0  0  0  0  0  0  0  0  0
   11.2559    2.2551   25.2324 H   0  0  0  0  0  0  0  0  0  0  0  0
   10.6041    2.5681   23.5923 H   0  0  0  0  0  0  0  0  0  0  0  0
    8.5470   -1.0652   22.2651 H   0  0  0  0  0  0  0  0  0  0  0  0
    6.1824   -0.0999   24.6176 H   0  0  0  0  0  0  0  0  0  0  0  0
    3.9305   -0.0358   25.6608 H   0  0  0  0  0  0  0  0  0  0  0  0
    3.2564    1.9536   27.0087 H   0  0  0  0  0  0  0  0  0  0  0  0
    7.1091    3.8004   26.2499 H   0  0  0  0  0  0  0  0  0  0  0  0
   11.1413   -0.7727   22.7884 H   0  0  0  0  0  0  0  0  0  0  0  0
   10.1316    0.4891   22.1115 H   0  0  0  0  0  0  0  0  0  0  0  0
    2.8715    3.4319   29.2910 H   0  0  0  0  0  0  0  0  0  0  0  0
    0.4817    4.1434   29.2820 H   0  0  0  0  0  0  0  0  0  0  0  0
   -0.3815    5.6210   27.4573 H   0  0  0  0  0  0  0  0  0  0  0  0
    1.1604    6.3854   25.6413 H   0  0  0  0  0  0  0  0  0  0  0  0
    3.5530    5.6694   25.6487 H   0  0  0  0  0  0  0  0  0  0  0  0
   10.9230    0.0393   25.0646 H   0  0  0  0  0  0  0  0  0  0  0  0
    8.9744    0.5173   25.9842 H   0  0  0  0  0  0  0  0  0  0  0  0
    7.2252   -0.3300   23.8135 H   0  0  0  0  0  0  0  0  0  0  0  0
    8.0287   -1.4441   24.9368 H   0  0  0  0  0  0  0  0  0  0  0  0
  2  1  2  0
  7  1  1  0
  4  2  1  0
  2  3  1  0
  5  4  2  0
  5  6  1  0
  6  7  2  0
  7  8  1  0
  8 25  1  0
 17  9  1  0
  9 27  1  0
 10 26  1  0
 10 11  1  0
 12 11  2  0
 11 16  1  0
 12 13  1  0
 13 14  2  0
 14 15  1  0
 16 15  2  0
 15 18  1  0
 17 25  1  0
 18 19  1  0
 24 19  1  0
 19 20  2  0
 21 20  1  0
 22 21  2  0
 23 22  1  0
 23 24  2  0
 25 26  1  0
 27 26  1  0
  3 28  1  0
  3 29  1  0
  4 30  1  0
  5 31  1  0
  6 32  1  0
  8 33  1  0
  8 34  1  0
  9 35  1  0
 12 36  1  0
 13 37  1  0
 14 38  1  0
 16 39  1  0
 17 40  1  0
 17 41  1  0
 20 42  1  0
 21 43  1  0
 22 44  1  0
 23 45  1  0
 24 46  1  0
 25 47  1  0
 26 48  1  0
 27 49  1  0
 27 50  1  0
A    1
N01
A    2
C02
A    3
N02
A    4
C03
A    5
C04
A    6
C05
A    7
C06
A    8
C07
A    9
N1'
A   10
O10
A   11
C11
A   12
C12
A   13
C13
A   14
C14
A   15
C15
A   16
C16
A   17
C2'
A   18
O20
A   19
C21
A   20
C22
A   21
C23
A   22
C24
A   23
C25
A   24
C26
A   25
C3'
A   26
C4'
A   27
C5'
M  END
