3N2Y_TEF_A_315
     RDKit          3D

 28 29  0  0  0  0  0  0  0  0999 V2000
  -23.5960  -38.6500  -14.6280 C   0  0  0  0  0  0  0  0  0  0  0  0
  -23.7230  -38.0740  -15.9550 N   0  0  0  0  0  0  0  0  0  0  0  0
  -23.0430  -37.7150  -12.5360 O   0  0  0  0  0  0  0  0  0  0  0  0
  -22.2440  -39.3230  -14.4930 C   0  0  0  0  0  0  0  0  0  0  0  0
  -21.4360  -43.8240  -17.8880 N   0  0  0  0  0  0  0  0  0  0  0  0
  -24.4240  -36.5660  -13.8340 O   0  0  0  0  0  0  0  0  0  0  0  0
  -22.0910  -40.5310  -15.3860 C   0  0  0  0  0  0  0  0  0  0  0  0
  -22.3700  -44.8400  -18.0640 N   0  0  0  0  0  0  0  0  0  0  0  0
  -20.9050  -40.6760  -16.0960 C   0  0  0  0  0  0  0  0  0  0  0  0
  -20.5230  -45.2370  -19.2600 N   0  0  0  0  0  0  0  0  0  0  0  0
  -20.6940  -41.7770  -16.9190 C   0  0  0  0  0  0  0  0  0  0  0  0
  -20.2650  -44.0220  -18.6070 N   0  0  0  0  0  0  0  0  0  0  0  0
  -21.6480  -42.7760  -17.0800 C   0  0  0  0  0  0  0  0  0  0  0  0
  -21.7620  -45.6940  -18.9260 C   0  0  0  0  0  0  0  0  0  0  0  0
  -22.8360  -42.6010  -16.3490 C   0  0  0  0  0  0  0  0  0  0  0  0
  -23.0750  -41.5050  -15.5160 C   0  0  0  0  0  0  0  0  0  0  0  0
  -23.6960  -37.5690  -13.5940 C   0  0  0  0  0  0  0  0  0  0  0  0
  -24.4008  -39.3853  -14.4806 H   0  0  0  0  0  0  0  0  0  0  0  0
  -23.9441  -37.0713  -15.8743 H   0  0  0  0  0  0  0  0  0  0  0  0
  -22.8362  -38.1900  -16.4660 H   0  0  0  0  0  0  0  0  0  0  0  0
  -23.4919  -37.6146  -11.6594 H   0  0  0  0  0  0  0  0  0  0  0  0
  -21.4626  -38.5939  -14.7536 H   0  0  0  0  0  0  0  0  0  0  0  0
  -22.1533  -39.6705  -13.4533 H   0  0  0  0  0  0  0  0  0  0  0  0
  -20.1219  -39.9088  -16.0057 H   0  0  0  0  0  0  0  0  0  0  0  0
  -19.7404  -41.8605  -17.4609 H   0  0  0  0  0  0  0  0  0  0  0  0
  -22.2081  -46.6262  -19.3028 H   0  0  0  0  0  0  0  0  0  0  0  0
  -23.6194  -43.3681  -16.4376 H   0  0  0  0  0  0  0  0  0  0  0  0
  -24.0265  -41.4140  -14.9716 H   0  0  0  0  0  0  0  0  0  0  0  0
  2  1  1  0
  1  4  1  0
  1 17  1  0
 17  3  1  0
  7  4  1  0
 12  5  1  0
  8  5  1  0
  5 13  1  0
  6 17  2  0
  9  7  2  0
 16  7  1  0
 14  8  2  0
 11  9  1  0
 10 14  1  0
 10 12  2  0
 13 11  2  0
 13 15  1  0
 15 16  2  0
  1 18  1  0
  2 19  1  0
  2 20  1  0
  3 21  1  0
  4 22  1  0
  4 23  1  0
  9 24  1  0
 11 25  1  0
 14 26  1  0
 15 27  1  0
 16 28  1  0
A    1
CA
A    2
N
A    3
OXT
A    4
CB
A    5
N2
A    6
O
A    7
CG
A    8
N3
A    9
CD1
A   10
N4
A   11
CE1
A   12
N5
A   13
CZ
A   14
C7
A   15
CE2
A   16
CD2
A   17
C
M  END
