1ABF_FCA_A_307
     RDKit          3D

 23 23  0  0  0  0  0  0  0  0999 V2000
   14.2200   56.9530   55.1730 C   0  0  0  0  0  0  0  0  0  0  0  0
   12.7840   57.2190   54.8070 C   0  0  0  0  0  0  0  0  0  0  0  0
   12.2730   56.2710   53.7800 C   0  0  0  0  0  0  0  0  0  0  0  0
   13.1220   56.4430   52.5260 C   0  0  0  0  0  0  0  0  0  0  0  0
   14.6030   56.1780   52.8770 C   0  0  0  0  0  0  0  0  0  0  0  0
   15.6060   56.4290   51.7640 C   0  0  0  0  0  0  0  0  0  0  0  0
   14.4030   55.7180   55.7330 O   0  0  0  0  0  0  0  0  0  0  0  0
   11.9520   57.2620   56.0600 O   0  0  0  0  0  0  0  0  0  0  0  0
   10.8700   56.5300   53.4920 O   0  0  0  0  0  0  0  0  0  0  0  0
   12.9720   57.7720   51.9890 O   0  0  0  0  0  0  0  0  0  0  0  0
   15.0190   57.0540   53.9120 O   0  0  0  0  0  0  0  0  0  0  0  0
   14.5390   57.6872   55.9275 H   0  0  0  0  0  0  0  0  0  0  0  0
   12.7119   58.2042   54.3230 H   0  0  0  0  0  0  0  0  0  0  0  0
   12.3438   55.2369   54.1484 H   0  0  0  0  0  0  0  0  0  0  0  0
   12.7870   55.7248   51.7632 H   0  0  0  0  0  0  0  0  0  0  0  0
   14.6087   55.1087   53.1348 H   0  0  0  0  0  0  0  0  0  0  0  0
   16.5852   56.6740   52.2012 H   0  0  0  0  0  0  0  0  0  0  0  0
   15.6976   55.5261   51.1424 H   0  0  0  0  0  0  0  0  0  0  0  0
   15.2615   57.2686   51.1424 H   0  0  0  0  0  0  0  0  0  0  0  0
   14.3911   55.7980   56.7197 H   0  0  0  0  0  0  0  0  0  0  0  0
   12.5458   57.2313   56.8516 H   0  0  0  0  0  0  0  0  0  0  0  0
   10.3703   56.6223   54.3416 H   0  0  0  0  0  0  0  0  0  0  0  0
   12.8986   58.4219   52.7322 H   0  0  0  0  0  0  0  0  0  0  0  0
  1  2  1  0
  1  7  1  0
  1 11  1  0
  2  3  1  0
  2  8  1  0
  3  4  1  0
  3  9  1  0
  4  5  1  0
  4 10  1  0
  5  6  1  0
  5 11  1  0
  1 12  1  0
  2 13  1  0
  3 14  1  0
  4 15  1  0
  5 16  1  0
  6 17  1  0
  6 18  1  0
  6 19  1  0
  7 20  1  0
  8 21  1  0
  9 22  1  0
 10 23  1  0
A    1
C1
A    2
C2
A    3
C3
A    4
C4
A    5
C5
A    6
C6
A    7
O1
A    8
O2
A    9
O3
A   10
O4
A   11
O5
M  END
