3N3L_MS0_F_1
     RDKit          3D

 25 26  0  0  0  0  0  0  0  0999 V2000
    2.1000   74.9450   27.2660 O   0  0  0  0  0  0  0  0  0  0  0  0
    2.5930   76.2700   27.2440 C   0  0  0  0  0  0  0  0  0  0  0  0
    3.9440   76.4060   27.1270 C   0  0  0  0  0  0  0  0  0  0  0  0
    4.3980   74.9920   27.0330 C   0  0  0  0  0  0  0  0  0  0  0  0
    3.2800   74.2470   27.1070 C   0  0  0  0  0  0  0  0  0  0  0  0
    5.8100   74.5190   26.8740 C   0  0  0  0  0  0  0  0  0  0  0  0
    6.2940   74.9010   25.4900 C   0  0  0  0  0  0  0  0  0  0  0  0
    7.2410   75.6630   25.3390 O   0  0  0  0  0  0  0  0  0  0  0  0
    5.6260   74.3540   24.4240 O   0  0  0  0  0  0  0  0  0  0  0  0
    4.5900   77.6450   27.1140 C   0  0  0  0  0  0  0  0  0  0  0  0
    3.7780   78.8000   27.2320 C   0  0  0  0  0  0  0  0  0  0  0  0
    2.3670   78.6760   27.3300 C   0  0  0  0  0  0  0  0  0  0  0  0
    1.7840   77.3950   27.3440 C   0  0  0  0  0  0  0  0  0  0  0  0
    1.5230   79.8020   27.3870 O   0  0  0  0  0  0  0  0  0  0  0  0
    2.1180   81.0930   27.4170 C   0  0  0  0  0  0  0  0  0  0  0  0
    3.3049   73.1491   27.0446 H   0  0  0  0  0  0  0  0  0  0  0  0
    6.4479   74.9939   27.6340 H   0  0  0  0  0  0  0  0  0  0  0  0
    5.8575   73.4274   27.0011 H   0  0  0  0  0  0  0  0  0  0  0  0
    7.7061   76.0372   26.1288 H   0  0  0  0  0  0  0  0  0  0  0  0
    5.6830   77.7204   27.0163 H   0  0  0  0  0  0  0  0  0  0  0  0
    4.2426   79.7969   27.2478 H   0  0  0  0  0  0  0  0  0  0  0  0
    0.6932   77.2851   27.4337 H   0  0  0  0  0  0  0  0  0  0  0  0
    2.2623   81.4061   28.4616 H   0  0  0  0  0  0  0  0  0  0  0  0
    3.0917   81.0599   26.9063 H   0  0  0  0  0  0  0  0  0  0  0  0
    1.4603   81.8118   26.9063 H   0  0  0  0  0  0  0  0  0  0  0  0
  5  1  1  0
  2  1  1  0
  3  2  2  0
  2 13  1  0
  4  3  1  0
 10  3  1  0
  6  4  1  0
  4  5  2  0
  7  6  1  0
  9  7  2  0
  8  7  1  0
 10 11  2  0
 11 12  1  0
 12 13  2  0
 12 14  1  0
 14 15  1  0
  5 16  1  0
  6 17  1  0
  6 18  1  0
  8 19  1  0
 10 20  1  0
 11 21  1  0
 13 22  1  0
 15 23  1  0
 15 24  1  0
 15 25  1  0
A    1
O1
A    2
C2
A    3
C3
A    4
C4
A    5
C5
A    6
C7
A    7
C10
A    8
O11
A    9
O12
A   10
C14
A   11
C16
A   12
C18
A   13
C19
A   14
O21
A   15
C22
M  END
