3N45_3N3_F_1
     RDKit          3D

 37 39  0  0  0  0  0  0  0  0999 V2000
    4.5460   73.2960   23.5110 N   0  0  0  0  0  0  0  0  0  0  0  0
    5.7470   73.0190   22.6980 C   0  0  0  0  0  0  0  0  0  0  0  0
    6.5980   72.0370   23.6420 C   0  0  0  0  0  0  0  0  0  0  0  0
    5.6340   71.7010   24.7870 C   0  0  0  0  0  0  0  0  0  0  0  0
    4.5120   72.4600   24.6380 C   0  0  0  0  0  0  0  0  0  0  0  0
    3.4400   72.3840   25.5500 C   0  0  0  0  0  0  0  0  0  0  0  0
    3.5730   71.4690   26.6160 C   0  0  0  0  0  0  0  0  0  0  0  0
    4.7360   70.6770   26.7560 C   0  0  0  0  0  0  0  0  0  0  0  0
    5.7990   70.7930   25.8400 C   0  0  0  0  0  0  0  0  0  0  0  0
    5.3130   72.1280   21.5630 C   0  0  0  0  0  0  0  0  0  0  0  0
    5.7320   72.2870   20.4320 O   0  0  0  0  0  0  0  0  0  0  0  0
    4.4450   71.1590   21.8670 O   0  0  0  0  0  0  0  0  0  0  0  0
    3.6260   74.2520   23.1560 C   0  0  0  0  0  0  0  0  0  0  0  0
    3.7160   74.9300   22.1320 O   0  0  0  0  0  0  0  0  0  0  0  0
    2.6050   74.3980   24.0310 O   0  0  0  0  0  0  0  0  0  0  0  0
    1.6670   75.4680   23.7040 C   0  0  0  0  0  0  0  0  0  0  0  0
    2.1990   76.8940   23.9590 C   0  0  0  0  0  0  0  0  0  0  0  0
    1.3220   77.9890   23.8110 C   0  0  0  0  0  0  0  0  0  0  0  0
    1.7660   79.2970   24.0520 C   0  0  0  0  0  0  0  0  0  0  0  0
    3.1000   79.5130   24.4360 C   0  0  0  0  0  0  0  0  0  0  0  0
    3.9820   78.4290   24.5740 C   0  0  0  0  0  0  0  0  0  0  0  0
    3.5350   77.1190   24.3370 C   0  0  0  0  0  0  0  0  0  0  0  0
    6.2594   73.9291   22.3527 H   0  0  0  0  0  0  0  0  0  0  0  0
    6.8914   71.1274   23.0975 H   0  0  0  0  0  0  0  0  0  0  0  0
    7.5344   72.4934   23.9953 H   0  0  0  0  0  0  0  0  0  0  0  0
    2.5418   73.0087   25.4361 H   0  0  0  0  0  0  0  0  0  0  0  0
    2.7592   71.3703   27.3495 H   0  0  0  0  0  0  0  0  0  0  0  0
    4.8110   69.9628   27.5892 H   0  0  0  0  0  0  0  0  0  0  0  0
    6.7175   70.1973   25.9468 H   0  0  0  0  0  0  0  0  0  0  0  0
    4.2536   70.9453   22.8145 H   0  0  0  0  0  0  0  0  0  0  0  0
    1.4100   75.3840   22.6377 H   0  0  0  0  0  0  0  0  0  0  0  0
    0.8017   75.3361   24.3702 H   0  0  0  0  0  0  0  0  0  0  0  0
    0.2802   77.8151   23.5037 H   0  0  0  0  0  0  0  0  0  0  0  0
    1.0759   80.1465   23.9414 H   0  0  0  0  0  0  0  0  0  0  0  0
    3.4552   80.5359   24.6295 H   0  0  0  0  0  0  0  0  0  0  0  0
    5.0268   78.6067   24.8688 H   0  0  0  0  0  0  0  0  0  0  0  0
    4.2276   76.2714   24.4466 H   0  0  0  0  0  0  0  0  0  0  0  0
  2  1  1  0
 13  1  1  0
  1  5  1  0
 10  2  1  0
  2  3  1  0
  3  4  1  0
  5  4  2  0
  4  9  1  0
  5  6  1  0
  6  7  2  0
  7  8  1  0
  9  8  2  0
 11 10  2  0
 10 12  1  0
 14 13  2  0
 13 15  1  0
 16 15  1  0
 16 17  1  0
 18 17  2  0
 17 22  1  0
 18 19  1  0
 19 20  2  0
 20 21  1  0
 22 21  2  0
  2 23  1  0
  3 24  1  0
  3 25  1  0
  6 26  1  0
  7 27  1  0
  8 28  1  0
  9 29  1  0
 12 30  1  0
 16 31  1  0
 16 32  1  0
 18 33  1  0
 19 34  1  0
 20 35  1  0
 21 36  1  0
 22 37  1  0
A    1
N1
A    2
C2
A    3
C4
A    4
C7
A    5
C8
A    6
C9
A    7
C11
A    8
C13
A    9
C15
A   10
C17
A   11
O18
A   12
O19
A   13
C21
A   14
O22
A   15
O23
A   16
C24
A   17
C27
A   18
C28
A   19
C30
A   20
C32
A   21
C34
A   22
C36
M  END
