3N5T_XFJ_A_800
     RDKit          3D

 51 53  0  0  0  0  0  0  0  0999 V2000
    6.5960   12.5170   32.4910 N   0  0  0  0  0  0  0  0  0  0  0  0
    5.8330   11.7730   31.6680 C   0  0  0  0  0  0  0  0  0  0  0  0
    4.4900   11.7600   31.9290 N   0  0  0  0  0  0  0  0  0  0  0  0
    6.4380   11.0740   30.6070 C   0  0  0  0  0  0  0  0  0  0  0  0
    7.8350   11.1670   30.4410 C   0  0  0  0  0  0  0  0  0  0  0  0
    8.5810   11.9400   31.3340 C   0  0  0  0  0  0  0  0  0  0  0  0
    7.9280   12.6220   32.3670 C   0  0  0  0  0  0  0  0  0  0  0  0
    8.5420   10.4400   29.3190 C   0  0  0  0  0  0  0  0  0  0  0  0
    8.6100   13.5000   33.4010 C   0  0  0  0  0  0  0  0  0  0  0  0
   10.1130   13.6630   33.1970 C   0  0  0  0  0  0  0  0  0  0  0  0
   10.8780   16.7520   35.2540 N   0  0  0  0  0  0  0  0  0  0  0  0
   10.3240   15.9250   34.3420 C   0  0  0  0  0  0  0  0  0  0  0  0
   10.7440   14.5950   34.2140 C   0  0  0  0  0  0  0  0  0  0  0  0
   11.7650   14.1320   35.0320 C   0  0  0  0  0  0  0  0  0  0  0  0
   12.3360   15.0010   35.9680 C   0  0  0  0  0  0  0  0  0  0  0  0
   11.8740   16.3190   36.0550 C   0  0  0  0  0  0  0  0  0  0  0  0
   13.4220   14.5010   36.8900 C   0  0  0  0  0  0  0  0  0  0  0  0
   14.7340   15.1790   36.5480 C   0  0  0  0  0  0  0  0  0  0  0  0
   15.9140   13.1220   37.2910 N   0  0  0  0  0  0  0  0  0  0  0  0
   16.8730   12.4380   37.9610 C   0  0  0  0  0  0  0  0  0  0  0  0
   16.9340   11.0780   37.8710 N   0  0  0  0  0  0  0  0  0  0  0  0
   17.7650   13.1640   38.7600 C   0  0  0  0  0  0  0  0  0  0  0  0
   17.6650   14.5640   38.8400 C   0  0  0  0  0  0  0  0  0  0  0  0
   16.6800   15.2390   38.1200 C   0  0  0  0  0  0  0  0  0  0  0  0
   15.8070   14.4830   37.3440 C   0  0  0  0  0  0  0  0  0  0  0  0
   18.6240   15.3580   39.6930 C   0  0  0  0  0  0  0  0  0  0  0  0
    4.1546   11.7568   32.9029 H   0  0  0  0  0  0  0  0  0  0  0  0
    3.8143   11.7535   31.1516 H   0  0  0  0  0  0  0  0  0  0  0  0
    5.8318   10.4659   29.9194 H   0  0  0  0  0  0  0  0  0  0  0  0
    9.6733   12.0121   31.2261 H   0  0  0  0  0  0  0  0  0  0  0  0
    9.2498    9.7122   29.7424 H   0  0  0  0  0  0  0  0  0  0  0  0
    7.8013    9.9134   28.6993 H   0  0  0  0  0  0  0  0  0  0  0  0
    9.0891   11.1657   28.6993 H   0  0  0  0  0  0  0  0  0  0  0  0
    8.1477   14.4974   33.3641 H   0  0  0  0  0  0  0  0  0  0  0  0
    8.4774   13.0015   34.3725 H   0  0  0  0  0  0  0  0  0  0  0  0
   10.5889   12.6750   33.2822 H   0  0  0  0  0  0  0  0  0  0  0  0
   10.2673   14.1042   32.2013 H   0  0  0  0  0  0  0  0  0  0  0  0
    9.5263   16.3035   33.6859 H   0  0  0  0  0  0  0  0  0  0  0  0
   12.1209   13.0948   34.9455 H   0  0  0  0  0  0  0  0  0  0  0  0
   12.3268   17.0083   36.7829 H   0  0  0  0  0  0  0  0  0  0  0  0
   13.1521   14.7307   37.9314 H   0  0  0  0  0  0  0  0  0  0  0  0
   13.5312   13.4132   36.7684 H   0  0  0  0  0  0  0  0  0  0  0  0
   14.9397   15.0837   35.4716 H   0  0  0  0  0  0  0  0  0  0  0  0
   14.6976   16.2515   36.7898 H   0  0  0  0  0  0  0  0  0  0  0  0
   16.9597   10.5059   38.7271 H   0  0  0  0  0  0  0  0  0  0  0  0
   16.9544   10.6234   36.9470 H   0  0  0  0  0  0  0  0  0  0  0  0
   18.5466   12.6370   39.3270 H   0  0  0  0  0  0  0  0  0  0  0  0
   16.5958   16.3349   38.1641 H   0  0  0  0  0  0  0  0  0  0  0  0
   18.4055   15.1771   40.7558 H   0  0  0  0  0  0  0  0  0  0  0  0
   19.6555   15.0460   39.4725 H   0  0  0  0  0  0  0  0  0  0  0  0
   18.5100   16.4296   39.4725 H   0  0  0  0  0  0  0  0  0  0  0  0
  1  7  2  0
  1  2  1  0
  3  2  1  0
  2  4  2  0
  4  5  1  0
  6  5  2  0
  5  8  1  0
  7  6  1  0
  9  7  1  0
  9 10  1  0
 13 10  1  0
 16 11  2  0
 11 12  1  0
 12 13  2  0
 14 13  1  0
 15 14  2  0
 17 15  1  0
 16 15  1  0
 17 18  1  0
 25 18  1  0
 20 19  2  0
 25 19  1  0
 22 20  1  0
 20 21  1  0
 23 22  2  0
 26 23  1  0
 23 24  1  0
 24 25  2  0
  3 27  1  0
  3 28  1  0
  4 29  1  0
  6 30  1  0
  8 31  1  0
  8 32  1  0
  8 33  1  0
  9 34  1  0
  9 35  1  0
 10 36  1  0
 10 37  1  0
 12 38  1  0
 14 39  1  0
 16 40  1  0
 17 41  1  0
 17 42  1  0
 18 43  1  0
 18 44  1  0
 21 45  1  0
 21 46  1  0
 22 47  1  0
 24 48  1  0
 26 49  1  0
 26 50  1  0
 26 51  1  0
A    1
N01
A    2
C02
A    3
N02
A    4
C03
A    5
C04
A    6
C05
A    7
C06
A    8
C07
A    9
C08
A   10
C09
A   11
N11
A   12
C12
A   13
C13
A   14
C14
A   15
C15
A   16
C16
A   17
C17
A   18
C18
A   19
N21
A   20
C22
A   21
N22
A   22
C23
A   23
C24
A   24
C25
A   25
C26
A   26
C27
M  END
