3N5R_XFH_A_800
     RDKit          3D

 52 54  0  0  0  0  0  0  0  0999 V2000
    6.8800   12.7800   32.3680 N   0  0  0  0  0  0  0  0  0  0  0  0
    6.0420   12.0120   31.6020 C   0  0  0  0  0  0  0  0  0  0  0  0
    4.7060   12.0050   31.8630 N   0  0  0  0  0  0  0  0  0  0  0  0
    6.5360   11.2280   30.5510 C   0  0  0  0  0  0  0  0  0  0  0  0
    7.9010   11.2510   30.2870 C   0  0  0  0  0  0  0  0  0  0  0  0
    8.7440   12.0360   31.0770 C   0  0  0  0  0  0  0  0  0  0  0  0
    8.2280   12.8020   32.1380 C   0  0  0  0  0  0  0  0  0  0  0  0
    8.4840   10.4410   29.1660 C   0  0  0  0  0  0  0  0  0  0  0  0
    9.1710   13.6180   33.0240 C   0  0  0  0  0  0  0  0  0  0  0  0
   10.1600   12.6570   33.7360 C   0  0  0  0  0  0  0  0  0  0  0  0
   12.5470   15.4100   34.8730 C   0  0  0  0  0  0  0  0  0  0  0  0
   11.4120   14.6800   34.4860 C   0  0  0  0  0  0  0  0  0  0  0  0
   11.4690   13.3210   34.1590 C   0  0  0  0  0  0  0  0  0  0  0  0
   12.7240   12.6560   34.2340 C   0  0  0  0  0  0  0  0  0  0  0  0
   13.8790   13.3860   34.6260 C   0  0  0  0  0  0  0  0  0  0  0  0
   13.7750   14.7500   34.9380 C   0  0  0  0  0  0  0  0  0  0  0  0
   15.2710   12.8030   34.7540 C   0  0  0  0  0  0  0  0  0  0  0  0
   15.9220   13.3700   36.0320 C   0  0  0  0  0  0  0  0  0  0  0  0
   17.8940   14.7440   36.8290 C   0  0  0  0  0  0  0  0  0  0  0  0
   19.2330   15.1540   36.7040 C   0  0  0  0  0  0  0  0  0  0  0  0
   19.7830   16.0430   37.5780 N   0  0  0  0  0  0  0  0  0  0  0  0
   20.0240   14.6680   35.7130 N   0  0  0  0  0  0  0  0  0  0  0  0
   19.5440   13.7790   34.8090 C   0  0  0  0  0  0  0  0  0  0  0  0
   18.2120   13.3540   34.8960 C   0  0  0  0  0  0  0  0  0  0  0  0
   17.3710   13.8320   35.9090 C   0  0  0  0  0  0  0  0  0  0  0  0
   20.4560   13.2580   33.7180 C   0  0  0  0  0  0  0  0  0  0  0  0
    4.3716   12.0032   32.8372 H   0  0  0  0  0  0  0  0  0  0  0  0
    4.0295   12.0015   31.0863 H   0  0  0  0  0  0  0  0  0  0  0  0
    5.8579   10.6071   29.9472 H   0  0  0  0  0  0  0  0  0  0  0  0
    9.8236   12.0554   30.8671 H   0  0  0  0  0  0  0  0  0  0  0  0
    9.0789    9.6144   29.5817 H   0  0  0  0  0  0  0  0  0  0  0  0
    7.6712   10.0328   28.5473 H   0  0  0  0  0  0  0  0  0  0  0  0
    9.1291   11.0821   28.5473 H   0  0  0  0  0  0  0  0  0  0  0  0
    9.7333   14.3316   32.4038 H   0  0  0  0  0  0  0  0  0  0  0  0
    8.5873   14.1709   33.7747 H   0  0  0  0  0  0  0  0  0  0  0  0
    9.6681   12.2567   34.6347 H   0  0  0  0  0  0  0  0  0  0  0  0
   10.4194   11.8705   33.0120 H   0  0  0  0  0  0  0  0  0  0  0  0
   12.4701   16.4792   35.1197 H   0  0  0  0  0  0  0  0  0  0  0  0
   10.4416   15.1959   34.4381 H   0  0  0  0  0  0  0  0  0  0  0  0
   12.8002   11.5859   33.9907 H   0  0  0  0  0  0  0  0  0  0  0  0
   14.6746   15.3074   35.2382 H   0  0  0  0  0  0  0  0  0  0  0  0
   15.2095   11.7069   34.8236 H   0  0  0  0  0  0  0  0  0  0  0  0
   15.8740   13.0690   33.8733 H   0  0  0  0  0  0  0  0  0  0  0  0
   15.3225   14.2326   36.3583 H   0  0  0  0  0  0  0  0  0  0  0  0
   15.9423   12.5327   36.7451 H   0  0  0  0  0  0  0  0  0  0  0  0
   17.2654   15.1368   37.6418 H   0  0  0  0  0  0  0  0  0  0  0  0
   19.6899   15.8924   38.5927 H   0  0  0  0  0  0  0  0  0  0  0  0
   20.2919   16.8656   37.2240 H   0  0  0  0  0  0  0  0  0  0  0  0
   17.8217   12.6360   34.1597 H   0  0  0  0  0  0  0  0  0  0  0  0
   21.3255   12.7613   34.1731 H   0  0  0  0  0  0  0  0  0  0  0  0
   19.9069   12.5373   33.0942 H   0  0  0  0  0  0  0  0  0  0  0  0
   20.7980   14.0970   33.0942 H   0  0  0  0  0  0  0  0  0  0  0  0
  2  1  2  0
  7  1  1  0
  4  2  1  0
  2  3  1  0
  5  4  2  0
  8  5  1  0
  5  6  1  0
  6  7  2  0
  7  9  1  0
  9 10  1  0
 10 13  1  0
 12 11  2  0
 11 16  1  0
 13 12  1  0
 13 14  2  0
 14 15  1  0
 15 17  1  0
 15 16  2  0
 17 18  1  0
 25 18  1  0
 25 19  2  0
 20 19  1  0
 22 20  2  0
 20 21  1  0
 23 22  1  0
 26 23  1  0
 23 24  2  0
 24 25  1  0
  3 27  1  0
  3 28  1  0
  4 29  1  0
  6 30  1  0
  8 31  1  0
  8 32  1  0
  8 33  1  0
  9 34  1  0
  9 35  1  0
 10 36  1  0
 10 37  1  0
 11 38  1  0
 12 39  1  0
 14 40  1  0
 16 41  1  0
 17 42  1  0
 17 43  1  0
 18 44  1  0
 18 45  1  0
 19 46  1  0
 21 47  1  0
 21 48  1  0
 24 49  1  0
 26 50  1  0
 26 51  1  0
 26 52  1  0
A    1
N01
A    2
C02
A    3
N02
A    4
C03
A    5
C04
A    6
C05
A    7
C06
A    8
C07
A    9
C08
A   10
C09
A   11
C11
A   12
C12
A   13
C13
A   14
C14
A   15
C15
A   16
C16
A   17
C17
A   18
C18
A   19
C21
A   20
C22
A   21
N22
A   22
N23
A   23
C24
A   24
C25
A   25
C26
A   26
C27
M  END
