1D1V_H4B_A_700
     RDKit          3D

 32 33  0  0  0  0  0  0  0  0999 V2000
    8.3080   11.7410   42.8980 N   0  0  0  0  0  0  0  0  0  0  0  0
    8.2450   12.0670   41.5840 C   0  0  0  0  0  0  0  0  0  0  0  0
    7.4070   11.4850   40.7370 N   0  0  0  0  0  0  0  0  0  0  0  0
    9.0820   13.0370   41.1300 N   0  0  0  0  0  0  0  0  0  0  0  0
   10.0200   13.7340   41.9250 C   0  0  0  0  0  0  0  0  0  0  0  0
   10.7250   14.5960   41.3920 O   0  0  0  0  0  0  0  0  0  0  0  0
   10.0250   13.3380   43.2860 C   0  0  0  0  0  0  0  0  0  0  0  0
    9.1840   12.3490   43.7750 C   0  0  0  0  0  0  0  0  0  0  0  0
   10.9750   14.0160   44.1730 N   0  0  0  0  0  0  0  0  0  0  0  0
    9.1800   11.9690   45.0580 N   0  0  0  0  0  0  0  0  0  0  0  0
   11.3510   13.2050   45.4150 C   0  0  0  0  0  0  0  0  0  0  0  0
   10.0930   12.5860   46.0390 C   0  0  0  0  0  0  0  0  0  0  0  0
   12.1530   14.1670   46.3350 C   0  0  0  0  0  0  0  0  0  0  0  0
   11.4560   15.3620   46.6880 O   0  0  0  0  0  0  0  0  0  0  0  0
   12.6110   13.4720   47.6420 C   0  0  0  0  0  0  0  0  0  0  0  0
   13.5630   14.3220   48.4240 C   0  0  0  0  0  0  0  0  0  0  0  0
   13.2760   12.2790   47.1930 O   0  0  0  0  0  0  0  0  0  0  0  0
    6.6136   10.9340   41.0944 H   0  0  0  0  0  0  0  0  0  0  0  0
    7.5495   11.5840   39.7217 H   0  0  0  0  0  0  0  0  0  0  0  0
    9.0287   13.2827   40.1311 H   0  0  0  0  0  0  0  0  0  0  0  0
   11.3550   14.9533   43.9779 H   0  0  0  0  0  0  0  0  0  0  0  0
    8.5284   11.2332   45.3660 H   0  0  0  0  0  0  0  0  0  0  0  0
   11.9906   12.3369   45.1973 H   0  0  0  0  0  0  0  0  0  0  0  0
    9.5454   13.3775   46.5716 H   0  0  0  0  0  0  0  0  0  0  0  0
   10.4318   11.7821   46.7091 H   0  0  0  0  0  0  0  0  0  0  0  0
   13.0223   14.4498   45.7232 H   0  0  0  0  0  0  0  0  0  0  0  0
   11.4112   15.4389   47.6740 H   0  0  0  0  0  0  0  0  0  0  0  0
   11.7613   13.2745   48.3121 H   0  0  0  0  0  0  0  0  0  0  0  0
   13.3920   14.1694   49.4999 H   0  0  0  0  0  0  0  0  0  0  0  0
   14.5965   14.0407   48.1734 H   0  0  0  0  0  0  0  0  0  0  0  0
   13.4001   15.3806   48.1734 H   0  0  0  0  0  0  0  0  0  0  0  0
   13.5706   11.7506   47.9766 H   0  0  0  0  0  0  0  0  0  0  0  0
  1  2  2  0
  1  8  1  0
  2  3  1  0
  2  4  1  0
  4  5  1  0
  5  6  2  0
  5  7  1  0
  7  8  2  0
  7  9  1  0
  8 10  1  0
  9 11  1  0
 10 12  1  0
 11 12  1  0
 11 13  1  0
 13 14  1  0
 13 15  1  0
 15 16  1  0
 15 17  1  0
  3 18  1  0
  3 19  1  0
  4 20  1  0
  9 21  1  0
 10 22  1  0
 11 23  1  0
 12 24  1  0
 12 25  1  0
 13 26  1  0
 14 27  1  0
 15 28  1  0
 16 29  1  0
 16 30  1  0
 16 31  1  0
 17 32  1  0
A    1
N1
A    2
C2
A    3
N2
A    4
N3
A    5
C4
A    6
O4
A    7
C4A
A    8
C8A
A    9
N5
A   10
N8
A   11
C6
A   12
C7
A   13
C9
A   14
O9
A   15
C10
A   16
C11
A   17
O10
M  END
