3N5P_XFM_A_800
     RDKit          3D

 51 53  0  0  0  0  0  0  0  0999 V2000
    5.8790   12.4670   32.4940 N   0  0  0  0  0  0  0  0  0  0  0  0
    7.1610   12.6930   32.1350 C   0  0  0  0  0  0  0  0  0  0  0  0
    7.7290   11.9880   31.0710 C   0  0  0  0  0  0  0  0  0  0  0  0
    6.9620   11.0450   30.3760 C   0  0  0  0  0  0  0  0  0  0  0  0
    5.6410   10.8270   30.7630 C   0  0  0  0  0  0  0  0  0  0  0  0
    5.1280   11.5550   31.8310 C   0  0  0  0  0  0  0  0  0  0  0  0
    7.9670   13.7230   32.8920 C   0  0  0  0  0  0  0  0  0  0  0  0
    8.4460   13.1060   34.1880 C   0  0  0  0  0  0  0  0  0  0  0  0
    9.7840   12.4580   33.9270 C   0  0  0  0  0  0  0  0  0  0  0  0
   10.9060   13.1960   34.1250 N   0  0  0  0  0  0  0  0  0  0  0  0
   12.1370   12.6750   33.9170 C   0  0  0  0  0  0  0  0  0  0  0  0
   12.2730   11.3500   33.4820 C   0  0  0  0  0  0  0  0  0  0  0  0
   11.1320   10.5670   33.2700 C   0  0  0  0  0  0  0  0  0  0  0  0
    9.8760   11.1240   33.4960 C   0  0  0  0  0  0  0  0  0  0  0  0
   13.3240   13.5720   34.1550 C   0  0  0  0  0  0  0  0  0  0  0  0
   14.5920   12.7730   34.4030 C   0  0  0  0  0  0  0  0  0  0  0  0
   15.4120   13.4480   35.4680 C   0  0  0  0  0  0  0  0  0  0  0  0
   16.7510   13.7150   35.2070 C   0  0  0  0  0  0  0  0  0  0  0  0
   17.5280   14.3230   36.1910 C   0  0  0  0  0  0  0  0  0  0  0  0
   16.9700   14.6590   37.3890 N   0  0  0  0  0  0  0  0  0  0  0  0
   15.6480   14.4100   37.6710 C   0  0  0  0  0  0  0  0  0  0  0  0
   14.8480   13.7890   36.7060 C   0  0  0  0  0  0  0  0  0  0  0  0
   15.1000   14.7630   38.8730 N   0  0  0  0  0  0  0  0  0  0  0  0
   18.9830   14.6020   35.8970 C   0  0  0  0  0  0  0  0  0  0  0  0
    7.5590   10.2630   29.2280 C   0  0  0  0  0  0  0  0  0  0  0  0
    3.8650   11.3650   32.2130 N   0  0  0  0  0  0  0  0  0  0  0  0
    8.7738   12.1728   30.7806 H   0  0  0  0  0  0  0  0  0  0  0  0
    5.0159   10.0929   30.2336 H   0  0  0  0  0  0  0  0  0  0  0  0
    8.8321   14.0335   32.2877 H   0  0  0  0  0  0  0  0  0  0  0  0
    7.3446   14.6049   33.1038 H   0  0  0  0  0  0  0  0  0  0  0  0
    8.5521   13.8859   34.9564 H   0  0  0  0  0  0  0  0  0  0  0  0
    7.7224   12.3594   34.5473 H   0  0  0  0  0  0  0  0  0  0  0  0
   13.2731   10.9264   33.3076 H   0  0  0  0  0  0  0  0  0  0  0  0
   11.2265    9.5254   32.9293 H   0  0  0  0  0  0  0  0  0  0  0  0
    8.9660   10.5263   33.3388 H   0  0  0  0  0  0  0  0  0  0  0  0
   13.4718   14.2097   33.2709 H   0  0  0  0  0  0  0  0  0  0  0  0
   13.1209   14.1789   35.0497 H   0  0  0  0  0  0  0  0  0  0  0  0
   14.3266   11.7579   34.7334 H   0  0  0  0  0  0  0  0  0  0  0  0
   15.1762   12.7158   33.4727 H   0  0  0  0  0  0  0  0  0  0  0  0
   17.1921   13.4494   34.2349 H   0  0  0  0  0  0  0  0  0  0  0  0
   13.7904   13.5710   36.9154 H   0  0  0  0  0  0  0  0  0  0  0  0
   15.5528   14.4713   39.7509 H   0  0  0  0  0  0  0  0  0  0  0  0
   14.2344   15.3206   38.9005 H   0  0  0  0  0  0  0  0  0  0  0  0
   19.5345   14.7077   36.8429 H   0  0  0  0  0  0  0  0  0  0  0  0
   19.4062   13.7686   35.3170 H   0  0  0  0  0  0  0  0  0  0  0  0
   19.0680   15.5328   35.3170 H   0  0  0  0  0  0  0  0  0  0  0  0
    8.1816    9.4474   29.6245 H   0  0  0  0  0  0  0  0  0  0  0  0
    6.7510    9.8413   28.6122 H   0  0  0  0  0  0  0  0  0  0  0  0
    8.1788   10.9313   28.6122 H   0  0  0  0  0  0  0  0  0  0  0  0
    3.6298   11.3296   33.2152 H   0  0  0  0  0  0  0  0  0  0  0  0
    3.1243   11.2536   31.5060 H   0  0  0  0  0  0  0  0  0  0  0  0
  6  1  2  0
  2  1  1  0
  3  2  2  0
  2  7  1  0
  4  3  1  0
 25  4  1  0
  4  5  2  0
  5  6  1  0
  6 26  1  0
  7  8  1  0
  9  8  1  0
 14  9  1  0
  9 10  2  0
 11 10  1  0
 12 11  2  0
 11 15  1  0
 13 12  1  0
 13 14  2  0
 15 16  1  0
 16 17  1  0
 18 17  2  0
 17 22  1  0
 18 19  1  0
 24 19  1  0
 19 20  2  0
 20 21  1  0
 22 21  2  0
 21 23  1  0
  3 27  1  0
  5 28  1  0
  7 29  1  0
  7 30  1  0
  8 31  1  0
  8 32  1  0
 12 33  1  0
 13 34  1  0
 14 35  1  0
 15 36  1  0
 15 37  1  0
 16 38  1  0
 16 39  1  0
 18 40  1  0
 22 41  1  0
 23 42  1  0
 23 43  1  0
 24 44  1  0
 24 45  1  0
 24 46  1  0
 25 47  1  0
 25 48  1  0
 25 49  1  0
 26 50  1  0
 26 51  1  0
A    1
N1
A    2
C2
A    3
C3
A    4
C4
A    5
C5
A    6
C6
A    7
C7
A    8
C8
A    9
C9
A   10
N10
A   11
C11
A   12
C12
A   13
C13
A   14
C14
A   15
C15
A   16
C16
A   17
C17
A   18
C18
A   19
C19
A   20
N20
A   21
C21
A   22
C22
A   23
N23
A   24
C24
A   25
C25
A   26
N26
M  END
