3N6K_BFH_F_1
     RDKit          3D

 31 33  0  0  0  0  0  0  0  0999 V2000
    7.4620   74.2460   26.9990 O   0  0  0  0  0  0  0  0  0  0  0  0
    6.1290   74.0720   26.9450 C   0  0  0  0  0  0  0  0  0  0  0  0
    5.5450   74.1650   25.8800 O   0  0  0  0  0  0  0  0  0  0  0  0
    5.3830   73.7670   28.2290 C   0  0  0  0  0  0  0  0  0  0  0  0
    3.9150   73.9320   28.0460 N   0  0  0  0  0  0  0  0  0  0  0  0
    3.0470   72.8560   27.8750 C   0  0  0  0  0  0  0  0  0  0  0  0
    1.7740   73.3090   27.7790 C   0  0  0  0  0  0  0  0  0  0  0  0
    1.8080   74.7090   27.8550 C   0  0  0  0  0  0  0  0  0  0  0  0
    0.7320   75.6480   27.7860 C   0  0  0  0  0  0  0  0  0  0  0  0
    0.9780   76.9870   27.8670 C   0  0  0  0  0  0  0  0  0  0  0  0
    2.3140   77.4810   28.0130 C   0  0  0  0  0  0  0  0  0  0  0  0
    2.5360   78.8790   28.0950 C   0  0  0  0  0  0  0  0  0  0  0  0
    3.8210   79.3670   28.2330 C   0  0  0  0  0  0  0  0  0  0  0  0
    4.9410   78.5080   28.3010 C   0  0  0  0  0  0  0  0  0  0  0  0
    4.7570   77.1310   28.2270 C   0  0  0  0  0  0  0  0  0  0  0  0
    3.4480   76.5530   28.0880 C   0  0  0  0  0  0  0  0  0  0  0  0
    3.1720   75.1190   28.0090 C   0  0  0  0  0  0  0  0  0  0  0  0
    3.3540   71.4200   27.7880 C   0  0  0  0  0  0  0  0  0  0  0  0
    3.0110   70.7650   26.6520 O   0  0  0  0  0  0  0  0  0  0  0  0
    3.9000   70.8370   28.7110 O   0  0  0  0  0  0  0  0  0  0  0  0
    7.9183   74.3056   27.8755 H   0  0  0  0  0  0  0  0  0  0  0  0
    5.5936   72.7300   28.5296 H   0  0  0  0  0  0  0  0  0  0  0  0
    5.7202   74.4697   29.0052 H   0  0  0  0  0  0  0  0  0  0  0  0
    0.8732   72.6887   27.6621 H   0  0  0  0  0  0  0  0  0  0  0  0
   -0.3006   75.2882   27.6668 H   0  0  0  0  0  0  0  0  0  0  0  0
    0.1390   77.6968   27.8195 H   0  0  0  0  0  0  0  0  0  0  0  0
    1.6853   79.5748   28.0487 H   0  0  0  0  0  0  0  0  0  0  0  0
    3.9767   80.4544   28.2916 H   0  0  0  0  0  0  0  0  0  0  0  0
    5.9525   78.9257   28.4118 H   0  0  0  0  0  0  0  0  0  0  0  0
    5.6339   76.4687   28.2760 H   0  0  0  0  0  0  0  0  0  0  0  0
    3.6783   71.0738   29.6463 H   0  0  0  0  0  0  0  0  0  0  0  0
  2  1  1  0
  3  2  2  0
  2  4  1  0
  5  4  1  0
  6  5  1  0
 17  5  1  0
  7  6  2  0
 18  6  1  0
  7  8  1  0
  9  8  1  0
  8 17  2  0
  9 10  2  0
 10 11  1  0
 11 16  2  0
 11 12  1  0
 12 13  2  0
 13 14  1  0
 15 14  2  0
 16 15  1  0
 17 16  1  0
 19 18  2  0
 18 20  1  0
  1 21  1  0
  4 22  1  0
  4 23  1  0
  7 24  1  0
  9 25  1  0
 10 26  1  0
 12 27  1  0
 13 28  1  0
 14 29  1  0
 15 30  1  0
 20 31  1  0
A    1
O1
A    2
C2
A    3
O3
A    4
C4
A    5
N5
A    6
C6
A    7
C7
A    8
C8
A    9
C9
A   10
C10
A   11
C11
A   12
C12
A   13
C13
A   14
C14
A   15
C15
A   16
C16
A   17
C17
A   18
C18
A   19
O19
A   20
O20
M  END
