3N86_RJP_A_147
     RDKit          3D

 40 41  0  0  0  0  0  0  0  0999 V2000
   28.3480   26.8320   -3.6200 O   0  0  0  0  0  0  0  0  0  0  0  0
   31.4300   25.0960    3.0840 O   0  0  0  0  0  0  0  0  0  0  0  0
   29.5250   24.3920    4.0370 O   0  0  0  0  0  0  0  0  0  0  0  0
   27.6360   20.9350    0.7890 O   0  0  0  0  0  0  0  0  0  0  0  0
   28.2490   22.4290   -1.7040 O   0  0  0  0  0  0  0  0  0  0  0  0
   31.3880   22.8590    1.5820 O   0  0  0  0  0  0  0  0  0  0  0  0
   29.5260   26.3620   -1.6360 C   0  0  0  0  0  0  0  0  0  0  0  0
   28.8800   25.0060   -1.6410 C   0  0  0  0  0  0  0  0  0  0  0  0
   29.8980   24.5330    0.6260 C   0  0  0  0  0  0  0  0  0  0  0  0
   27.2460   31.9370   -3.7590 C   0  0  0  0  0  0  0  0  0  0  0  0
   26.9560   30.7130   -4.3700 C   0  0  0  0  0  0  0  0  0  0  0  0
   28.0660   32.0340   -2.6110 C   0  0  0  0  0  0  0  0  0  0  0  0
   27.5010   29.5560   -3.7940 C   0  0  0  0  0  0  0  0  0  0  0  0
   28.6290   30.8830   -2.0450 C   0  0  0  0  0  0  0  0  0  0  0  0
   28.9690   22.6180    2.0450 C   0  0  0  0  0  0  0  0  0  0  0  0
   28.8810   28.5370   -2.0980 N   0  0  0  0  0  0  0  0  0  0  0  0
   28.8010   27.2710   -2.5560 C   0  0  0  0  0  0  0  0  0  0  0  0
   30.3500   24.4490    3.0760 C   0  0  0  0  0  0  0  0  0  0  0  0
   29.1180   24.1340   -0.4150 C   0  0  0  0  0  0  0  0  0  0  0  0
   28.3330   29.6610   -2.6620 C   0  0  0  0  0  0  0  0  0  0  0  0
   28.6940   21.8970    0.6970 C   0  0  0  0  0  0  0  0  0  0  0  0
   28.5910   22.8820   -0.4770 C   0  0  0  0  0  0  0  0  0  0  0  0
   30.1300   23.6300    1.8360 C   0  0  0  0  0  0  0  0  0  0  0  0
   31.8500   25.3476    3.9445 H   0  0  0  0  0  0  0  0  0  0  0  0
   27.4367   20.7538    1.7416 H   0  0  0  0  0  0  0  0  0  0  0  0
   31.8003   22.6063    2.4459 H   0  0  0  0  0  0  0  0  0  0  0  0
   29.4973   26.7757   -0.6172 H   0  0  0  0  0  0  0  0  0  0  0  0
   30.5697   26.2666   -1.9699 H   0  0  0  0  0  0  0  0  0  0  0  0
   27.7945   25.1536   -1.7402 H   0  0  0  0  0  0  0  0  0  0  0  0
   29.3465   24.4649   -2.4774 H   0  0  0  0  0  0  0  0  0  0  0  0
   30.3710   25.5257    0.5957 H   0  0  0  0  0  0  0  0  0  0  0  0
   26.8211   32.8571   -4.1866 H   0  0  0  0  0  0  0  0  0  0  0  0
   26.3241   30.6595   -5.2688 H   0  0  0  0  0  0  0  0  0  0  0  0
   28.2627   33.0180   -2.1603 H   0  0  0  0  0  0  0  0  0  0  0  0
   27.2792   28.5687   -4.2253 H   0  0  0  0  0  0  0  0  0  0  0  0
   29.2745   30.9365   -1.1559 H   0  0  0  0  0  0  0  0  0  0  0  0
   28.0647   23.1530    2.3707 H   0  0  0  0  0  0  0  0  0  0  0  0
   29.2442   21.8831    2.8158 H   0  0  0  0  0  0  0  0  0  0  0  0
   29.4132   28.6754   -1.2271 H   0  0  0  0  0  0  0  0  0  0  0  0
   29.5779   21.2863    0.4611 H   0  0  0  0  0  0  0  0  0  0  0  0
  1 17  2  0
 18  2  1  0
 18  3  2  0
  4 21  1  0
  5 22  2  0
  6 23  1  0
  8  7  1  0
  7 17  1  0
 19  8  1  0
 23  9  1  0
 19  9  2  0
 11 10  2  0
 10 12  1  0
 13 11  1  0
 14 12  2  0
 13 20  2  0
 20 14  1  0
 21 15  1  0
 15 23  1  0
 17 16  1  0
 16 20  1  0
 23 18  1  0
 22 19  1  0
 21 22  1  0
  2 24  1  0
  4 25  1  0
  6 26  1  0
  7 27  1  0
  7 28  1  0
  8 29  1  0
  8 30  1  0
  9 31  1  0
 10 32  1  0
 11 33  1  0
 12 34  1  0
 13 35  1  0
 14 36  1  0
 15 37  1  0
 15 38  1  0
 16 39  1  0
 21 40  1  0
A    1
OAA
A    2
OAB
A    3
OAC
A    4
OAD
A    5
OAE
A    6
OAF
A    7
CAG
A    8
CAH
A    9
CAI
A   10
CAJ
A   11
CAK
A   12
CAL
A   13
CAM
A   14
CAN
A   15
CAO
A   16
NAP
A   17
CAQ
A   18
CAR
A   19
CAS
A   20
CAT
A   21
CAU
A   22
CAV
A   23
CAW
M  END
