3N8N_N88_A_147
     RDKit          3D

 38 38  0  0  0  0  0  0  0  0999 V2000
   -1.4720   33.7410   81.5030 C   0  0  0  0  0  0  0  0  0  0  0  0
   -1.3220   34.8570   80.4840 C   0  0  0  0  0  0  0  0  0  0  0  0
   -1.3670   34.0210   82.7230 O   0  0  0  0  0  0  0  0  0  0  0  0
   -0.9230   34.2300   79.1320 C   0  0  0  0  0  0  0  0  0  0  0  0
   -1.6910   32.5740   81.0880 O   0  0  0  0  0  0  0  0  0  0  0  0
   -1.2010   35.1400   77.9280 C   0  0  0  0  0  0  0  0  0  0  0  0
   -0.9830   34.4380   76.6930 O   0  0  0  0  0  0  0  0  0  0  0  0
   -2.6170   35.7420   77.9260 C   0  0  0  0  0  0  0  0  0  0  0  0
   -2.5530   37.1230   77.5500 O   0  0  0  0  0  0  0  0  0  0  0  0
   -3.3400   35.6550   79.2560 C   0  0  0  0  0  0  0  0  0  0  0  0
   -2.6140   35.6520   80.3940 C   0  0  0  0  0  0  0  0  0  0  0  0
   -4.6920   35.5800   79.2850 C   0  0  0  0  0  0  0  0  0  0  0  0
   -5.3310   35.5000   80.4710 N   0  0  0  0  0  0  0  0  0  0  0  0
   -6.6520   36.0300   80.8270 C   0  0  0  0  0  0  0  0  0  0  0  0
   -7.6630   34.8770   80.8210 C   0  0  0  0  0  0  0  0  0  0  0  0
   -7.1360   37.1330   79.8850 C   0  0  0  0  0  0  0  0  0  0  0  0
   -6.5480   36.6070   82.2350 C   0  0  0  0  0  0  0  0  0  0  0  0
   -5.3170   35.5580   78.2230 O   0  0  0  0  0  0  0  0  0  0  0  0
   -0.3080   35.7780   80.9040 O   0  0  0  0  0  0  0  0  0  0  0  0
   -1.6180   33.3516   83.4079 H   0  0  0  0  0  0  0  0  0  0  0  0
    0.1535   34.0051   79.1569 H   0  0  0  0  0  0  0  0  0  0  0  0
   -1.5359   33.3259   79.0018 H   0  0  0  0  0  0  0  0  0  0  0  0
   -0.4905   35.9747   78.0200 H   0  0  0  0  0  0  0  0  0  0  0  0
   -0.6951   33.5108   76.8868 H   0  0  0  0  0  0  0  0  0  0  0  0
   -3.1883   35.1389   77.2050 H   0  0  0  0  0  0  0  0  0  0  0  0
   -2.5269   37.6858   78.3641 H   0  0  0  0  0  0  0  0  0  0  0  0
   -2.9605   36.2299   81.2635 H   0  0  0  0  0  0  0  0  0  0  0  0
   -4.8279   35.0044   81.2208 H   0  0  0  0  0  0  0  0  0  0  0  0
   -7.9074   34.5983   81.8566 H   0  0  0  0  0  0  0  0  0  0  0  0
   -8.5787   35.1950   80.3010 H   0  0  0  0  0  0  0  0  0  0  0  0
   -7.2281   34.0107   80.3010 H   0  0  0  0  0  0  0  0  0  0  0  0
   -7.5088   37.9825   80.4761 H   0  0  0  0  0  0  0  0  0  0  0  0
   -6.3013   37.4659   79.2507 H   0  0  0  0  0  0  0  0  0  0  0  0
   -7.9461   36.7441   79.2507 H   0  0  0  0  0  0  0  0  0  0  0  0
   -6.6928   35.8035   82.9722 H   0  0  0  0  0  0  0  0  0  0  0  0
   -5.5542   37.0575   82.3742 H   0  0  0  0  0  0  0  0  0  0  0  0
   -7.3220   37.3761   82.3742 H   0  0  0  0  0  0  0  0  0  0  0  0
   -0.2770   35.8062   81.8931 H   0  0  0  0  0  0  0  0  0  0  0  0
  1  3  1  0
  2  1  1  0
  2 19  1  0
  4  2  1  0
  5  1  2  0
  6  4  1  0
  7  6  1  0
  8  6  1  0
  8 10  1  0
  9  8  1  0
 10 12  1  0
 10 11  2  0
 11  2  1  0
 12 13  1  0
 13 14  1  0
 14 17  1  0
 15 14  1  0
 16 14  1  0
 18 12  2  0
  3 20  1  0
  4 21  1  0
  4 22  1  0
  6 23  1  0
  7 24  1  0
  8 25  1  0
  9 26  1  0
 11 27  1  0
 13 28  1  0
 15 29  1  0
 15 30  1  0
 15 31  1  0
 16 32  1  0
 16 33  1  0
 16 34  1  0
 17 35  1  0
 17 36  1  0
 17 37  1  0
 19 38  1  0
A    1
C
A    2
C1
A    3
O1
A    4
C2
A    5
O2
A    6
C3
A    7
O3
A    8
C4
A    9
O4
A   10
C5
A   11
C6
A   12
C13
A   13
N14
A   14
C15
A   15
C16
A   16
C17
A   17
C18
A   18
O19
A   19
O30
M  END
