1L8J_PTY_A_200
     RDKit          3D

130129  0  0  0  0  0  0  0  0999 V2000
    0.3020   40.5060   -3.2390 C   0  0  0  0  0  0  0  0  0  0  0  0
    1.9530   37.0770    1.0410 C   0  0  0  0  0  0  0  0  0  0  0  0
    2.0730   38.5850    1.2880 C   0  0  0  0  0  0  0  0  0  0  0  0
   -0.2010   40.8650   -4.5640 O   0  0  0  0  0  0  0  0  0  0  0  0
    2.5350   40.8240   -2.0320 C   0  0  0  0  0  0  0  0  0  0  0  0
    1.3570   41.5190   -2.7500 C   0  0  0  0  0  0  0  0  0  0  0  0
    0.6960   42.4180   -1.8140 O   0  0  0  0  0  0  0  0  0  0  0  0
    0.9910   43.7630   -1.7780 C   0  0  0  0  0  0  0  0  0  0  0  0
    2.0960   44.2550   -1.5900 O   0  0  0  0  0  0  0  0  0  0  0  0
   -0.2570   44.5890   -1.9920 C   0  0  0  0  0  0  0  0  0  0  0  0
   -0.0910   46.0740   -1.6580 C   0  0  0  0  0  0  0  0  0  0  0  0
   -1.4300   46.7880   -1.5240 C   0  0  0  0  0  0  0  0  0  0  0  0
   -1.6560   47.8040   -2.6350 C   0  0  0  0  0  0  0  0  0  0  0  0
   -2.3050   49.0870   -2.1560 C   0  0  0  0  0  0  0  0  0  0  0  0
   -1.3060   50.2390   -2.1170 C   0  0  0  0  0  0  0  0  0  0  0  0
   -1.8830   51.5200   -2.7130 C   0  0  0  0  0  0  0  0  0  0  0  0
   -1.7760   52.6930   -1.7400 C   0  0  0  0  0  0  0  0  0  0  0  0
   -0.5140   53.5070   -1.9810 C   0  0  0  0  0  0  0  0  0  0  0  0
    0.1820   53.9170   -0.6950 C   0  0  0  0  0  0  0  0  0  0  0  0
    1.6950   53.7470   -0.7950 C   0  0  0  0  0  0  0  0  0  0  0  0
    2.2140   52.4440   -0.1710 C   0  0  0  0  0  0  0  0  0  0  0  0
    1.5840   52.1050    1.1830 C   0  0  0  0  0  0  0  0  0  0  0  0
    2.2000   50.8540    1.7970 C   0  0  0  0  0  0  0  0  0  0  0  0
    2.8790   51.1550    3.1270 C   0  0  0  0  0  0  0  0  0  0  0  0
    2.4140   50.2350    4.2510 C   0  0  0  0  0  0  0  0  0  0  0  0
    2.7400   48.7600    4.0010 C   0  0  0  0  0  0  0  0  0  0  0  0
    2.2420   47.8930    5.1500 C   0  0  0  0  0  0  0  0  0  0  0  0
    2.5590   46.4380    4.9020 C   0  0  0  0  0  0  0  0  0  0  0  0
   -1.5600   40.7110   -4.8170 C   0  0  0  0  0  0  0  0  0  0  0  0
   -1.9010   40.8650   -6.3020 C   0  0  0  0  0  0  0  0  0  0  0  0
   -2.4170   40.4790   -3.9690 O   0  0  0  0  0  0  0  0  0  0  0  0
   -3.4150   41.0540   -6.6140 C   0  0  0  0  0  0  0  0  0  0  0  0
   -3.7030   42.1120   -7.7110 C   0  0  0  0  0  0  0  0  0  0  0  0
   -5.2080   42.3010   -8.0380 C   0  0  0  0  0  0  0  0  0  0  0  0
   -6.0390   43.0290   -6.9580 C   0  0  0  0  0  0  0  0  0  0  0  0
   -7.5470   43.0150   -7.2970 C   0  0  0  0  0  0  0  0  0  0  0  0
   -8.3020   44.3140   -6.9750 C   0  0  0  0  0  0  0  0  0  0  0  0
   -8.8000   45.1100   -8.2070 C   0  0  0  0  0  0  0  0  0  0  0  0
   -9.8410   44.4120   -9.1170 C   0  0  0  0  0  0  0  0  0  0  0  0
   -9.6730   44.9160  -10.5790 C   0  0  0  0  0  0  0  0  0  0  0  0
  -10.8400   44.6190  -11.5330 C   0  0  0  0  0  0  0  0  0  0  0  0
  -10.7300   45.4350  -12.8490 C   0  0  0  0  0  0  0  0  0  0  0  0
  -11.8630   45.1690  -13.8450 C   0  0  0  0  0  0  0  0  0  0  0  0
  -12.6870   46.4310  -14.1610 C   0  0  0  0  0  0  0  0  0  0  0  0
    3.5930   40.6630    0.4290 P   0  0  0  0  0  0  0  0  0  0  0  0
    3.2550   39.0840    0.6060 O   0  0  0  0  0  0  0  0  0  0  0  0
    3.3710   41.3460    1.8010 O   0  0  0  0  0  0  0  0  0  0  0  0
    5.1130   40.8850   -0.0720 O   0  0  0  0  0  0  0  0  0  0  0  0
    2.5740   41.2610   -0.6560 O   0  0  0  0  0  0  0  0  0  0  0  0
    3.1080   36.5280    1.4400 N   0  0  0  0  0  0  0  0  0  0  0  0
   -0.5375   40.4910   -2.5284 H   0  0  0  0  0  0  0  0  0  0  0  0
    0.7741   39.5145   -3.3024 H   0  0  0  0  0  0  0  0  0  0  0  0
    1.1159   36.6632    1.6223 H   0  0  0  0  0  0  0  0  0  0  0  0
    1.7601   36.8643   -0.0209 H   0  0  0  0  0  0  0  0  0  0  0  0
    1.1796   39.0947    0.8981 H   0  0  0  0  0  0  0  0  0  0  0  0
    2.1574   38.7790    2.3675 H   0  0  0  0  0  0  0  0  0  0  0  0
    2.3966   39.7333   -2.0683 H   0  0  0  0  0  0  0  0  0  0  0  0
    3.4796   41.0861   -2.5309 H   0  0  0  0  0  0  0  0  0  0  0  0
    1.7688   42.0561   -3.6172 H   0  0  0  0  0  0  0  0  0  0  0  0
   -0.5503   44.5037   -3.0487 H   0  0  0  0  0  0  0  0  0  0  0  0
   -1.0197   44.1936   -1.3051 H   0  0  0  0  0  0  0  0  0  0  0  0
    0.4550   46.1642   -0.7073 H   0  0  0  0  0  0  0  0  0  0  0  0
    0.4615   46.5457   -2.4840 H   0  0  0  0  0  0  0  0  0  0  0  0
   -2.2353   46.0395   -1.5598 H   0  0  0  0  0  0  0  0  0  0  0  0
   -1.4282   47.3303   -0.5670 H   0  0  0  0  0  0  0  0  0  0  0  0
   -0.6827   48.0522   -3.0835 H   0  0  0  0  0  0  0  0  0  0  0  0
   -2.3435   47.3440   -3.3601 H   0  0  0  0  0  0  0  0  0  0  0  0
   -3.1260   49.3490   -2.8397 H   0  0  0  0  0  0  0  0  0  0  0  0
   -2.6819   48.9227   -1.1357 H   0  0  0  0  0  0  0  0  0  0  0  0
   -1.0253   50.4297   -1.0707 H   0  0  0  0  0  0  0  0  0  0  0  0
   -0.4317   49.9495   -2.7185 H   0  0  0  0  0  0  0  0  0  0  0  0
   -1.3300   51.7668   -3.6313 H   0  0  0  0  0  0  0  0  0  0  0  0
   -2.9480   51.3489   -2.9287 H   0  0  0  0  0  0  0  0  0  0  0  0
   -2.6519   53.3456   -1.8699 H   0  0  0  0  0  0  0  0  0  0  0  0
   -1.7350   52.2893   -0.7176 H   0  0  0  0  0  0  0  0  0  0  0  0
    0.1836   52.9032   -2.5800 H   0  0  0  0  0  0  0  0  0  0  0  0
   -0.8114   54.4287   -2.5026 H   0  0  0  0  0  0  0  0  0  0  0  0
   -0.0454   54.9730   -0.4873 H   0  0  0  0  0  0  0  0  0  0  0  0
   -0.1837   53.2691    0.1152 H   0  0  0  0  0  0  0  0  0  0  0  0
    1.9758   53.7583   -1.8585 H   0  0  0  0  0  0  0  0  0  0  0  0
    2.1487   54.5755   -0.2313 H   0  0  0  0  0  0  0  0  0  0  0  0
    2.0017   51.6191   -0.8670 H   0  0  0  0  0  0  0  0  0  0  0  0
    3.2906   52.5839    0.0061 H   0  0  0  0  0  0  0  0  0  0  0  0
    1.7379   52.9510    1.8690 H   0  0  0  0  0  0  0  0  0  0  0  0
    0.5124   51.9150    1.0232 H   0  0  0  0  0  0  0  0  0  0  0  0
    1.4066   50.1102    1.9621 H   0  0  0  0  0  0  0  0  0  0  0  0
    2.9616   50.4703    1.1022 H   0  0  0  0  0  0  0  0  0  0  0  0
    3.9653   51.0352    3.0018 H   0  0  0  0  0  0  0  0  0  0  0  0
    2.6111   52.1838    3.4096 H   0  0  0  0  0  0  0  0  0  0  0  0
    2.9055   50.5478    5.1840 H   0  0  0  0  0  0  0  0  0  0  0  0
    1.3190   50.3209    4.3101 H   0  0  0  0  0  0  0  0  0  0  0  0
    2.2544   48.4365    3.0685 H   0  0  0  0  0  0  0  0  0  0  0  0
    3.8316   48.6488    3.9232 H   0  0  0  0  0  0  0  0  0  0  0  0
    2.7302   48.2144    6.0818 H   0  0  0  0  0  0  0  0  0  0  0  0
    1.1508   48.0069    5.2296 H   0  0  0  0  0  0  0  0  0  0  0  0
    2.6723   45.9181    5.8648 H   0  0  0  0  0  0  0  0  0  0  0  0
    1.7403   45.9766    4.3303 H   0  0  0  0  0  0  0  0  0  0  0  0
    3.4954   46.3590    4.3303 H   0  0  0  0  0  0  0  0  0  0  0  0
   -1.3612   41.7429   -6.6867 H   0  0  0  0  0  0  0  0  0  0  0  0
   -1.6031   39.9226   -6.7849 H   0  0  0  0  0  0  0  0  0  0  0  0
   -3.8230   40.0886   -6.9482 H   0  0  0  0  0  0  0  0  0  0  0  0
   -3.8890   41.4153   -5.6895 H   0  0  0  0  0  0  0  0  0  0  0  0
   -3.3004   43.0779   -7.3719 H   0  0  0  0  0  0  0  0  0  0  0  0
   -3.2243   41.7483   -8.6322 H   0  0  0  0  0  0  0  0  0  0  0  0
   -5.2817   42.8808   -8.9698 H   0  0  0  0  0  0  0  0  0  0  0  0
   -5.6300   41.2877   -8.1104 H   0  0  0  0  0  0  0  0  0  0  0  0
   -5.8856   42.5277   -5.9910 H   0  0  0  0  0  0  0  0  0  0  0  0
   -5.7053   44.0762   -6.9141 H   0  0  0  0  0  0  0  0  0  0  0  0
   -7.6518   42.8186   -8.3742 H   0  0  0  0  0  0  0  0  0  0  0  0
   -7.9953   42.2361   -6.6627 H   0  0  0  0  0  0  0  0  0  0  0  0
   -9.1769   44.0557   -6.3604 H   0  0  0  0  0  0  0  0  0  0  0  0
   -7.5811   44.9667   -6.4609 H   0  0  0  0  0  0  0  0  0  0  0  0
   -9.2521   46.0430   -7.8395 H   0  0  0  0  0  0  0  0  0  0  0  0
   -7.9106   45.2459   -8.8398 H   0  0  0  0  0  0  0  0  0  0  0  0
   -9.6853   43.3236   -9.0843 H   0  0  0  0  0  0  0  0  0  0  0  0
  -10.8550   44.6483   -8.7621 H   0  0  0  0  0  0  0  0  0  0  0  0
   -9.5356   46.0069  -10.5450 H   0  0  0  0  0  0  0  0  0  0  0  0
   -8.8113   44.3657  -10.9848 H   0  0  0  0  0  0  0  0  0  0  0  0
  -10.8360   43.5465  -11.7775 H   0  0  0  0  0  0  0  0  0  0  0  0
  -11.7750   44.9060  -11.0296 H   0  0  0  0  0  0  0  0  0  0  0  0
  -10.7381   46.5050  -12.5940 H   0  0  0  0  0  0  0  0  0  0  0  0
   -9.7961   45.1228  -13.3393 H   0  0  0  0  0  0  0  0  0  0  0  0
  -11.4266   44.7904  -14.7811 H   0  0  0  0  0  0  0  0  0  0  0  0
  -12.5424   44.4356  -13.3862 H   0  0  0  0  0  0  0  0  0  0  0  0
  -12.9995   46.9097  -13.2212 H   0  0  0  0  0  0  0  0  0  0  0  0
  -12.0730   47.1334  -14.7438 H   0  0  0  0  0  0  0  0  0  0  0  0
  -13.5771   46.1514  -14.7438 H   0  0  0  0  0  0  0  0  0  0  0  0
    3.5793   40.7051    2.5262 H   0  0  0  0  0  0  0  0  0  0  0  0
    3.1428   36.5115    2.4693 H   0  0  0  0  0  0  0  0  0  0  0  0
    3.1736   35.5657    1.0787 H   0  0  0  0  0  0  0  0  0  0  0  0
  1  4  1  0
  1  6  1  0
  2  3  1  0
  2 50  1  0
  3 46  1  0
  4 29  1  0
  5  6  1  0
  5 49  1  0
  6  7  1  0
  7  8  1  0
  8  9  2  0
  8 10  1  0
 10 11  1  0
 11 12  1  0
 12 13  1  0
 13 14  1  0
 14 15  1  0
 15 16  1  0
 16 17  1  0
 17 18  1  0
 18 19  1  0
 19 20  1  0
 20 21  1  0
 21 22  1  0
 22 23  1  0
 23 24  1  0
 24 25  1  0
 25 26  1  0
 26 27  1  0
 27 28  1  0
 29 30  1  0
 29 31  2  0
 30 32  1  0
 32 33  1  0
 33 34  1  0
 34 35  1  0
 35 36  1  0
 36 37  1  0
 37 38  1  0
 38 39  1  0
 39 40  1  0
 40 41  1  0
 41 42  1  0
 42 43  1  0
 43 44  1  0
 45 46  1  0
 45 47  1  0
 45 48  2  0
 45 49  1  0
  1 51  1  0
  1 52  1  0
  2 53  1  0
  2 54  1  0
  3 55  1  0
  3 56  1  0
  5 57  1  0
  5 58  1  0
  6 59  1  0
 10 60  1  0
 10 61  1  0
 11 62  1  0
 11 63  1  0
 12 64  1  0
 12 65  1  0
 13 66  1  0
 13 67  1  0
 14 68  1  0
 14 69  1  0
 15 70  1  0
 15 71  1  0
 16 72  1  0
 16 73  1  0
 17 74  1  0
 17 75  1  0
 18 76  1  0
 18 77  1  0
 19 78  1  0
 19 79  1  0
 20 80  1  0
 20 81  1  0
 21 82  1  0
 21 83  1  0
 22 84  1  0
 22 85  1  0
 23 86  1  0
 23 87  1  0
 24 88  1  0
 24 89  1  0
 25 90  1  0
 25 91  1  0
 26 92  1  0
 26 93  1  0
 27 94  1  0
 27 95  1  0
 28 96  1  0
 28 97  1  0
 28 98  1  0
 30 99  1  0
 30100  1  0
 32101  1  0
 32102  1  0
 33103  1  0
 33104  1  0
 34105  1  0
 34106  1  0
 35107  1  0
 35108  1  0
 36109  1  0
 36110  1  0
 37111  1  0
 37112  1  0
 38113  1  0
 38114  1  0
 39115  1  0
 39116  1  0
 40117  1  0
 40118  1  0
 41119  1  0
 41120  1  0
 42121  1  0
 42122  1  0
 43123  1  0
 43124  1  0
 44125  1  0
 44126  1  0
 44127  1  0
 47128  1  0
 50129  1  0
 50130  1  0
A    1
C1
A    2
C2
A    3
C3
A    4
O4
A    5
C5
A    6
C6
A    7
O7
A    8
C8
A    9
O10
A   10
C11
A   11
C12
A   12
C13
A   13
C14
A   14
C15
A   15
C16
A   16
C17
A   17
C18
A   18
C19
A   19
C20
A   20
C21
A   21
C22
A   22
C23
A   23
C24
A   24
C25
A   25
C26
A   26
C27
A   27
C28
A   28
C29
A   29
C30
A   30
C31
A   31
O30
A   32
C32
A   33
C33
A   34
C34
A   35
C35
A   36
C36
A   37
C37
A   38
C38
A   39
C39
A   40
C40
A   41
C41
A   42
C42
A   43
C43
A   44
C44
A   45
P1
A   46
O11
A   47
O12
A   48
O13
A   49
O14
A   50
N1
M  END
