3NAN_HZ1_A_997
     RDKit          3D

144147  0  0  0  0  0  0  0  0999 V2000
   -4.5470    9.2310   84.7280 C   0  0  0  0  0  0  0  0  0  0  0  0
   -4.6190    7.6780   82.7720 O   0  0  0  0  0  0  0  0  0  0  0  0
   -4.2820    8.9990   83.2360 C   0  0  0  0  0  0  0  0  0  0  0  0
   -5.4240    8.8310   81.0350 O   0  0  0  0  0  0  0  0  0  0  0  0
   -2.8120    9.3030   82.9770 C   0  0  0  0  0  0  0  0  0  0  0  0
   -2.6910   10.3970   82.0520 O   0  0  0  0  0  0  0  0  0  0  0  0
   -2.2460    9.7380   84.3310 C   0  0  0  0  0  0  0  0  0  0  0  0
   -2.4800    8.7140   80.5890 O   0  0  0  0  0  0  0  0  0  0  0  0
   -3.2270    9.7380   85.3150 C   0  0  0  0  0  0  0  0  0  0  0  0
   -1.8940    9.4030   87.3630 O   0  0  0  0  0  0  0  0  0  0  0  0
   -2.9230   10.1900   86.7440 C   0  0  0  0  0  0  0  0  0  0  0  0
   -4.5740    8.6650   87.6610 O   0  0  0  0  0  0  0  0  0  0  0  0
   -4.1000   10.0110   87.6970 C   0  0  0  0  0  0  0  0  0  0  0  0
   -4.8450   12.3050   87.1040 O   0  0  0  0  0  0  0  0  0  0  0  0
   -5.2550   10.9590   87.3910 C   0  0  0  0  0  0  0  0  0  0  0  0
   -5.4030   12.6980   89.2410 O   0  0  0  0  0  0  0  0  0  0  0  0
   -6.1870   10.3550   86.3350 C   0  0  0  0  0  0  0  0  0  0  0  0
   -6.6890    9.8290   84.0350 O   0  0  0  0  0  0  0  0  0  0  0  0
   -5.6460   10.2800   84.9030 C   0  0  0  0  0  0  0  0  0  0  0  0
   -7.7780   11.7450   84.5050 O   0  0  0  0  0  0  0  0  0  0  0  0
   -3.3930   10.2280   89.0320 C   0  0  0  0  0  0  0  0  0  0  0  0
   -3.3100   11.6180   89.3470 O   0  0  0  0  0  0  0  0  0  0  0  0
   -2.0040    9.6820   88.6930 C   0  0  0  0  0  0  0  0  0  0  0  0
   -1.1150    9.4850   89.5130 O   0  0  0  0  0  0  0  0  0  0  0  0
   -5.1540    7.7300   81.5230 C   0  0  0  0  0  0  0  0  0  0  0  0
   -5.5040    6.4370   80.7810 C   0  0  0  0  0  0  0  0  0  0  0  0
   -5.9520    6.6510   79.3310 C   0  0  0  0  0  0  0  0  0  0  0  0
   -4.8090    6.4920   78.3220 C   0  0  0  0  0  0  0  0  0  0  0  0
   -5.3210    6.5610   76.8810 C   0  0  0  0  0  0  0  0  0  0  0  0
   -4.2270    6.1950   75.8740 C   0  0  0  0  0  0  0  0  0  0  0  0
   -4.7820    6.1770   74.4490 C   0  0  0  0  0  0  0  0  0  0  0  0
   -5.2860    7.5670   74.0560 C   0  0  0  0  0  0  0  0  0  0  0  0
   -2.5600    9.9260   80.7810 C   0  0  0  0  0  0  0  0  0  0  0  0
   -2.4650   10.9100   79.6120 C   0  0  0  0  0  0  0  0  0  0  0  0
   -2.4580   10.3800   78.1770 C   0  0  0  0  0  0  0  0  0  0  0  0
   -2.3880   12.2790   79.8410 C   0  0  0  0  0  0  0  0  0  0  0  0
   -2.3940   12.8340   81.2660 C   0  0  0  0  0  0  0  0  0  0  0  0
   -0.7770   10.0910   84.5790 C   0  0  0  0  0  0  0  0  0  0  0  0
   -4.9370   13.1280   88.1840 C   0  0  0  0  0  0  0  0  0  0  0  0
   -4.5200   14.5970   88.0640 C   0  0  0  0  0  0  0  0  0  0  0  0
   -4.6100   15.3390   89.4010 C   0  0  0  0  0  0  0  0  0  0  0  0
   -3.3150   15.2640   90.2130 C   0  0  0  0  0  0  0  0  0  0  0  0
   -5.1300   11.6480   84.4570 C   0  0  0  0  0  0  0  0  0  0  0  0
   -7.7610   10.6590   83.9280 C   0  0  0  0  0  0  0  0  0  0  0  0
   -8.9860   10.1860   83.1450 C   0  0  0  0  0  0  0  0  0  0  0  0
   -4.0310    9.4300   90.1690 C   0  0  0  0  0  0  0  0  0  0  0  0
    7.7210   23.2630   82.8810 C   0  0  0  0  0  0  0  0  0  0  0  0
    6.3460   22.6570   83.1720 C   0  0  0  0  0  0  0  0  0  0  0  0
    5.6660   22.3010   81.8480 C   0  0  0  0  0  0  0  0  0  0  0  0
    5.5070   23.6660   83.9590 C   0  0  0  0  0  0  0  0  0  0  0  0
    6.5410   21.4730   83.9550 O   0  0  0  0  0  0  0  0  0  0  0  0
    5.3930   20.8330   84.3160 C   0  0  0  0  0  0  0  0  0  0  0  0
    5.4990   19.7840   84.9400 O   0  0  0  0  0  0  0  0  0  0  0  0
    4.2100   21.3440   83.9720 N   0  0  0  0  0  0  0  0  0  0  0  0
    2.9070   20.7430   84.2930 C   0  0  0  0  0  0  0  0  0  0  0  0
    2.9950   19.2720   84.7090 C   0  0  0  0  0  0  0  0  0  0  0  0
    3.0980   19.1220   86.2290 C   0  0  0  0  0  0  0  0  0  0  0  0
    2.1080   18.0710   86.7400 C   0  0  0  0  0  0  0  0  0  0  0  0
    0.6710   18.5120   86.4490 C   0  0  0  0  0  0  0  0  0  0  0  0
   -0.3710   17.4520   86.8180 C   0  0  0  0  0  0  0  0  0  0  0  0
   -0.9270   17.5210   88.2480 C   0  0  0  0  0  0  0  0  0  0  0  0
   -1.7350   16.4500   88.6240 C   0  0  0  0  0  0  0  0  0  0  0  0
   -2.3900   16.4270   89.8500 C   0  0  0  0  0  0  0  0  0  0  0  0
   -2.2330   17.4900   90.7350 C   0  0  0  0  0  0  0  0  0  0  0  0
   -1.4250   18.5580   90.3780 C   0  0  0  0  0  0  0  0  0  0  0  0
   -0.7790   18.5720   89.1390 C   0  0  0  0  0  0  0  0  0  0  0  0
   -0.0090   19.6470   88.8180 O   0  0  0  0  0  0  0  0  0  0  0  0
   -4.8826    8.3128   85.2322 H   0  0  0  0  0  0  0  0  0  0  0  0
   -4.9426    9.6694   82.6667 H   0  0  0  0  0  0  0  0  0  0  0  0
   -2.2867    8.4339   82.5543 H   0  0  0  0  0  0  0  0  0  0  0  0
   -2.4838   10.7855   84.0939 H   0  0  0  0  0  0  0  0  0  0  0  0
   -2.9530    8.7083   85.5882 H   0  0  0  0  0  0  0  0  0  0  0  0
   -2.6441   11.2456   86.6104 H   0  0  0  0  0  0  0  0  0  0  0  0
   -4.6914    8.3316   88.5858 H   0  0  0  0  0  0  0  0  0  0  0  0
   -5.8396   11.0644   88.3168 H   0  0  0  0  0  0  0  0  0  0  0  0
   -6.4320    9.3309   86.6530 H   0  0  0  0  0  0  0  0  0  0  0  0
   -7.0478   11.0379   86.2839 H   0  0  0  0  0  0  0  0  0  0  0  0
   -3.3031   11.7337   90.3302 H   0  0  0  0  0  0  0  0  0  0  0  0
   -4.6147    5.7896   80.7761 H   0  0  0  0  0  0  0  0  0  0  0  0
   -6.3543    5.9854   81.3130 H   0  0  0  0  0  0  0  0  0  0  0  0
   -6.7343    5.9151   79.0935 H   0  0  0  0  0  0  0  0  0  0  0  0
   -6.3219    7.6838   79.2496 H   0  0  0  0  0  0  0  0  0  0  0  0
   -4.0772    7.2978   78.4806 H   0  0  0  0  0  0  0  0  0  0  0  0
   -4.3452    5.5067   78.4773 H   0  0  0  0  0  0  0  0  0  0  0  0
   -6.1602    5.8591   76.7667 H   0  0  0  0  0  0  0  0  0  0  0  0
   -5.6413    7.5939   76.6796 H   0  0  0  0  0  0  0  0  0  0  0  0
   -3.4174    6.9371   75.9360 H   0  0  0  0  0  0  0  0  0  0  0  0
   -3.8472    5.1915   76.1163 H   0  0  0  0  0  0  0  0  0  0  0  0
   -3.9866    5.8699   73.7540 H   0  0  0  0  0  0  0  0  0  0  0  0
   -5.6204    5.4665   74.4013 H   0  0  0  0  0  0  0  0  0  0  0  0
   -5.4976    8.1506   74.9641 H   0  0  0  0  0  0  0  0  0  0  0  0
   -4.5170    8.0811   73.4607 H   0  0  0  0  0  0  0  0  0  0  0  0
   -6.2057    7.4688   73.4607 H   0  0  0  0  0  0  0  0  0  0  0  0
   -2.4435    9.2802   78.1924 H   0  0  0  0  0  0  0  0  0  0  0  0
   -3.3608   10.7275   77.6534 H   0  0  0  0  0  0  0  0  0  0  0  0
   -1.5647   10.7512   77.6534 H   0  0  0  0  0  0  0  0  0  0  0  0
   -2.3220   12.9705   78.9881 H   0  0  0  0  0  0  0  0  0  0  0  0
   -2.3850   12.0007   81.9841 H   0  0  0  0  0  0  0  0  0  0  0  0
   -1.5026   13.4599   81.4195 H   0  0  0  0  0  0  0  0  0  0  0  0
   -3.2988   13.4405   81.4195 H   0  0  0  0  0  0  0  0  0  0  0  0
   -0.5885   10.1363   85.6618 H   0  0  0  0  0  0  0  0  0  0  0  0
   -0.1337    9.3219   84.1267 H   0  0  0  0  0  0  0  0  0  0  0  0
   -0.5534   11.0685   84.1267 H   0  0  0  0  0  0  0  0  0  0  0  0
   -3.4815   14.6414   87.7042 H   0  0  0  0  0  0  0  0  0  0  0  0
   -5.2105   15.0860   87.3611 H   0  0  0  0  0  0  0  0  0  0  0  0
   -4.8378   16.3964   89.2008 H   0  0  0  0  0  0  0  0  0  0  0  0
   -5.3997   14.8549   89.9943 H   0  0  0  0  0  0  0  0  0  0  0  0
   -3.5560   15.3136   91.2851 H   0  0  0  0  0  0  0  0  0  0  0  0
   -2.8044   14.3170   89.9838 H   0  0  0  0  0  0  0  0  0  0  0  0
   -4.8994   12.2593   85.3420 H   0  0  0  0  0  0  0  0  0  0  0  0
   -4.2193   11.5176   83.8540 H   0  0  0  0  0  0  0  0  0  0  0  0
   -5.9000   12.1516   83.8540 H   0  0  0  0  0  0  0  0  0  0  0  0
   -9.7753    9.8812   83.8480 H   0  0  0  0  0  0  0  0  0  0  0  0
   -9.3556   11.0061   82.5118 H   0  0  0  0  0  0  0  0  0  0  0  0
   -8.7085    9.3304   82.5118 H   0  0  0  0  0  0  0  0  0  0  0  0
   -3.7023    9.8411   91.1349 H   0  0  0  0  0  0  0  0  0  0  0  0
   -5.1264    9.4982   90.0951 H   0  0  0  0  0  0  0  0  0  0  0  0
   -3.7234    8.3765   90.0951 H   0  0  0  0  0  0  0  0  0  0  0  0
    8.2308   23.4877   83.8295 H   0  0  0  0  0  0  0  0  0  0  0  0
    8.3224   22.5466   82.3022 H   0  0  0  0  0  0  0  0  0  0  0  0
    7.5980   24.1903   82.3022 H   0  0  0  0  0  0  0  0  0  0  0  0
    4.7082   21.7996   82.0509 H   0  0  0  0  0  0  0  0  0  0  0  0
    5.4839   23.2195   81.2707 H   0  0  0  0  0  0  0  0  0  0  0  0
    6.3171   21.6281   81.2707 H   0  0  0  0  0  0  0  0  0  0  0  0
    5.6470   23.4976   85.0370 H   0  0  0  0  0  0  0  0  0  0  0  0
    5.8260   24.6871   83.7029 H   0  0  0  0  0  0  0  0  0  0  0  0
    4.4448   23.5386   83.7029 H   0  0  0  0  0  0  0  0  0  0  0  0
    4.2091   22.2267   83.4412 H   0  0  0  0  0  0  0  0  0  0  0  0
    2.4562   21.3116   85.1197 H   0  0  0  0  0  0  0  0  0  0  0  0
    2.2994   20.7829   83.3769 H   0  0  0  0  0  0  0  0  0  0  0  0
    2.0939   18.7473   84.3587 H   0  0  0  0  0  0  0  0  0  0  0  0
    3.9008   18.8403   84.2583 H   0  0  0  0  0  0  0  0  0  0  0  0
    4.1202   18.8128   86.4924 H   0  0  0  0  0  0  0  0  0  0  0  0
    2.8582   20.0887   86.6958 H   0  0  0  0  0  0  0  0  0  0  0  0
    2.3031   17.1129   86.2361 H   0  0  0  0  0  0  0  0  0  0  0  0
    2.2351   17.9568   87.8266 H   0  0  0  0  0  0  0  0  0  0  0  0
    0.4614   19.4244   87.0266 H   0  0  0  0  0  0  0  0  0  0  0  0
    0.5943   18.6829   85.3651 H   0  0  0  0  0  0  0  0  0  0  0  0
   -1.2172   17.5561   86.1229 H   0  0  0  0  0  0  0  0  0  0  0  0
    0.1523   16.4868   86.7504 H   0  0  0  0  0  0  0  0  0  0  0  0
   -1.8576   15.6021   87.9340 H   0  0  0  0  0  0  0  0  0  0  0  0
   -2.7453   17.4824   91.7084 H   0  0  0  0  0  0  0  0  0  0  0  0
   -1.2915   19.3994   91.0739 H   0  0  0  0  0  0  0  0  0  0  0  0
    0.3889   20.2025   89.5344 H   0  0  0  0  0  0  0  0  0  0  0  0
  1  3  1  0
  1  9  1  0
  1 19  1  0
  2  3  1  0
  2 25  1  0
  3  5  1  0
  4 25  2  0
  5  6  1  0
  5  7  1  0
  6 33  1  0
  7  9  1  0
  7 38  1  0
  8 33  2  0
  9 11  1  0
 10 11  1  0
 10 23  1  0
 11 13  1  0
 12 13  1  0
 13 15  1  0
 13 21  1  0
 14 15  1  0
 14 39  1  0
 15 17  1  0
 16 39  2  0
 17 19  1  0
 18 19  1  0
 18 44  1  0
 19 43  1  0
 20 44  2  0
 21 22  1  0
 21 23  1  0
 21 46  1  0
 23 24  2  0
 25 26  1  0
 26 27  1  0
 27 28  1  0
 28 29  1  0
 29 30  1  0
 30 31  1  0
 31 32  1  0
 33 34  1  0
 34 35  1  0
 34 36  2  0
 36 37  1  0
 39 40  1  0
 40 41  1  0
 41 42  1  0
 42 63  1  0
 44 45  1  0
 47 48  1  0
 48 49  1  0
 48 50  1  0
 48 51  1  0
 51 52  1  0
 52 53  2  0
 52 54  1  0
 54 55  1  0
 55 56  1  0
 56 57  1  0
 57 58  1  0
 58 59  1  0
 59 60  1  0
 60 61  1  0
 61 62  2  0
 61 66  1  0
 62 63  1  0
 63 64  2  0
 64 65  1  0
 65 66  2  0
 66 67  1  0
  1 68  1  0
  3 69  1  0
  5 70  1  0
  7 71  1  0
  9 72  1  0
 11 73  1  0
 12 74  1  0
 15 75  1  0
 17 76  1  0
 17 77  1  0
 22 78  1  0
 26 79  1  0
 26 80  1  0
 27 81  1  0
 27 82  1  0
 28 83  1  0
 28 84  1  0
 29 85  1  0
 29 86  1  0
 30 87  1  0
 30 88  1  0
 31 89  1  0
 31 90  1  0
 32 91  1  0
 32 92  1  0
 32 93  1  0
 35 94  1  0
 35 95  1  0
 35 96  1  0
 36 97  1  0
 37 98  1  0
 37 99  1  0
 37100  1  0
 38101  1  0
 38102  1  0
 38103  1  0
 40104  1  0
 40105  1  0
 41106  1  0
 41107  1  0
 42108  1  0
 42109  1  0
 43110  1  0
 43111  1  0
 43112  1  0
 45113  1  0
 45114  1  0
 45115  1  0
 46116  1  0
 46117  1  0
 46118  1  0
 47119  1  0
 47120  1  0
 47121  1  0
 49122  1  0
 49123  1  0
 49124  1  0
 50125  1  0
 50126  1  0
 50127  1  0
 54128  1  0
 55129  1  0
 55130  1  0
 56131  1  0
 56132  1  0
 57133  1  0
 57134  1  0
 58135  1  0
 58136  1  0
 59137  1  0
 59138  1  0
 60139  1  0
 60140  1  0
 62141  1  0
 64142  1  0
 65143  1  0
 67144  1  0
A    1
C1
A    2
O1
A    3
C2
A    4
O2
A    5
C3
A    6
O3
A    7
C4
A    8
O4
A    9
C5
A   10
O5
A   11
C6
A   12
O6
A   13
C7
A   14
O7
A   15
C8
A   16
O8
A   17
C9
A   18
O9
A   19
C10
A   20
O10
A   21
C11
A   22
O11
A   23
C12
A   24
O12
A   25
C13
A   26
C14
A   27
C15
A   28
C16
A   29
C17
A   30
C18
A   31
C19
A   32
C20
A   33
C21
A   34
C22
A   35
C23
A   36
C24
A   37
C25
A   38
C26
A   39
C27
A   40
C28
A   41
C29
A   42
C30
A   43
C31
A   44
C32
A   45
C33
A   46
C34
A   47
C40
A   48
C41
A   49
C42
A   50
C43
A   51
O44
A   52
C45
A   53
O46
A   54
N47
A   55
C48
A   56
C49
A   57
C50
A   58
C51
A   59
C52
A   60
C53
A   61
C54
A   62
C55
A   63
C56
A   64
C57
A   65
C58
A   66
C59
A   67
O60
M  END
