3NAY_MP6_A_1
     RDKit          3D

 61 65  0  0  0  0  0  0  0  0999 V2000
   11.4320  -39.4360   21.2040 C   0  0  0  0  0  0  0  0  0  0  0  0
   12.3580  -39.0950   20.2320 N   0  0  0  0  0  0  0  0  0  0  0  0
   16.3080  -39.5780   22.9540 O   0  0  0  0  0  0  0  0  0  0  0  0
   11.8950  -39.8830   22.4950 C   0  0  0  0  0  0  0  0  0  0  0  0
   13.3470  -39.9140   22.7800 C   0  0  0  0  0  0  0  0  0  0  0  0
   13.7800  -40.4260   24.0560 C   0  0  0  0  0  0  0  0  0  0  0  0
   12.8360  -40.9060   24.9690 C   0  0  0  0  0  0  0  0  0  0  0  0
   11.4530  -40.8590   24.6900 C   0  0  0  0  0  0  0  0  0  0  0  0
   10.9840  -40.3380   23.4680 C   0  0  0  0  0  0  0  0  0  0  0  0
   14.2640  -39.4600   21.7590 C   0  0  0  0  0  0  0  0  0  0  0  0
   13.7170  -39.0690   20.4980 C   0  0  0  0  0  0  0  0  0  0  0  0
   14.5620  -38.6020   19.4000 C   0  0  0  0  0  0  0  0  0  0  0  0
   15.9180  -38.5290   19.6330 C   0  0  0  0  0  0  0  0  0  0  0  0
   16.4790  -38.8230   20.8750 N   0  0  0  0  0  0  0  0  0  0  0  0
   15.7520  -39.3370   21.9240 C   0  0  0  0  0  0  0  0  0  0  0  0
   10.0490  -39.3670   20.8560 N   0  0  0  0  0  0  0  0  0  0  0  0
    9.6360  -38.8740   19.5160 C   0  0  0  0  0  0  0  0  0  0  0  0
    9.0810  -37.4180   19.5730 C   0  0  0  0  0  0  0  0  0  0  0  0
    8.8810  -39.9670   18.6360 C   0  0  0  0  0  0  0  0  0  0  0  0
    8.2770  -39.3740   17.3540 C   0  0  0  0  0  0  0  0  0  0  0  0
    9.9030  -41.0340   18.1880 C   0  0  0  0  0  0  0  0  0  0  0  0
    7.7710  -40.7000   19.4700 C   0  0  0  0  0  0  0  0  0  0  0  0
   13.9820  -38.3280   18.1210 C   0  0  0  0  0  0  0  0  0  0  0  0
   13.4850  -38.0940   17.0220 C   0  0  0  0  0  0  0  0  0  0  0  0
   12.8700  -37.7280   15.7430 C   0  0  0  0  0  0  0  0  0  0  0  0
   12.1280  -38.7030   14.9040 C   0  0  0  0  0  0  0  0  0  0  0  0
   11.3440  -37.7900   15.7630 C   0  0  0  0  0  0  0  0  0  0  0  0
   13.2990  -41.5050   26.1620 C   0  0  0  0  0  0  0  0  0  0  0  0
   12.5640  -42.5540   26.7430 C   0  0  0  0  0  0  0  0  0  0  0  0
   13.2770  -42.9230   27.8180 N   0  0  0  0  0  0  0  0  0  0  0  0
   14.4500  -42.2270   27.9990 N   0  0  0  0  0  0  0  0  0  0  0  0
   14.4670  -41.3560   26.9590 C   0  0  0  0  0  0  0  0  0  0  0  0
   14.8500  -40.4391   24.3108 H   0  0  0  0  0  0  0  0  0  0  0  0
   10.7344  -41.2329   25.4342 H   0  0  0  0  0  0  0  0  0  0  0  0
    9.9026  -40.2864   23.2731 H   0  0  0  0  0  0  0  0  0  0  0  0
   16.5820  -38.2279   18.8093 H   0  0  0  0  0  0  0  0  0  0  0  0
    9.3340  -39.6603   21.5369 H   0  0  0  0  0  0  0  0  0  0  0  0
   10.5306  -38.7381   18.8906 H   0  0  0  0  0  0  0  0  0  0  0  0
    8.9640  -37.1110   20.6228 H   0  0  0  0  0  0  0  0  0  0  0  0
    9.7830  -36.7380   19.0682 H   0  0  0  0  0  0  0  0  0  0  0  0
    8.1045  -37.3778   19.0682 H   0  0  0  0  0  0  0  0  0  0  0  0
    7.5153  -38.6261   17.6194 H   0  0  0  0  0  0  0  0  0  0  0  0
    9.0708  -38.8947   16.7623 H   0  0  0  0  0  0  0  0  0  0  0  0
    7.8124  -40.1765   16.7623 H   0  0  0  0  0  0  0  0  0  0  0  0
   10.3539  -41.5047   19.0741 H   0  0  0  0  0  0  0  0  0  0  0  0
    9.3930  -41.8000   17.5854 H   0  0  0  0  0  0  0  0  0  0  0  0
   10.6903  -40.5575   17.5854 H   0  0  0  0  0  0  0  0  0  0  0  0
    7.9715  -40.5676   20.5434 H   0  0  0  0  0  0  0  0  0  0  0  0
    6.7870  -40.2735   19.2254 H   0  0  0  0  0  0  0  0  0  0  0  0
    7.7768  -41.7725   19.2254 H   0  0  0  0  0  0  0  0  0  0  0  0
   13.3507  -37.5490   18.5733 H   0  0  0  0  0  0  0  0  0  0  0  0
   14.4239  -38.3646   16.5167 H   0  0  0  0  0  0  0  0  0  0  0  0
   12.5161  -38.4726   17.3796 H   0  0  0  0  0  0  0  0  0  0  0  0
   13.6769  -37.0200   15.5031 H   0  0  0  0  0  0  0  0  0  0  0  0
   12.1062  -38.5753   13.8117 H   0  0  0  0  0  0  0  0  0  0  0  0
   12.1676  -39.7957   14.7838 H   0  0  0  0  0  0  0  0  0  0  0  0
   10.8186  -38.1791   16.6476 H   0  0  0  0  0  0  0  0  0  0  0  0
   10.5293  -37.0691   15.6002 H   0  0  0  0  0  0  0  0  0  0  0  0
   11.6120  -42.9792   26.3924 H   0  0  0  0  0  0  0  0  0  0  0  0
   15.1493  -42.3404   28.7467 H   0  0  0  0  0  0  0  0  0  0  0  0
   15.2729  -40.6343   26.7599 H   0  0  0  0  0  0  0  0  0  0  0  0
  1  2  2  0
  1  4  1  0
  1 16  1  0
  2 11  1  0
  3 15  2  0
  4  5  2  0
  4  9  1  0
  5  6  1  0
  5 10  1  0
  6  7  2  0
  7  8  1  0
  7 28  1  0
  8  9  2  0
 10 11  2  0
 10 15  1  0
 11 12  1  0
 12 13  1  0
 12 23  2  3
 13 14  2  0
 14 15  1  0
 16 17  1  0
 17 18  1  0
 17 19  1  0
 19 20  1  0
 19 21  1  0
 19 22  1  0
 23 24  1  0
 24 25  1  0
 25 26  1  0
 25 27  1  0
 26 27  1  0
 28 29  1  0
 28 32  2  0
 29 30  2  0
 30 31  1  0
 31 32  1  0
  6 33  1  0
  8 34  1  0
  9 35  1  0
 13 36  1  0
 16 37  1  0
 17 38  1  0
 18 39  1  0
 18 40  1  0
 18 41  1  0
 20 42  1  0
 20 43  1  0
 20 44  1  0
 21 45  1  0
 21 46  1  0
 21 47  1  0
 22 48  1  0
 22 49  1  0
 22 50  1  0
 23 51  1  0
 24 52  1  0
 24 53  1  0
 25 54  1  0
 26 55  1  0
 26 56  1  0
 27 57  1  0
 27 58  1  0
 29 59  1  0
 31 60  1  0
 32 61  1  0
A    1
C
A    2
N
A    3
O
A    4
C1
A    5
C2
A    6
C3
A    7
C4
A    8
C5
A    9
C6
A   10
C7
A   11
C8
A   12
C9
A   13
C10
A   14
N11
A   15
C12
A   16
N13
A   17
C14
A   18
C15
A   19
C16
A   20
C17
A   21
C18
A   22
C19
A   23
C20
A   24
C21
A   25
C22
A   26
C23
A   27
C24
A   28
C25
A   29
C26
A   30
N27
A   31
N28
A   32
C29
M  END
