3NB5_R21_A_300
     RDKit          3D

 41 42  0  0  0  0  0  0  0  0999 V2000
   16.0750   14.0200   10.5570 Cl  0  0  0  0  0  0  0  0  0  0  0  0
   13.9200    2.7940   16.7340 O   0  0  0  0  0  0  0  0  0  0  0  0
   17.6320   16.2050   11.7850 O   0  0  0  0  0  0  0  0  0  0  0  0
   18.2210   14.9840   11.8950 C   0  0  0  0  0  0  0  0  0  0  0  0
   19.4460   14.8610   12.5400 C   0  0  0  0  0  0  0  0  0  0  0  0
   20.0590   13.6170   12.6370 C   0  0  0  0  0  0  0  0  0  0  0  0
   19.9430   10.6690   14.4990 O   0  0  0  0  0  0  0  0  0  0  0  0
   15.6480    6.2280   14.7040 C   0  0  0  0  0  0  0  0  0  0  0  0
   15.1720    5.1820   15.4860 C   0  0  0  0  0  0  0  0  0  0  0  0
   16.0280    4.1560   15.8710 C   0  0  0  0  0  0  0  0  0  0  0  0
   15.4180    2.8090   16.8070 S   0  0  0  0  0  0  0  0  0  0  0  0
   16.0170    1.4180   16.2050 N   0  0  0  0  0  0  0  0  0  0  0  0
   17.6050   13.8620   11.3500 C   0  0  0  0  0  0  0  0  0  0  0  0
   18.2190   12.6180   11.4470 C   0  0  0  0  0  0  0  0  0  0  0  0
   19.4470   12.4960   12.0880 C   0  0  0  0  0  0  0  0  0  0  0  0
   20.1550   11.1400   12.1450 C   0  0  0  0  0  0  0  0  0  0  0  0
   19.6700   10.3290   13.3480 C   0  0  0  0  0  0  0  0  0  0  0  0
   18.9540    9.2520   13.0370 N   0  0  0  0  0  0  0  0  0  0  0  0
   18.4060    8.3380   14.0510 C   0  0  0  0  0  0  0  0  0  0  0  0
   17.4780    7.3400   13.3550 C   0  0  0  0  0  0  0  0  0  0  0  0
   16.9790    6.2480   14.3040 C   0  0  0  0  0  0  0  0  0  0  0  0
   17.8380    5.2280   14.6980 C   0  0  0  0  0  0  0  0  0  0  0  0
   17.3620    4.1830   15.4810 C   0  0  0  0  0  0  0  0  0  0  0  0
   15.8550    2.9550   18.2350 O   0  0  0  0  0  0  0  0  0  0  0  0
   17.3875   16.7118   12.5995 H   0  0  0  0  0  0  0  0  0  0  0  0
   19.9306   15.7481   12.9738 H   0  0  0  0  0  0  0  0  0  0  0  0
   21.0282   13.5197   13.1481 H   0  0  0  0  0  0  0  0  0  0  0  0
   14.9709    7.0404   14.4015 H   0  0  0  0  0  0  0  0  0  0  0  0
   14.1180    5.1659   15.8003 H   0  0  0  0  0  0  0  0  0  0  0  0
   16.2851    0.7955   16.9806 H   0  0  0  0  0  0  0  0  0  0  0  0
   15.2998    0.9571   15.6270 H   0  0  0  0  0  0  0  0  0  0  0  0
   17.7330   11.7300   11.0165 H   0  0  0  0  0  0  0  0  0  0  0  0
   19.9404   10.5812   11.2222 H   0  0  0  0  0  0  0  0  0  0  0  0
   21.2373   11.3092   12.2447 H   0  0  0  0  0  0  0  0  0  0  0  0
   18.7755    9.0492   12.0431 H   0  0  0  0  0  0  0  0  0  0  0  0
   19.2267    7.7983   14.5462 H   0  0  0  0  0  0  0  0  0  0  0  0
   17.8470    8.9071   14.8084 H   0  0  0  0  0  0  0  0  0  0  0  0
   16.6098    7.8844   12.9552 H   0  0  0  0  0  0  0  0  0  0  0  0
   18.0514    6.8515   12.5534 H   0  0  0  0  0  0  0  0  0  0  0  0
   18.8938    5.2482   14.3901 H   0  0  0  0  0  0  0  0  0  0  0  0
   18.0418    3.3762   15.7925 H   0  0  0  0  0  0  0  0  0  0  0  0
  1 13  1  0
  2 11  2  0
  3  4  1  0
  4  5  2  0
  4 13  1  0
  5  6  1  0
  6 15  2  0
  7 17  2  0
  8  9  2  0
  8 21  1  0
  9 10  1  0
 10 11  1  0
 10 23  2  0
 11 12  1  0
 11 24  2  0
 13 14  2  0
 14 15  1  0
 15 16  1  0
 16 17  1  0
 17 18  1  0
 18 19  1  0
 19 20  1  0
 20 21  1  0
 21 22  2  0
 22 23  1  0
  3 25  1  0
  5 26  1  0
  6 27  1  0
  8 28  1  0
  9 29  1  0
 12 30  1  0
 12 31  1  0
 14 32  1  0
 16 33  1  0
 16 34  1  0
 18 35  1  0
 19 36  1  0
 19 37  1  0
 20 38  1  0
 20 39  1  0
 22 40  1  0
 23 41  1  0
A    1
CL
A    2
OAA
A    3
OAB
A    4
CAC
A    5
CAD
A    6
CAE
A    7
OAF
A    8
CAG
A    9
CAH
A   10
CAI
A   11
SAJ
A   12
NAK
A   13
CAL
A   14
CAM
A   15
CAN
A   16
CAO
A   17
CAP
A   18
NAQ
A   19
CAR
A   20
CAS
A   21
CAT
A   22
CAU
A   23
CAV
A   24
OAW
M  END
