3NC2_QUZ_A_299
     RDKit          3D

 16 17  0  0  0  0  0  0  0  0999 V2000
   -3.9760    0.6280   18.9430 C   0  0  0  0  0  0  0  0  0  0  0  0
   -2.7800    0.3060   18.2520 C   0  0  0  0  0  0  0  0  0  0  0  0
   -2.2000   -0.9310   18.3540 C   0  0  0  0  0  0  0  0  0  0  0  0
   -2.7990   -1.9420   19.1700 C   0  0  0  0  0  0  0  0  0  0  0  0
   -2.2260   -3.2090   19.2960 N   0  0  0  0  0  0  0  0  0  0  0  0
   -2.8990   -4.0440   20.0940 C   0  0  0  0  0  0  0  0  0  0  0  0
   -4.0860   -3.8070   20.8120 N   0  0  0  0  0  0  0  0  0  0  0  0
   -4.6150   -2.6010   20.6790 C   0  0  0  0  0  0  0  0  0  0  0  0
   -4.0100   -1.5910   19.8590 C   0  0  0  0  0  0  0  0  0  0  0  0
   -4.5860   -0.3080   19.7390 C   0  0  0  0  0  0  0  0  0  0  0  0
   -4.4157    1.6311   18.8403 H   0  0  0  0  0  0  0  0  0  0  0  0
   -2.3057    1.0693   17.6177 H   0  0  0  0  0  0  0  0  0  0  0  0
   -1.2707   -1.1476   17.8067 H   0  0  0  0  0  0  0  0  0  0  0  0
   -2.4678   -5.0499   20.2041 H   0  0  0  0  0  0  0  0  0  0  0  0
   -5.5472   -2.3659   21.2136 H   0  0  0  0  0  0  0  0  0  0  0  0
   -5.5130   -0.0616   20.2774 H   0  0  0  0  0  0  0  0  0  0  0  0
  1  2  2  0
  1 10  1  0
  2  3  1  0
  3  4  2  0
  4  5  1  0
  4  9  1  0
  5  6  2  0
  6  7  1  0
  7  8  2  0
  8  9  1  0
  9 10  2  0
  1 11  1  0
  2 12  1  0
  3 13  1  0
  6 14  1  0
  8 15  1  0
 10 16  1  0
A    1
C01
A    2
C02
A    3
C03
A    4
C04
A    5
N05
A    6
C06
A    7
N07
A    8
C08
A    9
C09
A   10
C10
M  END
