3NF9_CD9_A_220
     RDKit          3D

 36 39  0  0  0  0  0  0  0  0999 V2000
    5.1390  -28.4940   -8.6980 C   0  0  0  0  0  0  0  0  0  0  0  0
    6.2940  -29.1410   -9.1080 C   0  0  0  0  0  0  0  0  0  0  0  0
    7.4010  -28.4150   -9.4720 C   0  0  0  0  0  0  0  0  0  0  0  0
    7.3070  -27.0480   -9.4030 C   0  0  0  0  0  0  0  0  0  0  0  0
    6.1790  -26.3910   -8.9900 C   0  0  0  0  0  0  0  0  0  0  0  0
    5.0650  -27.1140   -8.6320 C   0  0  0  0  0  0  0  0  0  0  0  0
    6.3940  -24.9210   -9.0520 C   0  0  0  0  0  0  0  0  0  0  0  0
    7.8180  -24.8460   -9.5740 C   0  0  0  0  0  0  0  0  0  0  0  0
    8.4210  -23.8110   -9.8150 O   0  0  0  0  0  0  0  0  0  0  0  0
    8.2980  -26.1340   -9.7360 N   0  0  0  0  0  0  0  0  0  0  0  0
    9.6410  -26.5540  -10.0310 C   0  0  0  0  0  0  0  0  0  0  0  0
    9.9640  -26.6670  -11.4910 C   0  0  0  0  0  0  0  0  0  0  0  0
    8.9830  -26.9030  -12.4460 C   0  0  0  0  0  0  0  0  0  0  0  0
    9.2770  -27.0280  -13.8040 C   0  0  0  0  0  0  0  0  0  0  0  0
   10.5930  -26.9000  -14.2130 C   0  0  0  0  0  0  0  0  0  0  0  0
   11.5640  -26.6620  -13.2950 C   0  0  0  0  0  0  0  0  0  0  0  0
   11.2730  -26.5490  -11.9460 C   0  0  0  0  0  0  0  0  0  0  0  0
   12.4060  -26.3260  -11.0540 C   0  0  0  0  0  0  0  0  0  0  0  0
   13.3760  -25.7110  -11.5820 O   0  0  0  0  0  0  0  0  0  0  0  0
   12.2840  -26.8520   -9.8970 O   0  0  0  0  0  0  0  0  0  0  0  0
   12.8130  -26.5520  -13.8620 O   0  0  0  0  0  0  0  0  0  0  0  0
   12.4880  -26.5960  -15.2700 C   0  0  0  0  0  0  0  0  0  0  0  0
   11.1210  -26.9710  -15.5060 O   0  0  0  0  0  0  0  0  0  0  0  0
    6.4570  -30.8750   -9.1990 Cl  0  0  0  0  0  0  0  0  0  0  0  0
    4.2594  -29.0924   -8.4182 H   0  0  0  0  0  0  0  0  0  0  0  0
    8.3255  -28.9092   -9.8053 H   0  0  0  0  0  0  0  0  0  0  0  0
    4.1438  -26.6106   -8.3034 H   0  0  0  0  0  0  0  0  0  0  0  0
    6.3056  -24.4595   -8.0574 H   0  0  0  0  0  0  0  0  0  0  0  0
    5.6599  -24.3858   -9.6721 H   0  0  0  0  0  0  0  0  0  0  0  0
    9.7993  -27.5398   -9.5693 H   0  0  0  0  0  0  0  0  0  0  0  0
   10.3025  -25.7721   -9.6297 H   0  0  0  0  0  0  0  0  0  0  0  0
    7.9366  -26.9946  -12.1196 H   0  0  0  0  0  0  0  0  0  0  0  0
    8.4789  -27.2244  -14.5351 H   0  0  0  0  0  0  0  0  0  0  0  0
   14.0583  -25.2784  -11.0098 H   0  0  0  0  0  0  0  0  0  0  0  0
   13.1450  -27.3288  -15.7613 H   0  0  0  0  0  0  0  0  0  0  0  0
   12.6336  -25.5854  -15.6792 H   0  0  0  0  0  0  0  0  0  0  0  0
 23 22  1  0
 23 15  1  0
 22 21  1  0
 15 14  1  0
 15 16  2  0
 21 16  1  0
 14 13  2  0
 16 17  1  0
 13 12  1  0
 17 12  2  0
 17 18  1  0
 19 18  1  0
 12 11  1  0
 18 20  2  0
 11 10  1  0
  9  8  2  0
 10  8  1  0
 10  4  1  0
  8  7  1  0
  3  4  2  0
  3  2  1  0
  4  5  1  0
 24  2  1  0
  2  1  2  0
  7  5  1  0
  5  6  2  0
  1  6  1  0
  1 25  1  0
  3 26  1  0
  6 27  1  0
  7 28  1  0
  7 29  1  0
 11 30  1  0
 11 31  1  0
 13 32  1  0
 14 33  1  0
 19 34  1  0
 22 35  1  0
 22 36  1  0
A    1
C1
A    2
C2
A    3
C3
A    4
C4
A    5
C5
A    6
C6
A    7
C7
A    8
C8
A    9
O9
A   10
N10
A   11
C11
A   12
C12
A   13
C13
A   14
C14
A   15
C15
A   16
C16
A   17
C17
A   18
C18
A   19
O19
A   20
O20
A   21
O21
A   22
C22
A   23
O23
A   24
CL24
M  END
