3NFB_OAE_A_376
     RDKit          3D

 46 47  0  0  0  0  0  0  0  0999 V2000
   30.9860    8.1270   11.0710 O   0  0  0  0  0  0  0  0  0  0  0  0
   27.7200   11.4510   13.2970 C   0  0  0  0  0  0  0  0  0  0  0  0
   31.8900    8.3850   14.5310 N   0  0  0  0  0  0  0  0  0  0  0  0
   28.6890   11.7630   10.3230 O   0  0  0  0  0  0  0  0  0  0  0  0
   30.0310   10.8630   14.4500 S   0  0  0  0  0  0  0  0  0  0  0  0
   29.1440   12.5520   11.1860 C   0  0  0  0  0  0  0  0  0  0  0  0
   32.4190    5.6480   16.9630 N   0  0  0  0  0  0  0  0  0  0  0  0
   29.0700   13.7910   10.9730 O   0  0  0  0  0  0  0  0  0  0  0  0
   31.7120    7.1510   15.2250 C   0  0  0  0  0  0  0  0  0  0  0  0
   30.4680   10.6740   11.9010 N   0  0  0  0  0  0  0  0  0  0  0  0
   31.0730    6.2500   14.7430 O   0  0  0  0  0  0  0  0  0  0  0  0
   32.2720    7.0690   16.6340 C   0  0  0  0  0  0  0  0  0  0  0  0
   32.6130    7.3230   12.2440 O   0  0  0  0  0  0  0  0  0  0  0  0
   31.3710    7.8900   17.5770 C   0  0  0  0  0  0  0  0  0  0  0  0
   29.1380   11.9650   13.5480 C   0  0  0  0  0  0  0  0  0  0  0  0
   30.1760    7.3500   18.0440 C   0  0  0  0  0  0  0  0  0  0  0  0
   29.3300    8.1010   18.8580 C   0  0  0  0  0  0  0  0  0  0  0  0
   29.6720    9.4020   19.2060 C   0  0  0  0  0  0  0  0  0  0  0  0
   30.8660    9.9480   18.7370 C   0  0  0  0  0  0  0  0  0  0  0  0
   31.7070    9.1940   17.9130 C   0  0  0  0  0  0  0  0  0  0  0  0
   29.9150   12.1080   12.2030 C   0  0  0  0  0  0  0  0  0  0  0  0
   31.0370   10.2160   13.3350 C   0  0  0  0  0  0  0  0  0  0  0  0
   31.0610    8.7710   13.4080 C   0  0  0  0  0  0  0  0  0  0  0  0
   31.6370    8.1260   12.1590 C   0  0  0  0  0  0  0  0  0  0  0  0
   29.0800   13.3100   14.2320 C   0  0  0  0  0  0  0  0  0  0  0  0
   29.9961    8.1285   11.0864 H   0  0  0  0  0  0  0  0  0  0  0  0
   27.2199   11.2697   14.2598 H   0  0  0  0  0  0  0  0  0  0  0  0
   27.1539   12.2011   12.7253 H   0  0  0  0  0  0  0  0  0  0  0  0
   27.7661   10.5124   12.7253 H   0  0  0  0  0  0  0  0  0  0  0  0
   32.6356    9.0248   14.8401 H   0  0  0  0  0  0  0  0  0  0  0  0
   28.2149   10.9409   10.6049 H   0  0  0  0  0  0  0  0  0  0  0  0
   32.4310    5.5320   17.9864 H   0  0  0  0  0  0  0  0  0  0  0  0
   31.6281    5.1203   16.5669 H   0  0  0  0  0  0  0  0  0  0  0  0
   31.2173   10.7043   11.1949 H   0  0  0  0  0  0  0  0  0  0  0  0
   33.2709    7.5170   16.7413 H   0  0  0  0  0  0  0  0  0  0  0  0
   29.8972    6.3223   17.7683 H   0  0  0  0  0  0  0  0  0  0  0  0
   28.3902    7.6632   19.2255 H   0  0  0  0  0  0  0  0  0  0  0  0
   29.0052    9.9971   19.8472 H   0  0  0  0  0  0  0  0  0  0  0  0
   31.1470   10.9743   19.0159 H   0  0  0  0  0  0  0  0  0  0  0  0
   32.6385    9.6360   17.5296 H   0  0  0  0  0  0  0  0  0  0  0  0
   30.7104   12.8622   12.2955 H   0  0  0  0  0  0  0  0  0  0  0  0
   32.0674   10.5605   13.5068 H   0  0  0  0  0  0  0  0  0  0  0  0
   30.0211    8.4290   13.5161 H   0  0  0  0  0  0  0  0  0  0  0  0
   29.0862   13.1673   15.3227 H   0  0  0  0  0  0  0  0  0  0  0  0
   29.9531   13.9100   13.9358 H   0  0  0  0  0  0  0  0  0  0  0  0
   28.1585   13.8326   13.9358 H   0  0  0  0  0  0  0  0  0  0  0  0
 24  1  1  0
 15  2  1  0
  9  3  1  0
  3 23  1  0
  6  4  1  0
  5 15  1  0
  5 22  1  0
 21  6  1  0
  6  8  2  0
  7 12  1  0
 12  9  1  0
  9 11  2  0
 22 10  1  0
 21 10  1  0
 14 12  1  0
 13 24  2  0
 16 14  2  0
 20 14  1  0
 25 15  1  0
 15 21  1  0
 17 16  1  0
 18 17  2  0
 18 19  1  0
 19 20  2  0
 23 22  1  0
 23 24  1  0
  1 26  1  0
  2 27  1  0
  2 28  1  0
  2 29  1  0
  3 30  1  0
  4 31  1  0
  7 32  1  0
  7 33  1  0
 10 34  1  0
 12 35  1  0
 16 36  1  0
 17 37  1  0
 18 38  1  0
 19 39  1  0
 20 40  1  0
 21 41  1  0
 22 42  1  0
 23 43  1  0
 25 44  1  0
 25 45  1  0
 25 46  1  0
A    1
O
A    2
C1
A    3
N1
A    4
O1
A    5
S1
A    6
C2
A    7
N2
A    8
O2
A    9
C3
A   10
N3
A   11
O3
A   12
C4
A   13
O4
A   14
C5
A   15
C6
A   16
C7
A   17
C8
A   18
C9
A   19
C10
A   20
C11
A   21
C12
A   22
C13
A   23
C14
A   24
C15
A   25
C16
M  END
