1R4P_1PS_B_1002
     RDKit          3D

 24 24  0  0  0  0  0  0  0  0999 V2000
   27.0180   29.1730  -16.4740 N   0  0  0  0  0  0  0  0  0  0  0  0
   28.1330   29.5890  -15.7620 C   0  0  0  0  0  0  0  0  0  0  0  0
   29.4140   29.4680  -16.3160 C   0  0  0  0  0  0  0  0  0  0  0  0
   27.1590   28.6400  -17.7380 C   0  0  0  0  0  0  0  0  0  0  0  0
   28.4280   28.5130  -18.3100 C   0  0  0  0  0  0  0  0  0  0  0  0
   29.5570   28.9260  -17.5950 C   0  0  0  0  0  0  0  0  0  0  0  0
   25.6510   29.2930  -15.8740 C   0  0  0  0  0  0  0  0  0  0  0  0
   25.1560   28.0140  -15.2170 C   0  0  0  0  0  0  0  0  0  0  0  0
   25.9580   27.6800  -13.9890 C   0  0  0  0  0  0  0  0  0  0  0  0
   25.6160   26.0720  -13.3170 S   0  0  0  0  0  0  0  0  0  0  0  0
   26.4630   25.9350  -12.1130 O   0  0  0  0  0  0  0  0  0  0  0  0
   25.9890   25.1120  -14.3700 O   0  0  0  0  0  0  0  0  0  0  0  0
   24.1790   26.0580  -13.0300 O   0  0  0  0  0  0  0  0  0  0  0  0
   28.0108   30.0167  -14.7559 H   0  0  0  0  0  0  0  0  0  0  0  0
   30.2979   29.7965  -15.7495 H   0  0  0  0  0  0  0  0  0  0  0  0
   26.2701   28.3138  -18.2978 H   0  0  0  0  0  0  0  0  0  0  0  0
   28.5385   28.0896  -19.3192 H   0  0  0  0  0  0  0  0  0  0  0  0
   30.5577   28.8238  -18.0403 H   0  0  0  0  0  0  0  0  0  0  0  0
   25.6744   30.0873  -15.1134 H   0  0  0  0  0  0  0  0  0  0  0  0
   24.9579   29.5198  -16.6975 H   0  0  0  0  0  0  0  0  0  0  0  0
   24.1017   28.1437  -14.9312 H   0  0  0  0  0  0  0  0  0  0  0  0
   25.2676   27.1901  -15.9372 H   0  0  0  0  0  0  0  0  0  0  0  0
   27.0255   27.7256  -14.2503 H   0  0  0  0  0  0  0  0  0  0  0  0
   25.6785   28.4129  -13.2178 H   0  0  0  0  0  0  0  0  0  0  0  0
  1  2  2  0
  1  4  1  0
  1  7  1  0
  2  3  1  0
  3  6  2  0
  4  5  2  0
  5  6  1  0
  7  8  1  0
  8  9  1  0
  9 10  1  0
 10 11  1  0
 10 12  2  0
 10 13  2  0
  2 14  1  0
  3 15  1  0
  4 16  1  0
  5 17  1  0
  6 18  1  0
  7 19  1  0
  7 20  1  0
  8 21  1  0
  8 22  1  0
  9 23  1  0
  9 24  1  0
M  CHG  2   1   1  11  -1
A    1
N1
A    2
C1
A    3
C2
A    4
C3
A    5
C4
A    6
C5
A    7
C6
A    8
C7
A    9
C8
A   10
S1
A   11
O1
A   12
O2
A   13
O3
M  END
