3NHK_VAP_A_233
     RDKit          3D

 36 37  0  0  0  0  0  0  0  0999 V2000
   -2.5220   -5.9770  -16.4240 C   0  0  0  0  0  0  0  0  0  0  0  0
   -3.2980   -7.0340  -15.9630 C   0  0  0  0  0  0  0  0  0  0  0  0
   -4.3820   -6.7560  -15.1110 C   0  0  0  0  0  0  0  0  0  0  0  0
   -4.6820   -5.4380  -14.7000 C   0  0  0  0  0  0  0  0  0  0  0  0
   -3.8910   -4.4090  -15.1860 C   0  0  0  0  0  0  0  0  0  0  0  0
   -2.8350   -4.6850  -16.0330 C   0  0  0  0  0  0  0  0  0  0  0  0
   -2.9750   -8.4540  -16.3530 C   0  0  0  0  0  0  0  0  0  0  0  0
   -3.7830   -9.4800  -15.8670 C   0  0  0  0  0  0  0  0  0  0  0  0
   -4.8430   -9.1640  -15.0050 C   0  0  0  0  0  0  0  0  0  0  0  0
   -5.1880   -7.8310  -14.6930 N   0  0  0  0  0  0  0  0  0  0  0  0
   -5.5870  -10.0810  -14.5580 O   0  0  0  0  0  0  0  0  0  0  0  0
   -6.3610   -7.6340  -13.8120 C   0  0  0  0  0  0  0  0  0  0  0  0
   -5.7390   -5.2140  -13.7970 O   0  0  0  0  0  0  0  0  0  0  0  0
   -4.1790   -3.1320  -14.7770 O   0  0  0  0  0  0  0  0  0  0  0  0
   -2.0670   -3.6760  -16.5060 O   0  0  0  0  0  0  0  0  0  0  0  0
   -1.8040   -8.8330  -17.2410 C   0  0  0  0  0  0  0  0  0  0  0  0
   -1.1030   -3.8720  -17.5340 C   0  0  0  0  0  0  0  0  0  0  0  0
   -4.6010   -2.0830  -15.6270 C   0  0  0  0  0  0  0  0  0  0  0  0
   -6.7250   -4.1760  -13.7230 C   0  0  0  0  0  0  0  0  0  0  0  0
   -1.6684   -6.1641  -17.0921 H   0  0  0  0  0  0  0  0  0  0  0  0
   -3.5919  -10.5241  -16.1557 H   0  0  0  0  0  0  0  0  0  0  0  0
   -6.0428   -7.6874  -12.7604 H   0  0  0  0  0  0  0  0  0  0  0  0
   -6.8072   -6.6483  -14.0104 H   0  0  0  0  0  0  0  0  0  0  0  0
   -7.1047   -8.4198  -14.0104 H   0  0  0  0  0  0  0  0  0  0  0  0
   -0.9438   -9.1114  -16.6145 H   0  0  0  0  0  0  0  0  0  0  0  0
   -2.0863   -9.6856  -17.8761 H   0  0  0  0  0  0  0  0  0  0  0  0
   -1.5332   -7.9766  -17.8761 H   0  0  0  0  0  0  0  0  0  0  0  0
   -0.1203   -4.0718  -17.0819 H   0  0  0  0  0  0  0  0  0  0  0  0
   -1.4007   -4.7280  -18.1574 H   0  0  0  0  0  0  0  0  0  0  0  0
   -1.0428   -2.9677  -18.1574 H   0  0  0  0  0  0  0  0  0  0  0  0
   -4.9430   -1.2329  -15.0183 H   0  0  0  0  0  0  0  0  0  0  0  0
   -3.7608   -1.7650  -16.2618 H   0  0  0  0  0  0  0  0  0  0  0  0
   -5.4273   -2.4354  -16.2618 H   0  0  0  0  0  0  0  0  0  0  0  0
   -6.9403   -3.9493  -12.6684 H   0  0  0  0  0  0  0  0  0  0  0  0
   -6.3444   -3.2725  -14.2219 H   0  0  0  0  0  0  0  0  0  0  0  0
   -7.6468   -4.5097  -14.2219 H   0  0  0  0  0  0  0  0  0  0  0  0
  1  6  2  0
  1  2  1  0
  7  2  1  0
  2  3  2  0
  3  4  1  0
  3 10  1  0
  5  4  2  0
  4 13  1  0
  6  5  1  0
  5 14  1  0
 15  6  1  0
 16  7  1  0
  7  8  2  0
  8  9  1  0
  9 10  1  0
  9 11  2  0
 10 12  1  0
 13 19  1  0
 18 14  1  0
 17 15  1  0
  1 20  1  0
  8 21  1  0
 12 22  1  0
 12 23  1  0
 12 24  1  0
 16 25  1  0
 16 26  1  0
 16 27  1  0
 17 28  1  0
 17 29  1  0
 17 30  1  0
 18 31  1  0
 18 32  1  0
 18 33  1  0
 19 34  1  0
 19 35  1  0
 19 36  1  0
A    1
C1
A    2
C2
A    3
C3
A    4
C4
A    5
C5
A    6
C6
A    7
C7
A    8
C8
A    9
C9
A   10
N10
A   11
O11
A   12
C12
A   13
O13
A   14
O14
A   15
O15
A   16
C16
A   17
C17
A   18
C18
A   19
C19
M  END
