3NHL_YTR_A_233
     RDKit          3D

 32 33  0  0  0  0  0  0  0  0999 V2000
   21.3210  -15.5150  -12.9100 C   0  0  0  0  0  0  0  0  0  0  0  0
   21.5210  -16.7410  -13.5690 C   0  0  0  0  0  0  0  0  0  0  0  0
   22.7480  -16.9880  -14.3690 C   0  0  0  0  0  0  0  0  0  0  0  0
   23.7080  -15.8950  -14.4560 C   0  0  0  0  0  0  0  0  0  0  0  0
   23.4020  -14.6310  -13.7380 C   0  0  0  0  0  0  0  0  0  0  0  0
   22.2270  -14.4880  -13.0040 C   0  0  0  0  0  0  0  0  0  0  0  0
   20.5300  -17.8500  -13.4620 C   0  0  0  0  0  0  0  0  0  0  0  0
   20.7920  -19.0900  -14.1380 C   0  0  0  0  0  0  0  0  0  0  0  0
   21.9790  -19.2690  -14.9210 C   0  0  0  0  0  0  0  0  0  0  0  0
   22.9560  -18.2400  -15.0400 N   0  0  0  0  0  0  0  0  0  0  0  0
   22.2350  -20.3650  -15.5400 O   0  0  0  0  0  0  0  0  0  0  0  0
   24.1580  -18.5040  -15.8530 C   0  0  0  0  0  0  0  0  0  0  0  0
   19.2870  -17.5980  -12.6250 C   0  0  0  0  0  0  0  0  0  0  0  0
   24.8700  -16.0300  -15.1880 O   0  0  0  0  0  0  0  0  0  0  0  0
   26.1530  -16.2400  -14.5520 C   0  0  0  0  0  0  0  0  0  0  0  0
   24.3590  -13.6450  -13.8880 O   0  0  0  0  0  0  0  0  0  0  0  0
   24.3050  -12.3270  -13.3080 C   0  0  0  0  0  0  0  0  0  0  0  0
   20.4144  -15.3752  -12.3030 H   0  0  0  0  0  0  0  0  0  0  0  0
   22.0217  -13.5367  -12.4913 H   0  0  0  0  0  0  0  0  0  0  0  0
   20.0700  -19.9155  -14.0534 H   0  0  0  0  0  0  0  0  0  0  0  0
   25.0152  -18.6923  -15.1898 H   0  0  0  0  0  0  0  0  0  0  0  0
   23.9850  -19.3856  -16.4878 H   0  0  0  0  0  0  0  0  0  0  0  0
   24.3703  -17.6311  -16.4878 H   0  0  0  0  0  0  0  0  0  0  0  0
   19.5469  -17.6507  -11.5575 H   0  0  0  0  0  0  0  0  0  0  0  0
   18.8856  -16.6002  -12.8558 H   0  0  0  0  0  0  0  0  0  0  0  0
   18.5287  -18.3607  -12.8558 H   0  0  0  0  0  0  0  0  0  0  0  0
   26.0283  -16.2196  -13.4593 H   0  0  0  0  0  0  0  0  0  0  0  0
   26.5578  -17.2164  -14.8567 H   0  0  0  0  0  0  0  0  0  0  0  0
   26.8480  -15.4437  -14.8567 H   0  0  0  0  0  0  0  0  0  0  0  0
   24.3083  -12.4087  -12.2110 H   0  0  0  0  0  0  0  0  0  0  0  0
   25.1801  -11.7463  -13.6351 H   0  0  0  0  0  0  0  0  0  0  0  0
   23.3853  -11.8199  -13.6351 H   0  0  0  0  0  0  0  0  0  0  0  0
  2  1  2  0
  6  1  1  0
  3  2  1  0
  2  7  1  0
 10  3  1  0
  4  3  2  0
 14  4  1  0
  4  5  1  0
 16  5  1  0
  5  6  2  0
  8  7  2  0
  7 13  1  0
  9  8  1  0
 11  9  2  0
 10  9  1  0
 12 10  1  0
 14 15  1  0
 16 17  1  0
  1 18  1  0
  6 19  1  0
  8 20  1  0
 12 21  1  0
 12 22  1  0
 12 23  1  0
 13 24  1  0
 13 25  1  0
 13 26  1  0
 15 27  1  0
 15 28  1  0
 15 29  1  0
 17 30  1  0
 17 31  1  0
 17 32  1  0
A    1
C1
A    2
C2
A    3
C3
A    4
C4
A    5
C5
A    6
C6
A    7
C7
A    8
C8
A    9
C9
A   10
N10
A   11
O11
A   12
C12
A   13
C13
A   14
O14
A   15
C15
A   16
O16
A   17
C17
M  END
