1O2E_ANN_A_401
     RDKit          3D

 19 19  0  0  0  0  0  0  0  0999 V2000
   30.2770   -1.2140   67.8270 C   0  0  0  0  0  0  0  0  0  0  0  0
   29.5250   -0.3910   66.8840 O   0  0  0  0  0  0  0  0  0  0  0  0
   29.8450    0.9180   66.7180 C   0  0  0  0  0  0  0  0  0  0  0  0
   30.8610    1.6420   67.3620 C   0  0  0  0  0  0  0  0  0  0  0  0
   31.0470    3.0090   67.0720 C   0  0  0  0  0  0  0  0  0  0  0  0
   30.2110    3.7010   66.1230 C   0  0  0  0  0  0  0  0  0  0  0  0
   29.2140    2.9230   65.5010 C   0  0  0  0  0  0  0  0  0  0  0  0
   29.0110    1.5640   65.7740 C   0  0  0  0  0  0  0  0  0  0  0  0
   31.2230    4.6950   65.5400 C   0  0  0  0  0  0  0  0  0  0  0  0
   30.8440    5.4700   64.6540 O   0  0  0  0  0  0  0  0  0  0  0  0
   32.4440    4.7180   65.9830 O   0  0  0  0  0  0  0  0  0  0  0  0
   30.0140   -0.9262   68.8556 H   0  0  0  0  0  0  0  0  0  0  0  0
   30.0287   -2.2737   67.6679 H   0  0  0  0  0  0  0  0  0  0  0  0
   31.3548   -1.0621   67.6679 H   0  0  0  0  0  0  0  0  0  0  0  0
   31.5126    1.1420   68.0937 H   0  0  0  0  0  0  0  0  0  0  0  0
   31.8498    3.5613   67.5824 H   0  0  0  0  0  0  0  0  0  0  0  0
   28.5603    3.4088   64.7616 H   0  0  0  0  0  0  0  0  0  0  0  0
   28.2137    1.0060   65.2613 H   0  0  0  0  0  0  0  0  0  0  0  0
   30.4224    6.3320   64.8975 H   0  0  0  0  0  0  0  0  0  0  0  0
  1  2  1  0
  2  3  1  0
  3  4  2  0
  3  8  1  0
  4  5  1  0
  5  6  2  0
  6  7  1  0
  6  9  1  0
  7  8  2  0
  9 10  1  0
  9 11  2  0
  1 12  1  0
  1 13  1  0
  1 14  1  0
  4 15  1  0
  5 16  1  0
  7 17  1  0
  8 18  1  0
 10 19  1  0
A    1
C8
A    2
O3
A    3
C5
A    4
C6
A    5
C7
A    6
C2
A    7
C3
A    8
C4
A    9
C1
A   10
O1
A   11
O2
M  END
