2XXZ_8XQ_A_3001
     RDKit          3D

 21 22  0  0  0  0  0  0  0  0999 V2000
   48.1870   44.4990    6.3330 O   0  0  0  0  0  0  0  0  0  0  0  0
   49.0630   45.7610    4.7360 O   0  0  0  0  0  0  0  0  0  0  0  0
   43.7160   44.4370    1.7110 O   0  0  0  0  0  0  0  0  0  0  0  0
   43.9940   45.0160    6.7060 C   0  0  0  0  0  0  0  0  0  0  0  0
   42.9890   44.8470    5.7710 C   0  0  0  0  0  0  0  0  0  0  0  0
   46.0310   44.5800    2.1230 C   0  0  0  0  0  0  0  0  0  0  0  0
   47.1100   44.7370    3.0140 C   0  0  0  0  0  0  0  0  0  0  0  0
   45.3090   45.0380    6.2360 C   0  0  0  0  0  0  0  0  0  0  0  0
   43.2540   44.7080    4.4790 N   0  0  0  0  0  0  0  0  0  0  0  0
   48.1520   45.0460    5.2130 C   0  0  0  0  0  0  0  0  0  0  0  0
   44.7250   44.5750    2.6150 C   0  0  0  0  0  0  0  0  0  0  0  0
   46.8990   44.8850    4.3570 C   0  0  0  0  0  0  0  0  0  0  0  0
   45.5780   44.8800    4.8780 C   0  0  0  0  0  0  0  0  0  0  0  0
   44.4970   44.7340    3.9950 C   0  0  0  0  0  0  0  0  0  0  0  0
   48.1517   45.0504    7.1545 H   0  0  0  0  0  0  0  0  0  0  0  0
   42.7853   44.3097    2.0236 H   0  0  0  0  0  0  0  0  0  0  0  0
   43.7668   45.1285    7.7764 H   0  0  0  0  0  0  0  0  0  0  0  0
   41.9421   44.8274    6.1079 H   0  0  0  0  0  0  0  0  0  0  0  0
   46.2164   44.4620    1.0452 H   0  0  0  0  0  0  0  0  0  0  0  0
   48.1384   44.7407    2.6238 H   0  0  0  0  0  0  0  0  0  0  0  0
   46.1390   45.1812    6.9436 H   0  0  0  0  0  0  0  0  0  0  0  0
  1 10  1  0
  2 10  2  0
  3 11  1  0
  4  5  2  0
  4  8  1  0
  5  9  1  0
  6  7  1  0
  6 11  2  0
  7 12  2  0
  8 13  2  0
  9 14  2  0
 10 12  1  0
 11 14  1  0
 12 13  1  0
 13 14  1  0
  1 15  1  0
  3 16  1  0
  4 17  1  0
  5 18  1  0
  6 19  1  0
  7 20  1  0
  8 21  1  0
A    1
OAA
A    2
OAB
A    3
OAC
A    4
CAD
A    5
CAE
A    6
CAF
A    7
CAG
A    8
CAH
A    9
NAI
A   10
CAJ
A   11
CAK
A   12
CAL
A   13
CAM
A   14
CAN
M  END
