3NKO_NKO_A_1006
     RDKit          3D

 66 65  0  0  0  0  0  0  0  0999 V2000
   24.1170   38.1910   13.4870 O   0  0  0  0  0  0  0  0  0  0  0  0
   26.1080   38.2290   15.0790 O   0  0  0  0  0  0  0  0  0  0  0  0
   24.5780   37.7000   14.9070 P   0  0  0  0  0  0  0  0  0  0  0  0
   24.4630   36.2550   15.0450 O   0  0  0  0  0  0  0  0  0  0  0  0
   18.4400   37.4430   18.8380 O   0  0  0  0  0  0  0  0  0  0  0  0
   23.8080   38.3360   16.1620 O   0  0  0  0  0  0  0  0  0  0  0  0
   22.5400   37.7490   16.4240 C   0  0  0  0  0  0  0  0  0  0  0  0
   22.2870   37.8080   17.9250 C   0  0  0  0  0  0  0  0  0  0  0  0
   20.9100   37.3190   18.3510 C   0  0  0  0  0  0  0  0  0  0  0  0
   20.1430   38.2650   17.6260 O   0  0  0  0  0  0  0  0  0  0  0  0
   18.8420   38.2390   17.9850 C   0  0  0  0  0  0  0  0  0  0  0  0
   17.9530   39.2260   17.2460 C   0  0  0  0  0  0  0  0  0  0  0  0
   16.6060   38.6000   16.9990 C   0  0  0  0  0  0  0  0  0  0  0  0
   15.7790   39.4740   16.0680 C   0  0  0  0  0  0  0  0  0  0  0  0
   14.4940   38.6980   15.7910 C   0  0  0  0  0  0  0  0  0  0  0  0
   13.3950   38.5470   16.8400 C   0  0  0  0  0  0  0  0  0  0  0  0
   12.5930   37.4810   16.1300 C   0  0  0  0  0  0  0  0  0  0  0  0
   12.3690   37.8280   14.6700 C   0  0  0  0  0  0  0  0  0  0  0  0
   11.7000   36.5980   14.0810 C   0  0  0  0  0  0  0  0  0  0  0  0
   11.6240   36.6440   12.5650 C   0  0  0  0  0  0  0  0  0  0  0  0
   11.0160   35.3300   12.1100 C   0  0  0  0  0  0  0  0  0  0  0  0
   11.0890   35.1190   10.5910 C   0  0  0  0  0  0  0  0  0  0  0  0
   10.4180   36.0850    9.6210 C   0  0  0  0  0  0  0  0  0  0  0  0
   10.7530   35.4930    8.2400 C   0  0  0  0  0  0  0  0  0  0  0  0
   10.1670   36.2370    7.0360 C   0  0  0  0  0  0  0  0  0  0  0  0
    8.6380   36.2730    7.0420 C   0  0  0  0  0  0  0  0  0  0  0  0
   23.2000   36.8820   18.5030 O   0  0  0  0  0  0  0  0  0  0  0  0
   23.4430   38.9089   13.5888 H   0  0  0  0  0  0  0  0  0  0  0  0
   26.3249   38.3040   16.0420 H   0  0  0  0  0  0  0  0  0  0  0  0
   21.7549   38.3065   15.8922 H   0  0  0  0  0  0  0  0  0  0  0  0
   22.5268   36.7049   16.0780 H   0  0  0  0  0  0  0  0  0  0  0  0
   22.3878   38.8583   18.2360 H   0  0  0  0  0  0  0  0  0  0  0  0
   20.7144   36.2859   18.0278 H   0  0  0  0  0  0  0  0  0  0  0  0
   20.7246   37.2696   19.4341 H   0  0  0  0  0  0  0  0  0  0  0  0
   17.8293   40.1345   17.8537 H   0  0  0  0  0  0  0  0  0  0  0  0
   18.4173   39.4890   16.2841 H   0  0  0  0  0  0  0  0  0  0  0  0
   16.7448   37.6104   16.5393 H   0  0  0  0  0  0  0  0  0  0  0  0
   16.0773   38.4997   17.9584 H   0  0  0  0  0  0  0  0  0  0  0  0
   15.5483   40.4350   16.5510 H   0  0  0  0  0  0  0  0  0  0  0  0
   16.3223   39.6977   15.1380 H   0  0  0  0  0  0  0  0  0  0  0  0
   14.0246   39.1811   14.9214 H   0  0  0  0  0  0  0  0  0  0  0  0
   14.8644   37.6666   15.6962 H   0  0  0  0  0  0  0  0  0  0  0  0
   13.7851   38.2023   17.8090 H   0  0  0  0  0  0  0  0  0  0  0  0
   12.8531   39.4639   17.1151 H   0  0  0  0  0  0  0  0  0  0  0  0
   13.1362   36.5264   16.1905 H   0  0  0  0  0  0  0  0  0  0  0  0
   11.6109   37.4068   16.6199 H   0  0  0  0  0  0  0  0  0  0  0  0
   11.7155   38.7078   14.5760 H   0  0  0  0  0  0  0  0  0  0  0  0
   13.3066   38.0802   14.1530 H   0  0  0  0  0  0  0  0  0  0  0  0
   12.2745   35.7082   14.3781 H   0  0  0  0  0  0  0  0  0  0  0  0
   10.6699   36.5629   14.4653 H   0  0  0  0  0  0  0  0  0  0  0  0
   10.9908   37.4842   12.2440 H   0  0  0  0  0  0  0  0  0  0  0  0
   12.6227   36.7866   12.1265 H   0  0  0  0  0  0  0  0  0  0  0  0
   11.5547   34.5072   12.6028 H   0  0  0  0  0  0  0  0  0  0  0  0
    9.9510   35.3523   12.3843 H   0  0  0  0  0  0  0  0  0  0  0  0
   12.1575   35.1086   10.3298 H   0  0  0  0  0  0  0  0  0  0  0  0
   10.5041   34.1980   10.4511 H   0  0  0  0  0  0  0  0  0  0  0  0
    9.3305   36.1142    9.7836 H   0  0  0  0  0  0  0  0  0  0  0  0
   10.7642   37.1224    9.7393 H   0  0  0  0  0  0  0  0  0  0  0  0
   11.8477   35.4860    8.1323 H   0  0  0  0  0  0  0  0  0  0  0  0
   10.2956   34.4927    8.2247 H   0  0  0  0  0  0  0  0  0  0  0  0
   10.5420   37.2711    7.0465 H   0  0  0  0  0  0  0  0  0  0  0  0
   10.4798   35.6959    6.1308 H   0  0  0  0  0  0  0  0  0  0  0  0
    8.2755   36.2815    8.0805 H   0  0  0  0  0  0  0  0  0  0  0  0
    8.2905   37.1796    6.5249 H   0  0  0  0  0  0  0  0  0  0  0  0
    8.2483   35.3838    6.5249 H   0  0  0  0  0  0  0  0  0  0  0  0
   23.1455   36.9372   19.4900 H   0  0  0  0  0  0  0  0  0  0  0  0
  1  3  1  0
  2  3  1  0
  3  4  2  0
  3  6  1  0
  5 11  2  0
  6  7  1  0
  7  8  1  0
  8  9  1  0
  8 27  1  0
  9 10  1  0
 10 11  1  0
 11 12  1  0
 12 13  1  0
 13 14  1  0
 14 15  1  0
 15 16  1  0
 16 17  1  0
 17 18  1  0
 18 19  1  0
 19 20  1  0
 20 21  1  0
 21 22  1  0
 22 23  1  0
 23 24  1  0
 24 25  1  0
 25 26  1  0
  1 28  1  0
  2 29  1  0
  7 30  1  0
  7 31  1  0
  8 32  1  0
  9 33  1  0
  9 34  1  0
 12 35  1  0
 12 36  1  0
 13 37  1  0
 13 38  1  0
 14 39  1  0
 14 40  1  0
 15 41  1  0
 15 42  1  0
 16 43  1  0
 16 44  1  0
 17 45  1  0
 17 46  1  0
 18 47  1  0
 18 48  1  0
 19 49  1  0
 19 50  1  0
 20 51  1  0
 20 52  1  0
 21 53  1  0
 21 54  1  0
 22 55  1  0
 22 56  1  0
 23 57  1  0
 23 58  1  0
 24 59  1  0
 24 60  1  0
 25 61  1  0
 25 62  1  0
 26 63  1  0
 26 64  1  0
 26 65  1  0
 27 66  1  0
A    1
OAA
A    2
OAB
A    3
PAC
A    4
OAD
A    5
OAE
A    6
OAF
A    7
CAG
A    8
CAH
A    9
CAI
A   10
OAJ
A   11
CAK
A   12
CAL
A   13
CAM
A   14
CAN
A   15
CAO
A   16
CAP
A   17
CAQ
A   18
CAR
A   19
CAS
A   20
CAT
A   21
CAU
A   22
CAV
A   23
CAW
A   24
CAX
A   25
CAY
A   26
CAZ
A   27
OBA
M  END
