3NLD_JSS_A_800
     RDKit          3D

 56 58  0  0  0  0  0  0  0  0999 V2000
   12.6640   14.2830   34.7870 C   0  0  0  0  0  0  0  0  0  0  0  0
   11.2680   14.0980   34.8740 O   0  0  0  0  0  0  0  0  0  0  0  0
   13.2640   13.3890   35.8640 C   0  0  0  0  0  0  0  0  0  0  0  0
   14.2370   14.0830   36.6910 N   0  0  0  0  0  0  0  0  0  0  0  0
   13.8080   14.8390   37.8490 C   0  0  0  0  0  0  0  0  0  0  0  0
   14.6550   14.5070   39.0660 C   0  0  0  0  0  0  0  0  0  0  0  0
    8.2450   15.7780   34.4880 N   0  0  0  0  0  0  0  0  0  0  0  0
   15.8500   15.4190   39.1560 C   0  0  0  0  0  0  0  0  0  0  0  0
   15.6560   16.7980   39.2050 C   0  0  0  0  0  0  0  0  0  0  0  0
   16.7610   17.6490   39.2840 C   0  0  0  0  0  0  0  0  0  0  0  0
   16.5480   18.9840   39.3180 F   0  0  0  0  0  0  0  0  0  0  0  0
   18.0620   17.1190   39.3250 C   0  0  0  0  0  0  0  0  0  0  0  0
   18.2540   15.7390   39.2830 C   0  0  0  0  0  0  0  0  0  0  0  0
   17.1440   14.8910   39.2000 C   0  0  0  0  0  0  0  0  0  0  0  0
    6.9060   12.4580   32.7300 N   0  0  0  0  0  0  0  0  0  0  0  0
    9.5310   15.7980   35.1590 C   0  0  0  0  0  0  0  0  0  0  0  0
    8.2570   12.3490   32.5660 C   0  0  0  0  0  0  0  0  0  0  0  0
   10.4720   15.0680   34.1930 C   0  0  0  0  0  0  0  0  0  0  0  0
    8.7750   11.7030   31.4480 C   0  0  0  0  0  0  0  0  0  0  0  0
    9.5760   14.3870   33.1750 C   0  0  0  0  0  0  0  0  0  0  0  0
    7.8980   11.1740   30.5060 C   0  0  0  0  0  0  0  0  0  0  0  0
    8.3420   15.2740   33.1270 C   0  0  0  0  0  0  0  0  0  0  0  0
    6.4940   11.2830   30.6940 C   0  0  0  0  0  0  0  0  0  0  0  0
    6.0330   11.9420   31.8280 C   0  0  0  0  0  0  0  0  0  0  0  0
    4.7090   12.0920   32.0470 N   0  0  0  0  0  0  0  0  0  0  0  0
    9.1990   12.9530   33.5930 C   0  0  0  0  0  0  0  0  0  0  0  0
    8.4810   10.4680   29.3150 C   0  0  0  0  0  0  0  0  0  0  0  0
   13.0295   13.9850   33.7932 H   0  0  0  0  0  0  0  0  0  0  0  0
   12.9444   15.3369   34.9304 H   0  0  0  0  0  0  0  0  0  0  0  0
   12.4522   13.0216   36.5090 H   0  0  0  0  0  0  0  0  0  0  0  0
   13.7864   12.5638   35.3579 H   0  0  0  0  0  0  0  0  0  0  0  0
   14.8975   13.3699   37.0317 H   0  0  0  0  0  0  0  0  0  0  0  0
   13.8994   15.9132   37.6303 H   0  0  0  0  0  0  0  0  0  0  0  0
   12.7629   14.5758   38.0694 H   0  0  0  0  0  0  0  0  0  0  0  0
   14.0436   14.6244   39.9729 H   0  0  0  0  0  0  0  0  0  0  0  0
   15.0111   13.4704   38.9733 H   0  0  0  0  0  0  0  0  0  0  0  0
    7.6027   15.1738   35.0203 H   0  0  0  0  0  0  0  0  0  0  0  0
   14.6381   17.2143   39.1816 H   0  0  0  0  0  0  0  0  0  0  0  0
   18.9287   17.7932   39.3902 H   0  0  0  0  0  0  0  0  0  0  0  0
   19.2705   15.3197   39.3149 H   0  0  0  0  0  0  0  0  0  0  0  0
   17.2905   13.8012   39.1691 H   0  0  0  0  0  0  0  0  0  0  0  0
    9.8681   16.8318   35.3251 H   0  0  0  0  0  0  0  0  0  0  0  0
    9.4956   15.3239   36.1509 H   0  0  0  0  0  0  0  0  0  0  0  0
   11.1716   15.7736   33.7211 H   0  0  0  0  0  0  0  0  0  0  0  0
    9.8626   11.6117   31.3106 H   0  0  0  0  0  0  0  0  0  0  0  0
   10.0746   14.2786   32.2005 H   0  0  0  0  0  0  0  0  0  0  0  0
    7.4481   14.6928   32.8565 H   0  0  0  0  0  0  0  0  0  0  0  0
    8.4127   16.0728   32.3741 H   0  0  0  0  0  0  0  0  0  0  0  0
    5.7911   10.8577   29.9625 H   0  0  0  0  0  0  0  0  0  0  0  0
    4.3478   12.1329   33.0107 H   0  0  0  0  0  0  0  0  0  0  0  0
    4.0603   12.1655   31.2503 H   0  0  0  0  0  0  0  0  0  0  0  0
    8.7026   12.9772   34.5743 H   0  0  0  0  0  0  0  0  0  0  0  0
   10.1108   12.3407   33.6541 H   0  0  0  0  0  0  0  0  0  0  0  0
    9.1468    9.6617   29.6564 H   0  0  0  0  0  0  0  0  0  0  0  0
    7.6690   10.0408   28.7083 H   0  0  0  0  0  0  0  0  0  0  0  0
    9.0541   11.1846   28.7083 H   0  0  0  0  0  0  0  0  0  0  0  0
  2  1  1  0
  3  1  1  0
  2 18  1  0
  4  3  1  0
  5  4  1  0
  6  5  1  0
  8  6  1  0
 16  7  1  0
  7 22  1  0
 14  8  1  0
  8  9  2  0
 10  9  1  0
 12 10  2  0
 10 11  1  0
 13 12  1  0
 13 14  2  0
 15 17  2  0
 15 24  1  0
 16 18  1  0
 26 17  1  0
 17 19  1  0
 18 20  1  0
 19 21  2  0
 22 20  1  0
 26 20  1  0
 23 21  1  0
 21 27  1  0
 24 23  2  0
 25 24  1  0
  1 28  1  0
  1 29  1  0
  3 30  1  0
  3 31  1  0
  4 32  1  0
  5 33  1  0
  5 34  1  0
  6 35  1  0
  6 36  1  0
  7 37  1  0
  9 38  1  0
 12 39  1  0
 13 40  1  0
 14 41  1  0
 16 42  1  0
 16 43  1  0
 18 44  1  0
 19 45  1  0
 20 46  1  0
 22 47  1  0
 22 48  1  0
 23 49  1  0
 25 50  1  0
 25 51  1  0
 26 52  1  0
 26 53  1  0
 27 54  1  0
 27 55  1  0
 27 56  1  0
A    1
C1
A    2
O1
A    3
C2
A    4
N2
A    5
C3
A    6
C4
A    7
N1'
A    8
C11
A    9
C12
A   10
C13
A   11
F13
A   12
C14
A   13
C15
A   14
C16
A   15
N1A
A   16
C2'
A   17
C2A
A   18
C3'
A   19
C3A
A   20
C4'
A   21
C4A
A   22
C5'
A   23
C5A
A   24
C6A
A   25
N6A
A   26
C7A
A   27
C8A
M  END
