3NNU_EDB_A_355
     RDKit          3D

 49 52  0  0  0  0  0  0  0  0999 V2000
   18.6190   12.3390   29.4570 C   0  0  0  0  0  0  0  0  0  0  0  0
   19.3070   11.3800   30.2120 C   0  0  0  0  0  0  0  0  0  0  0  0
   18.6330   10.5730   31.1380 C   0  0  0  0  0  0  0  0  0  0  0  0
   17.2570   10.7300   31.2760 C   0  0  0  0  0  0  0  0  0  0  0  0
   16.5780   11.6840   30.5160 C   0  0  0  0  0  0  0  0  0  0  0  0
   17.2150   12.4790   29.5820 C   0  0  0  0  0  0  0  0  0  0  0  0
   15.9740   15.6040   23.7850 C   0  0  0  0  0  0  0  0  0  0  0  0
   16.0910   14.5890   24.7260 C   0  0  0  0  0  0  0  0  0  0  0  0
   15.8340   15.2430   25.9330 C   0  0  0  0  0  0  0  0  0  0  0  0
   15.5810   16.5590   25.6530 N   0  0  0  0  0  0  0  0  0  0  0  0
   15.6540   16.8170   24.2850 N   0  0  0  0  0  0  0  0  0  0  0  0
   15.3330   17.5750   26.5150 C   0  0  0  0  0  0  0  0  0  0  0  0
   14.0000   18.5760   26.2800 C   0  0  0  0  0  0  0  0  0  0  0  0
   14.1300   19.6350   27.1710 C   0  0  0  0  0  0  0  0  0  0  0  0
   14.8570   19.7610   28.3590 C   0  0  0  0  0  0  0  0  0  0  0  0
   15.8260   18.7980   28.6240 C   0  0  0  0  0  0  0  0  0  0  0  0
   16.0380   17.7520   27.7210 C   0  0  0  0  0  0  0  0  0  0  0  0
   15.8350   14.8090   27.2280 N   0  0  0  0  0  0  0  0  0  0  0  0
   16.5820   13.7780   27.6300 C   0  0  0  0  0  0  0  0  0  0  0  0
   17.3030   13.1630   26.8620 O   0  0  0  0  0  0  0  0  0  0  0  0
   16.4990   13.4340   28.9100 N   0  0  0  0  0  0  0  0  0  0  0  0
   16.2240   15.5020   19.8010 C   0  0  0  0  0  0  0  0  0  0  0  0
   15.9340   16.6140   21.1010 S   0  0  0  0  0  0  0  0  0  0  0  0
   16.1110   15.3630   22.3120 C   0  0  0  0  0  0  0  0  0  0  0  0
   16.3960   14.1160   21.7700 C   0  0  0  0  0  0  0  0  0  0  0  0
   16.4460   14.2320   20.3950 C   0  0  0  0  0  0  0  0  0  0  0  0
   13.0600   20.6610   26.8480 C   0  0  0  0  0  0  0  0  0  0  0  0
   13.6560   21.9340   26.2860 C   0  0  0  0  0  0  0  0  0  0  0  0
   13.2710   23.0280   26.6720 O   0  0  0  0  0  0  0  0  0  0  0  0
   14.5920   21.7900   25.3630 N   0  0  0  0  0  0  0  0  0  0  0  0
   14.8210   11.8790   30.6730 Cl  0  0  0  0  0  0  0  0  0  0  0  0
   16.2990    9.7360   32.4200 Cl  0  0  0  0  0  0  0  0  0  0  0  0
   19.1729   12.9876   28.7624 H   0  0  0  0  0  0  0  0  0  0  0  0
   20.3918   11.2589   30.0758 H   0  0  0  0  0  0  0  0  0  0  0  0
   19.1785    9.8328   31.7417 H   0  0  0  0  0  0  0  0  0  0  0  0
   16.3284   13.5277   24.5607 H   0  0  0  0  0  0  0  0  0  0  0  0
   15.5028   17.7044   23.7844 H   0  0  0  0  0  0  0  0  0  0  0  0
   13.1831   18.4217   25.5597 H   0  0  0  0  0  0  0  0  0  0  0  0
   14.6700   20.5899   29.0575 H   0  0  0  0  0  0  0  0  0  0  0  0
   16.4254   18.8598   29.5443 H   0  0  0  0  0  0  0  0  0  0  0  0
   16.8129   17.0125   27.9711 H   0  0  0  0  0  0  0  0  0  0  0  0
   15.8069   13.9522   29.4697 H   0  0  0  0  0  0  0  0  0  0  0  0
   16.2339   15.7356   18.7261 H   0  0  0  0  0  0  0  0  0  0  0  0
   16.5554   13.1897   22.3415 H   0  0  0  0  0  0  0  0  0  0  0  0
   16.6550   13.3523   19.7685 H   0  0  0  0  0  0  0  0  0  0  0  0
   12.3686   20.2337   26.1068 H   0  0  0  0  0  0  0  0  0  0  0  0
   12.5329   20.9118   27.7804 H   0  0  0  0  0  0  0  0  0  0  0  0
   15.5719   21.6393   25.6423 H   0  0  0  0  0  0  0  0  0  0  0  0
   14.3412   21.8286   24.3648 H   0  0  0  0  0  0  0  0  0  0  0  0
  1  2  2  0
  1  6  1  0
  2  3  1  0
  3  4  2  0
  4  5  1  0
  4 32  1  0
  5  6  2  0
  5 31  1  0
  6 21  1  0
  7  8  2  0
  7 11  1  0
  7 24  1  0
  8  9  1  0
  9 10  1  0
  9 18  2  0
 10 11  1  0
 10 12  1  0
 12 13  2  0
 12 17  1  0
 13 14  1  0
 14 15  2  0
 14 27  1  0
 15 16  1  0
 16 17  2  0
 18 19  1  0
 19 20  2  0
 19 21  1  0
 22 23  1  0
 22 26  2  0
 23 24  1  0
 24 25  2  0
 25 26  1  0
 27 28  1  0
 28 29  2  0
 28 30  1  0
  1 33  1  0
  2 34  1  0
  3 35  1  0
  8 36  1  0
 11 37  1  0
 13 38  1  0
 15 39  1  0
 16 40  1  0
 17 41  1  0
 21 42  1  0
 22 43  1  0
 25 44  1  0
 26 45  1  0
 27 46  1  0
 27 47  1  0
 30 48  1  0
 30 49  1  0
A    1
C1
A    2
C2
A    3
C3
A    4
C4
A    5
C5
A    6
C6
A    7
C13
A    8
C14
A    9
C15
A   10
N16
A   11
N17
A   12
C23
A   13
C24
A   14
C25
A   15
C26
A   16
C27
A   17
C28
A   18
N36
A   19
C38
A   20
O40
A   21
N42
A   22
C45
A   23
S46
A   24
C47
A   25
C48
A   26
C49
A   27
C56
A   28
C58
A   29
O60
A   30
N62
A   31
CL64
A   32
CL66
M  END
