3NRM_NRM_A_1
     RDKit          3D

 32 35  0  0  0  0  0  0  0  0999 V2000
    6.4020   29.3950    8.9170 C   0  0  0  0  0  0  0  0  0  0  0  0
    2.4980   33.5140    6.4530 N   0  0  0  0  0  0  0  0  0  0  0  0
    2.2010   33.7390    3.6730 S   0  0  0  0  0  0  0  0  0  0  0  0
    5.3720   30.5230    6.1490 C   0  0  0  0  0  0  0  0  0  0  0  0
    3.7520   32.1270    8.8740 N   0  0  0  0  0  0  0  0  0  0  0  0
    4.8580   31.1130    4.9800 C   0  0  0  0  0  0  0  0  0  0  0  0
    4.9360   30.9400    7.3780 N   0  0  0  0  0  0  0  0  0  0  0  0
    7.5540   27.7000    9.7990 N   0  0  0  0  0  0  0  0  0  0  0  0
    3.4410   32.5050    6.3770 C   0  0  0  0  0  0  0  0  0  0  0  0
    8.3230   28.2510    8.8450 N   0  0  0  0  0  0  0  0  0  0  0  0
    3.9900   31.8990    7.5240 C   0  0  0  0  0  0  0  0  0  0  0  0
    1.3140   34.8800    3.0740 N   0  0  0  0  0  0  0  0  0  0  0  0
    5.3470   30.4430    8.6050 C   0  0  0  0  0  0  0  0  0  0  0  0
    3.9160   32.0750    5.1300 N   0  0  0  0  0  0  0  0  0  0  0  0
    7.6390   29.2720    8.2950 C   0  0  0  0  0  0  0  0  0  0  0  0
    4.5770   31.2260    9.4880 C   0  0  0  0  0  0  0  0  0  0  0  0
    6.3780   28.3720    9.8550 C   0  0  0  0  0  0  0  0  0  0  0  0
    1.9870   34.1420    5.3480 C   0  0  0  0  0  0  0  0  0  0  0  0
    1.1470   35.2420    5.3560 C   0  0  0  0  0  0  0  0  0  0  0  0
   -0.1190   36.8070    3.7680 C   0  0  0  0  0  0  0  0  0  0  0  0
    0.7800   35.6500    4.0720 C   0  0  0  0  0  0  0  0  0  0  0  0
    2.1648   33.8065    7.3827 H   0  0  0  0  0  0  0  0  0  0  0  0
    6.1256   29.7251    6.0755 H   0  0  0  0  0  0  0  0  0  0  0  0
    5.2072   30.8053    3.9833 H   0  0  0  0  0  0  0  0  0  0  0  0
    7.8152   26.8984   10.3908 H   0  0  0  0  0  0  0  0  0  0  0  0
    8.0036   29.9116    7.4777 H   0  0  0  0  0  0  0  0  0  0  0  0
    4.6349   31.1210   10.5814 H   0  0  0  0  0  0  0  0  0  0  0  0
    5.5419   28.1440   10.5325 H   0  0  0  0  0  0  0  0  0  0  0  0
    0.8053   35.7410    6.2748 H   0  0  0  0  0  0  0  0  0  0  0  0
   -0.4685   37.2569    4.7090 H   0  0  0  0  0  0  0  0  0  0  0  0
    0.4346   37.5584    3.1858 H   0  0  0  0  0  0  0  0  0  0  0  0
   -0.9839   36.4562    3.1858 H   0  0  0  0  0  0  0  0  0  0  0  0
 15  1  1  0
 13  1  1  0
  1 17  2  0
 18  2  1  0
  9  2  1  0
 12  3  1  0
  3 18  1  0
  6  4  2  0
  4  7  1  0
 11  5  2  0
  5 16  1  0
  6 14  1  0
  7 11  1  0
  7 13  1  0
 10  8  1  0
  8 17  1  0
 14  9  2  0
  9 11  1  0
 15 10  2  0
 12 21  2  0
 13 16  2  0
 18 19  2  0
 21 19  1  0
 20 21  1  0
  2 22  1  0
  4 23  1  0
  6 24  1  0
  8 25  1  0
 15 26  1  0
 16 27  1  0
 17 28  1  0
 19 29  1  0
 20 30  1  0
 20 31  1  0
 20 32  1  0
A    1
C1
A    2
N1
A    3
S1
A    4
C2
A    5
N2
A    6
C3
A    7
N3
A    8
N4
A    9
C5
A   10
N5
A   11
C6
A   12
N6
A   13
C7
A   14
N7
A   15
C8
A   16
C9
A   17
C10
A   18
C11
A   19
C12
A   20
C13
A   21
C14
M  END
