3NTB_T1N_A_3
     RDKit          3D

 31 32  0  0  0  0  0  0  0  0999 V2000
  -58.4530   41.8110  -10.8970 C   0  0  0  0  0  0  0  0  0  0  0  0
  -57.1930   46.0170  -19.2800 C   0  0  0  0  0  0  0  0  0  0  0  0
  -56.5820   48.1780  -17.4780 O   0  0  0  0  0  0  0  0  0  0  0  0
  -58.6950   48.8300  -17.6920 O   0  0  0  0  0  0  0  0  0  0  0  0
  -60.9550   44.0420  -13.3500 C   0  0  0  0  0  0  0  0  0  0  0  0
  -57.1600   44.9900  -16.4980 C   0  0  0  0  0  0  0  0  0  0  0  0
  -60.8290   44.8100  -14.5030 C   0  0  0  0  0  0  0  0  0  0  0  0
  -57.2810   44.2110  -15.3460 C   0  0  0  0  0  0  0  0  0  0  0  0
  -58.6320   43.3880  -13.5220 C   0  0  0  0  0  0  0  0  0  0  0  0
  -59.4820   45.6340  -16.3150 C   0  0  0  0  0  0  0  0  0  0  0  0
  -60.0590   42.3830  -11.4070 S   0  0  0  0  0  0  0  0  0  0  0  0
  -57.7800   47.9830  -17.7800 C   0  0  0  0  0  0  0  0  0  0  0  0
  -59.8600   43.3340  -12.8610 C   0  0  0  0  0  0  0  0  0  0  0  0
  -58.2650   45.6910  -16.9870 C   0  0  0  0  0  0  0  0  0  0  0  0
  -58.5030   44.1530  -14.6770 C   0  0  0  0  0  0  0  0  0  0  0  0
  -59.6050   44.8630  -15.1630 C   0  0  0  0  0  0  0  0  0  0  0  0
  -58.1820   46.5690  -18.2400 C   0  0  0  0  0  0  0  0  0  0  0  0
  -58.4021   41.7929   -9.7983 H   0  0  0  0  0  0  0  0  0  0  0  0
  -58.2834   40.7972  -11.2887 H   0  0  0  0  0  0  0  0  0  0  0  0
  -57.6807   42.4894  -11.2887 H   0  0  0  0  0  0  0  0  0  0  0  0
  -56.3447   45.5435  -18.7641 H   0  0  0  0  0  0  0  0  0  0  0  0
  -57.7011   45.2720  -19.9099 H   0  0  0  0  0  0  0  0  0  0  0  0
  -56.8257   46.8406  -19.9099 H   0  0  0  0  0  0  0  0  0  0  0  0
  -56.3122   48.2219  -16.5265 H   0  0  0  0  0  0  0  0  0  0  0  0
  -61.9200   43.9939  -12.8243 H   0  0  0  0  0  0  0  0  0  0  0  0
  -56.1942   45.0519  -17.0209 H   0  0  0  0  0  0  0  0  0  0  0  0
  -61.6915   45.3719  -14.8906 H   0  0  0  0  0  0  0  0  0  0  0  0
  -56.4165   43.6456  -14.9678 H   0  0  0  0  0  0  0  0  0  0  0  0
  -57.7696   42.8280  -13.1314 H   0  0  0  0  0  0  0  0  0  0  0  0
  -60.3468   46.1983  -16.6942 H   0  0  0  0  0  0  0  0  0  0  0  0
  -59.1588   46.5851  -18.7457 H   0  0  0  0  0  0  0  0  0  0  0  0
 11  1  1  0
  2 17  1  0
 12  3  1  0
  4 12  2  0
  7  5  2  0
  5 13  1  0
 14  6  2  0
  6  8  1  0
 16  7  1  0
  8 15  2  0
 15  9  1  0
  9 13  2  0
 14 10  1  0
 10 16  2  0
 13 11  1  0
 17 12  1  0
 17 14  1  0
 16 15  1  0
  1 18  1  0
  1 19  1  0
  1 20  1  0
  2 21  1  0
  2 22  1  0
  2 23  1  0
  3 24  1  0
  5 25  1  0
  6 26  1  0
  7 27  1  0
  8 28  1  0
  9 29  1  0
 10 30  1  0
 17 31  1  0
A    1
CAA
A    2
CAB
A    3
OAC
A    4
OAD
A    5
CAE
A    6
CAF
A    7
CAG
A    8
CAH
A    9
CAI
A   10
CAJ
A   11
SAK
A   12
CAL
A   13
CAM
A   14
CAN
A   15
CAO
A   16
CAP
A   17
CAQ
M  END
