3NTY_5P3_A_350
     RDKit          3D

 26 27  0  0  0  0  0  0  0  0999 V2000
    5.9630   -4.9000   17.7230 C   0  0  0  0  0  0  0  0  0  0  0  0
    6.0070   -4.8580   16.3260 C   0  0  0  0  0  0  0  0  0  0  0  0
    5.4260   -5.8470   15.5460 C   0  0  0  0  0  0  0  0  0  0  0  0
    4.7670   -6.8890   16.2250 C   0  0  0  0  0  0  0  0  0  0  0  0
    4.6880   -6.9150   17.6120 C   0  0  0  0  0  0  0  0  0  0  0  0
    5.2830   -5.9330   18.3790 C   0  0  0  0  0  0  0  0  0  0  0  0
    6.5730   -3.7760   18.5770 C   0  0  0  0  0  0  0  0  0  0  0  0
    7.2170   -2.8320   18.0120 O   0  0  0  0  0  0  0  0  0  0  0  0
    6.3090   -3.8370   19.8020 O   0  0  0  0  0  0  0  0  0  0  0  0
    5.1910   -5.9540   19.7500 O   0  0  0  0  0  0  0  0  0  0  0  0
    3.8570   -8.2170   18.3900 Cl  0  0  0  0  0  0  0  0  0  0  0  0
    5.5420   -5.9470   14.1290 C   0  0  0  0  0  0  0  0  0  0  0  0
    4.5560   -6.5420   13.2830 C   0  0  0  0  0  0  0  0  0  0  0  0
    4.8280   -6.6730   11.9310 C   0  0  0  0  0  0  0  0  0  0  0  0
    6.0370   -6.2760   11.3970 C   0  0  0  0  0  0  0  0  0  0  0  0
    7.0390   -5.7780   12.2230 C   0  0  0  0  0  0  0  0  0  0  0  0
    6.7490   -5.5800   13.5670 C   0  0  0  0  0  0  0  0  0  0  0  0
    6.5164   -4.0175   15.8320 H   0  0  0  0  0  0  0  0  0  0  0  0
    4.3042   -7.7008   15.6447 H   0  0  0  0  0  0  0  0  0  0  0  0
    7.0205   -3.6726   20.4705 H   0  0  0  0  0  0  0  0  0  0  0  0
    5.9918   -5.7712   20.3027 H   0  0  0  0  0  0  0  0  0  0  0  0
    3.5984   -6.8897   13.6978 H   0  0  0  0  0  0  0  0  0  0  0  0
    4.0629   -7.1032   11.2680 H   0  0  0  0  0  0  0  0  0  0  0  0
    6.2089   -6.3538   10.3133 H   0  0  0  0  0  0  0  0  0  0  0  0
    8.0368   -5.5466   11.8218 H   0  0  0  0  0  0  0  0  0  0  0  0
    7.5104   -5.1127   14.2087 H   0  0  0  0  0  0  0  0  0  0  0  0
  2  1  2  0
  1  6  1  0
  1  7  1  0
  3  2  1  0
 12  3  1  0
  3  4  2  0
  4  5  1  0
  5  6  2  0
  5 11  1  0
  6 10  1  0
  8  7  2  0
  7  9  1  0
 13 12  2  0
 17 12  1  0
 14 13  1  0
 15 14  2  0
 15 16  1  0
 16 17  2  0
  2 18  1  0
  4 19  1  0
  9 20  1  0
 10 21  1  0
 13 22  1  0
 14 23  1  0
 15 24  1  0
 16 25  1  0
 17 26  1  0
A    1
C1
A    2
C2
A    3
C3
A    4
C4
A    5
C5
A    6
C6
A    7
C7
A    8
O8
A    9
O9
A   10
O10
A   11
CL11
A   12
C12
A   13
C13
A   14
C14
A   15
C15
A   16
C16
A   17
C17
M  END
