3NUP_3NU_A_900
     RDKit          3D

 46 48  0  0  0  0  0  0  0  0999 V2000
   24.6160   35.5390   -5.6230 C   0  0  0  0  0  0  0  0  0  0  0  0
   24.7960   36.4960   -3.6670 N   0  0  0  0  0  0  0  0  0  0  0  0
   25.2580   35.4700   -4.3870 C   0  0  0  0  0  0  0  0  0  0  0  0
   23.8850   37.2560   -4.3300 N   0  0  0  0  0  0  0  0  0  0  0  0
   23.7720   36.6820   -5.5130 C   0  0  0  0  0  0  0  0  0  0  0  0
   25.1850   32.8430   -8.8330 N   0  0  0  0  0  0  0  0  0  0  0  0
   24.4460   33.9230   -8.9470 C   0  0  0  0  0  0  0  0  0  0  0  0
   24.2280   34.8310   -7.9720 N   0  0  0  0  0  0  0  0  0  0  0  0
   24.8370   34.5630   -6.7520 C   0  0  0  0  0  0  0  0  0  0  0  0
   23.8970   34.0630  -10.1950 N   0  0  0  0  0  0  0  0  0  0  0  0
   25.6440   33.4290   -6.5410 C   0  0  0  0  0  0  0  0  0  0  0  0
   21.0770   37.0770  -11.0940 N   0  0  0  0  0  0  0  0  0  0  0  0
   25.7690   32.5950   -7.6500 C   0  0  0  0  0  0  0  0  0  0  0  0
   22.7960   37.3160   -6.5130 C   0  0  0  0  0  0  0  0  0  0  0  0
   21.3900   37.3440   -5.9370 C   0  0  0  0  0  0  0  0  0  0  0  0
   23.2120   38.7380   -6.8790 C   0  0  0  0  0  0  0  0  0  0  0  0
   23.1280   35.0860  -10.9070 C   0  0  0  0  0  0  0  0  0  0  0  0
   21.6530   34.6510  -10.8660 C   0  0  0  0  0  0  0  0  0  0  0  0
   20.8340   35.7050  -11.6660 C   0  0  0  0  0  0  0  0  0  0  0  0
   22.4810   37.4770  -11.0940 C   0  0  0  0  0  0  0  0  0  0  0  0
   23.3110   36.4980  -10.2840 C   0  0  0  0  0  0  0  0  0  0  0  0
   20.3000   38.0630  -11.8700 C   0  0  0  0  0  0  0  0  0  0  0  0
   25.1007   36.6921   -2.7028 H   0  0  0  0  0  0  0  0  0  0  0  0
   25.9973   34.7203   -4.0685 H   0  0  0  0  0  0  0  0  0  0  0  0
   24.0697   33.2357  -10.7837 H   0  0  0  0  0  0  0  0  0  0  0  0
   26.1355   33.2187   -5.5796 H   0  0  0  0  0  0  0  0  0  0  0  0
   26.3787   31.6848   -7.5509 H   0  0  0  0  0  0  0  0  0  0  0  0
   22.8150   36.6982   -7.4229 H   0  0  0  0  0  0  0  0  0  0  0  0
   21.4438   37.3429   -4.8383 H   0  0  0  0  0  0  0  0  0  0  0  0
   20.8721   38.2526   -6.2779 H   0  0  0  0  0  0  0  0  0  0  0  0
   20.8364   36.4567   -6.2779 H   0  0  0  0  0  0  0  0  0  0  0  0
   23.3818   39.3184   -5.9601 H   0  0  0  0  0  0  0  0  0  0  0  0
   24.1390   38.7081   -7.4703 H   0  0  0  0  0  0  0  0  0  0  0  0
   22.4150   39.2125   -7.4703 H   0  0  0  0  0  0  0  0  0  0  0  0
   23.4865   35.1685  -11.9437 H   0  0  0  0  0  0  0  0  0  0  0  0
   21.5408   33.6587  -11.3273 H   0  0  0  0  0  0  0  0  0  0  0  0
   21.2955   34.5883   -9.8276 H   0  0  0  0  0  0  0  0  0  0  0  0
   19.7628   35.4646  -11.5974 H   0  0  0  0  0  0  0  0  0  0  0  0
   21.1494   35.6884  -12.7197 H   0  0  0  0  0  0  0  0  0  0  0  0
   22.8521   37.4966  -12.1293 H   0  0  0  0  0  0  0  0  0  0  0  0
   22.5669   38.4762  -10.6422 H   0  0  0  0  0  0  0  0  0  0  0  0
   22.9679   36.4926   -9.2389 H   0  0  0  0  0  0  0  0  0  0  0  0
   24.3715   36.7895  -10.3009 H   0  0  0  0  0  0  0  0  0  0  0  0
   19.7694   38.7363  -11.1806 H   0  0  0  0  0  0  0  0  0  0  0  0
   20.9811   38.6497  -12.5039 H   0  0  0  0  0  0  0  0  0  0  0  0
   19.5703   37.5379  -12.5039 H   0  0  0  0  0  0  0  0  0  0  0  0
  1  3  2  0
  9  1  1  0
  1  5  1  0
  2  3  1  0
  4  2  1  0
  5  4  2  0
 14  5  1  0
  6  7  2  0
  6 13  1  0
 10  7  1  0
  7  8  1  0
  8  9  2  0
  9 11  1  0
 17 10  1  0
 13 11  2  0
 22 12  1  0
 19 12  1  0
 20 12  1  0
 16 14  1  0
 14 15  1  0
 17 18  1  0
 17 21  1  0
 19 18  1  0
 20 21  1  0
  2 23  1  0
  3 24  1  0
 10 25  1  0
 11 26  1  0
 13 27  1  0
 14 28  1  0
 15 29  1  0
 15 30  1  0
 15 31  1  0
 16 32  1  0
 16 33  1  0
 16 34  1  0
 17 35  1  0
 18 36  1  0
 18 37  1  0
 19 38  1  0
 19 39  1  0
 20 40  1  0
 20 41  1  0
 21 42  1  0
 21 43  1  0
 22 44  1  0
 22 45  1  0
 22 46  1  0
A    1
C1
A    2
N1
A    3
C2
A    4
N2
A    5
C3
A    6
N3
A    7
C4
A    8
N4
A    9
C5
A   10
N5
A   11
C6
A   12
N6
A   13
C7
A   14
C8
A   15
C9
A   16
C10
A   17
C11
A   18
C12
A   19
C13
A   20
C14
A   21
C15
A   22
C16
M  END
