3NUS_JNZ_A_374
     RDKit          3D

 17 18  0  0  0  0  0  0  0  0999 V2000
  -41.6470   16.7550   12.7440 C   0  0  0  0  0  0  0  0  0  0  0  0
  -42.6540   15.9820   12.2070 C   0  0  0  0  0  0  0  0  0  0  0  0
  -40.3940   16.2470   13.0120 C   0  0  0  0  0  0  0  0  0  0  0  0
  -42.4820   14.6480   11.9040 C   0  0  0  0  0  0  0  0  0  0  0  0
  -40.1960   14.9090   12.7170 C   0  0  0  0  0  0  0  0  0  0  0  0
  -41.2270   14.1640   12.1840 C   0  0  0  0  0  0  0  0  0  0  0  0
  -39.1000   14.0160   12.8290 C   0  0  0  0  0  0  0  0  0  0  0  0
  -39.4300   12.7990   12.3950 N   0  0  0  0  0  0  0  0  0  0  0  0
  -40.7100   12.9160   12.0150 N   0  0  0  0  0  0  0  0  0  0  0  0
  -37.8980   14.4010   13.3140 N   0  0  0  0  0  0  0  0  0  0  0  0
  -41.8502   17.8130   12.9662 H   0  0  0  0  0  0  0  0  0  0  0  0
  -43.6318   16.4470   12.0129 H   0  0  0  0  0  0  0  0  0  0  0  0
  -39.5944   16.8712   13.4374 H   0  0  0  0  0  0  0  0  0  0  0  0
  -43.2807   14.0250   11.4751 H   0  0  0  0  0  0  0  0  0  0  0  0
  -41.2543   12.1312   11.6293 H   0  0  0  0  0  0  0  0  0  0  0  0
  -37.7449   14.4500   14.3314 H   0  0  0  0  0  0  0  0  0  0  0  0
  -37.1355   14.6452   12.6661 H   0  0  0  0  0  0  0  0  0  0  0  0
  1  2  2  0
  1  3  1  0
  2  4  1  0
  3  5  2  0
  4  6  2  0
  5  6  1  0
  5  7  1  0
  6  9  1  0
  7  8  2  0
  7 10  1  0
  8  9  1  0
  1 11  1  0
  2 12  1  0
  3 13  1  0
  4 14  1  0
  9 15  1  0
 10 16  1  0
 10 17  1  0
A    1
C8
A    2
C7
A    3
C9
A    4
C6
A    5
C10
A    6
C5
A    7
C2
A    8
N3
A    9
N4
A   10
N1
M  END
