3NUX_3NV_A_900
     RDKit          3D

 51 54  0  0  0  0  0  0  0  0999 V2000
   11.6350   30.8920   11.7220 C   0  0  0  0  0  0  0  0  0  0  0  0
   12.3040   29.7070   12.3440 N   0  0  0  0  0  0  0  0  0  0  0  0
   16.1400   23.6480    4.1730 Cl  0  0  0  0  0  0  0  0  0  0  0  0
   11.3670   32.0480   12.7480 C   0  0  0  0  0  0  0  0  0  0  0  0
   10.5070   31.5580   13.8410 N   0  0  0  0  0  0  0  0  0  0  0  0
   11.2390   30.4880   14.5670 C   0  0  0  0  0  0  0  0  0  0  0  0
   15.0970   27.2410   11.8920 N   0  0  0  0  0  0  0  0  0  0  0  0
   11.6380   29.3010   13.6230 C   0  0  0  0  0  0  0  0  0  0  0  0
   16.6830   26.9260   10.3040 N   0  0  0  0  0  0  0  0  0  0  0  0
   14.0230   27.9170   12.4170 C   0  0  0  0  0  0  0  0  0  0  0  0
   14.3340   25.5600    3.8800 N   0  0  0  0  0  0  0  0  0  0  0  0
   13.3930   29.0500   11.7870 C   0  0  0  0  0  0  0  0  0  0  0  0
   13.8010   26.6690    4.3980 N   0  0  0  0  0  0  0  0  0  0  0  0
   14.0010   29.4760   10.5580 C   0  0  0  0  0  0  0  0  0  0  0  0
   18.1600   25.6600    9.1310 N   0  0  0  0  0  0  0  0  0  0  0  0
   15.1160   28.7760   10.0130 C   0  0  0  0  0  0  0  0  0  0  0  0
   16.1650   26.3860    8.0770 N   0  0  0  0  0  0  0  0  0  0  0  0
   15.6460   27.6600   10.7190 C   0  0  0  0  0  0  0  0  0  0  0  0
   15.4970   25.8790    5.7620 C   0  0  0  0  0  0  0  0  0  0  0  0
   15.3380   25.0770    4.6570 C   0  0  0  0  0  0  0  0  0  0  0  0
   14.4780   26.8960    5.5240 C   0  0  0  0  0  0  0  0  0  0  0  0
   14.0550   28.1160    6.3340 C   0  0  0  0  0  0  0  0  0  0  0  0
   14.7080   29.3950    5.7840 C   0  0  0  0  0  0  0  0  0  0  0  0
   12.5260   28.2400    6.3390 C   0  0  0  0  0  0  0  0  0  0  0  0
   16.4860   25.7540    6.9020 C   0  0  0  0  0  0  0  0  0  0  0  0
   17.7130   25.0430    6.8210 C   0  0  0  0  0  0  0  0  0  0  0  0
   18.5040   25.0230    7.9870 C   0  0  0  0  0  0  0  0  0  0  0  0
   17.0000   26.2910    9.1360 C   0  0  0  0  0  0  0  0  0  0  0  0
   12.2797   31.2778   10.9186 H   0  0  0  0  0  0  0  0  0  0  0  0
   10.6598   30.5577   11.3382 H   0  0  0  0  0  0  0  0  0  0  0  0
   12.3240   32.3955   13.1644 H   0  0  0  0  0  0  0  0  0  0  0  0
   10.8621   32.8792   12.2341 H   0  0  0  0  0  0  0  0  0  0  0  0
   10.2897   32.3308   14.4863 H   0  0  0  0  0  0  0  0  0  0  0  0
   12.1532   30.9169   15.0033 H   0  0  0  0  0  0  0  0  0  0  0  0
   10.5726   30.0911   15.3470 H   0  0  0  0  0  0  0  0  0  0  0  0
   10.7239   28.7438   13.3701 H   0  0  0  0  0  0  0  0  0  0  0  0
   12.3751   28.7013   14.1771 H   0  0  0  0  0  0  0  0  0  0  0  0
   17.4069   26.8135   11.0281 H   0  0  0  0  0  0  0  0  0  0  0  0
   13.6178   27.5718   13.3796 H   0  0  0  0  0  0  0  0  0  0  0  0
   14.0225   25.1245    3.0001 H   0  0  0  0  0  0  0  0  0  0  0  0
   13.6008   30.3543   10.0303 H   0  0  0  0  0  0  0  0  0  0  0  0
   15.5613   29.0942    9.0588 H   0  0  0  0  0  0  0  0  0  0  0  0
   14.3996   27.9848    7.3703 H   0  0  0  0  0  0  0  0  0  0  0  0
   15.0324   30.0303    6.6213 H   0  0  0  0  0  0  0  0  0  0  0  0
   15.5793   29.1264    5.1686 H   0  0  0  0  0  0  0  0  0  0  0  0
   13.9794   29.9432    5.1686 H   0  0  0  0  0  0  0  0  0  0  0  0
   12.1639   28.2694    7.3773 H   0  0  0  0  0  0  0  0  0  0  0  0
   12.2314   29.1650    5.8217 H   0  0  0  0  0  0  0  0  0  0  0  0
   12.0862   27.3746    5.8217 H   0  0  0  0  0  0  0  0  0  0  0  0
   18.0288   24.5353    5.8977 H   0  0  0  0  0  0  0  0  0  0  0  0
   19.4494   24.4610    7.9667 H   0  0  0  0  0  0  0  0  0  0  0  0
  1  2  1  0
  1  4  1  0
 12  2  1  0
  2  8  1  0
  3 20  1  0
  4  5  1  0
  5  6  1  0
  8  6  1  0
 18  7  2  0
  7 10  1  0
 28  9  1  0
  9 18  1  0
 12 10  2  0
 11 13  1  0
 11 20  1  0
 14 12  1  0
 13 21  2  0
 16 14  2  0
 27 15  2  0
 15 28  1  0
 16 18  1  0
 25 17  1  0
 17 28  2  0
 20 19  2  0
 21 19  1  0
 19 25  1  0
 21 22  1  0
 23 22  1  0
 22 24  1  0
 26 25  2  0
 26 27  1  0
  1 29  1  0
  1 30  1  0
  4 31  1  0
  4 32  1  0
  5 33  1  0
  6 34  1  0
  6 35  1  0
  8 36  1  0
  8 37  1  0
  9 38  1  0
 10 39  1  0
 11 40  1  0
 14 41  1  0
 16 42  1  0
 22 43  1  0
 23 44  1  0
 23 45  1  0
 23 46  1  0
 24 47  1  0
 24 48  1  0
 24 49  1  0
 26 50  1  0
 27 51  1  0
A    1
C1
A    2
N1
A    3
CL1
A    4
C2
A    5
N2
A    6
C3
A    7
N3
A    8
C4
A    9
N4
A   10
C5
A   11
N5
A   12
C6
A   13
N6
A   14
C7
A   15
N7
A   16
C8
A   17
N8
A   18
C9
A   19
C10
A   20
C11
A   21
C12
A   22
C13
A   23
C14
A   24
C15
A   25
C16
A   26
C17
A   27
C18
A   28
C19
M  END
