3NW5_LGX_A_1
     RDKit          3D

 53 58  0  0  0  0  0  0  0  0999 V2000
  -15.5730    7.0780    9.9630 N   0  0  0  0  0  0  0  0  0  0  0  0
  -16.3160    6.7330   11.0890 C   0  0  0  0  0  0  0  0  0  0  0  0
  -16.7140    7.9300   11.7570 C   0  0  0  0  0  0  0  0  0  0  0  0
  -16.1780    8.9670   10.9820 C   0  0  0  0  0  0  0  0  0  0  0  0
  -15.4880    8.4260    9.8950 C   0  0  0  0  0  0  0  0  0  0  0  0
  -15.0710    6.1110    9.1440 N   0  0  0  0  0  0  0  0  0  0  0  0
  -15.2690    4.7880    9.3850 C   0  0  0  0  0  0  0  0  0  0  0  0
  -15.9770    4.4160   10.4580 N   0  0  0  0  0  0  0  0  0  0  0  0
  -16.4970    5.3510   11.3030 C   0  0  0  0  0  0  0  0  0  0  0  0
  -17.2140    4.9010   12.3830 N   0  0  0  0  0  0  0  0  0  0  0  0
  -17.4420    3.4820   12.7710 C   0  0  0  0  0  0  0  0  0  0  0  0
  -17.0840    2.1930   12.2070 C   0  0  0  0  0  0  0  0  0  0  0  0
  -17.5890    1.1400   13.0410 C   0  0  0  0  0  0  0  0  0  0  0  0
  -18.2070    1.7890   14.0360 N   0  0  0  0  0  0  0  0  0  0  0  0
  -18.1130    3.1250   13.8650 N   0  0  0  0  0  0  0  0  0  0  0  0
  -17.4920   -0.4050   12.9040 C   0  0  0  0  0  0  0  0  0  0  0  0
  -17.0550   -0.5080   11.4940 C   0  0  0  0  0  0  0  0  0  0  0  0
  -18.5030   -0.4970   11.8160 C   0  0  0  0  0  0  0  0  0  0  0  0
  -14.7260    3.7100    8.5000 C   0  0  0  0  0  0  0  0  0  0  0  0
  -13.6670    4.1200    7.5860 N   0  0  0  0  0  0  0  0  0  0  0  0
  -13.9980    3.7880    6.1920 C   0  0  0  0  0  0  0  0  0  0  0  0
  -15.1580    2.7800    6.3010 C   0  0  0  0  0  0  0  0  0  0  0  0
  -15.7940    2.9990    7.6720 C   0  0  0  0  0  0  0  0  0  0  0  0
  -12.5420    4.7370    8.1150 C   0  0  0  0  0  0  0  0  0  0  0  0
  -12.3600    4.6890    9.3360 O   0  0  0  0  0  0  0  0  0  0  0  0
  -11.5640    5.4440    7.2580 C   0  0  0  0  0  0  0  0  0  0  0  0
  -10.2260    5.4810    7.6800 C   0  0  0  0  0  0  0  0  0  0  0  0
   -9.2170    6.1250    6.9450 C   0  0  0  0  0  0  0  0  0  0  0  0
   -9.6190    6.7350    5.7540 C   0  0  0  0  0  0  0  0  0  0  0  0
  -10.8890    6.7250    5.3080 N   0  0  0  0  0  0  0  0  0  0  0  0
  -11.8470    6.0960    6.0390 C   0  0  0  0  0  0  0  0  0  0  0  0
   -8.6390    7.3410    5.0700 F   0  0  0  0  0  0  0  0  0  0  0  0
  -17.3100    8.0188   12.6772 H   0  0  0  0  0  0  0  0  0  0  0  0
  -16.2842   10.0406   11.1965 H   0  0  0  0  0  0  0  0  0  0  0  0
  -14.9642    8.9991    9.1157 H   0  0  0  0  0  0  0  0  0  0  0  0
  -17.6381    5.6190   12.9875 H   0  0  0  0  0  0  0  0  0  0  0  0
  -16.5115    2.0456   11.2794 H   0  0  0  0  0  0  0  0  0  0  0  0
  -18.6880    1.3318   14.8237 H   0  0  0  0  0  0  0  0  0  0  0  0
  -17.2291   -0.9130   13.8436 H   0  0  0  0  0  0  0  0  0  0  0  0
  -16.5964    0.3592   10.9964 H   0  0  0  0  0  0  0  0  0  0  0  0
  -16.3893   -1.1821   10.9350 H   0  0  0  0  0  0  0  0  0  0  0  0
  -19.1009   -1.4125   11.6957 H   0  0  0  0  0  0  0  0  0  0  0  0
  -19.3668    0.1072   11.5016 H   0  0  0  0  0  0  0  0  0  0  0  0
  -14.2949    3.0219    9.2421 H   0  0  0  0  0  0  0  0  0  0  0  0
  -14.3143    4.6870    5.6427 H   0  0  0  0  0  0  0  0  0  0  0  0
  -13.1371    3.3776    5.6438 H   0  0  0  0  0  0  0  0  0  0  0  0
  -15.8961    2.9623    5.5060 H   0  0  0  0  0  0  0  0  0  0  0  0
  -14.7991    1.7462    6.1891 H   0  0  0  0  0  0  0  0  0  0  0  0
  -16.0608    2.0359    8.1317 H   0  0  0  0  0  0  0  0  0  0  0  0
  -16.7215    3.5866    7.6057 H   0  0  0  0  0  0  0  0  0  0  0  0
   -9.9566    4.9857    8.6245 H   0  0  0  0  0  0  0  0  0  0  0  0
   -8.1718    6.1477    7.2870 H   0  0  0  0  0  0  0  0  0  0  0  0
  -12.8819    6.0952    5.6662 H   0  0  0  0  0  0  0  0  0  0  0  0
  6  1  1  0
  5  1  1  0
  1  2  1  0
  2  9  1  0
  2  3  2  0
  4  3  1  0
  5  4  2  0
  6  7  2  0
 19  7  1  0
  7  8  1  0
  8  9  2  0
  9 10  1  0
 10 11  1  0
 12 11  1  0
 11 15  2  0
 12 13  2  0
 16 13  1  0
 13 14  1  0
 15 14  1  0
 17 16  1  0
 18 16  1  0
 17 18  1  0
 20 19  1  0
 23 19  1  0
 21 20  1  0
 20 24  1  0
 21 22  1  0
 22 23  1  0
 26 24  1  0
 24 25  2  0
 31 26  1  0
 26 27  2  0
 28 27  1  0
 29 28  2  0
 32 29  1  0
 30 29  1  0
 30 31  2  0
  3 33  1  0
  4 34  1  0
  5 35  1  0
 10 36  1  0
 12 37  1  0
 14 38  1  0
 16 39  1  0
 17 40  1  0
 17 41  1  0
 18 42  1  0
 18 43  1  0
 19 44  1  0
 21 45  1  0
 21 46  1  0
 22 47  1  0
 22 48  1  0
 23 49  1  0
 23 50  1  0
 27 51  1  0
 28 52  1  0
 31 53  1  0
A    1
N1
A    2
C2
A    3
C3
A    4
C4
A    5
C5
A    6
N6
A    7
C7
A    8
N8
A    9
C9
A   10
N10
A   11
C11
A   12
C12
A   13
C13
A   14
N14
A   15
N15
A   16
C16
A   17
C17
A   18
C18
A   19
C19
A   20
N20
A   21
C21
A   22
C22
A   23
C23
A   24
C24
A   25
O25
A   26
C26
A   27
C27
A   28
C28
A   29
C29
A   30
N30
A   31
C31
A   32
F32
M  END
