3NW6_LGW_A_1
     RDKit          3D

 53 58  0  0  0  0  0  0  0  0999 V2000
  -16.4110    7.4650   10.4150 N   0  0  0  0  0  0  0  0  0  0  0  0
  -17.1080    6.9940   11.5160 C   0  0  0  0  0  0  0  0  0  0  0  0
  -17.5720    8.0950   12.3100 C   0  0  0  0  0  0  0  0  0  0  0  0
  -17.1170    9.2330   11.6250 C   0  0  0  0  0  0  0  0  0  0  0  0
  -16.4150    8.8180   10.4790 C   0  0  0  0  0  0  0  0  0  0  0  0
  -15.8680    6.5940    9.5050 N   0  0  0  0  0  0  0  0  0  0  0  0
  -15.9780    5.2610    9.6250 C   0  0  0  0  0  0  0  0  0  0  0  0
  -16.6480    4.7630   10.6830 N   0  0  0  0  0  0  0  0  0  0  0  0
  -17.1980    5.6150   11.6050 C   0  0  0  0  0  0  0  0  0  0  0  0
  -17.8660    5.1100   12.6590 N   0  0  0  0  0  0  0  0  0  0  0  0
  -18.0990    3.6890   12.9590 C   0  0  0  0  0  0  0  0  0  0  0  0
  -17.7980    2.4260   12.3000 C   0  0  0  0  0  0  0  0  0  0  0  0
  -18.3150    1.3880   13.1520 C   0  0  0  0  0  0  0  0  0  0  0  0
  -18.8580    2.0190   14.1990 N   0  0  0  0  0  0  0  0  0  0  0  0
  -18.7310    3.3370   14.0810 N   0  0  0  0  0  0  0  0  0  0  0  0
  -18.3300   -0.1470   13.0470 C   0  0  0  0  0  0  0  0  0  0  0  0
  -19.1040   -0.2790   11.7720 C   0  0  0  0  0  0  0  0  0  0  0  0
  -17.5890   -0.3710   11.7850 C   0  0  0  0  0  0  0  0  0  0  0  0
  -15.3620    4.3760    8.5960 C   0  0  0  0  0  0  0  0  0  0  0  0
  -14.5730    3.2790    9.1640 N   0  0  0  0  0  0  0  0  0  0  0  0
  -14.9350    1.9720    8.6100 C   0  0  0  0  0  0  0  0  0  0  0  0
  -15.8280    2.3040    7.3980 C   0  0  0  0  0  0  0  0  0  0  0  0
  -16.3850    3.7410    7.6400 C   0  0  0  0  0  0  0  0  0  0  0  0
  -13.6190    3.5410   10.1070 C   0  0  0  0  0  0  0  0  0  0  0  0
  -13.1690    4.6680   10.2530 O   0  0  0  0  0  0  0  0  0  0  0  0
  -13.0990    2.5030   10.9740 C   0  0  0  0  0  0  0  0  0  0  0  0
  -13.9690    1.6500   11.6860 C   0  0  0  0  0  0  0  0  0  0  0  0
  -13.4740    0.6660   12.5100 C   0  0  0  0  0  0  0  0  0  0  0  0
  -12.0890    0.5460   12.6130 C   0  0  0  0  0  0  0  0  0  0  0  0
  -11.2190    1.3540   11.9370 N   0  0  0  0  0  0  0  0  0  0  0  0
  -11.7120    2.3330   11.1170 C   0  0  0  0  0  0  0  0  0  0  0  0
  -11.7040   -0.4390   13.4370 F   0  0  0  0  0  0  0  0  0  0  0  0
  -18.1525    8.0564   13.2436 H   0  0  0  0  0  0  0  0  0  0  0  0
  -17.2821   10.2759   11.9334 H   0  0  0  0  0  0  0  0  0  0  0  0
  -15.9419    9.4892    9.7471 H   0  0  0  0  0  0  0  0  0  0  0  0
  -18.2554    5.7911   13.3264 H   0  0  0  0  0  0  0  0  0  0  0  0
  -17.2779    2.2918   11.3401 H   0  0  0  0  0  0  0  0  0  0  0  0
  -19.3144    1.5460   14.9921 H   0  0  0  0  0  0  0  0  0  0  0  0
  -18.3259   -0.6096   14.0450 H   0  0  0  0  0  0  0  0  0  0  0  0
  -19.7112   -1.1767   11.5838 H   0  0  0  0  0  0  0  0  0  0  0  0
  -19.8486    0.3307   11.2393 H   0  0  0  0  0  0  0  0  0  0  0  0
  -16.9848    0.4390   11.3505 H   0  0  0  0  0  0  0  0  0  0  0  0
  -16.8509   -1.1082   11.4361 H   0  0  0  0  0  0  0  0  0  0  0  0
  -14.7064    5.0646    8.0428 H   0  0  0  0  0  0  0  0  0  0  0  0
  -14.0371    1.4213    8.2928 H   0  0  0  0  0  0  0  0  0  0  0  0
  -15.4456    1.3318    9.3445 H   0  0  0  0  0  0  0  0  0  0  0  0
  -15.2364    2.2767    6.4710 H   0  0  0  0  0  0  0  0  0  0  0  0
  -16.6435    1.5734    7.2922 H   0  0  0  0  0  0  0  0  0  0  0  0
  -17.3820    3.7018    8.1031 H   0  0  0  0  0  0  0  0  0  0  0  0
  -16.5069    4.3121    6.7078 H   0  0  0  0  0  0  0  0  0  0  0  0
  -15.0570    1.7735   11.5807 H   0  0  0  0  0  0  0  0  0  0  0  0
  -14.1469   -0.0021   13.0676 H   0  0  0  0  0  0  0  0  0  0  0  0
  -11.0198    2.9886   10.5683 H   0  0  0  0  0  0  0  0  0  0  0  0
  6  1  1  0
  1  5  1  0
  1  2  1  0
  2  9  1  0
  2  3  2  0
  4  3  1  0
  5  4  2  0
  6  7  2  0
 19  7  1  0
  7  8  1  0
  8  9  2  0
  9 10  1  0
 10 11  1  0
 12 11  1  0
 11 15  2  0
 12 13  2  0
 16 13  1  0
 13 14  1  0
 15 14  1  0
 17 16  1  0
 18 16  1  0
 17 18  1  0
 23 19  1  0
 19 20  1  0
 21 20  1  0
 20 24  1  0
 22 21  1  0
 22 23  1  0
 24 25  2  0
 24 26  1  0
 26 31  1  0
 26 27  2  0
 27 28  1  0
 28 29  2  0
 30 29  1  0
 29 32  1  0
 31 30  2  0
  3 33  1  0
  4 34  1  0
  5 35  1  0
 10 36  1  0
 12 37  1  0
 14 38  1  0
 16 39  1  0
 17 40  1  0
 17 41  1  0
 18 42  1  0
 18 43  1  0
 19 44  1  0
 21 45  1  0
 21 46  1  0
 22 47  1  0
 22 48  1  0
 23 49  1  0
 23 50  1  0
 27 51  1  0
 28 52  1  0
 31 53  1  0
A    1
N1
A    2
C2
A    3
C3
A    4
C4
A    5
C5
A    6
N6
A    7
C7
A    8
N8
A    9
C9
A   10
N10
A   11
C11
A   12
C12
A   13
C13
A   14
N14
A   15
N15
A   16
C16
A   17
C17
A   18
C18
A   19
C19
A   20
N20
A   21
C21
A   22
C22
A   23
C23
A   24
C24
A   25
O25
A   26
C26
A   27
C27
A   28
C28
A   29
C29
A   30
N30
A   31
C31
A   32
F32
M  END
