3NW7_LGV_A_1
     RDKit          3D

 46 50  0  0  0  0  0  0  0  0999 V2000
  -17.4570    8.9330   11.3080 C   0  0  0  0  0  0  0  0  0  0  0  0
  -12.8690    2.0720   11.7070 C   0  0  0  0  0  0  0  0  0  0  0  0
  -17.9820    7.8730   12.0950 C   0  0  0  0  0  0  0  0  0  0  0  0
  -11.9540    1.5210   12.6090 C   0  0  0  0  0  0  0  0  0  0  0  0
  -18.4740    2.4290   12.7460 C   0  0  0  0  0  0  0  0  0  0  0  0
  -14.4440    0.4060   12.4090 C   0  0  0  0  0  0  0  0  0  0  0  0
  -16.7490    8.3690   10.2640 C   0  0  0  0  0  0  0  0  0  0  0  0
  -14.1460    1.4960   11.6000 C   0  0  0  0  0  0  0  0  0  0  0  0
  -17.5770    6.6970   11.5070 C   0  0  0  0  0  0  0  0  0  0  0  0
  -18.9330    1.4430   13.6050 C   0  0  0  0  0  0  0  0  0  0  0  0
  -18.7850    3.6650   13.3880 C   0  0  0  0  0  0  0  0  0  0  0  0
  -12.3630    0.4360   13.3540 C   0  0  0  0  0  0  0  0  0  0  0  0
  -17.7880    5.3070   11.8330 C   0  0  0  0  0  0  0  0  0  0  0  0
  -16.4970    4.8650    9.9180 C   0  0  0  0  0  0  0  0  0  0  0  0
  -15.2270    1.9800   10.7030 C   0  0  0  0  0  0  0  0  0  0  0  0
  -18.3440   -0.7040   12.1660 C   0  0  0  0  0  0  0  0  0  0  0  0
  -19.8180   -0.7170   12.4470 C   0  0  0  0  0  0  0  0  0  0  0  0
  -18.8680   -0.0760   13.4280 C   0  0  0  0  0  0  0  0  0  0  0  0
  -15.9320    3.7260    9.1060 C   0  0  0  0  0  0  0  0  0  0  0  0
  -13.5820   -0.1380   13.2800 N   0  0  0  0  0  0  0  0  0  0  0  0
  -19.3920    3.4250   14.5620 N   0  0  0  0  0  0  0  0  0  0  0  0
  -17.2260    4.4570   11.0090 N   0  0  0  0  0  0  0  0  0  0  0  0
  -16.2630    6.0910    9.5670 N   0  0  0  0  0  0  0  0  0  0  0  0
  -19.4720    2.0820   14.6740 N   0  0  0  0  0  0  0  0  0  0  0  0
  -16.8270    7.0110   10.3940 N   0  0  0  0  0  0  0  0  0  0  0  0
  -18.5370    4.9380   12.9470 N   0  0  0  0  0  0  0  0  0  0  0  0
  -14.9470    3.1040    9.9670 N   0  0  0  0  0  0  0  0  0  0  0  0
  -16.3050    1.3970   10.6820 O   0  0  0  0  0  0  0  0  0  0  0  0
  -11.5100   -0.1090   14.2230 F   0  0  0  0  0  0  0  0  0  0  0  0
  -17.5901   10.0086   11.4959 H   0  0  0  0  0  0  0  0  0  0  0  0
  -12.5939    2.9414   11.0918 H   0  0  0  0  0  0  0  0  0  0  0  0
  -18.5958    7.9735   13.0023 H   0  0  0  0  0  0  0  0  0  0  0  0
  -10.9426    1.9390   12.7203 H   0  0  0  0  0  0  0  0  0  0  0  0
  -17.9757    2.2887   11.7754 H   0  0  0  0  0  0  0  0  0  0  0  0
  -15.4477   -0.0372   12.3300 H   0  0  0  0  0  0  0  0  0  0  0  0
  -16.2179    8.9152    9.4706 H   0  0  0  0  0  0  0  0  0  0  0  0
  -17.7670   -1.6392   12.2164 H   0  0  0  0  0  0  0  0  0  0  0  0
  -17.7161   -0.3603   11.3308 H   0  0  0  0  0  0  0  0  0  0  0  0
  -20.4974   -0.0909   11.8499 H   0  0  0  0  0  0  0  0  0  0  0  0
  -20.5913   -1.4968   12.5090 H   0  0  0  0  0  0  0  0  0  0  0  0
  -18.6171   -0.1922   14.4927 H   0  0  0  0  0  0  0  0  0  0  0  0
  -16.7235    3.0088    8.8430 H   0  0  0  0  0  0  0  0  0  0  0  0
  -15.4929    4.0720    8.1586 H   0  0  0  0  0  0  0  0  0  0  0  0
  -19.7283    4.1241   15.2396 H   0  0  0  0  0  0  0  0  0  0  0  0
  -18.9488    5.7042   13.4987 H   0  0  0  0  0  0  0  0  0  0  0  0
  -14.0062    3.5187   10.0288 H   0  0  0  0  0  0  0  0  0  0  0  0
  7  1  2  0
  1  3  1  0
  8  2  2  0
  2  4  1  0
  9  3  2  0
  4 12  2  0
  5 11  2  0
  5 10  1  0
  8  6  1  0
  6 20  2  0
  7 25  1  0
 15  8  1  0
 25  9  1  0
  9 13  1  0
 18 10  1  0
 10 24  2  0
 26 11  1  0
 11 21  1  0
 20 12  1  0
 12 29  1  0
 22 13  2  0
 13 26  1  0
 19 14  1  0
 23 14  2  0
 14 22  1  0
 27 15  1  0
 28 15  2  0
 16 17  1  0
 16 18  1  0
 17 18  1  0
 19 27  1  0
 21 24  1  0
 23 25  1  0
  1 30  1  0
  2 31  1  0
  3 32  1  0
  4 33  1  0
  5 34  1  0
  6 35  1  0
  7 36  1  0
 16 37  1  0
 16 38  1  0
 17 39  1  0
 17 40  1  0
 18 41  1  0
 19 42  1  0
 19 43  1  0
 21 44  1  0
 26 45  1  0
 27 46  1  0
A    1
C1
A    2
C2
A    3
C3
A    4
C4
A    5
C5
A    6
C6
A    7
C7
A    8
C8
A    9
C9
A   10
C10
A   11
C11
A   12
C12
A   13
C13
A   14
C14
A   15
C15
A   16
C16
A   17
C17
A   18
C18
A   19
C19
A   20
N20
A   21
N21
A   22
N22
A   23
N23
A   24
N24
A   25
N25
A   26
N26
A   27
N27
A   28
O28
A   29
F29
M  END
