3NWB_659_A_226
     RDKit          3D

 63 67  0  0  0  0  0  0  0  0999 V2000
   -3.1670   20.6380   14.4800 C   0  0  0  0  0  0  0  0  0  0  0  0
   -3.7600   21.3440   15.6780 C   0  0  0  0  0  0  0  0  0  0  0  0
   -5.0940   21.5650   15.1430 C   0  0  0  0  0  0  0  0  0  0  0  0
   -4.8370   22.0780   13.8060 C   0  0  0  0  0  0  0  0  0  0  0  0
   -3.6750   21.3130   13.3460 O   0  0  0  0  0  0  0  0  0  0  0  0
   -3.7160   20.4900   16.7630 F   0  0  0  0  0  0  0  0  0  0  0  0
   -5.8360   22.4750   15.8990 O   0  0  0  0  0  0  0  0  0  0  0  0
   -3.5020   19.1660   14.4640 C   0  0  0  0  0  0  0  0  0  0  0  0
    1.8380   13.9320   14.1710 C   0  0  0  0  0  0  0  0  0  0  0  0
    1.8140   12.7340   14.8920 C   0  0  0  0  0  0  0  0  0  0  0  0
    0.6040   12.2180   15.4080 C   0  0  0  0  0  0  0  0  0  0  0  0
   -0.5760   12.9510   15.1280 C   0  0  0  0  0  0  0  0  0  0  0  0
   -0.5610   14.1130   14.4010 C   0  0  0  0  0  0  0  0  0  0  0  0
    0.6540   14.6300   13.9170 C   0  0  0  0  0  0  0  0  0  0  0  0
    0.5670   10.9790   16.1650 C   0  0  0  0  0  0  0  0  0  0  0  0
   -0.3360   10.8120   17.2110 C   0  0  0  0  0  0  0  0  0  0  0  0
   -0.3490    9.6580   17.9310 C   0  0  0  0  0  0  0  0  0  0  0  0
    0.5080    8.6150   17.5970 C   0  0  0  0  0  0  0  0  0  0  0  0
    1.3970    8.7620   16.5680 C   0  0  0  0  0  0  0  0  0  0  0  0
    1.3740    9.9440   15.8470 C   0  0  0  0  0  0  0  0  0  0  0  0
    0.7860   15.7610   13.1340 O   0  0  0  0  0  0  0  0  0  0  0  0
    3.0130   14.4530   13.6750 O   0  0  0  0  0  0  0  0  0  0  0  0
    0.5060    7.4920   18.3100 F   0  0  0  0  0  0  0  0  0  0  0  0
   -1.8640   14.7980   14.2290 C   0  0  0  0  0  0  0  0  0  0  0  0
   -1.8380   16.0890   13.7970 N   0  0  0  0  0  0  0  0  0  0  0  0
   -2.9110   14.2920   14.5160 O   0  0  0  0  0  0  0  0  0  0  0  0
   -3.1000   16.8630   13.6920 C   0  0  0  0  0  0  0  0  0  0  0  0
   -2.7180   18.2880   13.8240 C   0  0  0  0  0  0  0  0  0  0  0  0
   -5.8610   21.8580   12.8170 N   0  0  0  0  0  0  0  0  0  0  0  0
   -7.2260   20.8400   11.4210 N   0  0  0  0  0  0  0  0  0  0  0  0
   -6.4270   20.6750   12.5050 C   0  0  0  0  0  0  0  0  0  0  0  0
   -7.1050   22.1580   11.0350 C   0  0  0  0  0  0  0  0  0  0  0  0
   -6.2550   22.7920   11.8960 C   0  0  0  0  0  0  0  0  0  0  0  0
   -5.9360   24.0860   11.7750 N   0  0  0  0  0  0  0  0  0  0  0  0
   -6.5080   24.7620   10.7430 C   0  0  0  0  0  0  0  0  0  0  0  0
   -7.3510   24.1660    9.8510 N   0  0  0  0  0  0  0  0  0  0  0  0
   -7.6870   22.8980   10.0000 C   0  0  0  0  0  0  0  0  0  0  0  0
   -8.6030   22.3980    9.0730 N   0  0  0  0  0  0  0  0  0  0  0  0
   -9.1110   21.0490    9.1470 C   0  0  0  0  0  0  0  0  0  0  0  0
   -2.0678   20.6726   14.5026 H   0  0  0  0  0  0  0  0  0  0  0  0
   -3.2756   22.2604   16.0462 H   0  0  0  0  0  0  0  0  0  0  0  0
   -5.7000   20.6471   15.1534 H   0  0  0  0  0  0  0  0  0  0  0  0
   -4.7366   23.1700   13.8927 H   0  0  0  0  0  0  0  0  0  0  0  0
   -5.6920   22.2984   16.8624 H   0  0  0  0  0  0  0  0  0  0  0  0
   -4.4026   18.8092   14.9852 H   0  0  0  0  0  0  0  0  0  0  0  0
    2.7520   12.1846   15.0601 H   0  0  0  0  0  0  0  0  0  0  0  0
   -1.5374   12.5744   15.5072 H   0  0  0  0  0  0  0  0  0  0  0  0
   -1.0432   11.6179   17.4568 H   0  0  0  0  0  0  0  0  0  0  0  0
   -1.0397    9.5495   18.7802 H   0  0  0  0  0  0  0  0  0  0  0  0
    2.1110    7.9628   16.3199 H   0  0  0  0  0  0  0  0  0  0  0  0
    2.0414   10.0441   14.9784 H   0  0  0  0  0  0  0  0  0  0  0  0
    0.8896   16.6486   13.5600 H   0  0  0  0  0  0  0  0  0  0  0  0
    3.7173   14.7653   14.2967 H   0  0  0  0  0  0  0  0  0  0  0  0
   -0.9419   16.5287   13.5429 H   0  0  0  0  0  0  0  0  0  0  0  0
   -3.5779   16.6842   12.7175 H   0  0  0  0  0  0  0  0  0  0  0  0
   -3.8204   16.5657   14.4683 H   0  0  0  0  0  0  0  0  0  0  0  0
   -1.7694   18.6331   13.3868 H   0  0  0  0  0  0  0  0  0  0  0  0
   -6.2669   19.7287   13.0425 H   0  0  0  0  0  0  0  0  0  0  0  0
   -6.2821   25.8318   10.6226 H   0  0  0  0  0  0  0  0  0  0  0  0
   -8.9268   23.0115    8.3116 H   0  0  0  0  0  0  0  0  0  0  0  0
   -9.2213   20.7561   10.2015 H   0  0  0  0  0  0  0  0  0  0  0  0
  -10.0899   20.9979    8.6479 H   0  0  0  0  0  0  0  0  0  0  0  0
   -8.4089   20.3649    8.6479 H   0  0  0  0  0  0  0  0  0  0  0  0
  1  2  1  0
  1  5  1  0
  1  8  1  0
  2  3  1  0
  2  6  1  0
  3  4  1  0
  3  7  1  0
  4  5  1  0
  4 29  1  0
  8 28  2  0
  9 10  2  0
  9 14  1  0
  9 22  1  0
 10 11  1  0
 11 12  2  0
 11 15  1  0
 12 13  1  0
 13 14  2  0
 13 24  1  0
 14 21  1  0
 15 16  2  0
 15 20  1  0
 16 17  1  0
 17 18  2  0
 18 19  1  0
 18 23  1  0
 19 20  2  0
 24 25  1  0
 24 26  2  0
 25 27  1  0
 27 28  1  0
 29 31  1  0
 29 33  1  0
 30 31  2  0
 30 32  1  0
 32 33  2  0
 32 37  1  0
 33 34  1  0
 34 35  2  0
 35 36  1  0
 36 37  2  0
 37 38  1  0
 38 39  1  0
  1 40  1  0
  2 41  1  0
  3 42  1  0
  4 43  1  0
  7 44  1  0
  8 45  1  0
 10 46  1  0
 12 47  1  0
 16 48  1  0
 17 49  1  0
 19 50  1  0
 20 51  1  0
 21 52  1  0
 22 53  1  0
 25 54  1  0
 27 55  1  0
 27 56  1  0
 28 57  1  0
 31 58  1  0
 35 59  1  0
 38 60  1  0
 39 61  1  0
 39 62  1  0
 39 63  1  0
A    1
C1
A    2
C2
A    3
C3
A    4
C4
A    5
O5
A    6
F6
A    7
O7
A    8
C8
A    9
C9
A   10
C10
A   11
C11
A   12
C12
A   13
C13
A   14
C14
A   15
C15
A   16
C16
A   17
C17
A   18
C18
A   19
C19
A   20
C20
A   21
O21
A   22
O22
A   23
F23
A   24
C24
A   25
N25
A   26
O26
A   27
C27
A   28
C28
A   29
N29
A   30
N30
A   31
C31
A   32
C32
A   33
C33
A   34
N34
A   35
C35
A   36
N36
A   37
C37
A   38
N38
A   39
C39
M  END
