3NWE_662_A_227
     RDKit          3D

 72 76  0  0  0  0  0  0  0  0999 V2000
   -6.0030    5.6090   26.8120 N   0  0  0  0  0  0  0  0  0  0  0  0
   -4.9690    5.4290   25.8140 C   0  0  0  0  0  0  0  0  0  0  0  0
   -5.2290    5.9230   24.4400 C   0  0  0  0  0  0  0  0  0  0  0  0
   -6.3840    4.6690   27.7500 C   0  0  0  0  0  0  0  0  0  0  0  0
   -7.3330    5.2450   28.5640 C   0  0  0  0  0  0  0  0  0  0  0  0
   -7.5000    6.5570   28.1260 N   0  0  0  0  0  0  0  0  0  0  0  0
   -0.5370   13.4550   25.0020 C   0  0  0  0  0  0  0  0  0  0  0  0
   -3.8510    6.1760   23.9190 C   0  0  0  0  0  0  0  0  0  0  0  0
   -6.6630    6.7590   27.0720 C   0  0  0  0  0  0  0  0  0  0  0  0
   -3.7950    6.2210   26.2680 O   0  0  0  0  0  0  0  0  0  0  0  0
   -5.9680    5.0000   23.7460 O   0  0  0  0  0  0  0  0  0  0  0  0
    1.8390   13.6270   25.2960 C   0  0  0  0  0  0  0  0  0  0  0  0
    0.6560   12.9560   25.5260 C   0  0  0  0  0  0  0  0  0  0  0  0
   -3.8160    7.0050   22.6590 C   0  0  0  0  0  0  0  0  0  0  0  0
   -3.2570    6.8740   25.1210 C   0  0  0  0  0  0  0  0  0  0  0  0
   -0.5540   14.6510   24.3020 C   0  0  0  0  0  0  0  0  0  0  0  0
   -1.8440   12.7910   25.1910 C   0  0  0  0  0  0  0  0  0  0  0  0
   -7.8920    4.4630   29.6010 C   0  0  0  0  0  0  0  0  0  0  0  0
   -5.9840    3.3830   27.9130 N   0  0  0  0  0  0  0  0  0  0  0  0
    3.0230   13.1330   25.8020 O   0  0  0  0  0  0  0  0  0  0  0  0
    0.5870   15.3380   24.0620 C   0  0  0  0  0  0  0  0  0  0  0  0
   -7.4680    3.1740   29.7570 N   0  0  0  0  0  0  0  0  0  0  0  0
    1.8030   14.8250   24.5860 C   0  0  0  0  0  0  0  0  0  0  0  0
   -6.5230    2.6530   28.9280 C   0  0  0  0  0  0  0  0  0  0  0  0
    0.5650   16.5640   23.3150 C   0  0  0  0  0  0  0  0  0  0  0  0
   -3.5990    8.3580   25.1970 C   0  0  0  0  0  0  0  0  0  0  0  0
   -2.9190   13.3130   24.9230 O   0  0  0  0  0  0  0  0  0  0  0  0
   -1.8000   11.4610   25.6590 N   0  0  0  0  0  0  0  0  0  0  0  0
   -2.6660    9.2610   25.6500 C   0  0  0  0  0  0  0  0  0  0  0  0
    1.3900   17.6270   23.6780 C   0  0  0  0  0  0  0  0  0  0  0  0
   -0.2900   16.7250   22.2190 C   0  0  0  0  0  0  0  0  0  0  0  0
   -8.9040    4.9490   30.4650 N   0  0  0  0  0  0  0  0  0  0  0  0
    0.7730   11.8060   26.2570 O   0  0  0  0  0  0  0  0  0  0  0  0
    0.5430   18.9600   21.8470 C   0  0  0  0  0  0  0  0  0  0  0  0
   -0.2820   17.9150   21.4810 C   0  0  0  0  0  0  0  0  0  0  0  0
    1.4000   18.8210   22.9370 C   0  0  0  0  0  0  0  0  0  0  0  0
    0.5460   20.0640   21.1080 F   0  0  0  0  0  0  0  0  0  0  0  0
   -3.0220   10.7130   25.8020 C   0  0  0  0  0  0  0  0  0  0  0  0
   -9.5340    6.2510   30.2980 C   0  0  0  0  0  0  0  0  0  0  0  0
  -10.7300    6.1150   29.3660 C   0  0  0  0  0  0  0  0  0  0  0  0
  -11.6490    7.3220   29.5470 C   0  0  0  0  0  0  0  0  0  0  0  0
   -4.8589    4.3371   25.7391 H   0  0  0  0  0  0  0  0  0  0  0  0
   -5.8377    6.8359   24.3618 H   0  0  0  0  0  0  0  0  0  0  0  0
   -3.3107    5.2764   23.5893 H   0  0  0  0  0  0  0  0  0  0  0  0
   -6.5434    7.7040   26.5218 H   0  0  0  0  0  0  0  0  0  0  0  0
   -6.4412    4.4090   24.3839 H   0  0  0  0  0  0  0  0  0  0  0  0
   -3.7710    8.0719   22.9232 H   0  0  0  0  0  0  0  0  0  0  0  0
   -2.9284    6.7359   22.0676 H   0  0  0  0  0  0  0  0  0  0  0  0
   -4.7231    6.8117   22.0676 H   0  0  0  0  0  0  0  0  0  0  0  0
   -2.1605    6.8152   25.0555 H   0  0  0  0  0  0  0  0  0  0  0  0
   -1.5117   15.0488   23.9351 H   0  0  0  0  0  0  0  0  0  0  0  0
    3.1577   13.0768   26.7812 H   0  0  0  0  0  0  0  0  0  0  0  0
    2.7362   15.3854   24.4279 H   0  0  0  0  0  0  0  0  0  0  0  0
   -6.1865    1.6171   29.0816 H   0  0  0  0  0  0  0  0  0  0  0  0
   -4.5953    8.7074   24.8884 H   0  0  0  0  0  0  0  0  0  0  0  0
   -0.8971   11.0266   25.8975 H   0  0  0  0  0  0  0  0  0  0  0  0
   -1.6519    8.9180   25.9029 H   0  0  0  0  0  0  0  0  0  0  0  0
    2.0431   17.5299   24.5578 H   0  0  0  0  0  0  0  0  0  0  0  0
   -0.9732   15.9110   21.9352 H   0  0  0  0  0  0  0  0  0  0  0  0
   -9.2085    4.3533   31.2482 H   0  0  0  0  0  0  0  0  0  0  0  0
    0.7690   11.8457   27.2462 H   0  0  0  0  0  0  0  0  0  0  0  0
   -0.9375   18.0180   20.6036 H   0  0  0  0  0  0  0  0  0  0  0  0
    2.0795   19.6400   23.2154 H   0  0  0  0  0  0  0  0  0  0  0  0
   -3.4615   10.8927   26.7942 H   0  0  0  0  0  0  0  0  0  0  0  0
   -3.7609   11.0182   25.0464 H   0  0  0  0  0  0  0  0  0  0  0  0
   -9.8710    6.6244   31.2763 H   0  0  0  0  0  0  0  0  0  0  0  0
   -8.8099    6.9584   29.8677 H   0  0  0  0  0  0  0  0  0  0  0  0
  -10.3809    6.0716   28.3238 H   0  0  0  0  0  0  0  0  0  0  0  0
  -11.2805    5.1929   29.6040 H   0  0  0  0  0  0  0  0  0  0  0  0
  -11.7951    7.5139   30.6202 H   0  0  0  0  0  0  0  0  0  0  0  0
  -11.1922    8.2046   29.0755 H   0  0  0  0  0  0  0  0  0  0  0  0
  -12.6214    7.1165   29.0755 H   0  0  0  0  0  0  0  0  0  0  0  0
  1  2  1  0
  1  4  1  0
  1  9  1  0
  2  3  1  0
  2 10  1  0
  3  8  1  0
  3 11  1  0
  4  5  2  0
  4 19  1  0
  5  6  1  0
  5 18  1  0
  6  9  2  0
  7 13  1  0
  7 16  2  0
  7 17  1  0
  8 14  1  0
  8 15  1  0
 10 15  1  0
 12 13  2  0
 12 20  1  0
 12 23  1  0
 13 33  1  0
 15 26  1  0
 16 21  1  0
 17 27  2  0
 17 28  1  0
 18 22  2  0
 18 32  1  0
 19 24  2  0
 21 23  2  0
 21 25  1  0
 22 24  1  0
 25 30  2  0
 25 31  1  0
 26 29  2  0
 28 38  1  0
 29 38  1  0
 30 36  1  0
 31 35  2  0
 32 39  1  0
 34 35  1  0
 34 36  2  0
 34 37  1  0
 39 40  1  0
 40 41  1  0
  2 42  1  0
  3 43  1  0
  8 44  1  0
  9 45  1  0
 11 46  1  0
 14 47  1  0
 14 48  1  0
 14 49  1  0
 15 50  1  0
 16 51  1  0
 20 52  1  0
 23 53  1  0
 24 54  1  0
 26 55  1  0
 28 56  1  0
 29 57  1  0
 30 58  1  0
 31 59  1  0
 32 60  1  0
 33 61  1  0
 35 62  1  0
 36 63  1  0
 38 64  1  0
 38 65  1  0
 39 66  1  0
 39 67  1  0
 40 68  1  0
 40 69  1  0
 41 70  1  0
 41 71  1  0
 41 72  1  0
A    1
N1
A    2
C2
A    3
C3
A    4
C4
A    5
C5
A    6
N6
A    7
C7
A    8
C8
A    9
C9
A   10
O10
A   11
O11
A   12
C12
A   13
C13
A   14
C14
A   15
C15
A   16
C16
A   17
C17
A   18
C18
A   19
N19
A   20
O20
A   21
C21
A   22
N22
A   23
C23
A   24
C24
A   25
C25
A   26
C26
A   27
O27
A   28
N28
A   29
C29
A   30
C30
A   31
C31
A   32
N32
A   33
O33
A   34
C34
A   35
C35
A   36
C36
A   37
F37
A   38
C38
A   39
C39
A   40
C40
A   41
C41
M  END
