3NWW_3NW_A_361
     RDKit          3D

 68 70  0  0  0  0  0  0  0  0999 V2000
   -3.5610    0.9220   20.4690 C   0  0  0  0  0  0  0  0  0  0  0  0
   -2.9290    1.0440   21.7220 C   0  0  0  0  0  0  0  0  0  0  0  0
   -2.3930    2.2650   22.1030 N   0  0  0  0  0  0  0  0  0  0  0  0
   -2.4350    3.3690   21.3390 C   0  0  0  0  0  0  0  0  0  0  0  0
   -3.0350    3.2950   20.1230 N   0  0  0  0  0  0  0  0  0  0  0  0
   -3.6000    2.0940   19.6720 C   0  0  0  0  0  0  0  0  0  0  0  0
   -2.8040   -0.0900   22.6800 C   0  0  0  0  0  0  0  0  0  0  0  0
   -2.9980   -1.4720   22.4390 C   0  0  0  0  0  0  0  0  0  0  0  0
   -2.7800   -2.1540   23.5930 N   0  0  0  0  0  0  0  0  0  0  0  0
   -2.4390   -1.4080   24.6770 C   0  0  0  0  0  0  0  0  0  0  0  0
   -2.3740    0.2510   24.2800 S   0  0  0  0  0  0  0  0  0  0  0  0
   -2.1680   -1.9840   26.0040 N   0  0  0  0  0  0  0  0  0  0  0  0
   -1.7040   -1.1800   27.1570 C   0  0  0  0  0  0  0  0  0  0  0  0
   -0.2040   -0.9250   27.0220 C   0  0  0  0  0  0  0  0  0  0  0  0
   -1.8580   -1.9620   28.4510 C   0  0  0  0  0  0  0  0  0  0  0  0
   -1.8650    4.5080   21.8410 N   0  0  0  0  0  0  0  0  0  0  0  0
   -5.5950    1.6950   15.7160 C   0  0  0  0  0  0  0  0  0  0  0  0
   -4.2660    1.9650   18.3460 C   0  0  0  0  0  0  0  0  0  0  0  0
   -3.5930    2.3120   17.0990 C   0  0  0  0  0  0  0  0  0  0  0  0
   -4.2380    2.1850   15.7950 C   0  0  0  0  0  0  0  0  0  0  0  0
   -6.2670    1.3480   16.9470 C   0  0  0  0  0  0  0  0  0  0  0  0
   -5.6540    1.4650   18.2370 C   0  0  0  0  0  0  0  0  0  0  0  0
   -2.1790    2.8320   17.0650 C   0  0  0  0  0  0  0  0  0  0  0  0
    1.9670    5.9860   22.1270 C   0  0  0  0  0  0  0  0  0  0  0  0
    0.5030    6.1880   22.0070 N   0  0  0  0  0  0  0  0  0  0  0  0
   -0.1610    5.6690   23.2220 C   0  0  0  0  0  0  0  0  0  0  0  0
   -0.8590    4.3590   22.9080 C   0  0  0  0  0  0  0  0  0  0  0  0
    0.1930    7.6240   21.9340 C   0  0  0  0  0  0  0  0  0  0  0  0
   -1.9550    3.6490   15.8730 N   0  0  0  0  0  0  0  0  0  0  0  0
   -0.7820    3.5740   15.1960 C   0  0  0  0  0  0  0  0  0  0  0  0
   -0.6810    4.4670   14.1920 N   0  0  0  0  0  0  0  0  0  0  0  0
    0.0990    2.7670   15.4760 O   0  0  0  0  0  0  0  0  0  0  0  0
    0.5320    4.4640   13.3650 C   0  0  0  0  0  0  0  0  0  0  0  0
    0.1160    4.3180   11.8940 C   0  0  0  0  0  0  0  0  0  0  0  0
   -3.9990   -0.0278   20.1285 H   0  0  0  0  0  0  0  0  0  0  0  0
   -3.2793   -1.9199   21.4745 H   0  0  0  0  0  0  0  0  0  0  0  0
   -2.3080   -2.9958   26.1368 H   0  0  0  0  0  0  0  0  0  0  0  0
   -2.2948   -0.2522   27.1735 H   0  0  0  0  0  0  0  0  0  0  0  0
    0.2464   -0.8484   28.0226 H   0  0  0  0  0  0  0  0  0  0  0  0
    0.2614   -1.7569   26.4731 H   0  0  0  0  0  0  0  0  0  0  0  0
   -0.0396    0.0140   26.4731 H   0  0  0  0  0  0  0  0  0  0  0  0
   -1.7245   -1.2843   29.3071 H   0  0  0  0  0  0  0  0  0  0  0  0
   -2.8617   -2.4103   28.4913 H   0  0  0  0  0  0  0  0  0  0  0  0
   -1.0992   -2.7574   28.4913 H   0  0  0  0  0  0  0  0  0  0  0  0
   -2.1301    5.4375   21.4852 H   0  0  0  0  0  0  0  0  0  0  0  0
   -6.1023    1.5891   14.7457 H   0  0  0  0  0  0  0  0  0  0  0  0
   -3.6945    2.4605   14.8792 H   0  0  0  0  0  0  0  0  0  0  0  0
   -7.3005    0.9755   16.8913 H   0  0  0  0  0  0  0  0  0  0  0  0
   -6.2129    1.1843   19.1419 H   0  0  0  0  0  0  0  0  0  0  0  0
   -1.9981    3.4440   17.9610 H   0  0  0  0  0  0  0  0  0  0  0  0
   -1.4888    1.9758   17.0406 H   0  0  0  0  0  0  0  0  0  0  0  0
    2.2459    5.9475   23.1904 H   0  0  0  0  0  0  0  0  0  0  0  0
    2.2478    5.0406   21.6398 H   0  0  0  0  0  0  0  0  0  0  0  0
    2.4934    6.8200   21.6398 H   0  0  0  0  0  0  0  0  0  0  0  0
    0.5919    5.5025   24.0065 H   0  0  0  0  0  0  0  0  0  0  0  0
   -0.9041    6.4015   23.5701 H   0  0  0  0  0  0  0  0  0  0  0  0
   -1.3587    3.9964   23.8184 H   0  0  0  0  0  0  0  0  0  0  0  0
   -0.0983    3.6453   22.5587 H   0  0  0  0  0  0  0  0  0  0  0  0
    0.1049    8.0323   22.9516 H   0  0  0  0  0  0  0  0  0  0  0  0
    0.9991    8.1463   21.3979 H   0  0  0  0  0  0  0  0  0  0  0  0
   -0.7568    7.7673   21.3979 H   0  0  0  0  0  0  0  0  0  0  0  0
   -2.6942    4.2868   15.5447 H   0  0  0  0  0  0  0  0  0  0  0  0
   -1.4400    5.1386   14.0083 H   0  0  0  0  0  0  0  0  0  0  0  0
    1.0789    5.4082   13.5044 H   0  0  0  0  0  0  0  0  0  0  0  0
    1.1863    3.6294   13.6571 H   0  0  0  0  0  0  0  0  0  0  0  0
   -0.9207    3.9542   11.8405 H   0  0  0  0  0  0  0  0  0  0  0  0
    0.1879    5.2951   11.3939 H   0  0  0  0  0  0  0  0  0  0  0  0
    0.7828    3.6002   11.3939 H   0  0  0  0  0  0  0  0  0  0  0  0
  6  1  2  0
  1  2  1  0
  2  3  2  0
  2  7  1  0
  4  3  1  0
  5  4  2  0
  4 16  1  0
  6  5  1  0
 18  6  1  0
  8  7  2  0
  7 11  1  0
  8  9  1  0
  9 10  2  0
 11 10  1  0
 10 12  1  0
 12 13  1  0
 14 13  1  0
 13 15  1  0
 16 27  1  0
 17 20  2  0
 17 21  1  0
 19 18  2  0
 22 18  1  0
 20 19  1  0
 23 19  1  0
 21 22  2  0
 29 23  1  0
 25 24  1  0
 28 25  1  0
 25 26  1  0
 27 26  1  0
 30 29  1  0
 31 30  1  0
 30 32  2  0
 33 31  1  0
 34 33  1  0
  1 35  1  0
  8 36  1  0
 12 37  1  0
 13 38  1  0
 14 39  1  0
 14 40  1  0
 14 41  1  0
 15 42  1  0
 15 43  1  0
 15 44  1  0
 16 45  1  0
 17 46  1  0
 20 47  1  0
 21 48  1  0
 22 49  1  0
 23 50  1  0
 23 51  1  0
 24 52  1  0
 24 53  1  0
 24 54  1  0
 26 55  1  0
 26 56  1  0
 27 57  1  0
 27 58  1  0
 28 59  1  0
 28 60  1  0
 28 61  1  0
 29 62  1  0
 31 63  1  0
 33 64  1  0
 33 65  1  0
 34 66  1  0
 34 67  1  0
 34 68  1  0
A    1
C1
A    2
C2
A    3
N3
A    4
C4
A    5
N5
A    6
C6
A    7
C7
A    8
C8
A    9
N9
A   10
C10
A   11
S11
A   12
N12
A   13
C13
A   14
C14
A   15
C15
A   16
N16
A   17
C17
A   18
C18
A   19
C19
A   20
C20
A   21
C21
A   22
C22
A   23
C23
A   24
C24
A   25
N25
A   26
C26
A   27
C27
A   28
C28
A   29
N29
A   30
C30
A   31
N31
A   32
O32
A   33
C33
A   34
C34
M  END
