3NX7_NHK_A_0
     RDKit          3D

 36 36  0  0  0  0  0  0  0  0999 V2000
   -0.2430   -5.7120   -5.3860 O   0  0  0  0  0  0  0  0  0  0  0  0
   -1.4900   -6.1600   -4.8000 S   0  0  0  0  0  0  0  0  0  0  0  0
   -1.4100   -7.5380   -4.3830 O   0  0  0  0  0  0  0  0  0  0  0  0
   -1.8370   -5.2410   -3.5980 N   0  0  0  0  0  0  0  0  0  0  0  0
   -1.2680   -3.8930   -3.4700 C   0  0  0  0  0  0  0  0  0  0  0  0
   -2.2030   -2.9050   -4.1410 C   0  0  0  0  0  0  0  0  0  0  0  0
   -3.3770   -2.8350   -3.8030 O   0  0  0  0  0  0  0  0  0  0  0  0
   -1.6850   -2.1590   -5.1280 N   0  0  0  0  0  0  0  0  0  0  0  0
   -2.4920   -1.2610   -5.8170 O   0  0  0  0  0  0  0  0  0  0  0  0
   -2.8340   -5.7010   -2.6370 C   0  0  0  0  0  0  0  0  0  0  0  0
   -2.4700   -5.2410   -1.2260 C   0  0  0  0  0  0  0  0  0  0  0  0
   -1.2690   -5.8930   -0.7980 O   0  0  0  0  0  0  0  0  0  0  0  0
   -2.6440   -6.0560   -5.9100 C   0  0  0  0  0  0  0  0  0  0  0  0
   -2.4930   -5.1620   -6.9740 C   0  0  0  0  0  0  0  0  0  0  0  0
   -3.4650   -5.0800   -7.9640 C   0  0  0  0  0  0  0  0  0  0  0  0
   -4.6030   -5.8860   -7.9030 C   0  0  0  0  0  0  0  0  0  0  0  0
   -4.7570   -6.7880   -6.8420 C   0  0  0  0  0  0  0  0  0  0  0  0
   -3.7760   -6.8890   -5.8520 C   0  0  0  0  0  0  0  0  0  0  0  0
   -5.5270   -5.7660   -8.9160 O   0  0  0  0  0  0  0  0  0  0  0  0
   -6.5950   -6.6760   -9.1820 C   0  0  0  0  0  0  0  0  0  0  0  0
   -1.1599   -3.6363   -2.4058 H   0  0  0  0  0  0  0  0  0  0  0  0
   -0.2782   -3.8569   -3.9486 H   0  0  0  0  0  0  0  0  0  0  0  0
   -0.6894   -2.2515   -5.3754 H   0  0  0  0  0  0  0  0  0  0  0  0
   -2.9928   -0.7037   -5.1699 H   0  0  0  0  0  0  0  0  0  0  0  0
   -3.8167   -5.2889   -2.9098 H   0  0  0  0  0  0  0  0  0  0  0  0
   -2.8652   -6.8004   -2.6556 H   0  0  0  0  0  0  0  0  0  0  0  0
   -2.3144   -4.1521   -1.2257 H   0  0  0  0  0  0  0  0  0  0  0  0
   -3.2883   -5.4987   -0.5375 H   0  0  0  0  0  0  0  0  0  0  0  0
   -1.2374   -5.9101    0.1913 H   0  0  0  0  0  0  0  0  0  0  0  0
   -1.6010   -4.5206   -7.0279 H   0  0  0  0  0  0  0  0  0  0  0  0
   -3.3369   -4.3764   -8.7998 H   0  0  0  0  0  0  0  0  0  0  0  0
   -5.6554   -7.4204   -6.7880 H   0  0  0  0  0  0  0  0  0  0  0  0
   -3.8882   -7.6148   -5.0331 H   0  0  0  0  0  0  0  0  0  0  0  0
   -7.0162   -7.0349   -8.2314 H   0  0  0  0  0  0  0  0  0  0  0  0
   -7.3782   -6.1634   -9.7598 H   0  0  0  0  0  0  0  0  0  0  0  0
   -6.2132   -7.5306   -9.7598 H   0  0  0  0  0  0  0  0  0  0  0  0
  1  2  2  0
  2  3  2  0
  2  4  1  0
  2 13  1  0
  4  5  1  0
  4 10  1  0
  5  6  1  0
  6  7  2  0
  6  8  1  0
  8  9  1  0
 10 11  1  0
 11 12  1  0
 13 14  2  0
 13 18  1  0
 14 15  1  0
 15 16  2  0
 16 17  1  0
 16 19  1  0
 17 18  2  0
 19 20  1  0
  5 21  1  0
  5 22  1  0
  8 23  1  0
  9 24  1  0
 10 25  1  0
 10 26  1  0
 11 27  1  0
 11 28  1  0
 12 29  1  0
 14 30  1  0
 15 31  1  0
 17 32  1  0
 18 33  1  0
 20 34  1  0
 20 35  1  0
 20 36  1  0
A    1
O4
A    2
S1
A    3
O3
A    4
N2
A    5
C10
A    6
C9
A    7
O1
A    8
N1
A    9
O2
A   10
C8
A   11
C6
A   12
O6
A   13
C3
A   14
C5
A   15
C7
A   16
C4
A   17
C2
A   18
C1
A   19
O5
A   20
C11
M  END
