3NXT_D2E_A_188
     RDKit          3D

 42 45  0  0  0  0  0  0  0  0999 V2000
   16.9650    5.9810    3.8350 N   0  0  0  0  0  0  0  0  0  0  0  0
   18.0130    6.8450    3.8990 C   0  0  0  0  0  0  0  0  0  0  0  0
   18.5190    7.4240    2.8270 N   0  0  0  0  0  0  0  0  0  0  0  0
   17.9390    7.2080    1.6500 C   0  0  0  0  0  0  0  0  0  0  0  0
   16.7740    6.4330    1.5030 C   0  0  0  0  0  0  0  0  0  0  0  0
   16.2890    5.7730    2.6780 C   0  0  0  0  0  0  0  0  0  0  0  0
   13.8190    2.0700   -2.9710 C   0  0  0  0  0  0  0  0  0  0  0  0
   18.6160    7.0160    5.0770 N   0  0  0  0  0  0  0  0  0  0  0  0
   15.2310    4.9160    2.7020 N   0  0  0  0  0  0  0  0  0  0  0  0
   15.2010    5.9220   -0.3780 C   0  0  0  0  0  0  0  0  0  0  0  0
   10.7310    4.8560   -2.6590 C   0  0  0  0  0  0  0  0  0  0  0  0
   11.0280    6.1880   -2.3230 C   0  0  0  0  0  0  0  0  0  0  0  0
   11.7140    3.8650   -2.6820 C   0  0  0  0  0  0  0  0  0  0  0  0
   12.3200    6.5980   -1.9720 C   0  0  0  0  0  0  0  0  0  0  0  0
   17.3470    7.2890   -0.4780 C   0  0  0  0  0  0  0  0  0  0  0  0
   15.3240    7.5310   -3.7280 C   0  0  0  0  0  0  0  0  0  0  0  0
   15.2090    6.0770   -4.2390 C   0  0  0  0  0  0  0  0  0  0  0  0
   14.1120    3.3940   -2.3810 O   0  0  0  0  0  0  0  0  0  0  0  0
   18.2950    7.7460    0.5070 O   0  0  0  0  0  0  0  0  0  0  0  0
   14.6680    6.0700   -1.6790 C   0  0  0  0  0  0  0  0  0  0  0  0
   16.4280    6.4820    0.1520 C   0  0  0  0  0  0  0  0  0  0  0  0
   13.0420    4.2860   -2.3730 C   0  0  0  0  0  0  0  0  0  0  0  0
   13.3230    5.6360   -2.0330 C   0  0  0  0  0  0  0  0  0  0  0  0
   15.6550    6.3710   -2.8060 C   0  0  0  0  0  0  0  0  0  0  0  0
   13.6570    1.3377   -2.1663 H   0  0  0  0  0  0  0  0  0  0  0  0
   12.9141    2.1378   -3.5928 H   0  0  0  0  0  0  0  0  0  0  0  0
   14.6680    1.7497   -3.5928 H   0  0  0  0  0  0  0  0  0  0  0  0
   18.0911    6.8672    5.9506 H   0  0  0  0  0  0  0  0  0  0  0  0
   19.6063    7.2968    5.1127 H   0  0  0  0  0  0  0  0  0  0  0  0
   14.8431    4.6018    3.6029 H   0  0  0  0  0  0  0  0  0  0  0  0
   14.8187    4.5820    1.8192 H   0  0  0  0  0  0  0  0  0  0  0  0
   14.6120    5.3061    0.3175 H   0  0  0  0  0  0  0  0  0  0  0  0
    9.6947    4.5867   -2.9110 H   0  0  0  0  0  0  0  0  0  0  0  0
   10.2188    6.9330   -2.3362 H   0  0  0  0  0  0  0  0  0  0  0  0
   11.4781    2.8184   -2.9247 H   0  0  0  0  0  0  0  0  0  0  0  0
   12.5319    7.6321   -1.6626 H   0  0  0  0  0  0  0  0  0  0  0  0
   17.3567    7.5418   -1.5485 H   0  0  0  0  0  0  0  0  0  0  0  0
   16.1269    8.1837   -4.1014 H   0  0  0  0  0  0  0  0  0  0  0  0
   14.6450    8.3950   -3.6792 H   0  0  0  0  0  0  0  0  0  0  0  0
   14.2198    5.6353   -4.4299 H   0  0  0  0  0  0  0  0  0  0  0  0
   15.6220    5.5103   -5.0865 H   0  0  0  0  0  0  0  0  0  0  0  0
   16.5267    6.0883   -2.1975 H   0  0  0  0  0  0  0  0  0  0  0  0
  1  2  2  0
  1  6  1  0
  2  3  1  0
  2  8  1  0
  3  4  2  0
  4  5  1  0
  4 19  1  0
  5  6  2  0
  5 21  1  0
  6  9  1  0
  7 18  1  0
 10 20  2  0
 10 21  1  0
 11 12  2  0
 11 13  1  0
 12 14  1  0
 13 22  2  0
 14 23  2  0
 15 19  1  0
 15 21  2  0
 16 17  1  0
 16 24  1  0
 17 24  1  0
 18 22  1  0
 20 23  1  0
 20 24  1  0
 22 23  1  0
  7 25  1  0
  7 26  1  0
  7 27  1  0
  8 28  1  0
  8 29  1  0
  9 30  1  0
  9 31  1  0
 10 32  1  0
 11 33  1  0
 12 34  1  0
 13 35  1  0
 14 36  1  0
 15 37  1  0
 16 38  1  0
 16 39  1  0
 17 40  1  0
 17 41  1  0
 24 42  1  0
A    1
N1
A    2
C2
A    3
N3
A    4
C4
A    5
C5
A    6
C6
A    7
CAA
A    8
NAB
A    9
NAC
A   10
CAD
A   11
CAE
A   12
CAF
A   13
CAG
A   14
CAH
A   15
CAI
A   16
CAJ
A   17
CAK
A   18
OAN
A   19
OAO
A   20
CAP
A   21
CAR
A   22
CAT
A   23
CAU
A   24
CAX
M  END
