1HXW_RIT_B_301
     RDKit          3D

 98101  0  0  0  0  0  0  0  0999 V2000
   16.6620   17.7900    1.4940 C   0  0  0  0  0  0  0  0  0  0  0  0
   16.2290   17.9350    2.7840 C   0  0  0  0  0  0  0  0  0  0  0  0
   17.3450   17.3240    4.0360 S   0  0  0  0  0  0  0  0  0  0  0  0
   18.3160   17.1130    2.5550 C   0  0  0  0  0  0  0  0  0  0  0  0
   17.8670   17.3660    1.3770 N   0  0  0  0  0  0  0  0  0  0  0  0
   15.0730   18.4170    3.4890 C   0  0  0  0  0  0  0  0  0  0  0  0
   15.1860   19.8130    3.7080 O   0  0  0  0  0  0  0  0  0  0  0  0
   14.2160   20.6020    4.3390 C   0  0  0  0  0  0  0  0  0  0  0  0
   13.1030   20.1700    4.6600 O   0  0  0  0  0  0  0  0  0  0  0  0
   14.6500   21.8720    4.5250 N   0  0  0  0  0  0  0  0  0  0  0  0
   13.8730   22.9120    5.2280 C   0  0  0  0  0  0  0  0  0  0  0  0
   13.5030   24.1400    4.3920 C   0  0  0  0  0  0  0  0  0  0  0  0
   12.6720   23.8060    3.1710 C   0  0  0  0  0  0  0  0  0  0  0  0
   11.1400   23.5720    3.3150 C   0  0  0  0  0  0  0  0  0  0  0  0
   14.2610   23.2430    6.6710 C   0  0  0  0  0  0  0  0  0  0  0  0
   14.8160   22.2250    7.5340 C   0  0  0  0  0  0  0  0  0  0  0  0
   13.7990   21.7080    8.3440 C   0  0  0  0  0  0  0  0  0  0  0  0
   14.0980   20.6030    9.1570 C   0  0  0  0  0  0  0  0  0  0  0  0
   15.3740   20.0130    9.1710 C   0  0  0  0  0  0  0  0  0  0  0  0
   16.3920   20.5660    8.3640 C   0  0  0  0  0  0  0  0  0  0  0  0
   16.1150   21.6680    7.5490 C   0  0  0  0  0  0  0  0  0  0  0  0
   14.7540   24.6640    3.9780 O   0  0  0  0  0  0  0  0  0  0  0  0
   10.5690   23.5860    1.9290 C   0  0  0  0  0  0  0  0  0  0  0  0
    9.2540   22.9780    2.0010 C   0  0  0  0  0  0  0  0  0  0  0  0
    8.1490   23.8450    2.0180 C   0  0  0  0  0  0  0  0  0  0  0  0
    6.8360   23.3350    2.0410 C   0  0  0  0  0  0  0  0  0  0  0  0
    6.6600   21.9490    2.0260 C   0  0  0  0  0  0  0  0  0  0  0  0
    7.7560   21.0900    2.0030 C   0  0  0  0  0  0  0  0  0  0  0  0
    9.0590   21.5930    1.9920 C   0  0  0  0  0  0  0  0  0  0  0  0
   10.4690   24.5540    4.1370 N   0  0  0  0  0  0  0  0  0  0  0  0
    7.9060   25.6800    5.5030 N   0  0  0  0  0  0  0  0  0  0  0  0
    9.2740   25.5150    5.9960 C   0  0  0  0  0  0  0  0  0  0  0  0
    9.9600   24.2980    5.3480 C   0  0  0  0  0  0  0  0  0  0  0  0
    9.9680   23.1590    5.8580 O   0  0  0  0  0  0  0  0  0  0  0  0
    9.2550   25.5670    7.5570 C   0  0  0  0  0  0  0  0  0  0  0  0
   10.5960   25.2750    8.2820 C   0  0  0  0  0  0  0  0  0  0  0  0
    8.5650   26.8410    8.0950 C   0  0  0  0  0  0  0  0  0  0  0  0
    7.6650   26.5180    4.4810 C   0  0  0  0  0  0  0  0  0  0  0  0
    6.4230   26.4000    3.9580 N   0  0  0  0  0  0  0  0  0  0  0  0
    5.9690   27.3450    2.9380 C   0  0  0  0  0  0  0  0  0  0  0  0
    8.4710   27.4270    4.1920 O   0  0  0  0  0  0  0  0  0  0  0  0
    5.9100   26.8490    1.5590 C   0  0  0  0  0  0  0  0  0  0  0  0
    7.0240   27.0120    0.7840 C   0  0  0  0  0  0  0  0  0  0  0  0
    6.6390   26.2570   -0.7850 S   0  0  0  0  0  0  0  0  0  0  0  0
    5.0870   25.7360   -0.1240 C   0  0  0  0  0  0  0  0  0  0  0  0
    4.8710   26.2630    1.0440 N   0  0  0  0  0  0  0  0  0  0  0  0
    4.4970   24.8860   -1.0460 C   0  0  0  0  0  0  0  0  0  0  0  0
    4.1390   25.1310   -2.5060 C   0  0  0  0  0  0  0  0  0  0  0  0
    3.2450   24.3730   -0.4620 C   0  0  0  0  0  0  0  0  0  0  0  0
    5.4840   25.5080    4.2400 C   0  0  0  0  0  0  0  0  0  0  0  0
   16.0267   18.0190    0.6257 H   0  0  0  0  0  0  0  0  0  0  0  0
   19.3492   16.7487    2.6541 H   0  0  0  0  0  0  0  0  0  0  0  0
   14.1715   18.2136    2.8925 H   0  0  0  0  0  0  0  0  0  0  0  0
   15.0018   17.9038    4.4593 H   0  0  0  0  0  0  0  0  0  0  0  0
   15.5765   22.1268    4.1541 H   0  0  0  0  0  0  0  0  0  0  0  0
   12.9305   22.3622    5.3671 H   0  0  0  0  0  0  0  0  0  0  0  0
   12.8892   24.8371    4.9814 H   0  0  0  0  0  0  0  0  0  0  0  0
   12.8015   24.6365    2.4614 H   0  0  0  0  0  0  0  0  0  0  0  0
   13.0520   22.8193    2.8676 H   0  0  0  0  0  0  0  0  0  0  0  0
   10.9806   22.6122    3.8282 H   0  0  0  0  0  0  0  0  0  0  0  0
   15.0045   24.0520    6.6196 H   0  0  0  0  0  0  0  0  0  0  0  0
   13.2924   23.4653    7.1425 H   0  0  0  0  0  0  0  0  0  0  0  0
   12.7937   22.1546    8.3439 H   0  0  0  0  0  0  0  0  0  0  0  0
   13.3104   20.1865    9.8022 H   0  0  0  0  0  0  0  0  0  0  0  0
   15.5761   19.1342    9.8009 H   0  0  0  0  0  0  0  0  0  0  0  0
   17.4020   20.1304    8.3764 H   0  0  0  0  0  0  0  0  0  0  0  0
   16.9071   22.1009    6.9203 H   0  0  0  0  0  0  0  0  0  0  0  0
   15.2965   24.8912    4.7744 H   0  0  0  0  0  0  0  0  0  0  0  0
   10.4863   24.6210    1.5658 H   0  0  0  0  0  0  0  0  0  0  0  0
   11.2176   23.0328    1.2338 H   0  0  0  0  0  0  0  0  0  0  0  0
    8.3105   24.9331    2.0133 H   0  0  0  0  0  0  0  0  0  0  0  0
    5.9696   24.0121    2.0701 H   0  0  0  0  0  0  0  0  0  0  0  0
    5.6426   21.5309    2.0324 H   0  0  0  0  0  0  0  0  0  0  0  0
    7.5935   20.0021    1.9934 H   0  0  0  0  0  0  0  0  0  0  0  0
    9.9203   20.9090    1.9765 H   0  0  0  0  0  0  0  0  0  0  0  0
   10.3769   25.5109    3.7673 H   0  0  0  0  0  0  0  0  0  0  0  0
    7.1324   25.1566    5.9371 H   0  0  0  0  0  0  0  0  0  0  0  0
    9.9219   26.3473    5.6837 H   0  0  0  0  0  0  0  0  0  0  0  0
    8.6355   24.6977    7.8226 H   0  0  0  0  0  0  0  0  0  0  0  0
   10.4395   25.3091    9.3703 H   0  0  0  0  0  0  0  0  0  0  0  0
   10.9584   24.2769    7.9948 H   0  0  0  0  0  0  0  0  0  0  0  0
   11.3405   26.0321    7.9948 H   0  0  0  0  0  0  0  0  0  0  0  0
    8.5732   26.8258    9.1949 H   0  0  0  0  0  0  0  0  0  0  0  0
    9.1051   27.7297    7.7365 H   0  0  0  0  0  0  0  0  0  0  0  0
    7.5256   26.8742    7.7365 H   0  0  0  0  0  0  0  0  0  0  0  0
    4.9575   27.6756    3.2167 H   0  0  0  0  0  0  0  0  0  0  0  0
    6.7265   28.1426    2.9258 H   0  0  0  0  0  0  0  0  0  0  0  0
    7.9641   27.5068    1.0693 H   0  0  0  0  0  0  0  0  0  0  0  0
    5.4128   24.2938   -1.1891 H   0  0  0  0  0  0  0  0  0  0  0  0
    3.2324   25.7514   -2.5621 H   0  0  0  0  0  0  0  0  0  0  0  0
    4.9703   25.6504   -3.0052 H   0  0  0  0  0  0  0  0  0  0  0  0
    3.9558   24.1681   -3.0052 H   0  0  0  0  0  0  0  0  0  0  0  0
    3.3138   24.4012    0.6355 H   0  0  0  0  0  0  0  0  0  0  0  0
    2.4028   24.9985   -0.7928 H   0  0  0  0  0  0  0  0  0  0  0  0
    3.0839   23.3364   -0.7928 H   0  0  0  0  0  0  0  0  0  0  0  0
    5.3842   25.4132    5.3314 H   0  0  0  0  0  0  0  0  0  0  0  0
    4.5257   25.8364    3.8113 H   0  0  0  0  0  0  0  0  0  0  0  0
    5.7628   24.5341    3.8113 H   0  0  0  0  0  0  0  0  0  0  0  0
  1  2  2  0
  1  5  1  0
  2  3  1  0
  2  6  1  0
  3  4  1  0
  4  5  2  0
  6  7  1  0
  7  8  1  0
  8 10  1  0
  8  9  2  0
 10 11  1  0
 11 12  1  0
 11 15  1  0
 12 13  1  0
 12 22  1  0
 13 14  1  0
 14 23  1  0
 14 30  1  0
 33 32  1  0
 33 30  1  0
 33 34  2  0
 32 31  1  0
 32 35  1  0
 31 38  1  0
 38 39  1  0
 38 41  2  0
 15 16  1  0
 16 17  2  0
 16 21  1  0
 17 18  1  0
 18 19  2  0
 19 20  1  0
 20 21  2  0
 23 24  1  0
 24 25  2  0
 24 29  1  0
 25 26  1  0
 26 27  2  0
 27 28  1  0
 28 29  2  0
 35 36  1  0
 35 37  1  0
 39 40  1  0
 39 50  1  0
 40 42  1  0
 42 43  2  0
 42 46  1  0
 43 44  1  0
 44 45  1  0
 45 46  2  0
 45 47  1  0
 47 48  1  0
 47 49  1  0
  1 51  1  0
  4 52  1  0
  6 53  1  0
  6 54  1  0
 10 55  1  0
 11 56  1  0
 12 57  1  0
 13 58  1  0
 13 59  1  0
 14 60  1  0
 15 61  1  0
 15 62  1  0
 17 63  1  0
 18 64  1  0
 19 65  1  0
 20 66  1  0
 21 67  1  0
 22 68  1  0
 23 69  1  0
 23 70  1  0
 25 71  1  0
 26 72  1  0
 27 73  1  0
 28 74  1  0
 29 75  1  0
 30 76  1  0
 31 77  1  0
 32 78  1  0
 35 79  1  0
 36 80  1  0
 36 81  1  0
 36 82  1  0
 37 83  1  0
 37 84  1  0
 37 85  1  0
 40 86  1  0
 40 87  1  0
 43 88  1  0
 47 89  1  0
 48 90  1  0
 48 91  1  0
 48 92  1  0
 49 93  1  0
 49 94  1  0
 49 95  1  0
 50 96  1  0
 50 97  1  0
 50 98  1  0
A    1
C1
A    2
C2
A    3
S3
A    4
C4
A    5
N5
A    6
C6
A    7
O7
A    8
C10
A    9
O24
A   10
N11
A   11
C12
A   12
C13
A   13
C14
A   14
C15
A   15
C26
A   16
C28
A   17
C31
A   18
C32
A   19
C33
A   20
C34
A   21
C35
A   22
O41
A   23
C44
A   24
C45
A   25
C48
A   26
C49
A   27
C50
A   28
C51
A   29
C52
A   30
N58
A   31
N20
A   32
C19
A   33
C18
A   34
O61
A   35
C62
A   36
C64
A   37
C68
A   38
C21
A   39
N74
A   40
C75
A   41
O76
A   42
C77
A   43
C80
A   44
S81
A   45
C82
A   46
N83
A   47
C85
A   48
C86
A   49
C90
A   50
C95
M  END
