3NXV_D2F_A_187
     RDKit          3D

 47 49  0  0  0  0  0  0  0  0999 V2000
   -3.6180   17.6400   -3.7990 N   0  0  0  0  0  0  0  0  0  0  0  0
   -3.0420   18.8570   -4.0000 C   0  0  0  0  0  0  0  0  0  0  0  0
   -2.7460   19.6780   -2.9640 N   0  0  0  0  0  0  0  0  0  0  0  0
   -2.9530   19.2910   -1.6980 C   0  0  0  0  0  0  0  0  0  0  0  0
   -3.5240   18.0460   -1.4350 C   0  0  0  0  0  0  0  0  0  0  0  0
   -3.8630   17.2220   -2.5440 C   0  0  0  0  0  0  0  0  0  0  0  0
   -0.3710   17.2730    3.9360 C   0  0  0  0  0  0  0  0  0  0  0  0
   -4.3650   12.1890   -0.9770 C   0  0  0  0  0  0  0  0  0  0  0  0
   -2.8070   19.2400   -5.2570 N   0  0  0  0  0  0  0  0  0  0  0  0
   -4.4130   16.0010   -2.3870 N   0  0  0  0  0  0  0  0  0  0  0  0
   -4.1790   16.8130    0.6880 C   0  0  0  0  0  0  0  0  0  0  0  0
   -5.3490   12.4010    2.9650 C   0  0  0  0  0  0  0  0  0  0  0  0
   -5.0160   13.5200    3.7190 C   0  0  0  0  0  0  0  0  0  0  0  0
   -5.0420   12.3760    1.6110 C   0  0  0  0  0  0  0  0  0  0  0  0
   -4.3950   14.6250    3.1380 C   0  0  0  0  0  0  0  0  0  0  0  0
   -3.1440   19.0340    0.5250 C   0  0  0  0  0  0  0  0  0  0  0  0
   -1.3890   16.9930    2.8630 C   0  0  0  0  0  0  0  0  0  0  0  0
   -1.0700   15.7010    2.0990 C   0  0  0  0  0  0  0  0  0  0  0  0
   -1.9180   15.6560    0.8240 C   0  0  0  0  0  0  0  0  0  0  0  0
   -4.1080   13.4500   -0.2960 O   0  0  0  0  0  0  0  0  0  0  0  0
   -2.7110   19.8860   -0.5210 O   0  0  0  0  0  0  0  0  0  0  0  0
   -3.4320   15.7220    1.1530 C   0  0  0  0  0  0  0  0  0  0  0  0
   -3.6290   17.9310   -0.0440 C   0  0  0  0  0  0  0  0  0  0  0  0
   -4.4190   13.4790    1.0260 C   0  0  0  0  0  0  0  0  0  0  0  0
   -4.0900   14.6260    1.7820 C   0  0  0  0  0  0  0  0  0  0  0  0
   -0.8358   17.1452    4.9247 H   0  0  0  0  0  0  0  0  0  0  0  0
    0.4715   16.5732    3.8337 H   0  0  0  0  0  0  0  0  0  0  0  0
   -0.0048   18.3052    3.8337 H   0  0  0  0  0  0  0  0  0  0  0  0
   -4.5266   11.3961   -0.2318 H   0  0  0  0  0  0  0  0  0  0  0  0
   -5.2613   12.2884   -1.6068 H   0  0  0  0  0  0  0  0  0  0  0  0
   -3.5012   11.9297   -1.6068 H   0  0  0  0  0  0  0  0  0  0  0  0
   -2.2771   20.1037   -5.4417 H   0  0  0  0  0  0  0  0  0  0  0  0
   -3.1556   18.6718   -6.0422 H   0  0  0  0  0  0  0  0  0  0  0  0
   -4.5804   15.6293   -1.4411 H   0  0  0  0  0  0  0  0  0  0  0  0
   -4.6657   15.4399   -3.2130 H   0  0  0  0  0  0  0  0  0  0  0  0
   -5.2594   16.8186    0.8947 H   0  0  0  0  0  0  0  0  0  0  0  0
   -5.8510   11.5432    3.4364 H   0  0  0  0  0  0  0  0  0  0  0  0
   -5.2467   13.5342    4.7944 H   0  0  0  0  0  0  0  0  0  0  0  0
   -5.2883   11.4926    1.0036 H   0  0  0  0  0  0  0  0  0  0  0  0
   -4.1453   15.5002    3.7558 H   0  0  0  0  0  0  0  0  0  0  0  0
   -3.0900   19.2436    1.6035 H   0  0  0  0  0  0  0  0  0  0  0  0
   -2.3804   16.8955    3.3294 H   0  0  0  0  0  0  0  0  0  0  0  0
   -1.3697   17.8277    2.1468 H   0  0  0  0  0  0  0  0  0  0  0  0
   -0.0027   15.6831    1.8334 H   0  0  0  0  0  0  0  0  0  0  0  0
   -1.2987   14.8291    2.7295 H   0  0  0  0  0  0  0  0  0  0  0  0
   -1.6521   16.5118    0.1862 H   0  0  0  0  0  0  0  0  0  0  0  0
   -1.7160   14.7072    0.3054 H   0  0  0  0  0  0  0  0  0  0  0  0
  1  2  2  0
  1  6  1  0
  2  3  1  0
  2  9  1  0
  3  4  2  0
  4  5  1  0
  4 21  1  0
  5  6  2  0
  5 23  1  0
  6 10  1  0
  7 17  1  0
  8 20  1  0
 11 22  2  0
 11 23  1  0
 12 13  2  0
 12 14  1  0
 13 15  1  0
 14 24  2  0
 15 25  2  0
 16 21  1  0
 16 23  2  0
 17 18  1  0
 18 19  1  0
 19 22  1  0
 20 24  1  0
 22 25  1  0
 24 25  1  0
  7 26  1  0
  7 27  1  0
  7 28  1  0
  8 29  1  0
  8 30  1  0
  8 31  1  0
  9 32  1  0
  9 33  1  0
 10 34  1  0
 10 35  1  0
 11 36  1  0
 12 37  1  0
 13 38  1  0
 14 39  1  0
 15 40  1  0
 16 41  1  0
 17 42  1  0
 17 43  1  0
 18 44  1  0
 18 45  1  0
 19 46  1  0
 19 47  1  0
A    1
N1
A    2
C2
A    3
N3
A    4
C4
A    5
C5
A    6
C6
A    7
CAA
A    8
CAB
A    9
NAC
A   10
NAD
A   11
CAE
A   12
CAF
A   13
CAG
A   14
CAH
A   15
CAI
A   16
CAJ
A   17
CAK
A   18
CAL
A   19
CAM
A   20
OAP
A   21
OAQ
A   22
CAR
A   23
CAT
A   24
CAV
A   25
CAW
M  END
