3NXR_D2D_A_192
     RDKit          3D

 44 46  0  0  0  0  0  0  0  0999 V2000
   -3.4190  -30.9460   -3.7320 N   0  0  0  0  0  0  0  0  0  0  0  0
   -2.9660  -29.6770   -3.8440 C   0  0  0  0  0  0  0  0  0  0  0  0
   -2.6860  -28.8690   -2.8340 N   0  0  0  0  0  0  0  0  0  0  0  0
   -2.8370  -29.3500   -1.6270 C   0  0  0  0  0  0  0  0  0  0  0  0
   -3.2720  -30.6360   -1.3890 C   0  0  0  0  0  0  0  0  0  0  0  0
   -3.5860  -31.4820   -2.4800 C   0  0  0  0  0  0  0  0  0  0  0  0
   -0.9350  -31.5900    3.0340 C   0  0  0  0  0  0  0  0  0  0  0  0
   -4.1290  -36.2770   -1.0790 C   0  0  0  0  0  0  0  0  0  0  0  0
   -2.8490  -29.1660   -5.1110 N   0  0  0  0  0  0  0  0  0  0  0  0
   -4.0440  -32.7160   -2.4260 N   0  0  0  0  0  0  0  0  0  0  0  0
   -3.7980  -31.7250    0.8860 C   0  0  0  0  0  0  0  0  0  0  0  0
   -5.2830  -36.1790    2.9360 C   0  0  0  0  0  0  0  0  0  0  0  0
   -4.8960  -35.1190    3.7480 C   0  0  0  0  0  0  0  0  0  0  0  0
   -4.9740  -36.1520    1.5700 C   0  0  0  0  0  0  0  0  0  0  0  0
   -4.1690  -34.0510    3.2120 C   0  0  0  0  0  0  0  0  0  0  0  0
   -2.8660  -29.4620    0.5230 C   0  0  0  0  0  0  0  0  0  0  0  0
   -0.7980  -32.8890    2.1650 C   0  0  0  0  0  0  0  0  0  0  0  0
   -1.6710  -32.9860    0.8380 C   0  0  0  0  0  0  0  0  0  0  0  0
   -3.9400  -35.0290   -0.3780 O   0  0  0  0  0  0  0  0  0  0  0  0
   -2.5610  -28.6010   -0.5500 O   0  0  0  0  0  0  0  0  0  0  0  0
   -3.1390  -32.9160    1.2620 C   0  0  0  0  0  0  0  0  0  0  0  0
   -3.3260  -30.6410    0.0410 C   0  0  0  0  0  0  0  0  0  0  0  0
   -4.2680  -35.0510    1.0190 C   0  0  0  0  0  0  0  0  0  0  0  0
   -3.8430  -34.0010    1.8720 C   0  0  0  0  0  0  0  0  0  0  0  0
   -0.9068  -31.8577    4.1006 H   0  0  0  0  0  0  0  0  0  0  0  0
   -0.1040  -30.9066    2.8054 H   0  0  0  0  0  0  0  0  0  0  0  0
   -1.8903  -31.0950    2.8054 H   0  0  0  0  0  0  0  0  0  0  0  0
   -4.2524  -37.0918   -0.3504 H   0  0  0  0  0  0  0  0  0  0  0  0
   -5.0273  -36.2105   -1.7104 H   0  0  0  0  0  0  0  0  0  0  0  0
   -3.2513  -36.4795   -1.7104 H   0  0  0  0  0  0  0  0  0  0  0  0
   -2.6211  -28.1706   -5.2458 H   0  0  0  0  0  0  0  0  0  0  0  0
   -2.9890  -29.7775   -5.9279 H   0  0  0  0  0  0  0  0  0  0  0  0
   -4.2103  -33.1641   -1.5136 H   0  0  0  0  0  0  0  0  0  0  0  0
   -4.2358  -33.2327   -3.2961 H   0  0  0  0  0  0  0  0  0  0  0  0
   -4.8133  -31.6000    1.2904 H   0  0  0  0  0  0  0  0  0  0  0  0
   -5.8283  -37.0334    3.3634 H   0  0  0  0  0  0  0  0  0  0  0  0
   -5.1623  -35.1202    4.8153 H   0  0  0  0  0  0  0  0  0  0  0  0
   -5.2795  -36.9869    0.9222 H   0  0  0  0  0  0  0  0  0  0  0  0
   -3.8498  -33.2323    3.8737 H   0  0  0  0  0  0  0  0  0  0  0  0
   -2.7485  -29.2145    1.5883 H   0  0  0  0  0  0  0  0  0  0  0  0
    0.2582  -32.9777    1.8707 H   0  0  0  0  0  0  0  0  0  0  0  0
   -1.1791  -33.6957    2.8084 H   0  0  0  0  0  0  0  0  0  0  0  0
   -1.4315  -32.1485    0.1663 H   0  0  0  0  0  0  0  0  0  0  0  0
   -1.4625  -33.9217    0.2986 H   0  0  0  0  0  0  0  0  0  0  0  0
  1  2  2  0
  1  6  1  0
  2  3  1  0
  2  9  1  0
  3  4  2  0
  4  5  1  0
  4 20  1  0
  5  6  2  0
  5 22  1  0
  6 10  1  0
  7 17  1  0
  8 19  1  0
 11 21  2  0
 11 22  1  0
 12 13  2  0
 12 14  1  0
 13 15  1  0
 14 23  2  0
 15 24  2  0
 16 20  1  0
 16 22  2  0
 17 18  1  0
 18 21  1  0
 19 23  1  0
 21 24  1  0
 23 24  1  0
  7 25  1  0
  7 26  1  0
  7 27  1  0
  8 28  1  0
  8 29  1  0
  8 30  1  0
  9 31  1  0
  9 32  1  0
 10 33  1  0
 10 34  1  0
 11 35  1  0
 12 36  1  0
 13 37  1  0
 14 38  1  0
 15 39  1  0
 16 40  1  0
 17 41  1  0
 17 42  1  0
 18 43  1  0
 18 44  1  0
A    1
N1
A    2
C2
A    3
N3
A    4
C4
A    5
C5
A    6
C6
A    7
CAA
A    8
CAB
A    9
NAC
A   10
NAD
A   11
CAE
A   12
CAF
A   13
CAG
A   14
CAH
A   15
CAI
A   16
CAJ
A   17
CAK
A   18
CAL
A   19
OAO
A   20
OAP
A   21
CAQ
A   22
CAS
A   23
CAU
A   24
CAV
M  END
