3NY4_SMX_A_308
     RDKit          3D

 49 52  0  0  0  0  0  0  0  0999 V2000
  -11.0130  -10.2260    4.4700 C   0  0  0  0  0  0  0  0  0  0  0  0
  -10.3130  -12.1860    3.1360 N   0  0  0  0  0  0  0  0  0  0  0  0
  -12.1760  -10.0840    4.4510 O   0  0  0  0  0  0  0  0  0  0  0  0
  -10.1440  -11.4850    4.4150 C   0  0  0  0  0  0  0  0  0  0  0  0
   -9.0220  -10.4860    4.3680 C   0  0  0  0  0  0  0  0  0  0  0  0
  -10.0360   -9.3960    4.3890 N   0  0  0  0  0  0  0  0  0  0  0  0
   -5.7270   -4.4900    2.6640 N   0  0  0  0  0  0  0  0  0  0  0  0
   -4.6510   -4.5840    1.0230 N   0  0  0  0  0  0  0  0  0  0  0  0
   -5.5770   -5.2730    0.7490 N   0  0  0  0  0  0  0  0  0  0  0  0
   -4.7070   -4.1180    2.1540 N   0  0  0  0  0  0  0  0  0  0  0  0
   -6.0750   -4.0880    3.9740 C   0  0  0  0  0  0  0  0  0  0  0  0
  -11.2020   -7.0510    5.6550 O   0  0  0  0  0  0  0  0  0  0  0  0
   -8.7790  -13.7430    3.5940 O   0  0  0  0  0  0  0  0  0  0  0  0
  -11.3760   -6.2920    3.3430 O   0  0  0  0  0  0  0  0  0  0  0  0
   -9.6080  -15.3170    1.5790 O   0  0  0  0  0  0  0  0  0  0  0  0
   -8.6670  -11.9700   -2.0140 C   0  0  0  0  0  0  0  0  0  0  0  0
   -9.5950  -12.9680   -2.0840 C   0  0  0  0  0  0  0  0  0  0  0  0
   -8.1150  -11.6270   -0.8230 C   0  0  0  0  0  0  0  0  0  0  0  0
   -9.9620  -13.6050   -0.9260 C   0  0  0  0  0  0  0  0  0  0  0  0
   -8.4750  -12.3090    0.3310 C   0  0  0  0  0  0  0  0  0  0  0  0
   -8.3270   -6.2090    3.6400 C   0  0  0  0  0  0  0  0  0  0  0  0
   -7.3570   -8.6030    3.5370 C   0  0  0  0  0  0  0  0  0  0  0  0
   -7.8850   -6.0530    1.9670 S   0  0  0  0  0  0  0  0  0  0  0  0
   -7.9360  -10.2570    2.9700 S   0  0  0  0  0  0  0  0  0  0  0  0
  -10.8320   -7.1000    4.3810 C   0  0  0  0  0  0  0  0  0  0  0  0
   -9.6020  -13.2870    2.8600 C   0  0  0  0  0  0  0  0  0  0  0  0
   -8.5490   -7.6720    3.8210 C   0  0  0  0  0  0  0  0  0  0  0  0
   -9.7460   -8.0910    4.1520 C   0  0  0  0  0  0  0  0  0  0  0  0
   -9.3970  -13.2660    0.2830 C   0  0  0  0  0  0  0  0  0  0  0  0
   -6.3050   -5.2750    1.8070 C   0  0  0  0  0  0  0  0  0  0  0  0
   -9.6700  -13.9360    1.5380 C   0  0  0  0  0  0  0  0  0  0  0  0
  -10.9857  -11.8271    2.4435 H   0  0  0  0  0  0  0  0  0  0  0  0
  -10.1966  -12.3188    5.1305 H   0  0  0  0  0  0  0  0  0  0  0  0
   -8.2173  -10.6783    5.0928 H   0  0  0  0  0  0  0  0  0  0  0  0
   -5.5363   -4.7103    4.7038 H   0  0  0  0  0  0  0  0  0  0  0  0
   -5.8007   -3.0326    4.1187 H   0  0  0  0  0  0  0  0  0  0  0  0
   -7.1588   -4.2083    4.1187 H   0  0  0  0  0  0  0  0  0  0  0  0
  -11.9143   -5.4924    3.5687 H   0  0  0  0  0  0  0  0  0  0  0  0
   -9.5944  -15.6189    2.5218 H   0  0  0  0  0  0  0  0  0  0  0  0
   -8.3645  -11.4401   -2.9292 H   0  0  0  0  0  0  0  0  0  0  0  0
  -10.0392  -13.2555   -3.0484 H   0  0  0  0  0  0  0  0  0  0  0  0
   -7.3821  -10.8083   -0.7720 H   0  0  0  0  0  0  0  0  0  0  0  0
  -10.7208  -14.4004   -0.9639 H   0  0  0  0  0  0  0  0  0  0  0  0
   -7.9960  -12.0570    1.2886 H   0  0  0  0  0  0  0  0  0  0  0  0
   -9.2463   -5.6447    3.8555 H   0  0  0  0  0  0  0  0  0  0  0  0
   -7.5588   -5.8107    4.3191 H   0  0  0  0  0  0  0  0  0  0  0  0
   -6.7671   -8.7239    4.4575 H   0  0  0  0  0  0  0  0  0  0  0  0
   -6.7420   -8.1545    2.7429 H   0  0  0  0  0  0  0  0  0  0  0  0
  -10.6897  -13.5863    1.3190 H   0  0  0  0  0  0  0  0  0  0  0  0
 16 17  2  0
 16 18  1  0
 17 19  1  0
 18 20  2  0
 19 29  2  0
 20 29  1  0
 29 31  1  0
 31 15  1  0
 31 26  1  0
 13 26  2  0
 26  2  1  0
  2  4  1  0
  4  1  1  0
  4  5  1  0
  3  1  2  0
  1  6  1  0
  5 24  1  0
  5  6  1  0
 24 22  1  0
  6 28  1  0
 28 25  1  0
 28 27  2  0
 22 27  1  0
 12 25  2  0
  8  9  1  0
  8 10  2  0
 25 14  1  0
 27 21  1  0
  9 30  2  0
 10  7  1  0
 30  7  1  0
 30 23  1  0
 21 23  1  0
  7 11  1  0
  2 32  1  0
  4 33  1  0
  5 34  1  0
 11 35  1  0
 11 36  1  0
 11 37  1  0
 14 38  1  0
 15 39  1  0
 16 40  1  0
 17 41  1  0
 18 42  1  0
 19 43  1  0
 20 44  1  0
 21 45  1  0
 21 46  1  0
 22 47  1  0
 22 48  1  0
 31 49  1  0
A    1
C
A    2
N
A    3
O
A    4
CA
A    5
CB
A    6
NBD
A    7
NBE
A    8
NAN
A    9
NAO
A   10
NAP
A   11
CAA
A   12
OAB
A   13
OAC
A   14
OAE
A   15
OAF
A   16
CAG
A   17
CAH
A   18
CAI
A   19
CAJ
A   20
CAK
A   21
CAL
A   22
CAM
A   23
SAR
A   24
SAS
A   25
CAT
A   26
CAU
A   27
CAV
A   28
CAX
A   29
CAY
A   30
CAZ
A   31
CBA
M  END
