3NYD_3NY_A_317
     RDKit          3D

 16 17  0  0  0  0  0  0  0  0999 V2000
   22.1600   -1.3570  -24.1310 N   0  0  0  0  0  0  0  0  0  0  0  0
   20.8260   -1.8360  -24.0050 N   0  0  0  0  0  0  0  0  0  0  0  0
   20.6990   -2.3180  -22.7250 N   0  0  0  0  0  0  0  0  0  0  0  0
   22.2870   -2.6210  -20.9120 C   0  0  0  0  0  0  0  0  0  0  0  0
   23.6020   -2.4230  -20.4580 C   0  0  0  0  0  0  0  0  0  0  0  0
   24.5230   -1.7750  -21.2870 C   0  0  0  0  0  0  0  0  0  0  0  0
   24.1340   -1.3690  -22.5550 C   0  0  0  0  0  0  0  0  0  0  0  0
   25.0880   -2.4190  -18.7300 O   0  0  0  0  0  0  0  0  0  0  0  0
   23.2360   -3.3950  -18.3970 O   0  0  0  0  0  0  0  0  0  0  0  0
   21.8820   -2.2070  -22.1640 C   0  0  0  0  0  0  0  0  0  0  0  0
   22.8380   -1.6360  -23.0270 C   0  0  0  0  0  0  0  0  0  0  0  0
   24.0060   -2.7790  -19.1510 N   0  0  0  0  0  0  0  0  0  0  0  0
   22.5404   -0.8683  -24.9541 H   0  0  0  0  0  0  0  0  0  0  0  0
   21.5617   -3.1191  -20.2519 H   0  0  0  0  0  0  0  0  0  0  0  0
   25.5487   -1.5886  -20.9360 H   0  0  0  0  0  0  0  0  0  0  0  0
   24.8476   -0.8325  -23.1976 H   0  0  0  0  0  0  0  0  0  0  0  0
  1  2  1  0
  1 11  1  0
  2  3  2  0
  3 10  1  0
  4  5  1  0
  5 12  1  0
  6  5  2  0
  7  6  1  0
 10  4  2  0
 11  7  2  0
 11 10  1  0
 12  8  2  0
 12  9  1  0
  1 13  1  0
  4 14  1  0
  6 15  1  0
  7 16  1  0
M  CHG  2   9  -1  12   1
A    1
N1
A    2
N2
A    3
N3
A    4
C4
A    5
C5
A    6
C6
A    7
C7
A    8
O11
A    9
O21
A   10
C3A
A   11
C7A
A   12
NO1
M  END
