3NZB_D2N_X_207
     RDKit          3D

 64 66  0  0  0  0  0  0  0  0999 V2000
   10.2240   -1.7510   13.1230 N   0  0  0  0  0  0  0  0  0  0  0  0
   10.5470   -2.5870   12.1240 C   0  0  0  0  0  0  0  0  0  0  0  0
   11.6220   -2.3540   11.3570 N   0  0  0  0  0  0  0  0  0  0  0  0
   12.4130   -1.2950   11.6010 C   0  0  0  0  0  0  0  0  0  0  0  0
   12.1210   -0.3810   12.6060 C   0  0  0  0  0  0  0  0  0  0  0  0
   10.9860   -0.6820   13.4040 C   0  0  0  0  0  0  0  0  0  0  0  0
   27.1570   -0.3120   11.6010 C   0  0  0  0  0  0  0  0  0  0  0  0
   14.1020    3.3380   10.7440 C   0  0  0  0  0  0  0  0  0  0  0  0
   12.8300    1.7990   13.8600 C   0  0  0  0  0  0  0  0  0  0  0  0
    9.7790   -3.6510   11.8170 N   0  0  0  0  0  0  0  0  0  0  0  0
   10.5520    0.0500   14.4450 N   0  0  0  0  0  0  0  0  0  0  0  0
   25.9160   -0.9480    9.7420 O   0  0  0  0  0  0  0  0  0  0  0  0
   18.1390    2.2140    8.9280 C   0  0  0  0  0  0  0  0  0  0  0  0
   16.8950    2.7830    8.7040 C   0  0  0  0  0  0  0  0  0  0  0  0
   14.2910   -0.1180   10.9220 C   0  0  0  0  0  0  0  0  0  0  0  0
   17.4380    1.5250   11.1430 C   0  0  0  0  0  0  0  0  0  0  0  0
   25.7080   -0.1870   12.1010 C   0  0  0  0  0  0  0  0  0  0  0  0
   21.3660   -0.9550   10.0460 C   0  0  0  0  0  0  0  0  0  0  0  0
   20.6590   -0.4620    8.7820 C   0  0  0  0  0  0  0  0  0  0  0  0
   22.7010   -1.5870    9.6360 C   0  0  0  0  0  0  0  0  0  0  0  0
   20.1970    0.9750    8.9360 C   0  0  0  0  0  0  0  0  0  0  0  0
   23.6550   -0.5370    9.0750 C   0  0  0  0  0  0  0  0  0  0  0  0
   15.0960    2.0250   12.0410 C   0  0  0  0  0  0  0  0  0  0  0  0
   13.4810   -1.1700   10.7850 N   0  0  0  0  0  0  0  0  0  0  0  0
   14.7280    3.2860    9.4580 O   0  0  0  0  0  0  0  0  0  0  0  0
   24.8070    0.4000   11.1270 O   0  0  0  0  0  0  0  0  0  0  0  0
   19.6690    1.0650   10.2700 O   0  0  0  0  0  0  0  0  0  0  0  0
   24.8680   -0.3600    9.9940 C   0  0  0  0  0  0  0  0  0  0  0  0
   18.4150    1.5900   10.1300 C   0  0  0  0  0  0  0  0  0  0  0  0
   12.9920    0.7100   12.7750 C   0  0  0  0  0  0  0  0  0  0  0  0
   14.0900    0.8360   11.9170 C   0  0  0  0  0  0  0  0  0  0  0  0
   16.1760    2.0930   10.9240 C   0  0  0  0  0  0  0  0  0  0  0  0
   15.9320    2.7230    9.7000 C   0  0  0  0  0  0  0  0  0  0  0  0
   27.8384   -0.3708   12.4625 H   0  0  0  0  0  0  0  0  0  0  0  0
   27.2573   -1.2221   10.9914 H   0  0  0  0  0  0  0  0  0  0  0  0
   27.4117    0.5675   10.9914 H   0  0  0  0  0  0  0  0  0  0  0  0
   14.8703    3.2742   11.5286 H   0  0  0  0  0  0  0  0  0  0  0  0
   13.5516    4.2850   10.8459 H   0  0  0  0  0  0  0  0  0  0  0  0
   13.4029    2.4948   10.8459 H   0  0  0  0  0  0  0  0  0  0  0  0
   12.8987    1.3373   14.8560 H   0  0  0  0  0  0  0  0  0  0  0  0
   13.6264    2.5495   13.7480 H   0  0  0  0  0  0  0  0  0  0  0  0
   11.8496    2.2852   13.7480 H   0  0  0  0  0  0  0  0  0  0  0  0
    9.3666   -4.2224   12.5682 H   0  0  0  0  0  0  0  0  0  0  0  0
    9.6044   -3.8928   10.8311 H   0  0  0  0  0  0  0  0  0  0  0  0
   10.7380   -0.2637   15.4083 H   0  0  0  0  0  0  0  0  0  0  0  0
   10.0336    0.9244   14.2792 H   0  0  0  0  0  0  0  0  0  0  0  0
   18.9104    2.2593    8.1452 H   0  0  0  0  0  0  0  0  0  0  0  0
   16.6740    3.2769    7.7463 H   0  0  0  0  0  0  0  0  0  0  0  0
   15.1392   -0.0013   10.2314 H   0  0  0  0  0  0  0  0  0  0  0  0
   17.6645    1.0315   12.0997 H   0  0  0  0  0  0  0  0  0  0  0  0
   25.3395   -1.1920   12.3545 H   0  0  0  0  0  0  0  0  0  0  0  0
   25.7237    0.4844   12.9722 H   0  0  0  0  0  0  0  0  0  0  0  0
   21.5481   -0.1085   10.7244 H   0  0  0  0  0  0  0  0  0  0  0  0
   20.7402   -1.6954   10.5657 H   0  0  0  0  0  0  0  0  0  0  0  0
   21.3558   -0.5257    7.9332 H   0  0  0  0  0  0  0  0  0  0  0  0
   19.7762   -1.0946    8.6078 H   0  0  0  0  0  0  0  0  0  0  0  0
   23.1618   -2.0572   10.5172 H   0  0  0  0  0  0  0  0  0  0  0  0
   22.5078   -2.3371    8.8550 H   0  0  0  0  0  0  0  0  0  0  0  0
   21.0427    1.6669    8.8093 H   0  0  0  0  0  0  0  0  0  0  0  0
   19.4461    1.2467    8.1795 H   0  0  0  0  0  0  0  0  0  0  0  0
   23.9993   -0.8568    8.0804 H   0  0  0  0  0  0  0  0  0  0  0  0
   23.1222    0.4227    9.0045 H   0  0  0  0  0  0  0  0  0  0  0  0
   15.6114    1.9361   13.0087 H   0  0  0  0  0  0  0  0  0  0  0  0
   14.4985    2.9437   11.9464 H   0  0  0  0  0  0  0  0  0  0  0  0
  2  1  2  0
  1  6  1  0
  3  2  1  0
 10  2  1  0
  3  4  2  0
 24  4  1  0
  4  5  1  0
  5 30  1  0
  5  6  2  0
  6 11  1  0
  7 17  1  0
 25  8  1  0
 30  9  1  0
 12 28  2  0
 14 13  2  0
 13 29  1  0
 14 33  1  0
 24 15  2  0
 15 31  1  0
 29 16  2  0
 32 16  1  0
 26 17  1  0
 19 18  1  0
 20 18  1  0
 19 21  1  0
 22 20  1  0
 21 27  1  0
 22 28  1  0
 32 23  1  0
 31 23  1  0
 25 33  1  0
 28 26  1  0
 29 27  1  0
 31 30  2  0
 33 32  2  0
  7 34  1  0
  7 35  1  0
  7 36  1  0
  8 37  1  0
  8 38  1  0
  8 39  1  0
  9 40  1  0
  9 41  1  0
  9 42  1  0
 10 43  1  0
 10 44  1  0
 11 45  1  0
 11 46  1  0
 13 47  1  0
 14 48  1  0
 15 49  1  0
 16 50  1  0
 17 51  1  0
 17 52  1  0
 18 53  1  0
 18 54  1  0
 19 55  1  0
 19 56  1  0
 20 57  1  0
 20 58  1  0
 21 59  1  0
 21 60  1  0
 22 61  1  0
 22 62  1  0
 23 63  1  0
 23 64  1  0
A    1
N1
A    2
C2
A    3
N3
A    4
C4
A    5
C5
A    6
C6
A    7
CAA
A    8
CAB
A    9
CAC
A   10
NAD
A   11
NAE
A   12
OAF
A   13
CAG
A   14
CAH
A   15
CAI
A   16
CAJ
A   17
CAK
A   18
CAL
A   19
CAM
A   20
CAN
A   21
CAO
A   22
CAP
A   23
CAQ
A   24
NAR
A   25
OAU
A   26
OAV
A   27
OAW
A   28
CAX
A   29
CAZ
A   30
CBB
A   31
CBC
A   32
CBD
A   33
CBE
M  END
