3NZU_NZU_A_1
     RDKit          3D

 46 49  0  0  0  0  0  0  0  0999 V2000
   21.5420   11.5970   24.5420 C   0  0  0  0  0  0  0  0  0  0  0  0
   20.7140   12.6420   24.0130 N   0  0  0  0  0  0  0  0  0  0  0  0
   21.0970   13.5410   23.1190 C   0  0  0  0  0  0  0  0  0  0  0  0
   20.0210   14.3560   22.8790 C   0  0  0  0  0  0  0  0  0  0  0  0
   18.9940   13.8830   23.6880 C   0  0  0  0  0  0  0  0  0  0  0  0
   19.4090   12.8700   24.3370 N   0  0  0  0  0  0  0  0  0  0  0  0
   20.1750   15.3930   21.9680 C   0  0  0  0  0  0  0  0  0  0  0  0
   21.3190   15.5330   21.3870 N   0  0  0  0  0  0  0  0  0  0  0  0
   22.2960   14.7290   21.6540 C   0  0  0  0  0  0  0  0  0  0  0  0
   22.2030   13.7600   22.4870 N   0  0  0  0  0  0  0  0  0  0  0  0
   23.5600   14.9030   20.9700 C   0  0  0  0  0  0  0  0  0  0  0  0
   23.6500   15.7670   19.9200 C   0  0  0  0  0  0  0  0  0  0  0  0
   24.8340   15.9310   19.2580 C   0  0  0  0  0  0  0  0  0  0  0  0
   25.9340   15.2300   19.6260 C   0  0  0  0  0  0  0  0  0  0  0  0
   25.8590   14.3430   20.6690 C   0  0  0  0  0  0  0  0  0  0  0  0
   24.6720   14.1660   21.3510 C   0  0  0  0  0  0  0  0  0  0  0  0
   24.9040   13.2200   22.3400 C   0  0  0  0  0  0  0  0  0  0  0  0
   26.1250   12.8470   22.2660 N   0  0  0  0  0  0  0  0  0  0  0  0
   26.7500   13.5240   21.2470 N   0  0  0  0  0  0  0  0  0  0  0  0
   19.1620   16.2590   21.6950 N   0  0  0  0  0  0  0  0  0  0  0  0
   19.1910   17.1660   20.5620 C   0  0  0  0  0  0  0  0  0  0  0  0
   18.2690   18.3500   20.8660 C   0  0  0  0  0  0  0  0  0  0  0  0
   19.0340   19.4770   21.5640 C   0  0  0  0  0  0  0  0  0  0  0  0
   18.1190   21.0380   21.6230 S   0  0  0  0  0  0  0  0  0  0  0  0
   17.2840   21.0390   22.7250 O   0  0  0  0  0  0  0  0  0  0  0  0
   19.0020   22.1080   21.5060 O   0  0  0  0  0  0  0  0  0  0  0  0
   17.1450   20.8970   20.1250 C   0  0  0  0  0  0  0  0  0  0  0  0
   21.5161   11.6297   25.6412 H   0  0  0  0  0  0  0  0  0  0  0  0
   21.1685   10.6222   24.1952 H   0  0  0  0  0  0  0  0  0  0  0  0
   22.5764   11.7378   24.1952 H   0  0  0  0  0  0  0  0  0  0  0  0
   17.9847   14.3150   23.7562 H   0  0  0  0  0  0  0  0  0  0  0  0
   22.7636   16.3362   19.6033 H   0  0  0  0  0  0  0  0  0  0  0  0
   24.8950   16.6389   18.4182 H   0  0  0  0  0  0  0  0  0  0  0  0
   26.8839   15.3721   19.0897 H   0  0  0  0  0  0  0  0  0  0  0  0
   24.1626   12.8531   23.0651 H   0  0  0  0  0  0  0  0  0  0  0  0
   26.5709   12.1471   22.8761 H   0  0  0  0  0  0  0  0  0  0  0  0
   18.3414   16.2716   22.3173 H   0  0  0  0  0  0  0  0  0  0  0  0
   20.2177   17.5266   20.4011 H   0  0  0  0  0  0  0  0  0  0  0  0
   18.8516   16.6466   19.6537 H   0  0  0  0  0  0  0  0  0  0  0  0
   17.8496   18.7305   19.9230 H   0  0  0  0  0  0  0  0  0  0  0  0
   17.4660   18.0058   21.5343 H   0  0  0  0  0  0  0  0  0  0  0  0
   19.2541   19.1627   22.5949 H   0  0  0  0  0  0  0  0  0  0  0  0
   19.9486   19.6586   20.9805 H   0  0  0  0  0  0  0  0  0  0  0  0
   16.0879   20.7440   20.3880 H   0  0  0  0  0  0  0  0  0  0  0  0
   17.2460   21.8191   19.5338 H   0  0  0  0  0  0  0  0  0  0  0  0
   17.5033   20.0414   19.5338 H   0  0  0  0  0  0  0  0  0  0  0  0
  2  1  1  0
  3  2  1  0
  2  6  1  0
 10  3  2  0
  4  3  1  0
  7  4  2  0
  4  5  1  0
  5  6  2  0
  8  7  1  0
 20  7  1  0
  8  9  2  0
 11  9  1  0
  9 10  1  0
 12 11  2  0
 11 16  1  0
 13 12  1  0
 13 14  2  0
 14 15  1  0
 15 19  2  0
 15 16  1  0
 16 17  2  0
 18 17  1  0
 19 18  1  0
 21 20  1  0
 21 22  1  0
 22 23  1  0
 23 24  1  0
 27 24  1  0
 26 24  2  0
 24 25  2  0
  1 28  1  0
  1 29  1  0
  1 30  1  0
  5 31  1  0
 12 32  1  0
 13 33  1  0
 14 34  1  0
 17 35  1  0
 18 36  1  0
 20 37  1  0
 21 38  1  0
 21 39  1  0
 22 40  1  0
 22 41  1  0
 23 42  1  0
 23 43  1  0
 27 44  1  0
 27 45  1  0
 27 46  1  0
A    1
C1
A    2
N2
A    3
C3
A    4
C4
A    5
C5
A    6
N6
A    7
C7
A    8
N8
A    9
C9
A   10
N10
A   11
C11
A   12
C12
A   13
C13
A   14
C14
A   15
C15
A   16
C16
A   17
C17
A   18
N18
A   19
N19
A   20
N21
A   21
C22
A   22
C23
A   23
C24
A   24
S25
A   25
O26
A   26
O27
A   27
C28
M  END
