3O0J_3OJ_A_485
     RDKit          3D

 30 32  0  0  0  0  0  0  0  0999 V2000
  -43.7030   94.8530  111.8000 C   0  0  0  0  0  0  0  0  0  0  0  0
  -43.9560   94.1650  112.9850 C   0  0  0  0  0  0  0  0  0  0  0  0
  -42.4920   94.7060  111.1380 C   0  0  0  0  0  0  0  0  0  0  0  0
  -42.9780   93.3210  113.5050 C   0  0  0  0  0  0  0  0  0  0  0  0
  -41.5320   93.8660  111.6610 C   0  0  0  0  0  0  0  0  0  0  0  0
  -41.7750   93.1690  112.8340 C   0  0  0  0  0  0  0  0  0  0  0  0
  -45.1700   94.3460  113.6090 O   0  0  0  0  0  0  0  0  0  0  0  0
  -46.6980   92.2730  116.8170 C   0  0  0  0  0  0  0  0  0  0  0  0
  -47.1280   91.9700  115.5680 C   0  0  0  0  0  0  0  0  0  0  0  0
  -45.7630   93.2710  117.0310 C   0  0  0  0  0  0  0  0  0  0  0  0
  -46.6460   92.6440  114.4590 C   0  0  0  0  0  0  0  0  0  0  0  0
  -45.2630   93.9610  115.9370 C   0  0  0  0  0  0  0  0  0  0  0  0
  -45.7010   93.6510  114.6560 C   0  0  0  0  0  0  0  0  0  0  0  0
  -48.1360   90.8680  115.6240 C   0  0  0  0  0  0  0  0  0  0  0  0
  -48.3510   90.6780  117.0470 O   0  0  0  0  0  0  0  0  0  0  0  0
  -47.3620   91.3970  117.8230 B   0  0  0  0  0  0  0  0  0  0  0  0
  -46.3930   90.5160  118.4070 O   0  0  0  0  0  0  0  0  0  0  0  0
  -40.2840   93.6960  110.9930 C   0  0  0  0  0  0  0  0  0  0  0  0
  -40.7470   92.3170  113.3460 C   0  0  0  0  0  0  0  0  0  0  0  0
  -39.2670   93.5640  110.4700 N   0  0  0  0  0  0  0  0  0  0  0  0
  -39.9100   91.6200  113.7330 N   0  0  0  0  0  0  0  0  0  0  0  0
  -44.4721   95.5205  111.3843 H   0  0  0  0  0  0  0  0  0  0  0  0
  -42.2999   95.2549  110.2043 H   0  0  0  0  0  0  0  0  0  0  0  0
  -43.1595   92.7775  114.4440 H   0  0  0  0  0  0  0  0  0  0  0  0
  -45.4232   93.5121  118.0491 H   0  0  0  0  0  0  0  0  0  0  0  0
  -46.9992   92.3919  113.4482 H   0  0  0  0  0  0  0  0  0  0  0  0
  -44.5173   94.7562  116.0842 H   0  0  0  0  0  0  0  0  0  0  0  0
  -49.0690   91.1625  115.1212 H   0  0  0  0  0  0  0  0  0  0  0  0
  -47.7991   89.9527  115.1154 H   0  0  0  0  0  0  0  0  0  0  0  0
  -46.4513   90.5690  119.3939 H   0  0  0  0  0  0  0  0  0  0  0  0
  3  1  2  0
  1  2  1  0
  2  4  2  0
  2  7  1  0
  3  5  1  0
  6  4  1  0
 18  5  1  0
  5  6  2  0
  6 19  1  0
  7 13  1  0
  9  8  1  0
  8 10  2  0
  8 16  1  0
 11  9  2  0
  9 14  1  0
 12 10  1  0
 11 13  1  0
 13 12  2  0
 14 15  1  0
 15 16  1  0
 16 17  1  0
 20 18  3  0
 19 21  3  0
  1 22  1  0
  3 23  1  0
  4 24  1  0
 10 25  1  0
 11 26  1  0
 12 27  1  0
 14 28  1  0
 14 29  1  0
 17 30  1  0
A    1
C1
A    2
C2
A    3
C3
A    4
C4
A    5
C5
A    6
C6
A    7
O7
A    8
C8
A    9
C9
A   10
C10
A   11
C11
A   12
C12
A   13
C13
A   14
C14
A   15
O15
A   16
B16
A   17
O17
A   18
C18
A   19
C19
A   20
N20
A   21
N21
M  END
