3O2K_QRP_A_502
     RDKit          3D

 38 41  0  0  0  0  0  0  0  0999 V2000
  -19.5910   24.1250    2.9720 C   0  0  0  0  0  0  0  0  0  0  0  0
  -19.0220   22.2710    4.4310 N   0  0  0  0  0  0  0  0  0  0  0  0
  -19.8710   24.6150    1.9070 O   0  0  0  0  0  0  0  0  0  0  0  0
  -19.2110   22.7280    3.0650 C   0  0  0  0  0  0  0  0  0  0  0  0
  -20.0310   21.7620    2.2140 C   0  0  0  0  0  0  0  0  0  0  0  0
  -19.5070   20.3130    2.3040 C   0  0  0  0  0  0  0  0  0  0  0  0
  -18.4810   22.8060    6.6400 O   0  0  0  0  0  0  0  0  0  0  0  0
  -20.7170   26.3330    5.6790 C   0  0  0  0  0  0  0  0  0  0  0  0
  -19.8850   25.2410    6.4000 C   0  0  0  0  0  0  0  0  0  0  0  0
  -20.3510   26.2040    4.2740 C   0  0  0  0  0  0  0  0  0  0  0  0
  -18.8370   23.2220    5.5650 C   0  0  0  0  0  0  0  0  0  0  0  0
  -19.0700   24.6290    5.3750 C   0  0  0  0  0  0  0  0  0  0  0  0
  -19.7720   24.8760    4.1630 N   0  0  0  0  0  0  0  0  0  0  0  0
  -19.8410   19.3730    3.2890 C   0  0  0  0  0  0  0  0  0  0  0  0
  -18.5010   19.6160    1.2940 C   0  0  0  0  0  0  0  0  0  0  0  0
  -19.0940   18.0790    2.9810 N   0  0  0  0  0  0  0  0  0  0  0  0
  -18.2850   18.2890    1.7380 C   0  0  0  0  0  0  0  0  0  0  0  0
  -17.7770   20.1310    0.0020 C   0  0  0  0  0  0  0  0  0  0  0  0
  -16.7210   17.9410   -0.2350 C   0  0  0  0  0  0  0  0  0  0  0  0
  -17.4260   17.4370    1.0230 C   0  0  0  0  0  0  0  0  0  0  0  0
  -16.9490   19.3120   -0.6900 C   0  0  0  0  0  0  0  0  0  0  0  0
  -19.0156   21.2589    4.6223 H   0  0  0  0  0  0  0  0  0  0  0  0
  -18.2181   22.7050    2.5921 H   0  0  0  0  0  0  0  0  0  0  0  0
  -21.0746   21.7830    2.5611 H   0  0  0  0  0  0  0  0  0  0  0  0
  -19.9500   22.0848    1.1656 H   0  0  0  0  0  0  0  0  0  0  0  0
  -20.4577   27.3326    6.0579 H   0  0  0  0  0  0  0  0  0  0  0  0
  -21.7979   26.2105    5.8421 H   0  0  0  0  0  0  0  0  0  0  0  0
  -19.2497   25.6929    7.1760 H   0  0  0  0  0  0  0  0  0  0  0  0
  -20.5300   24.5033    6.8998 H   0  0  0  0  0  0  0  0  0  0  0  0
  -21.2396   26.2944    3.6320 H   0  0  0  0  0  0  0  0  0  0  0  0
  -19.6523   26.9904    3.9525 H   0  0  0  0  0  0  0  0  0  0  0  0
  -18.0578   25.0595    5.3874 H   0  0  0  0  0  0  0  0  0  0  0  0
  -20.5227   19.5394    4.1361 H   0  0  0  0  0  0  0  0  0  0  0  0
  -19.1383   17.2104    3.5328 H   0  0  0  0  0  0  0  0  0  0  0  0
  -17.9422   21.1620   -0.3441 H   0  0  0  0  0  0  0  0  0  0  0  0
  -16.0462   17.2769   -0.7950 H   0  0  0  0  0  0  0  0  0  0  0  0
  -17.2611   16.4061    1.3696 H   0  0  0  0  0  0  0  0  0  0  0  0
  -16.4466   19.6794   -1.5970 H   0  0  0  0  0  0  0  0  0  0  0  0
  3  1  2  0
  1  4  1  0
  1 13  1  0
  4  2  1  0
  2 11  1  0
  5  4  1  0
  5  6  1  0
 15  6  1  0
  6 14  2  0
 11  7  2  0
 10  8  1  0
  8  9  1  0
 12  9  1  0
 13 10  1  0
 12 11  1  0
 13 12  1  0
 16 14  1  0
 18 15  2  0
 15 17  1  0
 17 16  1  0
 20 17  2  0
 21 18  1  0
 21 19  2  0
 19 20  1  0
  2 22  1  0
  4 23  1  0
  5 24  1  0
  5 25  1  0
  8 26  1  0
  8 27  1  0
  9 28  1  0
  9 29  1  0
 10 30  1  0
 10 31  1  0
 12 32  1  0
 14 33  1  0
 16 34  1  0
 18 35  1  0
 19 36  1  0
 20 37  1  0
 21 38  1  0
A    1
C
A    2
N
A    3
O
A    4
CA
A    5
CB
A    6
CG
A    7
OAA
A    8
CAH
A    9
CAI
A   10
CAJ
A   11
CAN
A   12
CAT
A   13
NAU
A   14
CD1
A   15
CD2
A   16
NE1
A   17
CE2
A   18
CE3
A   19
CH2
A   20
CZ2
A   21
CZ3
M  END
