3O2M_46A_A_701
     RDKit          3D

 58 61  0  0  0  0  0  0  0  0999 V2000
   37.9530   84.7360   46.1900 N   0  0  0  0  0  0  0  0  0  0  0  0
   37.1450   82.1460   46.5290 C   0  0  0  0  0  0  0  0  0  0  0  0
   37.3730   81.4940   45.1750 C   0  0  0  0  0  0  0  0  0  0  0  0
   36.3500   80.6360   44.7230 C   0  0  0  0  0  0  0  0  0  0  0  0
   36.4550   79.9660   43.4910 C   0  0  0  0  0  0  0  0  0  0  0  0
   38.6050   80.9910   43.1090 C   0  0  0  0  0  0  0  0  0  0  0  0
   38.7560   78.5520   41.1860 C   0  0  0  0  0  0  0  0  0  0  0  0
   38.0020   77.8130   38.9670 C   0  0  0  0  0  0  0  0  0  0  0  0
   36.6420   79.4090   40.2190 C   0  0  0  0  0  0  0  0  0  0  0  0
   39.3830   86.6190   46.7160 C   0  0  0  0  0  0  0  0  0  0  0  0
   37.9900   80.7880   50.2600 C   0  0  0  0  0  0  0  0  0  0  0  0
   38.5730   82.0620   49.6850 C   0  0  0  0  0  0  0  0  0  0  0  0
   38.9610   81.7850   48.2260 C   0  0  0  0  0  0  0  0  0  0  0  0
   38.2770   82.6930   47.2740 N   0  0  0  0  0  0  0  0  0  0  0  0
   37.5750   80.1340   42.6710 C   0  0  0  0  0  0  0  0  0  0  0  0
   38.5150   81.6730   44.3550 C   0  0  0  0  0  0  0  0  0  0  0  0
   37.6660   79.3700   41.3570 C   0  0  0  0  0  0  0  0  0  0  0  0
   38.9410   77.7820   40.0180 C   0  0  0  0  0  0  0  0  0  0  0  0
   36.8570   78.6310   39.0770 C   0  0  0  0  0  0  0  0  0  0  0  0
   35.4150   80.2220   40.2520 C   0  0  0  0  0  0  0  0  0  0  0  0
   34.2010   79.7380   39.9440 N   0  0  0  0  0  0  0  0  0  0  0  0
   33.2970   80.7330   40.0940 N   0  0  0  0  0  0  0  0  0  0  0  0
   33.9700   81.8610   40.5040 N   0  0  0  0  0  0  0  0  0  0  0  0
   35.2800   81.5310   40.5970 N   0  0  0  0  0  0  0  0  0  0  0  0
   38.3050   86.0280   46.0020 C   0  0  0  0  0  0  0  0  0  0  0  0
   38.6580   84.0010   47.0960 C   0  0  0  0  0  0  0  0  0  0  0  0
   39.7060   84.4990   47.8110 N   0  0  0  0  0  0  0  0  0  0  0  0
   40.0680   85.7900   47.6360 C   0  0  0  0  0  0  0  0  0  0  0  0
   41.2180   86.3010   48.4510 C   0  0  0  0  0  0  0  0  0  0  0  0
   37.5110   86.8180   45.0020 C   0  0  0  0  0  0  0  0  0  0  0  0
   37.6640   80.8270   51.7550 C   0  0  0  0  0  0  0  0  0  0  0  0
   36.6776   81.3865   47.1730 H   0  0  0  0  0  0  0  0  0  0  0  0
   36.5476   83.0367   46.2846 H   0  0  0  0  0  0  0  0  0  0  0  0
   35.4545   80.4880   45.3444 H   0  0  0  0  0  0  0  0  0  0  0  0
   35.6426   79.2988   43.1671 H   0  0  0  0  0  0  0  0  0  0  0  0
   39.4936   81.1351   42.4769 H   0  0  0  0  0  0  0  0  0  0  0  0
   39.5093   78.4952   41.9856 H   0  0  0  0  0  0  0  0  0  0  0  0
   38.1608   77.2028   38.0657 H   0  0  0  0  0  0  0  0  0  0  0  0
   39.6706   87.6693   46.5609 H   0  0  0  0  0  0  0  0  0  0  0  0
   38.7152   79.9780   50.0926 H   0  0  0  0  0  0  0  0  0  0  0  0
   37.0293   80.6373   49.7459 H   0  0  0  0  0  0  0  0  0  0  0  0
   37.8252   82.8676   49.7266 H   0  0  0  0  0  0  0  0  0  0  0  0
   39.4543   82.3760   50.2635 H   0  0  0  0  0  0  0  0  0  0  0  0
   40.0480   81.9158   48.1192 H   0  0  0  0  0  0  0  0  0  0  0  0
   38.6519   80.7566   47.9876 H   0  0  0  0  0  0  0  0  0  0  0  0
   39.3293   82.3370   44.6805 H   0  0  0  0  0  0  0  0  0  0  0  0
   39.8339   77.1462   39.9260 H   0  0  0  0  0  0  0  0  0  0  0  0
   36.1259   78.6568   38.2556 H   0  0  0  0  0  0  0  0  0  0  0  0
   33.5554   82.7827   40.7027 H   0  0  0  0  0  0  0  0  0  0  0  0
   40.9841   86.1970   49.5208 H   0  0  0  0  0  0  0  0  0  0  0  0
   42.1215   85.7197   48.2151 H   0  0  0  0  0  0  0  0  0  0  0  0
   41.3921   87.3612   48.2151 H   0  0  0  0  0  0  0  0  0  0  0  0
   36.8275   87.4981   45.5314 H   0  0  0  0  0  0  0  0  0  0  0  0
   38.1954   87.4040   44.3710 H   0  0  0  0  0  0  0  0  0  0  0  0
   36.9284   86.1307   44.3710 H   0  0  0  0  0  0  0  0  0  0  0  0
   38.5917   80.7160   52.3356 H   0  0  0  0  0  0  0  0  0  0  0  0
   37.1897   81.7883   52.0019 H   0  0  0  0  0  0  0  0  0  0  0  0
   36.9763   80.0047   52.0019 H   0  0  0  0  0  0  0  0  0  0  0  0
  1 26  2  0
  2 14  1  0
  3  2  1  0
  4  3  2  0
  5  4  1  0
  6 16  2  0
  8 18  2  0
  9 17  1  0
 10 28  1  0
 11 31  1  0
 12 11  1  0
 13 12  1  0
 14 13  1  0
 15  5  2  0
 15  6  1  0
 16  3  1  0
 17  7  2  0
 17 15  1  0
 18  7  1  0
 19  8  1  0
 19  9  2  0
 20  9  1  0
 21 20  1  0
 22 21  2  0
 22 23  1  0
 23 24  1  0
 24 20  2  0
 25  1  1  0
 25 10  2  0
 26 14  1  0
 26 27  1  0
 28 27  2  0
 28 29  1  0
 30 25  1  0
  2 32  1  0
  2 33  1  0
  4 34  1  0
  5 35  1  0
  6 36  1  0
  7 37  1  0
  8 38  1  0
 10 39  1  0
 11 40  1  0
 11 41  1  0
 12 42  1  0
 12 43  1  0
 13 44  1  0
 13 45  1  0
 16 46  1  0
 18 47  1  0
 19 48  1  0
 23 49  1  0
 29 50  1  0
 29 51  1  0
 29 52  1  0
 30 53  1  0
 30 54  1  0
 30 55  1  0
 31 56  1  0
 31 57  1  0
 31 58  1  0
A    1
N1
A    2
C5
A    3
C6
A    4
C7
A    5
C8
A    6
C10
A    7
C13
A    8
C15
A    9
C17
A   10
C28
A   11
C
A   12
C2
A   13
C3
A   14
N
A   15
C9
A   16
C11
A   17
C12
A   18
C14
A   19
C16
A   20
C18
A   21
N19
A   22
N20
A   23
N21
A   24
N22
A   25
C23
A   26
C25
A   27
N2
A   28
C27
A   29
C29
A   30
C30
A   31
C31
M  END
