3I4Y_35C_A_1
     RDKit          3D

 14 14  0  0  0  0  0  0  0  0999 V2000
    2.9630   -2.8590   18.8800 C   0  0  0  0  0  0  0  0  0  0  0  0
    3.5640   -1.6650   19.2320 C   0  0  0  0  0  0  0  0  0  0  0  0
    3.0350   -0.8680   20.2370 C   0  0  0  0  0  0  0  0  0  0  0  0
    1.8910   -1.2670   20.8990 C   0  0  0  0  0  0  0  0  0  0  0  0
    1.3010   -2.4640   20.5310 C   0  0  0  0  0  0  0  0  0  0  0  0
    1.8150   -3.2670   19.5290 C   0  0  0  0  0  0  0  0  0  0  0  0
    3.4880   -3.6370   17.8990 O   0  0  0  0  0  0  0  0  0  0  0  0
    4.6770   -1.2600   18.5690 O   0  0  0  0  0  0  0  0  0  0  0  0
    3.8000    0.6870   20.6870 Cl  0  0  0  0  0  0  0  0  0  0  0  0
   -0.1770   -2.9770   21.3740 Cl  0  0  0  0  0  0  0  0  0  0  0  0
    1.4588   -0.6487   21.6995 H   0  0  0  0  0  0  0  0  0  0  0  0
    1.3197   -4.2103   19.2552 H   0  0  0  0  0  0  0  0  0  0  0  0
    4.0259   -4.4342   18.1340 H   0  0  0  0  0  0  0  0  0  0  0  0
    5.4764   -0.9691   19.0753 H   0  0  0  0  0  0  0  0  0  0  0  0
  7  1  1  0
  1  2  2  0
  1  6  1  0
  8  2  1  0
  2  3  1  0
  3  9  1  0
  3  4  2  0
  5  4  1  0
  6  5  2  0
  5 10  1  0
  4 11  1  0
  6 12  1  0
  7 13  1  0
  8 14  1  0
A    1
C1
A    2
C2
A    3
C3
A    4
C4
A    5
C5
A    6
C6
A    7
O7
A    8
O8
A    9
CL9
A   10
CL10
M  END
