1DLT_CAQ_A_401
     RDKit          3D

 14 14  0  0  0  0  0  0  0  0999 V2000
    1.5070   82.8560   79.2550 C   0  0  0  0  0  0  0  0  0  0  0  0
    2.5800   82.3680   78.4470 C   0  0  0  0  0  0  0  0  0  0  0  0
    2.3400   81.9940   77.1330 C   0  0  0  0  0  0  0  0  0  0  0  0
    3.3700   81.5190   76.3530 O   0  0  0  0  0  0  0  0  0  0  0  0
    1.0700   82.0960   76.5940 C   0  0  0  0  0  0  0  0  0  0  0  0
    0.8520   81.7260   75.2910 O   0  0  0  0  0  0  0  0  0  0  0  0
    0.0190   82.5630   77.3540 C   0  0  0  0  0  0  0  0  0  0  0  0
    0.2430   82.9530   78.7160 C   0  0  0  0  0  0  0  0  0  0  0  0
    1.6889   83.1517   80.2988 H   0  0  0  0  0  0  0  0  0  0  0  0
    3.5939   82.2891   78.8662 H   0  0  0  0  0  0  0  0  0  0  0  0
    4.1815   81.1447   76.7790 H   0  0  0  0  0  0  0  0  0  0  0  0
    0.3600   80.8909   75.0892 H   0  0  0  0  0  0  0  0  0  0  0  0
   -0.9880   82.6363   76.9174 H   0  0  0  0  0  0  0  0  0  0  0  0
   -0.5910   83.3279   79.3275 H   0  0  0  0  0  0  0  0  0  0  0  0
  1  2  2  0
  1  8  1  0
  2  3  1  0
  3  4  1  0
  3  5  2  0
  5  6  1  0
  5  7  1  0
  7  8  2  0
  1  9  1  0
  2 10  1  0
  4 11  1  0
  6 12  1  0
  7 13  1  0
  8 14  1  0
A    1
C1
A    2
C2
A    3
C3
A    4
O3
A    5
C4
A    6
O4
A    7
C5
A    8
C6
M  END
