3O51_LJF_A_1
     RDKit          3D

 59 63  0  0  0  0  0  0  0  0999 V2000
   26.8400   18.9080   24.8730 C   0  0  0  0  0  0  0  0  0  0  0  0
   26.3120   19.0190   23.4990 N   0  0  0  0  0  0  0  0  0  0  0  0
   25.9200   17.9510   22.7940 C   0  0  0  0  0  0  0  0  0  0  0  0
   25.5500   16.8030   23.4170 N   0  0  0  0  0  0  0  0  0  0  0  0
   25.8970   18.0480   21.4490 N   0  0  0  0  0  0  0  0  0  0  0  0
   25.5140   17.0220   20.7030 C   0  0  0  0  0  0  0  0  0  0  0  0
   25.1290   15.8270   21.3130 C   0  0  0  0  0  0  0  0  0  0  0  0
   24.7430   14.7890   20.5490 F   0  0  0  0  0  0  0  0  0  0  0  0
   25.1460   15.7250   22.7090 C   0  0  0  0  0  0  0  0  0  0  0  0
   24.7840   14.5430   23.3800 C   0  0  0  0  0  0  0  0  0  0  0  0
   25.7100   13.9900   24.2660 C   0  0  0  0  0  0  0  0  0  0  0  0
   25.3890   12.8260   24.9580 C   0  0  0  0  0  0  0  0  0  0  0  0
   24.1490   12.2260   24.7460 C   0  0  0  0  0  0  0  0  0  0  0  0
   23.2760   12.7590   23.9000 N   0  0  0  0  0  0  0  0  0  0  0  0
   23.5470   13.8840   23.2010 C   0  0  0  0  0  0  0  0  0  0  0  0
   22.5960   14.4050   22.3570 O   0  0  0  0  0  0  0  0  0  0  0  0
   21.9670   13.7180   21.3520 C   0  0  0  0  0  0  0  0  0  0  0  0
   20.6420   14.0410   21.0610 C   0  0  0  0  0  0  0  0  0  0  0  0
   19.9520   13.3980   20.0290 C   0  0  0  0  0  0  0  0  0  0  0  0
   22.6070   12.7480   20.5860 C   0  0  0  0  0  0  0  0  0  0  0  0
   21.9150   12.1100   19.5550 C   0  0  0  0  0  0  0  0  0  0  0  0
   20.5770   12.4080   19.2760 C   0  0  0  0  0  0  0  0  0  0  0  0
   19.9530   11.7990   18.2540 N   0  0  0  0  0  0  0  0  0  0  0  0
   19.9830   10.4850   18.0190 C   0  0  0  0  0  0  0  0  0  0  0  0
   20.5660    9.6830   18.7420 O   0  0  0  0  0  0  0  0  0  0  0  0
   19.2670   10.0020   16.7340 C   0  0  0  0  0  0  0  0  0  0  0  0
   19.3180   10.8260   15.6060 C   0  0  0  0  0  0  0  0  0  0  0  0
   18.7190   10.4510   14.4060 C   0  0  0  0  0  0  0  0  0  0  0  0
   18.0660    9.2320   14.3080 C   0  0  0  0  0  0  0  0  0  0  0  0
   18.0210    8.3990   15.4190 C   0  0  0  0  0  0  0  0  0  0  0  0
   18.6180    8.7650   16.6290 C   0  0  0  0  0  0  0  0  0  0  0  0
   18.5570    7.9450   17.6810 N   0  0  0  0  0  0  0  0  0  0  0  0
   17.7350    6.8910   17.7890 C   0  0  0  0  0  0  0  0  0  0  0  0
   18.1820    5.7560   18.4700 C   0  0  0  0  0  0  0  0  0  0  0  0
   17.3530    4.6380   18.6050 C   0  0  0  0  0  0  0  0  0  0  0  0
   16.0650    4.6550   18.0640 C   0  0  0  0  0  0  0  0  0  0  0  0
   15.6030    5.7880   17.3880 C   0  0  0  0  0  0  0  0  0  0  0  0
   16.4360    6.9030   17.2600 C   0  0  0  0  0  0  0  0  0  0  0  0
   27.1512   19.8118   25.4173 H   0  0  0  0  0  0  0  0  0  0  0  0
   26.9223   17.9215   25.3526 H   0  0  0  0  0  0  0  0  0  0  0  0
   25.4995   17.1117   19.6068 H   0  0  0  0  0  0  0  0  0  0  0  0
   26.6876   14.4713   24.4164 H   0  0  0  0  0  0  0  0  0  0  0  0
   26.1065   12.3841   25.6650 H   0  0  0  0  0  0  0  0  0  0  0  0
   23.8914   11.3022   25.2848 H   0  0  0  0  0  0  0  0  0  0  0  0
   20.1312   14.8145   21.6533 H   0  0  0  0  0  0  0  0  0  0  0  0
   18.9102   13.6757   19.8110 H   0  0  0  0  0  0  0  0  0  0  0  0
   23.6549   12.4849   20.7924 H   0  0  0  0  0  0  0  0  0  0  0  0
   22.4345   11.3546   18.9472 H   0  0  0  0  0  0  0  0  0  0  0  0
   19.4124   12.3883   17.6048 H   0  0  0  0  0  0  0  0  0  0  0  0
   19.8423   11.7910   15.6675 H   0  0  0  0  0  0  0  0  0  0  0  0
   18.7640   11.1222   13.5357 H   0  0  0  0  0  0  0  0  0  0  0  0
   17.5902    8.9286   13.3638 H   0  0  0  0  0  0  0  0  0  0  0  0
   17.5045    7.4306   15.3450 H   0  0  0  0  0  0  0  0  0  0  0  0
   19.1901    8.1368   18.4705 H   0  0  0  0  0  0  0  0  0  0  0  0
   19.1931    5.7417   18.9030 H   0  0  0  0  0  0  0  0  0  0  0  0
   17.7148    3.7457   19.1368 H   0  0  0  0  0  0  0  0  0  0  0  0
   15.4133    3.7752   18.1702 H   0  0  0  0  0  0  0  0  0  0  0  0
   14.5900    5.8019   16.9594 H   0  0  0  0  0  0  0  0  0  0  0  0
   16.0690    7.7995   16.7389 H   0  0  0  0  0  0  0  0  0  0  0  0
  2  1  2  3
  3  2  1  0
  5  3  2  0
  3  4  1  0
  9  4  2  0
  6  5  1  0
  6  7  2  0
  8  7  1  0
  7  9  1  0
  9 10  1  0
 15 10  1  0
 10 11  2  0
 11 12  1  0
 13 12  2  0
 14 13  1  0
 15 14  2  0
 16 15  1  0
 17 16  1  0
 20 17  1  0
 18 17  2  0
 19 18  1  0
 22 19  2  0
 21 20  2  0
 22 21  1  0
 23 22  1  0
 24 23  1  0
 26 24  1  0
 24 25  2  0
 27 26  2  0
 31 26  1  0
 28 27  1  0
 29 28  2  0
 29 30  1  0
 30 31  2  0
 31 32  1  0
 32 33  1  0
 38 33  1  0
 33 34  2  0
 34 35  1  0
 36 35  2  0
 37 36  1  0
 38 37  2  0
  1 39  1  0
  1 40  1  0
  6 41  1  0
 11 42  1  0
 12 43  1  0
 13 44  1  0
 18 45  1  0
 19 46  1  0
 20 47  1  0
 21 48  1  0
 23 49  1  0
 27 50  1  0
 28 51  1  0
 29 52  1  0
 30 53  1  0
 32 54  1  0
 34 55  1  0
 35 56  1  0
 36 57  1  0
 37 58  1  0
 38 59  1  0
A    1
C10
A    2
N4
A    3
C1
A    4
N1
A    5
N2
A    6
C4
A    7
C3
A    8
F1
A    9
C2
A   10
C5
A   11
C6
A   12
C7
A   13
C8
A   14
N3
A   15
C9
A   16
O1
A   17
C11
A   18
C16
A   19
C15
A   20
C12
A   21
C13
A   22
C14
A   23
N5
A   24
C17
A   25
O2
A   26
C18
A   27
C23
A   28
C22
A   29
C21
A   30
C20
A   31
C19
A   32
N6
A   33
C24
A   34
C25
A   35
C26
A   36
C27
A   37
C28
A   38
C29
M  END
