3O57_ZG2_A_506
     RDKit          3D

 72 77  0  0  0  0  0  0  0  0999 V2000
   41.2450   45.5800   63.9860 C   0  0  0  0  0  0  0  0  0  0  0  0
   41.8630   46.8690   63.4410 C   0  0  0  0  0  0  0  0  0  0  0  0
   43.2860   46.6780   63.1510 N   0  0  0  0  0  0  0  0  0  0  0  0
   43.7810   46.3270   61.9410 N   0  0  0  0  0  0  0  0  0  0  0  0
   45.1260   46.2640   62.0690 C   0  0  0  0  0  0  0  0  0  0  0  0
   45.5230   46.6230   63.4230 C   0  0  0  0  0  0  0  0  0  0  0  0
   46.6960   46.7530   64.1480 C   0  0  0  0  0  0  0  0  0  0  0  0
   47.9720   46.5270   63.6660 N   0  0  0  0  0  0  0  0  0  0  0  0
   48.3540   46.0980   62.3310 C   0  0  0  0  0  0  0  0  0  0  0  0
   49.6030   45.2360   62.4950 C   0  0  0  0  0  0  0  0  0  0  0  0
   50.1330   44.7740   61.1370 C   0  0  0  0  0  0  0  0  0  0  0  0
   50.2970   45.8760   60.2340 O   0  0  0  0  0  0  0  0  0  0  0  0
   49.2270   46.7890   60.0680 C   0  0  0  0  0  0  0  0  0  0  0  0
   48.6740   47.2480   61.4250 C   0  0  0  0  0  0  0  0  0  0  0  0
   46.5390   47.1240   65.5040 C   0  0  0  0  0  0  0  0  0  0  0  0
   45.2650   47.3720   66.0190 C   0  0  0  0  0  0  0  0  0  0  0  0
   44.1440   47.2300   65.3230 N   0  0  0  0  0  0  0  0  0  0  0  0
   44.2690   46.8580   64.0280 C   0  0  0  0  0  0  0  0  0  0  0  0
   47.6710   47.4430   66.3900 C   0  0  0  0  0  0  0  0  0  0  0  0
   48.9570   47.3070   66.0210 N   0  0  0  0  0  0  0  0  0  0  0  0
   49.7580   47.8100   67.1530 C   0  0  0  0  0  0  0  0  0  0  0  0
   51.2670   47.8220   67.1990 C   0  0  0  0  0  0  0  0  0  0  0  0
   51.8630   47.8060   65.7720 C   0  0  0  0  0  0  0  0  0  0  0  0
   52.4010   46.6180   65.3710 N   0  0  0  0  0  0  0  0  0  0  0  0
   52.9980   46.4480   64.0400 C   0  0  0  0  0  0  0  0  0  0  0  0
   48.8630   48.2290   68.0540 C   0  0  0  0  0  0  0  0  0  0  0  0
   47.6010   48.0410   67.6090 O   0  0  0  0  0  0  0  0  0  0  0  0
   49.0430   48.8510   69.4070 C   0  0  0  0  0  0  0  0  0  0  0  0
   48.7780   50.3420   69.3730 C   0  0  0  0  0  0  0  0  0  0  0  0
   49.7500   51.2480   68.9280 C   0  0  0  0  0  0  0  0  0  0  0  0
   49.4980   52.6230   68.9070 C   0  0  0  0  0  0  0  0  0  0  0  0
   48.2640   53.1180   69.3310 C   0  0  0  0  0  0  0  0  0  0  0  0
   47.5400   50.8560   69.7890 C   0  0  0  0  0  0  0  0  0  0  0  0
   47.2910   52.2290   69.7730 C   0  0  0  0  0  0  0  0  0  0  0  0
   52.4370   45.3830   66.1730 C   0  0  0  0  0  0  0  0  0  0  0  0
   53.0710   44.3300   65.2440 C   0  0  0  0  0  0  0  0  0  0  0  0
   52.9350   44.9250   63.8390 C   0  0  0  0  0  0  0  0  0  0  0  0
   51.8540   48.8050   65.0650 O   0  0  0  0  0  0  0  0  0  0  0  0
   41.2566   45.6042   65.0857 H   0  0  0  0  0  0  0  0  0  0  0  0
   40.2071   45.4928   63.6321 H   0  0  0  0  0  0  0  0  0  0  0  0
   41.8269   44.7162   63.6321 H   0  0  0  0  0  0  0  0  0  0  0  0
   41.3414   47.1568   62.5163 H   0  0  0  0  0  0  0  0  0  0  0  0
   41.7593   47.6593   64.1991 H   0  0  0  0  0  0  0  0  0  0  0  0
   45.8211   45.9817   61.2645 H   0  0  0  0  0  0  0  0  0  0  0  0
   48.7428   46.6808   64.3316 H   0  0  0  0  0  0  0  0  0  0  0  0
   47.5152   45.5549   61.8712 H   0  0  0  0  0  0  0  0  0  0  0  0
   50.3813   45.8237   63.0037 H   0  0  0  0  0  0  0  0  0  0  0  0
   49.3402   44.3481   63.0888 H   0  0  0  0  0  0  0  0  0  0  0  0
   51.1064   44.2826   61.2816 H   0  0  0  0  0  0  0  0  0  0  0  0
   49.4029   44.0763   60.7009 H   0  0  0  0  0  0  0  0  0  0  0  0
   49.5873   47.6669   59.5117 H   0  0  0  0  0  0  0  0  0  0  0  0
   48.4206   46.2844   59.5156 H   0  0  0  0  0  0  0  0  0  0  0  0
   47.7557   47.8288   61.2539 H   0  0  0  0  0  0  0  0  0  0  0  0
   49.4498   47.8547   61.9150 H   0  0  0  0  0  0  0  0  0  0  0  0
   45.1858   47.7051   67.0644 H   0  0  0  0  0  0  0  0  0  0  0  0
   51.6042   48.7303   67.7199 H   0  0  0  0  0  0  0  0  0  0  0  0
   51.6094   46.9233   67.7329 H   0  0  0  0  0  0  0  0  0  0  0  0
   52.4131   46.9749   63.2717 H   0  0  0  0  0  0  0  0  0  0  0  0
   54.0151   46.8591   63.9599 H   0  0  0  0  0  0  0  0  0  0  0  0
   48.3432   48.3797   70.1129 H   0  0  0  0  0  0  0  0  0  0  0  0
   50.0846   48.6930   69.7233 H   0  0  0  0  0  0  0  0  0  0  0  0
   50.7267   50.8714   68.5899 H   0  0  0  0  0  0  0  0  0  0  0  0
   50.2752   53.3172   68.5550 H   0  0  0  0  0  0  0  0  0  0  0  0
   48.0635   54.1995   69.3156 H   0  0  0  0  0  0  0  0  0  0  0  0
   46.7547   50.1666   70.1326 H   0  0  0  0  0  0  0  0  0  0  0  0
   46.3170   52.6109   70.1129 H   0  0  0  0  0  0  0  0  0  0  0  0
   53.0508   45.5242   67.0748 H   0  0  0  0  0  0  0  0  0  0  0  0
   51.4370   45.0832   66.5196 H   0  0  0  0  0  0  0  0  0  0  0  0
   54.1295   44.1737   65.4991 H   0  0  0  0  0  0  0  0  0  0  0  0
   52.5830   43.3480   65.3310 H   0  0  0  0  0  0  0  0  0  0  0  0
   51.9746   44.6346   63.3881 H   0  0  0  0  0  0  0  0  0  0  0  0
   53.7240   44.5661   63.1618 H   0  0  0  0  0  0  0  0  0  0  0  0
  2  1  1  0
  3  2  1  0
  4  3  1  0
  3 18  1  0
  4  5  2  0
  5  6  1  0
  6 18  2  0
  6  7  1  0
  8  7  1  0
  7 15  2  0
  9  8  1  0
 14  9  1  0
  9 10  1  0
 11 10  1  0
 12 11  1  0
 13 12  1  0
 13 14  1  0
 15 16  1  0
 15 19  1  0
 17 16  2  0
 18 17  1  0
 20 19  2  0
 19 27  1  0
 20 21  1  0
 21 22  1  0
 21 26  2  0
 23 22  1  0
 38 23  2  0
 24 23  1  0
 25 24  1  0
 24 35  1  0
 37 25  1  0
 27 26  1  0
 26 28  1  0
 29 28  1  0
 30 29  2  0
 29 33  1  0
 31 30  1  0
 31 32  2  0
 32 34  1  0
 34 33  2  0
 36 35  1  0
 37 36  1  0
  1 39  1  0
  1 40  1  0
  1 41  1  0
  2 42  1  0
  2 43  1  0
  5 44  1  0
  8 45  1  0
  9 46  1  0
 10 47  1  0
 10 48  1  0
 11 49  1  0
 11 50  1  0
 13 51  1  0
 13 52  1  0
 14 53  1  0
 14 54  1  0
 16 55  1  0
 22 56  1  0
 22 57  1  0
 25 58  1  0
 25 59  1  0
 28 60  1  0
 28 61  1  0
 30 62  1  0
 31 63  1  0
 32 64  1  0
 33 65  1  0
 34 66  1  0
 35 67  1  0
 35 68  1  0
 36 69  1  0
 36 70  1  0
 37 71  1  0
 37 72  1  0
A    1
C1
A    2
C2
A    3
N3
A    4
N4
A    5
C5
A    6
C6
A    7
C7
A    8
N8
A    9
C9
A   10
C10
A   11
C11
A   12
O12
A   13
C13
A   14
C14
A   15
C18
A   16
C19
A   17
N20
A   18
C21
A   19
C22
A   20
N23
A   21
C24
A   22
C25
A   23
C26
A   24
N27
A   25
C28
A   26
C29
A   27
O30
A   28
C31
A   29
C32
A   30
C33
A   31
C34
A   32
C35
A   33
C36
A   34
C37
A   35
C38
A   36
C39
A   37
C40
A   38
O41
M  END
