3O6J_HQN_A_258
     RDKit          3D

 15 15  0  0  0  0  0  0  0  0999 V2000
   25.0000   61.0060  291.1220 C   0  0  0  0  0  0  0  0  0  0  0  0
   24.1820   58.9300  294.0200 O   0  0  0  0  0  0  0  0  0  0  0  0
   24.3310   60.5310  292.2510 C   0  0  0  0  0  0  0  0  0  0  0  0
   23.2410   61.1180  292.8100 O   0  0  0  0  0  0  0  0  0  0  0  0
   24.8480   59.3450  292.9220 C   0  0  0  0  0  0  0  0  0  0  0  0
   26.7880   60.7990  289.5230 O   0  0  0  0  0  0  0  0  0  0  0  0
   25.9590   58.7010  292.4090 C   0  0  0  0  0  0  0  0  0  0  0  0
   26.6030   59.1960  291.2660 C   0  0  0  0  0  0  0  0  0  0  0  0
   26.1360   60.3400  290.6330 C   0  0  0  0  0  0  0  0  0  0  0  0
   24.6348   61.9091  290.6110 H   0  0  0  0  0  0  0  0  0  0  0  0
   24.5297   59.1467  294.9212 H   0  0  0  0  0  0  0  0  0  0  0  0
   23.1544   61.1646  293.7951 H   0  0  0  0  0  0  0  0  0  0  0  0
   27.5935   61.3661  289.6212 H   0  0  0  0  0  0  0  0  0  0  0  0
   26.3402   57.7940  292.9010 H   0  0  0  0  0  0  0  0  0  0  0  0
   27.4853   58.6737  290.8677 H   0  0  0  0  0  0  0  0  0  0  0  0
  9  1  2  0
  1  3  1  0
  5  2  1  0
  3  4  1  0
  3  5  2  0
  7  5  1  0
  6  9  1  0
  8  7  2  0
  9  8  1  0
  1 10  1  0
  2 11  1  0
  4 12  1  0
  6 13  1  0
  7 14  1  0
  8 15  1  0
A    1
C1
A    2
O1
A    3
C2
A    4
O2
A    5
C3
A    6
O3
A    7
C4
A    8
C5
A    9
C6
M  END
