3O7U_O7U_A_430
     RDKit          3D

 15 15  0  0  0  0  0  0  0  0999 V2000
  -68.6610   18.1380  -14.9840 N   0  0  0  0  0  0  0  0  0  0  0  0
  -68.5570   19.5050  -15.2590 C   0  0  0  0  0  0  0  0  0  0  0  0
  -69.2330   20.4050  -14.7200 O   0  0  0  0  0  0  0  0  0  0  0  0
  -67.6650   19.8970  -16.2220 N   0  0  0  0  0  0  0  0  0  0  0  0
  -66.7920   19.1800  -18.6490 N   0  0  0  0  0  0  0  0  0  0  0  0
  -65.2930   19.4280  -16.6230 O   0  0  0  0  0  0  0  0  0  0  0  0
  -66.6200   18.9560  -17.0440 P   0  0  0  0  0  0  0  0  0  0  0  0
  -66.9530   17.2680  -16.5620 C   0  0  0  0  0  0  0  0  0  0  0  0
  -67.8540   17.1280  -15.6640 C   0  0  0  0  0  0  0  0  0  0  0  0
  -69.3366   17.8295  -14.2703 H   0  0  0  0  0  0  0  0  0  0  0  0
  -67.6539   20.9008  -16.4524 H   0  0  0  0  0  0  0  0  0  0  0  0
  -67.4107   19.9858  -18.8188 H   0  0  0  0  0  0  0  0  0  0  0  0
  -65.8700   19.3601  -19.0713 H   0  0  0  0  0  0  0  0  0  0  0  0
  -66.4225   16.4120  -17.0046 H   0  0  0  0  0  0  0  0  0  0  0  0
  -68.0505   16.0899  -15.3579 H   0  0  0  0  0  0  0  0  0  0  0  0
  1  2  1  0
  1  9  1  0
  2  3  2  0
  2  4  1  0
  4  7  1  0
  5  7  1  0
  6  7  2  0
  7  8  1  0
  8  9  2  0
  1 10  1  0
  4 11  1  0
  5 12  1  0
  5 13  1  0
  8 14  1  0
  9 15  1  0
A    1
N1
A    2
C2
A    3
O2
A    4
N3
A    5
N4
A    6
O4
A    7
P4
A    8
C5
A    9
C6
M  END
