3O8A_O8A_A_1001
     RDKit          3D

 40 43  0  0  0  0  0  0  0  0999 V2000
   31.4020   -9.8450   17.2800 C   0  0  0  0  0  0  0  0  0  0  0  0
   32.9190   -6.7290   19.7170 F   0  0  0  0  0  0  0  0  0  0  0  0
   31.8440  -10.4350   16.1540 N   0  0  0  0  0  0  0  0  0  0  0  0
   31.6580   -8.2720   20.5160 O   0  0  0  0  0  0  0  0  0  0  0  0
   27.3330  -11.8170   16.5560 S   0  0  0  0  0  0  0  0  0  0  0  0
   29.9640   -9.8420   17.1550 C   0  0  0  0  0  0  0  0  0  0  0  0
   31.0570   -6.2320   20.5040 F   0  0  0  0  0  0  0  0  0  0  0  0
   29.6130  -10.3900   15.9730 N   0  0  0  0  0  0  0  0  0  0  0  0
   24.8550  -13.1100   16.7950 O   0  0  0  0  0  0  0  0  0  0  0  0
   29.1630   -9.3150   18.1210 C   0  0  0  0  0  0  0  0  0  0  0  0
   32.6320   -6.7220   21.7240 F   0  0  0  0  0  0  0  0  0  0  0  0
   23.7630  -12.3090   15.1320 N   0  0  0  0  0  0  0  0  0  0  0  0
   29.7750   -8.7930   19.2380 C   0  0  0  0  0  0  0  0  0  0  0  0
   31.1400   -8.7800   19.3820 C   0  0  0  0  0  0  0  0  0  0  0  0
   31.9640   -9.3110   18.4150 C   0  0  0  0  0  0  0  0  0  0  0  0
   30.8220  -10.7910   15.3570 C   0  0  0  0  0  0  0  0  0  0  0  0
   32.0710   -6.9710   20.6180 C   0  0  0  0  0  0  0  0  0  0  0  0
   30.7250  -11.4470   14.0190 C   0  0  0  0  0  0  0  0  0  0  0  0
   28.2940  -10.7940   15.6330 C   0  0  0  0  0  0  0  0  0  0  0  0
   26.0470  -11.6820   15.4660 C   0  0  0  0  0  0  0  0  0  0  0  0
   26.3850  -10.8480   14.4240 C   0  0  0  0  0  0  0  0  0  0  0  0
   27.6660  -10.3290   14.5170 C   0  0  0  0  0  0  0  0  0  0  0  0
   24.8430  -12.4300   15.8310 C   0  0  0  0  0  0  0  0  0  0  0  0
   22.5390  -12.8540   15.6070 C   0  0  0  0  0  0  0  0  0  0  0  0
   21.6520  -13.1380   14.4270 C   0  0  0  0  0  0  0  0  0  0  0  0
   22.3870  -14.2660   15.1050 C   0  0  0  0  0  0  0  0  0  0  0  0
   28.0683   -9.3066   18.0132 H   0  0  0  0  0  0  0  0  0  0  0  0
   23.7890  -11.8162   14.2279 H   0  0  0  0  0  0  0  0  0  0  0  0
   29.1506   -8.3731   20.0404 H   0  0  0  0  0  0  0  0  0  0  0  0
   33.0558   -9.3079   18.5489 H   0  0  0  0  0  0  0  0  0  0  0  0
   30.5653  -12.5273   14.1510 H   0  0  0  0  0  0  0  0  0  0  0  0
   29.8807  -11.0171   13.4602 H   0  0  0  0  0  0  0  0  0  0  0  0
   31.6576  -11.2798   13.4602 H   0  0  0  0  0  0  0  0  0  0  0  0
   25.7011  -10.6153   13.5944 H   0  0  0  0  0  0  0  0  0  0  0  0
   28.1146   -9.6365   13.7896 H   0  0  0  0  0  0  0  0  0  0  0  0
   22.4249  -12.3557   16.5810 H   0  0  0  0  0  0  0  0  0  0  0  0
   20.5598  -13.0545   14.5274 H   0  0  0  0  0  0  0  0  0  0  0  0
   21.5861  -12.7619   13.3954 H   0  0  0  0  0  0  0  0  0  0  0  0
   23.2257  -14.7620   14.5945 H   0  0  0  0  0  0  0  0  0  0  0  0
   22.0950  -15.2257   15.5563 H   0  0  0  0  0  0  0  0  0  0  0  0
  1  3  1  0
  1  6  2  0
  1 15  1  0
  2 17  1  0
  3 16  2  0
  4 14  1  0
  4 17  1  0
  5 19  1  0
  5 20  1  0
  6  8  1  0
  6 10  1  0
  7 17  1  0
  8 16  1  0
  8 19  1  0
  9 23  2  0
 10 13  2  0
 11 17  1  0
 12 23  1  0
 12 24  1  0
 13 14  1  0
 14 15  2  0
 16 18  1  0
 19 22  2  0
 20 21  2  0
 20 23  1  0
 21 22  1  0
 24 25  1  0
 24 26  1  0
 25 26  1  0
 10 27  1  0
 12 28  1  0
 13 29  1  0
 15 30  1  0
 18 31  1  0
 18 32  1  0
 18 33  1  0
 21 34  1  0
 22 35  1  0
 24 36  1  0
 25 37  1  0
 25 38  1  0
 26 39  1  0
 26 40  1  0
A    1
C1
A    2
F1
A    3
N1
A    4
O1
A    5
S1
A    6
C2
A    7
F2
A    8
N2
A    9
O2
A   10
C3
A   11
F3
A   12
N3
A   13
C4
A   14
C5
A   15
C6
A   16
C7
A   17
C8
A   18
C9
A   19
C10
A   20
C11
A   21
C12
A   22
C13
A   23
C14
A   24
C15
A   25
C16
A   26
C17
M  END
