3O8I_M1T_A_232
     RDKit          3D

 25 24  0  0  0  0  0  0  0  0999 V2000
  -23.6360  -22.0120    4.3480 C   0  0  0  0  0  0  0  0  0  0  0  0
  -19.5660  -21.2430    4.0050 O   0  0  0  0  0  0  0  0  0  0  0  0
  -14.9700  -19.5560    2.0860 O   0  0  0  0  0  0  0  0  0  0  0  0
  -15.5970  -21.2460    0.6120 O   0  0  0  0  0  0  0  0  0  0  0  0
  -18.3170  -21.0680    1.6440 C   0  0  0  0  0  0  0  0  0  0  0  0
  -19.6970  -20.4850    1.7200 C   0  0  0  0  0  0  0  0  0  0  0  0
  -17.3090  -19.9770    1.8480 C   0  0  0  0  0  0  0  0  0  0  0  0
  -21.8510  -20.9930    3.0490 C   0  0  0  0  0  0  0  0  0  0  0  0
  -22.5700  -20.9510    4.2920 O   0  0  0  0  0  0  0  0  0  0  0  0
  -20.2990  -20.9470    3.0400 C   0  0  0  0  0  0  0  0  0  0  0  0
  -15.9090  -20.6070    1.8630 C   0  0  0  0  0  0  0  0  0  0  0  0
  -23.8683  -22.2433    5.3980 H   0  0  0  0  0  0  0  0  0  0  0  0
  -24.5430  -21.6475    3.8435 H   0  0  0  0  0  0  0  0  0  0  0  0
  -23.2758  -22.9207    3.8435 H   0  0  0  0  0  0  0  0  0  0  0  0
  -14.8500  -19.4217    3.0595 H   0  0  0  0  0  0  0  0  0  0  0  0
  -15.1694  -22.1217    0.7864 H   0  0  0  0  0  0  0  0  0  0  0  0
  -18.1965  -21.8313    2.4268 H   0  0  0  0  0  0  0  0  0  0  0  0
  -18.1654  -21.5316    0.6580 H   0  0  0  0  0  0  0  0  0  0  0  0
  -19.6459  -19.3866    1.6912 H   0  0  0  0  0  0  0  0  0  0  0  0
  -20.3117  -20.8149    0.8695 H   0  0  0  0  0  0  0  0  0  0  0  0
  -17.3795  -19.2479    1.0273 H   0  0  0  0  0  0  0  0  0  0  0  0
  -17.5004  -19.4588    2.7992 H   0  0  0  0  0  0  0  0  0  0  0  0
  -22.1425  -21.9271    2.5466 H   0  0  0  0  0  0  0  0  0  0  0  0
  -22.1316  -20.0453    2.5661 H   0  0  0  0  0  0  0  0  0  0  0  0
  -15.8687  -21.3733    2.6511 H   0  0  0  0  0  0  0  0  0  0  0  0
  1  9  1  0
  2 10  2  0
  3 11  1  0
  4 11  1  0
  5  6  1  0
  5  7  1  0
  6 10  1  0
  7 11  1  0
  8  9  1  0
  8 10  1  0
  1 12  1  0
  1 13  1  0
  1 14  1  0
  3 15  1  0
  4 16  1  0
  5 17  1  0
  5 18  1  0
  6 19  1  0
  6 20  1  0
  7 21  1  0
  7 22  1  0
  8 23  1  0
  8 24  1  0
 11 25  1  0
A    1
CAA
A    2
OAB
A    3
OAC
A    4
OAD
A    5
CAE
A    6
CAF
A    7
CAG
A    8
CAH
A    9
OAI
A   10
CAJ
A   11
CAK
M  END
