3O9A_K14_A_200
     RDKit          3D

 80 83  0  0  0  0  0  0  0  0999 V2000
   15.2640   36.8980   18.8620 C   0  0  0  0  0  0  0  0  0  0  0  0
   14.9130   35.5430   18.5380 O   0  0  0  0  0  0  0  0  0  0  0  0
   15.6430   34.7940   17.6380 C   0  0  0  0  0  0  0  0  0  0  0  0
   16.6690   35.3650   16.8740 C   0  0  0  0  0  0  0  0  0  0  0  0
   17.4010   34.5810   15.9790 C   0  0  0  0  0  0  0  0  0  0  0  0
   17.1500   33.2230   15.8090 C   0  0  0  0  0  0  0  0  0  0  0  0
   16.1150   32.6610   16.5710 C   0  0  0  0  0  0  0  0  0  0  0  0
   15.3780   33.4320   17.4870 C   0  0  0  0  0  0  0  0  0  0  0  0
   18.0510   32.3340   14.7750 S   0  0  0  0  0  0  0  0  0  0  0  0
   17.2730   31.2520   14.2660 O   0  0  0  0  0  0  0  0  0  0  0  0
   18.5690   33.1480   13.6970 O   0  0  0  0  0  0  0  0  0  0  0  0
   19.3640   31.7370   15.5100 N   0  0  0  0  0  0  0  0  0  0  0  0
   20.0780   32.7780   16.2950 C   0  0  0  0  0  0  0  0  0  0  0  0
   21.5800   32.4850   16.3810 C   0  0  0  0  0  0  0  0  0  0  0  0
   22.2640   32.3920   15.0110 C   0  0  0  0  0  0  0  0  0  0  0  0
   22.2460   33.5250   17.2850 C   0  0  0  0  0  0  0  0  0  0  0  0
   19.0910   30.5110   16.2930 C   0  0  0  0  0  0  0  0  0  0  0  0
   19.9380   29.3640   15.7330 C   0  0  0  0  0  0  0  0  0  0  0  0
   22.1360   34.9420   16.7850 C   0  0  0  0  0  0  0  0  0  0  0  0
   19.8840   28.2340   16.6120 O   0  0  0  0  0  0  0  0  0  0  0  0
   19.5400   28.9130   14.3330 C   0  0  0  0  0  0  0  0  0  0  0  0
   20.6230   28.1000   13.8510 N   0  0  0  0  0  0  0  0  0  0  0  0
   21.4740   28.4390   12.8860 C   0  0  0  0  0  0  0  0  0  0  0  0
   21.5030   29.4720   12.2360 O   0  0  0  0  0  0  0  0  0  0  0  0
   22.4340   27.4000   12.6390 O   0  0  0  0  0  0  0  0  0  0  0  0
   23.2840   27.5150   11.5100 C   0  0  0  0  0  0  0  0  0  0  0  0
   24.6090   26.9590   11.9810 C   0  0  0  0  0  0  0  0  0  0  0  0
   24.4480   25.5390   11.8700 O   0  0  0  0  0  0  0  0  0  0  0  0
   23.5370   25.2630   10.8020 C   0  0  0  0  0  0  0  0  0  0  0  0
   22.5090   24.3610   11.2120 O   0  0  0  0  0  0  0  0  0  0  0  0
   21.2220   25.0020   11.1960 C   0  0  0  0  0  0  0  0  0  0  0  0
   21.3860   26.2250   10.3070 C   0  0  0  0  0  0  0  0  0  0  0  0
   22.8660   26.5640   10.4090 C   0  0  0  0  0  0  0  0  0  0  0  0
   18.2250   28.1220   14.2440 C   0  0  0  0  0  0  0  0  0  0  0  0
   18.1390   26.4190   12.3770 C   0  0  0  0  0  0  0  0  0  0  0  0
   17.9430   26.0680   11.0550 C   0  0  0  0  0  0  0  0  0  0  0  0
   17.5910   27.0290   10.1290 C   0  0  0  0  0  0  0  0  0  0  0  0
   17.4440   28.3460   10.5230 C   0  0  0  0  0  0  0  0  0  0  0  0
   17.6280   28.6950   11.8560 C   0  0  0  0  0  0  0  0  0  0  0  0
   17.9870   27.7390   12.7890 C   0  0  0  0  0  0  0  0  0  0  0  0
   15.2949   37.0174   19.9551 H   0  0  0  0  0  0  0  0  0  0  0  0
   16.2524   37.1318   18.4395 H   0  0  0  0  0  0  0  0  0  0  0  0
   14.5135   37.5822   18.4395 H   0  0  0  0  0  0  0  0  0  0  0  0
   16.8993   36.4355   16.9793 H   0  0  0  0  0  0  0  0  0  0  0  0
   18.2014   35.0523   15.3898 H   0  0  0  0  0  0  0  0  0  0  0  0
   15.8749   31.5944   16.4493 H   0  0  0  0  0  0  0  0  0  0  0  0
   14.5877   32.9589   18.0883 H   0  0  0  0  0  0  0  0  0  0  0  0
   19.9315   33.7545   15.8102 H   0  0  0  0  0  0  0  0  0  0  0  0
   19.6682   32.7822   17.3158 H   0  0  0  0  0  0  0  0  0  0  0  0
   21.7021   31.4853   16.8234 H   0  0  0  0  0  0  0  0  0  0  0  0
   23.3452   32.2450   15.1502 H   0  0  0  0  0  0  0  0  0  0  0  0
   21.8476   31.5422   14.4502 H   0  0  0  0  0  0  0  0  0  0  0  0
   22.0896   33.3221   14.4502 H   0  0  0  0  0  0  0  0  0  0  0  0
   21.7738   33.4721   18.2771 H   0  0  0  0  0  0  0  0  0  0  0  0
   23.3184   33.2815   17.3086 H   0  0  0  0  0  0  0  0  0  0  0  0
   19.3517   30.6813   17.3480 H   0  0  0  0  0  0  0  0  0  0  0  0
   18.0237   30.2543   16.2223 H   0  0  0  0  0  0  0  0  0  0  0  0
   20.9591   29.7667   15.6607 H   0  0  0  0  0  0  0  0  0  0  0  0
   22.0826   35.6300   17.6416 H   0  0  0  0  0  0  0  0  0  0  0  0
   23.0180   35.1848   16.1742 H   0  0  0  0  0  0  0  0  0  0  0  0
   21.2271   35.0458   16.1742 H   0  0  0  0  0  0  0  0  0  0  0  0
   19.8989   28.5457   17.5515 H   0  0  0  0  0  0  0  0  0  0  0  0
   19.3571   29.8141   13.7291 H   0  0  0  0  0  0  0  0  0  0  0  0
   20.7511   27.1770   14.2897 H   0  0  0  0  0  0  0  0  0  0  0  0
   23.2834   28.5522   11.1437 H   0  0  0  0  0  0  0  0  0  0  0  0
   25.4308   27.3107   11.3399 H   0  0  0  0  0  0  0  0  0  0  0  0
   24.8629   27.2778   13.0027 H   0  0  0  0  0  0  0  0  0  0  0  0
   24.1010   24.8131    9.9716 H   0  0  0  0  0  0  0  0  0  0  0  0
   20.4608   24.3249   10.7812 H   0  0  0  0  0  0  0  0  0  0  0  0
   20.8908   25.2760   12.2086 H   0  0  0  0  0  0  0  0  0  0  0  0
   21.1097   25.9921    9.2680 H   0  0  0  0  0  0  0  0  0  0  0  0
   20.7399   27.0601   10.6155 H   0  0  0  0  0  0  0  0  0  0  0  0
   23.1303   27.0357    9.4511 H   0  0  0  0  0  0  0  0  0  0  0  0
   18.2966   27.2132   14.8597 H   0  0  0  0  0  0  0  0  0  0  0  0
   17.3905   28.7367   14.6126 H   0  0  0  0  0  0  0  0  0  0  0  0
   18.4177   25.6478   13.1102 H   0  0  0  0  0  0  0  0  0  0  0  0
   18.0677   25.0214   10.7402 H   0  0  0  0  0  0  0  0  0  0  0  0
   17.4275   26.7473    9.0783 H   0  0  0  0  0  0  0  0  0  0  0  0
   17.1819   29.1165    9.7829 H   0  0  0  0  0  0  0  0  0  0  0  0
   17.4870   29.7394   12.1712 H   0  0  0  0  0  0  0  0  0  0  0  0
  1  2  1  0
  2  3  1  0
  3  4  2  0
  3  8  1  0
  4  5  1  0
  5  6  2  0
  6  7  1  0
  6  9  1  0
  7  8  2  0
  9 10  2  0
  9 11  2  0
  9 12  1  0
 12 13  1  0
 12 17  1  0
 13 14  1  0
 14 15  1  0
 14 16  1  0
 16 19  1  0
 17 18  1  0
 18 20  1  0
 18 21  1  0
 21 22  1  0
 21 34  1  0
 22 23  1  0
 23 24  2  0
 23 25  1  0
 25 26  1  0
 26 27  1  0
 26 33  1  0
 27 28  1  0
 28 29  1  0
 29 30  1  0
 29 33  1  0
 30 31  1  0
 31 32  1  0
 32 33  1  0
 34 40  1  0
 35 36  2  0
 35 40  1  0
 36 37  1  0
 37 38  2  0
 38 39  1  0
 39 40  2  0
  1 41  1  0
  1 42  1  0
  1 43  1  0
  4 44  1  0
  5 45  1  0
  7 46  1  0
  8 47  1  0
 13 48  1  0
 13 49  1  0
 14 50  1  0
 15 51  1  0
 15 52  1  0
 15 53  1  0
 16 54  1  0
 16 55  1  0
 17 56  1  0
 17 57  1  0
 18 58  1  0
 19 59  1  0
 19 60  1  0
 19 61  1  0
 20 62  1  0
 21 63  1  0
 22 64  1  0
 26 65  1  0
 27 66  1  0
 27 67  1  0
 29 68  1  0
 31 69  1  0
 31 70  1  0
 32 71  1  0
 32 72  1  0
 33 73  1  0
 34 74  1  0
 34 75  1  0
 35 76  1  0
 36 77  1  0
 37 78  1  0
 38 79  1  0
 39 80  1  0
A    1
C1
A    2
O1
A    3
C2
A    4
C3
A    5
C4
A    6
C5
A    7
C6
A    8
C7
A    9
S8
A   10
O9
A   11
O10
A   12
N11
A   13
C12
A   14
C13
A   15
C14
A   16
C15
A   17
C16
A   18
C17
A   19
C18
A   20
O18
A   21
C19
A   22
N20
A   23
C21
A   24
O22
A   25
O23
A   26
C24
A   27
C25
A   28
O26
A   29
C27
A   30
O28
A   31
C29
A   32
C30
A   33
C31
A   34
C32
A   35
C33
A   36
C34
A   37
C35
A   38
C36
A   39
C37
A   40
C38
M  END
