3O9C_K20_A_200
     RDKit          3D

 79 83  0  0  0  0  0  0  0  0999 V2000
   15.6860   36.7420   18.4310 C   0  0  0  0  0  0  0  0  0  0  0  0
   15.0120   35.4700   18.5970 O   0  0  0  0  0  0  0  0  0  0  0  0
   15.6050   34.5810   17.7220 C   0  0  0  0  0  0  0  0  0  0  0  0
   16.6340   36.5460   17.3740 O   0  0  0  0  0  0  0  0  0  0  0  0
   16.5950   35.2180   17.0020 C   0  0  0  0  0  0  0  0  0  0  0  0
   17.3370   34.5430   16.0350 C   0  0  0  0  0  0  0  0  0  0  0  0
   17.1220   33.1740   15.8070 C   0  0  0  0  0  0  0  0  0  0  0  0
   16.1140   32.5460   16.5500 C   0  0  0  0  0  0  0  0  0  0  0  0
   15.3500   33.2310   17.5120 C   0  0  0  0  0  0  0  0  0  0  0  0
   18.0290   32.3410   14.7480 S   0  0  0  0  0  0  0  0  0  0  0  0
   17.3140   31.2170   14.2430 O   0  0  0  0  0  0  0  0  0  0  0  0
   18.5200   33.2070   13.6830 O   0  0  0  0  0  0  0  0  0  0  0  0
   19.3370   31.7340   15.4920 N   0  0  0  0  0  0  0  0  0  0  0  0
   20.1080   32.7450   16.2580 C   0  0  0  0  0  0  0  0  0  0  0  0
   21.6060   32.4410   16.3620 C   0  0  0  0  0  0  0  0  0  0  0  0
   22.3340   32.4190   15.0120 C   0  0  0  0  0  0  0  0  0  0  0  0
   22.2570   33.4460   17.3190 C   0  0  0  0  0  0  0  0  0  0  0  0
   19.0540   30.5120   16.2740 C   0  0  0  0  0  0  0  0  0  0  0  0
   19.9560   29.3810   15.7650 C   0  0  0  0  0  0  0  0  0  0  0  0
   22.0590   34.8880   16.9170 C   0  0  0  0  0  0  0  0  0  0  0  0
   19.9420   28.2620   16.6590 O   0  0  0  0  0  0  0  0  0  0  0  0
   19.5790   28.9150   14.3640 C   0  0  0  0  0  0  0  0  0  0  0  0
   20.6490   28.0800   13.8710 N   0  0  0  0  0  0  0  0  0  0  0  0
   21.4910   28.4340   12.9130 C   0  0  0  0  0  0  0  0  0  0  0  0
   21.5540   29.4800   12.2750 O   0  0  0  0  0  0  0  0  0  0  0  0
   22.4540   27.4050   12.6720 O   0  0  0  0  0  0  0  0  0  0  0  0
   23.2520   27.5490   11.5030 C   0  0  0  0  0  0  0  0  0  0  0  0
   24.5770   26.9610   11.9210 C   0  0  0  0  0  0  0  0  0  0  0  0
   24.3060   25.5610   11.8970 O   0  0  0  0  0  0  0  0  0  0  0  0
   23.4600   25.2900   10.7860 C   0  0  0  0  0  0  0  0  0  0  0  0
   22.4810   24.3360   11.1700 O   0  0  0  0  0  0  0  0  0  0  0  0
   21.2020   24.9680   11.2500 C   0  0  0  0  0  0  0  0  0  0  0  0
   21.3050   26.2320   10.3990 C   0  0  0  0  0  0  0  0  0  0  0  0
   22.7810   26.5960   10.4180 C   0  0  0  0  0  0  0  0  0  0  0  0
   18.2720   28.1290   14.2720 C   0  0  0  0  0  0  0  0  0  0  0  0
   18.1060   26.3830   12.4390 C   0  0  0  0  0  0  0  0  0  0  0  0
   17.8720   26.0170   11.1200 C   0  0  0  0  0  0  0  0  0  0  0  0
   17.5120   26.9650   10.1800 C   0  0  0  0  0  0  0  0  0  0  0  0
   17.4180   28.2930   10.5560 C   0  0  0  0  0  0  0  0  0  0  0  0
   17.6510   28.6580   11.8820 C   0  0  0  0  0  0  0  0  0  0  0  0
   18.0000   27.7140   12.8360 C   0  0  0  0  0  0  0  0  0  0  0  0
   14.9639   37.5254   18.1576 H   0  0  0  0  0  0  0  0  0  0  0  0
   16.1771   37.0646   19.3609 H   0  0  0  0  0  0  0  0  0  0  0  0
   18.0938   35.0842   15.4481 H   0  0  0  0  0  0  0  0  0  0  0  0
   15.9128   31.4789   16.3748 H   0  0  0  0  0  0  0  0  0  0  0  0
   14.5687   32.7102   18.0850 H   0  0  0  0  0  0  0  0  0  0  0  0
   19.9867   33.7199   15.7631 H   0  0  0  0  0  0  0  0  0  0  0  0
   19.7105   32.7373   17.2836 H   0  0  0  0  0  0  0  0  0  0  0  0
   21.7016   31.4185   16.7561 H   0  0  0  0  0  0  0  0  0  0  0  0
   23.4203   32.3862   15.1817 H   0  0  0  0  0  0  0  0  0  0  0  0
   22.0247   31.5298   14.4431 H   0  0  0  0  0  0  0  0  0  0  0  0
   22.0790   33.3253   14.4431 H   0  0  0  0  0  0  0  0  0  0  0  0
   21.8236   33.3025   18.3198 H   0  0  0  0  0  0  0  0  0  0  0  0
   23.3398   33.2535   17.2971 H   0  0  0  0  0  0  0  0  0  0  0  0
   19.2593   30.6982   17.3385 H   0  0  0  0  0  0  0  0  0  0  0  0
   17.9974   30.2293   16.1572 H   0  0  0  0  0  0  0  0  0  0  0  0
   20.9717   29.8010   15.7209 H   0  0  0  0  0  0  0  0  0  0  0  0
   21.9734   35.5117   17.8191 H   0  0  0  0  0  0  0  0  0  0  0  0
   22.9195   35.2236   16.3196 H   0  0  0  0  0  0  0  0  0  0  0  0
   21.1399   34.9792   16.3196 H   0  0  0  0  0  0  0  0  0  0  0  0
   19.9461   28.5867   17.5942 H   0  0  0  0  0  0  0  0  0  0  0  0
   19.4252   29.8249   13.7653 H   0  0  0  0  0  0  0  0  0  0  0  0
   20.7646   27.1474   14.2926 H   0  0  0  0  0  0  0  0  0  0  0  0
   23.2452   28.5892   11.1454 H   0  0  0  0  0  0  0  0  0  0  0  0
   25.3730   27.2255   11.2094 H   0  0  0  0  0  0  0  0  0  0  0  0
   24.9340   27.3251   12.8957 H   0  0  0  0  0  0  0  0  0  0  0  0
   24.0307   24.8907    9.9346 H   0  0  0  0  0  0  0  0  0  0  0  0
   20.4210   24.3025   10.8535 H   0  0  0  0  0  0  0  0  0  0  0  0
   20.9321   25.2027   12.2902 H   0  0  0  0  0  0  0  0  0  0  0  0
   20.9680   26.0349    9.3706 H   0  0  0  0  0  0  0  0  0  0  0  0
   20.6727   27.0447   10.7858 H   0  0  0  0  0  0  0  0  0  0  0  0
   22.9987   27.0787    9.4538 H   0  0  0  0  0  0  0  0  0  0  0  0
   18.3456   27.2295   14.9009 H   0  0  0  0  0  0  0  0  0  0  0  0
   17.4473   28.7686   14.6195 H   0  0  0  0  0  0  0  0  0  0  0  0
   18.3777   25.6144   13.1775 H   0  0  0  0  0  0  0  0  0  0  0  0
   17.9739   24.9635   10.8203 H   0  0  0  0  0  0  0  0  0  0  0  0
   17.3022   26.6659    9.1424 H   0  0  0  0  0  0  0  0  0  0  0  0
   17.1600   29.0597    9.8107 H   0  0  0  0  0  0  0  0  0  0  0  0
   17.5562   29.7137   12.1762 H   0  0  0  0  0  0  0  0  0  0  0  0
  1  2  1  0
  1  4  1  0
  2  3  1  0
  3  5  2  0
  3  9  1  0
  4  5  1  0
  5  6  1  0
  6  7  2  0
  7  8  1  0
  7 10  1  0
  8  9  2  0
 10 11  2  0
 10 12  2  0
 10 13  1  0
 13 14  1  0
 13 18  1  0
 14 15  1  0
 15 16  1  0
 15 17  1  0
 17 20  1  0
 18 19  1  0
 19 21  1  0
 19 22  1  0
 22 23  1  0
 22 35  1  0
 23 24  1  0
 24 25  2  0
 24 26  1  0
 26 27  1  0
 27 28  1  0
 27 34  1  0
 28 29  1  0
 29 30  1  0
 30 31  1  0
 30 34  1  0
 31 32  1  0
 32 33  1  0
 33 34  1  0
 35 41  1  0
 36 37  2  0
 36 41  1  0
 37 38  1  0
 38 39  2  0
 39 40  1  0
 40 41  2  0
  1 42  1  0
  1 43  1  0
  6 44  1  0
  8 45  1  0
  9 46  1  0
 14 47  1  0
 14 48  1  0
 15 49  1  0
 16 50  1  0
 16 51  1  0
 16 52  1  0
 17 53  1  0
 17 54  1  0
 18 55  1  0
 18 56  1  0
 19 57  1  0
 20 58  1  0
 20 59  1  0
 20 60  1  0
 21 61  1  0
 22 62  1  0
 23 63  1  0
 27 64  1  0
 28 65  1  0
 28 66  1  0
 30 67  1  0
 32 68  1  0
 32 69  1  0
 33 70  1  0
 33 71  1  0
 34 72  1  0
 35 73  1  0
 35 74  1  0
 36 75  1  0
 37 76  1  0
 38 77  1  0
 39 78  1  0
 40 79  1  0
A    1
C1
A    2
O1
A    3
C2
A    4
O2
A    5
C3
A    6
C4
A    7
C5
A    8
C6
A    9
C7
A   10
S8
A   11
O9
A   12
O10
A   13
N11
A   14
C12
A   15
C13
A   16
C14
A   17
C15
A   18
C16
A   19
C17
A   20
C18
A   21
O18
A   22
C19
A   23
N20
A   24
C21
A   25
O22
A   26
O23
A   27
C24
A   28
C25
A   29
O26
A   30
C27
A   31
O28
A   32
C29
A   33
C30
A   34
C31
A   35
C32
A   36
C33
A   37
C34
A   38
C35
A   39
C36
A   40
C37
A   41
C38
M  END
