3O9F_K2D_A_200
     RDKit          3D

 83 86  0  0  0  0  0  0  0  0999 V2000
   15.1490   36.9220   18.8820 C   0  0  0  0  0  0  0  0  0  0  0  0
   14.7710   35.5590   18.6410 O   0  0  0  0  0  0  0  0  0  0  0  0
   15.4970   34.8340   17.7240 C   0  0  0  0  0  0  0  0  0  0  0  0
   16.4500   35.4730   16.9080 C   0  0  0  0  0  0  0  0  0  0  0  0
   17.1840   34.7020   15.9980 C   0  0  0  0  0  0  0  0  0  0  0  0
   16.9690   33.3300   15.8340 C   0  0  0  0  0  0  0  0  0  0  0  0
   16.0100   32.7130   16.6490 C   0  0  0  0  0  0  0  0  0  0  0  0
   15.2760   33.4620   17.5790 C   0  0  0  0  0  0  0  0  0  0  0  0
   17.9050   32.4670   14.7990 S   0  0  0  0  0  0  0  0  0  0  0  0
   18.4970   33.3130   13.7890 O   0  0  0  0  0  0  0  0  0  0  0  0
   17.1750   31.3810   14.2430 O   0  0  0  0  0  0  0  0  0  0  0  0
   19.1630   31.8510   15.6290 N   0  0  0  0  0  0  0  0  0  0  0  0
   19.8450   32.8350   16.5200 C   0  0  0  0  0  0  0  0  0  0  0  0
   21.3720   32.6880   16.4850 C   0  0  0  0  0  0  0  0  0  0  0  0
   21.9310   32.8190   15.0660 C   0  0  0  0  0  0  0  0  0  0  0  0
   22.0230   33.6720   17.4660 C   0  0  0  0  0  0  0  0  0  0  0  0
   18.8620   30.5570   16.2850 C   0  0  0  0  0  0  0  0  0  0  0  0
   19.8240   29.5010   15.7260 C   0  0  0  0  0  0  0  0  0  0  0  0
   21.8880   35.1200   17.0730 C   0  0  0  0  0  0  0  0  0  0  0  0
   19.8240   28.3360   16.5680 O   0  0  0  0  0  0  0  0  0  0  0  0
   19.5010   29.0910   14.2980 C   0  0  0  0  0  0  0  0  0  0  0  0
   23.3300   32.2530   14.9340 C   0  0  0  0  0  0  0  0  0  0  0  0
   20.6070   28.2910   13.8380 N   0  0  0  0  0  0  0  0  0  0  0  0
   21.4980   28.6560   12.9190 C   0  0  0  0  0  0  0  0  0  0  0  0
   21.5780   29.7020   12.2980 O   0  0  0  0  0  0  0  0  0  0  0  0
   22.4490   27.6110   12.6550 O   0  0  0  0  0  0  0  0  0  0  0  0
   23.2980   27.7780   11.5230 C   0  0  0  0  0  0  0  0  0  0  0  0
   24.6300   27.2310   11.9960 C   0  0  0  0  0  0  0  0  0  0  0  0
   24.4260   25.8270   11.8710 O   0  0  0  0  0  0  0  0  0  0  0  0
   23.5310   25.5490   10.7880 C   0  0  0  0  0  0  0  0  0  0  0  0
   22.5340   24.6020   11.1750 O   0  0  0  0  0  0  0  0  0  0  0  0
   21.2440   25.2290   11.1580 C   0  0  0  0  0  0  0  0  0  0  0  0
   21.3720   26.4980   10.3230 C   0  0  0  0  0  0  0  0  0  0  0  0
   22.8500   26.8490   10.4090 C   0  0  0  0  0  0  0  0  0  0  0  0
   18.2070   28.2840   14.1910 C   0  0  0  0  0  0  0  0  0  0  0  0
   18.0840   26.5880   12.3280 C   0  0  0  0  0  0  0  0  0  0  0  0
   17.8740   26.2360   11.0060 C   0  0  0  0  0  0  0  0  0  0  0  0
   17.5310   27.2060   10.0850 C   0  0  0  0  0  0  0  0  0  0  0  0
   17.4090   28.5350   10.4790 C   0  0  0  0  0  0  0  0  0  0  0  0
   17.6150   28.8930   11.8130 C   0  0  0  0  0  0  0  0  0  0  0  0
   17.9620   27.9150   12.7400 C   0  0  0  0  0  0  0  0  0  0  0  0
   15.1990   37.1024   19.9659 H   0  0  0  0  0  0  0  0  0  0  0  0
   16.1344   37.1142   18.4324 H   0  0  0  0  0  0  0  0  0  0  0  0
   14.4034   37.5943   18.4324 H   0  0  0  0  0  0  0  0  0  0  0  0
   16.6150   36.5579   16.9839 H   0  0  0  0  0  0  0  0  0  0  0  0
   17.9578   35.1936   15.3901 H   0  0  0  0  0  0  0  0  0  0  0  0
   15.8318   31.6314   16.5579 H   0  0  0  0  0  0  0  0  0  0  0  0
   14.5178   32.9643   18.2014 H   0  0  0  0  0  0  0  0  0  0  0  0
   19.5795   33.8515   16.1939 H   0  0  0  0  0  0  0  0  0  0  0  0
   19.5112   32.6450   17.5507 H   0  0  0  0  0  0  0  0  0  0  0  0
   21.6267   31.6694   16.8129 H   0  0  0  0  0  0  0  0  0  0  0  0
   21.2666   32.2797   14.3749 H   0  0  0  0  0  0  0  0  0  0  0  0
   21.9827   33.8915   14.8270 H   0  0  0  0  0  0  0  0  0  0  0  0
   21.5534   33.5373   18.4515 H   0  0  0  0  0  0  0  0  0  0  0  0
   23.0995   33.4460   17.4709 H   0  0  0  0  0  0  0  0  0  0  0  0
   19.0014   30.6494   17.3722 H   0  0  0  0  0  0  0  0  0  0  0  0
   17.8202   30.2643   16.0877 H   0  0  0  0  0  0  0  0  0  0  0  0
   20.8208   29.9661   15.7130 H   0  0  0  0  0  0  0  0  0  0  0  0
   21.8300   35.7418   17.9785 H   0  0  0  0  0  0  0  0  0  0  0  0
   22.7620   35.4211   16.4768 H   0  0  0  0  0  0  0  0  0  0  0  0
   20.9734   35.2544   16.4768 H   0  0  0  0  0  0  0  0  0  0  0  0
   20.7574   28.0685   16.7613 H   0  0  0  0  0  0  0  0  0  0  0  0
   19.3525   29.9940   13.6877 H   0  0  0  0  0  0  0  0  0  0  0  0
   23.7524   32.0821   15.9352 H   0  0  0  0  0  0  0  0  0  0  0  0
   23.2899   31.3004   14.3855 H   0  0  0  0  0  0  0  0  0  0  0  0
   23.9636   32.9655   14.3855 H   0  0  0  0  0  0  0  0  0  0  0  0
   20.7179   27.3562   14.2561 H   0  0  0  0  0  0  0  0  0  0  0  0
   23.3096   28.8188   11.1671 H   0  0  0  0  0  0  0  0  0  0  0  0
   25.4552   27.5750   11.3551 H   0  0  0  0  0  0  0  0  0  0  0  0
   24.9105   27.5531   13.0097 H   0  0  0  0  0  0  0  0  0  0  0  0
   24.0977   25.1271    9.9449 H   0  0  0  0  0  0  0  0  0  0  0  0
   20.5024   24.5537   10.7064 H   0  0  0  0  0  0  0  0  0  0  0  0
   20.9104   25.4649   12.1793 H   0  0  0  0  0  0  0  0  0  0  0  0
   21.0746   26.3115    9.2805 H   0  0  0  0  0  0  0  0  0  0  0  0
   20.7229   27.3093   10.6843 H   0  0  0  0  0  0  0  0  0  0  0  0
   23.0840   27.3402    9.4530 H   0  0  0  0  0  0  0  0  0  0  0  0
   18.2952   27.3675   14.7929 H   0  0  0  0  0  0  0  0  0  0  0  0
   17.3659   28.8870   14.5639 H   0  0  0  0  0  0  0  0  0  0  0  0
   18.3500   25.8128   13.0617 H   0  0  0  0  0  0  0  0  0  0  0  0
   17.9799   25.1876   10.6902 H   0  0  0  0  0  0  0  0  0  0  0  0
   17.3535   26.9271    9.0359 H   0  0  0  0  0  0  0  0  0  0  0  0
   17.1497   29.3054    9.7379 H   0  0  0  0  0  0  0  0  0  0  0  0
   17.5037   29.9408   12.1288 H   0  0  0  0  0  0  0  0  0  0  0  0
  1  2  1  0
  2  3  1  0
  3  4  2  0
  3  8  1  0
  4  5  1  0
  5  6  2  0
  6  7  1  0
  6  9  1  0
  7  8  2  0
  9 10  2  0
  9 11  2  0
  9 12  1  0
 12 13  1  0
 12 17  1  0
 13 14  1  0
 14 15  1  0
 14 16  1  0
 15 22  1  0
 16 19  1  0
 17 18  1  0
 18 20  1  0
 18 21  1  0
 21 23  1  0
 21 35  1  0
 23 24  1  0
 24 25  2  0
 24 26  1  0
 26 27  1  0
 27 28  1  0
 27 34  1  0
 28 29  1  0
 29 30  1  0
 30 31  1  0
 30 34  1  0
 31 32  1  0
 32 33  1  0
 33 34  1  0
 35 41  1  0
 36 37  2  0
 36 41  1  0
 37 38  1  0
 38 39  2  0
 39 40  1  0
 40 41  2  0
  1 42  1  0
  1 43  1  0
  1 44  1  0
  4 45  1  0
  5 46  1  0
  7 47  1  0
  8 48  1  0
 13 49  1  0
 13 50  1  0
 14 51  1  0
 15 52  1  0
 15 53  1  0
 16 54  1  0
 16 55  1  0
 17 56  1  0
 17 57  1  0
 18 58  1  0
 19 59  1  0
 19 60  1  0
 19 61  1  0
 20 62  1  0
 21 63  1  0
 22 64  1  0
 22 65  1  0
 22 66  1  0
 23 67  1  0
 27 68  1  0
 28 69  1  0
 28 70  1  0
 30 71  1  0
 32 72  1  0
 32 73  1  0
 33 74  1  0
 33 75  1  0
 34 76  1  0
 35 77  1  0
 35 78  1  0
 36 79  1  0
 37 80  1  0
 38 81  1  0
 39 82  1  0
 40 83  1  0
A    1
C1
A    2
O1
A    3
C2
A    4
C3
A    5
C4
A    6
C5
A    7
C6
A    8
C7
A    9
S8
A   10
O9
A   11
O10
A   12
N11
A   13
C12
A   14
C13
A   15
C14
A   16
C15
A   17
C16
A   18
C17
A   19
C18
A   20
O18
A   21
C19
A   22
C20
A   23
N20
A   24
C21
A   25
O22
A   26
O23
A   27
C24
A   28
C25
A   29
O26
A   30
C27
A   31
O28
A   32
C29
A   33
C30
A   34
C31
A   35
C32
A   36
C33
A   37
C34
A   38
C35
A   39
C36
A   40
C37
A   41
C38
M  END
