3O9G_F53_A_200
     RDKit          3D

 83 86  0  0  0  0  0  0  0  0999 V2000
   14.2960   35.7890   18.2350 C   0  0  0  0  0  0  0  0  0  0  0  0
   14.8510   35.8600   19.5590 O   0  0  0  0  0  0  0  0  0  0  0  0
   15.2060   34.9220   17.3790 C   0  0  0  0  0  0  0  0  0  0  0  0
   16.2360   35.5150   16.6580 C   0  0  0  0  0  0  0  0  0  0  0  0
   17.0740   34.7250   15.8480 C   0  0  0  0  0  0  0  0  0  0  0  0
   16.9100   33.3270   15.7550 C   0  0  0  0  0  0  0  0  0  0  0  0
   15.8810   32.7460   16.5160 C   0  0  0  0  0  0  0  0  0  0  0  0
   15.0210   33.5420   17.3020 C   0  0  0  0  0  0  0  0  0  0  0  0
   22.5210   24.6060   11.2720 O   0  0  0  0  0  0  0  0  0  0  0  0
   17.9290   32.3990   14.8720 S   0  0  0  0  0  0  0  0  0  0  0  0
   18.5970   33.2150   13.9280 O   0  0  0  0  0  0  0  0  0  0  0  0
   17.2180   31.2890   14.2940 O   0  0  0  0  0  0  0  0  0  0  0  0
   19.1210   31.7980   15.7940 N   0  0  0  0  0  0  0  0  0  0  0  0
   19.7810   32.8440   16.6270 C   0  0  0  0  0  0  0  0  0  0  0  0
   21.2890   32.6320   16.5680 C   0  0  0  0  0  0  0  0  0  0  0  0
   21.8490   32.8160   15.1560 C   0  0  0  0  0  0  0  0  0  0  0  0
   21.9750   33.5550   17.5770 C   0  0  0  0  0  0  0  0  0  0  0  0
   18.8230   30.4980   16.4310 C   0  0  0  0  0  0  0  0  0  0  0  0
   19.7940   29.4340   15.8810 C   0  0  0  0  0  0  0  0  0  0  0  0
   21.8030   35.0240   17.2580 C   0  0  0  0  0  0  0  0  0  0  0  0
   19.7890   28.2430   16.6950 O   0  0  0  0  0  0  0  0  0  0  0  0
   19.4670   29.0490   14.4330 C   0  0  0  0  0  0  0  0  0  0  0  0
   23.3300   32.4940   15.0310 C   0  0  0  0  0  0  0  0  0  0  0  0
   20.5620   28.2570   13.9230 N   0  0  0  0  0  0  0  0  0  0  0  0
   21.4570   28.6380   13.0100 C   0  0  0  0  0  0  0  0  0  0  0  0
   21.5550   29.6840   12.4000 O   0  0  0  0  0  0  0  0  0  0  0  0
   22.4390   27.6090   12.7640 O   0  0  0  0  0  0  0  0  0  0  0  0
   23.2770   27.7790   11.6290 C   0  0  0  0  0  0  0  0  0  0  0  0
   24.5910   27.1810   12.1260 C   0  0  0  0  0  0  0  0  0  0  0  0
   24.3900   25.7760   11.9720 O   0  0  0  0  0  0  0  0  0  0  0  0
   23.5160   25.5460   10.8720 C   0  0  0  0  0  0  0  0  0  0  0  0
   21.2370   25.2510   11.3180 C   0  0  0  0  0  0  0  0  0  0  0  0
   21.3650   26.4900   10.4390 C   0  0  0  0  0  0  0  0  0  0  0  0
   22.8480   26.8540   10.5110 C   0  0  0  0  0  0  0  0  0  0  0  0
   18.1900   28.2210   14.2730 C   0  0  0  0  0  0  0  0  0  0  0  0
   18.0810   26.5890   12.3620 C   0  0  0  0  0  0  0  0  0  0  0  0
   17.8970   26.2280   11.0320 C   0  0  0  0  0  0  0  0  0  0  0  0
   17.5650   27.2110   10.1090 C   0  0  0  0  0  0  0  0  0  0  0  0
   17.4330   28.5250   10.5340 C   0  0  0  0  0  0  0  0  0  0  0  0
   17.6080   28.8820   11.8810 C   0  0  0  0  0  0  0  0  0  0  0  0
   17.9600   27.9060   12.8070 C   0  0  0  0  0  0  0  0  0  0  0  0
   13.2908   35.3442   18.2769 H   0  0  0  0  0  0  0  0  0  0  0  0
   14.2189   36.7976   17.8029 H   0  0  0  0  0  0  0  0  0  0  0  0
   14.1256   35.7672   20.2263 H   0  0  0  0  0  0  0  0  0  0  0  0
   16.3964   36.6015   16.7203 H   0  0  0  0  0  0  0  0  0  0  0  0
   17.8767   35.2101   15.2733 H   0  0  0  0  0  0  0  0  0  0  0  0
   15.7441   31.6547   16.4986 H   0  0  0  0  0  0  0  0  0  0  0  0
   14.1979   33.0701   17.8586 H   0  0  0  0  0  0  0  0  0  0  0  0
   19.5313   33.8414   16.2359 H   0  0  0  0  0  0  0  0  0  0  0  0
   19.4316   32.7718   17.6675 H   0  0  0  0  0  0  0  0  0  0  0  0
   21.5011   31.5875   16.8399 H   0  0  0  0  0  0  0  0  0  0  0  0
   21.2927   32.1556   14.4745 H   0  0  0  0  0  0  0  0  0  0  0  0
   21.7324   33.8803   14.9036 H   0  0  0  0  0  0  0  0  0  0  0  0
   21.5491   33.3618   18.5726 H   0  0  0  0  0  0  0  0  0  0  0  0
   23.0525   33.3371   17.5375 H   0  0  0  0  0  0  0  0  0  0  0  0
   18.9488   30.5839   17.5204 H   0  0  0  0  0  0  0  0  0  0  0  0
   17.7864   30.2047   16.2088 H   0  0  0  0  0  0  0  0  0  0  0  0
   20.7943   29.8908   15.9085 H   0  0  0  0  0  0  0  0  0  0  0  0
   21.7359   35.5972   18.1945 H   0  0  0  0  0  0  0  0  0  0  0  0
   22.6661   35.3759   16.6738 H   0  0  0  0  0  0  0  0  0  0  0  0
   20.8820   35.1670   16.6738 H   0  0  0  0  0  0  0  0  0  0  0  0
   19.7901   28.4972   17.6518 H   0  0  0  0  0  0  0  0  0  0  0  0
   19.3132   29.9910   13.8862 H   0  0  0  0  0  0  0  0  0  0  0  0
   23.7704   32.3983   16.0344 H   0  0  0  0  0  0  0  0  0  0  0  0
   23.4546   31.5478   14.4841 H   0  0  0  0  0  0  0  0  0  0  0  0
   23.8363   33.3031   14.4841 H   0  0  0  0  0  0  0  0  0  0  0  0
   20.6616   27.3043   14.3015 H   0  0  0  0  0  0  0  0  0  0  0  0
   23.2887   28.8193   11.2719 H   0  0  0  0  0  0  0  0  0  0  0  0
   25.4378   27.5274   11.5153 H   0  0  0  0  0  0  0  0  0  0  0  0
   24.8330   27.4711   13.1591 H   0  0  0  0  0  0  0  0  0  0  0  0
   24.0737   25.1563   10.0076 H   0  0  0  0  0  0  0  0  0  0  0  0
   20.4574   24.5815   10.9257 H   0  0  0  0  0  0  0  0  0  0  0  0
   20.9508   25.5119   12.3476 H   0  0  0  0  0  0  0  0  0  0  0  0
   21.0689   26.2653    9.4037 H   0  0  0  0  0  0  0  0  0  0  0  0
   20.7144   27.3113   10.7738 H   0  0  0  0  0  0  0  0  0  0  0  0
   23.0973   27.3545    9.5637 H   0  0  0  0  0  0  0  0  0  0  0  0
   18.2912   27.2817   14.8365 H   0  0  0  0  0  0  0  0  0  0  0  0
   17.3349   28.7954   14.6588 H   0  0  0  0  0  0  0  0  0  0  0  0
   18.3318   25.8055   13.0922 H   0  0  0  0  0  0  0  0  0  0  0  0
   18.0125   25.1807   10.7160 H   0  0  0  0  0  0  0  0  0  0  0  0
   17.4083   26.9505    9.0518 H   0  0  0  0  0  0  0  0  0  0  0  0
   17.1856   29.3052    9.7991 H   0  0  0  0  0  0  0  0  0  0  0  0
   17.4678   29.9251   12.2009 H   0  0  0  0  0  0  0  0  0  0  0  0
  1  2  1  0
  1  3  1  0
  3  4  2  0
  3  8  1  0
  4  5  1  0
  5  6  2  0
  6  7  1  0
  6 10  1  0
  7  8  2  0
  9 31  1  0
  9 32  1  0
 10 11  2  0
 10 12  2  0
 10 13  1  0
 13 14  1  0
 13 18  1  0
 14 15  1  0
 15 16  1  0
 15 17  1  0
 16 23  1  0
 17 20  1  0
 18 19  1  0
 19 21  1  0
 19 22  1  0
 22 24  1  0
 22 35  1  0
 24 25  1  0
 25 26  2  0
 25 27  1  0
 27 28  1  0
 28 29  1  0
 28 34  1  0
 29 30  1  0
 30 31  1  0
 31 34  1  0
 32 33  1  0
 33 34  1  0
 35 41  1  0
 36 37  2  0
 36 41  1  0
 37 38  1  0
 38 39  2  0
 39 40  1  0
 40 41  2  0
  1 42  1  0
  1 43  1  0
  2 44  1  0
  4 45  1  0
  5 46  1  0
  7 47  1  0
  8 48  1  0
 14 49  1  0
 14 50  1  0
 15 51  1  0
 16 52  1  0
 16 53  1  0
 17 54  1  0
 17 55  1  0
 18 56  1  0
 18 57  1  0
 19 58  1  0
 20 59  1  0
 20 60  1  0
 20 61  1  0
 21 62  1  0
 22 63  1  0
 23 64  1  0
 23 65  1  0
 23 66  1  0
 24 67  1  0
 28 68  1  0
 29 69  1  0
 29 70  1  0
 31 71  1  0
 32 72  1  0
 32 73  1  0
 33 74  1  0
 33 75  1  0
 34 76  1  0
 35 77  1  0
 35 78  1  0
 36 79  1  0
 37 80  1  0
 38 81  1  0
 39 82  1  0
 40 83  1  0
A    1
C1
A    2
O1
A    3
C2
A    4
C3
A    5
C4
A    6
C5
A    7
C6
A    8
C7
A    9
O8
A   10
S8
A   11
O9
A   12
O10
A   13
N11
A   14
C12
A   15
C13
A   16
C14
A   17
C15
A   18
C16
A   19
C17
A   20
C18
A   21
O18
A   22
C19
A   23
C20
A   24
N20
A   25
C21
A   26
O22
A   27
O23
A   28
C24
A   29
C25
A   30
O26
A   31
C27
A   32
C29
A   33
C30
A   34
C31
A   35
C32
A   36
C33
A   37
C34
A   38
C35
A   39
C36
A   40
C37
A   41
C38
M  END
