3O9H_K2E_B_200
     RDKit          3D

 82 86  0  0  0  0  0  0  0  0999 V2000
   15.6200   36.7170   18.3630 C   0  0  0  0  0  0  0  0  0  0  0  0
   14.9180   35.4570   18.5330 O   0  0  0  0  0  0  0  0  0  0  0  0
   15.5210   34.5500   17.6900 C   0  0  0  0  0  0  0  0  0  0  0  0
   16.5050   36.5260   17.2440 O   0  0  0  0  0  0  0  0  0  0  0  0
   16.4570   35.1900   16.9080 C   0  0  0  0  0  0  0  0  0  0  0  0
   17.1950   34.5020   15.9530 C   0  0  0  0  0  0  0  0  0  0  0  0
   17.0290   33.1160   15.7760 C   0  0  0  0  0  0  0  0  0  0  0  0
   16.0420   32.4880   16.5600 C   0  0  0  0  0  0  0  0  0  0  0  0
   15.2840   33.1980   17.5180 C   0  0  0  0  0  0  0  0  0  0  0  0
   17.9600   32.2970   14.7070 S   0  0  0  0  0  0  0  0  0  0  0  0
   17.2300   31.1650   14.1990 O   0  0  0  0  0  0  0  0  0  0  0  0
   18.4890   33.1680   13.6830 O   0  0  0  0  0  0  0  0  0  0  0  0
   19.2300   31.6890   15.5320 N   0  0  0  0  0  0  0  0  0  0  0  0
   19.9510   32.6910   16.3510 C   0  0  0  0  0  0  0  0  0  0  0  0
   21.4670   32.4750   16.3430 C   0  0  0  0  0  0  0  0  0  0  0  0
   22.0610   32.6170   14.9310 C   0  0  0  0  0  0  0  0  0  0  0  0
   22.1360   33.4370   17.3380 C   0  0  0  0  0  0  0  0  0  0  0  0
   18.9190   30.4610   16.2880 C   0  0  0  0  0  0  0  0  0  0  0  0
   19.8470   29.3730   15.7400 C   0  0  0  0  0  0  0  0  0  0  0  0
   21.9910   34.9000   17.0010 C   0  0  0  0  0  0  0  0  0  0  0  0
   19.9230   28.2710   16.6430 O   0  0  0  0  0  0  0  0  0  0  0  0
   19.4860   28.9020   14.3340 C   0  0  0  0  0  0  0  0  0  0  0  0
   23.4600   32.0600   14.8370 C   0  0  0  0  0  0  0  0  0  0  0  0
   20.5830   28.1050   13.8450 N   0  0  0  0  0  0  0  0  0  0  0  0
   21.4770   28.4460   12.9310 C   0  0  0  0  0  0  0  0  0  0  0  0
   21.6270   29.4930   12.3300 O   0  0  0  0  0  0  0  0  0  0  0  0
   22.3930   27.3740   12.6440 O   0  0  0  0  0  0  0  0  0  0  0  0
   23.2650   27.5210   11.5280 C   0  0  0  0  0  0  0  0  0  0  0  0
   24.5850   26.9280   12.0000 C   0  0  0  0  0  0  0  0  0  0  0  0
   24.3950   25.5220   11.8700 O   0  0  0  0  0  0  0  0  0  0  0  0
   23.5090   25.2500   10.7890 C   0  0  0  0  0  0  0  0  0  0  0  0
   22.5120   24.3050   11.1980 O   0  0  0  0  0  0  0  0  0  0  0  0
   21.2600   24.9760   11.3350 C   0  0  0  0  0  0  0  0  0  0  0  0
   21.3560   26.1900   10.4100 C   0  0  0  0  0  0  0  0  0  0  0  0
   22.8330   26.5640   10.4400 C   0  0  0  0  0  0  0  0  0  0  0  0
   18.2020   28.0610   14.2430 C   0  0  0  0  0  0  0  0  0  0  0  0
   18.1340   26.3530   12.3800 C   0  0  0  0  0  0  0  0  0  0  0  0
   17.9310   25.9860   11.0530 C   0  0  0  0  0  0  0  0  0  0  0  0
   17.5280   26.9380   10.1290 C   0  0  0  0  0  0  0  0  0  0  0  0
   17.3330   28.2480   10.5260 C   0  0  0  0  0  0  0  0  0  0  0  0
   17.5410   28.6170   11.8580 C   0  0  0  0  0  0  0  0  0  0  0  0
   17.9530   27.6730   12.7940 C   0  0  0  0  0  0  0  0  0  0  0  0
   14.9066   37.5275   18.1529 H   0  0  0  0  0  0  0  0  0  0  0  0
   16.1721   36.9983   19.2719 H   0  0  0  0  0  0  0  0  0  0  0  0
   17.9176   35.0471   15.3279 H   0  0  0  0  0  0  0  0  0  0  0  0
   15.8556   31.4127   16.4225 H   0  0  0  0  0  0  0  0  0  0  0  0
   14.5180   32.6841   18.1172 H   0  0  0  0  0  0  0  0  0  0  0  0
   19.7355   33.6933   15.9522 H   0  0  0  0  0  0  0  0  0  0  0  0
   19.6042   32.5853   17.3895 H   0  0  0  0  0  0  0  0  0  0  0  0
   21.6698   31.4420   16.6620 H   0  0  0  0  0  0  0  0  0  0  0  0
   21.4173   32.0770   14.2210 H   0  0  0  0  0  0  0  0  0  0  0  0
   22.1106   33.6901   14.6943 H   0  0  0  0  0  0  0  0  0  0  0  0
   21.6895   33.2686   18.3291 H   0  0  0  0  0  0  0  0  0  0  0  0
   23.2133   33.2174   17.3032 H   0  0  0  0  0  0  0  0  0  0  0  0
   19.1060   30.6164   17.3608 H   0  0  0  0  0  0  0  0  0  0  0  0
   17.8617   30.1789   16.1756 H   0  0  0  0  0  0  0  0  0  0  0  0
   20.8396   29.8390   15.6527 H   0  0  0  0  0  0  0  0  0  0  0  0
   21.9329   35.4862   17.9299 H   0  0  0  0  0  0  0  0  0  0  0  0
   22.8609   35.2289   16.4136 H   0  0  0  0  0  0  0  0  0  0  0  0
   21.0734   35.0518   16.4136 H   0  0  0  0  0  0  0  0  0  0  0  0
   19.8999   28.6055   17.5745 H   0  0  0  0  0  0  0  0  0  0  0  0
   19.3002   29.8065   13.7363 H   0  0  0  0  0  0  0  0  0  0  0  0
   23.8600   31.9007   15.8492 H   0  0  0  0  0  0  0  0  0  0  0  0
   23.4378   31.1021   14.2966 H   0  0  0  0  0  0  0  0  0  0  0  0
   24.1022   32.7710   14.2966 H   0  0  0  0  0  0  0  0  0  0  0  0
   20.6821   27.1644   14.2529 H   0  0  0  0  0  0  0  0  0  0  0  0
   23.2936   28.5645   11.1811 H   0  0  0  0  0  0  0  0  0  0  0  0
   25.4167   27.2707   11.3668 H   0  0  0  0  0  0  0  0  0  0  0  0
   24.8419   27.2282   13.0266 H   0  0  0  0  0  0  0  0  0  0  0  0
   24.0553   24.8317    9.9308 H   0  0  0  0  0  0  0  0  0  0  0  0
   20.4338   24.3190   11.0256 H   0  0  0  0  0  0  0  0  0  0  0  0
   21.0595   25.2663   12.3769 H   0  0  0  0  0  0  0  0  0  0  0  0
   21.0399   25.9292    9.3892 H   0  0  0  0  0  0  0  0  0  0  0  0
   20.7045   27.0168   10.7294 H   0  0  0  0  0  0  0  0  0  0  0  0
   23.0775   27.0543    9.4861 H   0  0  0  0  0  0  0  0  0  0  0  0
   18.3150   27.1519   14.8520 H   0  0  0  0  0  0  0  0  0  0  0  0
   17.3509   28.6489   14.6170 H   0  0  0  0  0  0  0  0  0  0  0  0
   18.4413   25.5920   13.1124 H   0  0  0  0  0  0  0  0  0  0  0  0
   18.0898   24.9440   10.7382 H   0  0  0  0  0  0  0  0  0  0  0  0
   17.3634   26.6510    9.0799 H   0  0  0  0  0  0  0  0  0  0  0  0
   17.0133   29.0019    9.7915 H   0  0  0  0  0  0  0  0  0  0  0  0
   17.3781   29.6597   12.1683 H   0  0  0  0  0  0  0  0  0  0  0  0
  1  2  1  0
  1  4  1  0
  2  3  1  0
  3  5  2  0
  3  9  1  0
  4  5  1  0
  5  6  1  0
  6  7  2  0
  7  8  1  0
  7 10  1  0
  8  9  2  0
 10 11  2  0
 10 12  2  0
 10 13  1  0
 13 14  1  0
 13 18  1  0
 14 15  1  0
 15 16  1  0
 15 17  1  0
 16 23  1  0
 17 20  1  0
 18 19  1  0
 19 21  1  0
 19 22  1  0
 22 24  1  0
 22 36  1  0
 24 25  1  0
 25 26  2  0
 25 27  1  0
 27 28  1  0
 28 29  1  0
 28 35  1  0
 29 30  1  0
 30 31  1  0
 31 32  1  0
 31 35  1  0
 32 33  1  0
 33 34  1  0
 34 35  1  0
 36 42  1  0
 37 38  2  0
 37 42  1  0
 38 39  1  0
 39 40  2  0
 40 41  1  0
 41 42  2  0
  1 43  1  0
  1 44  1  0
  6 45  1  0
  8 46  1  0
  9 47  1  0
 14 48  1  0
 14 49  1  0
 15 50  1  0
 16 51  1  0
 16 52  1  0
 17 53  1  0
 17 54  1  0
 18 55  1  0
 18 56  1  0
 19 57  1  0
 20 58  1  0
 20 59  1  0
 20 60  1  0
 21 61  1  0
 22 62  1  0
 23 63  1  0
 23 64  1  0
 23 65  1  0
 24 66  1  0
 28 67  1  0
 29 68  1  0
 29 69  1  0
 31 70  1  0
 33 71  1  0
 33 72  1  0
 34 73  1  0
 34 74  1  0
 35 75  1  0
 36 76  1  0
 36 77  1  0
 37 78  1  0
 38 79  1  0
 39 80  1  0
 40 81  1  0
 41 82  1  0
A    1
C1
A    2
O1
A    3
C2
A    4
O2
A    5
C3
A    6
C4
A    7
C5
A    8
C6
A    9
C7
A   10
S8
A   11
O9
A   12
O10
A   13
N11
A   14
C12
A   15
C13
A   16
C14
A   17
C15
A   18
C16
A   19
C17
A   20
C18
A   21
O18
A   22
C19
A   23
C20
A   24
N20
A   25
C21
A   26
O22
A   27
O23
A   28
C24
A   29
C25
A   30
O26
A   31
C27
A   32
O28
A   33
C29
A   34
C30
A   35
C31
A   36
C32
A   37
C33
A   38
C34
A   39
C35
A   40
C36
A   41
C37
A   42
C38
M  END
