3O9L_LPN_A_168
     RDKit          3D

 85 89  0  0  0  0  0  0  0  0999 V2000
    3.1700    8.5520   -5.8500 Cl  0  0  0  0  0  0  0  0  0  0  0  0
    2.4500    8.1280   -4.2770 C   0  0  0  0  0  0  0  0  0  0  0  0
    3.2270    7.6570   -3.2240 C   0  0  0  0  0  0  0  0  0  0  0  0
    1.0720    8.2840   -4.1490 C   0  0  0  0  0  0  0  0  0  0  0  0
    4.6050    7.4750   -3.3050 O   0  0  0  0  0  0  0  0  0  0  0  0
    2.5730    7.3700   -2.0340 C   0  0  0  0  0  0  0  0  0  0  0  0
    0.4350    7.9790   -2.9550 C   0  0  0  0  0  0  0  0  0  0  0  0
    5.2240    6.4650   -4.1440 C   0  0  0  0  0  0  0  0  0  0  0  0
    3.5520    6.7760   -0.6740 Cl  0  0  0  0  0  0  0  0  0  0  0  0
    1.1910    7.5200   -1.8790 C   0  0  0  0  0  0  0  0  0  0  0  0
   -1.0480    8.1600   -2.8380 C   0  0  0  0  0  0  0  0  0  0  0  0
    6.1690    5.4700   -3.4420 C   0  0  0  0  0  0  0  0  0  0  0  0
    5.7820    5.5460   -2.0930 O   0  0  0  0  0  0  0  0  0  0  0  0
    6.3280    5.3000   -0.8600 C   0  0  0  0  0  0  0  0  0  0  0  0
    7.2710    6.2070   -0.3660 C   0  0  0  0  0  0  0  0  0  0  0  0
    5.8430    4.2770   -0.0400 C   0  0  0  0  0  0  0  0  0  0  0  0
    7.7830    6.0590    0.9230 C   0  0  0  0  0  0  0  0  0  0  0  0
    6.3640    4.1240    1.2430 C   0  0  0  0  0  0  0  0  0  0  0  0
    7.3400    5.0070    1.7380 C   0  0  0  0  0  0  0  0  0  0  0  0
    7.8180    4.8410    3.1530 C   0  0  0  0  0  0  0  0  0  0  0  0
    6.8440    5.6500    4.0740 C   0  0  0  0  0  0  0  0  0  0  0  0
    9.2870    5.2050    3.4030 C   0  0  0  0  0  0  0  0  0  0  0  0
    5.4120    5.2200    3.7880 C   0  0  0  0  0  0  0  0  0  0  0  0
    7.1980    5.5210    5.5650 C   0  0  0  0  0  0  0  0  0  0  0  0
    9.6130    5.1650    4.9020 C   0  0  0  0  0  0  0  0  0  0  0  0
    5.0270    4.1390    4.1980 O   0  0  0  0  0  0  0  0  0  0  0  0
    4.5570    5.9740    3.0690 N   0  0  0  0  0  0  0  0  0  0  0  0
    8.6090    5.8310    5.7490 N   0  0  0  0  0  0  0  0  0  0  0  0
    4.8650    7.2730    2.4280 C   0  0  0  0  0  0  0  0  0  0  0  0
    3.2210    5.4900    2.7210 C   0  0  0  0  0  0  0  0  0  0  0  0
    5.2180    8.3370    3.4610 C   0  0  0  0  0  0  0  0  0  0  0  0
    3.8240    8.2940    2.8590 C   0  0  0  0  0  0  0  0  0  0  0  0
    2.0530    5.7930    3.6390 C   0  0  0  0  0  0  0  0  0  0  0  0
    0.7790    5.5680    3.1300 C   0  0  0  0  0  0  0  0  0  0  0  0
    2.2040    6.2880    4.9310 C   0  0  0  0  0  0  0  0  0  0  0  0
    0.5990    4.9490    1.4690 Cl  0  0  0  0  0  0  0  0  0  0  0  0
   -0.3620    5.8270    3.8720 C   0  0  0  0  0  0  0  0  0  0  0  0
    1.0600    6.5430    5.6820 C   0  0  0  0  0  0  0  0  0  0  0  0
   -0.2090    6.3160    5.1640 C   0  0  0  0  0  0  0  0  0  0  0  0
    1.1730    7.0940    7.0750 C   0  0  0  0  0  0  0  0  0  0  0  0
    1.0700    8.6050    6.9450 C   0  0  0  0  0  0  0  0  0  0  0  0
    1.9420    9.2500    8.0050 C   0  0  0  0  0  0  0  0  0  0  0  0
    2.1120   10.6220    7.6730 O   0  0  0  0  0  0  0  0  0  0  0  0
    2.1000   11.4500    8.8330 C   0  0  0  0  0  0  0  0  0  0  0  0
    0.4835    8.6523   -5.0022 H   0  0  0  0  0  0  0  0  0  0  0  0
    4.4183    5.8838   -4.6163 H   0  0  0  0  0  0  0  0  0  0  0  0
    5.8599    7.0221   -4.8478 H   0  0  0  0  0  0  0  0  0  0  0  0
    0.7079    7.2788   -0.9206 H   0  0  0  0  0  0  0  0  0  0  0  0
   -1.3305    8.1945   -1.7754 H   0  0  0  0  0  0  0  0  0  0  0  0
   -1.3422    9.1007   -3.3263 H   0  0  0  0  0  0  0  0  0  0  0  0
   -1.5599    7.3177   -3.3263 H   0  0  0  0  0  0  0  0  0  0  0  0
    6.0297    4.4518   -3.8343 H   0  0  0  0  0  0  0  0  0  0  0  0
    7.2320    5.7067   -3.5968 H   0  0  0  0  0  0  0  0  0  0  0  0
    7.6107    7.0414   -0.9972 H   0  0  0  0  0  0  0  0  0  0  0  0
    5.0572    3.5990   -0.4044 H   0  0  0  0  0  0  0  0  0  0  0  0
    8.5347    6.7678    1.3006 H   0  0  0  0  0  0  0  0  0  0  0  0
    6.0065    3.3002    1.8782 H   0  0  0  0  0  0  0  0  0  0  0  0
    7.7963    3.7670    3.3895 H   0  0  0  0  0  0  0  0  0  0  0  0
    6.9511    6.7194    3.8398 H   0  0  0  0  0  0  0  0  0  0  0  0
    9.9311    4.4864    2.8750 H   0  0  0  0  0  0  0  0  0  0  0  0
    9.4647    6.2250    3.0315 H   0  0  0  0  0  0  0  0  0  0  0  0
    6.5872    6.2238    6.1506 H   0  0  0  0  0  0  0  0  0  0  0  0
    6.9968    4.4947    5.9059 H   0  0  0  0  0  0  0  0  0  0  0  0
    9.6850    4.1123    5.2128 H   0  0  0  0  0  0  0  0  0  0  0  0
   10.5582    5.7110    5.0379 H   0  0  0  0  0  0  0  0  0  0  0  0
    8.7153    6.8445    5.5994 H   0  0  0  0  0  0  0  0  0  0  0  0
    5.3140    6.9386    1.4811 H   0  0  0  0  0  0  0  0  0  0  0  0
    2.9731    5.9153    1.7373 H   0  0  0  0  0  0  0  0  0  0  0  0
    3.3194    4.3961    2.7817 H   0  0  0  0  0  0  0  0  0  0  0  0
    5.3722    8.0532    4.5125 H   0  0  0  0  0  0  0  0  0  0  0  0
    6.0027    9.1024    3.5528 H   0  0  0  0  0  0  0  0  0  0  0  0
    3.5030    9.0801    2.1597 H   0  0  0  0  0  0  0  0  0  0  0  0
    2.8036    8.2383    3.2661 H   0  0  0  0  0  0  0  0  0  0  0  0
    3.2044    6.4735    5.3491 H   0  0  0  0  0  0  0  0  0  0  0  0
   -1.3623    5.6503    3.4499 H   0  0  0  0  0  0  0  0  0  0  0  0
   -1.0968    6.5242    5.7792 H   0  0  0  0  0  0  0  0  0  0  0  0
    0.3569    6.7092    7.7043 H   0  0  0  0  0  0  0  0  0  0  0  0
    2.1210    6.7967    7.5472 H   0  0  0  0  0  0  0  0  0  0  0  0
    1.4131    8.9139    5.9466 H   0  0  0  0  0  0  0  0  0  0  0  0
    0.0248    8.9202    7.0799 H   0  0  0  0  0  0  0  0  0  0  0  0
    1.4568    9.1632    8.9884 H   0  0  0  0  0  0  0  0  0  0  0  0
    2.9196    8.7476    8.0469 H   0  0  0  0  0  0  0  0  0  0  0  0
    2.1091   10.8190    9.7340 H   0  0  0  0  0  0  0  0  0  0  0  0
    2.9888   12.0980    8.8301 H   0  0  0  0  0  0  0  0  0  0  0  0
    1.1927   12.0720    8.8301 H   0  0  0  0  0  0  0  0  0  0  0  0
  1  2  1  0
  2  3  2  0
  2  4  1  0
  3  5  1  0
  3  6  1  0
  4  7  2  0
  5  8  1  0
  6  9  1  0
  6 10  2  0
  7 10  1  0
  7 11  1  0
  8 12  1  0
 12 13  1  0
 13 14  1  0
 14 15  2  0
 14 16  1  0
 15 17  1  0
 16 18  2  0
 17 19  2  0
 18 19  1  0
 19 20  1  0
 20 21  1  0
 20 22  1  0
 21 23  1  0
 21 24  1  0
 22 25  1  0
 23 26  2  0
 23 27  1  0
 24 28  1  0
 25 28  1  0
 27 29  1  0
 27 30  1  0
 29 31  1  0
 29 32  1  0
 30 33  1  0
 31 32  1  0
 33 34  2  0
 33 35  1  0
 34 36  1  0
 34 37  1  0
 35 38  2  0
 37 39  2  0
 38 39  1  0
 38 40  1  0
 40 41  1  0
 41 42  1  0
 42 43  1  0
 43 44  1  0
  4 45  1  0
  8 46  1  0
  8 47  1  0
 10 48  1  0
 11 49  1  0
 11 50  1  0
 11 51  1  0
 12 52  1  0
 12 53  1  0
 15 54  1  0
 16 55  1  0
 17 56  1  0
 18 57  1  0
 20 58  1  0
 21 59  1  0
 22 60  1  0
 22 61  1  0
 24 62  1  0
 24 63  1  0
 25 64  1  0
 25 65  1  0
 28 66  1  0
 29 67  1  0
 30 68  1  0
 30 69  1  0
 31 70  1  0
 31 71  1  0
 32 72  1  0
 32 73  1  0
 35 74  1  0
 37 75  1  0
 39 76  1  0
 40 77  1  0
 40 78  1  0
 41 79  1  0
 41 80  1  0
 42 81  1  0
 42 82  1  0
 44 83  1  0
 44 84  1  0
 44 85  1  0
A    1
CL1
A    2
C2
A    3
C3
A    4
C4
A    5
O5
A    6
C6
A    7
C7
A    8
C8
A    9
CL9
A   10
C10
A   11
C11
A   12
C12
A   13
O13
A   14
C14
A   15
C15
A   16
C16
A   17
C17
A   18
C18
A   19
C19
A   20
C20
A   21
C21
A   22
C22
A   23
C23
A   24
C24
A   25
C25
A   26
O26
A   27
N27
A   28
N28
A   29
C29
A   30
C30
A   31
C31
A   32
C32
A   33
C33
A   34
C34
A   35
C35
A   36
CL36
A   37
C37
A   38
C38
A   39
C39
A   40
C40
A   41
C41
A   42
C42
A   43
O43
A   44
C44
M  END
