3O9V_10T_A_1
     RDKit          3D

 47 48  0  0  0  0  0  0  0  0999 V2000
   45.6130   35.5110   18.2080 C   0  0  0  0  0  0  0  0  0  0  0  0
   44.6560   34.7670   17.3000 C   0  0  0  0  0  0  0  0  0  0  0  0
   44.2270   32.7070   16.2450 C   0  0  0  0  0  0  0  0  0  0  0  0
   44.6810   31.2860   15.9800 C   0  0  0  0  0  0  0  0  0  0  0  0
   42.1450   32.3820   14.8420 C   0  0  0  0  0  0  0  0  0  0  0  0
   43.4810   35.3130   16.7910 C   0  0  0  0  0  0  0  0  0  0  0  0
   41.3900   35.0200   15.3790 C   0  0  0  0  0  0  0  0  0  0  0  0
   41.3840   35.9930   14.3740 C   0  0  0  0  0  0  0  0  0  0  0  0
   40.1800   36.4640   13.8450 C   0  0  0  0  0  0  0  0  0  0  0  0
   37.6680   36.4380   13.7460 C   0  0  0  0  0  0  0  0  0  0  0  0
   40.1750   34.5150   15.8370 C   0  0  0  0  0  0  0  0  0  0  0  0
   41.5670   31.3640   15.3460 O   0  0  0  0  0  0  0  0  0  0  0  0
   42.0100   32.7630   13.6480 O   0  0  0  0  0  0  0  0  0  0  0  0
   43.0440   33.2140   15.7110 C   0  0  0  0  0  0  0  0  0  0  0  0
   42.6740   34.5150   15.9710 C   0  0  0  0  0  0  0  0  0  0  0  0
   38.9700   35.9550   14.3090 C   0  0  0  0  0  0  0  0  0  0  0  0
   38.9730   34.9880   15.3030 C   0  0  0  0  0  0  0  0  0  0  0  0
   43.0600   36.7500   17.0950 C   0  0  0  0  0  0  0  0  0  0  0  0
   41.7730   36.7760   17.7730 N   0  0  0  0  0  0  0  0  0  0  0  0
   46.5620   36.4680   17.4990 C   0  0  0  0  0  0  0  0  0  0  0  0
   47.4950   37.0540   18.5510 C   0  0  0  0  0  0  0  0  0  0  0  0
   47.3110   35.7840   16.3640 C   0  0  0  0  0  0  0  0  0  0  0  0
   44.9880   33.4940   17.0230 N   0  0  0  0  0  0  0  0  0  0  0  0
   46.2184   34.7679   18.7477 H   0  0  0  0  0  0  0  0  0  0  0  0
   44.9895   36.1307   18.8692 H   0  0  0  0  0  0  0  0  0  0  0  0
   44.8461   30.7693   16.9370 H   0  0  0  0  0  0  0  0  0  0  0  0
   43.9077   30.7552   15.4053 H   0  0  0  0  0  0  0  0  0  0  0  0
   45.6188   31.3018   15.4053 H   0  0  0  0  0  0  0  0  0  0  0  0
   42.3373   36.3914   13.9964 H   0  0  0  0  0  0  0  0  0  0  0  0
   40.1879   37.2367   13.0622 H   0  0  0  0  0  0  0  0  0  0  0  0
   36.9841   36.6917   14.5694 H   0  0  0  0  0  0  0  0  0  0  0  0
   37.8445   37.3305   13.1277 H   0  0  0  0  0  0  0  0  0  0  0  0
   37.2197   35.6464   13.1277 H   0  0  0  0  0  0  0  0  0  0  0  0
   40.1616   33.7427   16.6202 H   0  0  0  0  0  0  0  0  0  0  0  0
   41.6858   33.6781   13.4541 H   0  0  0  0  0  0  0  0  0  0  0  0
   38.0182   34.5885   15.6756 H   0  0  0  0  0  0  0  0  0  0  0  0
   43.8175   37.2195   17.7399 H   0  0  0  0  0  0  0  0  0  0  0  0
   42.9716   37.3008   16.1470 H   0  0  0  0  0  0  0  0  0  0  0  0
   41.9217   36.7730   18.7922 H   0  0  0  0  0  0  0  0  0  0  0  0
   41.2600   37.6275   17.5034 H   0  0  0  0  0  0  0  0  0  0  0  0
   45.9978   37.2804   17.0178 H   0  0  0  0  0  0  0  0  0  0  0  0
   47.1131   36.8141   19.5543 H   0  0  0  0  0  0  0  0  0  0  0  0
   48.5005   36.6249   18.4292 H   0  0  0  0  0  0  0  0  0  0  0  0
   47.5451   38.1461   18.4292 H   0  0  0  0  0  0  0  0  0  0  0  0
   48.0624   35.0978   16.7817 H   0  0  0  0  0  0  0  0  0  0  0  0
   46.6003   35.2168   15.7451 H   0  0  0  0  0  0  0  0  0  0  0  0
   47.8116   36.5432   15.7451 H   0  0  0  0  0  0  0  0  0  0  0  0
 20  1  1  0
  2  1  1  0
  6  2  2  0
 23  2  1  0
 14  3  1  0
  3  4  1  0
  3 23  2  0
 12  5  2  0
  5 14  1  0
  5 13  1  0
 15  6  1  0
  6 18  1  0
  8  7  2  0
  7 15  1  0
  7 11  1  0
  9  8  1  0
  9 16  2  0
 10 16  1  0
 17 11  2  0
 14 15  2  0
 16 17  1  0
 18 19  1  0
 22 20  1  0
 20 21  1  0
  1 24  1  0
  1 25  1  0
  4 26  1  0
  4 27  1  0
  4 28  1  0
  8 29  1  0
  9 30  1  0
 10 31  1  0
 10 32  1  0
 10 33  1  0
 11 34  1  0
 13 35  1  0
 17 36  1  0
 18 37  1  0
 18 38  1  0
 19 39  1  0
 19 40  1  0
 20 41  1  0
 21 42  1  0
 21 43  1  0
 21 44  1  0
 22 45  1  0
 22 46  1  0
 22 47  1  0
A    1
C4
A    2
C5
A    3
C7
A    4
C8
A    5
C13
A    6
C17
A    7
C20
A    8
C21
A    9
C22
A   10
C24
A   11
C26
A   12
O14
A   13
O15
A   14
C12
A   15
C16
A   16
C23
A   17
C25
A   18
C18
A   19
N19
A   20
C2
A   21
C1
A   22
C3
A   23
N6
M  END
