3OAX_ID3_A_6025
     RDKit          3D

 34 34  0  0  0  0  0  0  0  0999 V2000
   -3.1540   43.5970   18.9160 C   0  0  0  0  0  0  0  0  0  0  0  0
   -2.4580   46.2260   13.4380 O   0  0  0  0  0  0  0  0  0  0  0  0
   -3.6550   42.4270   19.7970 C   0  0  0  0  0  0  0  0  0  0  0  0
   -3.7290   41.0100   19.1450 C   0  0  0  0  0  0  0  0  0  0  0  0
   -4.0420   40.9720   17.6200 C   0  0  0  0  0  0  0  0  0  0  0  0
   -4.2060   42.3220   16.9450 C   0  0  0  0  0  0  0  0  0  0  0  0
   -3.7380   43.5260   17.5080 C   0  0  0  0  0  0  0  0  0  0  0  0
   -3.7540   44.8420   16.6830 C   0  0  0  0  0  0  0  0  0  0  0  0
   -3.1300   44.9540   15.4210 C   0  0  0  0  0  0  0  0  0  0  0  0
   -3.0030   46.2120   14.7240 C   0  0  0  0  0  0  0  0  0  0  0  0
   -1.6460   43.6170   18.9620 C   0  0  0  0  0  0  0  0  0  0  0  0
   -3.8600   44.8870   19.4780 C   0  0  0  0  0  0  0  0  0  0  0  0
   -4.8510   42.2700   15.5190 C   0  0  0  0  0  0  0  0  0  0  0  0
   -3.4590   47.5100   15.3770 C   0  0  0  0  0  0  0  0  0  0  0  0
   -2.9810   42.3556   20.6634 H   0  0  0  0  0  0  0  0  0  0  0  0
   -4.6993   42.6813   20.0308 H   0  0  0  0  0  0  0  0  0  0  0  0
   -2.7579   40.5174   19.3010 H   0  0  0  0  0  0  0  0  0  0  0  0
   -4.5757   40.5047   19.6326 H   0  0  0  0  0  0  0  0  0  0  0  0
   -3.2180   40.4424   17.1195 H   0  0  0  0  0  0  0  0  0  0  0  0
   -5.0172   40.4716   17.5277 H   0  0  0  0  0  0  0  0  0  0  0  0
   -4.2710   45.7201   17.0974 H   0  0  0  0  0  0  0  0  0  0  0  0
   -2.7245   44.0463   14.9502 H   0  0  0  0  0  0  0  0  0  0  0  0
   -1.3112   43.6214   20.0098 H   0  0  0  0  0  0  0  0  0  0  0  0
   -1.2518   42.7240   18.4549 H   0  0  0  0  0  0  0  0  0  0  0  0
   -1.2756   44.5201   18.4549 H   0  0  0  0  0  0  0  0  0  0  0  0
   -3.8467   44.8627   20.5777 H   0  0  0  0  0  0  0  0  0  0  0  0
   -3.3254   45.7810   19.1245 H   0  0  0  0  0  0  0  0  0  0  0  0
   -4.9012   44.9186   19.1245 H   0  0  0  0  0  0  0  0  0  0  0  0
   -5.9434   42.1819   15.6137 H   0  0  0  0  0  0  0  0  0  0  0  0
   -4.6035   43.1910   14.9708 H   0  0  0  0  0  0  0  0  0  0  0  0
   -4.4592   41.4005   14.9708 H   0  0  0  0  0  0  0  0  0  0  0  0
   -3.4214   47.4030   16.4711 H   0  0  0  0  0  0  0  0  0  0  0  0
   -2.7951   48.3300   15.0658 H   0  0  0  0  0  0  0  0  0  0  0  0
   -4.4899   47.7346   15.0658 H   0  0  0  0  0  0  0  0  0  0  0  0
  3  1  1  0
 11  1  1  0
  1  7  1  0
  1 12  1  0
 10  2  2  0
  4  3  1  0
  4  5  1  0
  5  6  1  0
  6  7  2  0
  6 13  1  0
  7  8  1  0
  8  9  2  0
  9 10  1  0
 10 14  1  0
  3 15  1  0
  3 16  1  0
  4 17  1  0
  4 18  1  0
  5 19  1  0
  5 20  1  0
  8 21  1  0
  9 22  1  0
 11 23  1  0
 11 24  1  0
 11 25  1  0
 12 26  1  0
 12 27  1  0
 12 28  1  0
 13 29  1  0
 13 30  1  0
 13 31  1  0
 14 32  1  0
 14 33  1  0
 14 34  1  0
A    1
C1
A    2
O1
A    3
C2
A    4
C3
A    5
C4
A    6
C5
A    7
C6
A    8
C7
A    9
C8
A   10
C9
A   11
C16
A   12
C17
A   13
C18
A   14
C19
M  END
