3OCG_OCG_A_361
     RDKit          3D

 48 51  0  0  0  0  0  0  0  0999 V2000
   35.4480   -4.7380   18.7640 N   0  0  0  0  0  0  0  0  0  0  0  0
   36.1210   -5.6690   19.7740 N   0  0  0  0  0  0  0  0  0  0  0  0
   36.5370   -4.9600   20.7330 C   0  0  0  0  0  0  0  0  0  0  0  0
   36.2250   -3.6120   20.5010 C   0  0  0  0  0  0  0  0  0  0  0  0
   35.5530   -3.5020   19.2790 C   0  0  0  0  0  0  0  0  0  0  0  0
   35.1210   -2.3390   18.7790 N   0  0  0  0  0  0  0  0  0  0  0  0
   36.5400   -2.5380   21.3690 C   0  0  0  0  0  0  0  0  0  0  0  0
   36.2700   -1.3560   21.1490 O   0  0  0  0  0  0  0  0  0  0  0  0
   37.1970   -2.7530   22.5700 N   0  0  0  0  0  0  0  0  0  0  0  0
   37.3890   -1.8110   23.5850 C   0  0  0  0  0  0  0  0  0  0  0  0
   38.6800   -1.3320   23.9460 C   0  0  0  0  0  0  0  0  0  0  0  0
   38.8390   -0.3770   24.9790 C   0  0  0  0  0  0  0  0  0  0  0  0
   37.6860    0.0940   25.6470 C   0  0  0  0  0  0  0  0  0  0  0  0
   36.3860   -0.3610   25.3100 C   0  0  0  0  0  0  0  0  0  0  0  0
   36.2510   -1.3160   24.2750 C   0  0  0  0  0  0  0  0  0  0  0  0
   35.3680    0.1490   26.0040 C   0  0  0  0  0  0  0  0  0  0  0  0
   34.2660   -0.3800   25.8770 O   0  0  0  0  0  0  0  0  0  0  0  0
   35.5470    1.2030   26.8130 N   0  0  0  0  0  0  0  0  0  0  0  0
   34.6850    1.6120   27.7560 C   0  0  0  0  0  0  0  0  0  0  0  0
   33.8340    0.9080   28.4810 N   0  0  0  0  0  0  0  0  0  0  0  0
   33.0700    1.8300   29.4210 O   0  0  0  0  0  0  0  0  0  0  0  0
   33.5180    2.9740   29.1820 C   0  0  0  0  0  0  0  0  0  0  0  0
   34.5030    2.9340   28.1830 C   0  0  0  0  0  0  0  0  0  0  0  0
   39.9200   -1.8440   23.2250 C   0  0  0  0  0  0  0  0  0  0  0  0
   34.8510   -5.0630   17.5670 C   0  0  0  0  0  0  0  0  0  0  0  0
   33.4270   -4.8860   17.3990 C   0  0  0  0  0  0  0  0  0  0  0  0
   32.7860   -5.2110   16.1830 C   0  0  0  0  0  0  0  0  0  0  0  0
   33.5280   -5.7180   15.0960 C   0  0  0  0  0  0  0  0  0  0  0  0
   34.9260   -5.8980   15.2420 C   0  0  0  0  0  0  0  0  0  0  0  0
   35.5940   -5.5800   16.4520 C   0  0  0  0  0  0  0  0  0  0  0  0
   37.0655   -5.3427   21.6186 H   0  0  0  0  0  0  0  0  0  0  0  0
   34.8386   -1.5787   19.4138 H   0  0  0  0  0  0  0  0  0  0  0  0
   35.0708   -2.2038   17.7591 H   0  0  0  0  0  0  0  0  0  0  0  0
   37.5800   -3.6957   22.7300 H   0  0  0  0  0  0  0  0  0  0  0  0
   39.8382   -0.0096   25.2557 H   0  0  0  0  0  0  0  0  0  0  0  0
   37.8004    0.8351   26.4518 H   0  0  0  0  0  0  0  0  0  0  0  0
   35.2500   -1.6803   24.0008 H   0  0  0  0  0  0  0  0  0  0  0  0
   36.4172    1.7426   26.7014 H   0  0  0  0  0  0  0  0  0  0  0  0
   33.1834    3.8911   29.6888 H   0  0  0  0  0  0  0  0  0  0  0  0
   35.0485    3.8068   27.7948 H   0  0  0  0  0  0  0  0  0  0  0  0
   40.6723   -2.1546   23.9649 H   0  0  0  0  0  0  0  0  0  0  0  0
   39.6489   -2.7037   22.5947 H   0  0  0  0  0  0  0  0  0  0  0  0
   40.3344   -1.0434   22.5947 H   0  0  0  0  0  0  0  0  0  0  0  0
   32.8304   -4.4905   18.2343 H   0  0  0  0  0  0  0  0  0  0  0  0
   31.7000   -5.0676   16.0831 H   0  0  0  0  0  0  0  0  0  0  0  0
   33.0288   -5.9700   14.1487 H   0  0  0  0  0  0  0  0  0  0  0  0
   35.5073   -6.2940   14.3962 H   0  0  0  0  0  0  0  0  0  0  0  0
   36.6806   -5.7293   16.5364 H   0  0  0  0  0  0  0  0  0  0  0  0
 25  1  1  0
  1  5  1  0
  1  2  1  0
  2  3  2  0
  4  3  1  0
  5  4  2  0
  4  7  1  0
  6  5  1  0
  8  7  2  0
  7  9  1  0
  9 10  1  0
 10 11  2  0
 10 15  1  0
 24 11  1  0
 11 12  1  0
 12 13  2  0
 14 13  1  0
 15 14  2  0
 14 16  1  0
 17 16  2  0
 16 18  1  0
 18 19  1  0
 19 23  1  0
 19 20  2  0
 20 21  1  0
 22 21  1  0
 23 22  2  0
 30 25  1  0
 26 25  2  0
 27 26  1  0
 28 27  2  0
 28 29  1  0
 29 30  2  0
  3 31  1  0
  6 32  1  0
  6 33  1  0
  9 34  1  0
 12 35  1  0
 13 36  1  0
 15 37  1  0
 18 38  1  0
 22 39  1  0
 23 40  1  0
 24 41  1  0
 24 42  1  0
 24 43  1  0
 26 44  1  0
 27 45  1  0
 28 46  1  0
 29 47  1  0
 30 48  1  0
A    1
N1
A    2
N2
A    3
C3
A    4
C4
A    5
C5
A    6
N6
A    7
C7
A    8
O8
A    9
N9
A   10
C10
A   11
C11
A   12
C12
A   13
C13
A   14
C14
A   15
C15
A   16
C16
A   17
O17
A   18
N18
A   19
C19
A   20
N20
A   21
O21
A   22
C22
A   23
C23
A   24
C24
A   25
C25
A   26
C26
A   27
C27
A   28
C28
A   29
C29
A   30
C30
M  END
