1GRY_NMN_A_501
     RDKit          3D

 38 39  0  0  0  0  0  0  0  0999 V2000
  -19.3940   61.2240   37.3650 O   0  0  0  0  0  0  0  0  0  0  0  0
  -17.9750   61.0630   37.8520 P   0  0  0  0  0  0  0  0  0  0  0  0
  -17.1430   61.1080   36.5960 O   0  0  0  0  0  0  0  0  0  0  0  0
  -17.6860   62.0530   38.9890 O   0  0  0  0  0  0  0  0  0  0  0  0
  -17.7420   59.5850   38.5220 O   0  0  0  0  0  0  0  0  0  0  0  0
  -16.4200   59.2400   38.9240 C   0  0  0  0  0  0  0  0  0  0  0  0
  -16.3420   57.9530   39.6950 C   0  0  0  0  0  0  0  0  0  0  0  0
  -15.0960   57.3100   40.0790 O   0  0  0  0  0  0  0  0  0  0  0  0
  -17.3180   57.5040   40.4200 C   0  0  0  0  0  0  0  0  0  0  0  0
  -18.2820   57.0430   39.8590 O   0  0  0  0  0  0  0  0  0  0  0  0
  -16.7990   56.9540   41.5290 C   0  0  0  0  0  0  0  0  0  0  0  0
  -17.4790   56.3100   42.3220 O   0  0  0  0  0  0  0  0  0  0  0  0
  -15.4410   56.9320   41.4370 C   0  0  0  0  0  0  0  0  0  0  0  0
  -14.4960   56.9040   42.4690 N   0  0  0  0  0  0  0  0  0  0  0  0
  -13.9540   55.7340   42.8510 C   0  0  0  0  0  0  0  0  0  0  0  0
  -13.0100   55.6310   43.8680 C   0  0  0  0  0  0  0  0  0  0  0  0
  -12.4850   54.2770   44.2350 C   0  0  0  0  0  0  0  0  0  0  0  0
  -12.8860   53.2950   43.6370 O   0  0  0  0  0  0  0  0  0  0  0  0
  -11.5830   54.1710   45.1970 N   0  0  0  0  0  0  0  0  0  0  0  0
  -12.5760   56.7720   44.5200 C   0  0  0  0  0  0  0  0  0  0  0  0
  -13.1130   57.9860   44.1060 C   0  0  0  0  0  0  0  0  0  0  0  0
  -14.0790   58.0280   43.0820 C   0  0  0  0  0  0  0  0  0  0  0  0
  -16.1842   61.1599   36.8370 H   0  0  0  0  0  0  0  0  0  0  0  0
  -17.8176   61.6022   39.8605 H   0  0  0  0  0  0  0  0  0  0  0  0
  -15.7965   59.1438   38.0229 H   0  0  0  0  0  0  0  0  0  0  0  0
  -16.0678   60.0387   39.5934 H   0  0  0  0  0  0  0  0  0  0  0  0
  -16.5201   57.7208   38.6346 H   0  0  0  0  0  0  0  0  0  0  0  0
  -17.9486   58.3276   40.7862 H   0  0  0  0  0  0  0  0  0  0  0  0
  -18.9370   56.7298   40.5320 H   0  0  0  0  0  0  0  0  0  0  0  0
  -17.0176   57.4588   42.4816 H   0  0  0  0  0  0  0  0  0  0  0  0
  -17.2239   56.5516   43.2476 H   0  0  0  0  0  0  0  0  0  0  0  0
  -15.1308   55.9917   41.9163 H   0  0  0  0  0  0  0  0  0  0  0  0
  -14.2718   54.8157   42.3355 H   0  0  0  0  0  0  0  0  0  0  0  0
  -11.8761   54.2054   46.1838 H   0  0  0  0  0  0  0  0  0  0  0  0
  -10.5877   54.0540   44.9591 H   0  0  0  0  0  0  0  0  0  0  0  0
  -11.8364   56.7206   45.3326 H   0  0  0  0  0  0  0  0  0  0  0  0
  -12.7808   58.9205   44.5818 H   0  0  0  0  0  0  0  0  0  0  0  0
  -14.5007   58.9972   42.7773 H   0  0  0  0  0  0  0  0  0  0  0  0
  1  2  2  0
  2  3  1  0
  2  4  1  0
  2  5  1  0
  5  6  1  0
  6  7  1  0
  7  8  1  0
  7  9  1  0
  8 13  1  0
  9 10  1  0
  9 11  1  0
 11 12  1  0
 11 13  1  0
 13 14  1  0
 14 15  2  0
 14 22  1  0
 15 16  1  0
 16 17  1  0
 16 20  2  0
 17 18  2  0
 17 19  1  0
 20 21  1  0
 21 22  2  0
  3 23  1  0
  4 24  1  0
  6 25  1  0
  6 26  1  0
  7 27  1  0
  9 28  1  0
 10 29  1  0
 11 30  1  0
 12 31  1  0
 13 32  1  0
 15 33  1  0
 19 34  1  0
 19 35  1  0
 20 36  1  0
 21 37  1  0
 22 38  1  0
M  CHG  1  14   1
A    1
O3P
A    2
P
A    3
O1P
A    4
O2P
A    5
O5R
A    6
C5R
A    7
C4R
A    8
O4R
A    9
C3R
A   10
O3R
A   11
C2R
A   12
O2R
A   13
C1R
A   14
N1
A   15
C2
A   16
C3
A   17
C7
A   18
O7
A   19
N7
A   20
C4
A   21
C5
A   22
C6
M  END
