1PGQ_2AM_A_500
     RDKit          3D

 37 39  0  0  0  0  0  0  0  0999 V2000
   23.6030   13.0830   49.9850 P   0  0  0  0  0  0  0  0  0  0  0  0
   22.3660   13.6140   50.6070 O   0  0  0  0  0  0  0  0  0  0  0  0
   24.8080   13.9400   50.1730 O   0  0  0  0  0  0  0  0  0  0  0  0
   23.8220   11.6290   50.1740 O   0  0  0  0  0  0  0  0  0  0  0  0
   22.7370   17.5770   46.6180 C   0  0  0  0  0  0  0  0  0  0  0  0
   24.1460   17.8260   46.7590 O   0  0  0  0  0  0  0  0  0  0  0  0
   22.4230   16.0880   46.4870 C   0  0  0  0  0  0  0  0  0  0  0  0
   23.3540   15.4080   45.6120 O   0  0  0  0  0  0  0  0  0  0  0  0
   22.4620   15.3610   47.8250 C   0  0  0  0  0  0  0  0  0  0  0  0
   21.1960   14.7430   48.0850 O   0  0  0  0  0  0  0  0  0  0  0  0
   23.5490   14.3120   47.6680 C   0  0  0  0  0  0  0  0  0  0  0  0
   23.2470   13.1230   48.4100 O   0  0  0  0  0  0  0  0  0  0  0  0
   23.5470   14.0940   46.1710 C   0  0  0  0  0  0  0  0  0  0  0  0
   24.7820   13.4290   45.6800 N   0  0  0  0  0  0  0  0  0  0  0  0
   26.0240   13.9320   45.7170 C   0  0  0  0  0  0  0  0  0  0  0  0
   26.9340   12.9990   45.4040 N   0  0  0  0  0  0  0  0  0  0  0  0
   26.2200   11.9160   45.1610 C   0  0  0  0  0  0  0  0  0  0  0  0
   26.7590   10.7370   44.6900 C   0  0  0  0  0  0  0  0  0  0  0  0
   28.0560   10.6060   44.4280 N   0  0  0  0  0  0  0  0  0  0  0  0
   25.8780    9.7890   44.3570 N   0  0  0  0  0  0  0  0  0  0  0  0
   24.5790   10.0240   44.4800 C   0  0  0  0  0  0  0  0  0  0  0  0
   24.0520   11.1600   44.9370 N   0  0  0  0  0  0  0  0  0  0  0  0
   24.8710   12.1540   45.2970 C   0  0  0  0  0  0  0  0  0  0  0  0
   24.9788   14.0615   51.1405 H   0  0  0  0  0  0  0  0  0  0  0  0
   23.8530   11.4230   51.1418 H   0  0  0  0  0  0  0  0  0  0  0  0
   22.2174   17.9717   47.5036 H   0  0  0  0  0  0  0  0  0  0  0  0
   22.3971   18.0753   45.6982 H   0  0  0  0  0  0  0  0  0  0  0  0
   24.3793   17.8672   47.7202 H   0  0  0  0  0  0  0  0  0  0  0  0
   21.4061   16.0557   46.0688 H   0  0  0  0  0  0  0  0  0  0  0  0
   22.6656   16.0392   48.6667 H   0  0  0  0  0  0  0  0  0  0  0  0
   21.0566   14.6750   49.0628 H   0  0  0  0  0  0  0  0  0  0  0  0
   24.5326   14.6118   48.0588 H   0  0  0  0  0  0  0  0  0  0  0  0
   22.7511   13.4005   45.8619 H   0  0  0  0  0  0  0  0  0  0  0  0
   26.2650   14.9747   45.9712 H   0  0  0  0  0  0  0  0  0  0  0  0
   28.7332   10.5376   45.2010 H   0  0  0  0  0  0  0  0  0  0  0  0
   28.3835   10.5729   43.4520 H   0  0  0  0  0  0  0  0  0  0  0  0
   23.8856    9.2233   44.1833 H   0  0  0  0  0  0  0  0  0  0  0  0
  1  2  2  0
  1  3  1  0
  1  4  1  0
  1 12  1  0
  5  6  1  0
  5  7  1  0
  7  8  1  0
  7  9  1  0
  8 13  1  0
  9 10  1  0
  9 11  1  0
 11 12  1  0
 11 13  1  0
 13 14  1  0
 14 15  1  0
 14 23  1  0
 15 16  2  0
 16 17  1  0
 17 18  1  0
 17 23  2  0
 18 19  1  0
 18 20  2  0
 20 21  1  0
 21 22  2  0
 22 23  1  0
  3 24  1  0
  4 25  1  0
  5 26  1  0
  5 27  1  0
  6 28  1  0
  7 29  1  0
  9 30  1  0
 10 31  1  0
 11 32  1  0
 13 33  1  0
 15 34  1  0
 19 35  1  0
 19 36  1  0
 21 37  1  0
A    1
P
A    2
O1P
A    3
O2P
A    4
O3P
A    5
C5'
A    6
O5'
A    7
C4'
A    8
O4'
A    9
C3'
A   10
O3'
A   11
C2'
A   12
O2'
A   13
C1'
A   14
N9
A   15
C8
A   16
N7
A   17
C5
A   18
C6
A   19
N6
A   20
N1
A   21
C2
A   22
N3
A   23
C4
M  END
