3ODK_ODK_A_165
     RDKit          3D

 21 22  0  0  0  0  0  0  0  0999 V2000
   39.1820  -19.0240   11.8510 C   0  0  0  0  0  0  0  0  0  0  0  0
   39.4670  -20.1900   12.5360 C   0  0  0  0  0  0  0  0  0  0  0  0
   39.8350  -20.1000   13.8680 C   0  0  0  0  0  0  0  0  0  0  0  0
   39.9030  -18.8500   14.4760 C   0  0  0  0  0  0  0  0  0  0  0  0
   39.6140  -17.7400   13.8070 N   0  0  0  0  0  0  0  0  0  0  0  0
   39.2690  -17.7990   12.5050 C   0  0  0  0  0  0  0  0  0  0  0  0
   38.9520  -16.6370   11.8130 C   0  0  0  0  0  0  0  0  0  0  0  0
   39.3940  -15.3930   12.0350 C   0  0  0  0  0  0  0  0  0  0  0  0
   38.7500  -14.6630   11.1170 C   0  0  0  0  0  0  0  0  0  0  0  0
   38.8770  -13.1520   10.8830 C   0  0  0  0  0  0  0  0  0  0  0  0
   38.7900  -12.6950    9.7400 O   0  0  0  0  0  0  0  0  0  0  0  0
   39.0780  -12.3840   11.8270 O   0  0  0  0  0  0  0  0  0  0  0  0
   37.9570  -15.4450   10.3890 N   0  0  0  0  0  0  0  0  0  0  0  0
   38.0740  -16.6040   10.8070 N   0  0  0  0  0  0  0  0  0  0  0  0
   38.8873  -19.0643   10.7920 H   0  0  0  0  0  0  0  0  0  0  0  0
   39.4030  -21.1670   12.0347 H   0  0  0  0  0  0  0  0  0  0  0  0
   40.0716  -21.0089   14.4407 H   0  0  0  0  0  0  0  0  0  0  0  0
   40.2022  -18.7801   15.5322 H   0  0  0  0  0  0  0  0  0  0  0  0
   40.1153  -15.0520   12.7922 H   0  0  0  0  0  0  0  0  0  0  0  0
   38.9925  -12.7106   12.7577 H   0  0  0  0  0  0  0  0  0  0  0  0
   37.3519  -15.1394    9.6136 H   0  0  0  0  0  0  0  0  0  0  0  0
  1  6  2  0
  1  2  1  0
  2  3  2  0
  3  4  1  0
  5  4  2  0
  6  5  1  0
  7  6  1  0
 14  7  2  0
  7  8  1  0
  9  8  2  0
 13  9  1  0
 10  9  1  0
 11 10  2  0
 10 12  1  0
 13 14  1  0
  1 15  1  0
  2 16  1  0
  3 17  1  0
  4 18  1  0
  8 19  1  0
 12 20  1  0
 13 21  1  0
A    1
C12
A    2
C14
A    3
C13
A    4
C11
A    5
N8
A    6
C7
A    7
C4
A    8
C2
A    9
C1
A   10
C6
A   11
O10
A   12
O9
A   13
N5
A   14
N3
M  END
