2EZ8_TDL_A_1611
     RDKit          3D

 55 56  0  0  0  0  0  0  0  0999 V2000
   83.0820   59.1270    0.9170 O   0  0  0  0  0  0  0  0  0  0  0  0
   84.2650   60.0530    1.0260 P   0  0  0  0  0  0  0  0  0  0  0  0
   85.1260   59.8300    2.2460 O   0  0  0  0  0  0  0  0  0  0  0  0
   85.0130   60.2600   -0.2690 O   0  0  0  0  0  0  0  0  0  0  0  0
   83.6390   61.5170    1.4300 O   0  0  0  0  0  0  0  0  0  0  0  0
   83.5200   62.8770    0.5540 P   0  0  0  0  0  0  0  0  0  0  0  0
   84.7380   63.0870   -0.2820 O   0  0  0  0  0  0  0  0  0  0  0  0
   83.1530   63.9990    1.5050 O   0  0  0  0  0  0  0  0  0  0  0  0
   82.2610   62.5810   -0.3700 O   0  0  0  0  0  0  0  0  0  0  0  0
   80.9600   62.6070    0.2180 C   0  0  0  0  0  0  0  0  0  0  0  0
   80.0750   62.0050   -0.8630 C   0  0  0  0  0  0  0  0  0  0  0  0
   78.5730   62.1090   -0.7250 C   0  0  0  0  0  0  0  0  0  0  0  0
   77.8010   61.1240    0.4820 S   0  0  0  0  0  0  0  0  0  0  0  0
   77.6060   62.8430   -1.4470 C   0  0  0  0  0  0  0  0  0  0  0  0
   78.0350   63.7930   -2.5520 C   0  0  0  0  0  0  0  0  0  0  0  0
   76.3040   62.6460   -1.0500 N   0  0  0  0  0  0  0  0  0  0  0  0
   76.2240   61.7280   -0.0060 C   0  0  0  0  0  0  0  0  0  0  0  0
   74.9000   61.1670    0.5310 C   0  0  0  0  0  0  0  0  0  0  0  0
   73.8850   62.1440    0.7120 O   0  0  0  0  0  0  0  0  0  0  0  0
   75.0280   60.3620    1.8410 C   0  0  0  0  0  0  0  0  0  0  0  0
   74.3570   60.1830   -0.5800 C   0  0  0  0  0  0  0  0  0  0  0  0
   74.3490   58.9130   -0.4150 O   0  0  0  0  0  0  0  0  0  0  0  0
   73.8870   60.5970   -1.7050 O   0  0  0  0  0  0  0  0  0  0  0  0
   75.1850   63.4050   -1.6890 C   0  0  0  0  0  0  0  0  0  0  0  0
   75.2320   64.8800   -1.1780 C   0  0  0  0  0  0  0  0  0  0  0  0
   75.4730   65.9280   -2.1010 C   0  0  0  0  0  0  0  0  0  0  0  0
   75.5310   67.2260   -1.7190 N   0  0  0  0  0  0  0  0  0  0  0  0
   75.3710   67.5590   -0.4170 C   0  0  0  0  0  0  0  0  0  0  0  0
   75.4460   68.9950    0.0490 C   0  0  0  0  0  0  0  0  0  0  0  0
   75.1420   66.6080    0.5030 N   0  0  0  0  0  0  0  0  0  0  0  0
   75.0680   65.2820    0.1700 C   0  0  0  0  0  0  0  0  0  0  0  0
   74.8160   64.4290    1.2090 N   0  0  0  0  0  0  0  0  0  0  0  0
   84.5841   59.9704    3.0625 H   0  0  0  0  0  0  0  0  0  0  0  0
   85.9481   60.5188   -0.0722 H   0  0  0  0  0  0  0  0  0  0  0  0
   83.2551   63.6867    2.4389 H   0  0  0  0  0  0  0  0  0  0  0  0
   80.9299   62.0002    1.1350 H   0  0  0  0  0  0  0  0  0  0  0  0
   80.6443   63.6165    0.5199 H   0  0  0  0  0  0  0  0  0  0  0  0
   80.3460   62.4941   -1.8103 H   0  0  0  0  0  0  0  0  0  0  0  0
   80.2715   60.9250   -0.7925 H   0  0  0  0  0  0  0  0  0  0  0  0
   78.4490   64.7099   -2.1071 H   0  0  0  0  0  0  0  0  0  0  0  0
   78.8019   63.3089   -3.1745 H   0  0  0  0  0  0  0  0  0  0  0  0
   77.1648   64.0482   -3.1745 H   0  0  0  0  0  0  0  0  0  0  0  0
   73.7349   62.2885    1.6798 H   0  0  0  0  0  0  0  0  0  0  0  0
   74.9201   61.0403    2.7002 H   0  0  0  0  0  0  0  0  0  0  0  0
   74.2406   59.5948    1.8784 H   0  0  0  0  0  0  0  0  0  0  0  0
   76.0146   59.8769    1.8784 H   0  0  0  0  0  0  0  0  0  0  0  0
   74.3466   58.5326    0.4990 H   0  0  0  0  0  0  0  0  0  0  0  0
   75.3015   63.3872   -2.7827 H   0  0  0  0  0  0  0  0  0  0  0  0
   74.2202   62.9459   -1.4274 H   0  0  0  0  0  0  0  0  0  0  0  0
   75.6177   65.6790   -3.1626 H   0  0  0  0  0  0  0  0  0  0  0  0
   75.4475   69.0240    1.1486 H   0  0  0  0  0  0  0  0  0  0  0  0
   76.3695   69.4561   -0.3313 H   0  0  0  0  0  0  0  0  0  0  0  0
   74.5756   69.5498   -0.3313 H   0  0  0  0  0  0  0  0  0  0  0  0
   74.9131   64.7577    2.1803 H   0  0  0  0  0  0  0  0  0  0  0  0
   74.5291   63.4580    1.0201 H   0  0  0  0  0  0  0  0  0  0  0  0
  1  2  2  0
  2  3  1  0
  2  4  1  0
  2  5  1  0
  5  6  1  0
  6  7  2  0
  6  8  1  0
  6  9  1  0
  9 10  1  0
 10 11  1  0
 11 12  1  0
 12 13  1  0
 12 14  2  0
 13 17  1  0
 14 15  1  0
 14 16  1  0
 16 17  2  0
 16 24  1  0
 17 18  1  0
 18 19  1  0
 18 20  1  0
 18 21  1  0
 21 22  1  0
 21 23  2  0
 24 25  1  0
 25 26  2  0
 25 31  1  0
 26 27  1  0
 27 28  2  0
 28 29  1  0
 28 30  1  0
 30 31  2  0
 31 32  1  0
  3 33  1  0
  4 34  1  0
  8 35  1  0
 10 36  1  0
 10 37  1  0
 11 38  1  0
 11 39  1  0
 15 40  1  0
 15 41  1  0
 15 42  1  0
 19 43  1  0
 20 44  1  0
 20 45  1  0
 20 46  1  0
 22 47  1  0
 24 48  1  0
 24 49  1  0
 26 50  1  0
 29 51  1  0
 29 52  1  0
 29 53  1  0
 32 54  1  0
 32 55  1  0
M  CHG  1  16   1
A    1
O1B
A    2
PB
A    3
O2B
A    4
O3B
A    5
O3A
A    6
PA
A    7
O1A
A    8
O2A
A    9
O7
A   10
C7
A   11
C6
A   12
C5
A   13
S1
A   14
C4
A   15
CM4
A   16
N3
A   17
C2
A   18
CLA
A   19
OL1
A   20
CLB
A   21
CLC
A   22
OL2
A   23
OL3
A   24
C7'
A   25
C5'
A   26
C6'
A   27
N1'
A   28
C2'
A   29
CM2
A   30
N3'
A   31
C4'
A   32
N4'
M  END
