3OE4_610_A_223
     RDKit          3D

 51 54  0  0  0  0  0  0  0  0999 V2000
   20.3680  -30.8330   13.2990 C   0  0  0  0  0  0  0  0  0  0  0  0
   19.0550  -31.5850   13.4000 C   0  0  0  0  0  0  0  0  0  0  0  0
   17.9480  -30.5060   13.4060 C   0  0  0  0  0  0  0  0  0  0  0  0
   18.5380  -29.4770   12.5630 O   0  0  0  0  0  0  0  0  0  0  0  0
   19.9190  -29.6990   12.2860 C   0  0  0  0  0  0  0  0  0  0  0  0
   20.1120  -30.2180   10.9170 C   0  0  0  0  0  0  0  0  0  0  0  0
   16.7500  -30.9170   12.7460 N   0  0  0  0  0  0  0  0  0  0  0  0
   20.6790  -30.2280   14.5520 O   0  0  0  0  0  0  0  0  0  0  0  0
   18.8960  -32.3840   14.5710 O   0  0  0  0  0  0  0  0  0  0  0  0
   20.6060  -29.4750    9.9620 C   0  0  0  0  0  0  0  0  0  0  0  0
   16.5960  -31.4860   11.4470 C   0  0  0  0  0  0  0  0  0  0  0  0
   15.3130  -31.5890   11.1080 N   0  0  0  0  0  0  0  0  0  0  0  0
   20.8300  -29.9760    8.5590 C   0  0  0  0  0  0  0  0  0  0  0  0
   21.8230  -29.2160    7.8310 N   0  0  0  0  0  0  0  0  0  0  0  0
   22.6290  -29.6950    6.8770 C   0  0  0  0  0  0  0  0  0  0  0  0
   23.6650  -28.8720    6.2440 C   0  0  0  0  0  0  0  0  0  0  0  0
   23.7050  -27.4560    6.4640 C   0  0  0  0  0  0  0  0  0  0  0  0
   24.7600  -26.7690    5.8440 C   0  0  0  0  0  0  0  0  0  0  0  0
   25.7270  -27.3360    5.0710 C   0  0  0  0  0  0  0  0  0  0  0  0
   25.6740  -28.7630    4.9300 C   0  0  0  0  0  0  0  0  0  0  0  0
   24.6470  -29.4920    5.5110 C   0  0  0  0  0  0  0  0  0  0  0  0
   26.6590  -29.3870    4.1400 N   0  0  0  0  0  0  0  0  0  0  0  0
   22.7810  -26.7590    7.1430 O   0  0  0  0  0  0  0  0  0  0  0  0
   24.8110  -25.4100    6.0640 O   0  0  0  0  0  0  0  0  0  0  0  0
   22.5020  -30.8900    6.4760 O   0  0  0  0  0  0  0  0  0  0  0  0
   27.4260  -28.7540    3.4750 O   0  0  0  0  0  0  0  0  0  0  0  0
   26.6000  -30.6250    4.1570 O   0  0  0  0  0  0  0  0  0  0  0  0
   15.4830  -30.7070   13.2050 C   0  0  0  0  0  0  0  0  0  0  0  0
   14.5670  -31.1260   12.1690 C   0  0  0  0  0  0  0  0  0  0  0  0
   13.2220  -30.9850   12.3980 C   0  0  0  0  0  0  0  0  0  0  0  0
   12.7710  -30.4450   13.5460 N   0  0  0  0  0  0  0  0  0  0  0  0
   13.6800  -30.0480   14.4920 C   0  0  0  0  0  0  0  0  0  0  0  0
   15.0100  -30.1620   14.3570 N   0  0  0  0  0  0  0  0  0  0  0  0
   21.2413  -31.4369   13.0114 H   0  0  0  0  0  0  0  0  0  0  0  0
   19.0124  -32.2900   12.5567 H   0  0  0  0  0  0  0  0  0  0  0  0
   17.6699  -30.2319   14.4343 H   0  0  0  0  0  0  0  0  0  0  0  0
   20.4888  -28.7630   12.3824 H   0  0  0  0  0  0  0  0  0  0  0  0
   19.8323  -31.2584   10.6950 H   0  0  0  0  0  0  0  0  0  0  0  0
   20.3760  -30.8175   15.2873 H   0  0  0  0  0  0  0  0  0  0  0  0
   19.0088  -31.8174   15.3749 H   0  0  0  0  0  0  0  0  0  0  0  0
   20.8712  -28.4329   10.1940 H   0  0  0  0  0  0  0  0  0  0  0  0
   17.4327  -31.8003   10.8058 H   0  0  0  0  0  0  0  0  0  0  0  0
   21.1615  -31.0236    8.6112 H   0  0  0  0  0  0  0  0  0  0  0  0
   19.8777  -29.8687    8.0191 H   0  0  0  0  0  0  0  0  0  0  0  0
   21.9176  -28.2182    8.0683 H   0  0  0  0  0  0  0  0  0  0  0  0
   26.5061  -26.7332    4.5815 H   0  0  0  0  0  0  0  0  0  0  0  0
   24.6186  -30.5841    5.3826 H   0  0  0  0  0  0  0  0  0  0  0  0
   22.7865  -26.7631    8.1330 H   0  0  0  0  0  0  0  0  0  0  0  0
   24.8242  -25.0585    6.9894 H   0  0  0  0  0  0  0  0  0  0  0  0
   12.5031  -31.3171   11.6345 H   0  0  0  0  0  0  0  0  0  0  0  0
   13.2938  -29.6071   15.4228 H   0  0  0  0  0  0  0  0  0  0  0  0
  1  2  1  0
  1  5  1  0
  1  8  1  0
  2  3  1  0
  2  9  1  0
  3  4  1  0
  3  7  1  0
  4  5  1  0
  5  6  1  0
  6 10  2  0
  7 11  1  0
  7 28  1  0
 10 13  1  0
 11 12  2  0
 12 29  1  0
 13 14  1  0
 14 15  1  0
 15 16  1  0
 15 25  2  0
 16 17  2  0
 16 21  1  0
 17 18  1  0
 17 23  1  0
 18 19  2  0
 18 24  1  0
 19 20  1  0
 20 21  2  0
 20 22  1  0
 22 26  2  0
 22 27  1  0
 28 29  2  0
 28 33  1  0
 29 30  1  0
 30 31  2  0
 31 32  1  0
 32 33  2  0
  1 34  1  0
  2 35  1  0
  3 36  1  0
  5 37  1  0
  6 38  1  0
  8 39  1  0
  9 40  1  0
 10 41  1  0
 11 42  1  0
 13 43  1  0
 13 44  1  0
 14 45  1  0
 19 46  1  0
 21 47  1  0
 23 48  1  0
 24 49  1  0
 30 50  1  0
 32 51  1  0
M  CHG  2  22   1  27  -1
A    1
C1
A    2
C2
A    3
C3
A    4
O4
A    5
C5
A    6
C6
A    7
N7
A    8
O8
A    9
O9
A   10
C10
A   11
C11
A   12
N12
A   13
C13
A   14
N14
A   15
C15
A   16
C16
A   17
C17
A   18
C18
A   19
C19
A   20
C20
A   21
C21
A   22
N22
A   23
O23
A   24
O24
A   25
O25
A   26
O26
A   27
O27
A   28
C28
A   29
C29
A   30
C30
A   31
N31
A   32
C32
A   33
N33
M  END
