3OEM_OEM_A_287
     RDKit          3D

 19 18  0  0  0  0  0  0  0  0999 V2000
    7.7790   36.7190    9.9360 C   0  0  0  0  0  0  0  0  0  0  0  0
    9.3920   38.4950    9.6280 N   0  0  0  0  0  0  0  0  0  0  0  0
    8.2690   36.1260    8.9460 O   0  0  0  0  0  0  0  0  0  0  0  0
    8.0340   38.1980   10.0530 C   0  0  0  0  0  0  0  0  0  0  0  0
    7.6810   38.7740   11.4360 C   0  0  0  0  0  0  0  0  0  0  0  0
    8.5980   38.2500   12.5210 C   0  0  0  0  0  0  0  0  0  0  0  0
    9.8390   39.8570    9.3870 C   0  0  0  0  0  0  0  0  0  0  0  0
    9.7530   37.9140   12.2000 O   0  0  0  0  0  0  0  0  0  0  0  0
    8.1710   38.1700   13.6940 O   0  0  0  0  0  0  0  0  0  0  0  0
    7.0800   36.1420   10.7860 O   0  0  0  0  0  0  0  0  0  0  0  0
   10.0129   38.1113   10.3548 H   0  0  0  0  0  0  0  0  0  0  0  0
    7.3442   38.7184    9.3723 H   0  0  0  0  0  0  0  0  0  0  0  0
    7.7677   39.8699   11.3967 H   0  0  0  0  0  0  0  0  0  0  0  0
    6.6543   38.4640   11.6806 H   0  0  0  0  0  0  0  0  0  0  0  0
   10.0054   40.3639   10.3489 H   0  0  0  0  0  0  0  0  0  0  0  0
   10.7783   39.8388    8.8148 H   0  0  0  0  0  0  0  0  0  0  0  0
    9.0716   40.3989    8.8148 H   0  0  0  0  0  0  0  0  0  0  0  0
    8.7923   38.2864   14.4560 H   0  0  0  0  0  0  0  0  0  0  0  0
    7.2538   36.2855   11.7500 H   0  0  0  0  0  0  0  0  0  0  0  0
  1  4  1  0
  1 10  1  0
  2  4  1  0
  3  1  2  0
  4  5  1  0
  5  6  1  0
  6  9  1  0
  7  2  1  0
  8  6  2  0
  2 11  1  0
  4 12  1  0
  5 13  1  0
  5 14  1  0
  7 15  1  0
  7 16  1  0
  7 17  1  0
  9 18  1  0
 10 19  1  0
A    1
C
A    2
N
A    3
O
A    4
CA
A    5
CB
A    6
CG
A    7
CAA
A    8
OD1
A    9
OD2
A   10
OXT
M  END
