3OFM_4B0_A_351
     RDKit          3D

 24 25  0  0  0  0  0  0  0  0999 V2000
    3.7310  -11.4480    4.6080 O   0  0  0  0  0  0  0  0  0  0  0  0
   -1.8870  -12.5080   11.3870 Br  0  0  0  0  0  0  0  0  0  0  0  0
    1.1680  -12.0410   10.4910 Br  0  0  0  0  0  0  0  0  0  0  0  0
   -4.2550  -13.3920    9.1730 Br  0  0  0  0  0  0  0  0  0  0  0  0
    2.0040  -12.4680    7.2590 Br  0  0  0  0  0  0  0  0  0  0  0  0
    2.6940  -12.2720    4.0040 C   0  0  0  0  0  0  0  0  0  0  0  0
    1.3240  -12.0590    4.6960 C   0  0  0  0  0  0  0  0  0  0  0  0
    0.3960  -13.2920    4.6110 C   0  0  0  0  0  0  0  0  0  0  0  0
   -2.7030  -13.6270    6.1770 N   0  0  0  0  0  0  0  0  0  0  0  0
   -1.8990  -13.6360    5.2320 N   0  0  0  0  0  0  0  0  0  0  0  0
   -1.4540  -12.7500    9.5580 C   0  0  0  0  0  0  0  0  0  0  0  0
   -0.1240  -12.5510    9.1710 C   0  0  0  0  0  0  0  0  0  0  0  0
   -2.4370  -13.1230    8.6270 C   0  0  0  0  0  0  0  0  0  0  0  0
    0.2250  -12.7230    7.8280 C   0  0  0  0  0  0  0  0  0  0  0  0
   -2.0550  -13.2900    7.2900 C   0  0  0  0  0  0  0  0  0  0  0  0
   -0.7370  -13.0920    6.8910 C   0  0  0  0  0  0  0  0  0  0  0  0
   -0.7490  -13.3240    5.5780 N   0  0  0  0  0  0  0  0  0  0  0  0
    3.6629  -11.5021    5.5942 H   0  0  0  0  0  0  0  0  0  0  0  0
    2.6020  -12.0077    2.9402 H   0  0  0  0  0  0  0  0  0  0  0  0
    2.9797  -13.3277    4.1221 H   0  0  0  0  0  0  0  0  0  0  0  0
    1.5012  -11.8282    5.7568 H   0  0  0  0  0  0  0  0  0  0  0  0
    0.8189  -11.2352    4.1704 H   0  0  0  0  0  0  0  0  0  0  0  0
   -0.0219  -13.3286    3.5941 H   0  0  0  0  0  0  0  0  0  0  0  0
    1.0267  -14.1548    4.8715 H   0  0  0  0  0  0  0  0  0  0  0  0
  1  6  1  0
  2 11  1  0
  3 12  1  0
  4 13  1  0
  5 14  1  0
  6  7  1  0
  7  8  1  0
  8 17  1  0
  9 10  2  0
  9 15  1  0
 10 17  1  0
 11 12  2  0
 11 13  1  0
 12 14  1  0
 13 15  2  0
 14 16  2  0
 15 16  1  0
 16 17  1  0
  1 18  1  0
  6 19  1  0
  6 20  1  0
  7 21  1  0
  7 22  1  0
  8 23  1  0
  8 24  1  0
A    1
OAA
A    2
BRAB
A    3
BRAC
A    4
BRAD
A    5
BRAE
A    6
CAF
A    7
CAG
A    8
CAH
A    9
NAI
A   10
NAJ
A   11
CAK
A   12
CAL
A   13
CAM
A   14
CAN
A   15
CAO
A   16
CAP
A   17
NAQ
M  END
