3OHL_OHL_A_6
     RDKit          3D

 41 42  0  0  0  0  0  0  0  0999 V2000
  -10.8100    9.6680    7.6180 C   0  0  0  0  0  0  0  0  0  0  0  0
   -9.6270   10.0060    9.7990 N   0  0  0  0  0  0  0  0  0  0  0  0
   -9.7890    9.5820    6.9360 O   0  0  0  0  0  0  0  0  0  0  0  0
  -10.7900    9.3670    9.1310 C   0  0  0  0  0  0  0  0  0  0  0  0
   -8.4630   16.9490    7.0830 C   0  0  0  0  0  0  0  0  0  0  0  0
  -11.5120   11.5640   10.6290 O   0  0  0  0  0  0  0  0  0  0  0  0
   -9.2990   11.8240   11.6260 O   0  0  0  0  0  0  0  0  0  0  0  0
  -12.0740   10.3010    5.7830 O   0  0  0  0  0  0  0  0  0  0  0  0
   -7.6140    5.7410   11.2940 C   0  0  0  0  0  0  0  0  0  0  0  0
   -7.7650    6.1930    9.0290 C   0  0  0  0  0  0  0  0  0  0  0  0
   -8.1650    6.9790   11.6170 C   0  0  0  0  0  0  0  0  0  0  0  0
   -8.3210    7.4480    9.2770 C   0  0  0  0  0  0  0  0  0  0  0  0
   -7.9650   14.1060    8.1010 C   0  0  0  0  0  0  0  0  0  0  0  0
  -10.2890   14.3400    7.5090 C   0  0  0  0  0  0  0  0  0  0  0  0
   -8.2970   13.1220    9.0270 C   0  0  0  0  0  0  0  0  0  0  0  0
  -10.6250   13.3530    8.4340 C   0  0  0  0  0  0  0  0  0  0  0  0
   -9.1360    9.2180   10.9560 C   0  0  0  0  0  0  0  0  0  0  0  0
   -7.4320    5.3880   10.0280 N   0  0  0  0  0  0  0  0  0  0  0  0
  -11.9910   10.0220    7.1130 N   0  0  0  0  0  0  0  0  0  0  0  0
   -8.6280   15.6830    6.4370 O   0  0  0  0  0  0  0  0  0  0  0  0
   -8.5270    7.8510   10.5940 C   0  0  0  0  0  0  0  0  0  0  0  0
   -8.9580   14.7200    7.3420 C   0  0  0  0  0  0  0  0  0  0  0  0
   -9.6260   12.7410    9.1890 C   0  0  0  0  0  0  0  0  0  0  0  0
  -10.0370   11.5130   10.3570 S   0  0  0  0  0  0  0  0  0  0  0  0
  -11.7166    9.7497    9.5837 H   0  0  0  0  0  0  0  0  0  0  0  0
  -10.7089    8.2782    9.2648 H   0  0  0  0  0  0  0  0  0  0  0  0
   -8.4812   16.8091    8.1739 H   0  0  0  0  0  0  0  0  0  0  0  0
   -7.4998   17.3895    6.7859 H   0  0  0  0  0  0  0  0  0  0  0  0
   -9.2811   17.6217    6.7859 H   0  0  0  0  0  0  0  0  0  0  0  0
  -12.3541   11.2426    5.6602 H   0  0  0  0  0  0  0  0  0  0  0  0
   -7.3263    5.0478   12.0982 H   0  0  0  0  0  0  0  0  0  0  0  0
   -7.6008    5.8672    7.9913 H   0  0  0  0  0  0  0  0  0  0  0  0
   -8.3125    7.2645   12.6690 H   0  0  0  0  0  0  0  0  0  0  0  0
   -8.5934    8.1111    8.4427 H   0  0  0  0  0  0  0  0  0  0  0  0
   -6.9135   14.4002    7.9679 H   0  0  0  0  0  0  0  0  0  0  0  0
  -11.0760   14.8204    6.9092 H   0  0  0  0  0  0  0  0  0  0  0  0
   -7.5102   12.6457    9.6304 H   0  0  0  0  0  0  0  0  0  0  0  0
  -11.6762   13.0578    8.5678 H   0  0  0  0  0  0  0  0  0  0  0  0
   -8.3655    9.8103   11.4712 H   0  0  0  0  0  0  0  0  0  0  0  0
  -10.0147    9.0092   11.5839 H   0  0  0  0  0  0  0  0  0  0  0  0
  -12.8237   10.0833    7.7161 H   0  0  0  0  0  0  0  0  0  0  0  0
  1  4  1  0
  2 24  1  0
  2 17  1  0
  3  1  2  0
  4  2  1  0
  8 19  1  0
  9 11  2  0
 10 12  1  0
 10 18  2  0
 12 21  2  0
 13 15  2  0
 14 16  1  0
 15 23  1  0
 16 23  2  0
 18  9  1  0
 19  1  1  0
 20  5  1  0
 20 22  1  0
 21 11  1  0
 21 17  1  0
 22 13  1  0
 22 14  2  0
 23 24  1  0
 24  6  2  0
 24  7  2  0
  4 25  1  0
  4 26  1  0
  5 27  1  0
  5 28  1  0
  5 29  1  0
  8 30  1  0
  9 31  1  0
 10 32  1  0
 11 33  1  0
 12 34  1  0
 13 35  1  0
 14 36  1  0
 15 37  1  0
 16 38  1  0
 17 39  1  0
 17 40  1  0
 19 41  1  0
A    1
C
A    2
N
A    3
O
A    4
CA
A    5
CAA
A    6
OAC
A    7
OAD
A    8
OAE
A    9
CAF
A   10
CAG
A   11
CAH
A   12
CAI
A   13
CAJ
A   14
CAK
A   15
CAL
A   16
CAM
A   17
CAO
A   18
NAP
A   19
NAQ
A   20
OAR
A   21
CAT
A   22
CAU
A   23
CAV
A   24
SAX
M  END
