3LK8_Z79_A_0
     RDKit          3D

 29 29  0  0  0  0  0  0  0  0999 V2000
    3.2440   -3.0610    4.0450 O   0  0  0  0  0  0  0  0  0  0  0  0
    2.0610   -3.1300    4.3500 C   0  0  0  0  0  0  0  0  0  0  0  0
    1.5060   -2.3710    5.3080 N   0  0  0  0  0  0  0  0  0  0  0  0
    2.3060   -1.5120    6.0440 O   0  0  0  0  0  0  0  0  0  0  0  0
    1.1460   -4.1060    3.6320 C   0  0  0  0  0  0  0  0  0  0  0  0
    1.6810   -5.4480    3.6950 N   0  0  0  0  0  0  0  0  0  0  0  0
    1.4570   -6.3220    5.0030 S   0  0  0  0  0  0  0  0  0  0  0  0
    0.1810   -5.9000    5.5650 O   0  0  0  0  0  0  0  0  0  0  0  0
    1.3840   -7.7240    4.6820 O   0  0  0  0  0  0  0  0  0  0  0  0
    2.5680   -6.1780    6.1610 C   0  0  0  0  0  0  0  0  0  0  0  0
    2.3120   -5.3360    7.2560 C   0  0  0  0  0  0  0  0  0  0  0  0
    3.2220   -5.2360    8.3110 C   0  0  0  0  0  0  0  0  0  0  0  0
    4.3940   -5.9730    8.2850 C   0  0  0  0  0  0  0  0  0  0  0  0
    5.2670   -5.8580    9.3380 O   0  0  0  0  0  0  0  0  0  0  0  0
    6.3280   -6.7880    9.5380 C   0  0  0  0  0  0  0  0  0  0  0  0
    4.6550   -6.8330    7.2040 C   0  0  0  0  0  0  0  0  0  0  0  0
    3.7430   -6.9330    6.1500 C   0  0  0  0  0  0  0  0  0  0  0  0
    0.4945   -2.4267    5.4943 H   0  0  0  0  0  0  0  0  0  0  0  0
    2.1586   -1.6702    7.0101 H   0  0  0  0  0  0  0  0  0  0  0  0
    0.1549   -4.0895    4.1088 H   0  0  0  0  0  0  0  0  0  0  0  0
    1.0665   -3.8058    2.5767 H   0  0  0  0  0  0  0  0  0  0  0  0
    1.2673   -5.9720    2.9107 H   0  0  0  0  0  0  0  0  0  0  0  0
    1.3829   -4.7478    7.2829 H   0  0  0  0  0  0  0  0  0  0  0  0
    3.0078   -4.5724    9.1617 H   0  0  0  0  0  0  0  0  0  0  0  0
    6.4915   -6.9314   10.6163 H   0  0  0  0  0  0  0  0  0  0  0  0
    6.0637   -7.7507    9.0760 H   0  0  0  0  0  0  0  0  0  0  0  0
    7.2478   -6.3999    9.0760 H   0  0  0  0  0  0  0  0  0  0  0  0
    5.5796   -7.4288    7.1878 H   0  0  0  0  0  0  0  0  0  0  0  0
    3.9514   -7.6093    5.3079 H   0  0  0  0  0  0  0  0  0  0  0  0
  1  2  2  0
  2  3  1  0
  2  5  1  0
  3  4  1  0
  5  6  1  0
  6  7  1  0
  7  8  2  0
  7  9  2  0
  7 10  1  0
 10 11  2  0
 10 17  1  0
 11 12  1  0
 12 13  2  0
 13 14  1  0
 13 16  1  0
 14 15  1  0
 16 17  2  0
  3 18  1  0
  4 19  1  0
  5 20  1  0
  5 21  1  0
  6 22  1  0
 11 23  1  0
 12 24  1  0
 15 25  1  0
 15 26  1  0
 15 27  1  0
 16 28  1  0
 17 29  1  0
A    1
O4
A    2
C8
A    3
N2
A    4
O5
A    5
C7
A    6
N1
A    7
S1
A    8
O1
A    9
O2
A   10
C3
A   11
C6
A   12
C5
A   13
C4
A   14
O3
A   15
C9
A   16
C2
A   17
C1
M  END
