1OJR_2HA_A_1277
     RDKit          3D

 12 11  0  0  0  0  0  0  0  0999 V2000
   14.6820   35.4160    2.7030 O   0  0  0  0  0  0  0  0  0  0  0  0
   12.9800   36.9540    4.1620 O   0  0  0  0  0  0  0  0  0  0  0  0
   11.5740   34.1750    5.2350 O   0  0  0  0  0  0  0  0  0  0  0  0
   13.9820   34.9670    3.8150 C   0  0  0  0  0  0  0  0  0  0  0  0
   13.1710   35.7900    4.4740 C   0  0  0  0  0  0  0  0  0  0  0  0
   12.4710   35.2050    5.6650 C   0  0  0  0  0  0  0  0  0  0  0  0
   15.4775   35.9263    2.9977 H   0  0  0  0  0  0  0  0  0  0  0  0
   11.1832   33.7263    6.0262 H   0  0  0  0  0  0  0  0  0  0  0  0
   13.3675   34.1182    3.4804 H   0  0  0  0  0  0  0  0  0  0  0  0
   14.7783   34.7626    4.5458 H   0  0  0  0  0  0  0  0  0  0  0  0
   11.9032   35.9938    6.1802 H   0  0  0  0  0  0  0  0  0  0  0  0
   13.2150   34.7783    6.3537 H   0  0  0  0  0  0  0  0  0  0  0  0
  1  4  1  0
  2  5  2  0
  3  6  1  0
  4  5  1  0
  5  6  1  0
  1  7  1  0
  3  8  1  0
  4  9  1  0
  4 10  1  0
  6 11  1  0
  6 12  1  0
A    1
O1
A    2
O2
A    3
O3
A    4
C1
A    5
C2
A    6
C3
M  END
