3OJU_SSJ_A_1
     RDKit          3D

 68 70  0  0  0  0  0  0  0  0999 V2000
   19.0190  -19.8290   -7.1210 N   0  0  0  0  0  0  0  0  0  0  0  0
   18.5330  -20.1690   -5.8450 C   0  0  0  0  0  0  0  0  0  0  0  0
   17.8990  -21.2390   -5.6820 O   0  0  0  0  0  0  0  0  0  0  0  0
   18.7440  -19.3500   -4.8150 N   0  0  0  0  0  0  0  0  0  0  0  0
   19.4180  -18.2070   -4.9830 C   0  0  0  0  0  0  0  0  0  0  0  0
   19.6000  -17.4610   -3.9950 O   0  0  0  0  0  0  0  0  0  0  0  0
   19.9100  -17.8420   -6.2270 C   0  0  0  0  0  0  0  0  0  0  0  0
   19.7040  -18.6890   -7.3130 C   0  0  0  0  0  0  0  0  0  0  0  0
   19.4590  -16.4090  -10.8410 P   0  0  0  0  0  0  0  0  0  0  0  0
   16.7830  -16.2920  -11.8580 P   0  0  0  0  0  0  0  0  0  0  0  0
   16.9200  -13.8670  -13.3930 P   0  0  0  0  0  0  0  0  0  0  0  0
   18.7420  -20.7820   -8.2000 C   0  0  0  0  0  0  0  0  0  0  0  0
   20.2610  -15.5680   -9.8730 O   0  0  0  0  0  0  0  0  0  0  0  0
   17.3370  -17.0150  -13.0570 O   0  0  0  0  0  0  0  0  0  0  0  0
   18.1000  -14.6160  -13.9430 O   0  0  0  0  0  0  0  0  0  0  0  0
   17.3340  -20.4890   -8.7010 C   0  0  0  0  0  0  0  0  0  0  0  0
   19.8560  -16.4520  -12.2910 O   0  0  0  0  0  0  0  0  0  0  0  0
   15.6390  -16.9740  -11.1560 O   0  0  0  0  0  0  0  0  0  0  0  0
   15.7990  -13.6400  -14.3780 O   0  0  0  0  0  0  0  0  0  0  0  0
   17.5760  -19.6230   -9.9210 C   0  0  0  0  0  0  0  0  0  0  0  0
   16.5320  -19.7560  -10.8920 O   0  0  0  0  0  0  0  0  0  0  0  0
   20.5440  -16.7230   -6.3080 C   0  0  0  0  0  0  0  0  0  0  0  0
   21.0950  -15.6780   -6.2470 C   0  0  0  0  0  0  0  0  0  0  0  0
   21.6820  -14.5690   -6.1810 C   0  0  0  0  0  0  0  0  0  0  0  0
   22.7270  -14.2090   -6.9400 C   0  0  0  0  0  0  0  0  0  0  0  0
   23.3670  -12.9620   -6.3690 C   0  0  0  0  0  0  0  0  0  0  0  0
   22.4250  -12.5760   -5.3350 N   0  0  0  0  0  0  0  0  0  0  0  0
   21.3640  -13.5330   -5.1390 C   0  0  0  0  0  0  0  0  0  0  0  0
   24.7400  -13.3090   -5.8170 C   0  0  0  0  0  0  0  0  0  0  0  0
   23.4640  -11.8660   -7.4230 C   0  0  0  0  0  0  0  0  0  0  0  0
   20.0070  -12.9040   -5.3830 C   0  0  0  0  0  0  0  0  0  0  0  0
   17.8950  -16.0250  -10.7120 O   0  0  0  0  0  0  0  0  0  0  0  0
   16.2750  -14.8030  -12.2390 O   0  0  0  0  0  0  0  0  0  0  0  0
   17.3340  -12.6010  -12.6900 O   0  0  0  0  0  0  0  0  0  0  0  0
   18.9080  -20.1370  -10.4470 C   0  0  0  0  0  0  0  0  0  0  0  0
   19.6260  -20.6430   -9.3160 O   0  0  0  0  0  0  0  0  0  0  0  0
   21.4900  -14.1290   -3.7440 C   0  0  0  0  0  0  0  0  0  0  0  0
   22.4950  -11.3970   -4.5850 O   0  0  0  0  0  0  0  0  0  0  0  0
   19.6940  -19.0160  -11.0940 C   0  0  0  0  0  0  0  0  0  0  0  0
   19.4790  -17.8960  -10.2470 O   0  0  0  0  0  0  0  0  0  0  0  0
   18.3852  -19.5992   -3.8822 H   0  0  0  0  0  0  0  0  0  0  0  0
   20.0943  -18.4300   -8.3083 H   0  0  0  0  0  0  0  0  0  0  0  0
   18.8691  -21.7975   -7.7967 H   0  0  0  0  0  0  0  0  0  0  0  0
   20.0237  -15.8168   -8.9446 H   0  0  0  0  0  0  0  0  0  0  0  0
   18.6478  -14.9637  -13.1953 H   0  0  0  0  0  0  0  0  0  0  0  0
   16.8107  -21.4174   -8.9734 H   0  0  0  0  0  0  0  0  0  0  0  0
   16.6987  -20.0035   -7.9455 H   0  0  0  0  0  0  0  0  0  0  0  0
   15.7621  -16.9006  -10.1764 H   0  0  0  0  0  0  0  0  0  0  0  0
   17.5903  -18.5484   -9.6864 H   0  0  0  0  0  0  0  0  0  0  0  0
   15.6636  -19.8666  -10.4298 H   0  0  0  0  0  0  0  0  0  0  0  0
   23.0676  -14.7397   -7.8413 H   0  0  0  0  0  0  0  0  0  0  0  0
   24.7061  -13.3004   -4.7176 H   0  0  0  0  0  0  0  0  0  0  0  0
   25.0337  -14.3096   -6.1670 H   0  0  0  0  0  0  0  0  0  0  0  0
   25.4739  -12.5681   -6.1670 H   0  0  0  0  0  0  0  0  0  0  0  0
   23.5506  -10.8876   -6.9277 H   0  0  0  0  0  0  0  0  0  0  0  0
   24.3504  -12.0387   -8.0511 H   0  0  0  0  0  0  0  0  0  0  0  0
   22.5611  -11.8804   -8.0511 H   0  0  0  0  0  0  0  0  0  0  0  0
   19.5272  -12.6816   -4.4185 H   0  0  0  0  0  0  0  0  0  0  0  0
   20.1321  -11.9721   -5.9538 H   0  0  0  0  0  0  0  0  0  0  0  0
   19.3767  -13.6018   -5.9538 H   0  0  0  0  0  0  0  0  0  0  0  0
   17.2893  -12.7377  -11.7105 H   0  0  0  0  0  0  0  0  0  0  0  0
   18.7522  -20.9158  -11.2080 H   0  0  0  0  0  0  0  0  0  0  0  0
   21.3238  -13.3427   -2.9929 H   0  0  0  0  0  0  0  0  0  0  0  0
   20.7399  -14.9233   -3.6155 H   0  0  0  0  0  0  0  0  0  0  0  0
   22.4974  -14.5517   -3.6155 H   0  0  0  0  0  0  0  0  0  0  0  0
   22.4819  -11.6184   -3.6202 H   0  0  0  0  0  0  0  0  0  0  0  0
   20.7637  -19.2681  -11.1413 H   0  0  0  0  0  0  0  0  0  0  0  0
   19.3751  -18.8249  -12.1293 H   0  0  0  0  0  0  0  0  0  0  0  0
  1  2  1  0
  2  3  2  0
  2  4  1  0
  5  4  1  0
  5  6  2  0
  7  5  1  0
  8  1  1  0
  8  7  2  0
  9 32  1  0
  9 40  1  0
  9 13  1  0
 10 18  1  0
 10 32  1  0
 11 34  1  0
 11 33  1  0
 12  1  1  0
 14 10  2  0
 15 11  1  0
 16 12  1  0
 17  9  2  0
 19 11  2  0
 20 16  1  0
 21 20  1  0
 22  7  1  0
 22 23  3  0
 23 24  1  0
 24 28  1  0
 25 24  2  0
 25 26  1  0
 26 29  1  0
 26 27  1  0
 27 28  1  0
 27 38  1  0
 28 37  1  0
 30 26  1  0
 31 28  1  0
 33 10  1  0
 35 20  1  0
 35 36  1  0
 36 12  1  0
 39 35  1  0
 39 40  1  0
  4 41  1  0
  8 42  1  0
 12 43  1  0
 13 44  1  0
 15 45  1  0
 16 46  1  0
 16 47  1  0
 18 48  1  0
 20 49  1  0
 21 50  1  0
 25 51  1  0
 29 52  1  0
 29 53  1  0
 29 54  1  0
 30 55  1  0
 30 56  1  0
 30 57  1  0
 31 58  1  0
 31 59  1  0
 31 60  1  0
 34 61  1  0
 35 62  1  0
 37 63  1  0
 37 64  1  0
 37 65  1  0
 38 66  1  0
 39 67  1  0
 39 68  1  0
A    1
N1
A    2
C2
A    3
O2
A    4
N3
A    5
C4
A    6
O4
A    7
C5
A    8
C6
A    9
PA
A   10
PB
A   11
PG
A   12
C1'
A   13
O1A
A   14
O1B
A   15
O1G
A   16
C2'
A   17
O2A
A   18
O2B
A   19
O2G
A   20
C3'
A   21
O3'
A   22
C30
A   23
C31
A   24
C32
A   25
C33
A   26
C34
A   27
N35
A   28
C36
A   29
C37
A   30
C38
A   31
C39
A   32
O3A
A   33
O3B
A   34
O3G
A   35
C4'
A   36
O4'
A   37
C40
A   38
O41
A   39
C5'
A   40
O5'
M  END
