3OKI_OKI_A_2
     RDKit          3D

 64 68  0  0  0  0  0  0  0  0999 V2000
   13.6490   24.9950    2.8130 C   0  0  0  0  0  0  0  0  0  0  0  0
   12.8180   24.3330    3.7600 N   0  0  0  0  0  0  0  0  0  0  0  0
   12.9820   25.9140    2.0870 N   0  0  0  0  0  0  0  0  0  0  0  0
   12.5150   21.9900    4.3880 C   0  0  0  0  0  0  0  0  0  0  0  0
   13.2440   23.3330    4.6950 C   0  0  0  0  0  0  0  0  0  0  0  0
   11.5370   24.8890    3.6120 C   0  0  0  0  0  0  0  0  0  0  0  0
   11.6570   25.8850    2.5620 C   0  0  0  0  0  0  0  0  0  0  0  0
   12.5400   21.6090    3.0750 N   0  0  0  0  0  0  0  0  0  0  0  0
   15.0680   24.6570    2.6540 C   0  0  0  0  0  0  0  0  0  0  0  0
   11.9680   21.3130    5.2750 O   0  0  0  0  0  0  0  0  0  0  0  0
   13.0930   23.7080    6.1910 C   0  0  0  0  0  0  0  0  0  0  0  0
   15.4310   23.5830    1.8340 C   0  0  0  0  0  0  0  0  0  0  0  0
   16.0590   25.3850    3.3270 C   0  0  0  0  0  0  0  0  0  0  0  0
   17.7510   23.9630    2.3380 C   0  0  0  0  0  0  0  0  0  0  0  0
   11.8750   20.4420    2.5460 C   0  0  0  0  0  0  0  0  0  0  0  0
   16.7660   23.2320    1.6690 C   0  0  0  0  0  0  0  0  0  0  0  0
   17.4020   25.0390    3.1650 C   0  0  0  0  0  0  0  0  0  0  0  0
   19.3820   23.5320    2.1340 Cl  0  0  0  0  0  0  0  0  0  0  0  0
   10.3130   24.6580    4.2580 C   0  0  0  0  0  0  0  0  0  0  0  0
   10.5280   26.6290    2.1830 C   0  0  0  0  0  0  0  0  0  0  0  0
   13.2280   25.2090    6.4020 C   0  0  0  0  0  0  0  0  0  0  0  0
   14.1360   22.9560    7.0090 C   0  0  0  0  0  0  0  0  0  0  0  0
   12.7620   19.7120    1.5200 C   0  0  0  0  0  0  0  0  0  0  0  0
   10.5540   20.8400    1.8700 C   0  0  0  0  0  0  0  0  0  0  0  0
    9.2230   25.4140    3.8550 C   0  0  0  0  0  0  0  0  0  0  0  0
    9.3310   26.3790    2.8360 C   0  0  0  0  0  0  0  0  0  0  0  0
   14.0580   23.3370    8.4720 C   0  0  0  0  0  0  0  0  0  0  0  0
   13.2550   25.5990    7.8690 C   0  0  0  0  0  0  0  0  0  0  0  0
    9.8540   19.6150    1.3280 C   0  0  0  0  0  0  0  0  0  0  0  0
   12.0570   18.5060    0.9420 C   0  0  0  0  0  0  0  0  0  0  0  0
   14.2880   24.8190    8.6530 C   0  0  0  0  0  0  0  0  0  0  0  0
   10.7420   18.9180    0.3180 C   0  0  0  0  0  0  0  0  0  0  0  0
   14.3298   23.2350    4.5486 H   0  0  0  0  0  0  0  0  0  0  0  0
   13.0711   22.1965    2.4165 H   0  0  0  0  0  0  0  0  0  0  0  0
   12.0863   23.4178    6.5263 H   0  0  0  0  0  0  0  0  0  0  0  0
   14.6502   23.0091    1.3133 H   0  0  0  0  0  0  0  0  0  0  0  0
   15.7799   26.2252    3.9799 H   0  0  0  0  0  0  0  0  0  0  0  0
   11.6735   19.7652    3.3894 H   0  0  0  0  0  0  0  0  0  0  0  0
   17.0435   22.3888    1.0194 H   0  0  0  0  0  0  0  0  0  0  0  0
   18.1847   25.6101    3.6857 H   0  0  0  0  0  0  0  0  0  0  0  0
   10.2217   23.9050    5.0546 H   0  0  0  0  0  0  0  0  0  0  0  0
   10.5916   27.3889    1.3902 H   0  0  0  0  0  0  0  0  0  0  0  0
   14.1632   25.5469    5.9317 H   0  0  0  0  0  0  0  0  0  0  0  0
   12.3465   25.6867    5.9495 H   0  0  0  0  0  0  0  0  0  0  0  0
   13.9599   21.8748    6.9092 H   0  0  0  0  0  0  0  0  0  0  0  0
   15.1345   23.2210    6.6312 H   0  0  0  0  0  0  0  0  0  0  0  0
   13.0113   20.4063    0.7040 H   0  0  0  0  0  0  0  0  0  0  0  0
   13.6732   19.3686    2.0317 H   0  0  0  0  0  0  0  0  0  0  0  0
    9.9034   21.3339    2.6068 H   0  0  0  0  0  0  0  0  0  0  0  0
   10.7696   21.5270    1.0384 H   0  0  0  0  0  0  0  0  0  0  0  0
    8.2502   25.2559    4.3434 H   0  0  0  0  0  0  0  0  0  0  0  0
    8.4375   26.9528    2.5488 H   0  0  0  0  0  0  0  0  0  0  0  0
   13.0622   23.0765    8.8600 H   0  0  0  0  0  0  0  0  0  0  0  0
   14.8380   22.7893    9.0212 H   0  0  0  0  0  0  0  0  0  0  0  0
   13.4886   26.6712    7.9455 H   0  0  0  0  0  0  0  0  0  0  0  0
   12.2670   25.3710    8.2955 H   0  0  0  0  0  0  0  0  0  0  0  0
    9.6323   18.9254    2.1559 H   0  0  0  0  0  0  0  0  0  0  0  0
    8.9180   19.9203    0.8374 H   0  0  0  0  0  0  0  0  0  0  0  0
   12.6954   18.0459    0.1734 H   0  0  0  0  0  0  0  0  0  0  0  0
   11.8606   17.7846    1.7488 H   0  0  0  0  0  0  0  0  0  0  0  0
   14.2051   25.0735    9.7199 H   0  0  0  0  0  0  0  0  0  0  0  0
   15.2925   25.0775    8.2866 H   0  0  0  0  0  0  0  0  0  0  0  0
   10.2256   18.0218   -0.0564 H   0  0  0  0  0  0  0  0  0  0  0  0
   10.9498   19.6168   -0.5057 H   0  0  0  0  0  0  0  0  0  0  0  0
  1  2  1  0
  1  3  2  0
  1  9  1  0
  2  5  1  0
  2  6  1  0
  3  7  1  0
  4  5  1  0
  4  8  1  0
  4 10  2  0
  5 11  1  0
  6  7  2  0
  6 19  1  0
  7 20  1  0
  8 15  1  0
  9 12  2  0
  9 13  1  0
 11 21  1  0
 11 22  1  0
 12 16  1  0
 13 17  2  0
 14 16  2  0
 14 17  1  0
 14 18  1  0
 15 23  1  0
 15 24  1  0
 19 25  2  0
 20 26  2  0
 21 28  1  0
 22 27  1  0
 23 30  1  0
 24 29  1  0
 25 26  1  0
 27 31  1  0
 28 31  1  0
 29 32  1  0
 30 32  1  0
  5 33  1  0
  8 34  1  0
 11 35  1  0
 12 36  1  0
 13 37  1  0
 15 38  1  0
 16 39  1  0
 17 40  1  0
 19 41  1  0
 20 42  1  0
 21 43  1  0
 21 44  1  0
 22 45  1  0
 22 46  1  0
 23 47  1  0
 23 48  1  0
 24 49  1  0
 24 50  1  0
 25 51  1  0
 26 52  1  0
 27 53  1  0
 27 54  1  0
 28 55  1  0
 28 56  1  0
 29 57  1  0
 29 58  1  0
 30 59  1  0
 30 60  1  0
 31 61  1  0
 31 62  1  0
 32 63  1  0
 32 64  1  0
A    1
C1
A    2
N2
A    3
N3
A    4
C4
A    5
C5
A    6
C6
A    7
C7
A    8
N8
A    9
C9
A   10
O10
A   11
C11
A   12
C12
A   13
C13
A   14
C14
A   15
C15
A   16
C16
A   17
C17
A   18
CL18
A   19
C19
A   20
C20
A   21
C21
A   22
C22
A   23
C23
A   24
C24
A   25
C25
A   26
C26
A   27
C27
A   28
C28
A   29
C29
A   30
C30
A   31
C31
A   32
C32
M  END
