4A4E_2MR_A_1148
     RDKit          3D

 32 31  0  0  0  0  0  0  0  0999 V2000
   16.2980    2.5720   -3.7600 N   0  0  0  0  0  0  0  0  0  0  0  0
   16.3830    3.0400   -2.3830 C   0  0  0  0  0  0  0  0  0  0  0  0
   16.0160    1.9050   -1.4240 C   0  0  0  0  0  0  0  0  0  0  0  0
   16.0080    2.2390    0.0670 C   0  0  0  0  0  0  0  0  0  0  0  0
   14.6910    2.8560    0.4800 C   0  0  0  0  0  0  0  0  0  0  0  0
   13.5720    1.9730    0.0960 N   0  0  0  0  0  0  0  0  0  0  0  0
   12.3000    2.1390    0.4210 C   0  0  0  0  0  0  0  0  0  0  0  0
   11.9620    3.2210    1.1880 N   0  0  0  0  0  0  0  0  0  0  0  0
   10.6670    3.6770    1.7100 C   0  0  0  0  0  0  0  0  0  0  0  0
   11.4220    1.2520   -0.0760 N   0  0  0  0  0  0  0  0  0  0  0  0
    9.9870    1.1520    0.0840 C   0  0  0  0  0  0  0  0  0  0  0  0
   17.7900    3.5070   -2.1460 C   0  0  0  0  0  0  0  0  0  0  0  0
   17.9850    4.6890   -1.8160 O   0  0  0  0  0  0  0  0  0  0  0  0
   18.7200    2.7080   -2.3750 O   0  0  0  0  0  0  0  0  0  0  0  0
   16.1139    1.5586   -3.7675 H   0  0  0  0  0  0  0  0  0  0  0  0
   15.5325    3.0635   -4.2431 H   0  0  0  0  0  0  0  0  0  0  0  0
   15.6798    3.8672   -2.2061 H   0  0  0  0  0  0  0  0  0  0  0  0
   15.0081    1.5554   -1.6922 H   0  0  0  0  0  0  0  0  0  0  0  0
   16.8116    1.1554   -1.5470 H   0  0  0  0  0  0  0  0  0  0  0  0
   16.1682    1.3155    0.6428 H   0  0  0  0  0  0  0  0  0  0  0  0
   16.8110    2.9637    0.2668 H   0  0  0  0  0  0  0  0  0  0  0  0
   14.6830    2.9994    1.5706 H   0  0  0  0  0  0  0  0  0  0  0  0
   14.5739    3.8252   -0.0270 H   0  0  0  0  0  0  0  0  0  0  0  0
   13.8031    1.1503   -0.4790 H   0  0  0  0  0  0  0  0  0  0  0  0
   10.6914    3.6684    2.8097 H   0  0  0  0  0  0  0  0  0  0  0  0
   10.4682    4.6992    1.3556 H   0  0  0  0  0  0  0  0  0  0  0  0
    9.8716    3.0049    1.3556 H   0  0  0  0  0  0  0  0  0  0  0  0
   11.8396    0.5214   -0.6699 H   0  0  0  0  0  0  0  0  0  0  0  0
    9.7378    1.1346    1.1553 H   0  0  0  0  0  0  0  0  0  0  0  0
    9.5038    2.0187   -0.3908 H   0  0  0  0  0  0  0  0  0  0  0  0
    9.6287    0.2267   -0.3908 H   0  0  0  0  0  0  0  0  0  0  0  0
   19.2085    2.2883   -1.6231 H   0  0  0  0  0  0  0  0  0  0  0  0
  1  2  1  0
  2  3  1  0
  2 12  1  0
  3  4  1  0
  4  5  1  0
  5  6  1  0
  6  7  1  0
  7  8  2  0
  7 10  1  0
  8  9  1  0
 10 11  1  0
 12 13  2  0
 12 14  1  0
  1 15  1  0
  1 16  1  0
  2 17  1  0
  3 18  1  0
  3 19  1  0
  4 20  1  0
  4 21  1  0
  5 22  1  0
  5 23  1  0
  6 24  1  0
  9 25  1  0
  9 26  1  0
  9 27  1  0
 10 28  1  0
 11 29  1  0
 11 30  1  0
 11 31  1  0
 14 32  1  0
A    1
N
A    2
CA
A    3
CB
A    4
CG
A    5
CD
A    6
NE
A    7
CZ
A    8
NH1
A    9
CQ1
A   10
NH2
A   11
CQ2
A   12
C
A   13
O
A   14
OXT
M  END
