3OMO_WV7_A_1
     RDKit          3D

 27 28  0  0  0  0  0  0  0  0999 V2000
   -3.7110   27.8700   10.8070 O   0  0  0  0  0  0  0  0  0  0  0  0
    3.1260   31.9310   12.5130 O   0  0  0  0  0  0  0  0  0  0  0  0
   -3.9480   25.9320    9.5990 F   0  0  0  0  0  0  0  0  0  0  0  0
   -1.7590   25.5640    9.4120 F   0  0  0  0  0  0  0  0  0  0  0  0
   -2.6550   24.9570   11.1840 F   0  0  0  0  0  0  0  0  0  0  0  0
    0.7840   31.7590   12.7480 C   0  0  0  0  0  0  0  0  0  0  0  0
   -0.3870   31.0700   12.6080 C   0  0  0  0  0  0  0  0  0  0  0  0
    2.0550   29.8830   11.8700 C   0  0  0  0  0  0  0  0  0  0  0  0
    0.9650   27.7640   11.1710 C   0  0  0  0  0  0  0  0  0  0  0  0
   -0.2700   26.8770   11.5340 C   0  0  0  0  0  0  0  0  0  0  0  0
   -1.6440   29.0430   12.0340 C   0  0  0  0  0  0  0  0  0  0  0  0
   -2.6670   27.2160   10.8490 C   0  0  0  0  0  0  0  0  0  0  0  0
    1.9930   31.1970   12.3390 C   0  0  0  0  0  0  0  0  0  0  0  0
   -0.3130   29.7590   12.1170 C   0  0  0  0  0  0  0  0  0  0  0  0
    0.8770   29.1760   11.7430 C   0  0  0  0  0  0  0  0  0  0  0  0
   -1.5410   27.6820   11.4420 N   0  0  0  0  0  0  0  0  0  0  0  0
   -2.7540   25.8560   10.2170 C   0  0  0  0  0  0  0  0  0  0  0  0
    3.4460   32.1383   13.4266 H   0  0  0  0  0  0  0  0  0  0  0  0
    0.7733   32.7672   13.1877 H   0  0  0  0  0  0  0  0  0  0  0  0
   -1.3525   31.5269   12.8708 H   0  0  0  0  0  0  0  0  0  0  0  0
    3.0193   29.4230   11.6083 H   0  0  0  0  0  0  0  0  0  0  0  0
    1.8709   27.2817   11.5670 H   0  0  0  0  0  0  0  0  0  0  0  0
    0.9924   27.8553   10.0751 H   0  0  0  0  0  0  0  0  0  0  0  0
   -0.3260   26.0301   10.8343 H   0  0  0  0  0  0  0  0  0  0  0  0
   -0.1545   26.5094   12.5643 H   0  0  0  0  0  0  0  0  0  0  0  0
   -2.0562   28.9522   13.0498 H   0  0  0  0  0  0  0  0  0  0  0  0
   -2.2947   29.6375   11.3759 H   0  0  0  0  0  0  0  0  0  0  0  0
  1 12  2  0
  2 13  1  0
  3 17  1  0
  4 17  1  0
  5 17  1  0
  6  7  2  0
  6 13  1  0
  7 14  1  0
  8 13  2  0
  8 15  1  0
  9 10  1  0
  9 15  1  0
 10 16  1  0
 11 14  1  0
 11 16  1  0
 12 16  1  0
 12 17  1  0
 14 15  2  0
  2 18  1  0
  6 19  1  0
  7 20  1  0
  8 21  1  0
  9 22  1  0
  9 23  1  0
 10 24  1  0
 10 25  1  0
 11 26  1  0
 11 27  1  0
A    1
OAA
A    2
OAB
A    3
FAC
A    4
FAD
A    5
FAE
A    6
CAF
A    7
CAG
A    8
CAH
A    9
CAI
A   10
CAJ
A   11
CAK
A   12
CAL
A   13
CAM
A   14
CAN
A   15
CAO
A   16
NAP
A   17
CAQ
M  END
