3OMP_W14_A_1
     RDKit          3D

 27 28  0  0  0  0  0  0  0  0999 V2000
   -3.7690   28.3850   10.8800 O   0  0  0  0  0  0  0  0  0  0  0  0
    1.1110   33.2420   13.0410 O   0  0  0  0  0  0  0  0  0  0  0  0
   -1.9240   26.0940    9.3950 F   0  0  0  0  0  0  0  0  0  0  0  0
   -2.8180   25.2940   11.0570 F   0  0  0  0  0  0  0  0  0  0  0  0
   -4.2340   26.2280    9.5680 F   0  0  0  0  0  0  0  0  0  0  0  0
    2.2620   31.2890   12.2570 C   0  0  0  0  0  0  0  0  0  0  0  0
    2.1480   29.9500   11.7960 C   0  0  0  0  0  0  0  0  0  0  0  0
   -0.1690   31.3350   12.4930 C   0  0  0  0  0  0  0  0  0  0  0  0
    0.8950   27.9970   11.2300 C   0  0  0  0  0  0  0  0  0  0  0  0
   -0.3980   27.1430   11.4400 C   0  0  0  0  0  0  0  0  0  0  0  0
   -1.5180   29.4070   12.0060 C   0  0  0  0  0  0  0  0  0  0  0  0
   -2.7960   27.6320   10.9400 C   0  0  0  0  0  0  0  0  0  0  0  0
    1.0650   31.9510   12.5850 C   0  0  0  0  0  0  0  0  0  0  0  0
    0.9130   29.3300   11.6930 C   0  0  0  0  0  0  0  0  0  0  0  0
   -0.2350   30.0120   12.0620 C   0  0  0  0  0  0  0  0  0  0  0  0
   -1.6000   28.0220   11.4690 N   0  0  0  0  0  0  0  0  0  0  0  0
   -2.9180   26.2470   10.2670 C   0  0  0  0  0  0  0  0  0  0  0  0
    1.1175   33.4233   14.0142 H   0  0  0  0  0  0  0  0  0  0  0  0
    3.2395   31.7843   12.3528 H   0  0  0  0  0  0  0  0  0  0  0  0
    3.0559   29.3957   11.5159 H   0  0  0  0  0  0  0  0  0  0  0  0
   -1.0863   31.8820   12.7565 H   0  0  0  0  0  0  0  0  0  0  0  0
    1.7169   27.4684   11.7350 H   0  0  0  0  0  0  0  0  0  0  0  0
    0.9744   28.0944   10.1372 H   0  0  0  0  0  0  0  0  0  0  0  0
   -0.4951   26.4228   10.6142 H   0  0  0  0  0  0  0  0  0  0  0  0
   -0.3221   26.6094   12.3989 H   0  0  0  0  0  0  0  0  0  0  0  0
   -1.9185   29.3878   13.0303 H   0  0  0  0  0  0  0  0  0  0  0  0
   -2.0864   30.0197   11.2908 H   0  0  0  0  0  0  0  0  0  0  0  0
  1 12  2  0
  2 13  1  0
  3 17  1  0
  4 17  1  0
  5 17  1  0
  6  7  2  0
  6 13  1  0
  7 14  1  0
  8 13  2  0
  8 15  1  0
  9 10  1  0
  9 14  1  0
 10 16  1  0
 11 15  1  0
 11 16  1  0
 12 16  1  0
 12 17  1  0
 14 15  2  0
  2 18  1  0
  6 19  1  0
  7 20  1  0
  8 21  1  0
  9 22  1  0
  9 23  1  0
 10 24  1  0
 10 25  1  0
 11 26  1  0
 11 27  1  0
A    1
OAA
A    2
OAB
A    3
FAC
A    4
FAD
A    5
FAE
A    6
CAF
A    7
CAG
A    8
CAH
A    9
CAI
A   10
CAJ
A   11
CAK
A   12
CAL
A   13
CAM
A   14
CAN
A   15
CAO
A   16
NAP
A   17
CAQ
M  END
