3OOT_SSR_A_327
     RDKit          3D

 62 66  0  0  0  0  0  0  0  0999 V2000
  -10.2150  -26.5600   -4.2730 C   0  0  0  0  0  0  0  0  0  0  0  0
  -10.8680  -25.3810   -3.8750 C   0  0  0  0  0  0  0  0  0  0  0  0
  -10.3670  -24.6140   -2.8160 C   0  0  0  0  0  0  0  0  0  0  0  0
   -9.1960  -25.0380   -2.1490 C   0  0  0  0  0  0  0  0  0  0  0  0
   -8.5340  -26.2340   -2.5470 C   0  0  0  0  0  0  0  0  0  0  0  0
   -9.0430  -26.9720   -3.6320 C   0  0  0  0  0  0  0  0  0  0  0  0
  -10.8640  -23.5790   -2.0970 N   0  0  0  0  0  0  0  0  0  0  0  0
  -10.0370  -23.0660   -1.1400 C   0  0  0  0  0  0  0  0  0  0  0  0
   -9.0640  -24.0430   -1.0300 C   0  0  0  0  0  0  0  0  0  0  0  0
   -7.2040  -26.6400   -1.9550 C   0  0  0  0  0  0  0  0  0  0  0  0
   -8.4270  -28.1100   -4.0710 O   0  0  0  0  0  0  0  0  0  0  0  0
   -7.8500  -24.0570   -0.1560 C   0  0  0  0  0  0  0  0  0  0  0  0
   -7.7340  -24.9960    0.7990 N   0  0  0  0  0  0  0  0  0  0  0  0
   -8.7840  -26.0250    1.0000 C   0  0  0  0  0  0  0  0  0  0  0  0
   -9.0730  -26.1330    2.4860 C   0  0  0  0  0  0  0  0  0  0  0  0
   -7.8360  -26.3140    3.2190 N   0  0  0  0  0  0  0  0  0  0  0  0
   -6.8150  -25.2970    3.0790 C   0  0  0  0  0  0  0  0  0  0  0  0
   -6.5030  -25.0600    1.6100 C   0  0  0  0  0  0  0  0  0  0  0  0
   -6.9970  -23.1910   -0.3320 O   0  0  0  0  0  0  0  0  0  0  0  0
  -11.9210  -22.8690   -2.5760 C   0  0  0  0  0  0  0  0  0  0  0  0
  -11.8130  -21.5400   -3.0560 C   0  0  0  0  0  0  0  0  0  0  0  0
  -12.9130  -20.8120   -3.5040 C   0  0  0  0  0  0  0  0  0  0  0  0
  -14.1770  -21.3970   -3.5430 C   0  0  0  0  0  0  0  0  0  0  0  0
  -14.3380  -22.7120   -3.1040 C   0  0  0  0  0  0  0  0  0  0  0  0
  -13.2300  -23.4110   -2.6190 C   0  0  0  0  0  0  0  0  0  0  0  0
  -10.2240  -21.8300   -0.2710 C   0  0  0  0  0  0  0  0  0  0  0  0
  -10.0920  -22.1380    1.1980 C   0  0  0  0  0  0  0  0  0  0  0  0
  -10.9980  -22.9680    1.9060 C   0  0  0  0  0  0  0  0  0  0  0  0
  -10.8170  -23.1560    3.2720 C   0  0  0  0  0  0  0  0  0  0  0  0
   -9.7180  -22.5810    3.9320 C   0  0  0  0  0  0  0  0  0  0  0  0
   -8.8330  -21.7490    3.2280 C   0  0  0  0  0  0  0  0  0  0  0  0
   -9.0390  -21.5060    1.8660 C   0  0  0  0  0  0  0  0  0  0  0  0
  -12.1960  -23.6560    1.2820 C   0  0  0  0  0  0  0  0  0  0  0  0
  -11.6920  -23.9260    3.9420 F   0  0  0  0  0  0  0  0  0  0  0  0
  -10.6290  -27.1629   -5.0947 H   0  0  0  0  0  0  0  0  0  0  0  0
  -11.7795  -25.0582   -4.3993 H   0  0  0  0  0  0  0  0  0  0  0  0
   -7.2699  -26.6199   -0.8572 H   0  0  0  0  0  0  0  0  0  0  0  0
   -6.9493  -27.6568   -2.2885 H   0  0  0  0  0  0  0  0  0  0  0  0
   -6.4248  -25.9388   -2.2885 H   0  0  0  0  0  0  0  0  0  0  0  0
   -8.0727  -28.7645   -3.4181 H   0  0  0  0  0  0  0  0  0  0  0  0
   -9.6988  -25.7315    0.4643 H   0  0  0  0  0  0  0  0  0  0  0  0
   -8.4410  -26.9950    0.6109 H   0  0  0  0  0  0  0  0  0  0  0  0
   -9.5683  -25.2126    2.8287 H   0  0  0  0  0  0  0  0  0  0  0  0
   -9.7288  -26.9979    2.6647 H   0  0  0  0  0  0  0  0  0  0  0  0
   -8.0767  -26.3724    4.2188 H   0  0  0  0  0  0  0  0  0  0  0  0
   -7.1727  -24.3595    3.5297 H   0  0  0  0  0  0  0  0  0  0  0  0
   -5.9008  -25.6358    3.5884 H   0  0  0  0  0  0  0  0  0  0  0  0
   -5.8742  -25.8836    1.2408 H   0  0  0  0  0  0  0  0  0  0  0  0
   -5.9797  -24.0967    1.5195 H   0  0  0  0  0  0  0  0  0  0  0  0
  -10.8213  -21.0644   -3.0756 H   0  0  0  0  0  0  0  0  0  0  0  0
  -12.7829  -19.7692   -3.8289 H   0  0  0  0  0  0  0  0  0  0  0  0
  -15.0406  -20.8273   -3.9166 H   0  0  0  0  0  0  0  0  0  0  0  0
  -15.3267  -23.1928   -3.1395 H   0  0  0  0  0  0  0  0  0  0  0  0
  -13.3814  -24.4365   -2.2509 H   0  0  0  0  0  0  0  0  0  0  0  0
   -9.4622  -21.0857   -0.5461 H   0  0  0  0  0  0  0  0  0  0  0  0
  -11.2407  -21.4476   -0.4444 H   0  0  0  0  0  0  0  0  0  0  0  0
   -9.5510  -22.7827    5.0004 H   0  0  0  0  0  0  0  0  0  0  0  0
   -7.9790  -21.2890    3.7467 H   0  0  0  0  0  0  0  0  0  0  0  0
   -8.3740  -20.8192    1.3218 H   0  0  0  0  0  0  0  0  0  0  0  0
  -12.8560  -24.0350    2.0762 H   0  0  0  0  0  0  0  0  0  0  0  0
  -12.7480  -22.9373    0.6585 H   0  0  0  0  0  0  0  0  0  0  0  0
  -11.8534  -24.4950    0.6585 H   0  0  0  0  0  0  0  0  0  0  0  0
  1  2  2  0
  1  6  1  0
  2  3  1  0
  3  4  2  0
  3  7  1  0
  4  5  1  0
  4  9  1  0
  5  6  2  0
  5 10  1  0
  6 11  1  0
  7  8  1  0
  7 20  1  0
  8  9  2  0
  8 26  1  0
  9 12  1  0
 12 13  1  0
 12 19  2  0
 13 14  1  0
 13 18  1  0
 14 15  1  0
 15 16  1  0
 16 17  1  0
 17 18  1  0
 20 21  2  0
 20 25  1  0
 21 22  1  0
 22 23  2  0
 23 24  1  0
 24 25  2  0
 26 27  1  0
 27 28  2  0
 27 32  1  0
 28 29  1  0
 28 33  1  0
 29 30  2  0
 29 34  1  0
 30 31  1  0
 31 32  2  0
  1 35  1  0
  2 36  1  0
 10 37  1  0
 10 38  1  0
 10 39  1  0
 11 40  1  0
 14 41  1  0
 14 42  1  0
 15 43  1  0
 15 44  1  0
 16 45  1  0
 17 46  1  0
 17 47  1  0
 18 48  1  0
 18 49  1  0
 21 50  1  0
 22 51  1  0
 23 52  1  0
 24 53  1  0
 25 54  1  0
 26 55  1  0
 26 56  1  0
 30 57  1  0
 31 58  1  0
 32 59  1  0
 33 60  1  0
 33 61  1  0
 33 62  1  0
A    1
C1
A    2
C2
A    3
C3
A    4
C4
A    5
C5
A    6
C6
A    7
N9
A    8
C10
A    9
C11
A   10
C12
A   11
O16
A   12
C17
A   13
N18
A   14
C19
A   15
C20
A   16
N21
A   17
C22
A   18
C23
A   19
O32
A   20
C35
A   21
C36
A   22
C37
A   23
C38
A   24
C39
A   25
C40
A   26
C46
A   27
C47
A   28
C50
A   29
C51
A   30
C52
A   31
C53
A   32
C54
A   33
C58
A   34
F62
M  END
