3OP5_REB_A_365
     RDKit          3D

 42 45  0  0  0  0  0  0  0  0999 V2000
   28.4450    3.7350   12.5810 C   0  0  0  0  0  0  0  0  0  0  0  0
   28.8980    5.3660   11.2880 N   0  0  0  0  0  0  0  0  0  0  0  0
   31.8200    4.6960   13.4100 C   0  0  0  0  0  0  0  0  0  0  0  0
   29.6700    1.4950   17.1840 C   0  0  0  0  0  0  0  0  0  0  0  0
   29.5990    2.9120   17.1890 C   0  0  0  0  0  0  0  0  0  0  0  0
   28.4820    3.6230   16.4990 C   0  0  0  0  0  0  0  0  0  0  0  0
   30.7380    3.5640   17.9680 C   0  0  0  0  0  0  0  0  0  0  0  0
   24.7070    1.0180   11.6040 C   0  0  0  0  0  0  0  0  0  0  0  0
   24.3600   -0.0280   12.4620 C   0  0  0  0  0  0  0  0  0  0  0  0
   25.0630   -0.2230   13.6790 N   0  0  0  0  0  0  0  0  0  0  0  0
   26.0590    0.5320   14.0400 C   0  0  0  0  0  0  0  0  0  0  0  0
   26.4230    1.5380   13.1550 N   0  0  0  0  0  0  0  0  0  0  0  0
   25.8070    1.8170   11.9790 C   0  0  0  0  0  0  0  0  0  0  0  0
   26.3920    2.9670   11.2820 N   0  0  0  0  0  0  0  0  0  0  0  0
   27.4710    3.8240   11.4990 C   0  0  0  0  0  0  0  0  0  0  0  0
   29.2990    4.7660   12.3490 C   0  0  0  0  0  0  0  0  0  0  0  0
   27.7980    4.8070   10.7490 N   0  0  0  0  0  0  0  0  0  0  0  0
   30.4900    5.2170   13.0730 C   0  0  0  0  0  0  0  0  0  0  0  0
   30.8110    4.9270   14.4880 C   0  0  0  0  0  0  0  0  0  0  0  0
   26.7840    0.4500   15.1780 N   0  0  0  0  0  0  0  0  0  0  0  0
   27.6670    1.3300   15.8490 C   0  0  0  0  0  0  0  0  0  0  0  0
   28.7130    0.7170   16.5240 C   0  0  0  0  0  0  0  0  0  0  0  0
   27.5070    2.7720   15.8130 C   0  0  0  0  0  0  0  0  0  0  0  0
   31.9770    3.3330   17.2010 C   0  0  0  0  0  0  0  0  0  0  0  0
   32.9010    2.9570   16.6380 N   0  0  0  0  0  0  0  0  0  0  0  0
   28.4802    3.0003   13.3989 H   0  0  0  0  0  0  0  0  0  0  0  0
   29.3692    6.1906   10.8895 H   0  0  0  0  0  0  0  0  0  0  0  0
   32.7022    5.3485   13.3331 H   0  0  0  0  0  0  0  0  0  0  0  0
   32.4260    3.8386   13.0820 H   0  0  0  0  0  0  0  0  0  0  0  0
   30.4968    0.9966   17.7113 H   0  0  0  0  0  0  0  0  0  0  0  0
   28.3965    4.7197   16.5054 H   0  0  0  0  0  0  0  0  0  0  0  0
   30.5544    4.6436   18.0719 H   0  0  0  0  0  0  0  0  0  0  0  0
   30.8172    3.1349   18.9778 H   0  0  0  0  0  0  0  0  0  0  0  0
   24.1471    1.2101   10.6768 H   0  0  0  0  0  0  0  0  0  0  0  0
   23.5362   -0.7052   12.1925 H   0  0  0  0  0  0  0  0  0  0  0  0
   25.8797    3.1993   10.4192 H   0  0  0  0  0  0  0  0  0  0  0  0
   30.1922    6.0417   12.4088 H   0  0  0  0  0  0  0  0  0  0  0  0
   30.3411    4.0726   14.9971 H   0  0  0  0  0  0  0  0  0  0  0  0
   30.7870    5.4965   15.4288 H   0  0  0  0  0  0  0  0  0  0  0  0
   26.6686   -0.4509   15.6638 H   0  0  0  0  0  0  0  0  0  0  0  0
   28.7896   -0.3802   16.5401 H   0  0  0  0  0  0  0  0  0  0  0  0
   26.6600    3.2224   15.2747 H   0  0  0  0  0  0  0  0  0  0  0  0
  1 16  2  0
  1 15  1  0
 16  2  1  0
  2 17  1  0
  3 19  1  0
  3 18  1  0
  4  5  2  0
  4 22  1  0
  7  5  1  0
  5  6  1  0
  6 23  2  0
  7 24  1  0
  9  8  2  0
 13  8  1  0
 10  9  1  0
 11 10  2  0
 20 11  1  0
 11 12  1  0
 12 13  2  0
 13 14  1  0
 15 14  1  0
 15 17  2  0
 18 16  1  0
 19 18  1  0
 21 20  1  0
 22 21  2  0
 21 23  1  0
 24 25  3  0
  1 26  1  0
  2 27  1  0
  3 28  1  0
  3 29  1  0
  4 30  1  0
  6 31  1  0
  7 32  1  0
  7 33  1  0
  8 34  1  0
  9 35  1  0
 14 36  1  0
 18 37  1  0
 19 38  1  0
 19 39  1  0
 20 40  1  0
 22 41  1  0
 23 42  1  0
A    1
C10
A    2
N12
A    3
C15
A    4
C20
A    5
C21
A    6
C22
A    7
C24
A    8
C02
A    9
C03
A   10
N04
A   11
C05
A   12
N06
A   13
C07
A   14
N08
A   15
C09
A   16
C11
A   17
N13
A   18
C14
A   19
C16
A   20
N17
A   21
C18
A   22
C19
A   23
C23
A   24
C25
A   25
N26
M  END
