3ORN_3OR_A_400
     RDKit          3D

 51 53  0  0  0  0  0  0  0  0999 V2000
   63.2020  -10.3750   12.1980 C   0  0  0  0  0  0  0  0  0  0  0  0
   62.7070   -9.2750   12.9850 C   0  0  0  0  0  0  0  0  0  0  0  0
   63.5440   -8.6020   13.9300 C   0  0  0  0  0  0  0  0  0  0  0  0
   63.0220   -7.4480   14.7550 C   0  0  0  0  0  0  0  0  0  0  0  0
   66.2710  -13.4810   13.1570 C   0  0  0  0  0  0  0  0  0  0  0  0
   66.9860  -15.6560   12.3360 C   0  0  0  0  0  0  0  0  0  0  0  0
   66.4540  -15.3600   11.0560 C   0  0  0  0  0  0  0  0  0  0  0  0
   60.6750   -7.3690   15.6480 C   0  0  0  0  0  0  0  0  0  0  0  0
   59.7150   -7.8790   16.7060 C   0  0  0  0  0  0  0  0  0  0  0  0
   61.4480   -9.5670   17.2880 C   0  0  0  0  0  0  0  0  0  0  0  0
   62.2880  -11.0650   11.2070 C   0  0  0  0  0  0  0  0  0  0  0  0
   64.5840  -10.8160   12.3620 C   0  0  0  0  0  0  0  0  0  0  0  0
   65.0870  -11.9010   11.5980 N   0  0  0  0  0  0  0  0  0  0  0  0
   65.7210  -13.1330   11.8830 C   0  0  0  0  0  0  0  0  0  0  0  0
   61.9780   -7.8370   15.6940 N   0  0  0  0  0  0  0  0  0  0  0  0
   64.8810   -9.0390   14.0760 C   0  0  0  0  0  0  0  0  0  0  0  0
   65.6960   -8.4330   14.9530 F   0  0  0  0  0  0  0  0  0  0  0  0
   65.3850  -10.1090   13.3150 C   0  0  0  0  0  0  0  0  0  0  0  0
   66.6600  -10.4470   13.5200 F   0  0  0  0  0  0  0  0  0  0  0  0
   66.8960  -14.7220   13.3860 C   0  0  0  0  0  0  0  0  0  0  0  0
   67.9160  -17.4640   12.6920 I   0  0  0  0  0  0  0  0  0  0  0  0
   65.8290  -14.1020   10.8500 C   0  0  0  0  0  0  0  0  0  0  0  0
   65.3270  -13.8240    9.6360 F   0  0  0  0  0  0  0  0  0  0  0  0
   60.2670   -6.5740   14.8050 O   0  0  0  0  0  0  0  0  0  0  0  0
   60.3800   -8.6290   17.8460 C   0  0  0  0  0  0  0  0  0  0  0  0
   62.4770   -8.7610   16.6730 O   0  0  0  0  0  0  0  0  0  0  0  0
   62.7720  -11.6680   10.2430 O   0  0  0  0  0  0  0  0  0  0  0  0
   60.9300  -10.9680   11.4230 N   0  0  0  0  0  0  0  0  0  0  0  0
   60.0980  -11.4020   10.3500 O   0  0  0  0  0  0  0  0  0  0  0  0
   59.3170  -10.3010    9.8520 C   0  0  0  0  0  0  0  0  0  0  0  0
   59.7110  -10.0420    8.4060 C   0  0  0  0  0  0  0  0  0  0  0  0
   59.2250  -11.0970    7.5950 O   0  0  0  0  0  0  0  0  0  0  0  0
   61.6652   -8.9460   12.8570 H   0  0  0  0  0  0  0  0  0  0  0  0
   63.8599   -7.0177   15.3231 H   0  0  0  0  0  0  0  0  0  0  0  0
   62.5787   -6.7226   14.0570 H   0  0  0  0  0  0  0  0  0  0  0  0
   66.2037  -12.7573   13.9827 H   0  0  0  0  0  0  0  0  0  0  0  0
   66.5241  -16.0914   10.2374 H   0  0  0  0  0  0  0  0  0  0  0  0
   59.1783   -7.0166   17.1282 H   0  0  0  0  0  0  0  0  0  0  0  0
   59.0475   -8.5958   16.2053 H   0  0  0  0  0  0  0  0  0  0  0  0
   61.0012  -10.2366   16.5384 H   0  0  0  0  0  0  0  0  0  0  0  0
   61.8758  -10.1800   18.0950 H   0  0  0  0  0  0  0  0  0  0  0  0
   64.9588  -11.7555   10.5864 H   0  0  0  0  0  0  0  0  0  0  0  0
   67.3104  -14.9598   14.3768 H   0  0  0  0  0  0  0  0  0  0  0  0
   60.8480   -7.9094   18.5339 H   0  0  0  0  0  0  0  0  0  0  0  0
   59.6238   -9.2170   18.3867 H   0  0  0  0  0  0  0  0  0  0  0  0
   60.5408  -10.6046   12.3047 H   0  0  0  0  0  0  0  0  0  0  0  0
   58.2472  -10.5513    9.9055 H   0  0  0  0  0  0  0  0  0  0  0  0
   59.5034   -9.4029   10.4591 H   0  0  0  0  0  0  0  0  0  0  0  0
   59.2750   -9.0894    8.0708 H   0  0  0  0  0  0  0  0  0  0  0  0
   60.8067   -9.9883    8.3253 H   0  0  0  0  0  0  0  0  0  0  0  0
   58.8882  -11.8281    8.1714 H   0  0  0  0  0  0  0  0  0  0  0  0
 11  1  1  0
  1 12  2  0
  1  2  1  0
  2  3  2  0
  3 16  1  0
  3  4  1  0
  4 15  1  0
 14  5  2  0
  5 20  1  0
  7  6  1  0
  6 21  1  0
  6 20  2  0
 22  7  2  0
 24  8  2  0
  8 15  1  0
  8  9  1  0
  9 25  1  0
 26 10  1  0
 10 25  1  0
 27 11  2  0
 11 28  1  0
 13 12  1  0
 12 18  1  0
 13 14  1  0
 22 14  1  0
 15 26  1  0
 18 16  2  0
 16 17  1  0
 18 19  1  0
 23 22  1  0
 29 28  1  0
 30 29  1  0
 31 30  1  0
 32 31  1  0
  2 33  1  0
  4 34  1  0
  4 35  1  0
  5 36  1  0
  7 37  1  0
  9 38  1  0
  9 39  1  0
 10 40  1  0
 10 41  1  0
 13 42  1  0
 20 43  1  0
 25 44  1  0
 25 45  1  0
 28 46  1  0
 30 47  1  0
 30 48  1  0
 31 49  1  0
 31 50  1  0
 32 51  1  0
A    1
C4
A    2
C5
A    3
C6
A    4
C7
A    5
C13
A    6
C15
A    7
C17
A    8
C20
A    9
C22
A   10
C24
A   11
C26
A   12
C1
A   13
N2
A   14
C3
A   15
N8
A   16
C9
A   17
F10
A   18
C11
A   19
F12
A   20
C14
A   21
I16
A   22
C18
A   23
F19
A   24
O21
A   25
C23
A   26
O25
A   27
O27
A   28
N28
A   29
O29
A   30
C30
A   31
C31
A   32
O32
M  END
