3OS8_KN0_A_1
     RDKit          3D

 43 46  0  0  0  0  0  0  0  0999 V2000
   20.2910   15.6090  -28.5700 C   0  0  0  0  0  0  0  0  0  0  0  0
   19.1170   14.8670  -28.6020 C   0  0  0  0  0  0  0  0  0  0  0  0
   18.2400   14.9130  -27.5250 C   0  0  0  0  0  0  0  0  0  0  0  0
   18.5370   15.6990  -26.4210 C   0  0  0  0  0  0  0  0  0  0  0  0
   19.7120   16.4450  -26.3850 C   0  0  0  0  0  0  0  0  0  0  0  0
   20.6030   16.3960  -27.4640 C   0  0  0  0  0  0  0  0  0  0  0  0
   17.9210   15.9290  -25.1940 C   0  0  0  0  0  0  0  0  0  0  0  0
   18.6660   16.8270  -24.5520 N   0  0  0  0  0  0  0  0  0  0  0  0
   19.6870   17.0760  -25.2040 N   0  0  0  0  0  0  0  0  0  0  0  0
   16.6660   15.4450  -24.8210 C   0  0  0  0  0  0  0  0  0  0  0  0
   20.7340   17.9770  -24.6950 C   0  0  0  0  0  0  0  0  0  0  0  0
   16.0700   14.3720  -25.4800 C   0  0  0  0  0  0  0  0  0  0  0  0
   14.8220   13.9050  -25.0650 C   0  0  0  0  0  0  0  0  0  0  0  0
   14.1700   14.4970  -23.9860 C   0  0  0  0  0  0  0  0  0  0  0  0
   14.7720   15.5520  -23.3200 C   0  0  0  0  0  0  0  0  0  0  0  0
   16.0220   16.0030  -23.7160 C   0  0  0  0  0  0  0  0  0  0  0  0
   16.5530   17.0490  -23.0420 O   0  0  0  0  0  0  0  0  0  0  0  0
   12.9500   14.0630  -23.5550 O   0  0  0  0  0  0  0  0  0  0  0  0
   21.7390   17.0890  -23.9350 C   0  0  0  0  0  0  0  0  0  0  0  0
   22.9710   17.5860  -23.5230 C   0  0  0  0  0  0  0  0  0  0  0  0
   23.8670   16.7710  -22.8430 C   0  0  0  0  0  0  0  0  0  0  0  0
   23.5380   15.4460  -22.5770 C   0  0  0  0  0  0  0  0  0  0  0  0
   22.3090   14.9440  -22.9900 C   0  0  0  0  0  0  0  0  0  0  0  0
   21.4150   15.7610  -23.6710 C   0  0  0  0  0  0  0  0  0  0  0  0
   21.9110   17.2110  -27.5020 C   0  0  0  0  0  0  0  0  0  0  0  0
   22.5810   16.9520  -28.6240 F   0  0  0  0  0  0  0  0  0  0  0  0
   22.6940   16.9860  -26.4570 F   0  0  0  0  0  0  0  0  0  0  0  0
   21.5730   18.4920  -27.5150 F   0  0  0  0  0  0  0  0  0  0  0  0
   20.9807   15.5747  -29.4262 H   0  0  0  0  0  0  0  0  0  0  0  0
   18.8821   14.2444  -29.4779 H   0  0  0  0  0  0  0  0  0  0  0  0
   17.3100   14.3260  -27.5478 H   0  0  0  0  0  0  0  0  0  0  0  0
   21.2343   18.4893  -25.5300 H   0  0  0  0  0  0  0  0  0  0  0  0
   20.3099   18.7515  -24.0390 H   0  0  0  0  0  0  0  0  0  0  0  0
   16.5828   13.8930  -26.3271 H   0  0  0  0  0  0  0  0  0  0  0  0
   14.3501   13.0637  -25.5937 H   0  0  0  0  0  0  0  0  0  0  0  0
   14.2573   16.0330  -22.4752 H   0  0  0  0  0  0  0  0  0  0  0  0
   16.5539   17.0508  -22.0520 H   0  0  0  0  0  0  0  0  0  0  0  0
   12.7626   13.9963  -22.5852 H   0  0  0  0  0  0  0  0  0  0  0  0
   23.2376   18.6315  -23.7371 H   0  0  0  0  0  0  0  0  0  0  0  0
   24.8367   17.1735  -22.5149 H   0  0  0  0  0  0  0  0  0  0  0  0
   24.2475   14.7977  -22.0419 H   0  0  0  0  0  0  0  0  0  0  0  0
   22.0439   13.8979  -22.7772 H   0  0  0  0  0  0  0  0  0  0  0  0
   20.4473   15.3569  -24.0029 H   0  0  0  0  0  0  0  0  0  0  0  0
  2  1  2  0
  1  6  1  0
  2  3  1  0
  3  4  2  0
  4  5  1  0
  4  7  1  0
  6  5  2  0
  5  9  1  0
 25  6  1  0
  7 10  1  0
  7  8  2  0
  9  8  1  0
  9 11  1  0
 12 10  2  0
 10 16  1  0
 11 19  1  0
 12 13  1  0
 13 14  2  0
 14 18  1  0
 14 15  1  0
 16 15  2  0
 16 17  1  0
 19 24  1  0
 19 20  2  0
 20 21  1  0
 21 22  2  0
 23 22  1  0
 24 23  2  0
 26 25  1  0
 28 25  1  0
 25 27  1  0
  1 29  1  0
  2 30  1  0
  3 31  1  0
 11 32  1  0
 11 33  1  0
 12 34  1  0
 13 35  1  0
 15 36  1  0
 17 37  1  0
 18 38  1  0
 20 39  1  0
 21 40  1  0
 22 41  1  0
 23 42  1  0
 24 43  1  0
A    1
CAA
A    2
CAB
A    3
CAC
A    4
CAD
A    5
CAE
A    6
CAF
A    7
CAG
A    8
NAH
A    9
NAI
A   10
CAJ
A   11
CAK
A   12
CAL
A   13
CAM
A   14
CAN
A   15
CAO
A   16
CAP
A   17
OAQ
A   18
OAR
A   19
CAS
A   20
CAT
A   21
CAU
A   22
CAV
A   23
CAW
A   24
CAX
A   25
CAY
A   26
FAZ
A   27
FBA
A   28
FBB
M  END
