3OT3_22K_A_1
     RDKit          3D

 44 47  0  0  0  0  0  0  0  0999 V2000
   14.5990   -1.0590   10.0490 C   0  0  0  0  0  0  0  0  0  0  0  0
   15.7060   -1.7940   10.2340 C   0  0  0  0  0  0  0  0  0  0  0  0
   16.7320   -1.1520    9.5530 N   0  0  0  0  0  0  0  0  0  0  0  0
   16.2760    0.0090    9.0040 N   0  0  0  0  0  0  0  0  0  0  0  0
   14.9820    0.0340    9.3260 C   0  0  0  0  0  0  0  0  0  0  0  0
   15.8910   -2.9520   10.9110 N   0  0  0  0  0  0  0  0  0  0  0  0
   17.0860   -3.4190   10.9130 C   0  0  0  0  0  0  0  0  0  0  0  0
   18.2730   -2.7730   10.2290 C   0  0  0  0  0  0  0  0  0  0  0  0
   18.0460   -1.6350    9.5390 C   0  0  0  0  0  0  0  0  0  0  0  0
   20.0270   -3.4330   10.4170 Br  0  0  0  0  0  0  0  0  0  0  0  0
   19.0380   -0.9170    8.8840 N   0  0  0  0  0  0  0  0  0  0  0  0
   13.3320   -1.2610   10.7110 C   0  0  0  0  0  0  0  0  0  0  0  0
   12.3310   -0.2700   10.9200 C   0  0  0  0  0  0  0  0  0  0  0  0
   11.3310   -0.7350   11.7010 N   0  0  0  0  0  0  0  0  0  0  0  0
   11.7300   -2.0250   12.0540 N   0  0  0  0  0  0  0  0  0  0  0  0
   12.9480   -2.3490   11.5270 C   0  0  0  0  0  0  0  0  0  0  0  0
   10.9220   -2.8870   12.9420 C   0  0  0  0  0  0  0  0  0  0  0  0
   17.3200   -4.6950   11.7000 C   0  0  0  0  0  0  0  0  0  0  0  0
   17.2380   -4.3010   13.2040 C   0  0  0  0  0  0  0  0  0  0  0  0
   17.3590   -5.5160   14.0930 C   0  0  0  0  0  0  0  0  0  0  0  0
   16.2360   -6.5150   13.8300 C   0  0  0  0  0  0  0  0  0  0  0  0
   16.2690   -6.9320   12.3420 C   0  0  0  0  0  0  0  0  0  0  0  0
   16.1610   -5.7080   11.4250 C   0  0  0  0  0  0  0  0  0  0  0  0
   17.1430   -5.0330   15.5060 N   0  0  0  0  0  0  0  0  0  0  0  0
   14.2979    0.8466    9.0402 H   0  0  0  0  0  0  0  0  0  0  0  0
   19.7467   -0.4041    9.4277 H   0  0  0  0  0  0  0  0  0  0  0  0
   19.0651   -0.8974    7.8545 H   0  0  0  0  0  0  0  0  0  0  0  0
   12.3672    0.7456   10.4990 H   0  0  0  0  0  0  0  0  0  0  0  0
   13.5172   -3.2737   11.7030 H   0  0  0  0  0  0  0  0  0  0  0  0
   11.1477   -2.6462   13.9913 H   0  0  0  0  0  0  0  0  0  0  0  0
    9.8532   -2.7139   12.7478 H   0  0  0  0  0  0  0  0  0  0  0  0
   11.1638   -3.9424   12.7478 H   0  0  0  0  0  0  0  0  0  0  0  0
   18.2835   -5.1484   11.4241 H   0  0  0  0  0  0  0  0  0  0  0  0
   18.0552   -3.6026   13.4373 H   0  0  0  0  0  0  0  0  0  0  0  0
   16.2614   -3.8297   13.3884 H   0  0  0  0  0  0  0  0  0  0  0  0
   18.3338   -5.9935   13.9146 H   0  0  0  0  0  0  0  0  0  0  0  0
   16.3763   -7.4025   14.4646 H   0  0  0  0  0  0  0  0  0  0  0  0
   15.2658   -6.0524   14.0640 H   0  0  0  0  0  0  0  0  0  0  0  0
   17.2153   -7.4535   12.1356 H   0  0  0  0  0  0  0  0  0  0  0  0
   15.4128   -7.5938   12.1448 H   0  0  0  0  0  0  0  0  0  0  0  0
   15.1973   -5.2087   11.6041 H   0  0  0  0  0  0  0  0  0  0  0  0
   16.2328   -6.0462   10.3807 H   0  0  0  0  0  0  0  0  0  0  0  0
   17.4651   -5.7533   16.1681 H   0  0  0  0  0  0  0  0  0  0  0  0
   17.6759   -4.1647   15.6573 H   0  0  0  0  0  0  0  0  0  0  0  0
  5  1  1  0
  1  2  2  0
  1 12  1  0
  3  2  1  0
  2  6  1  0
  4  3  1  0
  9  3  1  0
  4  5  2  0
  6  7  2  0
  8  7  1  0
  7 18  1  0
  9  8  2  0
  8 10  1  0
 11  9  1  0
 12 13  1  0
 12 16  2  0
 13 14  2  0
 14 15  1  0
 16 15  1  0
 15 17  1  0
 23 18  1  0
 18 19  1  0
 19 20  1  0
 21 20  1  0
 20 24  1  0
 22 21  1  0
 23 22  1  0
  5 25  1  0
 11 26  1  0
 11 27  1  0
 13 28  1  0
 16 29  1  0
 17 30  1  0
 17 31  1  0
 17 32  1  0
 18 33  1  0
 19 34  1  0
 19 35  1  0
 20 36  1  0
 21 37  1  0
 21 38  1  0
 22 39  1  0
 22 40  1  0
 23 41  1  0
 23 42  1  0
 24 43  1  0
 24 44  1  0
A    1
C01
A    2
C02
A    3
N03
A    4
N04
A    5
C05
A    6
N06
A    7
C07
A    8
C08
A    9
C09
A   10
BR10
A   11
N11
A   12
C12
A   13
C13
A   14
N14
A   15
N15
A   16
C16
A   17
C17
A   18
C18
A   19
C19
A   20
C20
A   21
C21
A   22
C22
A   23
C23
A   24
N24
M  END
