3OVM_MZC_A_233
     RDKit          3D

 37 38  0  0  0  0  0  0  0  0999 V2000
   24.2750  -15.3500  -14.8470 C   0  0  0  0  0  0  0  0  0  0  0  0
   21.2440  -16.9370  -13.7710 N   0  0  0  0  0  0  0  0  0  0  0  0
   23.2190  -16.2230  -14.6320 C   0  0  0  0  0  0  0  0  0  0  0  0
   26.2470  -18.7570  -16.6630 N   0  0  0  0  0  0  0  0  0  0  0  0
   26.2880  -14.3880  -16.1470 O   0  0  0  0  0  0  0  0  0  0  0  0
   22.0960  -15.8820  -13.7520 C   0  0  0  0  0  0  0  0  0  0  0  0
   25.2960  -13.2330  -14.4340 N   0  0  0  0  0  0  0  0  0  0  0  0
   27.1090  -12.2880  -15.7060 O   0  0  0  0  0  0  0  0  0  0  0  0
   22.1270  -14.6300  -13.1480 C   0  0  0  0  0  0  0  0  0  0  0  0
   23.2020  -13.7640  -13.3890 C   0  0  0  0  0  0  0  0  0  0  0  0
   24.2690  -14.1050  -14.2260 C   0  0  0  0  0  0  0  0  0  0  0  0
   22.9510  -17.5750  -15.1400 C   0  0  0  0  0  0  0  0  0  0  0  0
   21.7270  -17.9510  -14.5700 C   0  0  0  0  0  0  0  0  0  0  0  0
   23.8470  -18.3490  -16.0860 C   0  0  0  0  0  0  0  0  0  0  0  0
   25.3170  -18.0260  -15.8190 C   0  0  0  0  0  0  0  0  0  0  0  0
   26.4840  -20.0570  -16.4890 C   0  0  0  0  0  0  0  0  0  0  0  0
   27.6840  -20.6040  -17.2010 C   0  0  0  0  0  0  0  0  0  0  0  0
   26.1890  -13.3860  -15.4340 C   0  0  0  0  0  0  0  0  0  0  0  0
   27.9390  -12.3370  -16.8810 C   0  0  0  0  0  0  0  0  0  0  0  0
   25.7620  -20.7610  -15.7980 O   0  0  0  0  0  0  0  0  0  0  0  0
   25.1096  -15.6393  -15.5025 H   0  0  0  0  0  0  0  0  0  0  0  0
   20.3529  -16.9755  -13.2559 H   0  0  0  0  0  0  0  0  0  0  0  0
   26.7373  -18.2560  -17.4176 H   0  0  0  0  0  0  0  0  0  0  0  0
   25.3942  -12.4251  -13.8027 H   0  0  0  0  0  0  0  0  0  0  0  0
   21.3086  -14.3197  -12.4817 H   0  0  0  0  0  0  0  0  0  0  0  0
   23.2067  -12.7782  -12.9010 H   0  0  0  0  0  0  0  0  0  0  0  0
   21.2247  -18.9154  -14.7362 H   0  0  0  0  0  0  0  0  0  0  0  0
   23.6813  -19.4267  -15.9405 H   0  0  0  0  0  0  0  0  0  0  0  0
   23.6029  -18.0629  -17.1197 H   0  0  0  0  0  0  0  0  0  0  0  0
   25.5390  -18.2685  -14.7693 H   0  0  0  0  0  0  0  0  0  0  0  0
   25.4539  -16.9584  -16.0460 H   0  0  0  0  0  0  0  0  0  0  0  0
   28.4259  -20.9422  -16.4626 H   0  0  0  0  0  0  0  0  0  0  0  0
   27.3809  -21.4529  -17.8315 H   0  0  0  0  0  0  0  0  0  0  0  0
   28.1260  -19.8184  -17.8315 H   0  0  0  0  0  0  0  0  0  0  0  0
   28.9955  -12.3994  -16.5813 H   0  0  0  0  0  0  0  0  0  0  0  0
   27.6749  -13.2211  -17.4798 H   0  0  0  0  0  0  0  0  0  0  0  0
   27.7808  -11.4280  -17.4798 H   0  0  0  0  0  0  0  0  0  0  0  0
 11  1  2  0
  3  1  1  0
  6  2  1  0
  2 13  1  0
  6  3  2  0
  3 12  1  0
 15  4  1  0
  4 16  1  0
 18  5  2  0
  9  6  1  0
 11  7  1  0
  7 18  1  0
 19  8  1  0
 18  8  1  0
  9 10  2  0
 10 11  1  0
 13 12  2  0
 12 14  1  0
 15 14  1  0
 17 16  1  0
 16 20  2  0
  1 21  1  0
  2 22  1  0
  4 23  1  0
  7 24  1  0
  9 25  1  0
 10 26  1  0
 13 27  1  0
 14 28  1  0
 14 29  1  0
 15 30  1  0
 15 31  1  0
 17 32  1  0
 17 33  1  0
 17 34  1  0
 19 35  1  0
 19 36  1  0
 19 37  1  0
A    1
C1
A    2
N1
A    3
C2
A    4
N2
A    5
O2
A    6
C3
A    7
N3
A    8
O3
A    9
C4
A   10
C5
A   11
C6
A   12
C7
A   13
C8
A   14
C10
A   15
C11
A   16
C13
A   17
C14
A   18
C17
A   19
C18
A   20
OXT
M  END
