3OWD_MEY_A_1
     RDKit          3D

 52 56  0  0  0  0  0  0  0  0999 V2000
   -3.8920    8.1520   23.8240 C   0  0  0  0  0  0  0  0  0  0  0  0
   -3.8990    6.8010   24.1600 C   0  0  0  0  0  0  0  0  0  0  0  0
   -3.4850    7.0920   19.1550 C   0  0  0  0  0  0  0  0  0  0  0  0
   -3.7850    8.5440   22.5040 C   0  0  0  0  0  0  0  0  0  0  0  0
   -3.8080    5.8550   23.1500 C   0  0  0  0  0  0  0  0  0  0  0  0
   -3.5780    7.9990   20.1880 C   0  0  0  0  0  0  0  0  0  0  0  0
   -0.5250    5.6400   22.5430 C   0  0  0  0  0  0  0  0  0  0  0  0
   -0.2030    6.9560   22.8600 C   0  0  0  0  0  0  0  0  0  0  0  0
   -3.5000    5.7490   19.4500 C   0  0  0  0  0  0  0  0  0  0  0  0
    0.0160    5.9520   20.2220 C   0  0  0  0  0  0  0  0  0  0  0  0
   -0.6070   10.3890   23.3900 C   0  0  0  0  0  0  0  0  0  0  0  0
    1.7250   11.0630   24.7330 C   0  0  0  0  0  0  0  0  0  0  0  0
   -3.6800    7.5920   21.5070 C   0  0  0  0  0  0  0  0  0  0  0  0
   -3.7170    6.2440   21.8270 C   0  0  0  0  0  0  0  0  0  0  0  0
   -0.4490    5.1350   21.2490 C   0  0  0  0  0  0  0  0  0  0  0  0
    0.2400    7.7510   21.8160 C   0  0  0  0  0  0  0  0  0  0  0  0
    0.3620    7.2480   20.5470 C   0  0  0  0  0  0  0  0  0  0  0  0
    0.6140    9.9770   22.8910 C   0  0  0  0  0  0  0  0  0  0  0  0
    1.7750   10.3570   23.5490 C   0  0  0  0  0  0  0  0  0  0  0  0
    0.4930   11.4180   25.2460 C   0  0  0  0  0  0  0  0  0  0  0  0
   -3.6160    5.3480   20.7690 C   0  0  0  0  0  0  0  0  0  0  0  0
   -0.6570   11.1480   24.5360 C   0  0  0  0  0  0  0  0  0  0  0  0
    1.0950    9.3910   20.4980 C   0  0  0  0  0  0  0  0  0  0  0  0
   -0.8510    3.7170   20.9460 C   0  0  0  0  0  0  0  0  0  0  0  0
    0.8820    8.2690   19.7050 N   0  0  0  0  0  0  0  0  0  0  0  0
    0.6910    9.0770   21.7940 N   0  0  0  0  0  0  0  0  0  0  0  0
   -2.0360    3.2630   21.7210 N   0  0  0  0  0  0  0  0  0  0  0  0
    1.5110   10.4830   20.1350 O   0  0  0  0  0  0  0  0  0  0  0  0
   -4.5480    3.1780   21.9790 O   0  0  0  0  0  0  0  0  0  0  0  0
   -3.5760    3.0080   19.6750 O   0  0  0  0  0  0  0  0  0  0  0  0
    2.9960   10.0480   22.9820 O   0  0  0  0  0  0  0  0  0  0  0  0
    0.4060   12.1280   26.4350 O   0  0  0  0  0  0  0  0  0  0  0  0
   -3.5530    3.5770   21.0000 S   0  0  0  0  0  0  0  0  0  0  0  0
   -2.2050   11.6910   25.1340 Cl  0  0  0  0  0  0  0  0  0  0  0  0
   -3.9722    8.9122   24.6150 H   0  0  0  0  0  0  0  0  0  0  0  0
   -3.9756    6.4883   25.2118 H   0  0  0  0  0  0  0  0  0  0  0  0
   -3.4003    7.4359   18.1136 H   0  0  0  0  0  0  0  0  0  0  0  0
   -3.7833    9.6133   22.2460 H   0  0  0  0  0  0  0  0  0  0  0  0
   -3.8083    4.7848   23.4044 H   0  0  0  0  0  0  0  0  0  0  0  0
   -3.5710    9.0748   19.9585 H   0  0  0  0  0  0  0  0  0  0  0  0
   -0.8540    4.9697   23.3508 H   0  0  0  0  0  0  0  0  0  0  0  0
   -0.2954    7.3442   23.8851 H   0  0  0  0  0  0  0  0  0  0  0  0
   -3.4207    5.0020   18.6464 H   0  0  0  0  0  0  0  0  0  0  0  0
    0.1043    5.5789   19.1910 H   0  0  0  0  0  0  0  0  0  0  0  0
   -1.5366   10.1107   22.8720 H   0  0  0  0  0  0  0  0  0  0  0  0
    2.6507   11.3385   25.2595 H   0  0  0  0  0  0  0  0  0  0  0  0
   -1.0854    3.6421   19.8739 H   0  0  0  0  0  0  0  0  0  0  0  0
   -0.0078    3.0712   21.2321 H   0  0  0  0  0  0  0  0  0  0  0  0
    1.0667    8.1917   18.6946 H   0  0  0  0  0  0  0  0  0  0  0  0
   -1.9545    2.2454   21.8578 H   0  0  0  0  0  0  0  0  0  0  0  0
    3.7748    9.8509   23.5606 H   0  0  0  0  0  0  0  0  0  0  0  0
    0.4643   11.6521   27.3011 H   0  0  0  0  0  0  0  0  0  0  0  0
  1  2  2  0
  1  4  1  0
  2  5  1  0
  3  6  2  0
  3  9  1  0
  4 13  2  0
  5 14  2  0
  6 13  1  0
  7  8  2  0
  7 15  1  0
  8 16  1  0
  9 21  2  0
 10 15  2  0
 10 17  1  0
 11 18  2  0
 11 22  1  0
 12 19  2  0
 12 20  1  0
 13 14  1  0
 14 21  1  0
 15 24  1  0
 16 17  2  0
 16 26  1  0
 17 25  1  0
 18 19  1  0
 18 26  1  0
 19 31  1  0
 20 22  2  0
 20 32  1  0
 21 33  1  0
 22 34  1  0
 23 25  1  0
 23 26  1  0
 23 28  2  0
 24 27  1  0
 27 33  1  0
 29 33  2  0
 30 33  2  0
  1 35  1  0
  2 36  1  0
  3 37  1  0
  4 38  1  0
  5 39  1  0
  6 40  1  0
  7 41  1  0
  8 42  1  0
  9 43  1  0
 10 44  1  0
 11 45  1  0
 12 46  1  0
 24 47  1  0
 24 48  1  0
 25 49  1  0
 27 50  1  0
 31 51  1  0
 32 52  1  0
A    1
C1
A    2
C2
A    3
C3
A    4
C4
A    5
C5
A    6
C6
A    7
C7
A    8
C8
A    9
C9
A   10
C10
A   11
C11
A   12
C12
A   13
C13
A   14
C14
A   15
C15
A   16
C16
A   17
C17
A   18
C18
A   19
C19
A   20
C20
A   21
C21
A   22
C22
A   23
C23
A   24
C24
A   25
N25
A   26
N26
A   27
N27
A   28
O28
A   29
O29
A   30
O30
A   31
O31
A   32
O32
A   33
S33
A   34
CL34
M  END
