3OWH_52X_A_232
     RDKit          3D

 37 38  0  0  0  0  0  0  0  0999 V2000
   21.9080  -15.7730  -13.4960 C   0  0  0  0  0  0  0  0  0  0  0  0
   20.7580  -19.7580  -14.4890 I   0  0  0  0  0  0  0  0  0  0  0  0
   21.0340  -16.8310  -13.3550 N   0  0  0  0  0  0  0  0  0  0  0  0
   27.3990  -20.2610  -17.1200 O   0  0  0  0  0  0  0  0  0  0  0  0
   22.0380  -14.4780  -12.9600 C   0  0  0  0  0  0  0  0  0  0  0  0
   25.8160  -18.8830  -16.3790 N   0  0  0  0  0  0  0  0  0  0  0  0
   26.9910  -12.0950  -15.2500 O   0  0  0  0  0  0  0  0  0  0  0  0
   23.1110  -13.6570  -13.3840 C   0  0  0  0  0  0  0  0  0  0  0  0
   25.1560  -13.4810  -14.8350 N   0  0  0  0  0  0  0  0  0  0  0  0
   25.3090  -11.4980  -13.7740 O   0  0  0  0  0  0  0  0  0  0  0  0
   24.0770  -14.1060  -14.3100 C   0  0  0  0  0  0  0  0  0  0  0  0
   23.9860  -15.3710  -14.8510 C   0  0  0  0  0  0  0  0  0  0  0  0
   22.9660  -16.1760  -14.4700 C   0  0  0  0  0  0  0  0  0  0  0  0
   22.7110  -17.5260  -14.9330 C   0  0  0  0  0  0  0  0  0  0  0  0
   21.5100  -17.8060  -14.1690 C   0  0  0  0  0  0  0  0  0  0  0  0
   23.4760  -18.3810  -15.9100 C   0  0  0  0  0  0  0  0  0  0  0  0
   24.8600  -18.6390  -15.3290 C   0  0  0  0  0  0  0  0  0  0  0  0
   26.3580  -20.0790  -16.5120 C   0  0  0  0  0  0  0  0  0  0  0  0
   25.6010  -21.1870  -15.8700 C   0  0  0  0  0  0  0  0  0  0  0  0
   25.7440  -12.3380  -14.5430 C   0  0  0  0  0  0  0  0  0  0  0  0
   28.1980  -11.9120  -14.5060 C   0  0  0  0  0  0  0  0  0  0  0  0
   20.1962  -16.8719  -12.7573 H   0  0  0  0  0  0  0  0  0  0  0  0
   21.3137  -14.1076  -12.2196 H   0  0  0  0  0  0  0  0  0  0  0  0
   26.0763  -18.1245  -17.0254 H   0  0  0  0  0  0  0  0  0  0  0  0
   23.1943  -12.6376  -12.9791 H   0  0  0  0  0  0  0  0  0  0  0  0
   25.6018  -13.9950  -15.6083 H   0  0  0  0  0  0  0  0  0  0  0  0
   24.7307  -15.7209  -15.5810 H   0  0  0  0  0  0  0  0  0  0  0  0
   22.9509  -19.3357  -16.0609 H   0  0  0  0  0  0  0  0  0  0  0  0
   23.5589  -17.8700  -16.8806 H   0  0  0  0  0  0  0  0  0  0  0  0
   24.8164  -19.5179  -14.6690 H   0  0  0  0  0  0  0  0  0  0  0  0
   25.1765  -17.7511  -14.7620 H   0  0  0  0  0  0  0  0  0  0  0  0
   25.6669  -21.0905  -14.7762 H   0  0  0  0  0  0  0  0  0  0  0  0
   24.5466  -21.1382  -16.1795 H   0  0  0  0  0  0  0  0  0  0  0  0
   26.0298  -22.1516  -16.1795 H   0  0  0  0  0  0  0  0  0  0  0  0
   27.9739  -11.9460  -13.4296 H   0  0  0  0  0  0  0  0  0  0  0  0
   28.9090  -12.7126  -14.7580 H   0  0  0  0  0  0  0  0  0  0  0  0
   28.6397  -10.9366  -14.7580 H   0  0  0  0  0  0  0  0  0  0  0  0
 13  1  2  0
  1  3  1  0
  1  5  1  0
  2 15  1  0
 15  3  1  0
  4 18  2  0
  8  5  2  0
 18  6  1  0
  6 17  1  0
  7 20  1  0
  7 21  1  0
 11  8  1  0
  9 20  1  0
  9 11  1  0
 20 10  2  0
 12 11  2  0
 12 13  1  0
 14 13  1  0
 16 14  1  0
 14 15  2  0
 16 17  1  0
 18 19  1  0
  3 22  1  0
  5 23  1  0
  6 24  1  0
  8 25  1  0
  9 26  1  0
 12 27  1  0
 16 28  1  0
 16 29  1  0
 17 30  1  0
 17 31  1  0
 19 32  1  0
 19 33  1  0
 19 34  1  0
 21 35  1  0
 21 36  1  0
 21 37  1  0
A    1
C1
A    2
I1
A    3
N1
A    4
O1
A    5
C2
A    6
N2
A    7
O2
A    8
C3
A    9
N3
A   10
O3
A   11
C4
A   12
C5
A   13
C6
A   14
C7
A   15
C8
A   16
C11
A   17
C12
A   18
C14
A   19
C15
A   20
C18
A   21
C33
M  END
