3OWL_19E_A_332
     RDKit          3D

 31 34  0  0  0  0  0  0  0  0999 V2000
   23.4930    7.4440   10.8380 C   0  0  0  0  0  0  0  0  0  0  0  0
   23.7050    7.7690    9.5310 O   0  0  0  0  0  0  0  0  0  0  0  0
   23.3250    8.4660   11.7630 C   0  0  0  0  0  0  0  0  0  0  0  0
   23.1020    8.1710   13.1000 C   0  0  0  0  0  0  0  0  0  0  0  0
   23.0580    6.8340   13.5280 C   0  0  0  0  0  0  0  0  0  0  0  0
   23.2310    5.8110   12.5910 C   0  0  0  0  0  0  0  0  0  0  0  0
   23.4480    6.1100   11.2480 C   0  0  0  0  0  0  0  0  0  0  0  0
   22.9360    9.2320   13.9950 C   0  0  0  0  0  0  0  0  0  0  0  0
   22.7200    8.9730   15.3410 C   0  0  0  0  0  0  0  0  0  0  0  0
   22.6750    7.6500   15.7760 C   0  0  0  0  0  0  0  0  0  0  0  0
   22.8420    6.5950   14.8920 C   0  0  0  0  0  0  0  0  0  0  0  0
   22.4790    7.0970   17.0120 N   0  0  0  0  0  0  0  0  0  0  0  0
   22.5100    5.7360   16.9940 C   0  0  0  0  0  0  0  0  0  0  0  0
   22.7290    5.3460   15.6830 C   0  0  0  0  0  0  0  0  0  0  0  0
   22.3650    4.7780   17.9910 C   0  0  0  0  0  0  0  0  0  0  0  0
   22.1200    5.1740   19.4280 C   0  0  0  0  0  0  0  0  0  0  0  0
   22.4410    3.4390   17.6360 C   0  0  0  0  0  0  0  0  0  0  0  0
   22.6570    3.0840   16.3610 N   0  0  0  0  0  0  0  0  0  0  0  0
   22.8070    3.9750   15.3640 C   0  0  0  0  0  0  0  0  0  0  0  0
   23.0730    3.2850   13.7560 Cl  0  0  0  0  0  0  0  0  0  0  0  0
   24.2310    8.5754    9.3005 H   0  0  0  0  0  0  0  0  0  0  0  0
   23.3690    9.5147   11.4339 H   0  0  0  0  0  0  0  0  0  0  0  0
   23.1955    4.7610   12.9171 H   0  0  0  0  0  0  0  0  0  0  0  0
   23.5830    5.3007   10.5153 H   0  0  0  0  0  0  0  0  0  0  0  0
   22.9765   10.2699   13.6330 H   0  0  0  0  0  0  0  0  0  0  0  0
   22.5863    9.7998   16.0540 H   0  0  0  0  0  0  0  0  0  0  0  0
   22.3243    7.6518   17.8659 H   0  0  0  0  0  0  0  0  0  0  0  0
   22.5796    4.4311   20.0965 H   0  0  0  0  0  0  0  0  0  0  0  0
   22.5648    6.1622   19.6170 H   0  0  0  0  0  0  0  0  0  0  0  0
   21.0372    5.2171   19.6170 H   0  0  0  0  0  0  0  0  0  0  0  0
   22.3232    2.6626   18.4063 H   0  0  0  0  0  0  0  0  0  0  0  0
  2  1  1  0
  1  7  2  0
  1  3  1  0
  3  4  2  0
  4  5  1  0
  4  8  1  0
  6  5  2  0
  5 11  1  0
  7  6  1  0
  8  9  2  0
  9 10  1  0
 11 10  2  0
 10 12  1  0
 11 14  1  0
 13 12  1  0
 14 13  2  0
 13 15  1  0
 19 14  1  0
 17 15  2  0
 15 16  1  0
 18 17  1  0
 19 18  2  0
 20 19  1  0
  2 21  1  0
  3 22  1  0
  6 23  1  0
  7 24  1  0
  8 25  1  0
  9 26  1  0
 12 27  1  0
 16 28  1  0
 16 29  1  0
 16 30  1  0
 17 31  1  0
A    1
C1
A    2
O1
A    3
C2
A    4
C3
A    5
C4
A    6
C5
A    7
C6
A    8
C7
A    9
C8
A   10
C9
A   11
C10
A   12
N11
A   13
C12
A   14
C13
A   15
C14
A   16
C15
A   17
C16
A   18
N17
A   19
C18
A   20
CL18
M  END
