3OX3_4X4_A_233
     RDKit          3D

 46 50  0  0  0  0  0  0  0  0999 V2000
   25.8110  -14.0190  -15.2630 N   0  0  0  0  0  0  0  0  0  0  0  0
   28.4240  -20.1730  -17.3020 O   0  0  0  0  0  0  0  0  0  0  0  0
   24.7060  -14.6160  -14.7750 C   0  0  0  0  0  0  0  0  0  0  0  0
   22.7740  -14.8300  -13.5970 N   0  0  0  0  0  0  0  0  0  0  0  0
   25.2730  -20.6100  -15.9420 O   0  0  0  0  0  0  0  0  0  0  0  0
   23.8120  -13.9770  -13.9080 C   0  0  0  0  0  0  0  0  0  0  0  0
   21.7390  -18.1500  -14.3260 N   0  0  0  0  0  0  0  0  0  0  0  0
   27.1820  -12.1360  -15.3480 O   0  0  0  0  0  0  0  0  0  0  0  0
   24.0270  -12.6690  -13.4940 C   0  0  0  0  0  0  0  0  0  0  0  0
   26.5230  -18.7590  -15.7910 N   0  0  0  0  0  0  0  0  0  0  0  0
   25.1790  -12.0500  -13.9900 C   0  0  0  0  0  0  0  0  0  0  0  0
   26.0460  -12.7370  -14.8710 C   0  0  0  0  0  0  0  0  0  0  0  0
   24.1960  -15.9990  -15.0380 C   0  0  0  0  0  0  0  0  0  0  0  0
   22.9750  -16.0200  -14.2200 C   0  0  0  0  0  0  0  0  0  0  0  0
   21.5830  -14.7950  -12.7750 C   0  0  0  0  0  0  0  0  0  0  0  0
   21.1210  -16.1710  -13.0660 C   0  0  0  0  0  0  0  0  0  0  0  0
   21.9570  -16.8760  -13.9220 C   0  0  0  0  0  0  0  0  0  0  0  0
   20.6410  -18.7610  -13.8510 C   0  0  0  0  0  0  0  0  0  0  0  0
   19.7530  -18.1030  -12.9820 C   0  0  0  0  0  0  0  0  0  0  0  0
   19.9780  -16.7840  -12.5760 C   0  0  0  0  0  0  0  0  0  0  0  0
   24.6210  -17.2140  -15.8220 C   0  0  0  0  0  0  0  0  0  0  0  0
   25.6160  -17.9890  -14.9610 C   0  0  0  0  0  0  0  0  0  0  0  0
   26.3580  -20.0570  -16.0510 C   0  0  0  0  0  0  0  0  0  0  0  0
   27.5590  -20.8390  -16.4750 C   0  0  0  0  0  0  0  0  0  0  0  0
   28.0130  -22.1230  -16.1880 C   0  0  0  0  0  0  0  0  0  0  0  0
   29.2150  -22.3030  -16.8580 C   0  0  0  0  0  0  0  0  0  0  0  0
   29.5210  -21.1390  -17.5500 C   0  0  0  0  0  0  0  0  0  0  0  0
   28.2910  -12.0190  -14.4440 C   0  0  0  0  0  0  0  0  0  0  0  0
   26.4495  -14.5110  -15.9042 H   0  0  0  0  0  0  0  0  0  0  0  0
   23.3327  -12.1506  -12.8164 H   0  0  0  0  0  0  0  0  0  0  0  0
   27.3367  -18.2786  -16.2009 H   0  0  0  0  0  0  0  0  0  0  0  0
   25.4132  -11.0175  -13.6915 H   0  0  0  0  0  0  0  0  0  0  0  0
   21.1589  -14.0031  -12.1402 H   0  0  0  0  0  0  0  0  0  0  0  0
   20.4320  -19.7992  -14.1485 H   0  0  0  0  0  0  0  0  0  0  0  0
   18.8639  -18.6362  -12.6143 H   0  0  0  0  0  0  0  0  0  0  0  0
   19.2840  -16.2598  -11.9026 H   0  0  0  0  0  0  0  0  0  0  0  0
   23.7463  -17.8430  -16.0439 H   0  0  0  0  0  0  0  0  0  0  0  0
   25.0814  -16.9185  -16.7763 H   0  0  0  0  0  0  0  0  0  0  0  0
   25.0644  -18.6726  -14.2988 H   0  0  0  0  0  0  0  0  0  0  0  0
   26.2026  -17.2724  -14.3675 H   0  0  0  0  0  0  0  0  0  0  0  0
   27.5101  -22.8615  -15.5463 H   0  0  0  0  0  0  0  0  0  0  0  0
   29.8253  -23.2181  -16.8432 H   0  0  0  0  0  0  0  0  0  0  0  0
   30.4137  -20.9653  -18.1688 H   0  0  0  0  0  0  0  0  0  0  0  0
   27.9248  -12.0576  -13.4075 H   0  0  0  0  0  0  0  0  0  0  0  0
   28.9932  -12.8480  -14.6159 H   0  0  0  0  0  0  0  0  0  0  0  0
   28.8048  -11.0617  -14.6159 H   0  0  0  0  0  0  0  0  0  0  0  0
  1 12  1  0
  1  3  1  0
 27  2  1  0
  2 24  1  0
 13  3  2  0
  3  6  1  0
 14  4  1  0
  6  4  1  0
  4 15  1  0
 23  5  2  0
  6  9  2  0
  7 17  1  0
  7 18  2  0
  8 12  1  0
  8 28  1  0
 11  9  1  0
 23 10  1  0
 10 22  1  0
 12 11  2  0
 21 13  1  0
 13 14  1  0
 14 17  2  0
 16 15  2  0
 17 16  1  0
 16 20  1  0
 18 19  1  0
 19 20  2  0
 21 22  1  0
 24 23  1  0
 24 25  2  0
 26 25  1  0
 27 26  2  0
  1 29  1  0
  9 30  1  0
 10 31  1  0
 11 32  1  0
 15 33  1  0
 18 34  1  0
 19 35  1  0
 20 36  1  0
 21 37  1  0
 21 38  1  0
 22 39  1  0
 22 40  1  0
 25 41  1  0
 26 42  1  0
 27 43  1  0
 28 44  1  0
 28 45  1  0
 28 46  1  0
A    1
N1
A    2
O1
A    3
C2
A    4
N2
A    5
O2
A    6
C3
A    7
N3
A    8
O3
A    9
C4
A   10
N4
A   11
C5
A   12
C6
A   13
C7
A   14
C8
A   15
C10
A   16
C11
A   17
C12
A   18
C14
A   19
C15
A   20
C16
A   21
C17
A   22
C18
A   23
C20
A   24
C21
A   25
C22
A   26
C23
A   27
C24
A   28
C28
M  END
