3OXI_SYY_A_1
     RDKit          3D

 29 30  0  0  0  0  0  0  0  0999 V2000
    1.8160   -1.6330  -29.3460 S   0  0  0  0  0  0  0  0  0  0  0  0
    1.0620   -2.8060  -31.5600 C   0  0  0  0  0  0  0  0  0  0  0  0
   -0.9070   -1.3110  -32.0950 N   0  0  0  0  0  0  0  0  0  0  0  0
   -1.3960    0.5210  -30.0000 O   0  0  0  0  0  0  0  0  0  0  0  0
    0.1590   -1.7480  -31.3770 C   0  0  0  0  0  0  0  0  0  0  0  0
    0.2060    1.0350  -28.5700 O   0  0  0  0  0  0  0  0  0  0  0  0
   -2.6190    1.2370  -34.2240 S   0  0  0  0  0  0  0  0  0  0  0  0
    0.4330   -0.9710  -30.1370 C   0  0  0  0  0  0  0  0  0  0  0  0
   -0.6620   -2.9490  -33.6310 O   0  0  0  0  0  0  0  0  0  0  0  0
    2.0100   -2.8640  -30.5450 C   0  0  0  0  0  0  0  0  0  0  0  0
   -0.3010    0.2010  -29.5950 C   0  0  0  0  0  0  0  0  0  0  0  0
   -0.5830    2.2240  -28.3940 C   0  0  0  0  0  0  0  0  0  0  0  0
   -1.2560   -1.9560  -33.2110 C   0  0  0  0  0  0  0  0  0  0  0  0
   -2.4540   -1.4610  -33.9770 C   0  0  0  0  0  0  0  0  0  0  0  0
   -3.0560   -0.2110  -33.4020 C   0  0  0  0  0  0  0  0  0  0  0  0
   -3.9130    0.0820  -32.3230 C   0  0  0  0  0  0  0  0  0  0  0  0
   -4.1860    1.4540  -32.1980 C   0  0  0  0  0  0  0  0  0  0  0  0
   -3.5620    2.2280  -33.1660 C   0  0  0  0  0  0  0  0  0  0  0  0
    1.0243   -3.5070  -32.4069 H   0  0  0  0  0  0  0  0  0  0  0  0
   -1.4422   -0.4887  -31.7816 H   0  0  0  0  0  0  0  0  0  0  0  0
    2.8075   -3.6207  -30.5080 H   0  0  0  0  0  0  0  0  0  0  0  0
   -0.7140    2.4214  -27.3198 H   0  0  0  0  0  0  0  0  0  0  0  0
   -0.0709    3.0767  -28.8638 H   0  0  0  0  0  0  0  0  0  0  0  0
   -1.5677    2.0835  -28.8638 H   0  0  0  0  0  0  0  0  0  0  0  0
   -2.1447   -1.2546  -35.0122 H   0  0  0  0  0  0  0  0  0  0  0  0
   -3.2221   -2.2464  -33.9207 H   0  0  0  0  0  0  0  0  0  0  0  0
   -4.3251   -0.6835  -31.6491 H   0  0  0  0  0  0  0  0  0  0  0  0
   -4.8303    1.8732  -31.4111 H   0  0  0  0  0  0  0  0  0  0  0  0
   -3.6544    3.3210  -33.2489 H   0  0  0  0  0  0  0  0  0  0  0  0
  1  8  1  0
  1 10  1  0
  2  5  1  0
  2 10  2  0
  3  5  1  0
  3 13  1  0
  4 11  2  0
  5  8  2  0
  6 11  1  0
  6 12  1  0
  7 15  1  0
  7 18  1  0
  8 11  1  0
  9 13  2  0
 13 14  1  0
 14 15  1  0
 15 16  2  0
 16 17  1  0
 17 18  2  0
  2 19  1  0
  3 20  1  0
 10 21  1  0
 12 22  1  0
 12 23  1  0
 12 24  1  0
 14 25  1  0
 14 26  1  0
 16 27  1  0
 17 28  1  0
 18 29  1  0
A    1
S
A    2
C1
A    3
N1
A    4
O1
A    5
C2
A    6
O2
A    7
S2
A    8
C3
A    9
O3
A   10
C5
A   11
C6
A   12
C9
A   13
C11
A   14
C12
A   15
C14
A   16
C15
A   17
C16
A   18
C17
M  END
