2GXX_3SB_?_25
     RDKit          3D

 40 36  0  0  0  0  0  0  0  0999 V2000
   17.2610   26.5040   36.9740 N   0  0  0  0  0  0  0  0  0  0  0  0
   17.0770   25.4280   37.8380 C   0  0  0  0  0  0  0  0  0  0  0  0
   15.7780   25.2820   38.0370 C   0  0  0  0  0  0  0  0  0  0  0  0
   16.0430   27.0110   36.5930 C   0  0  0  0  0  0  0  0  0  0  0  0
   15.7670   28.1570   35.7560 C   0  0  0  0  0  0  0  0  0  0  0  0
   16.8080   28.9940   35.3120 C   0  0  0  0  0  0  0  0  0  0  0  0
   16.4630   30.0890   34.5250 C   0  0  0  0  0  0  0  0  0  0  0  0
   14.4380   28.4360   35.3790 C   0  0  0  0  0  0  0  0  0  0  0  0
   14.1370   29.5260   34.5560 C   0  0  0  0  0  0  0  0  0  0  0  0
   15.1800   30.3400   34.1480 C   0  0  0  0  0  0  0  0  0  0  0  0
   16.3640   31.9010   33.3530 C   0  0  0  0  0  0  0  0  0  0  0  0
   16.6670   33.2380   32.7590 C   0  0  0  0  0  0  0  0  0  0  0  0
   17.6970   33.0460   31.6850 C   0  0  0  0  0  0  0  0  0  0  0  0
   17.4080   27.3634   37.5224 H   0  0  0  0  0  0  0  0  0  0  0  0
   18.0845   26.3306   36.3802 H   0  0  0  0  0  0  0  0  0  0  0  0
   17.4911   24.5133   37.3887 H   0  0  0  0  0  0  0  0  0  0  0  0
   17.5918   25.6117   38.7926 H   0  0  0  0  0  0  0  0  0  0  0  0
   15.5729   25.2589   39.1175 H   0  0  0  0  0  0  0  0  0  0  0  0
   15.2399   26.1253   37.5795 H   0  0  0  0  0  0  0  0  0  0  0  0
   15.4405   24.3403   37.5795 H   0  0  0  0  0  0  0  0  0  0  0  0
   16.2197   26.1680   37.2772 H   0  0  0  0  0  0  0  0  0  0  0  0
   15.7508   28.1440   36.8558 H   0  0  0  0  0  0  0  0  0  0  0  0
   14.8056   28.5364   35.3796 H   0  0  0  0  0  0  0  0  0  0  0  0
   15.9311   27.1365   35.3796 H   0  0  0  0  0  0  0  0  0  0  0  0
   17.8559   28.7902   35.5773 H   0  0  0  0  0  0  0  0  0  0  0  0
   17.2447   30.7694   34.1563 H   0  0  0  0  0  0  0  0  0  0  0  0
   15.4086   30.2739   34.2718 H   0  0  0  0  0  0  0  0  0  0  0  0
   14.4380   28.4360   36.4790 H   0  0  0  0  0  0  0  0  0  0  0  0
   14.4380   29.4731   35.0123 H   0  0  0  0  0  0  0  0  0  0  0  0
   15.3361   27.9175   35.0123 H   0  0  0  0  0  0  0  0  0  0  0  0
   13.5399   27.9175   35.0123 H   0  0  0  0  0  0  0  0  0  0  0  0
   13.6259   29.0575   33.7020 H   0  0  0  0  0  0  0  0  0  0  0  0
   13.3277   30.0420   35.0934 H   0  0  0  0  0  0  0  0  0  0  0  0
   15.6971   30.7436   35.0310 H   0  0  0  0  0  0  0  0  0  0  0  0
   15.8883   29.7535   33.5444 H   0  0  0  0  0  0  0  0  0  0  0  0
   14.7832   31.1696   33.5444 H   0  0  0  0  0  0  0  0  0  0  0  0
   15.6276   31.8143   34.1655 H   0  0  0  0  0  0  0  0  0  0  0  0
   16.8773   31.0034   32.9778 H   0  0  0  0  0  0  0  0  0  0  0  0
   16.2143   34.1953   33.0568 H   0  0  0  0  0  0  0  0  0  0  0  0
   18.2675   33.4484   30.8349 H   0  0  0  0  0  0  0  0  0  0  0  0
  1  2  1  0
  3  2  1  0
 13  4  2  0
  4  9  1  0
  6  5  1  0
  6  7  2  3
  9 10  1  0
 12 11  2  0
 13 12  1  0
  1 14  1  0
  1 15  1  0
  2 16  1  0
  2 17  1  0
  3 18  1  0
  3 19  1  0
  3 20  1  0
  4 21  1  0
  5 22  1  0
  5 23  1  0
  5 24  1  0
  6 25  1  0
  7 26  1  0
  7 27  1  0
  8 28  1  0
  8 29  1  0
  8 30  1  0
  8 31  1  0
  9 32  1  0
  9 33  1  0
 10 34  1  0
 10 35  1  0
 10 36  1  0
 11 37  1  0
 11 38  1  0
 12 39  1  0
 13 40  1  0
A    1
N1
A    2
C2
A    3
C3
A    4
C5
A    5
C6
A    6
C7
A    7
C8
A    8
C10
A    9
C11
A   10
C12
A   11
C14
A   12
C15
A   13
C16
M  END
