3OY3_XY3_A_1
     RDKit          3D

 72 75  0  0  0  0  0  0  0  0999 V2000
   24.8300    9.5410    3.7640 N   0  0  0  0  0  0  0  0  0  0  0  0
    9.2620    4.9440    5.3110 N   0  0  0  0  0  0  0  0  0  0  0  0
   20.3560    9.8190    2.3720 C   0  0  0  0  0  0  0  0  0  0  0  0
   18.9550   10.0990    2.2990 C   0  0  0  0  0  0  0  0  0  0  0  0
   18.4510   11.2980    1.6760 C   0  0  0  0  0  0  0  0  0  0  0  0
   17.0520   11.5210    1.6480 C   0  0  0  0  0  0  0  0  0  0  0  0
   16.1480   10.5620    2.2220 C   0  0  0  0  0  0  0  0  0  0  0  0
   18.0830    9.1540    2.8590 C   0  0  0  0  0  0  0  0  0  0  0  0
   13.4560    7.6850    4.0430 C   0  0  0  0  0  0  0  0  0  0  0  0
   11.0810    7.0100    4.2800 C   0  0  0  0  0  0  0  0  0  0  0  0
   12.7320    6.2390    5.9830 C   0  0  0  0  0  0  0  0  0  0  0  0
   10.2130    5.5360    6.2040 C   0  0  0  0  0  0  0  0  0  0  0  0
    9.8130    3.9040    4.3850 C   0  0  0  0  0  0  0  0  0  0  0  0
    8.7300    3.5040    3.3360 C   0  0  0  0  0  0  0  0  0  0  0  0
    8.0450    4.4480    6.0100 C   0  0  0  0  0  0  0  0  0  0  0  0
   23.4610    8.4620    0.5800 C   0  0  0  0  0  0  0  0  0  0  0  0
   26.2290    8.4960    1.9470 C   0  0  0  0  0  0  0  0  0  0  0  0
   26.2580    8.1960    0.6080 O   0  0  0  0  0  0  0  0  0  0  0  0
   23.7740    9.0310    1.8000 N   0  0  0  0  0  0  0  0  0  0  0  0
   25.0210    9.0120    2.5520 C   0  0  0  0  0  0  0  0  0  0  0  0
   23.4850    9.7220    3.8910 C   0  0  0  0  0  0  0  0  0  0  0  0
   22.8630    9.4620    2.7170 C   0  0  0  0  0  0  0  0  0  0  0  0
   21.5140    9.6270    2.5040 C   0  0  0  0  0  0  0  0  0  0  0  0
   16.6700    9.3530    2.8380 C   0  0  0  0  0  0  0  0  0  0  0  0
   19.3940   12.3320    1.0510 C   0  0  0  0  0  0  0  0  0  0  0  0
   15.8070    8.2880    3.4620 C   0  0  0  0  0  0  0  0  0  0  0  0
   16.3510    7.3650    4.1180 O   0  0  0  0  0  0  0  0  0  0  0  0
   14.4590    8.3940    3.2930 N   0  0  0  0  0  0  0  0  0  0  0  0
   12.1160    7.7070    3.5720 C   0  0  0  0  0  0  0  0  0  0  0  0
   11.3770    6.2720    5.4910 C   0  0  0  0  0  0  0  0  0  0  0  0
   13.7530    6.9410    5.2560 C   0  0  0  0  0  0  0  0  0  0  0  0
   13.1210    5.4700    7.2590 C   0  0  0  0  0  0  0  0  0  0  0  0
   13.0280    4.1700    7.0270 F   0  0  0  0  0  0  0  0  0  0  0  0
   14.3550    5.6860    7.6580 F   0  0  0  0  0  0  0  0  0  0  0  0
   12.3230    5.8250    8.2610 F   0  0  0  0  0  0  0  0  0  0  0  0
    6.9510    4.0860    4.9680 C   0  0  0  0  0  0  0  0  0  0  0  0
    6.4400    2.6170    2.9750 C   0  0  0  0  0  0  0  0  0  0  0  0
    7.4550    3.0520    3.9930 N   0  0  0  0  0  0  0  0  0  0  0  0
   27.1300    8.3730    2.5860 N   0  0  0  0  0  0  0  0  0  0  0  0
    5.3990    2.3950    3.4020 C   0  0  0  0  0  0  0  0  0  0  0  0
    5.3430    0.9830    4.0450 O   0  0  0  0  0  0  0  0  0  0  0  0
   16.6545   12.4353    1.1833 H   0  0  0  0  0  0  0  0  0  0  0  0
   15.0633   10.7426    2.1952 H   0  0  0  0  0  0  0  0  0  0  0  0
   18.4948    8.2450    3.3218 H   0  0  0  0  0  0  0  0  0  0  0  0
   10.0496    7.0363    3.8985 H   0  0  0  0  0  0  0  0  0  0  0  0
    9.6845    6.2606    6.8409 H   0  0  0  0  0  0  0  0  0  0  0  0
   10.6626    4.7136    6.7798 H   0  0  0  0  0  0  0  0  0  0  0  0
   10.6939    4.3081    3.8646 H   0  0  0  0  0  0  0  0  0  0  0  0
   10.1013    3.0158    4.9664 H   0  0  0  0  0  0  0  0  0  0  0  0
    8.5131    4.3741    2.6989 H   0  0  0  0  0  0  0  0  0  0  0  0
    9.1234    2.6664    2.7414 H   0  0  0  0  0  0  0  0  0  0  0  0
    8.3001    3.5537    6.5974 H   0  0  0  0  0  0  0  0  0  0  0  0
    7.6641    5.2341    6.6786 H   0  0  0  0  0  0  0  0  0  0  0  0
   22.9367    7.5089    0.7436 H   0  0  0  0  0  0  0  0  0  0  0  0
   22.8116    9.1450    0.0127 H   0  0  0  0  0  0  0  0  0  0  0  0
   24.3855    8.2792    0.0127 H   0  0  0  0  0  0  0  0  0  0  0  0
   22.9774   10.0347    4.8154 H   0  0  0  0  0  0  0  0  0  0  0  0
   19.9046   12.8918    1.8484 H   0  0  0  0  0  0  0  0  0  0  0  0
   20.1407   11.8179    0.4280 H   0  0  0  0  0  0  0  0  0  0  0  0
   18.8135   13.0283    0.4280 H   0  0  0  0  0  0  0  0  0  0  0  0
   14.1280    9.0401    2.5623 H   0  0  0  0  0  0  0  0  0  0  0  0
   11.8696    8.2637    2.6558 H   0  0  0  0  0  0  0  0  0  0  0  0
   14.7881    6.9148    5.6275 H   0  0  0  0  0  0  0  0  0  0  0  0
    6.0715    3.6861    5.4939 H   0  0  0  0  0  0  0  0  0  0  0  0
    6.6850    4.9951    4.4087 H   0  0  0  0  0  0  0  0  0  0  0  0
    6.8126    1.7039    2.4878 H   0  0  0  0  0  0  0  0  0  0  0  0
    6.3174    3.4593    2.2782 H   0  0  0  0  0  0  0  0  0  0  0  0
   27.0394    8.3854    3.6119 H   0  0  0  0  0  0  0  0  0  0  0  0
   28.0556    8.2466    2.1523 H   0  0  0  0  0  0  0  0  0  0  0  0
    5.1577    3.1472    4.1675 H   0  0  0  0  0  0  0  0  0  0  0  0
    4.6708    2.4308    2.5784 H   0  0  0  0  0  0  0  0  0  0  0  0
    5.3464    1.0691    5.0312 H   0  0  0  0  0  0  0  0  0  0  0  0
 20  1  2  0
  1 21  1  0
 13  2  1  0
  2 15  1  0
  2 12  1  0
  4  3  1  0
  3 23  3  0
  5  4  2  0
  4  8  1  0
 25  5  1  0
  6  5  1  0
  6  7  2  0
  7 24  1  0
 24  8  2  0
 28  9  1  0
 29  9  1  0
  9 31  2  0
 29 10  2  0
 10 30  1  0
 31 11  1  0
 30 11  2  0
 11 32  1  0
 30 12  1  0
 14 13  1  0
 14 38  1  0
 36 15  1  0
 16 19  1  0
 18 17  2  0
 17 20  1  0
 17 39  1  0
 19 20  1  0
 19 22  1  0
 22 21  2  0
 23 22  1  0
 24 26  1  0
 28 26  1  0
 26 27  2  0
 33 32  1  0
 32 34  1  0
 32 35  1  0
 38 36  1  0
 37 40  1  0
 37 38  1  0
 40 41  1  0
  6 42  1  0
  7 43  1  0
  8 44  1  0
 10 45  1  0
 12 46  1  0
 12 47  1  0
 13 48  1  0
 13 49  1  0
 14 50  1  0
 14 51  1  0
 15 52  1  0
 15 53  1  0
 16 54  1  0
 16 55  1  0
 16 56  1  0
 21 57  1  0
 25 58  1  0
 25 59  1  0
 25 60  1  0
 28 61  1  0
 29 62  1  0
 31 63  1  0
 36 64  1  0
 36 65  1  0
 37 66  1  0
 37 67  1  0
 39 68  1  0
 39 69  1  0
 40 70  1  0
 40 71  1  0
 41 72  1  0
A    1
N1
A    2
N3
A    3
C4
A    4
C5
A    5
C6
A    6
C7
A    7
C8
A    8
C10
A    9
C13
A   10
C15
A   11
C17
A   12
C20
A   13
C21
A   14
C22
A   15
C24
A   16
C26
A   17
C81
A   18
O2
A   19
N82
A   20
C84
A   21
C1
A   22
C2
A   23
C3
A   24
C9
A   25
C11
A   26
C12
A   27
O1
A   28
N2
A   29
C14
A   30
C16
A   31
C18
A   32
C19
A   33
F1
A   34
F2
A   35
F3
A   36
C23
A   37
C25
A   38
N4
A   39
N5
A   40
C27
A   41
O3
M  END
