3OYF_ZYP_A_398
     RDKit          3D

 49 52  0  0  0  0  0  0  0  0999 V2000
  -35.6450   34.0750  -18.4250 O   0  0  0  0  0  0  0  0  0  0  0  0
  -39.8160   29.3730  -21.7540 O   0  0  0  0  0  0  0  0  0  0  0  0
  -39.3490   31.0550  -23.4630 O   0  0  0  0  0  0  0  0  0  0  0  0
  -35.9320   32.0170  -17.4160 O   0  0  0  0  0  0  0  0  0  0  0  0
  -41.0940   38.6730  -20.3600 F   0  0  0  0  0  0  0  0  0  0  0  0
  -36.7290   27.3950  -18.9880 C   0  0  0  0  0  0  0  0  0  0  0  0
  -36.3530   27.9990  -17.7740 C   0  0  0  0  0  0  0  0  0  0  0  0
  -39.1710   37.4940  -19.5520 C   0  0  0  0  0  0  0  0  0  0  0  0
  -39.9110   37.3610  -21.8490 C   0  0  0  0  0  0  0  0  0  0  0  0
  -38.1260   36.6210  -19.8740 C   0  0  0  0  0  0  0  0  0  0  0  0
  -38.8820   36.5010  -22.1590 C   0  0  0  0  0  0  0  0  0  0  0  0
  -36.9700   28.2220  -20.1080 C   0  0  0  0  0  0  0  0  0  0  0  0
  -36.7460   29.7440  -24.6250 C   0  0  0  0  0  0  0  0  0  0  0  0
  -37.7070   28.6250  -25.0740 C   0  0  0  0  0  0  0  0  0  0  0  0
  -36.2800   29.5760  -23.1880 C   0  0  0  0  0  0  0  0  0  0  0  0
  -36.9170   35.1080  -21.6010 C   0  0  0  0  0  0  0  0  0  0  0  0
  -38.9390   28.5180  -24.1520 C   0  0  0  0  0  0  0  0  0  0  0  0
  -36.2100   29.3330  -17.6760 N   0  0  0  0  0  0  0  0  0  0  0  0
  -36.8950   31.8550  -20.9250 N   0  0  0  0  0  0  0  0  0  0  0  0
  -36.2640   34.8160  -20.3710 N   0  0  0  0  0  0  0  0  0  0  0  0
  -36.2720   33.8480  -19.4690 C   0  0  0  0  0  0  0  0  0  0  0  0
  -40.0630   37.8400  -20.5620 C   0  0  0  0  0  0  0  0  0  0  0  0
  -37.9850   36.1200  -21.1860 C   0  0  0  0  0  0  0  0  0  0  0  0
  -36.2950   31.5130  -18.6430 C   0  0  0  0  0  0  0  0  0  0  0  0
  -36.5300   32.3710  -19.7510 C   0  0  0  0  0  0  0  0  0  0  0  0
  -37.0610   30.4980  -21.0480 C   0  0  0  0  0  0  0  0  0  0  0  0
  -36.8240   29.6170  -19.9880 C   0  0  0  0  0  0  0  0  0  0  0  0
  -36.4420   30.1390  -18.7510 C   0  0  0  0  0  0  0  0  0  0  0  0
  -37.3960   29.9590  -22.2940 N   0  0  0  0  0  0  0  0  0  0  0  0
  -38.9030   29.7840  -22.8410 S   0  0  0  0  0  0  0  0  0  0  0  0
  -36.2484   31.5777  -16.5871 H   0  0  0  0  0  0  0  0  0  0  0  0
  -36.8331   26.3025  -19.0635 H   0  0  0  0  0  0  0  0  0  0  0  0
  -36.1729   27.3696  -16.8900 H   0  0  0  0  0  0  0  0  0  0  0  0
  -39.2836   37.8937  -18.5334 H   0  0  0  0  0  0  0  0  0  0  0  0
  -40.6185   37.6696  -22.6327 H   0  0  0  0  0  0  0  0  0  0  0  0
  -37.4072   36.3221  -19.0969 H   0  0  0  0  0  0  0  0  0  0  0  0
  -38.7761   36.1178  -23.1846 H   0  0  0  0  0  0  0  0  0  0  0  0
  -37.2701   27.7781  -21.0687 H   0  0  0  0  0  0  0  0  0  0  0  0
  -35.8651   29.7365  -25.2837 H   0  0  0  0  0  0  0  0  0  0  0  0
  -37.2929   30.6963  -24.6876 H   0  0  0  0  0  0  0  0  0  0  0  0
  -38.0471   28.8385  -26.0981 H   0  0  0  0  0  0  0  0  0  0  0  0
  -37.1629   27.6702  -25.0268 H   0  0  0  0  0  0  0  0  0  0  0  0
  -36.0004   28.5276  -23.0070 H   0  0  0  0  0  0  0  0  0  0  0  0
  -35.4028   30.2112  -22.9955 H   0  0  0  0  0  0  0  0  0  0  0  0
  -36.2166   35.5465  -22.3270 H   0  0  0  0  0  0  0  0  0  0  0  0
  -37.3305   34.2172  -22.0966 H   0  0  0  0  0  0  0  0  0  0  0  0
  -39.8494   28.6530  -24.7545 H   0  0  0  0  0  0  0  0  0  0  0  0
  -38.9288   27.5267  -23.6754 H   0  0  0  0  0  0  0  0  0  0  0  0
  -35.6041   35.5631  -20.1116 H   0  0  0  0  0  0  0  0  0  0  0  0
  1 21  2  0
  2 30  2  0
  3 30  2  0
  4 24  1  0
  5 22  1  0
  6  7  2  0
  6 12  1  0
  7 18  1  0
  8 10  2  0
  8 22  1  0
  9 11  1  0
  9 22  2  0
 10 23  1  0
 11 23  2  0
 12 27  2  0
 13 14  1  0
 13 15  1  0
 14 17  1  0
 15 29  1  0
 16 20  1  0
 16 23  1  0
 17 30  1  0
 18 28  2  0
 19 25  1  0
 19 26  2  0
 20 21  1  0
 21 25  1  0
 24 25  2  0
 24 28  1  0
 26 27  1  0
 26 29  1  0
 27 28  1  0
 29 30  1  0
  4 31  1  0
  6 32  1  0
  7 33  1  0
  8 34  1  0
  9 35  1  0
 10 36  1  0
 11 37  1  0
 12 38  1  0
 13 39  1  0
 13 40  1  0
 14 41  1  0
 14 42  1  0
 15 43  1  0
 15 44  1  0
 16 45  1  0
 16 46  1  0
 17 47  1  0
 17 48  1  0
 20 49  1  0
A    1
OAA
A    2
OAB
A    3
OAC
A    4
OAD
A    5
FAE
A    6
CAF
A    7
CAG
A    8
CAH
A    9
CAI
A   10
CAJ
A   11
CAK
A   12
CAL
A   13
CAM
A   14
CAN
A   15
CAO
A   16
CAP
A   17
CAQ
A   18
NAR
A   19
NAS
A   20
NAT
A   21
CAU
A   22
CAV
A   23
CAW
A   24
CAX
A   25
CAY
A   26
CAZ
A   27
CBA
A   28
CBB
A   29
NBC
A   30
SBD
M  END
