3OZ1_BMB_A_600
     RDKit          3D

 92 96  0  0  0  0  0  0  0  0999 V2000
  -16.8850  -30.0740   -9.4590 C   0  0  0  0  0  0  0  0  0  0  0  0
  -14.7320  -29.0990   -9.9240 N   0  0  0  0  0  0  0  0  0  0  0  0
  -17.0450  -29.8990   -8.2450 O   0  0  0  0  0  0  0  0  0  0  0  0
  -15.5080  -30.3450  -10.0310 C   0  0  0  0  0  0  0  0  0  0  0  0
  -14.8390  -31.5230   -9.2880 C   0  0  0  0  0  0  0  0  0  0  0  0
  -15.7880  -32.7150   -9.1350 C   0  0  0  0  0  0  0  0  0  0  0  0
  -14.3400  -28.7890   -8.5300 C   0  0  0  0  0  0  0  0  0  0  0  0
  -22.6810  -31.8650  -11.5930 O   0  0  0  0  0  0  0  0  0  0  0  0
  -19.5850  -32.1690  -10.5790 O   0  0  0  0  0  0  0  0  0  0  0  0
  -14.7170  -23.7300   -8.5040 C   0  0  0  0  0  0  0  0  0  0  0  0
  -22.4880  -38.3340  -13.6650 C   0  0  0  0  0  0  0  0  0  0  0  0
  -27.7380  -33.1430  -12.3770 C   0  0  0  0  0  0  0  0  0  0  0  0
  -14.4090  -23.3610   -9.8170 C   0  0  0  0  0  0  0  0  0  0  0  0
  -15.7670  -24.6210   -8.2620 C   0  0  0  0  0  0  0  0  0  0  0  0
  -21.5240  -37.3920  -13.3160 C   0  0  0  0  0  0  0  0  0  0  0  0
  -23.8290  -37.9940  -13.6010 C   0  0  0  0  0  0  0  0  0  0  0  0
  -26.7730  -32.3650  -13.0240 C   0  0  0  0  0  0  0  0  0  0  0  0
  -27.3740  -34.3230  -11.7170 C   0  0  0  0  0  0  0  0  0  0  0  0
  -15.1710  -23.8670  -10.8760 C   0  0  0  0  0  0  0  0  0  0  0  0
  -16.5200  -25.1320   -9.3260 C   0  0  0  0  0  0  0  0  0  0  0  0
  -21.9080  -36.1200  -12.9070 C   0  0  0  0  0  0  0  0  0  0  0  0
  -24.2130  -36.7240  -13.1760 C   0  0  0  0  0  0  0  0  0  0  0  0
  -25.4500  -32.8020  -13.0230 C   0  0  0  0  0  0  0  0  0  0  0  0
  -26.0390  -34.7380  -11.6870 C   0  0  0  0  0  0  0  0  0  0  0  0
  -18.8630  -26.8580  -12.0260 C   0  0  0  0  0  0  0  0  0  0  0  0
  -19.3140  -28.3260  -11.9950 C   0  0  0  0  0  0  0  0  0  0  0  0
  -21.4690  -28.8680  -10.6950 C   0  0  0  0  0  0  0  0  0  0  0  0
  -22.1110  -28.9470   -9.2950 C   0  0  0  0  0  0  0  0  0  0  0  0
  -23.3620  -30.9290   -8.4770 C   0  0  0  0  0  0  0  0  0  0  0  0
  -23.0600  -32.4200   -8.3580 C   0  0  0  0  0  0  0  0  0  0  0  0
  -17.0260  -25.3160  -11.8390 C   0  0  0  0  0  0  0  0  0  0  0  0
  -17.4410  -26.7240  -11.6580 N   0  0  0  0  0  0  0  0  0  0  0  0
  -17.8630  -30.0840  -10.3510 N   0  0  0  0  0  0  0  0  0  0  0  0
  -23.0110  -34.0360  -11.0570 N   0  0  0  0  0  0  0  0  0  0  0  0
  -22.6040  -32.7950  -10.7910 C   0  0  0  0  0  0  0  0  0  0  0  0
  -20.0500  -31.1930   -9.9770 C   0  0  0  0  0  0  0  0  0  0  0  0
  -16.2080  -24.7770  -10.6440 C   0  0  0  0  0  0  0  0  0  0  0  0
  -23.2540  -35.7850  -12.8170 C   0  0  0  0  0  0  0  0  0  0  0  0
  -25.0850  -33.9880  -12.3720 C   0  0  0  0  0  0  0  0  0  0  0  0
  -19.9380  -28.6880  -10.6190 C   0  0  0  0  0  0  0  0  0  0  0  0
  -21.9790  -30.3160   -8.5970 C   0  0  0  0  0  0  0  0  0  0  0  0
  -21.9760  -32.6000   -9.4130 C   0  0  0  0  0  0  0  0  0  0  0  0
  -19.2520  -29.8770   -9.9210 C   0  0  0  0  0  0  0  0  0  0  0  0
  -23.6090  -34.3670  -12.3590 C   0  0  0  0  0  0  0  0  0  0  0  0
  -21.2340  -31.3260   -9.3810 N   0  0  0  0  0  0  0  0  0  0  0  0
  -13.8788  -29.1920  -10.4935 H   0  0  0  0  0  0  0  0  0  0  0  0
  -15.5666  -30.6436  -11.0881 H   0  0  0  0  0  0  0  0  0  0  0  0
  -13.9532  -31.8443   -9.8556 H   0  0  0  0  0  0  0  0  0  0  0  0
  -14.5613  -31.1772   -8.2814 H   0  0  0  0  0  0  0  0  0  0  0  0
  -15.9507  -32.9194   -8.0665 H   0  0  0  0  0  0  0  0  0  0  0  0
  -16.7502  -32.4815   -9.6143 H   0  0  0  0  0  0  0  0  0  0  0  0
  -15.3449  -33.6004   -9.6143 H   0  0  0  0  0  0  0  0  0  0  0  0
  -15.0087  -29.3178   -7.8349 H   0  0  0  0  0  0  0  0  0  0  0  0
  -13.3030  -29.1139   -8.3598 H   0  0  0  0  0  0  0  0  0  0  0  0
  -14.4172  -27.7050   -8.3598 H   0  0  0  0  0  0  0  0  0  0  0  0
  -14.1355  -23.3209   -7.6647 H   0  0  0  0  0  0  0  0  0  0  0  0
  -22.1867  -39.3410  -13.9892 H   0  0  0  0  0  0  0  0  0  0  0  0
  -28.7912  -32.8256  -12.3866 H   0  0  0  0  0  0  0  0  0  0  0  0
  -13.5716  -22.6762  -10.0166 H   0  0  0  0  0  0  0  0  0  0  0  0
  -16.0026  -24.9220   -7.2306 H   0  0  0  0  0  0  0  0  0  0  0  0
  -20.4569  -37.6546  -13.3640 H   0  0  0  0  0  0  0  0  0  0  0  0
  -24.5946  -38.7302  -13.8871 H   0  0  0  0  0  0  0  0  0  0  0  0
  -27.0529  -31.4261  -13.5241 H   0  0  0  0  0  0  0  0  0  0  0  0
  -28.1447  -34.9287  -11.2179 H   0  0  0  0  0  0  0  0  0  0  0  0
  -14.9517  -23.5449  -11.9047 H   0  0  0  0  0  0  0  0  0  0  0  0
  -17.3592  -25.8144   -9.1259 H   0  0  0  0  0  0  0  0  0  0  0  0
  -21.1412  -35.3734  -12.6528 H   0  0  0  0  0  0  0  0  0  0  0  0
  -25.2805  -36.4635  -13.1244 H   0  0  0  0  0  0  0  0  0  0  0  0
  -24.6819  -32.2082  -13.5401 H   0  0  0  0  0  0  0  0  0  0  0  0
  -25.7467  -35.6415  -11.1319 H   0  0  0  0  0  0  0  0  0  0  0  0
  -19.0090  -26.4601  -13.0411 H   0  0  0  0  0  0  0  0  0  0  0  0
  -19.4639  -26.2957  -11.2961 H   0  0  0  0  0  0  0  0  0  0  0  0
  -20.0633  -28.4888  -12.7837 H   0  0  0  0  0  0  0  0  0  0  0  0
  -18.4349  -28.9662  -12.1604 H   0  0  0  0  0  0  0  0  0  0  0  0
  -21.6908  -29.7971  -11.2405 H   0  0  0  0  0  0  0  0  0  0  0  0
  -21.8890  -27.9930  -11.2128 H   0  0  0  0  0  0  0  0  0  0  0  0
  -21.6323  -28.1901   -8.6563 H   0  0  0  0  0  0  0  0  0  0  0  0
  -23.1881  -28.7765   -9.4392 H   0  0  0  0  0  0  0  0  0  0  0  0
  -23.9684  -30.7173   -9.3700 H   0  0  0  0  0  0  0  0  0  0  0  0
  -23.9427  -30.5328   -7.6310 H   0  0  0  0  0  0  0  0  0  0  0  0
  -22.6892  -32.6753   -7.3543 H   0  0  0  0  0  0  0  0  0  0  0  0
  -23.9377  -33.0667   -8.5044 H   0  0  0  0  0  0  0  0  0  0  0  0
  -16.4102  -25.2447  -12.7477 H   0  0  0  0  0  0  0  0  0  0  0  0
  -17.9393  -24.7080  -11.9177 H   0  0  0  0  0  0  0  0  0  0  0  0
  -17.3120  -26.9980  -10.6735 H   0  0  0  0  0  0  0  0  0  0  0  0
  -17.6498  -30.2370  -11.3470 H   0  0  0  0  0  0  0  0  0  0  0  0
  -22.9055  -34.7709  -10.3431 H   0  0  0  0  0  0  0  0  0  0  0  0
  -19.7452  -27.8152   -9.9779 H   0  0  0  0  0  0  0  0  0  0  0  0
  -21.4612  -30.1073   -7.6492 H   0  0  0  0  0  0  0  0  0  0  0  0
  -21.3401  -33.4766   -9.2199 H   0  0  0  0  0  0  0  0  0  0  0  0
  -19.2278  -29.5751   -8.8635 H   0  0  0  0  0  0  0  0  0  0  0  0
  -23.1576  -33.7491  -13.1492 H   0  0  0  0  0  0  0  0  0  0  0  0
  1  3  2  0
  1  4  1  0
  1 33  1  0
  2  4  1  0
  2  7  1  0
  4  5  1  0
  5  6  1  0
  8 35  2  0
  9 36  2  0
 10 13  2  0
 10 14  1  0
 11 15  2  0
 11 16  1  0
 12 17  2  0
 12 18  1  0
 13 19  1  0
 14 20  2  0
 15 21  1  0
 16 22  2  0
 17 23  1  0
 18 24  2  0
 19 37  2  0
 20 37  1  0
 21 38  2  0
 22 38  1  0
 23 39  2  0
 24 39  1  0
 25 26  1  0
 25 32  1  0
 26 40  1  0
 27 28  1  0
 27 40  1  0
 28 41  1  0
 29 30  1  0
 29 41  1  0
 30 42  1  0
 31 32  1  0
 31 37  1  0
 33 43  1  0
 34 35  1  0
 34 44  1  0
 35 42  1  0
 36 43  1  0
 36 45  1  0
 38 44  1  0
 39 44  1  0
 40 43  1  0
 41 45  1  0
 42 45  1  0
  2 46  1  0
  4 47  1  0
  5 48  1  0
  5 49  1  0
  6 50  1  0
  6 51  1  0
  6 52  1  0
  7 53  1  0
  7 54  1  0
  7 55  1  0
 10 56  1  0
 11 57  1  0
 12 58  1  0
 13 59  1  0
 14 60  1  0
 15 61  1  0
 16 62  1  0
 17 63  1  0
 18 64  1  0
 19 65  1  0
 20 66  1  0
 21 67  1  0
 22 68  1  0
 23 69  1  0
 24 70  1  0
 25 71  1  0
 25 72  1  0
 26 73  1  0
 26 74  1  0
 27 75  1  0
 27 76  1  0
 28 77  1  0
 28 78  1  0
 29 79  1  0
 29 80  1  0
 30 81  1  0
 30 82  1  0
 31 83  1  0
 31 84  1  0
 32 85  1  0
 33 86  1  0
 34 87  1  0
 40 88  1  0
 41 89  1  0
 42 90  1  0
 43 91  1  0
 44 92  1  0
A    1
C
A    2
N
A    3
O
A    4
CA
A    5
CB
A    6
CAA
A    7
CAB
A    8
OAD
A    9
OAE
A   10
CAF
A   11
CAG
A   12
CAH
A   13
CAI
A   14
CAJ
A   15
CAK
A   16
CAL
A   17
CAM
A   18
CAN
A   19
CAO
A   20
CAP
A   21
CAQ
A   22
CAR
A   23
CAS
A   24
CAT
A   25
CAV
A   26
CAW
A   27
CAX
A   28
CAY
A   29
CAZ
A   30
CBA
A   31
CBB
A   32
NBD
A   33
NBE
A   34
NBF
A   35
CBH
A   36
CBI
A   37
CBJ
A   38
CBK
A   39
CBL
A   40
CBM
A   41
CBO
A   42
CBP
A   43
CBQ
A   44
CBR
A   45
NBS
M  END
