3OZR_OZR_A_224
     RDKit          3D

 40 41  0  0  0  0  0  0  0  0999 V2000
  -20.1710   30.3130   13.4170 C   0  0  0  0  0  0  0  0  0  0  0  0
  -21.0150   31.1480   14.4280 C   0  0  0  0  0  0  0  0  0  0  0  0
  -21.8940   31.9600   13.4600 C   0  0  0  0  0  0  0  0  0  0  0  0
  -21.0800   32.2130   12.2910 O   0  0  0  0  0  0  0  0  0  0  0  0
  -19.8870   31.3840   12.3220 C   0  0  0  0  0  0  0  0  0  0  0  0
  -19.6090   30.7010   11.0200 C   0  0  0  0  0  0  0  0  0  0  0  0
  -18.9300   29.7130   13.8080 O   0  0  0  0  0  0  0  0  0  0  0  0
  -20.1550   32.0210   15.1370 O   0  0  0  0  0  0  0  0  0  0  0  0
  -20.5300   30.5300   10.0710 C   0  0  0  0  0  0  0  0  0  0  0  0
  -20.2220   29.8380    8.7920 C   0  0  0  0  0  0  0  0  0  0  0  0
  -21.3330   29.0860    8.2730 N   0  0  0  0  0  0  0  0  0  0  0  0
  -22.1520   29.6430    7.3490 C   0  0  0  0  0  0  0  0  0  0  0  0
  -23.2590   28.8550    6.7400 C   0  0  0  0  0  0  0  0  0  0  0  0
  -23.3120   27.4510    6.9250 C   0  0  0  0  0  0  0  0  0  0  0  0
  -24.3720   26.7350    6.3650 C   0  0  0  0  0  0  0  0  0  0  0  0
  -25.3630   27.3590    5.6000 C   0  0  0  0  0  0  0  0  0  0  0  0
  -25.2830   28.7600    5.4370 C   0  0  0  0  0  0  0  0  0  0  0  0
  -24.2620   29.4990    6.0050 C   0  0  0  0  0  0  0  0  0  0  0  0
  -26.2750   29.5410    4.6820 N   0  0  0  0  0  0  0  0  0  0  0  0
  -22.3800   26.7390    7.6040 O   0  0  0  0  0  0  0  0  0  0  0  0
  -24.4630   25.3680    6.5000 O   0  0  0  0  0  0  0  0  0  0  0  0
  -22.0050   30.8400    7.0220 O   0  0  0  0  0  0  0  0  0  0  0  0
  -27.1140   29.0050    3.9920 O   0  0  0  0  0  0  0  0  0  0  0  0
  -26.1780   30.7300    4.8010 O   0  0  0  0  0  0  0  0  0  0  0  0
  -20.7429   29.4062   13.1708 H   0  0  0  0  0  0  0  0  0  0  0  0
  -21.5707   30.5623   15.1751 H   0  0  0  0  0  0  0  0  0  0  0  0
  -22.7895   31.3840   13.1837 H   0  0  0  0  0  0  0  0  0  0  0  0
  -22.2363   32.8984   13.9207 H   0  0  0  0  0  0  0  0  0  0  0  0
  -19.0021   32.0047   12.5261 H   0  0  0  0  0  0  0  0  0  0  0  0
  -18.5933   30.3207   10.8364 H   0  0  0  0  0  0  0  0  0  0  0  0
  -18.8735   29.6857   14.7960 H   0  0  0  0  0  0  0  0  0  0  0  0
  -20.2826   31.8915   16.1102 H   0  0  0  0  0  0  0  0  0  0  0  0
  -21.5476   30.9123   10.2396 H   0  0  0  0  0  0  0  0  0  0  0  0
  -19.9324   30.5934    8.0467 H   0  0  0  0  0  0  0  0  0  0  0  0
  -19.4097   29.1242    8.9938 H   0  0  0  0  0  0  0  0  0  0  0  0
  -21.5054   28.1258    8.6034 H   0  0  0  0  0  0  0  0  0  0  0  0
  -26.1769   26.7786    5.1410 H   0  0  0  0  0  0  0  0  0  0  0  0
  -24.2375   30.5916    5.8797 H   0  0  0  0  0  0  0  0  0  0  0  0
  -22.3809   26.7397    8.5940 H   0  0  0  0  0  0  0  0  0  0  0  0
  -24.4901   24.9604    7.4018 H   0  0  0  0  0  0  0  0  0  0  0  0
  1  2  1  0
  1  5  1  0
  1  7  1  0
  2  3  1  0
  2  8  1  0
  3  4  1  0
  4  5  1  0
  5  6  1  0
  6  9  2  0
  9 10  1  0
 10 11  1  0
 11 12  1  0
 12 13  1  0
 12 22  2  0
 13 14  2  0
 13 18  1  0
 14 15  1  0
 14 20  1  0
 15 16  2  0
 15 21  1  0
 16 17  1  0
 17 18  2  0
 17 19  1  0
 19 23  2  0
 19 24  1  0
  1 25  1  0
  2 26  1  0
  3 27  1  0
  3 28  1  0
  5 29  1  0
  6 30  1  0
  7 31  1  0
  8 32  1  0
  9 33  1  0
 10 34  1  0
 10 35  1  0
 11 36  1  0
 16 37  1  0
 18 38  1  0
 20 39  1  0
 21 40  1  0
M  CHG  2  19   1  24  -1
A    1
C1
A    2
C2
A    3
C3
A    4
O4
A    5
C5
A    6
C6
A    7
O7
A    8
O8
A    9
C9
A   10
C10
A   11
N11
A   12
C12
A   13
C13
A   14
C14
A   15
C15
A   16
C16
A   17
C17
A   18
C18
A   19
N19
A   20
O20
A   21
O21
A   22
O22
A   23
O23
A   24
O24
M  END
