3OZU_X89_A_411
     RDKit          3D

 39 41  0  0  0  0  0  0  0  0999 V2000
   10.1250   28.2070    7.2600 O   0  0  0  0  0  0  0  0  0  0  0  0
   10.9040   26.2790    5.9990 C   0  0  0  0  0  0  0  0  0  0  0  0
   11.9220   26.8230    4.9880 N   0  0  0  0  0  0  0  0  0  0  0  0
   11.7000   27.8370    4.1250 C   0  0  0  0  0  0  0  0  0  0  0  0
   12.8020   28.1050    3.3770 N   0  0  0  0  0  0  0  0  0  0  0  0
   13.7630   27.1800    3.8430 C   0  0  0  0  0  0  0  0  0  0  0  0
   13.2350   26.4010    4.8180 C   0  0  0  0  0  0  0  0  0  0  0  0
   12.5250   25.0120    8.7290 Cl  0  0  0  0  0  0  0  0  0  0  0  0
    8.6250   29.3470   11.2050 Cl  0  0  0  0  0  0  0  0  0  0  0  0
   16.5440   28.6420    8.8750 Cl  0  0  0  0  0  0  0  0  0  0  0  0
    5.5190   32.8790    8.4370 Cl  0  0  0  0  0  0  0  0  0  0  0  0
   12.2920   27.4960    7.7190 C   0  0  0  0  0  0  0  0  0  0  0  0
    8.8220   29.7970    8.4670 C   0  0  0  0  0  0  0  0  0  0  0  0
   13.1270   26.6150    8.3690 C   0  0  0  0  0  0  0  0  0  0  0  0
    8.1900   30.1440    9.6360 C   0  0  0  0  0  0  0  0  0  0  0  0
   14.4200   26.9260    8.7470 C   0  0  0  0  0  0  0  0  0  0  0  0
    7.1740   31.0950    9.5860 C   0  0  0  0  0  0  0  0  0  0  0  0
   14.8560   28.2030    8.4330 C   0  0  0  0  0  0  0  0  0  0  0  0
    6.8190   31.6820    8.3720 C   0  0  0  0  0  0  0  0  0  0  0  0
   14.0200   29.1060    7.7660 C   0  0  0  0  0  0  0  0  0  0  0  0
    7.4350   31.3410    7.1980 C   0  0  0  0  0  0  0  0  0  0  0  0
   12.7320   28.7540    7.4110 C   0  0  0  0  0  0  0  0  0  0  0  0
    8.4310   30.3670    7.2400 C   0  0  0  0  0  0  0  0  0  0  0  0
   10.9050   27.0430    7.3440 C   0  0  0  0  0  0  0  0  0  0  0  0
    9.8980   28.7430    8.5430 C   0  0  0  0  0  0  0  0  0  0  0  0
    9.8996   26.3532    5.5567 H   0  0  0  0  0  0  0  0  0  0  0  0
   11.1869   25.2385    6.2166 H   0  0  0  0  0  0  0  0  0  0  0  0
   10.7464   28.3784    4.0383 H   0  0  0  0  0  0  0  0  0  0  0  0
   14.7940   27.1031    3.4674 H   0  0  0  0  0  0  0  0  0  0  0  0
   13.7445   25.5948    5.3660 H   0  0  0  0  0  0  0  0  0  0  0  0
   15.0648   26.2020    9.2666 H   0  0  0  0  0  0  0  0  0  0  0  0
    6.6491   31.3845   10.5083 H   0  0  0  0  0  0  0  0  0  0  0  0
   14.3941   30.1110    7.5208 H   0  0  0  0  0  0  0  0  0  0  0  0
    7.1523   31.8214    6.2497 H   0  0  0  0  0  0  0  0  0  0  0  0
   12.0757   29.4687    6.8928 H   0  0  0  0  0  0  0  0  0  0  0  0
    8.9154   30.0410    6.3077 H   0  0  0  0  0  0  0  0  0  0  0  0
   10.5043   26.3435    8.0924 H   0  0  0  0  0  0  0  0  0  0  0  0
    9.5772   27.9406    9.2236 H   0  0  0  0  0  0  0  0  0  0  0  0
   10.8271   29.1955    8.9198 H   0  0  0  0  0  0  0  0  0  0  0  0
  1 24  1  0
  1 25  1  0
  3  2  1  0
  2 24  1  0
  4  3  1  0
  7  3  1  0
  5  4  2  0
  5  6  1  0
  6  7  2  0
 14  8  1  0
 15  9  1  0
 18 10  1  0
 19 11  1  0
 24 12  1  0
 22 12  1  0
 12 14  2  0
 23 13  1  0
 13 25  1  0
 13 15  2  0
 14 16  1  0
 17 15  1  0
 18 16  2  0
 19 17  2  0
 20 18  1  0
 21 19  1  0
 22 20  2  0
 21 23  2  0
  2 26  1  0
  2 27  1  0
  4 28  1  0
  6 29  1  0
  7 30  1  0
 16 31  1  0
 17 32  1  0
 20 33  1  0
 21 34  1  0
 22 35  1  0
 23 36  1  0
 24 37  1  0
 25 38  1  0
 25 39  1  0
A    1
O
A    2
C1
A    3
N1
A    4
C2
A    5
N3
A    6
C4
A    7
C5
A    8
CL2A
A    9
CL2B
A   10
CL4A
A   11
CL4B
A   12
C1A
A   13
C1B
A   14
C2A
A   15
C2B
A   16
C3A
A   17
C3B
A   18
C4A
A   19
C4B
A   20
C5A
A   21
C5B
A   22
C6A
A   23
C6B
A   24
CBA
A   25
CBB
M  END
