2GXY_4SB_?_25
     RDKit          3D

 15 13  0  0  0  0  0  0  0  0999 V2000
   18.4980   28.3180   35.5880 C   0  0  0  0  0  0  0  0  0  0  0  0
   19.8300   28.7050   33.9900 C   0  0  0  0  0  0  0  0  0  0  0  0
   20.5490   29.5050   32.9400 C   0  0  0  0  0  0  0  0  0  0  0  0
   21.1890   28.5960   31.8620 C   0  0  0  0  0  0  0  0  0  0  0  0
   21.7480   29.3940   30.7130 C   0  0  0  0  0  0  0  0  0  0  0  0
   18.4980   28.3180   36.6880 H   0  0  0  0  0  0  0  0  0  0  0  0
   18.4980   29.3551   35.2213 H   0  0  0  0  0  0  0  0  0  0  0  0
   19.3961   27.7995   35.2213 H   0  0  0  0  0  0  0  0  0  0  0  0
   17.5999   27.7995   35.2213 H   0  0  0  0  0  0  0  0  0  0  0  0
   19.3252   29.2175   34.8222 H   0  0  0  0  0  0  0  0  0  0  0  0
   19.8086   27.6071   33.9262 H   0  0  0  0  0  0  0  0  0  0  0  0
   20.6128   30.6031   32.9377 H   0  0  0  0  0  0  0  0  0  0  0  0
   21.2305   27.4987   31.9274 H   0  0  0  0  0  0  0  0  0  0  0  0
   22.2342   28.8795   29.8711 H   0  0  0  0  0  0  0  0  0  0  0  0
   21.6699   30.4912   30.7159 H   0  0  0  0  0  0  0  0  0  0  0  0
  2  3  2  3
  3  4  1  0
  5  4  2  3
  1  6  1  0
  1  7  1  0
  1  8  1  0
  1  9  1  0
  2 10  1  0
  2 11  1  0
  3 12  1  0
  4 13  1  0
  5 14  1  0
  5 15  1  0
A    1
C10
A    2
C12
A    3
C13
A    4
C14
A    5
C15
M  END
