3P0Q_NNL_A_1163
     RDKit          3D

 34 36  0  0  0  0  0  0  0  0999 V2000
   -4.3070  -14.8390  -13.2260 C   0  0  0  0  0  0  0  0  0  0  0  0
   -6.6870  -11.4240   -3.5590 Cl  0  0  0  0  0  0  0  0  0  0  0  0
   -6.0590  -10.2630   -5.9930 C   0  0  0  0  0  0  0  0  0  0  0  0
   -8.1110  -11.5620   -5.8950 C   0  0  0  0  0  0  0  0  0  0  0  0
   -6.2850   -9.9910   -7.3700 C   0  0  0  0  0  0  0  0  0  0  0  0
   -8.3190  -11.3030   -7.2480 C   0  0  0  0  0  0  0  0  0  0  0  0
   -6.9410  -11.9980  -16.1320 C   0  0  0  0  0  0  0  0  0  0  0  0
   -5.7970  -12.8980  -12.4190 C   0  0  0  0  0  0  0  0  0  0  0  0
   -6.8710  -11.2100  -10.3520 C   0  0  0  0  0  0  0  0  0  0  0  0
   -7.7460  -10.2660   -9.4940 C   0  0  0  0  0  0  0  0  0  0  0  0
   -7.7620  -10.9750  -15.8560 N   0  0  0  0  0  0  0  0  0  0  0  0
   -7.8220  -10.7320  -14.6530 N   0  0  0  0  0  0  0  0  0  0  0  0
   -5.6730  -13.3580  -14.7100 N   0  0  0  0  0  0  0  0  0  0  0  0
   -7.2010  -11.0770  -11.7830 N   0  0  0  0  0  0  0  0  0  0  0  0
   -6.9620  -11.0480   -5.2630 C   0  0  0  0  0  0  0  0  0  0  0  0
   -5.2870  -13.6570  -13.4620 C   0  0  0  0  0  0  0  0  0  0  0  0
   -7.4230  -10.5060   -7.9980 C   0  0  0  0  0  0  0  0  0  0  0  0
   -6.6950  -11.8360  -12.7170 C   0  0  0  0  0  0  0  0  0  0  0  0
   -7.0370  -11.5930  -14.0340 C   0  0  0  0  0  0  0  0  0  0  0  0
   -6.4520  -12.4190  -15.0120 N   0  0  0  0  0  0  0  0  0  0  0  0
   -4.1763  -14.9967  -12.1452 H   0  0  0  0  0  0  0  0  0  0  0  0
   -4.7168  -15.7519  -13.6828 H   0  0  0  0  0  0  0  0  0  0  0  0
   -3.3340  -14.6054  -13.6828 H   0  0  0  0  0  0  0  0  0  0  0  0
   -5.1672   -9.8536   -5.4959 H   0  0  0  0  0  0  0  0  0  0  0  0
   -8.8367  -12.1618   -5.3261 H   0  0  0  0  0  0  0  0  0  0  0  0
   -5.5688   -9.3790   -7.9379 H   0  0  0  0  0  0  0  0  0  0  0  0
   -9.2026  -11.7292   -7.7457 H   0  0  0  0  0  0  0  0  0  0  0  0
   -6.7230  -12.4053  -17.1303 H   0  0  0  0  0  0  0  0  0  0  0  0
   -5.5117  -13.1138  -11.3788 H   0  0  0  0  0  0  0  0  0  0  0  0
   -5.8116  -10.9551  -10.2015 H   0  0  0  0  0  0  0  0  0  0  0  0
   -7.0643  -12.2474  -10.0416 H   0  0  0  0  0  0  0  0  0  0  0  0
   -7.5277   -9.2202   -9.7559 H   0  0  0  0  0  0  0  0  0  0  0  0
   -8.8104  -10.4691   -9.6832 H   0  0  0  0  0  0  0  0  0  0  0  0
   -7.8686  -10.3437  -12.0615 H   0  0  0  0  0  0  0  0  0  0  0  0
  1 16  1  0
  2 15  1  0
  3  5  2  0
  3 15  1  0
  4  6  1  0
  4 15  2  0
  5 17  1  0
  6 17  2  0
  7 11  2  0
  7 20  1  0
  8 16  1  0
  8 18  2  0
  9 10  1  0
  9 14  1  0
 10 17  1  0
 11 12  1  0
 12 19  2  0
 13 16  2  0
 13 20  1  0
 14 18  1  0
 18 19  1  0
 19 20  1  0
  1 21  1  0
  1 22  1  0
  1 23  1  0
  3 24  1  0
  4 25  1  0
  5 26  1  0
  6 27  1  0
  7 28  1  0
  8 29  1  0
  9 30  1  0
  9 31  1  0
 10 32  1  0
 10 33  1  0
 14 34  1  0
A    1
CAA
A    2
CL
A    3
CAC
A    4
CAD
A    5
CAE
A    6
CAF
A    7
CAG
A    8
CAH
A    9
CAI
A   10
CAJ
A   11
NAK
A   12
NAL
A   13
NAM
A   14
NAN
A   15
CAO
A   16
CAP
A   17
CAQ
A   18
CAR
A   19
CAS
A   20
NAT
M  END
