3P1F_3PF_A_1198
     RDKit          3D

 22 23  0  0  0  0  0  0  0  0999 V2000
   24.4120   15.1620   20.6810 C   0  0  0  0  0  0  0  0  0  0  0  0
   25.5580   15.7390   18.3010 O   0  0  0  0  0  0  0  0  0  0  0  0
   25.7920    9.6590   18.2240 C   0  0  0  0  0  0  0  0  0  0  0  0
   26.3020   10.1650   17.0520 C   0  0  0  0  0  0  0  0  0  0  0  0
   25.4750   10.4980   19.2930 C   0  0  0  0  0  0  0  0  0  0  0  0
   26.4860   11.5290   16.8710 C   0  0  0  0  0  0  0  0  0  0  0  0
   25.3250   12.7600   20.2750 C   0  0  0  0  0  0  0  0  0  0  0  0
   26.3450   13.7200   17.7750 N   0  0  0  0  0  0  0  0  0  0  0  0
   25.7190   14.5830   18.6450 C   0  0  0  0  0  0  0  0  0  0  0  0
   25.6890   11.8570   19.1090 C   0  0  0  0  0  0  0  0  0  0  0  0
   26.2440   12.3570   17.9490 C   0  0  0  0  0  0  0  0  0  0  0  0
   25.1590   14.1740   19.8550 N   0  0  0  0  0  0  0  0  0  0  0  0
   24.5750   14.9464   21.7473 H   0  0  0  0  0  0  0  0  0  0  0  0
   24.7709   16.1765   20.4530 H   0  0  0  0  0  0  0  0  0  0  0  0
   23.3381   15.0932   20.4530 H   0  0  0  0  0  0  0  0  0  0  0  0
   25.6312    8.5751   18.3207 H   0  0  0  0  0  0  0  0  0  0  0  0
   26.5703    9.4737   16.2395 H   0  0  0  0  0  0  0  0  0  0  0  0
   25.0743   10.1009   20.2373 H   0  0  0  0  0  0  0  0  0  0  0  0
   26.8131   11.9358   15.9028 H   0  0  0  0  0  0  0  0  0  0  0  0
   26.1241   12.7053   21.0290 H   0  0  0  0  0  0  0  0  0  0  0  0
   24.3650   12.4134   20.6853 H   0  0  0  0  0  0  0  0  0  0  0  0
   26.8931   14.0957   16.9880 H   0  0  0  0  0  0  0  0  0  0  0  0
  1 12  1  0
  9  2  2  0
  5  3  2  0
  3  4  1  0
  4  6  2  0
  5 10  1  0
 11  6  1  0
  7 12  1  0
  7 10  1  0
  9  8  1  0
 11  8  1  0
 12  9  1  0
 10 11  2  0
  1 13  1  0
  1 14  1  0
  1 15  1  0
  3 16  1  0
  4 17  1  0
  5 18  1  0
  6 19  1  0
  7 20  1  0
  7 21  1  0
  8 22  1  0
A    1
CAA
A    2
OAB
A    3
CAC
A    4
CAD
A    5
CAE
A    6
CAF
A    7
CAG
A    8
NAH
A    9
CAI
A   10
CAJ
A   11
CAK
A   12
NAL
M  END
