3P3R_3M1_A_128
     RDKit          3D

 28 29  0  0  0  0  0  0  0  0999 V2000
   -1.2280    1.4440   -8.0960 O   0  0  0  0  0  0  0  0  0  0  0  0
   -1.8900    1.6250   -2.6190 O   0  0  0  0  0  0  0  0  0  0  0  0
    1.7500   -1.6200   -3.8200 O   0  0  0  0  0  0  0  0  0  0  0  0
    0.0430    0.0010   -2.2860 O   0  0  0  0  0  0  0  0  0  0  0  0
   -2.5760    2.1570   -4.7620 O   0  0  0  0  0  0  0  0  0  0  0  0
    0.2550    1.0800  -10.3730 F   0  0  0  0  0  0  0  0  0  0  0  0
    0.4790   -2.5440  -10.6670 C   0  0  0  0  0  0  0  0  0  0  0  0
   -0.0420   -2.8650   -9.4430 C   0  0  0  0  0  0  0  0  0  0  0  0
    0.5520   -1.1990  -10.9790 C   0  0  0  0  0  0  0  0  0  0  0  0
   -0.3910   -1.9290   -8.4910 C   0  0  0  0  0  0  0  0  0  0  0  0
    0.7340   -0.7320   -5.8370 C   0  0  0  0  0  0  0  0  0  0  0  0
   -0.9750    0.8440   -5.6470 C   0  0  0  0  0  0  0  0  0  0  0  0
   -0.6120    0.4150   -7.7900 C   0  0  0  0  0  0  0  0  0  0  0  0
    0.8540   -0.8080   -4.4170 C   0  0  0  0  0  0  0  0  0  0  0  0
    0.1660   -0.2040  -10.0550 C   0  0  0  0  0  0  0  0  0  0  0  0
    0.0260   -0.0210   -3.6480 C   0  0  0  0  0  0  0  0  0  0  0  0
   -0.2190    0.1260   -6.3760 C   0  0  0  0  0  0  0  0  0  0  0  0
   -0.2700   -0.5900   -8.7930 C   0  0  0  0  0  0  0  0  0  0  0  0
   -0.8520    0.7840   -4.3220 C   0  0  0  0  0  0  0  0  0  0  0  0
   -1.7180    1.5600   -3.8730 N   0  0  0  0  0  0  0  0  0  0  0  0
    1.7976   -1.6632   -2.8321 H   0  0  0  0  0  0  0  0  0  0  0  0
   -0.4749   -0.6693   -1.7736 H   0  0  0  0  0  0  0  0  0  0  0  0
    0.8230   -3.3183  -11.3685 H   0  0  0  0  0  0  0  0  0  0  0  0
   -0.1909   -3.9285   -9.2047 H   0  0  0  0  0  0  0  0  0  0  0  0
    0.9196   -0.8971  -11.9708 H   0  0  0  0  0  0  0  0  0  0  0  0
   -0.7606   -2.2473   -7.5050 H   0  0  0  0  0  0  0  0  0  0  0  0
    1.3798   -1.3376   -6.4898 H   0  0  0  0  0  0  0  0  0  0  0  0
   -1.7226    1.5076   -6.1061 H   0  0  0  0  0  0  0  0  0  0  0  0
  1 13  2  0
  5 20  1  0
  6 15  1  0
  7  8  2  0
  8 10  1  0
  9  7  1  0
  9 15  2  0
 11 14  2  0
 12 19  1  0
 13 17  1  0
 14  3  1  0
 14 16  1  0
 15 18  1  0
 16  4  1  0
 17 11  1  0
 17 12  2  0
 18 10  2  0
 18 13  1  0
 19 16  2  0
 19 20  1  0
 20  2  2  0
  3 21  1  0
  4 22  1  0
  7 23  1  0
  8 24  1  0
  9 25  1  0
 10 26  1  0
 11 27  1  0
 12 28  1  0
M  CHG  2   5  -1  20   1
A    1
OAA
A    2
OAB
A    3
OAC
A    4
OAD
A    5
OAE
A    6
FAF
A    7
CAG
A    8
CAH
A    9
CAI
A   10
CAJ
A   11
CAK
A   12
CAL
A   13
CAM
A   14
CAN
A   15
CAO
A   16
CAP
A   17
CAQ
A   18
CAR
A   19
CAS
A   20
NAT
M  END
