3P6D_ZGB_A_133
     RDKit          3D

 28 28  0  0  0  0  0  0  0  0999 V2000
    3.6050    6.4410   22.3540 C   0  0  0  0  0  0  0  0  0  0  0  0
    6.0460    7.3660   23.6320 O   0  0  0  0  0  0  0  0  0  0  0  0
    4.7870    7.0210   21.5960 C   0  0  0  0  0  0  0  0  0  0  0  0
    5.6540    7.1420   15.2260 O   0  0  0  0  0  0  0  0  0  0  0  0
    4.6740    7.0280   20.2420 C   0  0  0  0  0  0  0  0  0  0  0  0
    6.0030    4.9810   15.3490 O   0  0  0  0  0  0  0  0  0  0  0  0
    5.9560    7.4460   22.3040 C   0  0  0  0  0  0  0  0  0  0  0  0
    7.3100    7.7620   24.1890 C   0  0  0  0  0  0  0  0  0  0  0  0
    6.9770    7.9530   21.4830 C   0  0  0  0  0  0  0  0  0  0  0  0
    6.9070    7.9640   20.0950 C   0  0  0  0  0  0  0  0  0  0  0  0
    5.7510    7.5420   19.5010 C   0  0  0  0  0  0  0  0  0  0  0  0
    5.6560    7.5570   18.0180 C   0  0  0  0  0  0  0  0  0  0  0  0
    6.4050    6.3500   17.3340 C   0  0  0  0  0  0  0  0  0  0  0  0
    6.0530    6.1340   15.8290 C   0  0  0  0  0  0  0  0  0  0  0  0
    3.7843    6.5290   23.4357 H   0  0  0  0  0  0  0  0  0  0  0  0
    2.6918    6.9934   22.0876 H   0  0  0  0  0  0  0  0  0  0  0  0
    3.4831    5.3807   22.0876 H   0  0  0  0  0  0  0  0  0  0  0  0
    3.7712    6.6448   19.7438 H   0  0  0  0  0  0  0  0  0  0  0  0
    5.9689    4.1954   15.9505 H   0  0  0  0  0  0  0  0  0  0  0  0
    7.2489    7.7429   25.2871 H   0  0  0  0  0  0  0  0  0  0  0  0
    8.0929    7.0661   23.8531 H   0  0  0  0  0  0  0  0  0  0  0  0
    7.5558    8.7802   23.8531 H   0  0  0  0  0  0  0  0  0  0  0  0
    7.8780    8.3622   21.9633 H   0  0  0  0  0  0  0  0  0  0  0  0
    7.7605    8.3038   19.4900 H   0  0  0  0  0  0  0  0  0  0  0  0
    4.5937    7.5142   17.7355 H   0  0  0  0  0  0  0  0  0  0  0  0
    6.1401    8.4812   17.6694 H   0  0  0  0  0  0  0  0  0  0  0  0
    7.4874    6.5305   17.4104 H   0  0  0  0  0  0  0  0  0  0  0  0
    6.0798    5.4420   17.8630 H   0  0  0  0  0  0  0  0  0  0  0  0
  3  1  1  0
  7  2  1  0
  2  8  1  0
  5  3  2  0
  3  7  1  0
  4 14  2  0
 11  5  1  0
  6 14  1  0
  9  7  2  0
 10  9  1  0
 11 10  2  0
 12 11  1  0
 13 12  1  0
 14 13  1  0
  1 15  1  0
  1 16  1  0
  1 17  1  0
  5 18  1  0
  6 19  1  0
  8 20  1  0
  8 21  1  0
  8 22  1  0
  9 23  1  0
 10 24  1  0
 12 25  1  0
 12 26  1  0
 13 27  1  0
 13 28  1  0
A    1
C1
A    2
O1
A    3
C2
A    4
O2
A    5
C3
A    6
O3
A    7
C4
A    8
C5
A    9
C6
A   10
C7
A   11
C8
A   12
C9
A   13
C10
A   14
C11
M  END
