3P7A_P7A_A_362
     RDKit          3D

 58 61  0  0  0  0  0  0  0  0999 V2000
   49.8250   32.3110  -18.5770 C   0  0  0  0  0  0  0  0  0  0  0  0
   49.0100   30.6660  -14.7290 N   0  0  0  0  0  0  0  0  0  0  0  0
   48.7580   32.7890  -19.2330 O   0  0  0  0  0  0  0  0  0  0  0  0
   46.8990   29.3180  -15.7710 S   0  0  0  0  0  0  0  0  0  0  0  0
   48.3450   30.2940  -15.8630 C   0  0  0  0  0  0  0  0  0  0  0  0
   51.0180   32.7540  -18.8530 N   0  0  0  0  0  0  0  0  0  0  0  0
   48.5720   33.2730  -10.8530 O   0  0  0  0  0  0  0  0  0  0  0  0
   49.1800   32.0330  -11.8770 S   0  0  0  0  0  0  0  0  0  0  0  0
   51.4410   33.8510  -19.5510 C   0  0  0  0  0  0  0  0  0  0  0  0
   50.6130   31.3780  -11.2410 O   0  0  0  0  0  0  0  0  0  0  0  0
   52.6230   33.8500  -20.3240 C   0  0  0  0  0  0  0  0  0  0  0  0
   53.0160   35.0150  -21.0130 C   0  0  0  0  0  0  0  0  0  0  0  0
   52.2270   36.1760  -20.9300 C   0  0  0  0  0  0  0  0  0  0  0  0
   51.0560   36.1940  -20.1700 C   0  0  0  0  0  0  0  0  0  0  0  0
   50.6810   35.0360  -19.4830 C   0  0  0  0  0  0  0  0  0  0  0  0
   49.6880   31.3440  -17.6290 N   0  0  0  0  0  0  0  0  0  0  0  0
   48.6250   30.5960  -17.2190 C   0  0  0  0  0  0  0  0  0  0  0  0
   46.6690   29.2810  -17.4950 C   0  0  0  0  0  0  0  0  0  0  0  0
   47.6950   30.0300  -18.0950 C   0  0  0  0  0  0  0  0  0  0  0  0
   45.5570   28.5690  -18.2630 C   0  0  0  0  0  0  0  0  0  0  0  0
   45.1510   29.3700  -19.5000 C   0  0  0  0  0  0  0  0  0  0  0  0
   44.2420   28.3220  -17.5260 C   0  0  0  0  0  0  0  0  0  0  0  0
   46.1080   27.2180  -18.7410 C   0  0  0  0  0  0  0  0  0  0  0  0
   49.6740   31.9730  -14.6440 C   0  0  0  0  0  0  0  0  0  0  0  0
   49.2840   32.8120  -13.4120 C   0  0  0  0  0  0  0  0  0  0  0  0
   48.1970   30.7010  -12.3140 C   0  0  0  0  0  0  0  0  0  0  0  0
   48.7970   29.8910  -13.4830 C   0  0  0  0  0  0  0  0  0  0  0  0
   53.4520   32.7310  -20.4610 C   0  0  0  0  0  0  0  0  0  0  0  0
   54.6180   32.7760  -21.2390 C   0  0  0  0  0  0  0  0  0  0  0  0
   54.9830   33.9460  -21.9180 C   0  0  0  0  0  0  0  0  0  0  0  0
   54.1730   35.0800  -21.7990 C   0  0  0  0  0  0  0  0  0  0  0  0
   51.7811   32.1729  -18.4776 H   0  0  0  0  0  0  0  0  0  0  0  0
   52.5366   37.0822  -21.4712 H   0  0  0  0  0  0  0  0  0  0  0  0
   50.4395   37.1032  -20.1129 H   0  0  0  0  0  0  0  0  0  0  0  0
   49.7666   35.0499  -18.8718 H   0  0  0  0  0  0  0  0  0  0  0  0
   50.5598   31.1366  -17.1212 H   0  0  0  0  0  0  0  0  0  0  0  0
   47.7620   30.1625  -19.1849 H   0  0  0  0  0  0  0  0  0  0  0  0
   44.6742   30.3107  -19.1874 H   0  0  0  0  0  0  0  0  0  0  0  0
   46.0444   29.5939  -20.1014 H   0  0  0  0  0  0  0  0  0  0  0  0
   44.4422   28.7818  -20.1014 H   0  0  0  0  0  0  0  0  0  0  0  0
   44.4181   28.3551  -16.4407 H   0  0  0  0  0  0  0  0  0  0  0  0
   43.5147   29.0992  -17.8033 H   0  0  0  0  0  0  0  0  0  0  0  0
   43.8463   27.3338  -17.8033 H   0  0  0  0  0  0  0  0  0  0  0  0
   46.3615   26.5964  -17.8696 H   0  0  0  0  0  0  0  0  0  0  0  0
   45.3470   26.7057  -19.3479 H   0  0  0  0  0  0  0  0  0  0  0  0
   47.0103   27.3840  -19.3479 H   0  0  0  0  0  0  0  0  0  0  0  0
   50.7606   31.8044  -14.6142 H   0  0  0  0  0  0  0  0  0  0  0  0
   49.3499   32.5451  -15.5259 H   0  0  0  0  0  0  0  0  0  0  0  0
   48.2972   33.2516  -13.6192 H   0  0  0  0  0  0  0  0  0  0  0  0
   50.1186   33.5190  -13.2960 H   0  0  0  0  0  0  0  0  0  0  0  0
   48.0903   30.0386  -11.4423 H   0  0  0  0  0  0  0  0  0  0  0  0
   47.2228   31.0936  -12.6407 H   0  0  0  0  0  0  0  0  0  0  0  0
   48.1139   29.0591  -13.7095 H   0  0  0  0  0  0  0  0  0  0  0  0
   49.7911   29.5568  -13.1513 H   0  0  0  0  0  0  0  0  0  0  0  0
   53.1834   31.7961  -19.9475 H   0  0  0  0  0  0  0  0  0  0  0  0
   55.2538   31.8818  -21.3171 H   0  0  0  0  0  0  0  0  0  0  0  0
   55.8930   33.9723  -22.5354 H   0  0  0  0  0  0  0  0  0  0  0  0
   54.4418   36.0124  -22.3170 H   0  0  0  0  0  0  0  0  0  0  0  0
  1  3  2  0
  1  6  1  0
  1 16  1  0
  2  5  1  0
  2 24  1  0
  2 27  1  0
  4  5  1  0
  4 18  1  0
  5 17  2  0
  6  9  1  0
  7  8  2  0
  8 10  2  0
  8 25  1  0
  8 26  1  0
  9 11  2  0
  9 15  1  0
 11 12  1  0
 11 28  1  0
 12 13  2  0
 12 31  1  0
 13 14  1  0
 14 15  2  0
 16 17  1  0
 17 19  1  0
 18 19  2  0
 18 20  1  0
 20 21  1  0
 20 22  1  0
 20 23  1  0
 24 25  1  0
 26 27  1  0
 28 29  2  0
 29 30  1  0
 30 31  2  0
  6 32  1  0
 13 33  1  0
 14 34  1  0
 15 35  1  0
 16 36  1  0
 19 37  1  0
 21 38  1  0
 21 39  1  0
 21 40  1  0
 22 41  1  0
 22 42  1  0
 22 43  1  0
 23 44  1  0
 23 45  1  0
 23 46  1  0
 24 47  1  0
 24 48  1  0
 25 49  1  0
 25 50  1  0
 26 51  1  0
 26 52  1  0
 27 53  1  0
 27 54  1  0
 28 55  1  0
 29 56  1  0
 30 57  1  0
 31 58  1  0
A    1
C1
A    2
N1
A    3
O1
A    4
S1
A    5
C2
A    6
N2
A    7
O2
A    8
S2
A    9
C3
A   10
O3
A   11
C4
A   12
C5
A   13
C6
A   14
C7
A   15
C8
A   16
N9
A   17
C10
A   18
C13
A   19
C14
A   20
C16
A   21
C17
A   22
C18
A   23
C19
A   24
C20
A   25
C21
A   26
C23
A   27
C24
A   28
C31
A   29
C32
A   30
C33
A   31
C34
M  END
