3P7B_P7B_A_362
     RDKit          3D

 61 64  0  0  0  0  0  0  0  0999 V2000
   49.1100   27.2540  -18.1190 C   0  0  0  0  0  0  0  0  0  0  0  0
   50.0950   28.2640  -19.0980 S   0  0  0  0  0  0  0  0  0  0  0  0
   51.2810   28.5510  -17.8460 C   0  0  0  0  0  0  0  0  0  0  0  0
   50.7630   27.9170  -16.6990 C   0  0  0  0  0  0  0  0  0  0  0  0
   49.5890   27.1900  -16.8100 C   0  0  0  0  0  0  0  0  0  0  0  0
   47.8610   26.6740  -18.7300 C   0  0  0  0  0  0  0  0  0  0  0  0
   48.2680   25.5020  -19.5860 C   0  0  0  0  0  0  0  0  0  0  0  0
   46.8060   26.4070  -17.6760 C   0  0  0  0  0  0  0  0  0  0  0  0
   47.3250   27.6440  -19.7650 C   0  0  0  0  0  0  0  0  0  0  0  0
   51.5340   28.0180  -15.4340 C   0  0  0  0  0  0  0  0  0  0  0  0
   52.6450   28.5010  -15.5110 O   0  0  0  0  0  0  0  0  0  0  0  0
   52.4090   29.3140  -17.9280 N   0  0  0  0  0  0  0  0  0  0  0  0
   52.6360   30.2320  -18.9030 C   0  0  0  0  0  0  0  0  0  0  0  0
   51.6930   30.5480  -19.7680 O   0  0  0  0  0  0  0  0  0  0  0  0
   53.7750   30.8260  -19.0040 N   0  0  0  0  0  0  0  0  0  0  0  0
   54.1420   31.8480  -19.8410 C   0  0  0  0  0  0  0  0  0  0  0  0
   53.4220   33.0600  -19.6660 C   0  0  0  0  0  0  0  0  0  0  0  0
   53.7510   34.1610  -20.4770 C   0  0  0  0  0  0  0  0  0  0  0  0
   54.8240   34.0590  -21.3540 C   0  0  0  0  0  0  0  0  0  0  0  0
   55.5440   32.8740  -21.5490 C   0  0  0  0  0  0  0  0  0  0  0  0
   55.2230   31.7430  -20.7710 C   0  0  0  0  0  0  0  0  0  0  0  0
   56.5850   32.8870  -22.5200 C   0  0  0  0  0  0  0  0  0  0  0  0
   57.3540   31.7460  -22.7020 C   0  0  0  0  0  0  0  0  0  0  0  0
   57.0240   30.6290  -21.9370 C   0  0  0  0  0  0  0  0  0  0  0  0
   56.0080   30.5900  -20.9640 C   0  0  0  0  0  0  0  0  0  0  0  0
   51.0750   27.6290  -14.2290 N   0  0  0  0  0  0  0  0  0  0  0  0
   49.7170   28.1170  -13.9080 C   0  0  0  0  0  0  0  0  0  0  0  0
   49.0580   27.5390  -12.6520 C   0  0  0  0  0  0  0  0  0  0  0  0
   49.6540   28.1480  -11.4350 N   0  0  0  0  0  0  0  0  0  0  0  0
   50.9380   28.2350  -10.9650 C   0  0  0  0  0  0  0  0  0  0  0  0
   52.0240   28.4860  -12.0210 C   0  0  0  0  0  0  0  0  0  0  0  0
   52.0460   27.4110  -13.1220 C   0  0  0  0  0  0  0  0  0  0  0  0
   51.2080   27.6750   -9.8820 O   0  0  0  0  0  0  0  0  0  0  0  0
   49.1056   26.6428  -15.9873 H   0  0  0  0  0  0  0  0  0  0  0  0
   48.5602   24.6605  -18.9406 H   0  0  0  0  0  0  0  0  0  0  0  0
   47.4220   25.2004  -20.2210 H   0  0  0  0  0  0  0  0  0  0  0  0
   49.1188   25.7897  -20.2210 H   0  0  0  0  0  0  0  0  0  0  0  0
   47.2501   26.5194  -16.6759 H   0  0  0  0  0  0  0  0  0  0  0  0
   45.9806   27.1246  -17.7934 H   0  0  0  0  0  0  0  0  0  0  0  0
   46.4213   25.3832  -17.7934 H   0  0  0  0  0  0  0  0  0  0  0  0
   46.8530   28.4981  -19.2573 H   0  0  0  0  0  0  0  0  0  0  0  0
   48.1527   28.0032  -20.3942 H   0  0  0  0  0  0  0  0  0  0  0  0
   46.5805   27.1344  -20.3942 H   0  0  0  0  0  0  0  0  0  0  0  0
   53.1328   29.1861  -17.2064 H   0  0  0  0  0  0  0  0  0  0  0  0
   54.5110   30.4863  -18.3685 H   0  0  0  0  0  0  0  0  0  0  0  0
   52.6243   33.1358  -18.9124 H   0  0  0  0  0  0  0  0  0  0  0  0
   53.1664   35.0909  -20.4178 H   0  0  0  0  0  0  0  0  0  0  0  0
   55.1222   34.9523  -21.9225 H   0  0  0  0  0  0  0  0  0  0  0  0
   56.7774   33.7897  -23.1183 H   0  0  0  0  0  0  0  0  0  0  0  0
   58.1879   31.7244  -23.4191 H   0  0  0  0  0  0  0  0  0  0  0  0
   57.6013   29.7081  -22.1065 H   0  0  0  0  0  0  0  0  0  0  0  0
   55.8315   29.6817  -20.3692 H   0  0  0  0  0  0  0  0  0  0  0  0
   49.7760   29.2081  -13.7815 H   0  0  0  0  0  0  0  0  0  0  0  0
   49.0850   27.7854  -14.7450 H   0  0  0  0  0  0  0  0  0  0  0  0
   47.9795   27.7542  -12.6754 H   0  0  0  0  0  0  0  0  0  0  0  0
   49.2228   26.4517  -12.6275 H   0  0  0  0  0  0  0  0  0  0  0  0
   48.9606   28.5961  -10.8191 H   0  0  0  0  0  0  0  0  0  0  0  0
   51.8397   29.4643  -12.4888 H   0  0  0  0  0  0  0  0  0  0  0  0
   52.9970   28.4550  -11.5088 H   0  0  0  0  0  0  0  0  0  0  0  0
   51.8213   26.4401  -12.6564 H   0  0  0  0  0  0  0  0  0  0  0  0
   53.0470   27.4543  -13.5761 H   0  0  0  0  0  0  0  0  0  0  0  0
  1  2  1  0
  1  5  2  0
  1  6  1  0
  2  3  1  0
  3  4  2  0
  3 12  1  0
  4  5  1  0
  4 10  1  0
  6  7  1  0
  6  8  1  0
  6  9  1  0
 10 11  2  0
 10 26  1  0
 12 13  1  0
 13 14  2  0
 13 15  1  0
 15 16  1  0
 16 17  2  0
 16 21  1  0
 17 18  1  0
 18 19  2  0
 19 20  1  0
 20 21  2  0
 20 22  1  0
 21 25  1  0
 22 23  2  0
 23 24  1  0
 24 25  2  0
 26 27  1  0
 26 32  1  0
 27 28  1  0
 28 29  1  0
 29 30  1  0
 30 31  1  0
 30 33  2  0
 31 32  1  0
  5 34  1  0
  7 35  1  0
  7 36  1  0
  7 37  1  0
  8 38  1  0
  8 39  1  0
  8 40  1  0
  9 41  1  0
  9 42  1  0
  9 43  1  0
 12 44  1  0
 15 45  1  0
 17 46  1  0
 18 47  1  0
 19 48  1  0
 22 49  1  0
 23 50  1  0
 24 51  1  0
 25 52  1  0
 27 53  1  0
 27 54  1  0
 28 55  1  0
 28 56  1  0
 29 57  1  0
 31 58  1  0
 31 59  1  0
 32 60  1  0
 32 61  1  0
A    1
C1
A    2
S2
A    3
C3
A    4
C4
A    5
C5
A    6
C6
A    7
C7
A    8
C8
A    9
C9
A   10
C10
A   11
O11
A   12
N12
A   13
C13
A   14
O14
A   15
N15
A   16
C16
A   17
C17
A   18
C18
A   19
C19
A   20
C20
A   21
C21
A   22
C22
A   23
C23
A   24
C24
A   25
C25
A   26
N26
A   27
C27
A   28
C28
A   29
N29
A   30
C30
A   31
C31
A   32
C32
A   33
O33
M  END
