3P88_P88_A_1
     RDKit          3D

 65 69  0  0  0  0  0  0  0  0999 V2000
   98.3540   42.9130  141.5750 C   0  0  0  0  0  0  0  0  0  0  0  0
   95.3050   42.2200  144.6830 N   0  0  0  0  0  0  0  0  0  0  0  0
   96.0430   43.0740  143.7960 O   0  0  0  0  0  0  0  0  0  0  0  0
   96.8670   43.2440  141.5100 C   0  0  0  0  0  0  0  0  0  0  0  0
   87.7550   35.1380  135.0080 N   0  0  0  0  0  0  0  0  0  0  0  0
   93.8610   39.9610  141.4080 O   0  0  0  0  0  0  0  0  0  0  0  0
   96.6270   44.7430  141.6590 C   0  0  0  0  0  0  0  0  0  0  0  0
   88.5300   32.4780  132.7140 O   0  0  0  0  0  0  0  0  0  0  0  0
   96.1390   42.5090  142.5710 C   0  0  0  0  0  0  0  0  0  0  0  0
   86.6120   33.4480  133.1180 O   0  0  0  0  0  0  0  0  0  0  0  0
   94.9520   41.1090  143.9780 C   0  0  0  0  0  0  0  0  0  0  0  0
   95.4290   41.2150  142.6620 C   0  0  0  0  0  0  0  0  0  0  0  0
   95.2550   40.2120  141.5540 C   0  0  0  0  0  0  0  0  0  0  0  0
   93.3340   39.1220  140.4610 C   0  0  0  0  0  0  0  0  0  0  0  0
   91.9890   39.2400  140.1430 C   0  0  0  0  0  0  0  0  0  0  0  0
   91.4060   38.4080  139.1920 C   0  0  0  0  0  0  0  0  0  0  0  0
   92.1510   37.4270  138.5260 C   0  0  0  0  0  0  0  0  0  0  0  0
   93.5080   37.3210  138.8620 C   0  0  0  0  0  0  0  0  0  0  0  0
   94.0930   38.1530  139.8140 C   0  0  0  0  0  0  0  0  0  0  0  0
   91.5650   36.5860  137.5610 C   0  0  0  0  0  0  0  0  0  0  0  0
   92.3260   35.6080  136.9000 C   0  0  0  0  0  0  0  0  0  0  0  0
   91.7580   34.7690  135.9440 C   0  0  0  0  0  0  0  0  0  0  0  0
   90.4180   34.8840  135.6230 C   0  0  0  0  0  0  0  0  0  0  0  0
   89.8440   34.0500  134.6710 C   0  0  0  0  0  0  0  0  0  0  0  0
   88.4900   34.1920  134.3710 C   0  0  0  0  0  0  0  0  0  0  0  0
   88.2980   35.9460  135.9320 C   0  0  0  0  0  0  0  0  0  0  0  0
   89.6440   35.8410  136.2590 C   0  0  0  0  0  0  0  0  0  0  0  0
   90.2070   36.6840  137.2140 C   0  0  0  0  0  0  0  0  0  0  0  0
   87.8370   33.3120  133.3400 C   0  0  0  0  0  0  0  0  0  0  0  0
   94.1710   39.9530  144.5100 C   0  0  0  0  0  0  0  0  0  0  0  0
   92.8060   40.0740  144.7000 C   0  0  0  0  0  0  0  0  0  0  0  0
   92.0590   39.0070  145.1820 C   0  0  0  0  0  0  0  0  0  0  0  0
   92.6870   37.8020  145.4790 C   0  0  0  0  0  0  0  0  0  0  0  0
   94.0590   37.6720  145.2890 C   0  0  0  0  0  0  0  0  0  0  0  0
   94.7960   38.7470  144.8050 C   0  0  0  0  0  0  0  0  0  0  0  0
   91.9860   41.6170  144.3230 C   0  0  0  0  0  0  0  0  0  0  0  0
   96.5630   38.5470  144.5810 C   0  0  0  0  0  0  0  0  0  0  0  0
   98.6684   42.8430  142.6268 H   0  0  0  0  0  0  0  0  0  0  0  0
   98.5380   41.9519  141.0726 H   0  0  0  0  0  0  0  0  0  0  0  0
   98.9283   43.7053  141.0726 H   0  0  0  0  0  0  0  0  0  0  0  0
   96.4909   42.9335  140.5240 H   0  0  0  0  0  0  0  0  0  0  0  0
   96.5853   45.0033  142.7269 H   0  0  0  0  0  0  0  0  0  0  0  0
   97.4482   45.2953  141.1788 H   0  0  0  0  0  0  0  0  0  0  0  0
   95.6745   45.0114  141.1788 H   0  0  0  0  0  0  0  0  0  0  0  0
   85.9768   33.5185  133.8740 H   0  0  0  0  0  0  0  0  0  0  0  0
   95.7785   39.2787  141.8087 H   0  0  0  0  0  0  0  0  0  0  0  0
   95.6755   40.6007  140.6148 H   0  0  0  0  0  0  0  0  0  0  0  0
   91.3758   40.0005  140.6487 H   0  0  0  0  0  0  0  0  0  0  0  0
   90.3373   38.5234  138.9585 H   0  0  0  0  0  0  0  0  0  0  0  0
   94.1265   36.5616  138.3612 H   0  0  0  0  0  0  0  0  0  0  0  0
   95.1606   38.0429  140.0551 H   0  0  0  0  0  0  0  0  0  0  0  0
   93.3937   35.5022  137.1425 H   0  0  0  0  0  0  0  0  0  0  0  0
   92.3782   34.0117  135.4423 H   0  0  0  0  0  0  0  0  0  0  0  0
   90.4505   33.2873  134.1606 H   0  0  0  0  0  0  0  0  0  0  0  0
   87.6718   36.6978  136.4346 H   0  0  0  0  0  0  0  0  0  0  0  0
   89.5772   37.4402  137.7055 H   0  0  0  0  0  0  0  0  0  0  0  0
   90.9741   39.1145  145.3284 H   0  0  0  0  0  0  0  0  0  0  0  0
   92.1005   36.9543  145.8630 H   0  0  0  0  0  0  0  0  0  0  0  0
   94.5598   36.7205  145.5212 H   0  0  0  0  0  0  0  0  0  0  0  0
   91.7152   42.1266  145.2594 H   0  0  0  0  0  0  0  0  0  0  0  0
   92.6622   42.2584  143.7388 H   0  0  0  0  0  0  0  0  0  0  0  0
   91.0760   41.4154  143.7388 H   0  0  0  0  0  0  0  0  0  0  0  0
   97.0533   38.4915  145.5641 H   0  0  0  0  0  0  0  0  0  0  0  0
   96.7591   37.6209  144.0207 H   0  0  0  0  0  0  0  0  0  0  0  0
   96.9611   39.4058  144.0207 H   0  0  0  0  0  0  0  0  0  0  0  0
  4  1  1  0
  3  2  1  0
 11  2  2  0
  9  3  1  0
  4  7  1  0
  4  9  1  0
 25  5  2  0
  5 26  1  0
 14  6  1  0
  6 13  1  0
  8 29  2  0
  9 12  2  0
 10 29  1  0
 12 11  1  0
 11 30  1  0
 13 12  1  0
 19 14  1  0
 15 14  2  0
 16 15  1  0
 17 16  2  0
 20 17  1  0
 17 18  1  0
 18 19  2  0
 21 20  1  0
 28 20  2  0
 22 21  2  0
 23 22  1  0
 24 23  2  0
 23 27  1  0
 25 24  1  0
 29 25  1  0
 26 27  2  0
 27 28  1  0
 30 31  2  0
 30 35  1  0
 36 31  1  0
 31 32  1  0
 32 33  2  0
 34 33  1  0
 35 34  2  0
 37 35  1  0
  1 38  1  0
  1 39  1  0
  1 40  1  0
  4 41  1  0
  7 42  1  0
  7 43  1  0
  7 44  1  0
 10 45  1  0
 13 46  1  0
 13 47  1  0
 15 48  1  0
 16 49  1  0
 18 50  1  0
 19 51  1  0
 21 52  1  0
 22 53  1  0
 24 54  1  0
 26 55  1  0
 28 56  1  0
 32 57  1  0
 33 58  1  0
 34 59  1  0
 36 60  1  0
 36 61  1  0
 36 62  1  0
 37 63  1  0
 37 64  1  0
 37 65  1  0
A    1
C1
A    2
N1
A    3
O1
A    4
C2
A    5
N2
A    6
O2
A    7
C3
A    8
O3
A    9
C4
A   10
O4
A   11
C5
A   12
C6
A   13
C7
A   14
C8
A   15
C9
A   16
C10
A   17
C11
A   18
C12
A   19
C13
A   20
C14
A   21
C15
A   22
C16
A   23
C17
A   24
C18
A   25
C19
A   26
C20
A   27
C21
A   28
C22
A   29
C23
A   30
C24
A   31
C25
A   32
C26
A   33
C27
A   34
C28
A   35
C29
A   36
CL1
A   37
CL2
M  END
