3P8H_P8H_A_600
     RDKit          3D

 40 42  0  0  0  0  0  0  0  0999 V2000
   18.4210   27.8820  -12.6390 C   0  0  0  0  0  0  0  0  0  0  0  0
   17.3370   28.5990  -13.1270 C   0  0  0  0  0  0  0  0  0  0  0  0
   17.4940   29.8390  -13.5600 N   0  0  0  0  0  0  0  0  0  0  0  0
   18.6820   30.4240  -13.5470 C   0  0  0  0  0  0  0  0  0  0  0  0
   19.8120   29.7530  -13.0760 C   0  0  0  0  0  0  0  0  0  0  0  0
   19.6890   28.4540  -12.6010 C   0  0  0  0  0  0  0  0  0  0  0  0
   21.1390   30.5030  -13.0970 C   0  0  0  0  0  0  0  0  0  0  0  0
   18.1370   26.1240  -12.0170 Br  0  0  0  0  0  0  0  0  0  0  0  0
   21.2760   31.4740  -12.3590 O   0  0  0  0  0  0  0  0  0  0  0  0
   22.1070   30.2190  -13.9780 N   0  0  0  0  0  0  0  0  0  0  0  0
   22.0140   29.0590  -14.8850 C   0  0  0  0  0  0  0  0  0  0  0  0
   23.1390   28.1170  -14.4360 C   0  0  0  0  0  0  0  0  0  0  0  0
   23.3850   30.9940  -13.9800 C   0  0  0  0  0  0  0  0  0  0  0  0
   24.5610   30.0470  -13.6540 C   0  0  0  0  0  0  0  0  0  0  0  0
   24.5250   28.7930  -14.5340 C   0  0  0  0  0  0  0  0  0  0  0  0
   25.5730   27.8430  -14.1490 N   0  0  0  0  0  0  0  0  0  0  0  0
   25.7360   26.7830  -15.1690 C   0  0  0  0  0  0  0  0  0  0  0  0
   27.1850   26.2870  -14.9970 C   0  0  0  0  0  0  0  0  0  0  0  0
   27.8290   27.2760  -14.0290 C   0  0  0  0  0  0  0  0  0  0  0  0
   26.9000   28.4810  -14.0800 C   0  0  0  0  0  0  0  0  0  0  0  0
   16.3410   28.1329  -13.1538 H   0  0  0  0  0  0  0  0  0  0  0  0
   18.7801   31.4564  -13.9136 H   0  0  0  0  0  0  0  0  0  0  0  0
   20.5564   27.9010  -12.2115 H   0  0  0  0  0  0  0  0  0  0  0  0
   21.0349   28.5676  -14.7860 H   0  0  0  0  0  0  0  0  0  0  0  0
   22.1135   29.3496  -15.9412 H   0  0  0  0  0  0  0  0  0  0  0  0
   22.9601   27.8207  -13.3919 H   0  0  0  0  0  0  0  0  0  0  0  0
   23.1376   27.2406  -15.1008 H   0  0  0  0  0  0  0  0  0  0  0  0
   23.5400   31.4433  -14.9720 H   0  0  0  0  0  0  0  0  0  0  0  0
   23.3331   31.7893  -13.2218 H   0  0  0  0  0  0  0  0  0  0  0  0
   25.5082   30.5790  -13.8266 H   0  0  0  0  0  0  0  0  0  0  0  0
   24.4759   29.7362  -12.6023 H   0  0  0  0  0  0  0  0  0  0  0  0
   24.7082   29.1016  -15.5738 H   0  0  0  0  0  0  0  0  0  0  0  0
   25.0231   25.9639  -14.9933 H   0  0  0  0  0  0  0  0  0  0  0  0
   25.5432   27.1541  -16.1864 H   0  0  0  0  0  0  0  0  0  0  0  0
   27.1983   25.2705  -14.5769 H   0  0  0  0  0  0  0  0  0  0  0  0
   27.7217   26.2386  -15.9560 H   0  0  0  0  0  0  0  0  0  0  0  0
   27.8749   26.8579  -13.0126 H   0  0  0  0  0  0  0  0  0  0  0  0
   28.8665   27.5238  -14.2975 H   0  0  0  0  0  0  0  0  0  0  0  0
   27.0937   29.0975  -14.9702 H   0  0  0  0  0  0  0  0  0  0  0  0
   27.0179   29.1679  -13.2290 H   0  0  0  0  0  0  0  0  0  0  0  0
  2  1  2  0
  1  6  1  0
  1  8  1  0
  3  2  1  0
  3  4  2  0
  4  5  1  0
  7  5  1  0
  5  6  2  0
 10  7  1  0
  7  9  2  0
 11 10  1  0
 13 10  1  0
 11 12  1  0
 15 12  1  0
 13 14  1  0
 15 14  1  0
 15 16  1  0
 17 16  1  0
 16 20  1  0
 17 18  1  0
 18 19  1  0
 20 19  1  0
  2 21  1  0
  4 22  1  0
  6 23  1  0
 11 24  1  0
 11 25  1  0
 12 26  1  0
 12 27  1  0
 13 28  1  0
 13 29  1  0
 14 30  1  0
 14 31  1  0
 15 32  1  0
 17 33  1  0
 17 34  1  0
 18 35  1  0
 18 36  1  0
 19 37  1  0
 19 38  1  0
 20 39  1  0
 20 40  1  0
A    1
C1
A    2
C2
A    3
N3
A    4
C4
A    5
C5
A    6
C6
A    7
C7
A    8
BR8
A    9
O9
A   10
N10
A   11
C11
A   12
C12
A   13
C13
A   14
C14
A   15
C15
A   16
N16
A   17
C17
A   18
C18
A   19
C19
A   20
C20
M  END
