3P8N_L4T_A_188
     RDKit          3D

106111  0  0  0  0  0  0  0  0999 V2000
   39.5560   43.5470    9.2610 C   0  0  0  0  0  0  0  0  0  0  0  0
   38.5840   43.9950    8.6740 O   0  0  0  0  0  0  0  0  0  0  0  0
   39.8930   42.2390    9.3250 O   0  0  0  0  0  0  0  0  0  0  0  0
   40.3580   41.6240    8.1560 C   0  0  0  0  0  0  0  0  0  0  0  0
   39.3030   41.2110    7.1690 C   0  0  0  0  0  0  0  0  0  0  0  0
   40.1100   40.3010    6.2480 C   0  0  0  0  0  0  0  0  0  0  0  0
   41.1830   39.6900    7.1430 C   0  0  0  0  0  0  0  0  0  0  0  0
   40.9030   40.2540    8.5230 C   0  0  0  0  0  0  0  0  0  0  0  0
   40.4370   44.2910    9.9650 N   0  0  0  0  0  0  0  0  0  0  0  0
   40.2770   45.7120   10.0760 C   0  0  0  0  0  0  0  0  0  0  0  0
   40.6690   46.2710   11.4870 C   0  0  0  0  0  0  0  0  0  0  0  0
   40.4150   47.8080   11.5340 C   0  0  0  0  0  0  0  0  0  0  0  0
   42.1430   45.9980   11.8630 C   0  0  0  0  0  0  0  0  0  0  0  0
   39.7890   45.6120   12.5640 C   0  0  0  0  0  0  0  0  0  0  0  0
   41.0720   46.3460    8.9080 C   0  0  0  0  0  0  0  0  0  0  0  0
   42.2760   46.1600    8.8000 O   0  0  0  0  0  0  0  0  0  0  0  0
   42.2350   48.6520    7.4300 C   0  0  0  0  0  0  0  0  0  0  0  0
   42.0880   49.3350    8.4470 O   0  0  0  0  0  0  0  0  0  0  0  0
   41.1090   47.7680    6.8840 C   0  0  0  0  0  0  0  0  0  0  0  0
   40.0420   48.6660    6.2190 C   0  0  0  0  0  0  0  0  0  0  0  0
   38.7420   47.9190    6.5350 C   0  0  0  0  0  0  0  0  0  0  0  0
   38.9720   47.5450    7.9820 C   0  0  0  0  0  0  0  0  0  0  0  0
   40.3880   47.1470    7.9930 N   0  0  0  0  0  0  0  0  0  0  0  0
   38.7300   46.6450    5.8400 O   0  0  0  0  0  0  0  0  0  0  0  0
   38.2780   46.5400    4.5350 C   0  0  0  0  0  0  0  0  0  0  0  0
   37.6540   47.7160    3.8760 C   0  0  0  0  0  0  0  0  0  0  0  0
   37.2120   47.5760    2.5900 C   0  0  0  0  0  0  0  0  0  0  0  0
   37.3680   46.3570    1.9440 N   0  0  0  0  0  0  0  0  0  0  0  0
   37.9290   45.2120    2.4700 C   0  0  0  0  0  0  0  0  0  0  0  0
   38.4070   45.3420    3.8770 C   0  0  0  0  0  0  0  0  0  0  0  0
   39.0190   44.1310    4.5480 C   0  0  0  0  0  0  0  0  0  0  0  0
   39.0820   42.9000    3.7030 C   0  0  0  0  0  0  0  0  0  0  0  0
   38.6300   42.8420    2.4020 C   0  0  0  0  0  0  0  0  0  0  0  0
   38.0490   44.0420    1.7850 C   0  0  0  0  0  0  0  0  0  0  0  0
   37.4360   43.9710   -0.0320 Br  0  0  0  0  0  0  0  0  0  0  0  0
   38.6670   41.7180    1.5640 O   0  0  0  0  0  0  0  0  0  0  0  0
   39.2120   40.4760    2.0710 C   0  0  0  0  0  0  0  0  0  0  0  0
   36.5670   48.6220    1.8840 C   0  0  0  0  0  0  0  0  0  0  0  0
   36.1570   48.5440    0.5630 C   0  0  0  0  0  0  0  0  0  0  0  0
   35.3980   50.0210    0.1260 S   0  0  0  0  0  0  0  0  0  0  0  0
   35.6870   50.6280    1.7130 C   0  0  0  0  0  0  0  0  0  0  0  0
   36.2920   49.8040    2.5300 N   0  0  0  0  0  0  0  0  0  0  0  0
   35.2970   51.8750    2.1580 N   0  0  0  0  0  0  0  0  0  0  0  0
   34.3700   52.7000    1.5370 C   0  0  0  0  0  0  0  0  0  0  0  0
   33.7950   52.3820    0.4730 O   0  0  0  0  0  0  0  0  0  0  0  0
   34.1280   54.0130    2.3140 C   0  0  0  0  0  0  0  0  0  0  0  0
   32.9280   53.8700    3.2590 C   0  0  0  0  0  0  0  0  0  0  0  0
   33.9400   55.2120    1.3910 C   0  0  0  0  0  0  0  0  0  0  0  0
   43.4120   48.5710    6.7190 N   0  0  0  0  0  0  0  0  0  0  0  0
   44.6800   48.9780    7.2900 C   0  0  0  0  0  0  0  0  0  0  0  0
   45.3080   48.0230    8.3350 C   0  0  0  0  0  0  0  0  0  0  0  0
   45.9130   48.1220    6.9600 C   0  0  0  0  0  0  0  0  0  0  0  0
   46.0320   48.4940    9.5280 C   0  0  0  0  0  0  0  0  0  0  0  0
   45.7280   48.1330   10.7930 C   0  0  0  0  0  0  0  0  0  0  0  0
   44.8960   50.5070    7.2910 C   0  0  0  0  0  0  0  0  0  0  0  0
   45.9840   50.9810    7.7380 O   0  0  0  0  0  0  0  0  0  0  0  0
   43.9630   51.2650    6.7990 O   0  0  0  0  0  0  0  0  0  0  0  0
   41.0432   42.3720    7.7305 H   0  0  0  0  0  0  0  0  0  0  0  0
   38.4825   40.6659    7.6585 H   0  0  0  0  0  0  0  0  0  0  0  0
   38.8056   42.0487    6.6583 H   0  0  0  0  0  0  0  0  0  0  0  0
   39.4689   39.5158    5.8209 H   0  0  0  0  0  0  0  0  0  0  0  0
   40.5423   40.8497    5.3983 H   0  0  0  0  0  0  0  0  0  0  0  0
   41.1039   38.5929    7.1493 H   0  0  0  0  0  0  0  0  0  0  0  0
   42.1991   39.9280    6.7952 H   0  0  0  0  0  0  0  0  0  0  0  0
   41.8207   40.3297    9.1248 H   0  0  0  0  0  0  0  0  0  0  0  0
   40.2286   39.6424    9.1403 H   0  0  0  0  0  0  0  0  0  0  0  0
   41.2341   43.8317   10.4281 H   0  0  0  0  0  0  0  0  0  0  0  0
   39.2146   45.9848    9.9928 H   0  0  0  0  0  0  0  0  0  0  0  0
   40.3603   48.1387   12.5817 H   0  0  0  0  0  0  0  0  0  0  0  0
   41.2388   48.3315   11.0267 H   0  0  0  0  0  0  0  0  0  0  0  0
   39.4666   48.0386   11.0267 H   0  0  0  0  0  0  0  0  0  0  0  0
   42.2446   45.9792   12.9581 H   0  0  0  0  0  0  0  0  0  0  0  0
   42.4532   45.0271   11.4492 H   0  0  0  0  0  0  0  0  0  0  0  0
   42.7803   46.7934   11.4492 H   0  0  0  0  0  0  0  0  0  0  0  0
   40.1603   45.8900   13.5614 H   0  0  0  0  0  0  0  0  0  0  0  0
   38.7505   45.9564   12.4502 H   0  0  0  0  0  0  0  0  0  0  0  0
   39.8272   44.5186   12.4502 H   0  0  0  0  0  0  0  0  0  0  0  0
   41.5584   47.0343    6.1987 H   0  0  0  0  0  0  0  0  0  0  0  0
   40.0392   49.6740    6.6595 H   0  0  0  0  0  0  0  0  0  0  0  0
   40.2083   48.8241    5.1432 H   0  0  0  0  0  0  0  0  0  0  0  0
   37.8402   48.4985    6.2880 H   0  0  0  0  0  0  0  0  0  0  0  0
   38.3230   46.7096    8.2836 H   0  0  0  0  0  0  0  0  0  0  0  0
   38.7425   48.3595    8.6848 H   0  0  0  0  0  0  0  0  0  0  0  0
   37.5504   48.6731    4.4082 H   0  0  0  0  0  0  0  0  0  0  0  0
   39.3906   44.1553    5.5830 H   0  0  0  0  0  0  0  0  0  0  0  0
   39.5132   41.9891    4.1439 H   0  0  0  0  0  0  0  0  0  0  0  0
   39.2041   40.4940    3.1708 H   0  0  0  0  0  0  0  0  0  0  0  0
   38.6005   39.6343    1.7137 H   0  0  0  0  0  0  0  0  0  0  0  0
   40.2454   40.3561    1.7137 H   0  0  0  0  0  0  0  0  0  0  0  0
   36.2953   47.6763   -0.0988 H   0  0  0  0  0  0  0  0  0  0  0  0
   35.7310   52.2228    3.0249 H   0  0  0  0  0  0  0  0  0  0  0  0
   35.0334   54.2026    2.9093 H   0  0  0  0  0  0  0  0  0  0  0  0
   33.2755   53.9114    4.3018 H   0  0  0  0  0  0  0  0  0  0  0  0
   32.2177   54.6899    3.0764 H   0  0  0  0  0  0  0  0  0  0  0  0
   32.4303   52.9062    3.0764 H   0  0  0  0  0  0  0  0  0  0  0  0
   33.7975   56.1205    1.9945 H   0  0  0  0  0  0  0  0  0  0  0  0
   34.8307   55.3293    0.7563 H   0  0  0  0  0  0  0  0  0  0  0  0
   33.0561   55.0511    0.7563 H   0  0  0  0  0  0  0  0  0  0  0  0
   43.3901   48.2110    5.7542 H   0  0  0  0  0  0  0  0  0  0  0  0
   44.9132   47.2120    8.9646 H   0  0  0  0  0  0  0  0  0  0  0  0
   46.8931   48.6034    6.8274 H   0  0  0  0  0  0  0  0  0  0  0  0
   46.1580   47.3951    6.1716 H   0  0  0  0  0  0  0  0  0  0  0  0
   46.8750   49.1846    9.3787 H   0  0  0  0  0  0  0  0  0  0  0  0
   46.3167   48.5279   11.6342 H   0  0  0  0  0  0  0  0  0  0  0  0
   44.8917   47.4440   10.9824 H   0  0  0  0  0  0  0  0  0  0  0  0
   43.3554   51.7586    7.4050 H   0  0  0  0  0  0  0  0  0  0  0  0
 14 11  1  0
 13 11  1  0
 12 11  1  0
 11 10  1  0
 54 53  2  3
 10  9  1  0
 10 15  1  0
  9  1  1  0
 53 51  1  0
  1  3  1  0
  1  2  2  0
  3  4  1  0
  5  4  1  0
  5  6  1  0
 15 16  2  0
 15 23  1  0
 18 17  2  0
  4  8  1  0
 51 50  1  0
 51 52  1  0
  6  7  1  0
 23 22  1  0
 23 19  1  0
 22 21  1  0
 56 55  2  0
 17 19  1  0
 17 49  1  0
  7  8  1  0
 50 55  1  0
 50 52  1  0
 50 49  1  0
 55 57  1  0
 19 20  1  0
 21 20  1  0
 21 24  1  0
 24 25  1  0
 31 30  2  0
 31 32  1  0
 25 26  2  0
 25 30  1  0
 26 27  1  0
 30 29  1  0
 32 33  2  0
 27 28  2  0
 27 38  1  0
 42 38  1  0
 42 41  2  0
 29 28  1  0
 29 34  2  0
 33 34  1  0
 33 36  1  0
 47 46  1  0
 37 36  1  0
 43 41  1  0
 43 44  1  0
 46 44  1  0
 46 48  1  0
 38 39  2  0
 34 35  1  0
 41 40  1  0
 44 45  2  0
 39 40  1  0
  4 58  1  0
  5 59  1  0
  5 60  1  0
  6 61  1  0
  6 62  1  0
  7 63  1  0
  7 64  1  0
  8 65  1  0
  8 66  1  0
  9 67  1  0
 10 68  1  0
 12 69  1  0
 12 70  1  0
 12 71  1  0
 13 72  1  0
 13 73  1  0
 13 74  1  0
 14 75  1  0
 14 76  1  0
 14 77  1  0
 19 78  1  0
 20 79  1  0
 20 80  1  0
 21 81  1  0
 22 82  1  0
 22 83  1  0
 26 84  1  0
 31 85  1  0
 32 86  1  0
 37 87  1  0
 37 88  1  0
 37 89  1  0
 39 90  1  0
 43 91  1  0
 46 92  1  0
 47 93  1  0
 47 94  1  0
 47 95  1  0
 48 96  1  0
 48 97  1  0
 48 98  1  0
 49 99  1  0
 51100  1  0
 52101  1  0
 52102  1  0
 53103  1  0
 54104  1  0
 54105  1  0
 57106  1  0
A    1
C25
A    2
O26
A    3
O27
A    4
C28
A    5
C29
A    6
C30
A    7
C31
A    8
C32
A    9
N24
A   10
C19
A   11
C20
A   12
C21
A   13
C22
A   14
C23
A   15
C17
A   16
O18
A   17
C10
A   18
O11
A   19
C12
A   20
C13
A   21
C14
A   22
C15
A   23
N16
A   24
O33
A   25
C34
A   26
C35
A   27
C36
A   28
N37
A   29
C38
A   30
C39
A   31
C40
A   32
C41
A   33
C42
A   34
C43
A   35
BR44
A   36
O45
A   37
C46
A   38
C47
A   39
C48
A   40
S49
A   41
C50
A   42
N51
A   43
N52
A   44
C53
A   45
O54
A   46
C55
A   47
C56
A   48
C57
A   49
N9
A   50
C4
A   51
C6
A   52
C5
A   53
C7
A   54
C8
A   55
C2
A   56
O3
A   57
O1
M  END
