3P8O_L5T_A_188
     RDKit          3D

106111  0  0  0  0  0  0  0  0999 V2000
   39.3910   43.6490    9.1590 C   0  0  0  0  0  0  0  0  0  0  0  0
   38.4250   44.1980    8.6310 O   0  0  0  0  0  0  0  0  0  0  0  0
   39.6410   42.3070    9.1430 O   0  0  0  0  0  0  0  0  0  0  0  0
   40.2030   41.8230    7.9240 C   0  0  0  0  0  0  0  0  0  0  0  0
   39.1860   41.4170    6.8790 C   0  0  0  0  0  0  0  0  0  0  0  0
   40.0130   40.5700    5.9240 C   0  0  0  0  0  0  0  0  0  0  0  0
   41.1510   40.0210    6.7640 C   0  0  0  0  0  0  0  0  0  0  0  0
   40.8660   40.4880    8.1760 C   0  0  0  0  0  0  0  0  0  0  0  0
   40.3560   44.2980    9.8410 N   0  0  0  0  0  0  0  0  0  0  0  0
   40.3310   45.7440   10.0270 C   0  0  0  0  0  0  0  0  0  0  0  0
   40.6980   46.2380   11.4890 C   0  0  0  0  0  0  0  0  0  0  0  0
   40.3290   47.7380   11.6410 C   0  0  0  0  0  0  0  0  0  0  0  0
   42.1910   46.0460   11.8710 C   0  0  0  0  0  0  0  0  0  0  0  0
   39.8470   45.4590   12.5290 C   0  0  0  0  0  0  0  0  0  0  0  0
   41.1520   46.4010    8.8750 C   0  0  0  0  0  0  0  0  0  0  0  0
   42.3650   46.1780    8.7410 O   0  0  0  0  0  0  0  0  0  0  0  0
   42.4120   48.8250    7.3930 C   0  0  0  0  0  0  0  0  0  0  0  0
   42.2690   49.5590    8.3660 O   0  0  0  0  0  0  0  0  0  0  0  0
   41.2690   47.9120    6.8780 C   0  0  0  0  0  0  0  0  0  0  0  0
   40.2100   48.7750    6.1530 C   0  0  0  0  0  0  0  0  0  0  0  0
   38.8900   48.0510    6.4260 C   0  0  0  0  0  0  0  0  0  0  0  0
   39.0920   47.6520    7.8880 C   0  0  0  0  0  0  0  0  0  0  0  0
   40.5120   47.2680    7.9690 N   0  0  0  0  0  0  0  0  0  0  0  0
   38.8640   46.8100    5.6310 O   0  0  0  0  0  0  0  0  0  0  0  0
   38.3130   46.8000    4.3220 C   0  0  0  0  0  0  0  0  0  0  0  0
   37.6450   48.0290    3.8090 C   0  0  0  0  0  0  0  0  0  0  0  0
   37.1000   48.0380    2.5440 C   0  0  0  0  0  0  0  0  0  0  0  0
   37.1790   46.8680    1.7750 N   0  0  0  0  0  0  0  0  0  0  0  0
   37.7810   45.6650    2.1580 C   0  0  0  0  0  0  0  0  0  0  0  0
   38.3740   45.6560    3.5450 C   0  0  0  0  0  0  0  0  0  0  0  0
   39.0400   44.3840    4.0340 C   0  0  0  0  0  0  0  0  0  0  0  0
   39.0180   43.2210    3.0600 C   0  0  0  0  0  0  0  0  0  0  0  0
   38.4560   43.2870    1.8140 C   0  0  0  0  0  0  0  0  0  0  0  0
   37.8230   44.5500    1.3750 C   0  0  0  0  0  0  0  0  0  0  0  0
   38.3880   42.2520    0.8380 O   0  0  0  0  0  0  0  0  0  0  0  0
   38.9550   40.9570    1.1230 C   0  0  0  0  0  0  0  0  0  0  0  0
   36.4460   49.1950    2.0070 C   0  0  0  0  0  0  0  0  0  0  0  0
   35.9450   49.3030    0.7210 C   0  0  0  0  0  0  0  0  0  0  0  0
   35.2320   50.8320    0.5200 S   0  0  0  0  0  0  0  0  0  0  0  0
   35.6510   51.2470    2.1330 C   0  0  0  0  0  0  0  0  0  0  0  0
   36.2720   50.3090    2.8060 N   0  0  0  0  0  0  0  0  0  0  0  0
   35.3470   52.4570    2.7260 N   0  0  0  0  0  0  0  0  0  0  0  0
   34.4130   53.3720    2.2690 C   0  0  0  0  0  0  0  0  0  0  0  0
   33.7420   53.1860    1.2430 O   0  0  0  0  0  0  0  0  0  0  0  0
   34.2980   54.6330    3.1710 C   0  0  0  0  0  0  0  0  0  0  0  0
   32.8670   54.8310    3.7030 C   0  0  0  0  0  0  0  0  0  0  0  0
   34.7800   55.8890    2.4270 C   0  0  0  0  0  0  0  0  0  0  0  0
   43.5900   48.6820    6.6840 N   0  0  0  0  0  0  0  0  0  0  0  0
   44.9010   49.0280    7.2350 C   0  0  0  0  0  0  0  0  0  0  0  0
   45.4820   48.0500    8.2870 C   0  0  0  0  0  0  0  0  0  0  0  0
   46.0750   48.0900    6.9110 C   0  0  0  0  0  0  0  0  0  0  0  0
   46.2690   48.4510    9.4510 C   0  0  0  0  0  0  0  0  0  0  0  0
   45.8400   48.3800   10.7210 C   0  0  0  0  0  0  0  0  0  0  0  0
   45.2370   50.5360    7.1940 C   0  0  0  0  0  0  0  0  0  0  0  0
   44.3610   51.3290    6.7000 O   0  0  0  0  0  0  0  0  0  0  0  0
   46.3480   50.9470    7.6170 O   0  0  0  0  0  0  0  0  0  0  0  0
   40.8429   42.6517    7.5867 H   0  0  0  0  0  0  0  0  0  0  0  0
   38.7677   42.2972    6.3688 H   0  0  0  0  0  0  0  0  0  0  0  0
   38.3179   40.8855    7.2961 H   0  0  0  0  0  0  0  0  0  0  0  0
   40.4035   41.1864    5.1009 H   0  0  0  0  0  0  0  0  0  0  0  0
   39.4171   39.7680    5.4640 H   0  0  0  0  0  0  0  0  0  0  0  0
   41.1689   38.9221    6.7177 H   0  0  0  0  0  0  0  0  0  0  0  0
   42.1308   40.3703    6.4062 H   0  0  0  0  0  0  0  0  0  0  0  0
   40.1898   39.7960    8.6993 H   0  0  0  0  0  0  0  0  0  0  0  0
   41.7573   40.5441    8.8183 H   0  0  0  0  0  0  0  0  0  0  0  0
   41.1344   43.7561   10.2428 H   0  0  0  0  0  0  0  0  0  0  0  0
   39.2901   46.0919    9.9524 H   0  0  0  0  0  0  0  0  0  0  0  0
   40.2661   47.9937   12.7090 H   0  0  0  0  0  0  0  0  0  0  0  0
   41.1018   48.3562   11.1609 H   0  0  0  0  0  0  0  0  0  0  0  0
   39.3576   47.9271   11.1609 H   0  0  0  0  0  0  0  0  0  0  0  0
   42.2905   46.0332   12.9664 H   0  0  0  0  0  0  0  0  0  0  0  0
   42.5554   45.0936   11.4586 H   0  0  0  0  0  0  0  0  0  0  0  0
   42.7846   46.8752   11.4586 H   0  0  0  0  0  0  0  0  0  0  0  0
   40.1583   45.7440   13.5448 H   0  0  0  0  0  0  0  0  0  0  0  0
   38.7836   45.7032   12.3893 H   0  0  0  0  0  0  0  0  0  0  0  0
   39.9965   44.3782   12.3893 H   0  0  0  0  0  0  0  0  0  0  0  0
   41.7566   47.1601    6.2402 H   0  0  0  0  0  0  0  0  0  0  0  0
   40.4151   48.8197    5.0732 H   0  0  0  0  0  0  0  0  0  0  0  0
   40.2011   49.8172    6.5048 H   0  0  0  0  0  0  0  0  0  0  0  0
   37.9842   48.6347    6.2049 H   0  0  0  0  0  0  0  0  0  0  0  0
   38.8791   48.4996    8.5560 H   0  0  0  0  0  0  0  0  0  0  0  0
   38.4190   46.8390    8.1981 H   0  0  0  0  0  0  0  0  0  0  0  0
   37.5871   48.9283    4.4398 H   0  0  0  0  0  0  0  0  0  0  0  0
   39.5071   44.3098    5.0271 H   0  0  0  0  0  0  0  0  0  0  0  0
   39.4792   42.2725    3.3726 H   0  0  0  0  0  0  0  0  0  0  0  0
   37.3671   44.5911    0.3748 H   0  0  0  0  0  0  0  0  0  0  0  0
   39.0170   40.8155    2.2121 H   0  0  0  0  0  0  0  0  0  0  0  0
   38.3175   40.1736    0.6871 H   0  0  0  0  0  0  0  0  0  0  0  0
   39.9630   40.8941    0.6871 H   0  0  0  0  0  0  0  0  0  0  0  0
   36.0000   48.5208   -0.0505 H   0  0  0  0  0  0  0  0  0  0  0  0
   35.8608   52.7006    3.5848 H   0  0  0  0  0  0  0  0  0  0  0  0
   34.9532   54.4704    4.0395 H   0  0  0  0  0  0  0  0  0  0  0  0
   32.8812   54.8290    4.8029 H   0  0  0  0  0  0  0  0  0  0  0  0
   32.4718   55.7924    3.3431 H   0  0  0  0  0  0  0  0  0  0  0  0
   32.2256   54.0131    3.3431 H   0  0  0  0  0  0  0  0  0  0  0  0
   35.0748   56.6571    3.1571 H   0  0  0  0  0  0  0  0  0  0  0  0
   35.6436   55.6325    1.7958 H   0  0  0  0  0  0  0  0  0  0  0  0
   33.9665   56.2761    1.7958 H   0  0  0  0  0  0  0  0  0  0  0  0
   43.5429   48.3147    5.7229 H   0  0  0  0  0  0  0  0  0  0  0  0
   45.0263   47.2903    8.9391 H   0  0  0  0  0  0  0  0  0  0  0  0
   45.9240   47.2424    6.2263 H   0  0  0  0  0  0  0  0  0  0  0  0
   47.0905   48.2365    6.5144 H   0  0  0  0  0  0  0  0  0  0  0  0
   47.2834   48.8379    9.2743 H   0  0  0  0  0  0  0  0  0  0  0  0
   46.4967   48.7030   11.5422 H   0  0  0  0  0  0  0  0  0  0  0  0
   44.8318   47.9988   10.9405 H   0  0  0  0  0  0  0  0  0  0  0  0
   46.5148   51.0087    8.5909 H   0  0  0  0  0  0  0  0  0  0  0  0
 39 38  1  0
 39 40  1  0
 38 37  2  0
 35 36  1  0
 35 33  1  0
 44 43  2  0
 34 33  2  0
 34 29  1  0
 28 29  2  0
 28 27  1  0
 33 32  1  0
 37 27  1  0
 37 41  1  0
 40 42  1  0
 40 41  2  0
 29 30  1  0
 43 42  1  0
 43 45  1  0
 47 45  1  0
 27 26  2  0
 32 31  2  0
 45 46  1  0
 30 31  1  0
 30 25  2  0
 26 25  1  0
 25 24  1  0
 24 21  1  0
  6  7  1  0
  6  5  1  0
 20 21  1  0
 20 19  1  0
 21 22  1  0
 48 49  1  0
 48 17  1  0
 55 54  2  0
  7  8  1  0
 19 17  1  0
 19 23  1  0
  5  4  1  0
 51 49  1  0
 51 50  1  0
 54 49  1  0
 54 56  1  0
 49 50  1  0
 17 18  2  0
 22 23  1  0
  4  8  1  0
  4  3  1  0
 23 15  1  0
 50 52  1  0
  2  1  2  0
 16 15  2  0
 15 10  1  0
  3  1  1  0
  1  9  1  0
 52 53  2  3
  9 10  1  0
 10 11  1  0
 11 12  1  0
 11 13  1  0
 11 14  1  0
  4 57  1  0
  5 58  1  0
  5 59  1  0
  6 60  1  0
  6 61  1  0
  7 62  1  0
  7 63  1  0
  8 64  1  0
  8 65  1  0
  9 66  1  0
 10 67  1  0
 12 68  1  0
 12 69  1  0
 12 70  1  0
 13 71  1  0
 13 72  1  0
 13 73  1  0
 14 74  1  0
 14 75  1  0
 14 76  1  0
 19 77  1  0
 20 78  1  0
 20 79  1  0
 21 80  1  0
 22 81  1  0
 22 82  1  0
 26 83  1  0
 31 84  1  0
 32 85  1  0
 34 86  1  0
 36 87  1  0
 36 88  1  0
 36 89  1  0
 38 90  1  0
 42 91  1  0
 45 92  1  0
 46 93  1  0
 46 94  1  0
 46 95  1  0
 47 96  1  0
 47 97  1  0
 47 98  1  0
 48 99  1  0
 50100  1  0
 51101  1  0
 51102  1  0
 52103  1  0
 53104  1  0
 53105  1  0
 56106  1  0
A    1
C25
A    2
O26
A    3
O27
A    4
C28
A    5
C29
A    6
C30
A    7
C31
A    8
C32
A    9
N24
A   10
C19
A   11
C20
A   12
C21
A   13
C22
A   14
C23
A   15
C17
A   16
O18
A   17
C10
A   18
O11
A   19
C12
A   20
C13
A   21
C14
A   22
C15
A   23
N16
A   24
O33
A   25
C34
A   26
C35
A   27
C36
A   28
N37
A   29
C38
A   30
C39
A   31
C40
A   32
C41
A   33
C42
A   34
C43
A   35
O45
A   36
C46
A   37
C47
A   38
C48
A   39
S49
A   40
C50
A   41
N51
A   42
N52
A   43
C53
A   44
O54
A   45
C55
A   46
C56
A   47
C57
A   48
N9
A   49
C4
A   50
C6
A   51
C5
A   52
C7
A   53
C8
A   54
C2
A   55
O1
A   56
O3
M  END
