3P8P_LN6_A_286
     RDKit          3D

 36 35  0  0  0  0  0  0  0  0999 V2000
   -5.0290   -2.1700   21.6250 C   0  0  0  0  0  0  0  0  0  0  0  0
   -3.3510   -2.3420   23.3930 N   0  0  0  0  0  0  0  0  0  0  0  0
   -3.5890   -1.8460   22.0300 C   0  0  0  0  0  0  0  0  0  0  0  0
   -2.6060   -2.5130   21.0650 C   0  0  0  0  0  0  0  0  0  0  0  0
   -1.5010   -2.3580   18.7970 C   0  0  0  0  0  0  0  0  0  0  0  0
   -1.7530   -3.7240   18.3140 N   0  0  0  0  0  0  0  0  0  0  0  0
   -2.6410   -1.8530   19.6850 C   0  0  0  0  0  0  0  0  0  0  0  0
   -2.7150   -3.9780   17.4310 C   0  0  0  0  0  0  0  0  0  0  0  0
   -5.4610   -1.6510   20.5730 O   0  0  0  0  0  0  0  0  0  0  0  0
   -5.6710   -2.9270   22.3840 O   0  0  0  0  0  0  0  0  0  0  0  0
   -2.9470   -5.4120   16.9510 C   0  0  0  0  0  0  0  0  0  0  0  0
   -3.4450   -2.9860   16.9280 N   0  0  0  0  0  0  0  0  0  0  0  0
   -1.5290   -5.0880   14.8910 C   0  0  0  0  0  0  0  0  0  0  0  0
   -0.3490   -5.6200   14.0740 C   0  0  0  0  0  0  0  0  0  0  0  0
   -1.7490   -5.9280   16.1510 C   0  0  0  0  0  0  0  0  0  0  0  0
   -3.6850   -1.6460   24.0748 H   0  0  0  0  0  0  0  0  0  0  0  0
   -3.8588   -3.2276   23.5296 H   0  0  0  0  0  0  0  0  0  0  0  0
   -3.4379   -0.7570   21.9944 H   0  0  0  0  0  0  0  0  0  0  0  0
   -1.5890   -2.4291   21.4758 H   0  0  0  0  0  0  0  0  0  0  0  0
   -2.8960   -3.5679   20.9509 H   0  0  0  0  0  0  0  0  0  0  0  0
   -0.5669   -2.3518   19.3779 H   0  0  0  0  0  0  0  0  0  0  0  0
   -1.4261   -1.6935   17.9236 H   0  0  0  0  0  0  0  0  0  0  0  0
   -1.1734   -4.4991   18.6663 H   0  0  0  0  0  0  0  0  0  0  0  0
   -3.6014   -2.0848   19.2013 H   0  0  0  0  0  0  0  0  0  0  0  0
   -2.5232   -0.7673   19.8167 H   0  0  0  0  0  0  0  0  0  0  0  0
   -5.5885   -2.8297   23.3657 H   0  0  0  0  0  0  0  0  0  0  0  0
   -3.1021   -6.0622   17.8246 H   0  0  0  0  0  0  0  0  0  0  0  0
   -3.8323   -5.4221   16.2982 H   0  0  0  0  0  0  0  0  0  0  0  0
   -4.1885   -3.1889   16.2446 H   0  0  0  0  0  0  0  0  0  0  0  0
   -1.3234   -4.0478   15.1839 H   0  0  0  0  0  0  0  0  0  0  0  0
   -2.4363   -5.1427   14.2714 H   0  0  0  0  0  0  0  0  0  0  0  0
    0.4383   -5.9750   14.7553 H   0  0  0  0  0  0  0  0  0  0  0  0
   -0.6878   -6.4525   13.4398 H   0  0  0  0  0  0  0  0  0  0  0  0
    0.0505   -4.8149   13.4398 H   0  0  0  0  0  0  0  0  0  0  0  0
   -0.8477   -5.8769   16.7795 H   0  0  0  0  0  0  0  0  0  0  0  0
   -1.9497   -6.9666   15.8495 H   0  0  0  0  0  0  0  0  0  0  0  0
  9  1  2  0
  1  3  1  0
  1 10  1  0
  3  2  1  0
  4  3  1  0
  7  4  1  0
  6  5  1  0
  5  7  1  0
  8  6  1  0
 12  8  2  3
 11  8  1  0
 15 11  1  0
 14 13  1  0
 13 15  1  0
  2 16  1  0
  2 17  1  0
  3 18  1  0
  4 19  1  0
  4 20  1  0
  5 21  1  0
  5 22  1  0
  6 23  1  0
  7 24  1  0
  7 25  1  0
 10 26  1  0
 11 27  1  0
 11 28  1  0
 12 29  1  0
 13 30  1  0
 13 31  1  0
 14 32  1  0
 14 33  1  0
 14 34  1  0
 15 35  1  0
 15 36  1  0
A    1
C
A    2
N
A    3
CA
A    4
CB
A    5
CD
A    6
NE
A    7
CG
A    8
CZ
A    9
OA1
A   10
OA2
A   11
CH1
A   12
NH2
A   13
CI1
A   14
CK1
A   15
CT1
M  END
