3P9J_P9J_A_1
     RDKit          3D

 39 42  0  0  0  0  0  0  0  0999 V2000
   -4.1450   32.5710   -2.7070 C   0  0  0  0  0  0  0  0  0  0  0  0
   -4.7360   31.7560   -3.6920 N   0  0  0  0  0  0  0  0  0  0  0  0
   -3.3330   33.6120   -3.1020 C   0  0  0  0  0  0  0  0  0  0  0  0
   -2.7800   34.4710   -2.1670 C   0  0  0  0  0  0  0  0  0  0  0  0
   -1.9660   35.5130   -2.5950 C   0  0  0  0  0  0  0  0  0  0  0  0
   -1.7060   35.6810   -3.9500 C   0  0  0  0  0  0  0  0  0  0  0  0
   -2.2670   34.8080   -4.8800 C   0  0  0  0  0  0  0  0  0  0  0  0
   -3.0850   33.7690   -4.4510 C   0  0  0  0  0  0  0  0  0  0  0  0
   -3.6560   32.8600   -5.3420 C   0  0  0  0  0  0  0  0  0  0  0  0
   -4.4180   31.8590   -4.8780 N   0  0  0  0  0  0  0  0  0  0  0  0
   -5.4650   30.6480   -3.2870 C   0  0  0  0  0  0  0  0  0  0  0  0
   -5.9310   30.5560   -1.9870 C   0  0  0  0  0  0  0  0  0  0  0  0
   -6.6880   29.4630   -1.5970 C   0  0  0  0  0  0  0  0  0  0  0  0
   -7.0120   28.4720   -2.5080 C   0  0  0  0  0  0  0  0  0  0  0  0
   -6.5740   28.5790   -3.8200 C   0  0  0  0  0  0  0  0  0  0  0  0
   -5.8410   29.6900   -4.2170 C   0  0  0  0  0  0  0  0  0  0  0  0
   -3.4610   33.0220   -6.6490 N   0  0  0  0  0  0  0  0  0  0  0  0
   -3.9380   32.2420   -7.6230 C   0  0  0  0  0  0  0  0  0  0  0  0
   -4.7010   31.1590   -7.5050 C   0  0  0  0  0  0  0  0  0  0  0  0
   -4.9170   30.8030   -8.7680 C   0  0  0  0  0  0  0  0  0  0  0  0
   -4.3380   31.6670   -9.5930 N   0  0  0  0  0  0  0  0  0  0  0  0
   -3.7710   32.5290   -8.9150 N   0  0  0  0  0  0  0  0  0  0  0  0
   -5.7110   29.5880   -9.2360 C   0  0  0  0  0  0  0  0  0  0  0  0
   -4.3720   32.4190   -1.5080 O   0  0  0  0  0  0  0  0  0  0  0  0
   -2.9832   34.3298   -1.0952 H   0  0  0  0  0  0  0  0  0  0  0  0
   -1.5273   36.2050   -1.8611 H   0  0  0  0  0  0  0  0  0  0  0  0
   -1.0576   36.5028   -4.2881 H   0  0  0  0  0  0  0  0  0  0  0  0
   -2.0628   34.9408   -5.9527 H   0  0  0  0  0  0  0  0  0  0  0  0
   -5.7002   31.3512   -1.2629 H   0  0  0  0  0  0  0  0  0  0  0  0
   -7.0341   29.3820   -0.5560 H   0  0  0  0  0  0  0  0  0  0  0  0
   -7.6126   27.6057   -2.1936 H   0  0  0  0  0  0  0  0  0  0  0  0
   -6.8069   27.7851   -4.5449 H   0  0  0  0  0  0  0  0  0  0  0  0
   -5.5576   29.8106   -5.2730 H   0  0  0  0  0  0  0  0  0  0  0  0
   -2.8866   33.8269   -6.9372 H   0  0  0  0  0  0  0  0  0  0  0  0
   -5.0648   30.6755   -6.5864 H   0  0  0  0  0  0  0  0  0  0  0  0
   -4.3583   31.6254  -10.6220 H   0  0  0  0  0  0  0  0  0  0  0  0
   -6.0760   29.0295   -8.3615 H   0  0  0  0  0  0  0  0  0  0  0  0
   -6.5667   29.9204   -9.8420 H   0  0  0  0  0  0  0  0  0  0  0  0
   -5.0630   28.9378   -9.8420 H   0  0  0  0  0  0  0  0  0  0  0  0
  2  1  1  0
  3  1  1  0
  1 24  2  0
 10  2  1  0
  2 11  1  0
  8  3  2  0
  3  4  1  0
  5  4  2  0
  6  5  1  0
  7  6  2  0
  7  8  1  0
  9  8  1  0
 17  9  1  0
  9 10  2  0
 16 11  1  0
 11 12  2  0
 12 13  1  0
 14 13  2  0
 15 14  1  0
 16 15  2  0
 18 17  1  0
 22 18  2  0
 18 19  1  0
 20 19  2  0
 21 20  1  0
 23 20  1  0
 21 22  1  0
  4 25  1  0
  5 26  1  0
  6 27  1  0
  7 28  1  0
 12 29  1  0
 13 30  1  0
 14 31  1  0
 15 32  1  0
 16 33  1  0
 17 34  1  0
 19 35  1  0
 21 36  1  0
 23 37  1  0
 23 38  1  0
 23 39  1  0
A    1
C1
A    2
N2
A    3
C3
A    4
C4
A    5
C5
A    6
C6
A    7
C7
A    8
C8
A    9
C9
A   10
N10
A   11
C11
A   12
C12
A   13
C13
A   14
C14
A   15
C15
A   16
C16
A   17
N17
A   18
C18
A   19
C19
A   20
C20
A   21
N21
A   22
N22
A   23
C23
A   24
O24
M  END
