3PA3_C70_A_1
     RDKit          3D

 44 47  0  0  0  0  0  0  0  0999 V2000
   18.7050   -2.9680   10.4390 C   0  0  0  0  0  0  0  0  0  0  0  0
   19.2210   -2.0430    9.5330 C   0  0  0  0  0  0  0  0  0  0  0  0
   18.0400   -0.9130    9.0410 S   0  0  0  0  0  0  0  0  0  0  0  0
   16.8210   -1.6100   10.0370 C   0  0  0  0  0  0  0  0  0  0  0  0
   17.3370   -2.7040   10.7400 C   0  0  0  0  0  0  0  0  0  0  0  0
   15.5540   -1.2230   10.1960 C   0  0  0  0  0  0  0  0  0  0  0  0
   14.7480   -1.9080   11.0650 N   0  0  0  0  0  0  0  0  0  0  0  0
   15.2300   -2.9480   11.7760 N   0  0  0  0  0  0  0  0  0  0  0  0
   16.4750   -3.3750   11.6670 C   0  0  0  0  0  0  0  0  0  0  0  0
   16.9490   -4.4260   12.4280 N   0  0  0  0  0  0  0  0  0  0  0  0
   20.5390   -2.0440    8.9380 C   0  0  0  0  0  0  0  0  0  0  0  0
   15.0550   -0.0500    9.5550 C   0  0  0  0  0  0  0  0  0  0  0  0
   16.2100   -4.8510   13.6030 C   0  0  0  0  0  0  0  0  0  0  0  0
   16.6070   -3.9230   14.8040 C   0  0  0  0  0  0  0  0  0  0  0  0
   15.9710   -4.3760   16.0760 N   0  0  0  0  0  0  0  0  0  0  0  0
   16.4140   -5.7440   16.4020 C   0  0  0  0  0  0  0  0  0  0  0  0
   15.9740   -6.7040   15.2750 C   0  0  0  0  0  0  0  0  0  0  0  0
   16.6550   -6.2700   13.9550 C   0  0  0  0  0  0  0  0  0  0  0  0
   21.3840   -3.1770    9.0300 C   0  0  0  0  0  0  0  0  0  0  0  0
   22.6200   -3.1730    8.3830 C   0  0  0  0  0  0  0  0  0  0  0  0
   23.0060   -2.0450    7.6780 C   0  0  0  0  0  0  0  0  0  0  0  0
   22.1760   -0.9210    7.5720 C   0  0  0  0  0  0  0  0  0  0  0  0
   20.9270   -0.9130    8.2080 C   0  0  0  0  0  0  0  0  0  0  0  0
   24.5510   -2.0560    6.8360 Cl  0  0  0  0  0  0  0  0  0  0  0  0
   13.8320    0.3670    9.8990 N   0  0  0  0  0  0  0  0  0  0  0  0
   15.7310    0.5900    8.7360 O   0  0  0  0  0  0  0  0  0  0  0  0
   19.2826   -3.7996   10.8689 H   0  0  0  0  0  0  0  0  0  0  0  0
   17.8215   -4.9052   12.1633 H   0  0  0  0  0  0  0  0  0  0  0  0
   15.1278   -4.8056   13.4114 H   0  0  0  0  0  0  0  0  0  0  0  0
   17.7003   -3.9413   14.9242 H   0  0  0  0  0  0  0  0  0  0  0  0
   16.2553   -2.9040   14.5850 H   0  0  0  0  0  0  0  0  0  0  0  0
   16.2420   -3.7389   16.8386 H   0  0  0  0  0  0  0  0  0  0  0  0
   17.5099   -5.7633   16.4944 H   0  0  0  0  0  0  0  0  0  0  0  0
   15.9627   -6.0610   17.3538 H   0  0  0  0  0  0  0  0  0  0  0  0
   16.2757   -7.7316   15.5261 H   0  0  0  0  0  0  0  0  0  0  0  0
   14.8806   -6.6689   15.1602 H   0  0  0  0  0  0  0  0  0  0  0  0
   16.3640   -6.9578   13.1474 H   0  0  0  0  0  0  0  0  0  0  0  0
   17.7479   -6.2950   14.0773 H   0  0  0  0  0  0  0  0  0  0  0  0
   21.0669   -4.0567    9.6094 H   0  0  0  0  0  0  0  0  0  0  0  0
   23.2784   -4.0528    8.4320 H   0  0  0  0  0  0  0  0  0  0  0  0
   22.5040   -0.0466    6.9908 H   0  0  0  0  0  0  0  0  0  0  0  0
   20.2654   -0.0372    8.1355 H   0  0  0  0  0  0  0  0  0  0  0  0
   13.5782    0.4535   10.8935 H   0  0  0  0  0  0  0  0  0  0  0  0
   13.1438    0.6017    9.1695 H   0  0  0  0  0  0  0  0  0  0  0  0
  2  1  2  0
  1  5  1  0
 11  2  1  0
  3  2  1  0
  3  4  1  0
  4  6  1  0
  4  5  2  0
  5  9  1  0
 12  6  1  0
  6  7  2  0
  7  8  1  0
  9  8  2  0
  9 10  1  0
 10 13  1  0
 23 11  1  0
 11 19  2  0
 26 12  2  0
 12 25  1  0
 13 18  1  0
 13 14  1  0
 14 15  1  0
 15 16  1  0
 17 16  1  0
 18 17  1  0
 20 19  1  0
 21 20  2  0
 24 21  1  0
 22 21  1  0
 22 23  2  0
  1 27  1  0
 10 28  1  0
 13 29  1  0
 14 30  1  0
 14 31  1  0
 15 32  1  0
 16 33  1  0
 16 34  1  0
 17 35  1  0
 17 36  1  0
 18 37  1  0
 18 38  1  0
 19 39  1  0
 20 40  1  0
 22 41  1  0
 23 42  1  0
 25 43  1  0
 25 44  1  0
A    1
C01
A    2
C02
A    3
S03
A    4
C04
A    5
C05
A    6
C06
A    7
N07
A    8
N08
A    9
C09
A   10
N10
A   11
C11
A   12
C12
A   13
C13
A   14
C14
A   15
N15
A   16
C16
A   17
C17
A   18
C18
A   19
C19
A   20
C20
A   21
C21
A   22
C22
A   23
C23
A   24
CL24
A   25
N25
A   26
O26
M  END
