3PA4_C72_A_1
     RDKit          3D

 45 48  0  0  0  0  0  0  0  0999 V2000
   18.3630   -2.9740   10.4180 C   0  0  0  0  0  0  0  0  0  0  0  0
   18.8580   -2.0370    9.5150 C   0  0  0  0  0  0  0  0  0  0  0  0
   17.6570   -0.9360    9.0660 S   0  0  0  0  0  0  0  0  0  0  0  0
   16.4680   -1.6520   10.0720 C   0  0  0  0  0  0  0  0  0  0  0  0
   16.9860   -2.7550   10.7430 C   0  0  0  0  0  0  0  0  0  0  0  0
   15.1290   -1.2360   10.2720 C   0  0  0  0  0  0  0  0  0  0  0  0
   14.3710   -1.9810   11.1150 C   0  0  0  0  0  0  0  0  0  0  0  0
   14.8120   -3.0400   11.7490 N   0  0  0  0  0  0  0  0  0  0  0  0
   16.1060   -3.4400   11.6610 C   0  0  0  0  0  0  0  0  0  0  0  0
   16.5340   -4.5270   12.3870 N   0  0  0  0  0  0  0  0  0  0  0  0
   20.2200   -1.9700    8.9360 C   0  0  0  0  0  0  0  0  0  0  0  0
   14.5930   -0.0750    9.5780 C   0  0  0  0  0  0  0  0  0  0  0  0
   15.8280   -4.8960   13.6230 C   0  0  0  0  0  0  0  0  0  0  0  0
   16.2220   -3.9310   14.7840 C   0  0  0  0  0  0  0  0  0  0  0  0
   15.6350   -4.4330   16.0700 N   0  0  0  0  0  0  0  0  0  0  0  0
   16.1170   -5.7830   16.4050 C   0  0  0  0  0  0  0  0  0  0  0  0
   15.6750   -6.7890   15.3280 C   0  0  0  0  0  0  0  0  0  0  0  0
   16.2700   -6.3380   13.9760 C   0  0  0  0  0  0  0  0  0  0  0  0
   20.6320   -0.8450    8.2190 C   0  0  0  0  0  0  0  0  0  0  0  0
   21.9090   -0.7930    7.6750 C   0  0  0  0  0  0  0  0  0  0  0  0
   22.7670   -1.8730    7.8620 C   0  0  0  0  0  0  0  0  0  0  0  0
   22.3730   -3.0020    8.5630 C   0  0  0  0  0  0  0  0  0  0  0  0
   21.0900   -3.0440    9.1150 C   0  0  0  0  0  0  0  0  0  0  0  0
   24.3620   -1.8100    7.1740 Cl  0  0  0  0  0  0  0  0  0  0  0  0
   13.3450    0.3870    9.9930 N   0  0  0  0  0  0  0  0  0  0  0  0
   15.2350    0.4800    8.6620 O   0  0  0  0  0  0  0  0  0  0  0  0
   18.9649   -3.7941   10.8366 H   0  0  0  0  0  0  0  0  0  0  0  0
   13.3256   -1.6788   11.2758 H   0  0  0  0  0  0  0  0  0  0  0  0
   17.3431   -5.0785   12.0673 H   0  0  0  0  0  0  0  0  0  0  0  0
   14.7390   -4.8302   13.4824 H   0  0  0  0  0  0  0  0  0  0  0  0
   17.3177   -3.8906   14.8718 H   0  0  0  0  0  0  0  0  0  0  0  0
   15.8347   -2.9235   14.5719 H   0  0  0  0  0  0  0  0  0  0  0  0
   15.8969   -3.7882   16.8294 H   0  0  0  0  0  0  0  0  0  0  0  0
   17.2154   -5.7724   16.4630 H   0  0  0  0  0  0  0  0  0  0  0  0
   15.6920   -6.0851   17.3736 H   0  0  0  0  0  0  0  0  0  0  0  0
   16.0452   -7.7933   15.5817 H   0  0  0  0  0  0  0  0  0  0  0  0
   14.5772   -6.8247   15.2679 H   0  0  0  0  0  0  0  0  0  0  0  0
   15.9260   -7.0222   13.1864 H   0  0  0  0  0  0  0  0  0  0  0  0
   17.3670   -6.3568   14.0544 H   0  0  0  0  0  0  0  0  0  0  0  0
   19.9435    0.0023    8.0846 H   0  0  0  0  0  0  0  0  0  0  0  0
   22.2374    0.0886    7.1049 H   0  0  0  0  0  0  0  0  0  0  0  0
   23.0603   -3.8525    8.6830 H   0  0  0  0  0  0  0  0  0  0  0  0
   20.7669   -3.9241    9.6904 H   0  0  0  0  0  0  0  0  0  0  0  0
   13.1330    0.4655   10.9979 H   0  0  0  0  0  0  0  0  0  0  0  0
   12.6349    0.6499    9.2948 H   0  0  0  0  0  0  0  0  0  0  0  0
  2  1  2  0
  1  5  1  0
 11  2  1  0
  3  2  1  0
  3  4  1  0
  4  6  1  0
  4  5  2  0
  5  9  1  0
 12  6  1  0
  6  7  2  0
  7  8  1  0
  9  8  2  0
  9 10  1  0
 10 13  1  0
 19 11  2  0
 11 23  1  0
 26 12  2  0
 12 25  1  0
 13 18  1  0
 13 14  1  0
 14 15  1  0
 15 16  1  0
 17 16  1  0
 18 17  1  0
 20 19  1  0
 20 21  2  0
 24 21  1  0
 21 22  1  0
 22 23  2  0
  1 27  1  0
  7 28  1  0
 10 29  1  0
 13 30  1  0
 14 31  1  0
 14 32  1  0
 15 33  1  0
 16 34  1  0
 16 35  1  0
 17 36  1  0
 17 37  1  0
 18 38  1  0
 18 39  1  0
 19 40  1  0
 20 41  1  0
 22 42  1  0
 23 43  1  0
 25 44  1  0
 25 45  1  0
A    1
C01
A    2
C02
A    3
S03
A    4
C04
A    5
C05
A    6
C06
A    7
C07
A    8
N08
A    9
C09
A   10
N10
A   11
C11
A   12
C12
A   13
C13
A   14
C14
A   15
N15
A   16
C16
A   17
C17
A   18
C18
A   19
C19
A   20
C20
A   21
C21
A   22
C22
A   23
C23
A   24
CL24
A   25
N25
A   26
O26
M  END
