3PA9_PJ7_A_500
     RDKit          3D

 12 12  0  0  0  0  0  0  0  0999 V2000
   24.3350   12.5160  -14.7410 O   0  0  0  0  0  0  0  0  0  0  0  0
   24.5540   12.9540  -12.6210 O   0  0  0  0  0  0  0  0  0  0  0  0
   22.5960   11.5080  -11.8460 O   0  0  0  0  0  0  0  0  0  0  0  0
   21.0580   10.0470  -12.7750 C   0  0  0  0  0  0  0  0  0  0  0  0
   21.4800   10.5890  -11.5720 C   0  0  0  0  0  0  0  0  0  0  0  0
   21.8780   10.5910  -13.7940 C   0  0  0  0  0  0  0  0  0  0  0  0
   22.7960   11.4700  -13.1890 C   0  0  0  0  0  0  0  0  0  0  0  0
   23.9470   12.3700  -13.5620 C   0  0  0  0  0  0  0  0  0  0  0  0
   24.3316   12.7400  -11.6804 H   0  0  0  0  0  0  0  0  0  0  0  0
   20.2378    9.3272  -12.9134 H   0  0  0  0  0  0  0  0  0  0  0  0
   21.0539   10.3699  -10.5818 H   0  0  0  0  0  0  0  0  0  0  0  0
   21.8094   10.3662  -14.8686 H   0  0  0  0  0  0  0  0  0  0  0  0
  1  8  2  0
  8  2  1  0
  7  3  1  0
  3  5  1  0
  6  4  1  0
  4  5  2  0
  6  7  2  0
  8  7  1  0
  2  9  1  0
  4 10  1  0
  5 11  1  0
  6 12  1  0
A    1
O1
A    2
O2
A    3
O3
A    4
C5
A    5
C6
A    6
C7
A    7
C8
A    8
C9
M  END
