3PAH_XDE_A_700
     RDKit          3D

 26 26  0  0  0  0  0  0  0  0999 V2000
   -5.1290   25.3450    4.9170 C   0  0  0  0  0  0  0  0  0  0  0  0
   -3.8640   24.9550    4.3240 C   0  0  0  0  0  0  0  0  0  0  0  0
   -2.6510   25.1960    5.0420 C   0  0  0  0  0  0  0  0  0  0  0  0
   -2.7350   25.8180    6.3310 C   0  0  0  0  0  0  0  0  0  0  0  0
   -3.9670   26.1990    6.8880 C   0  0  0  0  0  0  0  0  0  0  0  0
   -5.1460   25.9750    6.2060 C   0  0  0  0  0  0  0  0  0  0  0  0
   -1.3790   24.8380    4.5470 O   0  0  0  0  0  0  0  0  0  0  0  0
   -1.6050   26.0520    7.0570 O   0  0  0  0  0  0  0  0  0  0  0  0
   -6.2890   25.1560    2.7930 O   0  0  0  0  0  0  0  0  0  0  0  0
   -8.2520   24.4080    6.5930 C   0  0  0  0  0  0  0  0  0  0  0  0
   -8.0740   25.8470    6.0950 N   0  0  0  0  0  0  0  0  0  0  0  0
   -7.6140   26.0800    4.6560 C   0  0  0  0  0  0  0  0  0  0  0  0
   -6.4750   25.0710    4.1940 C   0  0  0  0  0  0  0  0  0  0  0  0
   -3.8380   24.4790    3.3327 H   0  0  0  0  0  0  0  0  0  0  0  0
   -3.9924   26.6803    7.8768 H   0  0  0  0  0  0  0  0  0  0  0  0
   -6.1034   26.2810    6.6530 H   0  0  0  0  0  0  0  0  0  0  0  0
   -0.6433   24.6309    5.1762 H   0  0  0  0  0  0  0  0  0  0  0  0
   -1.6418   26.0444    8.0463 H   0  0  0  0  0  0  0  0  0  0  0  0
   -5.4056   25.5597    2.6013 H   0  0  0  0  0  0  0  0  0  0  0  0
   -8.2532   24.3982    7.6930 H   0  0  0  0  0  0  0  0  0  0  0  0
   -9.2066   24.0069    6.2217 H   0  0  0  0  0  0  0  0  0  0  0  0
   -7.4239   23.7864    6.2217 H   0  0  0  0  0  0  0  0  0  0  0  0
   -7.3807   26.2960    6.7103 H   0  0  0  0  0  0  0  0  0  0  0  0
   -7.2268   27.1063    4.5741 H   0  0  0  0  0  0  0  0  0  0  0  0
   -8.4835   25.9144    4.0029 H   0  0  0  0  0  0  0  0  0  0  0  0
   -6.8036   24.0569    4.4655 H   0  0  0  0  0  0  0  0  0  0  0  0
  9 13  1  0
 13 12  1  0
 13  1  1  0
  2  1  2  0
  2  3  1  0
  7  3  1  0
 12 11  1  0
  1  6  1  0
  3  4  2  0
 11 10  1  0
  6  5  2  0
  4  5  1  0
  4  8  1  0
  2 14  1  0
  5 15  1  0
  6 16  1  0
  7 17  1  0
  8 18  1  0
  9 19  1  0
 10 20  1  0
 10 21  1  0
 10 22  1  0
 11 23  1  0
 12 24  1  0
 12 25  1  0
 13 26  1  0
A    1
C1
A    2
C2
A    3
C3
A    4
C4
A    5
C5
A    6
C6
A    7
O1
A    8
O2
A    9
O3
A   10
C9
A   11
N1
A   12
C8
A   13
C7
M  END
