3PB5_F63_A_1001
     RDKit          3D

 27 28  0  0  0  0  0  0  0  0999 V2000
   -1.8300    0.6830   10.9580 O   0  0  0  0  0  0  0  0  0  0  0  0
   -0.1510    3.5890    9.5800 N   0  0  0  0  0  0  0  0  0  0  0  0
   -0.4200    2.4520   10.2690 C   0  0  0  0  0  0  0  0  0  0  0  0
   -1.7030    1.9190   10.3810 C   0  0  0  0  0  0  0  0  0  0  0  0
   -2.7560    2.5600    9.7300 C   0  0  0  0  0  0  0  0  0  0  0  0
   -2.5100    3.7610    9.0620 C   0  0  0  0  0  0  0  0  0  0  0  0
   -1.2060    4.2410    9.0280 C   0  0  0  0  0  0  0  0  0  0  0  0
   -2.9760    0.0080   10.8830 C   0  0  0  0  0  0  0  0  0  0  0  0
   -4.0400    0.5530   11.5470 O   0  0  0  0  0  0  0  0  0  0  0  0
   -5.1100   -0.2640   11.2880 C   0  0  0  0  0  0  0  0  0  0  0  0
   -4.7110   -1.3590   10.5450 C   0  0  0  0  0  0  0  0  0  0  0  0
   -3.3270   -1.1850   10.2870 C   0  0  0  0  0  0  0  0  0  0  0  0
   -6.3660    0.0940   12.0000 C   0  0  0  0  0  0  0  0  0  0  0  0
   -7.3010    0.7430   11.0840 N   0  0  0  0  0  0  0  0  0  0  0  0
   -7.7620   -0.2050   10.0670 C   0  0  0  0  0  0  0  0  0  0  0  0
    0.4118    1.9270   10.7615 H   0  0  0  0  0  0  0  0  0  0  0  0
   -3.7665    2.1256    9.7425 H   0  0  0  0  0  0  0  0  0  0  0  0
   -3.3272    4.3133    8.5751 H   0  0  0  0  0  0  0  0  0  0  0  0
   -1.0186    5.2018    8.5263 H   0  0  0  0  0  0  0  0  0  0  0  0
   -5.3417   -2.1990   10.2184 H   0  0  0  0  0  0  0  0  0  0  0  0
   -2.6679   -1.8636    9.7257 H   0  0  0  0  0  0  0  0  0  0  0  0
   -6.8278   -0.8195   12.4028 H   0  0  0  0  0  0  0  0  0  0  0  0
   -6.1274    0.7884   12.8191 H   0  0  0  0  0  0  0  0  0  0  0  0
   -8.1115    1.0902   11.6163 H   0  0  0  0  0  0  0  0  0  0  0  0
   -8.1923   -1.0899   10.5588 H   0  0  0  0  0  0  0  0  0  0  0  0
   -8.5277    0.2742    9.4392 H   0  0  0  0  0  0  0  0  0  0  0  0
   -6.9122   -0.5113    9.4392 H   0  0  0  0  0  0  0  0  0  0  0  0
  4  1  1  0
  8  1  1  0
  7  2  2  0
  2  3  1  0
  3  4  2  0
  5  4  1  0
  6  5  2  0
  7  6  1  0
 12  8  2  0
  8  9  1  0
 10  9  1  0
 11 10  2  0
 10 13  1  0
 12 11  1  0
 14 13  1  0
 15 14  1  0
  3 16  1  0
  5 17  1  0
  6 18  1  0
  7 19  1  0
 11 20  1  0
 12 21  1  0
 13 22  1  0
 13 23  1  0
 14 24  1  0
 15 25  1  0
 15 26  1  0
 15 27  1  0
A    1
O1
A    2
N2
A    3
C3
A    4
C4
A    5
C5
A    6
C6
A    7
C7
A    8
C8
A    9
O9
A   10
C10
A   11
C11
A   12
C12
A   13
C13
A   14
N14
A   15
C15
M  END
