3PBA_ZXG_A_1
     RDKit          3D

 37 38  0  0  0  0  0  0  0  0999 V2000
   18.2510   17.7820    9.8560 C   0  0  0  0  0  0  0  0  0  0  0  0
   16.5820   15.9300    9.9890 C   0  0  0  0  0  0  0  0  0  0  0  0
   19.5000   15.8060   16.5810 O   0  0  0  0  0  0  0  0  0  0  0  0
   19.4480   18.2690   16.8220 O   0  0  0  0  0  0  0  0  0  0  0  0
   12.8200   20.9260    9.0890 O   0  0  0  0  0  0  0  0  0  0  0  0
   18.3340   16.8460   18.3570 O   0  0  0  0  0  0  0  0  0  0  0  0
   15.5470   22.3280    9.3370 Br  0  0  0  0  0  0  0  0  0  0  0  0
   11.7130   18.0760    9.3970 Br  0  0  0  0  0  0  0  0  0  0  0  0
   20.3840   17.0690   14.5430 Br  0  0  0  0  0  0  0  0  0  0  0  0
   14.5900   17.1200   15.2830 Br  0  0  0  0  0  0  0  0  0  0  0  0
   16.1160   19.6100    9.9380 C   0  0  0  0  0  0  0  0  0  0  0  0
   14.5140   17.8040    9.9650 C   0  0  0  0  0  0  0  0  0  0  0  0
   18.3860   17.1890   12.5940 C   0  0  0  0  0  0  0  0  0  0  0  0
   16.0140   17.2150   12.8550 C   0  0  0  0  0  0  0  0  0  0  0  0
   17.4440   17.0370   16.2030 O   0  0  0  0  0  0  0  0  0  0  0  0
   15.1080   20.5000    9.5900 C   0  0  0  0  0  0  0  0  0  0  0  0
   13.5000   18.6960    9.6160 C   0  0  0  0  0  0  0  0  0  0  0  0
   18.5680   17.1220   13.9750 C   0  0  0  0  0  0  0  0  0  0  0  0
   16.1710   17.1460   14.2330 C   0  0  0  0  0  0  0  0  0  0  0  0
   13.8010   20.0460    9.4290 C   0  0  0  0  0  0  0  0  0  0  0  0
   15.8200   18.2680   10.1290 C   0  0  0  0  0  0  0  0  0  0  0  0
   17.1220   17.2400   12.0270 C   0  0  0  0  0  0  0  0  0  0  0  0
   17.4400   17.1010   14.8240 C   0  0  0  0  0  0  0  0  0  0  0  0
   16.9500   17.3100   10.5040 C   0  0  0  0  0  0  0  0  0  0  0  0
   18.6690   16.9940   16.9740 S   0  0  0  0  0  0  0  0  0  0  0  0
   18.9766   18.0452   10.6398 H   0  0  0  0  0  0  0  0  0  0  0  0
   18.6628   16.9760    9.2309 H   0  0  0  0  0  0  0  0  0  0  0  0
   18.0502   18.6646    9.2309 H   0  0  0  0  0  0  0  0  0  0  0  0
   16.4025   15.2568   10.8402 H   0  0  0  0  0  0  0  0  0  0  0  0
   15.6706   15.9981    9.3768 H   0  0  0  0  0  0  0  0  0  0  0  0
   17.4063   15.5353    9.3768 H   0  0  0  0  0  0  0  0  0  0  0  0
   12.3038   21.3891    9.7955 H   0  0  0  0  0  0  0  0  0  0  0  0
   19.0821   17.1765   18.9149 H   0  0  0  0  0  0  0  0  0  0  0  0
   17.1484   19.9689   10.0621 H   0  0  0  0  0  0  0  0  0  0  0  0
   14.2850   16.7380   10.1105 H   0  0  0  0  0  0  0  0  0  0  0  0
   19.2685   17.2017   11.9374 H   0  0  0  0  0  0  0  0  0  0  0  0
   15.0043   17.2499   12.4199 H   0  0  0  0  0  0  0  0  0  0  0  0
  1 24  1  0
  2 24  1  0
  3 25  2  0
  4 25  2  0
  5 20  1  0
 25  6  1  0
  7 16  1  0
  8 17  1  0
 18  9  1  0
 19 10  1  0
 16 11  2  0
 11 21  1  0
 17 12  1  0
 12 21  2  0
 22 13  2  0
 13 18  1  0
 22 14  1  0
 14 19  2  0
 23 15  1  0
 15 25  1  0
 20 16  1  0
 20 17  2  0
 18 23  2  0
 19 23  1  0
 21 24  1  0
 24 22  1  0
  1 26  1  0
  1 27  1  0
  1 28  1  0
  2 29  1  0
  2 30  1  0
  2 31  1  0
  5 32  1  0
  6 33  1  0
 11 34  1  0
 12 35  1  0
 13 36  1  0
 14 37  1  0
A    1
CAA
A    2
CAB
A    3
OAC
A    4
OAD
A    5
OAE
A    6
OAF
A    7
BRAG
A    8
BRAH
A    9
BRAI
A   10
BRAJ
A   11
CAK
A   12
CAL
A   13
CAM
A   14
CAN
A   15
OAO
A   16
CAP
A   17
CAQ
A   18
CAR
A   19
CAS
A   20
CAT
A   21
CAU
A   22
CAV
A   23
CAW
A   24
CAX
A   25
SAY
M  END
