3PBL_ETQ_A_1200
     RDKit          3D

 48 49  0  0  0  0  0  0  0  0999 V2000
   -0.8080  -12.3360   10.5520 C   0  0  0  0  0  0  0  0  0  0  0  0
    1.1690  -15.2760   11.4810 N   0  0  0  0  0  0  0  0  0  0  0  0
   -1.5290  -12.2300   11.6990 O   0  0  0  0  0  0  0  0  0  0  0  0
    1.6090  -12.6560    6.7620 Cl  0  0  0  0  0  0  0  0  0  0  0  0
   -0.8770  -11.3050    9.6070 C   0  0  0  0  0  0  0  0  0  0  0  0
    0.6270  -18.2630   11.1450 N   0  0  0  0  0  0  0  0  0  0  0  0
    1.5050  -14.6500    8.8870 O   0  0  0  0  0  0  0  0  0  0  0  0
   -0.1100  -11.4090    8.4450 C   0  0  0  0  0  0  0  0  0  0  0  0
   -0.8960  -14.7200   12.2060 O   0  0  0  0  0  0  0  0  0  0  0  0
    0.6880  -12.5280    8.2200 C   0  0  0  0  0  0  0  0  0  0  0  0
    0.7350  -13.5620    9.1540 C   0  0  0  0  0  0  0  0  0  0  0  0
    0.7760  -15.5290    8.0190 C   0  0  0  0  0  0  0  0  0  0  0  0
   -0.0250  -13.4780   10.3280 C   0  0  0  0  0  0  0  0  0  0  0  0
    0.0360  -14.5730   11.4180 C   0  0  0  0  0  0  0  0  0  0  0  0
    1.4140  -16.3390   12.4760 C   0  0  0  0  0  0  0  0  0  0  0  0
    0.3760  -17.4610   12.3600 C   0  0  0  0  0  0  0  0  0  0  0  0
    0.5220  -18.4140   13.5440 C   0  0  0  0  0  0  0  0  0  0  0  0
    1.5090  -19.4450   13.0220 C   0  0  0  0  0  0  0  0  0  0  0  0
    1.0590  -19.6070   11.5780 C   0  0  0  0  0  0  0  0  0  0  0  0
   -0.6220  -18.3630   10.3780 C   0  0  0  0  0  0  0  0  0  0  0  0
   -0.3200  -18.6260    8.9100 C   0  0  0  0  0  0  0  0  0  0  0  0
   -1.6890  -10.0110    9.7860 C   0  0  0  0  0  0  0  0  0  0  0  0
   -3.1870  -10.2710    9.9600 C   0  0  0  0  0  0  0  0  0  0  0  0
    1.9119  -15.0657   10.7992 H   0  0  0  0  0  0  0  0  0  0  0  0
   -1.0757  -12.2966   12.5766 H   0  0  0  0  0  0  0  0  0  0  0  0
   -0.1362  -10.5997    7.7004 H   0  0  0  0  0  0  0  0  0  0  0  0
    0.1890  -16.2368    8.6228 H   0  0  0  0  0  0  0  0  0  0  0  0
    0.0986  -14.9388    7.3843 H   0  0  0  0  0  0  0  0  0  0  0  0
    1.4813  -16.0855    7.3843 H   0  0  0  0  0  0  0  0  0  0  0  0
    2.4167  -16.7601   12.3108 H   0  0  0  0  0  0  0  0  0  0  0  0
    1.3375  -15.8981   13.4808 H   0  0  0  0  0  0  0  0  0  0  0  0
   -0.6224  -17.0002   12.3296 H   0  0  0  0  0  0  0  0  0  0  0  0
    0.9221  -17.8926   14.4261 H   0  0  0  0  0  0  0  0  0  0  0  0
   -0.4323  -18.8505   13.8737 H   0  0  0  0  0  0  0  0  0  0  0  0
    2.5430  -19.0741   13.0797 H   0  0  0  0  0  0  0  0  0  0  0  0
    1.5145  -20.3846   13.5940 H   0  0  0  0  0  0  0  0  0  0  0  0
    0.2227  -20.3187   11.5137 H   0  0  0  0  0  0  0  0  0  0  0  0
    1.8652  -20.0007   10.9416 H   0  0  0  0  0  0  0  0  0  0  0  0
   -1.2282  -19.1894   10.7776 H   0  0  0  0  0  0  0  0  0  0  0  0
   -1.1730  -17.4150   10.4659 H   0  0  0  0  0  0  0  0  0  0  0  0
    0.5073  -19.3465    8.8292 H   0  0  0  0  0  0  0  0  0  0  0  0
   -1.2143  -19.0381    8.4198 H   0  0  0  0  0  0  0  0  0  0  0  0
   -0.0346  -17.6835    8.4198 H   0  0  0  0  0  0  0  0  0  0  0  0
   -1.3179   -9.4835   10.6771 H   0  0  0  0  0  0  0  0  0  0  0  0
   -1.5606   -9.4102    8.8736 H   0  0  0  0  0  0  0  0  0  0  0  0
   -3.4297  -10.3131   11.0321 H   0  0  0  0  0  0  0  0  0  0  0  0
   -3.7576   -9.4585    9.4865 H   0  0  0  0  0  0  0  0  0  0  0  0
   -3.4504  -11.2283    9.4865 H   0  0  0  0  0  0  0  0  0  0  0  0
  1  3  1  0
  1  5  2  0
  1 13  1  0
  2 14  1  0
  2 15  1  0
  4 10  1  0
  5  8  1  0
  5 22  1  0
  6 16  1  0
  6 19  1  0
  6 20  1  0
  7 11  1  0
  7 12  1  0
  8 10  2  0
  9 14  2  0
 10 11  1  0
 11 13  2  0
 13 14  1  0
 15 16  1  0
 16 17  1  0
 17 18  1  0
 18 19  1  0
 20 21  1  0
 22 23  1  0
  2 24  1  0
  3 25  1  0
  8 26  1  0
 12 27  1  0
 12 28  1  0
 12 29  1  0
 15 30  1  0
 15 31  1  0
 16 32  1  0
 17 33  1  0
 17 34  1  0
 18 35  1  0
 18 36  1  0
 19 37  1  0
 19 38  1  0
 20 39  1  0
 20 40  1  0
 21 41  1  0
 21 42  1  0
 21 43  1  0
 22 44  1  0
 22 45  1  0
 23 46  1  0
 23 47  1  0
 23 48  1  0
A    1
C1
A    2
N1
A    3
O1
A    4
CL1
A    5
C2
A    6
N2
A    7
O2
A    8
C3
A    9
O3
A   10
C4
A   11
C5
A   12
C6
A   13
C7
A   14
C8
A   15
C9
A   16
C10
A   17
C11
A   18
C12
A   19
C13
A   20
C14
A   21
C15
A   22
C16
A   23
C17
M  END
