3PCJ_INO_M_550
     RDKit          3D

 16 16  0  0  0  0  0  0  0  0999 V2000
   13.3610    9.7970   41.4810 N   0  0  0  0  0  0  0  0  0  0  0  0
   14.3500    9.5850   40.6410 C   0  0  0  0  0  0  0  0  0  0  0  0
   15.1420   10.6250   40.1820 C   0  0  0  0  0  0  0  0  0  0  0  0
   14.8770   11.9410   40.6080 C   0  0  0  0  0  0  0  0  0  0  0  0
   13.7720   12.1530   41.4500 C   0  0  0  0  0  0  0  0  0  0  0  0
   13.0390   11.0370   41.8950 C   0  0  0  0  0  0  0  0  0  0  0  0
   15.7860   13.1060   40.1640 C   0  0  0  0  0  0  0  0  0  0  0  0
   16.7390   12.8800   39.4340 O   0  0  0  0  0  0  0  0  0  0  0  0
   15.5690   14.2670   40.5150 O   0  0  0  0  0  0  0  0  0  0  0  0
   14.5980    8.4430   40.2390 O   0  0  0  0  0  0  0  0  0  0  0  0
   12.6050    8.7900   41.8880 O   0  0  0  0  0  0  0  0  0  0  0  0
   15.9725   10.4241   39.4893 H   0  0  0  0  0  0  0  0  0  0  0  0
   13.4858   13.1704   41.7550 H   0  0  0  0  0  0  0  0  0  0  0  0
   12.1958   11.1791   42.5870 H   0  0  0  0  0  0  0  0  0  0  0  0
   15.5267   14.4933   41.4779 H   0  0  0  0  0  0  0  0  0  0  0  0
   14.7565    7.7130   40.8887 H   0  0  0  0  0  0  0  0  0  0  0  0
  1  2  2  0
  1  6  1  0
  1 11  1  0
  2  3  1  0
  2 10  1  0
  3  4  2  0
  4  5  1  0
  4  7  1  0
  5  6  2  0
  7  8  2  0
  7  9  1  0
  3 12  1  0
  5 13  1  0
  6 14  1  0
  9 15  1  0
 10 16  1  0
M  CHG  2   1   1  11  -1
A    1
N1
A    2
C2
A    3
C3
A    4
C4
A    5
C5
A    6
C6
A    7
C7
A    8
O1
A    9
O2
A   10
O3
A   11
O4
M  END
