3PCK_NNO_M_550
     RDKit          3D

 16 16  0  0  0  0  0  0  0  0999 V2000
   14.1890    9.4890   40.7470 N   0  0  0  0  0  0  0  0  0  0  0  0
   14.9550   10.4550   40.3000 C   0  0  0  0  0  0  0  0  0  0  0  0
   14.8000   11.8160   40.6900 C   0  0  0  0  0  0  0  0  0  0  0  0
   13.7500   12.1190   41.5570 C   0  0  0  0  0  0  0  0  0  0  0  0
   12.9350   11.1110   42.0320 C   0  0  0  0  0  0  0  0  0  0  0  0
   13.1750    9.7930   41.5940 C   0  0  0  0  0  0  0  0  0  0  0  0
   15.7760   12.9150   40.2280 C   0  0  0  0  0  0  0  0  0  0  0  0
   16.6970   12.6030   39.4700 O   0  0  0  0  0  0  0  0  0  0  0  0
   15.6570   14.0890   40.5750 O   0  0  0  0  0  0  0  0  0  0  0  0
   12.3610    8.8800   41.9840 O   0  0  0  0  0  0  0  0  0  0  0  0
   14.3270    8.3100   40.3520 O   0  0  0  0  0  0  0  0  0  0  0  0
   15.7558   10.2019   39.5896 H   0  0  0  0  0  0  0  0  0  0  0  0
   13.5715   13.1607   41.8621 H   0  0  0  0  0  0  0  0  0  0  0  0
   12.1182   11.3311   42.7352 H   0  0  0  0  0  0  0  0  0  0  0  0
   15.6335   14.3208   41.5372 H   0  0  0  0  0  0  0  0  0  0  0  0
   12.2205    8.7224   42.9512 H   0  0  0  0  0  0  0  0  0  0  0  0
  1  2  2  0
  1  6  1  0
  1 11  1  0
  2  3  1  0
  3  4  2  0
  3  7  1  0
  4  5  1  0
  5  6  2  0
  6 10  1  0
  7  8  2  0
  7  9  1  0
  2 12  1  0
  4 13  1  0
  5 14  1  0
  9 15  1  0
 10 16  1  0
M  CHG  2   1   1  11  -1
A    1
N1
A    2
C2
A    3
C3
A    4
C4
A    5
C5
A    6
C6
A    7
C7
A    8
O1
A    9
O2
A   10
O4
A   11
O3
M  END
