3PCU_LX8_A_1
     RDKit          3D

 50 52  0  0  0  0  0  0  0  0999 V2000
  -19.3250   -0.0320    7.4080 C   0  0  0  0  0  0  0  0  0  0  0  0
  -20.9670    9.7580    2.1320 C   0  0  0  0  0  0  0  0  0  0  0  0
  -20.6690   -1.7170    5.6440 C   0  0  0  0  0  0  0  0  0  0  0  0
  -18.4110   -2.7370    5.1910 C   0  0  0  0  0  0  0  0  0  0  0  0
  -18.8480    7.4990    3.0840 C   0  0  0  0  0  0  0  0  0  0  0  0
  -17.4100    7.1880    1.0170 C   0  0  0  0  0  0  0  0  0  0  0  0
  -18.6320   10.0380    1.7100 O   0  0  0  0  0  0  0  0  0  0  0  0
  -19.3730   -2.1650    2.5310 O   0  0  0  0  0  0  0  0  0  0  0  0
  -18.6070   -0.7860    6.4790 C   0  0  0  0  0  0  0  0  0  0  0  0
  -18.7200    2.9780    3.6680 C   0  0  0  0  0  0  0  0  0  0  0  0
  -18.9610    2.1960    0.9820 C   0  0  0  0  0  0  0  0  0  0  0  0
  -18.8570    0.7780    4.3740 C   0  0  0  0  0  0  0  0  0  0  0  0
  -18.6430    5.3690    2.7370 C   0  0  0  0  0  0  0  0  0  0  0  0
  -19.5860    8.1380    0.8820 O   0  0  0  0  0  0  0  0  0  0  0  0
  -18.8170    4.7240    0.5810 O   0  0  0  0  0  0  0  0  0  0  0  0
  -19.0840   -0.1010    1.7270 O   0  0  0  0  0  0  0  0  0  0  0  0
  -19.6320    9.3280    1.5620 C   0  0  0  0  0  0  0  0  0  0  0  0
  -18.7250    3.9010    2.6560 C   0  0  0  0  0  0  0  0  0  0  0  0
  -18.8460    3.5550    1.3130 C   0  0  0  0  0  0  0  0  0  0  0  0
  -19.0820   -0.5530    4.1280 C   0  0  0  0  0  0  0  0  0  0  0  0
  -19.1910   -0.9770    2.7900 C   0  0  0  0  0  0  0  0  0  0  0  0
  -18.8120    1.6530    3.3280 C   0  0  0  0  0  0  0  0  0  0  0  0
  -18.9600    1.2350    2.0060 C   0  0  0  0  0  0  0  0  0  0  0  0
  -19.3690    5.7370    1.4810 C   0  0  0  0  0  0  0  0  0  0  0  0
  -19.1840   -1.4420    5.3840 C   0  0  0  0  0  0  0  0  0  0  0  0
  -18.8170    7.1560    1.5870 C   0  0  0  0  0  0  0  0  0  0  0  0
  -18.8012    0.4550    8.2437 H   0  0  0  0  0  0  0  0  0  0  0  0
  -20.4149    0.0754    7.3046 H   0  0  0  0  0  0  0  0  0  0  0  0
  -20.9187    9.7424    3.2308 H   0  0  0  0  0  0  0  0  0  0  0  0
  -21.2008   10.7769    1.7897 H   0  0  0  0  0  0  0  0  0  0  0  0
  -21.7515    9.0671    1.7897 H   0  0  0  0  0  0  0  0  0  0  0  0
  -20.8513   -1.7508    6.7283 H   0  0  0  0  0  0  0  0  0  0  0  0
  -21.2744   -0.9157    5.1952 H   0  0  0  0  0  0  0  0  0  0  0  0
  -20.9473   -2.6819    5.1952 H   0  0  0  0  0  0  0  0  0  0  0  0
  -18.1571   -3.1623    6.1732 H   0  0  0  0  0  0  0  0  0  0  0  0
  -19.0295   -3.4531    4.6301 H   0  0  0  0  0  0  0  0  0  0  0  0
  -17.4871   -2.5324    4.6301 H   0  0  0  0  0  0  0  0  0  0  0  0
  -18.7644    6.5743    3.6738 H   0  0  0  0  0  0  0  0  0  0  0  0
  -18.0064    8.1650    3.3251 H   0  0  0  0  0  0  0  0  0  0  0  0
  -19.7954    8.0033    3.3251 H   0  0  0  0  0  0  0  0  0  0  0  0
  -16.6810    7.2046    1.8406 H   0  0  0  0  0  0  0  0  0  0  0  0
  -17.2444    6.2934    0.3987 H   0  0  0  0  0  0  0  0  0  0  0  0
  -17.2853    8.0892    0.3987 H   0  0  0  0  0  0  0  0  0  0  0  0
  -17.5187   -0.8706    6.6152 H   0  0  0  0  0  0  0  0  0  0  0  0
  -18.6446    3.2899    4.7201 H   0  0  0  0  0  0  0  0  0  0  0  0
  -19.0511    1.8865   -0.0697 H   0  0  0  0  0  0  0  0  0  0  0  0
  -18.7143    1.1361    5.4043 H   0  0  0  0  0  0  0  0  0  0  0  0
  -19.1512    5.7579    3.6317 H   0  0  0  0  0  0  0  0  0  0  0  0
  -17.6233    5.7732    2.8192 H   0  0  0  0  0  0  0  0  0  0  0  0
  -20.4386    5.7444    1.2245 H   0  0  0  0  0  0  0  0  0  0  0  0
  1  9  2  3
  2 17  1  0
  3 25  1  0
  4 25  1  0
  5 26  1  0
  6 26  1  0
  7 17  2  0
  8 21  2  0
  9 25  1  0
 10 18  2  0
 10 22  1  0
 11 19  2  0
 11 23  1  0
 12 20  2  0
 12 22  1  0
 13 18  1  0
 13 24  1  0
 14 17  1  0
 14 26  1  0
 15 19  1  0
 15 24  1  0
 16 21  1  0
 16 23  1  0
 18 19  1  0
 20 21  1  0
 20 25  1  0
 22 23  2  0
 24 26  1  0
  1 27  1  0
  1 28  1  0
  2 29  1  0
  2 30  1  0
  2 31  1  0
  3 32  1  0
  3 33  1  0
  3 34  1  0
  4 35  1  0
  4 36  1  0
  4 37  1  0
  5 38  1  0
  5 39  1  0
  5 40  1  0
  6 41  1  0
  6 42  1  0
  6 43  1  0
  9 44  1  0
 10 45  1  0
 11 46  1  0
 12 47  1  0
 13 48  1  0
 13 49  1  0
 24 50  1  0
A    1
CAA
A    2
CAB
A    3
CAC
A    4
CAD
A    5
CAE
A    6
CAF
A    7
OAG
A    8
OAH
A    9
CAI
A   10
CAJ
A   11
CAK
A   12
CAL
A   13
CAM
A   14
OAN
A   15
OAO
A   16
OAP
A   17
CAQ
A   18
CAR
A   19
CAS
A   20
CAT
A   21
CAU
A   22
CAV
A   23
CAW
A   24
CAX
A   25
CAY
A   26
CAZ
M  END
