3PD3_A3T_A_148
     RDKit          3D

 47 49  0  0  0  0  0  0  0  0999 V2000
    7.9710    4.2830  -14.2220 C   0  0  0  0  0  0  0  0  0  0  0  0
    7.9690    2.1420  -13.0520 N   0  0  0  0  0  0  0  0  0  0  0  0
    9.1750    4.5880  -13.6710 O   0  0  0  0  0  0  0  0  0  0  0  0
   14.0130    7.1450  -16.8330 N   0  0  0  0  0  0  0  0  0  0  0  0
   13.3490    6.0040  -16.8930 C   0  0  0  0  0  0  0  0  0  0  0  0
   12.0760    5.9550  -17.2430 N   0  0  0  0  0  0  0  0  0  0  0  0
   11.4080    7.0770  -17.5480 C   0  0  0  0  0  0  0  0  0  0  0  0
   12.0710    8.2960  -17.4900 C   0  0  0  0  0  0  0  0  0  0  0  0
   13.4110    8.3070  -17.1240 C   0  0  0  0  0  0  0  0  0  0  0  0
   14.0880    9.4520  -17.0860 N   0  0  0  0  0  0  0  0  0  0  0  0
   11.1990    9.2420  -17.8240 N   0  0  0  0  0  0  0  0  0  0  0  0
   10.0370    8.6480  -18.0850 C   0  0  0  0  0  0  0  0  0  0  0  0
    7.4910    4.8310  -15.3360 N   0  0  0  0  0  0  0  0  0  0  0  0
   10.1590    7.3320  -17.9270 N   0  0  0  0  0  0  0  0  0  0  0  0
    7.1040    3.2320  -13.5260 C   0  0  0  0  0  0  0  0  0  0  0  0
    6.3590    3.8440  -12.3380 C   0  0  0  0  0  0  0  0  0  0  0  0
    5.3880    2.9000  -11.8760 O   0  0  0  0  0  0  0  0  0  0  0  0
    9.1040    6.3420  -18.2440 C   0  0  0  0  0  0  0  0  0  0  0  0
    9.0220    5.1860  -17.2450 C   0  0  0  0  0  0  0  0  0  0  0  0
    8.2680    4.1160  -17.8220 O   0  0  0  0  0  0  0  0  0  0  0  0
    8.2120    5.8380  -16.1280 C   0  0  0  0  0  0  0  0  0  0  0  0
    7.2070    6.6810  -16.9140 C   0  0  0  0  0  0  0  0  0  0  0  0
    7.8270    6.9990  -18.1730 O   0  0  0  0  0  0  0  0  0  0  0  0
    6.8910    7.9530  -16.1240 C   0  0  0  0  0  0  0  0  0  0  0  0
    8.1040    8.6350  -15.7950 O   0  0  0  0  0  0  0  0  0  0  0  0
    5.7070    5.1790  -12.7060 C   0  0  0  0  0  0  0  0  0  0  0  0
    7.9764    2.1327  -12.0221 H   0  0  0  0  0  0  0  0  0  0  0  0
    7.6096    1.2420  -13.4009 H   0  0  0  0  0  0  0  0  0  0  0  0
   13.8711    5.0683  -16.6444 H   0  0  0  0  0  0  0  0  0  0  0  0
   14.3370    9.8732  -16.1797 H   0  0  0  0  0  0  0  0  0  0  0  0
   14.3630    9.9171  -17.9629 H   0  0  0  0  0  0  0  0  0  0  0  0
    9.1147    9.1665  -18.3860 H   0  0  0  0  0  0  0  0  0  0  0  0
    6.5607    4.5323  -15.6619 H   0  0  0  0  0  0  0  0  0  0  0  0
    6.3617    2.8482  -14.2414 H   0  0  0  0  0  0  0  0  0  0  0  0
    7.0758    4.0616  -11.5325 H   0  0  0  0  0  0  0  0  0  0  0  0
    5.3801    2.8924  -10.8861 H   0  0  0  0  0  0  0  0  0  0  0  0
    9.3528    5.9410  -19.2376 H   0  0  0  0  0  0  0  0  0  0  0  0
    9.9898    4.7670  -16.9324 H   0  0  0  0  0  0  0  0  0  0  0  0
    7.8772    3.5614  -17.1010 H   0  0  0  0  0  0  0  0  0  0  0  0
    8.8326    6.4024  -15.4165 H   0  0  0  0  0  0  0  0  0  0  0  0
    6.2616    6.1438  -17.0805 H   0  0  0  0  0  0  0  0  0  0  0  0
    6.2554    8.6124  -16.7333 H   0  0  0  0  0  0  0  0  0  0  0  0
    6.3645    7.6823  -15.1969 H   0  0  0  0  0  0  0  0  0  0  0  0
    8.1967    8.6871  -14.8107 H   0  0  0  0  0  0  0  0  0  0  0  0
    5.4414    5.7229  -11.7875 H   0  0  0  0  0  0  0  0  0  0  0  0
    6.4126    5.7809  -13.2975 H   0  0  0  0  0  0  0  0  0  0  0  0
    4.7985    4.9926  -13.2975 H   0  0  0  0  0  0  0  0  0  0  0  0
  1  3  2  0
  1 13  1  0
  1 15  1  0
  2 15  1  0
  4  5  2  0
  4  9  1  0
  5  6  1  0
  6  7  2  0
  7  8  1  0
  7 14  1  0
  8  9  2  0
  8 11  1  0
  9 10  1  0
 11 12  2  0
 12 14  1  0
 13 21  1  0
 14 18  1  0
 15 16  1  0
 16 17  1  0
 16 26  1  0
 18 19  1  0
 18 23  1  0
 19 20  1  0
 19 21  1  0
 21 22  1  0
 22 23  1  0
 22 24  1  0
 24 25  1  0
  2 27  1  0
  2 28  1  0
  5 29  1  0
 10 30  1  0
 10 31  1  0
 12 32  1  0
 13 33  1  0
 15 34  1  0
 16 35  1  0
 17 36  1  0
 18 37  1  0
 19 38  1  0
 20 39  1  0
 21 40  1  0
 22 41  1  0
 24 42  1  0
 24 43  1  0
 25 44  1  0
 26 45  1  0
 26 46  1  0
 26 47  1  0
A    1
C
A    2
N
A    3
O
A    4
N1
A    5
C2
A    6
N3
A    7
C4
A    8
C5
A    9
C6
A   10
N6
A   11
N7
A   12
C8
A   13
N8
A   14
N9
A   15
CA
A   16
CB
A   17
OG
A   18
C1'
A   19
C2'
A   20
O2'
A   21
C3'
A   22
C4'
A   23
O4'
A   24
C5'
A   25
O5'
A   26
CG2
M  END
