3PD4_A3G_A_500
     RDKit          3D

 40 42  0  0  0  0  0  0  0  0999 V2000
   10.2690    2.9110  -13.2890 C   0  0  0  0  0  0  0  0  0  0  0  0
    9.0200    0.7700  -13.0340 N   0  0  0  0  0  0  0  0  0  0  0  0
   11.5350    3.2640  -12.9790 O   0  0  0  0  0  0  0  0  0  0  0  0
   16.3710    5.7050  -16.3700 N   0  0  0  0  0  0  0  0  0  0  0  0
   15.7270    4.5450  -16.3270 C   0  0  0  0  0  0  0  0  0  0  0  0
   14.4270    4.4380  -16.6040 N   0  0  0  0  0  0  0  0  0  0  0  0
   13.7140    5.5320  -16.9270 C   0  0  0  0  0  0  0  0  0  0  0  0
   14.3450    6.7620  -16.9960 C   0  0  0  0  0  0  0  0  0  0  0  0
   15.7090    6.8330  -16.7160 C   0  0  0  0  0  0  0  0  0  0  0  0
   16.3170    8.0210  -16.7980 N   0  0  0  0  0  0  0  0  0  0  0  0
   13.4470    7.6760  -17.3410 N   0  0  0  0  0  0  0  0  0  0  0  0
   12.2930    7.0720  -17.5060 C   0  0  0  0  0  0  0  0  0  0  0  0
    9.6090    3.3960  -14.3490 N   0  0  0  0  0  0  0  0  0  0  0  0
   12.4370    5.7580  -17.2400 N   0  0  0  0  0  0  0  0  0  0  0  0
    9.6040    1.9180  -12.3400 C   0  0  0  0  0  0  0  0  0  0  0  0
   11.3030    4.7540  -17.3560 C   0  0  0  0  0  0  0  0  0  0  0  0
   11.1780    3.7030  -16.2720 C   0  0  0  0  0  0  0  0  0  0  0  0
   10.4830    2.6080  -16.8570 O   0  0  0  0  0  0  0  0  0  0  0  0
   10.2690    4.3870  -15.2490 C   0  0  0  0  0  0  0  0  0  0  0  0
    9.2720    5.1760  -16.1370 C   0  0  0  0  0  0  0  0  0  0  0  0
   10.0240    5.5000  -17.3630 O   0  0  0  0  0  0  0  0  0  0  0  0
    8.7410    6.4760  -15.5370 C   0  0  0  0  0  0  0  0  0  0  0  0
    9.8240    7.3010  -15.1350 O   0  0  0  0  0  0  0  0  0  0  0  0
    8.6741    0.0900  -12.3420 H   0  0  0  0  0  0  0  0  0  0  0  0
    8.2378    1.0872  -13.6243 H   0  0  0  0  0  0  0  0  0  0  0  0
   16.2864    3.6385  -16.0527 H   0  0  0  0  0  0  0  0  0  0  0  0
   16.5761    8.5273  -15.9393 H   0  0  0  0  0  0  0  0  0  0  0  0
   16.5263    8.4299  -17.7199 H   0  0  0  0  0  0  0  0  0  0  0  0
   11.3565    7.5608  -17.8128 H   0  0  0  0  0  0  0  0  0  0  0  0
    8.6464    3.0851  -14.5429 H   0  0  0  0  0  0  0  0  0  0  0  0
   10.3598    1.5514  -11.6298 H   0  0  0  0  0  0  0  0  0  0  0  0
    8.7851    2.4467  -11.8302 H   0  0  0  0  0  0  0  0  0  0  0  0
   11.5371    4.2021  -18.2783 H   0  0  0  0  0  0  0  0  0  0  0  0
   12.1256    3.3513  -15.8380 H   0  0  0  0  0  0  0  0  0  0  0  0
   10.1161    2.0300  -16.1419 H   0  0  0  0  0  0  0  0  0  0  0  0
   10.8060    5.0459  -14.5508 H   0  0  0  0  0  0  0  0  0  0  0  0
    8.3784    4.5520  -16.2856 H   0  0  0  0  0  0  0  0  0  0  0  0
    8.1389    7.0058  -16.2898 H   0  0  0  0  0  0  0  0  0  0  0  0
    8.1191    6.2424  -14.6602 H   0  0  0  0  0  0  0  0  0  0  0  0
    9.8655    7.3326  -14.1464 H   0  0  0  0  0  0  0  0  0  0  0  0
  1  3  2  0
  1 13  1  0
  1 15  1  0
  2 15  1  0
  4  5  2  0
  4  9  1  0
  5  6  1  0
  6  7  2  0
  7  8  1  0
  7 14  1  0
  8  9  2  0
  8 11  1  0
  9 10  1  0
 11 12  2  0
 12 14  1  0
 13 19  1  0
 14 16  1  0
 16 17  1  0
 16 21  1  0
 17 18  1  0
 17 19  1  0
 19 20  1  0
 20 21  1  0
 20 22  1  0
 22 23  1  0
  2 24  1  0
  2 25  1  0
  5 26  1  0
 10 27  1  0
 10 28  1  0
 12 29  1  0
 13 30  1  0
 15 31  1  0
 15 32  1  0
 16 33  1  0
 17 34  1  0
 18 35  1  0
 19 36  1  0
 20 37  1  0
 22 38  1  0
 22 39  1  0
 23 40  1  0
A    1
C
A    2
N
A    3
O
A    4
N1
A    5
C2
A    6
N3
A    7
C4
A    8
C5
A    9
C6
A   10
N6
A   11
N7
A   12
C8
A   13
N8
A   14
N9
A   15
CA
A   16
C1'
A   17
C2'
A   18
O2'
A   19
C3'
A   20
C4'
A   21
O4'
A   22
C5'
A   23
O5'
M  END
