3PD8_HA7_A_261
     RDKit          3D

 21 22  0  0  0  0  0  0  0  0999 V2000
   45.0650   27.2480   40.7940 C   0  0  0  0  0  0  0  0  0  0  0  0
   45.0290   28.4860   41.2780 N   0  0  0  0  0  0  0  0  0  0  0  0
   45.8960   28.5100   42.4220 O   0  0  0  0  0  0  0  0  0  0  0  0
   45.9020   26.4610   41.5590 C   0  0  0  0  0  0  0  0  0  0  0  0
   47.8050   25.2590   43.2220 N   0  0  0  0  0  0  0  0  0  0  0  0
   45.8670   27.4050   45.2540 O   0  0  0  0  0  0  0  0  0  0  0  0
   46.2170   24.9930   41.3660 C   0  0  0  0  0  0  0  0  0  0  0  0
   47.4810   26.0150   45.8960 O   0  0  0  0  0  0  0  0  0  0  0  0
   46.6830   24.4470   42.7190 C   0  0  0  0  0  0  0  0  0  0  0  0
   44.4490   26.8460   39.8120 O   0  0  0  0  0  0  0  0  0  0  0  0
   47.4060   26.6370   43.5940 C   0  0  0  0  0  0  0  0  0  0  0  0
   46.4150   27.2500   42.5780 C   0  0  0  0  0  0  0  0  0  0  0  0
   46.8580   26.6780   45.0370 C   0  0  0  0  0  0  0  0  0  0  0  0
   48.5251   25.3134   42.4876 H   0  0  0  0  0  0  0  0  0  0  0  0
   45.3172   24.4553   41.0325 H   0  0  0  0  0  0  0  0  0  0  0  0
   46.9966   24.8586   40.6017 H   0  0  0  0  0  0  0  0  0  0  0  0
   47.3244   26.1817   46.8592 H   0  0  0  0  0  0  0  0  0  0  0  0
   45.8505   24.4891   43.4367 H   0  0  0  0  0  0  0  0  0  0  0  0
   47.0132   23.4048   42.5973 H   0  0  0  0  0  0  0  0  0  0  0  0
   43.6258   26.3088   39.9298 H   0  0  0  0  0  0  0  0  0  0  0  0
   48.3079   27.2659   43.5613 H   0  0  0  0  0  0  0  0  0  0  0  0
  1  2  2  0
  1  4  1  0
  2  3  1  0
  3 12  1  0
  4 12  2  0
  5 11  1  0
  7  4  1  0
  7  9  1  0
  9  5  1  0
 10  1  1  0
 11 13  1  0
 12 11  1  0
 13  6  2  0
 13  8  1  0
  5 14  1  0
  7 15  1  0
  7 16  1  0
  8 17  1  0
  9 18  1  0
  9 19  1  0
 10 20  1  0
 11 21  1  0
A    1
C1
A    2
N1
A    3
O1
A    4
C2
A    5
N2
A    6
O2
A    7
C3
A    8
O3
A    9
C4
A   10
O4
A   11
C5
A   12
C6
A   13
C7
M  END
