3PD9_HA5_A_260
     RDKit          3D

 21 22  0  0  0  0  0  0  0  0999 V2000
   57.2580   27.2210   47.1710 N   0  0  0  0  0  0  0  0  0  0  0  0
   58.4660   27.7040   46.4810 O   0  0  0  0  0  0  0  0  0  0  0  0
   58.3340   27.3610   45.1770 C   0  0  0  0  0  0  0  0  0  0  0  0
   59.3880   27.6900   44.1780 C   0  0  0  0  0  0  0  0  0  0  0  0
   59.2440   26.6440   43.1010 N   0  0  0  0  0  0  0  0  0  0  0  0
   57.8430   26.7450   42.5430 C   0  0  0  0  0  0  0  0  0  0  0  0
   57.8150   26.1130   41.1300 C   0  0  0  0  0  0  0  0  0  0  0  0
   56.6760   25.7920   40.7560 O   0  0  0  0  0  0  0  0  0  0  0  0
   58.9150   25.9990   40.5230 O   0  0  0  0  0  0  0  0  0  0  0  0
   56.8270   26.1740   43.5650 C   0  0  0  0  0  0  0  0  0  0  0  0
   57.1940   26.6850   44.9240 C   0  0  0  0  0  0  0  0  0  0  0  0
   56.5080   26.6020   46.2160 C   0  0  0  0  0  0  0  0  0  0  0  0
   55.4020   26.0390   46.4390 O   0  0  0  0  0  0  0  0  0  0  0  0
   59.2276   28.6963   43.7637 H   0  0  0  0  0  0  0  0  0  0  0  0
   60.3940   27.6896   44.6229 H   0  0  0  0  0  0  0  0  0  0  0  0
   59.9319   26.8138   42.3535 H   0  0  0  0  0  0  0  0  0  0  0  0
   57.5292   27.7895   42.3996 H   0  0  0  0  0  0  0  0  0  0  0  0
   55.9730   25.5939   41.4243 H   0  0  0  0  0  0  0  0  0  0  0  0
   55.8108   26.5049   43.3046 H   0  0  0  0  0  0  0  0  0  0  0  0
   56.8524   25.0744   43.5526 H   0  0  0  0  0  0  0  0  0  0  0  0
   55.1029   25.8868   47.3704 H   0  0  0  0  0  0  0  0  0  0  0  0
  2  1  1  0
  3  2  1  0
  4  3  1  0
  5  4  1  0
  6  5  1  0
  6 10  1  0
  7  6  1  0
  8  7  1  0
  9  7  2  0
 10 11  1  0
 11  3  2  0
 11 12  1  0
 12  1  2  0
 12 13  1  0
  4 14  1  0
  4 15  1  0
  5 16  1  0
  6 17  1  0
  8 18  1  0
 10 19  1  0
 10 20  1  0
 13 21  1  0
A    1
N1
A    2
O2
A    3
C3
A    4
C4
A    5
N5
A    6
C6
A    7
C7
A    8
O8
A    9
O9
A   10
C10
A   11
C11
A   12
C12
A   13
O13
M  END
