3PDQ_KC6_A_503
     RDKit          3D

 35 36  0  0  0  0  0  0  0  0999 V2000
  -24.6260  -22.4220  -25.7740 O   0  0  0  0  0  0  0  0  0  0  0  0
  -24.4650  -21.9260  -24.6570 C   0  0  0  0  0  0  0  0  0  0  0  0
  -25.7250  -21.8030  -23.7840 C   0  0  0  0  0  0  0  0  0  0  0  0
  -26.7090  -22.7490  -24.0090 C   0  0  0  0  0  0  0  0  0  0  0  0
  -27.8650  -22.6870  -23.2270 C   0  0  0  0  0  0  0  0  0  0  0  0
  -28.0640  -21.7880  -22.2550 N   0  0  0  0  0  0  0  0  0  0  0  0
  -27.0930  -20.8510  -22.0180 C   0  0  0  0  0  0  0  0  0  0  0  0
  -27.3790  -19.7870  -20.9640 C   0  0  0  0  0  0  0  0  0  0  0  0
  -26.3720  -18.8780  -20.5220 C   0  0  0  0  0  0  0  0  0  0  0  0
  -26.6450  -17.8550  -19.6080 C   0  0  0  0  0  0  0  0  0  0  0  0
  -25.5860  -16.8910  -19.1330 C   0  0  0  0  0  0  0  0  0  0  0  0
  -25.8430  -15.5150  -18.9860 N   0  0  0  0  0  0  0  0  0  0  0  0
  -24.8000  -14.4740  -18.9910 C   0  0  0  0  0  0  0  0  0  0  0  0
  -23.6690  -14.6320  -17.9320 C   0  0  0  0  0  0  0  0  0  0  0  0
  -22.5610  -15.5000  -18.3580 N   0  0  0  0  0  0  0  0  0  0  0  0
  -24.4410  -17.3340  -18.9550 O   0  0  0  0  0  0  0  0  0  0  0  0
  -27.9670  -17.6800  -19.1920 C   0  0  0  0  0  0  0  0  0  0  0  0
  -28.9290  -18.5670  -19.7100 C   0  0  0  0  0  0  0  0  0  0  0  0
  -28.6790  -19.5650  -20.6050 N   0  0  0  0  0  0  0  0  0  0  0  0
  -25.9010  -20.8490  -22.7800 C   0  0  0  0  0  0  0  0  0  0  0  0
  -23.4070  -21.5240  -24.1130 O   0  0  0  0  0  0  0  0  0  0  0  0
  -26.5852  -23.5250  -24.7788 H   0  0  0  0  0  0  0  0  0  0  0  0
  -28.6602  -23.4216  -23.4217 H   0  0  0  0  0  0  0  0  0  0  0  0
  -25.3491  -18.9850  -20.9122 H   0  0  0  0  0  0  0  0  0  0  0  0
  -26.8218  -15.2169  -18.8675 H   0  0  0  0  0  0  0  0  0  0  0  0
  -24.3310  -14.4730  -19.9860 H   0  0  0  0  0  0  0  0  0  0  0  0
  -25.3163  -13.5373  -18.7342 H   0  0  0  0  0  0  0  0  0  0  0  0
  -23.2608  -13.6346  -17.7119 H   0  0  0  0  0  0  0  0  0  0  0  0
  -24.1245  -15.1099  -17.0521 H   0  0  0  0  0  0  0  0  0  0  0  0
  -22.0809  -15.8761  -17.5280 H   0  0  0  0  0  0  0  0  0  0  0  0
  -22.9317  -16.2779  -18.9222 H   0  0  0  0  0  0  0  0  0  0  0  0
  -28.2447  -16.8815  -18.4883 H   0  0  0  0  0  0  0  0  0  0  0  0
  -29.9664  -18.4454  -19.3651 H   0  0  0  0  0  0  0  0  0  0  0  0
  -25.1186  -20.1013  -22.5829 H   0  0  0  0  0  0  0  0  0  0  0  0
  -23.3371  -21.4975  -23.1258 H   0  0  0  0  0  0  0  0  0  0  0  0
  1  2  2  0
  2  3  1  0
  2 21  1  0
  3  4  2  0
  3 20  1  0
  4  5  1  0
  5  6  2  0
  6  7  1  0
  7  8  1  0
  7 20  2  0
  8  9  2  0
  8 19  1  0
  9 10  1  0
 10 11  1  0
 10 17  2  0
 11 12  1  0
 11 16  2  0
 12 13  1  0
 13 14  1  0
 14 15  1  0
 17 18  1  0
 18 19  2  0
  4 22  1  0
  5 23  1  0
  9 24  1  0
 12 25  1  0
 13 26  1  0
 13 27  1  0
 14 28  1  0
 14 29  1  0
 15 30  1  0
 15 31  1  0
 17 32  1  0
 18 33  1  0
 20 34  1  0
 21 35  1  0
A    1
O01
A    2
C02
A    3
C03
A    4
C04
A    5
C05
A    6
N06
A    7
C07
A    8
C08
A    9
C09
A   10
C10
A   11
C11
A   12
N12
A   13
C13
A   14
C14
A   15
N15
A   16
O16
A   17
C17
A   18
C18
A   19
N19
A   20
C20
A   21
O21
M  END
