3PEQ_3EQ_A_1
     RDKit          3D

 69 72  0  0  0  0  0  0  0  0999 V2000
   31.6240    0.1810   60.9360 C   0  0  0  0  0  0  0  0  0  0  0  0
   32.5840    0.8410   59.9750 C   0  0  0  0  0  0  0  0  0  0  0  0
   32.6520    2.3400   60.1770 C   0  0  0  0  0  0  0  0  0  0  0  0
   33.7940    2.8790   59.3350 C   0  0  0  0  0  0  0  0  0  0  0  0
   33.8360    4.3690   59.2570 N   0  0  0  0  0  0  0  0  0  0  0  0
   32.7260    4.9510   58.5280 C   0  0  0  0  0  0  0  0  0  0  0  0
   31.6490    5.4990   59.1920 C   0  0  0  0  0  0  0  0  0  0  0  0
   30.5960    6.0290   58.4770 C   0  0  0  0  0  0  0  0  0  0  0  0
   30.6200    5.9880   57.1000 C   0  0  0  0  0  0  0  0  0  0  0  0
   31.6790    5.4320   56.4120 C   0  0  0  0  0  0  0  0  0  0  0  0
   32.7430    4.9130   57.1420 C   0  0  0  0  0  0  0  0  0  0  0  0
   33.9270    4.2950   56.4640 C   0  0  0  0  0  0  0  0  0  0  0  0
   31.5960    5.3970   54.9590 C   0  0  0  0  0  0  0  0  0  0  0  0
   31.2290    6.5070   54.2250 C   0  0  0  0  0  0  0  0  0  0  0  0
   31.1290    6.4580   52.8510 C   0  0  0  0  0  0  0  0  0  0  0  0
   31.3940    5.2930   52.1670 C   0  0  0  0  0  0  0  0  0  0  0  0
   31.2640    5.2580   50.3880 S   0  0  0  0  0  0  0  0  0  0  0  0
   32.0740    3.6850   50.0730 C   0  0  0  0  0  0  0  0  0  0  0  0
   31.7600    4.1800   52.8940 C   0  0  0  0  0  0  0  0  0  0  0  0
   31.8530    4.2290   54.2670 C   0  0  0  0  0  0  0  0  0  0  0  0
   34.2960    5.0500   60.7570 S   0  0  0  0  0  0  0  0  0  0  0  0
   35.3690    4.2350   61.2910 O   0  0  0  0  0  0  0  0  0  0  0  0
   33.1260    5.2470   61.5970 O   0  0  0  0  0  0  0  0  0  0  0  0
   35.0150    6.6580   60.4440 C   0  0  0  0  0  0  0  0  0  0  0  0
   34.4060    7.7220   61.0710 C   0  0  0  0  0  0  0  0  0  0  0  0
   34.8990    8.9990   60.9080 C   0  0  0  0  0  0  0  0  0  0  0  0
   36.0100    9.2080   60.1180 C   0  0  0  0  0  0  0  0  0  0  0  0
   36.5460   10.4800   59.9330 O   0  0  0  0  0  0  0  0  0  0  0  0
   35.6150   11.4680   60.3820 C   0  0  0  0  0  0  0  0  0  0  0  0
   35.8700   11.9090   61.8230 C   0  0  0  0  0  0  0  0  0  0  0  0
   35.1810   12.8990   62.1740 O   0  0  0  0  0  0  0  0  0  0  0  0
   36.6980   11.2520   62.5080 O   0  0  0  0  0  0  0  0  0  0  0  0
   36.6250    8.1380   59.4930 C   0  0  0  0  0  0  0  0  0  0  0  0
   37.7380    8.3530   58.7050 C   0  0  0  0  0  0  0  0  0  0  0  0
   38.3620    7.3030   58.0690 C   0  0  0  0  0  0  0  0  0  0  0  0
   37.8750    6.0230   58.2190 C   0  0  0  0  0  0  0  0  0  0  0  0
   36.7630    5.8090   59.0050 C   0  0  0  0  0  0  0  0  0  0  0  0
   36.1280    6.8520   59.6490 C   0  0  0  0  0  0  0  0  0  0  0  0
   31.9347    0.3946   61.9693 H   0  0  0  0  0  0  0  0  0  0  0  0
   30.6102    0.5739   60.7693 H   0  0  0  0  0  0  0  0  0  0  0  0
   31.6278   -0.9063   60.7693 H   0  0  0  0  0  0  0  0  0  0  0  0
   33.5872    0.4166   60.1284 H   0  0  0  0  0  0  0  0  0  0  0  0
   32.2229    0.6531   58.9531 H   0  0  0  0  0  0  0  0  0  0  0  0
   31.7053    2.8020   59.8604 H   0  0  0  0  0  0  0  0  0  0  0  0
   32.8187    2.5738   61.2389 H   0  0  0  0  0  0  0  0  0  0  0  0
   34.7412    2.5280   59.7704 H   0  0  0  0  0  0  0  0  0  0  0  0
   33.6380    2.5096   58.3107 H   0  0  0  0  0  0  0  0  0  0  0  0
   31.6299    5.5133   60.2917 H   0  0  0  0  0  0  0  0  0  0  0  0
   29.7422    6.4817   59.0025 H   0  0  0  0  0  0  0  0  0  0  0  0
   29.7747    6.4086   56.5356 H   0  0  0  0  0  0  0  0  0  0  0  0
   34.6330    3.9265   57.2228 H   0  0  0  0  0  0  0  0  0  0  0  0
   33.5932    3.4561   55.8356 H   0  0  0  0  0  0  0  0  0  0  0  0
   34.4244    5.0485   55.8356 H   0  0  0  0  0  0  0  0  0  0  0  0
   31.0118    7.4503   54.7474 H   0  0  0  0  0  0  0  0  0  0  0  0
   30.8341    7.3600   52.2948 H   0  0  0  0  0  0  0  0  0  0  0  0
   32.3225    3.2025   51.0298 H   0  0  0  0  0  0  0  0  0  0  0  0
   31.3992    3.0337   49.4982 H   0  0  0  0  0  0  0  0  0  0  0  0
   32.9962    3.8560   49.4982 H   0  0  0  0  0  0  0  0  0  0  0  0
   31.9810    3.2388   52.3693 H   0  0  0  0  0  0  0  0  0  0  0  0
   32.1367    3.3229   54.8223 H   0  0  0  0  0  0  0  0  0  0  0  0
   33.5228    7.5523   61.7043 H   0  0  0  0  0  0  0  0  0  0  0  0
   34.4081    9.8481   61.4061 H   0  0  0  0  0  0  0  0  0  0  0  0
   35.6922   12.3477   59.7261 H   0  0  0  0  0  0  0  0  0  0  0  0
   34.6115   11.0191   60.3452 H   0  0  0  0  0  0  0  0  0  0  0  0
   36.6581   11.2836   63.4967 H   0  0  0  0  0  0  0  0  0  0  0  0
   38.1304    9.3735   58.5839 H   0  0  0  0  0  0  0  0  0  0  0  0
   39.2475    7.4859   57.4425 H   0  0  0  0  0  0  0  0  0  0  0  0
   38.3693    5.1789   57.7158 H   0  0  0  0  0  0  0  0  0  0  0  0
   36.3738    4.7867   59.1214 H   0  0  0  0  0  0  0  0  0  0  0  0
  2  1  1  0
  2  3  1  0
  4  3  1  0
  5  4  1  0
  6  5  1  0
  5 21  1  0
 11  6  1  0
  6  7  2  0
  8  7  1  0
  9  8  2  0
 10  9  1  0
 13 10  1  0
 10 11  2  0
 12 11  1  0
 14 13  2  0
 20 13  1  0
 15 14  1  0
 16 15  2  0
 17 16  1  0
 16 19  1  0
 18 17  1  0
 19 20  2  0
 24 21  1  0
 21 22  2  0
 21 23  2  0
 38 24  1  0
 24 25  2  0
 26 25  1  0
 27 26  2  0
 33 27  1  0
 28 27  1  0
 28 29  1  0
 29 30  1  0
 30 31  2  0
 30 32  1  0
 34 33  1  0
 33 38  2  0
 35 34  2  0
 35 36  1  0
 36 37  2  0
 37 38  1  0
  1 39  1  0
  1 40  1  0
  1 41  1  0
  2 42  1  0
  2 43  1  0
  3 44  1  0
  3 45  1  0
  4 46  1  0
  4 47  1  0
  7 48  1  0
  8 49  1  0
  9 50  1  0
 12 51  1  0
 12 52  1  0
 12 53  1  0
 14 54  1  0
 15 55  1  0
 18 56  1  0
 18 57  1  0
 18 58  1  0
 19 59  1  0
 20 60  1  0
 25 61  1  0
 26 62  1  0
 29 63  1  0
 29 64  1  0
 32 65  1  0
 34 66  1  0
 35 67  1  0
 36 68  1  0
 37 69  1  0
A    1
C1
A    2
C2
A    3
C3
A    4
C4
A    5
N5
A    6
C6
A    7
C7
A    8
C8
A    9
C9
A   10
C10
A   11
C11
A   12
C12
A   13
C13
A   14
C14
A   15
C15
A   16
C16
A   17
S17
A   18
C18
A   19
C19
A   20
C20
A   21
S21
A   22
O22
A   23
O23
A   24
C24
A   25
C25
A   26
C26
A   27
C27
A   28
O28
A   29
C29
A   30
C30
A   31
O31
A   32
O32
A   33
C33
A   34
C34
A   35
C35
A   36
C36
A   37
C37
A   38
C38
M  END
