3PFP_036_A_716
     RDKit          3D

 35 34  0  0  0  0  0  0  0  0999 V2000
   35.5330  121.9240   18.2560 C   0  0  0  0  0  0  0  0  0  0  0  0
   35.3550  122.7020   19.5760 C   0  0  0  0  0  0  0  0  0  0  0  0
   33.8650  122.8580   19.8960 C   0  0  0  0  0  0  0  0  0  0  0  0
   33.2410  123.9760   19.0470 C   0  0  0  0  0  0  0  0  0  0  0  0
   32.8300  125.1570   19.9320 C   0  0  0  0  0  0  0  0  0  0  0  0
   32.7980  126.4610   19.1400 C   0  0  0  0  0  0  0  0  0  0  0  0
   31.9840  127.5120   19.9020 C   0  0  0  0  0  0  0  0  0  0  0  0
   34.9450  122.3680   17.2220 O   0  0  0  0  0  0  0  0  0  0  0  0
   36.2850  120.9080   18.3170 O   0  0  0  0  0  0  0  0  0  0  0  0
   35.9890  121.9170   20.5880 O   0  0  0  0  0  0  0  0  0  0  0  0
   32.0770  128.7650   19.2080 O   0  0  0  0  0  0  0  0  0  0  0  0
   36.3120  122.4070   22.0900 P   0  0  0  0  0  0  0  0  0  0  0  0
   37.7570  122.3360   22.3600 O   0  0  0  0  0  0  0  0  0  0  0  0
   35.7340  123.8830   22.3430 O   0  0  0  0  0  0  0  0  0  0  0  0
   35.4920  121.4460   23.0680 O   0  0  0  0  0  0  0  0  0  0  0  0
   31.1330  129.9680   19.6780 P   0  0  0  0  0  0  0  0  0  0  0  0
   30.5680  129.7330   21.0270 O   0  0  0  0  0  0  0  0  0  0  0  0
   29.9790  130.1100   18.5840 O   0  0  0  0  0  0  0  0  0  0  0  0
   31.9900  131.3240   19.5220 O   0  0  0  0  0  0  0  0  0  0  0  0
   35.7926  123.7091   19.5112 H   0  0  0  0  0  0  0  0  0  0  0  0
   33.3486  121.9108   19.6815 H   0  0  0  0  0  0  0  0  0  0  0  0
   33.7572  123.1194   20.9590 H   0  0  0  0  0  0  0  0  0  0  0  0
   33.9759  124.3192   18.3040 H   0  0  0  0  0  0  0  0  0  0  0  0
   32.3466  123.5819   18.5423 H   0  0  0  0  0  0  0  0  0  0  0  0
   31.8286  124.9639   20.3443 H   0  0  0  0  0  0  0  0  0  0  0  0
   33.5708  125.2597   20.7386 H   0  0  0  0  0  0  0  0  0  0  0  0
   33.8255  126.8273   18.9982 H   0  0  0  0  0  0  0  0  0  0  0  0
   32.3305  126.2796   18.1610 H   0  0  0  0  0  0  0  0  0  0  0  0
   30.9315  127.1966   19.9552 H   0  0  0  0  0  0  0  0  0  0  0  0
   32.3790  127.6211   20.9228 H   0  0  0  0  0  0  0  0  0  0  0  0
   36.5546  120.5438   19.1972 H   0  0  0  0  0  0  0  0  0  0  0  0
   37.9100  122.3285   23.3381 H   0  0  0  0  0  0  0  0  0  0  0  0
   35.6935  121.6822   24.0081 H   0  0  0  0  0  0  0  0  0  0  0  0
   31.2270  130.0071   21.7131 H   0  0  0  0  0  0  0  0  0  0  0  0
   29.1056  130.2175   19.0376 H   0  0  0  0  0  0  0  0  0  0  0  0
  1  2  1  0
  1  8  2  0
  1  9  1  0
  2  3  1  0
  2 10  1  0
  3  4  1  0
  4  5  1  0
  5  6  1  0
  6  7  1  0
  7 11  1  0
 10 12  1  0
 11 16  1  0
 12 13  1  0
 12 14  2  0
 12 15  1  0
 16 17  1  0
 16 18  1  0
 16 19  2  0
  2 20  1  0
  3 21  1  0
  3 22  1  0
  4 23  1  0
  4 24  1  0
  5 25  1  0
  5 26  1  0
  6 27  1  0
  6 28  1  0
  7 29  1  0
  7 30  1  0
  9 31  1  0
 13 32  1  0
 15 33  1  0
 17 34  1  0
 18 35  1  0
A    1
C1
A    2
C2
A    3
C3
A    4
C4
A    5
C5
A    6
C6
A    7
C7
A    8
O8
A    9
O9
A   10
O10
A   11
O11
A   12
P12
A   13
O13
A   14
O14
A   15
O15
A   16
P16
A   17
O17
A   18
O18
A   19
O19
M  END
