3PGI_F41_A_2001
     RDKit          3D

 37 39  0  0  0  0  0  0  0  0999 V2000
   -2.5040    0.8930   11.1060 C   0  0  0  0  0  0  0  0  0  0  0  0
   -1.6690    2.0390   11.7050 C   0  0  0  0  0  0  0  0  0  0  0  0
   -1.0350    2.9040   10.6050 C   0  0  0  0  0  0  0  0  0  0  0  0
   -2.0580    3.3730    9.6600 N   0  0  0  0  0  0  0  0  0  0  0  0
   -2.7980    2.2580    9.0430 C   0  0  0  0  0  0  0  0  0  0  0  0
   -3.5520    1.4690   10.1310 C   0  0  0  0  0  0  0  0  0  0  0  0
   -1.5370    4.2810    8.6090 C   0  0  0  0  0  0  0  0  0  0  0  0
   -1.7560    5.7330    8.9190 C   0  0  0  0  0  0  0  0  0  0  0  0
   -2.2740    6.0350    9.9840 O   0  0  0  0  0  0  0  0  0  0  0  0
   -1.3330    6.6140    7.9790 N   0  0  0  0  0  0  0  0  0  0  0  0
   -0.1820    7.4150    8.2320 C   0  0  0  0  0  0  0  0  0  0  0  0
   -0.2580    8.8010    8.4100 C   0  0  0  0  0  0  0  0  0  0  0  0
    0.9500    9.4650    8.6510 C   0  0  0  0  0  0  0  0  0  0  0  0
    2.1530    8.8030    8.7110 C   0  0  0  0  0  0  0  0  0  0  0  0
    2.2570    7.4250    8.5410 C   0  0  0  0  0  0  0  0  0  0  0  0
    1.0550    6.7540    8.2980 C   0  0  0  0  0  0  0  0  0  0  0  0
    1.0750   10.8240    8.8540 O   0  0  0  0  0  0  0  0  0  0  0  0
    2.5220   10.9090    9.0370 C   0  0  0  0  0  0  0  0  0  0  0  0
    3.2250    9.6280    8.9580 O   0  0  0  0  0  0  0  0  0  0  0  0
   -1.8414    0.2019   10.5644 H   0  0  0  0  0  0  0  0  0  0  0  0
   -3.0170    0.3536   11.9159 H   0  0  0  0  0  0  0  0  0  0  0  0
   -2.3214    2.6707   12.3258 H   0  0  0  0  0  0  0  0  0  0  0  0
   -0.8614    1.6001   12.3092 H   0  0  0  0  0  0  0  0  0  0  0  0
   -0.5442    3.7733   11.0669 H   0  0  0  0  0  0  0  0  0  0  0  0
   -0.2989    2.2970   10.0575 H   0  0  0  0  0  0  0  0  0  0  0  0
   -3.5193    2.6568    8.3145 H   0  0  0  0  0  0  0  0  0  0  0  0
   -2.0894    1.5887    8.5332 H   0  0  0  0  0  0  0  0  0  0  0  0
   -4.1249    0.6505    9.6707 H   0  0  0  0  0  0  0  0  0  0  0  0
   -4.2545    2.1256   10.6652 H   0  0  0  0  0  0  0  0  0  0  0  0
   -0.4565    4.1060    8.5003 H   0  0  0  0  0  0  0  0  0  0  0  0
   -2.0874    4.0583    7.6830 H   0  0  0  0  0  0  0  0  0  0  0  0
   -1.8407    6.7037    7.0873 H   0  0  0  0  0  0  0  0  0  0  0  0
   -1.2160    9.3396    8.3630 H   0  0  0  0  0  0  0  0  0  0  0  0
    3.2216    6.8989    8.5944 H   0  0  0  0  0  0  0  0  0  0  0  0
    1.0792    5.6639    8.1526 H   0  0  0  0  0  0  0  0  0  0  0  0
    2.9276   11.5710    8.2577 H   0  0  0  0  0  0  0  0  0  0  0  0
    2.6842   11.2899   10.0561 H   0  0  0  0  0  0  0  0  0  0  0  0
  1  2  1  0
  1  6  1  0
  2  3  1  0
  3  4  1  0
  4  5  1  0
  4  7  1  0
  5  6  1  0
  7  8  1  0
  8  9  2  0
  8 10  1  0
 10 11  1  0
 11 12  2  0
 11 16  1  0
 12 13  1  0
 13 14  2  0
 13 17  1  0
 14 15  1  0
 14 19  1  0
 15 16  2  0
 17 18  1  0
 18 19  1  0
  1 20  1  0
  1 21  1  0
  2 22  1  0
  2 23  1  0
  3 24  1  0
  3 25  1  0
  5 26  1  0
  5 27  1  0
  6 28  1  0
  6 29  1  0
  7 30  1  0
  7 31  1  0
 10 32  1  0
 12 33  1  0
 15 34  1  0
 16 35  1  0
 18 36  1  0
 18 37  1  0
A    1
C1
A    2
C2
A    3
C3
A    4
N4
A    5
C5
A    6
C6
A    7
C7
A    8
C8
A    9
O9
A   10
N10
A   11
C11
A   12
C12
A   13
C13
A   14
C14
A   15
C15
A   16
C16
A   17
O17
A   18
C18
A   19
O19
M  END
