3PGL_RZX_A_257
     RDKit          3D

 46 48  0  0  0  0  0  0  0  0999 V2000
    3.4510   11.3720   -3.1790 C   0  0  0  0  0  0  0  0  0  0  0  0
    3.1650   11.7250   -4.4860 C   0  0  0  0  0  0  0  0  0  0  0  0
    3.8770   12.8740   -5.1010 C   0  0  0  0  0  0  0  0  0  0  0  0
    4.8200   13.5610   -4.3510 C   0  0  0  0  0  0  0  0  0  0  0  0
    5.0840   13.1730   -3.0410 C   0  0  0  0  0  0  0  0  0  0  0  0
    4.4040   12.1030   -2.4750 C   0  0  0  0  0  0  0  0  0  0  0  0
    3.4150   13.0050   -6.3620 N   0  0  0  0  0  0  0  0  0  0  0  0
    2.5100   12.0090   -6.4990 C   0  0  0  0  0  0  0  0  0  0  0  0
    2.3160   11.2310   -5.4170 N   0  0  0  0  0  0  0  0  0  0  0  0
    1.6520   11.8460   -7.9610 S   0  0  0  0  0  0  0  0  0  0  0  0
    0.7200   10.4400   -8.3270 C   0  0  0  0  0  0  0  0  0  0  0  0
    0.5200    9.2660   -7.3910 C   0  0  0  0  0  0  0  0  0  0  0  0
    0.5800    8.0950   -8.0410 N   0  0  0  0  0  0  0  0  0  0  0  0
    0.4320    6.9230   -7.4130 C   0  0  0  0  0  0  0  0  0  0  0  0
    0.1710    6.8500   -6.0490 C   0  0  0  0  0  0  0  0  0  0  0  0
    0.0730    8.0370   -5.3300 C   0  0  0  0  0  0  0  0  0  0  0  0
    0.2430    9.2710   -5.9990 C   0  0  0  0  0  0  0  0  0  0  0  0
    0.6010   12.9330   -7.9940 O   0  0  0  0  0  0  0  0  0  0  0  0
   -0.1850    7.9650   -3.9690 O   0  0  0  0  0  0  0  0  0  0  0  0
   -1.4220    7.4430   -3.4690 C   0  0  0  0  0  0  0  0  0  0  0  0
   -2.4260    8.5890   -3.4360 C   0  0  0  0  0  0  0  0  0  0  0  0
   -3.7950    8.1420   -2.9570 C   0  0  0  0  0  0  0  0  0  0  0  0
   -4.7430    8.9200   -3.6980 O   0  0  0  0  0  0  0  0  0  0  0  0
   -5.8490    8.1420   -4.1630 C   0  0  0  0  0  0  0  0  0  0  0  0
    0.1340   10.5440   -5.1780 C   0  0  0  0  0  0  0  0  0  0  0  0
    2.9330   10.5262   -2.7032 H   0  0  0  0  0  0  0  0  0  0  0  0
    5.3592   14.4125   -4.7917 H   0  0  0  0  0  0  0  0  0  0  0  0
    5.8358   13.7172   -2.4505 H   0  0  0  0  0  0  0  0  0  0  0  0
    4.6259   11.8232   -1.4346 H   0  0  0  0  0  0  0  0  0  0  0  0
    3.6901   13.7069   -7.0638 H   0  0  0  0  0  0  0  0  0  0  0  0
   -0.2907   10.8088   -8.5561 H   0  0  0  0  0  0  0  0  0  0  0  0
    1.3531    9.9756   -9.0974 H   0  0  0  0  0  0  0  0  0  0  0  0
    0.5192    5.9915   -7.9915 H   0  0  0  0  0  0  0  0  0  0  0  0
    0.0451    5.8774   -5.5507 H   0  0  0  0  0  0  0  0  0  0  0  0
   -1.7867    6.6438   -4.1310 H   0  0  0  0  0  0  0  0  0  0  0  0
   -1.2845    7.0208   -2.4626 H   0  0  0  0  0  0  0  0  0  0  0  0
   -2.0507    9.3686   -2.7567 H   0  0  0  0  0  0  0  0  0  0  0  0
   -2.5363    8.9693   -4.4622 H   0  0  0  0  0  0  0  0  0  0  0  0
   -3.9395    7.0701   -3.1575 H   0  0  0  0  0  0  0  0  0  0  0  0
   -3.9115    8.2882   -1.8730 H   0  0  0  0  0  0  0  0  0  0  0  0
   -6.4084    7.7485   -3.3015 H   0  0  0  0  0  0  0  0  0  0  0  0
   -6.5114    8.7741   -4.7726 H   0  0  0  0  0  0  0  0  0  0  0  0
   -5.4779    7.3049   -4.7726 H   0  0  0  0  0  0  0  0  0  0  0  0
    0.1555   10.2927   -4.1073 H   0  0  0  0  0  0  0  0  0  0  0  0
    0.9786   11.2073   -5.4160 H   0  0  0  0  0  0  0  0  0  0  0  0
   -0.8111   11.0540   -5.4160 H   0  0  0  0  0  0  0  0  0  0  0  0
  1  2  2  0
  1  6  1  0
  2  3  1  0
  2  9  1  0
  3  4  2  0
  3  7  1  0
  4  5  1  0
  5  6  2  0
  7  8  1  0
  8  9  2  0
  8 10  1  0
 10 11  1  0
 10 18  2  0
 11 12  1  0
 12 13  2  0
 12 17  1  0
 13 14  1  0
 14 15  2  0
 15 16  1  0
 16 17  2  0
 16 19  1  0
 17 25  1  0
 19 20  1  0
 20 21  1  0
 21 22  1  0
 22 23  1  0
 23 24  1  0
  1 26  1  0
  4 27  1  0
  5 28  1  0
  6 29  1  0
  7 30  1  0
 11 31  1  0
 11 32  1  0
 14 33  1  0
 15 34  1  0
 20 35  1  0
 20 36  1  0
 21 37  1  0
 21 38  1  0
 22 39  1  0
 22 40  1  0
 24 41  1  0
 24 42  1  0
 24 43  1  0
 25 44  1  0
 25 45  1  0
 25 46  1  0
A    1
C1
A    2
C2
A    3
C3
A    4
C4
A    5
C5
A    6
C6
A    7
N7
A    8
C8
A    9
N9
A   10
S10
A   11
C11
A   12
C12
A   13
N13
A   14
C14
A   15
C15
A   16
C16
A   17
C17
A   18
O18
A   19
O19
A   20
C20
A   21
C21
A   22
C22
A   23
O23
A   24
C24
A   25
C25
M  END
