3PI5_3P5_A_387
     RDKit          3D

 55 58  0  0  0  0  0  0  0  0999 V2000
   30.8570    9.7680   19.7320 Br  0  0  0  0  0  0  0  0  0  0  0  0
   31.2840    9.6140   17.9000 C   0  0  0  0  0  0  0  0  0  0  0  0
   31.0820   10.7050   17.0480 C   0  0  0  0  0  0  0  0  0  0  0  0
   31.4590   10.6060   15.7050 C   0  0  0  0  0  0  0  0  0  0  0  0
   32.0160    9.4230   15.1980 C   0  0  0  0  0  0  0  0  0  0  0  0
   32.1800    8.3210   16.0470 C   0  0  0  0  0  0  0  0  0  0  0  0
   31.8120    8.4120   17.4020 C   0  0  0  0  0  0  0  0  0  0  0  0
   32.7660    7.0140   15.4730 C   0  0  0  0  0  0  0  0  0  0  0  0
   31.6480    6.2010   14.7520 C   0  0  0  0  0  0  0  0  0  0  0  0
   32.1840    4.8130   14.4050 C   0  0  0  0  0  0  0  0  0  0  0  0
   31.2290    3.9860   13.5560 C   0  0  0  0  0  0  0  0  0  0  0  0
   29.8940    3.7330   14.2590 C   0  0  0  0  0  0  0  0  0  0  0  0
   29.1090    5.3160   14.5550 S   0  0  0  0  0  0  0  0  0  0  0  0
   30.3920    6.0960   15.6250 C   0  0  0  0  0  0  0  0  0  0  0  0
   27.9310    5.1400   15.3120 O   0  0  0  0  0  0  0  0  0  0  0  0
   29.0540    6.0510   13.3160 O   0  0  0  0  0  0  0  0  0  0  0  0
   31.9180    2.6970   13.2510 N   0  0  0  0  0  0  0  0  0  0  0  0
   31.3020    1.9300   12.1490 C   0  0  0  0  0  0  0  0  0  0  0  0
   31.2410    2.6960   10.8010 C   0  0  0  0  0  0  0  0  0  0  0  0
   32.3910    3.1890   10.1530 C   0  0  0  0  0  0  0  0  0  0  0  0
   32.2610    3.8950    8.9290 C   0  0  0  0  0  0  0  0  0  0  0  0
   31.0000    4.0830    8.3640 C   0  0  0  0  0  0  0  0  0  0  0  0
   29.8650    3.5750    9.0030 C   0  0  0  0  0  0  0  0  0  0  0  0
   29.9800    2.8930   10.2190 C   0  0  0  0  0  0  0  0  0  0  0  0
   33.4420    4.4980    8.1460 C   0  0  0  0  0  0  0  0  0  0  0  0
   34.7160    3.6590    8.3150 C   0  0  0  0  0  0  0  0  0  0  0  0
   34.5520    4.9610    9.1010 C   0  0  0  0  0  0  0  0  0  0  0  0
   33.4000    4.9620   13.6700 O   0  0  0  0  0  0  0  0  0  0  0  0
   30.5130   11.8790   17.5320 O   0  0  0  0  0  0  0  0  0  0  0  0
   31.3167   11.4682   15.0369 H   0  0  0  0  0  0  0  0  0  0  0  0
   32.3214    9.3611   14.1431 H   0  0  0  0  0  0  0  0  0  0  0  0
   31.9373    7.5456   18.0680 H   0  0  0  0  0  0  0  0  0  0  0  0
   33.5619    7.2566   14.7535 H   0  0  0  0  0  0  0  0  0  0  0  0
   33.1783    6.4109   16.2954 H   0  0  0  0  0  0  0  0  0  0  0  0
   31.3623    6.7243   13.8276 H   0  0  0  0  0  0  0  0  0  0  0  0
   32.3274    4.2834   15.3584 H   0  0  0  0  0  0  0  0  0  0  0  0
   30.9841    4.5357   12.6352 H   0  0  0  0  0  0  0  0  0  0  0  0
   29.2491    3.1110   13.6209 H   0  0  0  0  0  0  0  0  0  0  0  0
   30.0593    3.2068   15.2107 H   0  0  0  0  0  0  0  0  0  0  0  0
   30.5889    5.4695   16.5074 H   0  0  0  0  0  0  0  0  0  0  0  0
   30.0699    7.0805   15.9952 H   0  0  0  0  0  0  0  0  0  0  0  0
   32.8938    2.9045   12.9947 H   0  0  0  0  0  0  0  0  0  0  0  0
   31.8876    1.0112   11.9980 H   0  0  0  0  0  0  0  0  0  0  0  0
   30.2625    1.7271   12.4460 H   0  0  0  0  0  0  0  0  0  0  0  0
   33.3856    3.0272   10.5942 H   0  0  0  0  0  0  0  0  0  0  0  0
   30.8983    4.6310    7.4156 H   0  0  0  0  0  0  0  0  0  0  0  0
   28.8739    3.7126    8.5461 H   0  0  0  0  0  0  0  0  0  0  0  0
   29.0788    2.5101   10.7203 H   0  0  0  0  0  0  0  0  0  0  0  0
   32.9018    4.9356    7.2935 H   0  0  0  0  0  0  0  0  0  0  0  0
   34.6720    2.6922    8.8378 H   0  0  0  0  0  0  0  0  0  0  0  0
   35.4767    3.2551    7.6308 H   0  0  0  0  0  0  0  0  0  0  0  0
   35.1657    5.8377    8.8467 H   0  0  0  0  0  0  0  0  0  0  0  0
   34.5968    5.2377   10.1647 H   0  0  0  0  0  0  0  0  0  0  0  0
   34.1575    5.0548   14.3006 H   0  0  0  0  0  0  0  0  0  0  0  0
   30.4407   12.0283   18.5080 H   0  0  0  0  0  0  0  0  0  0  0  0
  1  2  1  0
  7  2  2  0
  2  3  1  0
  3  4  2  0
  3 29  1  0
  5  4  1  0
  6  5  2  0
  8  6  1  0
  7  6  1  0
  8  9  1  0
 10  9  1  0
  9 14  1  0
 28 10  1  0
 10 11  1  0
 17 11  1  0
 11 12  1  0
 12 13  1  0
 14 13  1  0
 13 15  2  0
 13 16  2  0
 17 18  1  0
 18 19  1  0
 20 19  2  0
 19 24  1  0
 20 21  1  0
 21 25  1  0
 21 22  2  0
 22 23  1  0
 24 23  2  0
 26 25  1  0
 27 25  1  0
 26 27  1  0
  4 30  1  0
  5 31  1  0
  7 32  1  0
  8 33  1  0
  8 34  1  0
  9 35  1  0
 10 36  1  0
 11 37  1  0
 12 38  1  0
 12 39  1  0
 14 40  1  0
 14 41  1  0
 17 42  1  0
 18 43  1  0
 18 44  1  0
 20 45  1  0
 22 46  1  0
 23 47  1  0
 24 48  1  0
 25 49  1  0
 26 50  1  0
 26 51  1  0
 27 52  1  0
 27 53  1  0
 28 54  1  0
 29 55  1  0
A    1
BR1
A    2
C2
A    3
C3
A    4
C4
A    5
C6
A    6
C8
A    7
C9
A    8
C11
A    9
C14
A   10
C16
A   11
C18
A   12
C20
A   13
S23
A   14
C24
A   15
O27
A   16
O28
A   17
N29
A   18
C31
A   19
C34
A   20
C35
A   21
C37
A   22
C38
A   23
C40
A   24
C42
A   25
C44
A   26
C46
A   27
C49
A   28
O52
A   29
O54
M  END
