3PJ3_04L_A_1
     RDKit          3D

 59 63  0  0  0  0  0  0  0  0999 V2000
  -18.1040    5.8430  -20.4070 C   0  0  0  0  0  0  0  0  0  0  0  0
  -19.4110    5.5190  -20.5390 N   0  0  0  0  0  0  0  0  0  0  0  0
  -17.8100    5.8760  -19.0880 N   0  0  0  0  0  0  0  0  0  0  0  0
  -19.9410    5.3390  -19.3170 C   0  0  0  0  0  0  0  0  0  0  0  0
  -20.1110    5.3690  -14.2500 C   0  0  0  0  0  0  0  0  0  0  0  0
  -18.9260    5.5720  -18.3960 C   0  0  0  0  0  0  0  0  0  0  0  0
  -20.6560    5.1520  -12.8700 C   0  0  0  0  0  0  0  0  0  0  0  0
  -21.1930    5.0080  -18.9020 N   0  0  0  0  0  0  0  0  0  0  0  0
  -20.8320    4.9910  -15.3130 N   0  0  0  0  0  0  0  0  0  0  0  0
  -19.1950    5.4560  -17.0350 C   0  0  0  0  0  0  0  0  0  0  0  0
  -23.0900    8.0760  -10.7740 C   0  0  0  0  0  0  0  0  0  0  0  0
  -23.5970    9.0820  -10.0030 C   0  0  0  0  0  0  0  0  0  0  0  0
  -22.2710    7.1580  -10.2330 N   0  0  0  0  0  0  0  0  0  0  0  0
  -20.4880    5.1190  -16.6220 C   0  0  0  0  0  0  0  0  0  0  0  0
  -24.8090    9.4170  -10.1300 C   0  0  0  0  0  0  0  0  0  0  0  0
  -21.2010    6.2430  -12.1940 C   0  0  0  0  0  0  0  0  0  0  0  0
  -17.1650    6.1230  -21.5330 C   0  0  0  0  0  0  0  0  0  0  0  0
  -19.0180    5.9000  -14.3530 O   0  0  0  0  0  0  0  0  0  0  0  0
  -20.6050    3.9000  -12.2590 C   0  0  0  0  0  0  0  0  0  0  0  0
  -21.7220    6.1040  -10.9070 C   0  0  0  0  0  0  0  0  0  0  0  0
  -23.3980    8.0280  -11.9610 O   0  0  0  0  0  0  0  0  0  0  0  0
  -21.4750    4.9000  -17.5900 C   0  0  0  0  0  0  0  0  0  0  0  0
  -21.1160    3.7520  -10.9680 C   0  0  0  0  0  0  0  0  0  0  0  0
  -21.6730    4.8470  -10.2980 C   0  0  0  0  0  0  0  0  0  0  0  0
  -25.4630   10.4980   -9.3440 C   0  0  0  0  0  0  0  0  0  0  0  0
  -20.0160    2.7110  -12.9770 C   0  0  0  0  0  0  0  0  0  0  0  0
  -17.5000    5.7490  -22.8340 C   0  0  0  0  0  0  0  0  0  0  0  0
  -15.9480    6.7710  -21.2940 C   0  0  0  0  0  0  0  0  0  0  0  0
  -26.1140   11.5330  -10.0160 C   0  0  0  0  0  0  0  0  0  0  0  0
  -25.4580   10.4820   -7.9460 C   0  0  0  0  0  0  0  0  0  0  0  0
  -16.6310    6.0130  -23.8920 C   0  0  0  0  0  0  0  0  0  0  0  0
  -15.0760    7.0360  -22.3510 C   0  0  0  0  0  0  0  0  0  0  0  0
  -26.7430   12.5560   -9.3010 C   0  0  0  0  0  0  0  0  0  0  0  0
  -26.0870   11.5010   -7.2280 C   0  0  0  0  0  0  0  0  0  0  0  0
  -15.4190    6.6560  -23.6520 C   0  0  0  0  0  0  0  0  0  0  0  0
  -26.7320   12.5380   -7.9070 C   0  0  0  0  0  0  0  0  0  0  0  0
  -19.9175    5.4255  -21.4310 H   0  0  0  0  0  0  0  0  0  0  0  0
  -21.7453    4.5566  -15.1181 H   0  0  0  0  0  0  0  0  0  0  0  0
  -18.4005    5.6273  -16.2937 H   0  0  0  0  0  0  0  0  0  0  0  0
  -22.9540    9.5984   -9.2750 H   0  0  0  0  0  0  0  0  0  0  0  0
  -22.0396    7.2566   -9.2342 H   0  0  0  0  0  0  0  0  0  0  0  0
  -25.4188    8.8753  -10.8681 H   0  0  0  0  0  0  0  0  0  0  0  0
  -21.2205    7.2283  -12.6827 H   0  0  0  0  0  0  0  0  0  0  0  0
  -22.4952    4.6360  -17.2744 H   0  0  0  0  0  0  0  0  0  0  0  0
  -21.0805    2.7693  -10.4750 H   0  0  0  0  0  0  0  0  0  0  0  0
  -22.0760    4.7172   -9.2827 H   0  0  0  0  0  0  0  0  0  0  0  0
  -19.6538    1.9798  -12.2394 H   0  0  0  0  0  0  0  0  0  0  0  0
  -20.7872    2.2445  -13.6076 H   0  0  0  0  0  0  0  0  0  0  0  0
  -19.1776    3.0418  -13.6076 H   0  0  0  0  0  0  0  0  0  0  0  0
  -18.4569    5.2420  -23.0270 H   0  0  0  0  0  0  0  0  0  0  0  0
  -15.6781    7.0721  -20.2710 H   0  0  0  0  0  0  0  0  0  0  0  0
  -26.1323   11.5439  -11.1158 H   0  0  0  0  0  0  0  0  0  0  0  0
  -24.9564    9.6631   -7.4095 H   0  0  0  0  0  0  0  0  0  0  0  0
  -16.9024    5.7138  -24.9151 H   0  0  0  0  0  0  0  0  0  0  0  0
  -14.1190    7.5438  -22.1605 H   0  0  0  0  0  0  0  0  0  0  0  0
  -27.2460   13.3741   -9.8373 H   0  0  0  0  0  0  0  0  0  0  0  0
  -26.0748   11.4874   -6.1282 H   0  0  0  0  0  0  0  0  0  0  0  0
  -14.7322    6.8647  -24.4855 H   0  0  0  0  0  0  0  0  0  0  0  0
  -27.2306   13.3394   -7.3422 H   0  0  0  0  0  0  0  0  0  0  0  0
 17  1  1  0
  2  1  1  0
  1  3  2  0
  2  4  1  0
  3  6  1  0
  4  8  2  0
  4  6  1  0
  9  5  1  0
 18  5  2  0
  5  7  1  0
  6 10  2  0
  7 19  1  0
  7 16  2  0
  8 22  1  0
 14  9  1  0
 10 14  1  0
 21 11  2  0
 11 13  1  0
 11 12  1  0
 15 12  2  0
 20 13  1  0
 22 14  2  0
 15 25  1  0
 16 20  1  0
 27 17  2  0
 17 28  1  0
 26 19  1  0
 19 23  2  0
 20 24  2  0
 23 24  1  0
 29 25  2  0
 25 30  1  0
 31 27  1  0
 32 28  2  0
 29 33  1  0
 30 34  2  0
 31 35  2  0
 35 32  1  0
 33 36  2  0
 36 34  1  0
  2 37  1  0
  9 38  1  0
 10 39  1  0
 12 40  1  0
 13 41  1  0
 15 42  1  0
 16 43  1  0
 22 44  1  0
 23 45  1  0
 24 46  1  0
 26 47  1  0
 26 48  1  0
 26 49  1  0
 27 50  1  0
 28 51  1  0
 29 52  1  0
 30 53  1  0
 31 54  1  0
 32 55  1  0
 33 56  1  0
 34 57  1  0
 35 58  1  0
 36 59  1  0
A    1
C1
A    2
N2
A    3
N3
A    4
C4
A    5
C5
A    6
C6
A    7
C7
A    8
N8
A    9
N9
A   10
C10
A   11
C11
A   12
C12
A   13
N13
A   14
C14
A   15
C15
A   16
C16
A   17
C17
A   18
O18
A   19
C19
A   20
C20
A   21
O21
A   22
C22
A   23
C23
A   24
C24
A   25
C25
A   26
C26
A   27
C27
A   28
C28
A   29
C29
A   30
C30
A   31
C31
A   32
C32
A   33
C33
A   34
C34
A   35
C35
A   36
C36
M  END
