3PJC_PJC_A_800
     RDKit          3D

 49 53  0  0  0  0  0  0  0  0999 V2000
    6.9060   -4.9890    8.4100 C   0  0  0  0  0  0  0  0  0  0  0  0
    7.8390   -4.3930    9.2970 C   0  0  0  0  0  0  0  0  0  0  0  0
    6.3930   -4.9250   11.1290 C   0  0  0  0  0  0  0  0  0  0  0  0
    5.7720   -5.6080    8.9690 C   0  0  0  0  0  0  0  0  0  0  0  0
    6.2410   -4.9710   12.4880 N   0  0  0  0  0  0  0  0  0  0  0  0
    7.1870   -4.2920   13.3850 C   0  0  0  0  0  0  0  0  0  0  0  0
    6.1520   -7.1230   13.5760 C   0  0  0  0  0  0  0  0  0  0  0  0
   10.3840   -3.9280    9.3560 C   0  0  0  0  0  0  0  0  0  0  0  0
    6.3820   -4.2730    6.1850 F   0  0  0  0  0  0  0  0  0  0  0  0
    7.0970   -5.1730    6.9060 C   0  0  0  0  0  0  0  0  0  0  0  0
    8.4040   -5.1100    6.5590 F   0  0  0  0  0  0  0  0  0  0  0  0
    6.7030   -6.4360    6.6030 F   0  0  0  0  0  0  0  0  0  0  0  0
    7.5200   -4.3750   10.6040 N   0  0  0  0  0  0  0  0  0  0  0  0
    5.5640   -5.6010   10.2960 N   0  0  0  0  0  0  0  0  0  0  0  0
    8.1780   -5.4090   13.8430 C   0  0  0  0  0  0  0  0  0  0  0  0
    7.4190   -6.6550   14.2810 C   0  0  0  0  0  0  0  0  0  0  0  0
    5.2930   -5.8960   13.1330 C   0  0  0  0  0  0  0  0  0  0  0  0
    7.8330   -7.2830   15.2290 O   0  0  0  0  0  0  0  0  0  0  0  0
    9.1260   -3.6660    8.9310 C   0  0  0  0  0  0  0  0  0  0  0  0
   11.2240   -2.8940    8.7150 C   0  0  0  0  0  0  0  0  0  0  0  0
   10.4940   -2.1540    7.8620 N   0  0  0  0  0  0  0  0  0  0  0  0
    9.2240   -2.5860    7.9510 C   0  0  0  0  0  0  0  0  0  0  0  0
    8.2700   -2.1470    7.3370 O   0  0  0  0  0  0  0  0  0  0  0  0
   12.4200   -2.7620    8.9020 O   0  0  0  0  0  0  0  0  0  0  0  0
   10.8720   -4.8370   10.4280 C   0  0  0  0  0  0  0  0  0  0  0  0
   11.9670   -4.6160   11.1910 C   0  0  0  0  0  0  0  0  0  0  0  0
   12.1360   -5.5780   12.0590 N   0  0  0  0  0  0  0  0  0  0  0  0
   11.2000   -6.5310   11.9160 C   0  0  0  0  0  0  0  0  0  0  0  0
   10.3360   -6.1800   10.8690 C   0  0  0  0  0  0  0  0  0  0  0  0
    9.2930   -7.0330   10.4880 C   0  0  0  0  0  0  0  0  0  0  0  0
    9.1190   -8.2100   11.2460 C   0  0  0  0  0  0  0  0  0  0  0  0
    9.9780   -8.5420   12.3290 C   0  0  0  0  0  0  0  0  0  0  0  0
   11.0580   -7.7080   12.6720 C   0  0  0  0  0  0  0  0  0  0  0  0
    5.0454   -6.1048    8.3093 H   0  0  0  0  0  0  0  0  0  0  0  0
    7.7232   -3.4943   12.8500 H   0  0  0  0  0  0  0  0  0  0  0  0
    6.6803   -3.8133   14.2359 H   0  0  0  0  0  0  0  0  0  0  0  0
    5.5639   -7.7482   14.2639 H   0  0  0  0  0  0  0  0  0  0  0  0
    6.4323   -7.7038   12.6849 H   0  0  0  0  0  0  0  0  0  0  0  0
    8.8433   -5.6670   13.0059 H   0  0  0  0  0  0  0  0  0  0  0  0
    8.7645   -5.0342   14.6948 H   0  0  0  0  0  0  0  0  0  0  0  0
    4.8229   -5.4194   14.0058 H   0  0  0  0  0  0  0  0  0  0  0  0
    4.4789   -6.1889   12.4537 H   0  0  0  0  0  0  0  0  0  0  0  0
   10.8423   -1.3984    7.2547 H   0  0  0  0  0  0  0  0  0  0  0  0
   12.6278   -3.7420   11.0936 H   0  0  0  0  0  0  0  0  0  0  0  0
   12.8889   -5.6024   12.7615 H   0  0  0  0  0  0  0  0  0  0  0  0
    8.6388   -6.7960    9.6360 H   0  0  0  0  0  0  0  0  0  0  0  0
    8.2938   -8.8914   10.9914 H   0  0  0  0  0  0  0  0  0  0  0  0
    9.7963   -9.4612   12.9053 H   0  0  0  0  0  0  0  0  0  0  0  0
   11.7525   -7.9626   13.4862 H   0  0  0  0  0  0  0  0  0  0  0  0
 10  1  1  0
  1  4  2  0
  1  2  1  0
 19  2  1  0
  2 13  2  0
 14  3  2  0
 13  3  1  0
  3  5  1  0
  4 14  1  0
  5 17  1  0
  5  6  1  0
  6 15  1  0
 17  7  1  0
  7 16  1  0
 20  8  1  0
 19  8  2  0
  8 25  1  0
  9 10  1  0
 11 10  1  0
 12 10  1  0
 15 16  1  0
 16 18  2  0
 22 19  1  0
 21 20  1  0
 20 24  2  0
 21 22  1  0
 23 22  2  0
 25 29  1  0
 25 26  2  0
 26 27  1  0
 28 27  1  0
 29 28  2  0
 28 33  1  0
 30 29  1  0
 30 31  2  0
 31 32  1  0
 32 33  2  0
  4 34  1  0
  6 35  1  0
  6 36  1  0
  7 37  1  0
  7 38  1  0
 15 39  1  0
 15 40  1  0
 17 41  1  0
 17 42  1  0
 21 43  1  0
 26 44  1  0
 27 45  1  0
 30 46  1  0
 31 47  1  0
 32 48  1  0
 33 49  1  0
A    1
C5
A    2
C6
A    3
C8
A    4
C10
A    5
N12
A    6
C13
A    7
C20
A    8
C28
A    9
F1
A   10
C2
A   11
F3
A   12
F4
A   13
N7
A   14
N9
A   15
C16
A   16
C19
A   17
C23
A   18
O26
A   19
C27
A   20
C29
A   21
N30
A   22
C32
A   23
O33
A   24
O34
A   25
C35
A   26
C36
A   27
N38
A   28
C40
A   29
C41
A   30
C42
A   31
C44
A   32
C46
A   33
C48
M  END
