1C14_TCL_A_502
     RDKit          3D

 24 25  0  0  0  0  0  0  0  0999 V2000
    3.2070   23.0950  134.2020 C   0  0  0  0  0  0  0  0  0  0  0  0
    3.3860   22.4660  132.9630 C   0  0  0  0  0  0  0  0  0  0  0  0
    3.2250   22.3210  135.3850 C   0  0  0  0  0  0  0  0  0  0  0  0
    3.4200   20.9490  135.3160 C   0  0  0  0  0  0  0  0  0  0  0  0
    3.5940   20.3170  134.0830 C   0  0  0  0  0  0  0  0  0  0  0  0
    3.5710   21.0850  132.8990 C   0  0  0  0  0  0  0  0  0  0  0  0
    0.0820   18.6000  138.2000 C   0  0  0  0  0  0  0  0  0  0  0  0
    1.3590   18.3310  138.7610 C   0  0  0  0  0  0  0  0  0  0  0  0
    2.5070   18.8940  138.1790 C   0  0  0  0  0  0  0  0  0  0  0  0
    2.3740   19.7320  137.0330 C   0  0  0  0  0  0  0  0  0  0  0  0
   -0.0480   19.4350  137.0600 C   0  0  0  0  0  0  0  0  0  0  0  0
    1.1000   20.0010  136.4770 C   0  0  0  0  0  0  0  0  0  0  0  0
    3.5100   20.2460  136.4780 O   0  0  0  0  0  0  0  0  0  0  0  0
    3.3890   23.3920  131.5180 Cl  0  0  0  0  0  0  0  0  0  0  0  0
   -1.3260   17.8840  138.9020 Cl  0  0  0  0  0  0  0  0  0  0  0  0
    4.0650   18.5300  138.8380 Cl  0  0  0  0  0  0  0  0  0  0  0  0
    3.0190   22.8910  136.6190 O   0  0  0  0  0  0  0  0  0  0  0  0
    3.0536   24.1830  134.2540 H   0  0  0  0  0  0  0  0  0  0  0  0
    3.7478   19.2289  134.0348 H   0  0  0  0  0  0  0  0  0  0  0  0
    3.6993   20.5932  131.9234 H   0  0  0  0  0  0  0  0  0  0  0  0
    1.4486   17.6850  139.6468 H   0  0  0  0  0  0  0  0  0  0  0  0
   -1.0417   19.6386  136.6344 H   0  0  0  0  0  0  0  0  0  0  0  0
    1.0085   20.6496  135.5933 H   0  0  0  0  0  0  0  0  0  0  0  0
    3.2064   22.3725  137.4413 H   0  0  0  0  0  0  0  0  0  0  0  0
  1  2  2  0
  1  3  1  0
  2  6  1  0
  2 14  1  0
  3  4  2  0
  3 17  1  0
  4  5  1  0
  4 13  1  0
  5  6  2  0
  7  8  2  0
  7 11  1  0
  7 15  1  0
  8  9  1  0
  9 10  2  0
  9 16  1  0
 10 12  1  0
 10 13  1  0
 11 12  2  0
  1 18  1  0
  5 19  1  0
  6 20  1  0
  8 21  1  0
 11 22  1  0
 12 23  1  0
 17 24  1  0
A    1
C1
A    2
C2
A    3
C6
A    4
C5
A    5
C4
A    6
C3
A    7
C11
A    8
C10
A    9
C9
A   10
C8
A   11
C12
A   12
C13
A   13
O7
A   14
CL14
A   15
CL15
A   16
CL16
A   17
O17
M  END
