3PKC_Y08_A_288
     RDKit          3D

 68 69  0  0  0  0  0  0  0  0999 V2000
  -25.0830   -3.8440  -11.3840 N   0  0  0  0  0  0  0  0  0  0  0  0
  -25.7780    1.8460  -15.3460 O   0  0  0  0  0  0  0  0  0  0  0  0
  -28.3820   -4.7900   -7.8240 N   0  0  0  0  0  0  0  0  0  0  0  0
  -26.5520   -1.7170  -13.5510 O   0  0  0  0  0  0  0  0  0  0  0  0
  -25.1310   -0.7100  -15.4290 O   0  0  0  0  0  0  0  0  0  0  0  0
  -23.9180   -2.1920  -10.4760 O   0  0  0  0  0  0  0  0  0  0  0  0
  -29.4440   -6.6510   -8.4060 O   0  0  0  0  0  0  0  0  0  0  0  0
  -22.9960   -1.3710  -12.9720 O   0  0  0  0  0  0  0  0  0  0  0  0
  -26.0730    2.9020  -10.6020 C   0  0  0  0  0  0  0  0  0  0  0  0
  -26.3270    2.1160  -11.8640 C   0  0  0  0  0  0  0  0  0  0  0  0
  -25.5180    2.0730  -12.9230 C   0  0  0  0  0  0  0  0  0  0  0  0
  -25.9440    1.1720  -14.0330 C   0  0  0  0  0  0  0  0  0  0  0  0
  -25.0070   -0.0460  -14.1040 C   0  0  0  0  0  0  0  0  0  0  0  0
  -25.3130   -1.0540  -13.0110 C   0  0  0  0  0  0  0  0  0  0  0  0
  -24.2340   -2.1010  -12.8330 C   0  0  0  0  0  0  0  0  0  0  0  0
  -26.1070    1.9040   -9.4510 C   0  0  0  0  0  0  0  0  0  0  0  0
  -24.7530    3.6400  -10.6570 C   0  0  0  0  0  0  0  0  0  0  0  0
  -27.1700    3.9890  -10.4350 C   0  0  0  0  0  0  0  0  0  0  0  0
  -24.3860   -2.7260  -11.4770 C   0  0  0  0  0  0  0  0  0  0  0  0
  -25.3740   -4.5240  -10.0790 C   0  0  0  0  0  0  0  0  0  0  0  0
  -26.7650   -4.1970   -9.5720 C   0  0  0  0  0  0  0  0  0  0  0  0
  -26.6100   -2.7520   -9.0200 C   0  0  0  0  0  0  0  0  0  0  0  0
  -27.8380   -2.3620   -8.1560 C   0  0  0  0  0  0  0  0  0  0  0  0
  -28.2710   -3.4800   -7.1400 C   0  0  0  0  0  0  0  0  0  0  0  0
  -27.1060   -5.2210   -8.4360 C   0  0  0  0  0  0  0  0  0  0  0  0
  -29.5220   -5.5490   -7.8380 C   0  0  0  0  0  0  0  0  0  0  0  0
  -30.7420   -5.1500   -6.9530 C   0  0  0  0  0  0  0  0  0  0  0  0
  -32.1430   -5.7080   -7.4480 C   0  0  0  0  0  0  0  0  0  0  0  0
  -31.9070   -4.2190   -7.1850 C   0  0  0  0  0  0  0  0  0  0  0  0
  -21.8450   -2.2930  -13.0610 C   0  0  0  0  0  0  0  0  0  0  0  0
  -25.4443   -4.2696  -12.2496 H   0  0  0  0  0  0  0  0  0  0  0  0
  -25.5438    2.7970  -15.2015 H   0  0  0  0  0  0  0  0  0  0  0  0
  -27.1188   -2.0203  -12.7981 H   0  0  0  0  0  0  0  0  0  0  0  0
  -25.3112   -1.6748  -15.2991 H   0  0  0  0  0  0  0  0  0  0  0  0
  -27.2564    1.5298  -11.9149 H   0  0  0  0  0  0  0  0  0  0  0  0
  -24.5928    2.6658  -12.9750 H   0  0  0  0  0  0  0  0  0  0  0  0
  -26.9909    0.8953  -13.8394 H   0  0  0  0  0  0  0  0  0  0  0  0
  -23.9797    0.3202  -13.9607 H   0  0  0  0  0  0  0  0  0  0  0  0
  -25.4066   -0.5742  -12.0256 H   0  0  0  0  0  0  0  0  0  0  0  0
  -24.2798   -2.9247  -13.5606 H   0  0  0  0  0  0  0  0  0  0  0  0
  -26.0885    2.4468   -8.4944 H   0  0  0  0  0  0  0  0  0  0  0  0
  -27.0261    1.3030   -9.5139 H   0  0  0  0  0  0  0  0  0  0  0  0
  -25.2309    1.2418   -9.5139 H   0  0  0  0  0  0  0  0  0  0  0  0
  -24.4003    3.8372   -9.6339 H   0  0  0  0  0  0  0  0  0  0  0  0
  -24.0113    3.0257  -11.1885 H   0  0  0  0  0  0  0  0  0  0  0  0
  -24.8879    4.5936  -11.1885 H   0  0  0  0  0  0  0  0  0  0  0  0
  -27.3497    4.1671   -9.3645 H   0  0  0  0  0  0  0  0  0  0  0  0
  -26.8364    4.9228  -10.9111 H   0  0  0  0  0  0  0  0  0  0  0  0
  -28.1007    3.6468  -10.9111 H   0  0  0  0  0  0  0  0  0  0  0  0
  -25.2924   -5.6121  -10.2184 H   0  0  0  0  0  0  0  0  0  0  0  0
  -24.6461   -4.1651   -9.3365 H   0  0  0  0  0  0  0  0  0  0  0  0
  -27.5682   -4.2576  -10.3211 H   0  0  0  0  0  0  0  0  0  0  0  0
  -25.7014   -2.6966   -8.4024 H   0  0  0  0  0  0  0  0  0  0  0  0
  -26.5375   -2.0548   -9.8677 H   0  0  0  0  0  0  0  0  0  0  0  0
  -27.5896   -1.4531   -7.5884 H   0  0  0  0  0  0  0  0  0  0  0  0
  -28.6816   -2.2067   -8.8447 H   0  0  0  0  0  0  0  0  0  0  0  0
  -29.2460   -3.2154   -6.7048 H   0  0  0  0  0  0  0  0  0  0  0  0
  -27.5100   -3.5555   -6.3493 H   0  0  0  0  0  0  0  0  0  0  0  0
  -26.3075   -5.2236   -7.6794 H   0  0  0  0  0  0  0  0  0  0  0  0
  -27.1935   -6.2393   -8.8428 H   0  0  0  0  0  0  0  0  0  0  0  0
  -30.0325   -5.1576   -6.1124 H   0  0  0  0  0  0  0  0  0  0  0  0
  -32.2615   -6.0787   -8.4768 H   0  0  0  0  0  0  0  0  0  0  0  0
  -32.8582   -6.4681   -7.1004 H   0  0  0  0  0  0  0  0  0  0  0  0
  -32.3947   -3.7369   -6.3249 H   0  0  0  0  0  0  0  0  0  0  0  0
  -32.0447   -3.3095   -7.7882 H   0  0  0  0  0  0  0  0  0  0  0  0
  -21.5106   -2.5609  -12.0479 H   0  0  0  0  0  0  0  0  0  0  0  0
  -22.1452   -3.2033  -13.6007 H   0  0  0  0  0  0  0  0  0  0  0  0
  -21.0222   -1.8013  -13.6007 H   0  0  0  0  0  0  0  0  0  0  0  0
 19  1  1  0
  1 20  1  0
  2 12  1  0
 25  3  1  0
 26  3  1  0
  3 24  1  0
  4 14  1  0
  5 13  1  0
 19  6  2  0
  7 26  2  0
 30  8  1  0
  8 15  1  0
 10  9  1  0
 17  9  1  0
  9 18  1  0
  9 16  1  0
 11 10  2  0
 12 11  1  0
 13 12  1  0
 13 14  1  0
 14 15  1  0
 15 19  1  0
 20 21  1  0
 21 22  1  0
 21 25  1  0
 22 23  1  0
 23 24  1  0
 26 27  1  0
 28 27  1  0
 29 27  1  0
 28 29  1  0
  1 31  1  0
  2 32  1  0
  4 33  1  0
  5 34  1  0
 10 35  1  0
 11 36  1  0
 12 37  1  0
 13 38  1  0
 14 39  1  0
 15 40  1  0
 16 41  1  0
 16 42  1  0
 16 43  1  0
 17 44  1  0
 17 45  1  0
 17 46  1  0
 18 47  1  0
 18 48  1  0
 18 49  1  0
 20 50  1  0
 20 51  1  0
 21 52  1  0
 22 53  1  0
 22 54  1  0
 23 55  1  0
 23 56  1  0
 24 57  1  0
 24 58  1  0
 25 59  1  0
 25 60  1  0
 27 61  1  0
 28 62  1  0
 28 63  1  0
 29 64  1  0
 29 65  1  0
 30 66  1  0
 30 67  1  0
 30 68  1  0
A    1
N1
A    2
O1
A    3
N2
A    4
O2
A    5
O3
A    6
O4
A    7
O5
A    8
O6
A    9
C01
A   10
C02
A   11
C03
A   12
C04
A   13
C05
A   14
C06
A   15
C07
A   16
C08
A   17
C09
A   18
C10
A   19
C11
A   20
C12
A   21
C13
A   22
C14
A   23
C15
A   24
C16
A   25
C17
A   26
C18
A   27
C19
A   28
C20
A   29
C21
A   30
C22
M  END
