3PLL_F06_A_2001
     RDKit          3D

 21 21  0  0  0  0  0  0  0  0999 V2000
    1.4090   10.0370    8.8180 C   0  0  0  0  0  0  0  0  0  0  0  0
    3.0880   10.0610    9.2330 Cl  0  0  0  0  0  0  0  0  0  0  0  0
    0.7400   11.2710    8.8000 C   0  0  0  0  0  0  0  0  0  0  0  0
   -0.6180   11.2590    8.4720 C   0  0  0  0  0  0  0  0  0  0  0  0
   -1.2720   10.0660    8.1640 C   0  0  0  0  0  0  0  0  0  0  0  0
   -0.6150    8.8320    8.1800 C   0  0  0  0  0  0  0  0  0  0  0  0
    0.7550    8.8410    8.5160 C   0  0  0  0  0  0  0  0  0  0  0  0
    1.5200    7.5200    8.5710 C   0  0  0  0  0  0  0  0  0  0  0  0
    1.4050    7.0520   10.3350 S   0  0  0  0  0  0  0  0  0  0  0  0
    1.9770    5.4130   10.3910 C   0  0  0  0  0  0  0  0  0  0  0  0
    1.8600    4.7630   11.4970 N   0  0  0  0  0  0  0  0  0  0  0  0
    2.5210    4.8930    9.2690 N   0  0  0  0  0  0  0  0  0  0  0  0
    1.2638   12.2094    9.0346 H   0  0  0  0  0  0  0  0  0  0  0  0
   -1.1799   12.2045    8.4564 H   0  0  0  0  0  0  0  0  0  0  0  0
   -2.3394   10.0971    7.8999 H   0  0  0  0  0  0  0  0  0  0  0  0
   -1.1424    7.8966    7.9414 H   0  0  0  0  0  0  0  0  0  0  0  0
    1.0471    6.7621    7.9292 H   0  0  0  0  0  0  0  0  0  0  0  0
    2.5561    7.6035    8.2111 H   0  0  0  0  0  0  0  0  0  0  0  0
    1.9489    5.2569   12.3965 H   0  0  0  0  0  0  0  0  0  0  0  0
    1.6776    3.7494   11.4818 H   0  0  0  0  0  0  0  0  0  0  0  0
    2.8702    3.9240    9.2673 H   0  0  0  0  0  0  0  0  0  0  0  0
  7  1  2  0
  3  1  1  0
  1  2  1  0
  4  3  2  0
  5  4  1  0
  5  6  2  0
  6  7  1  0
  7  8  1  0
  8  9  1  0
  9 10  1  0
 12 10  2  3
 10 11  1  0
  3 13  1  0
  4 14  1  0
  5 15  1  0
  6 16  1  0
  8 17  1  0
  8 18  1  0
 11 19  1  0
 11 20  1  0
 12 21  1  0
A    1
C1
A    2
CL2
A    3
C3
A    4
C4
A    5
C5
A    6
C6
A    7
C7
A    8
C8
A    9
S9
A   10
C10
A   11
N11
A   12
N12
M  END
