3PMY_41L_A_2001
     RDKit          3D

 32 34  0  0  0  0  0  0  0  0999 V2000
   -2.5180    7.9390    6.8010 C   0  0  0  0  0  0  0  0  0  0  0  0
   -1.1740    7.5090    7.3140 C   0  0  0  0  0  0  0  0  0  0  0  0
   -1.0760    6.5070    8.4310 C   0  0  0  0  0  0  0  0  0  0  0  0
   -0.4820    5.2890    8.0200 N   0  0  0  0  0  0  0  0  0  0  0  0
   -0.2070    4.4190    8.8690 N   0  0  0  0  0  0  0  0  0  0  0  0
   -1.4410    6.6530    9.6010 O   0  0  0  0  0  0  0  0  0  0  0  0
   -3.3090    7.0770    6.0290 C   0  0  0  0  0  0  0  0  0  0  0  0
   -4.5550    7.4930    5.5820 C   0  0  0  0  0  0  0  0  0  0  0  0
   -5.0420    8.7690    5.8350 C   0  0  0  0  0  0  0  0  0  0  0  0
   -4.2640    9.6210    6.6130 C   0  0  0  0  0  0  0  0  0  0  0  0
   -3.0220    9.2110    7.0730 C   0  0  0  0  0  0  0  0  0  0  0  0
   -1.1650    3.7120    9.6110 C   0  0  0  0  0  0  0  0  0  0  0  0
   -0.4350    2.8630   10.4440 C   0  0  0  0  0  0  0  0  0  0  0  0
    0.9130    3.0970   10.1840 N   0  0  0  0  0  0  0  0  0  0  0  0
    1.0380    4.0410    9.2270 C   0  0  0  0  0  0  0  0  0  0  0  0
   -2.5680    3.7450    9.6170 C   0  0  0  0  0  0  0  0  0  0  0  0
   -3.1870    2.8610   10.5120 C   0  0  0  0  0  0  0  0  0  0  0  0
   -2.4440    1.9970   11.3120 C   0  0  0  0  0  0  0  0  0  0  0  0
   -1.0430    1.9890   11.3330 C   0  0  0  0  0  0  0  0  0  0  0  0
   -0.6298    7.0832    6.4581 H   0  0  0  0  0  0  0  0  0  0  0  0
   -0.7723    8.4280    7.7657 H   0  0  0  0  0  0  0  0  0  0  0  0
   -0.2782    5.1229    7.0241 H   0  0  0  0  0  0  0  0  0  0  0  0
   -2.9421    6.0709    5.7776 H   0  0  0  0  0  0  0  0  0  0  0  0
   -5.1770    6.7897    5.0089 H   0  0  0  0  0  0  0  0  0  0  0  0
   -6.0123    9.0958    5.4329 H   0  0  0  0  0  0  0  0  0  0  0  0
   -4.6364   10.6251    6.8644 H   0  0  0  0  0  0  0  0  0  0  0  0
   -2.4165    9.9090    7.6698 H   0  0  0  0  0  0  0  0  0  0  0  0
    1.9808    4.4302    8.8151 H   0  0  0  0  0  0  0  0  0  0  0  0
   -3.1427    4.4184    8.9641 H   0  0  0  0  0  0  0  0  0  0  0  0
   -4.2846    2.8498   10.5838 H   0  0  0  0  0  0  0  0  0  0  0  0
   -2.9820    1.2875   11.9578 H   0  0  0  0  0  0  0  0  0  0  0  0
   -0.4670    1.3367   12.0059 H   0  0  0  0  0  0  0  0  0  0  0  0
  7  1  2  0
  1 11  1  0
  1  2  1  0
  2  3  1  0
  4  3  1  0
  3  6  2  0
  4  5  1  0
  5 15  1  0
  5 12  1  0
  8  7  1  0
  8  9  2  0
  9 10  1  0
 10 11  2  0
 12 16  1  0
 12 13  2  0
 14 13  1  0
 13 19  1  0
 15 14  2  0
 16 17  2  0
 17 18  1  0
 18 19  2  0
  2 20  1  0
  2 21  1  0
  4 22  1  0
  7 23  1  0
  8 24  1  0
  9 25  1  0
 10 26  1  0
 11 27  1  0
 15 28  1  0
 16 29  1  0
 17 30  1  0
 18 31  1  0
 19 32  1  0
A    1
C1
A    2
C2
A    3
C3
A    4
N4
A    5
N5
A    6
O6
A    7
C7
A    8
C8
A    9
C9
A   10
C10
A   11
C11
A   12
C12
A   13
C13
A   14
N14
A   15
C15
A   16
C16
A   17
C17
A   18
C18
A   19
C19
M  END
