3OVV_BUD_B_3001
     RDKit          3D

 16 15  0  0  0  0  0  0  0  0999 V2000
  -10.6170    0.1940   15.2680 C   0  0  0  0  0  0  0  0  0  0  0  0
   -8.4540   -0.4900   15.9600 O   0  0  0  0  0  0  0  0  0  0  0  0
   -9.8460   -0.5620   16.3610 C   0  0  0  0  0  0  0  0  0  0  0  0
   -9.5500   -2.6770   17.4860 O   0  0  0  0  0  0  0  0  0  0  0  0
  -10.2570   -2.0380   16.3850 C   0  0  0  0  0  0  0  0  0  0  0  0
  -11.7540   -2.1000   16.7090 C   0  0  0  0  0  0  0  0  0  0  0  0
  -11.3278    0.8910   15.7360 H   0  0  0  0  0  0  0  0  0  0  0  0
   -9.9088    0.7574   14.6427 H   0  0  0  0  0  0  0  0  0  0  0  0
  -11.1664   -0.5251   14.6427 H   0  0  0  0  0  0  0  0  0  0  0  0
   -7.8796   -0.4603   16.7658 H   0  0  0  0  0  0  0  0  0  0  0  0
  -10.0398   -0.1313   17.3544 H   0  0  0  0  0  0  0  0  0  0  0  0
   -9.9134   -2.3486   18.3464 H   0  0  0  0  0  0  0  0  0  0  0  0
  -10.0323   -2.5260   15.4251 H   0  0  0  0  0  0  0  0  0  0  0  0
  -11.8931   -2.1058   17.8002 H   0  0  0  0  0  0  0  0  0  0  0  0
  -12.2588   -1.2220   16.2797 H   0  0  0  0  0  0  0  0  0  0  0  0
  -12.1844   -3.0167   16.2797 H   0  0  0  0  0  0  0  0  0  0  0  0
  1  3  1  0
  2  3  1  0
  3  5  1  0
  5  4  1  0
  5  6  1  0
  1  7  1  0
  1  8  1  0
  1  9  1  0
  2 10  1  0
  3 11  1  0
  4 12  1  0
  5 13  1  0
  6 14  1  0
  6 15  1  0
  6 16  1  0
A    1
C1
A    2
O1
A    3
C2
A    4
O2
A    5
C3
A    6
C4
M  END
