3PPM_JG1_A_600
     RDKit          3D

 46 48  0  0  0  0  0  0  0  0999 V2000
   32.5530  -38.9130    7.6590 N   0  0  0  0  0  0  0  0  0  0  0  0
   33.3950  -39.9450    7.8620 C   0  0  0  0  0  0  0  0  0  0  0  0
   32.9480  -41.0900    8.5190 C   0  0  0  0  0  0  0  0  0  0  0  0
   31.6140  -41.1470    8.9280 C   0  0  0  0  0  0  0  0  0  0  0  0
   30.7620  -40.0650    8.6830 C   0  0  0  0  0  0  0  0  0  0  0  0
   31.2820  -38.9480    8.0330 C   0  0  0  0  0  0  0  0  0  0  0  0
   34.7270  -39.8840    7.4470 C   0  0  0  0  0  0  0  0  0  0  0  0
   35.4270  -38.9000    6.8570 N   0  0  0  0  0  0  0  0  0  0  0  0
   36.6060  -39.2610    6.6730 N   0  0  0  0  0  0  0  0  0  0  0  0
   36.7190  -40.5270    7.0760 C   0  0  0  0  0  0  0  0  0  0  0  0
   35.5490  -40.9460    7.6310 O   0  0  0  0  0  0  0  0  0  0  0  0
   37.9700  -41.3810    7.1060 C   0  0  0  0  0  0  0  0  0  0  0  0
   39.3180  -40.7480    6.7250 C   0  0  0  0  0  0  0  0  0  0  0  0
   37.8830  -42.5650    7.4460 O   0  0  0  0  0  0  0  0  0  0  0  0
   40.4330  -41.7670    6.5250 C   0  0  0  0  0  0  0  0  0  0  0  0
   41.7410  -41.0350    6.1990 C   0  0  0  0  0  0  0  0  0  0  0  0
   42.8790  -42.0100    5.8940 C   0  0  0  0  0  0  0  0  0  0  0  0
   43.2100  -42.9790    7.0220 C   0  0  0  0  0  0  0  0  0  0  0  0
   44.3560  -43.8870    6.5650 C   0  0  0  0  0  0  0  0  0  0  0  0
   44.7420  -44.9100    7.6380 C   0  0  0  0  0  0  0  0  0  0  0  0
   44.9920  -46.2280    7.2710 C   0  0  0  0  0  0  0  0  0  0  0  0
   45.3480  -47.1690    8.2330 C   0  0  0  0  0  0  0  0  0  0  0  0
   45.4420  -46.7960    9.5690 C   0  0  0  0  0  0  0  0  0  0  0  0
   45.1830  -45.4810    9.9370 C   0  0  0  0  0  0  0  0  0  0  0  0
   44.8370  -44.5380    8.9720 C   0  0  0  0  0  0  0  0  0  0  0  0
   33.6311  -41.9305    8.7112 H   0  0  0  0  0  0  0  0  0  0  0  0
   31.2336  -42.0419    9.4423 H   0  0  0  0  0  0  0  0  0  0  0  0
   29.7078  -40.0954    8.9958 H   0  0  0  0  0  0  0  0  0  0  0  0
   30.6306  -38.0856    7.8279 H   0  0  0  0  0  0  0  0  0  0  0  0
   39.1868  -40.1870    5.7879 H   0  0  0  0  0  0  0  0  0  0  0  0
   39.6186  -40.0993    7.5609 H   0  0  0  0  0  0  0  0  0  0  0  0
   40.5615  -42.3555    7.4454 H   0  0  0  0  0  0  0  0  0  0  0  0
   40.1715  -42.4389    5.6942 H   0  0  0  0  0  0  0  0  0  0  0  0
   41.5793  -40.3914    5.3217 H   0  0  0  0  0  0  0  0  0  0  0  0
   42.0277  -40.4407    7.0791 H   0  0  0  0  0  0  0  0  0  0  0  0
   42.5970  -42.5989    5.0088 H   0  0  0  0  0  0  0  0  0  0  0  0
   43.7788  -41.3967    5.7388 H   0  0  0  0  0  0  0  0  0  0  0  0
   43.5169  -42.4163    7.9160 H   0  0  0  0  0  0  0  0  0  0  0  0
   42.3257  -43.5849    7.2688 H   0  0  0  0  0  0  0  0  0  0  0  0
   44.0426  -44.4249    5.6581 H   0  0  0  0  0  0  0  0  0  0  0  0
   45.2335  -43.2533    6.3691 H   0  0  0  0  0  0  0  0  0  0  0  0
   44.9081  -46.5281    6.2161 H   0  0  0  0  0  0  0  0  0  0  0  0
   45.5550  -48.2078    7.9361 H   0  0  0  0  0  0  0  0  0  0  0  0
   45.7202  -47.5384   10.3315 H   0  0  0  0  0  0  0  0  0  0  0  0
   45.2515  -45.1839   10.9939 H   0  0  0  0  0  0  0  0  0  0  0  0
   44.6388  -43.4971    9.2674 H   0  0  0  0  0  0  0  0  0  0  0  0
  1  2  2  0
  1  6  1  0
  7  2  1  0
  2  3  1  0
  3  4  2  0
  5  4  1  0
  6  5  2  0
  8  7  2  0
  7 11  1  0
  9  8  1  0
  9 10  2  0
 10 12  1  0
 10 11  1  0
 13 12  1  0
 12 14  2  0
 15 13  1  0
 16 15  1  0
 17 16  1  0
 17 18  1  0
 19 18  1  0
 19 20  1  0
 21 20  2  0
 20 25  1  0
 21 22  1  0
 22 23  2  0
 23 24  1  0
 25 24  2  0
  3 26  1  0
  4 27  1  0
  5 28  1  0
  6 29  1  0
 13 30  1  0
 13 31  1  0
 15 32  1  0
 15 33  1  0
 16 34  1  0
 16 35  1  0
 17 36  1  0
 17 37  1  0
 18 38  1  0
 18 39  1  0
 19 40  1  0
 19 41  1  0
 21 42  1  0
 22 43  1  0
 23 44  1  0
 24 45  1  0
 25 46  1  0
A    1
N1
A    2
C2
A    3
C3
A    4
C4
A    5
C5
A    6
C6
A    7
C7
A    8
N8
A    9
N9
A   10
C10
A   11
O11
A   12
C12
A   13
C13
A   14
O14
A   15
C15
A   16
C16
A   17
C17
A   18
C18
A   19
C19
A   20
C20
A   21
C21
A   22
C22
A   23
C23
A   24
C24
A   25
C25
M  END
