3PPO_DCK_A_401
     RDKit          3D

 27 26  0  0  0  0  0  0  0  0999 V2000
   -1.7850   28.8330   10.4460 C   0  0  0  0  0  0  0  0  0  0  0  0
   -1.2470   29.6110    9.3430 N   0  0  0  0  0  0  0  0  0  0  0  0
    0.1040   29.1220    9.2440 C   0  0  0  0  0  0  0  0  0  0  0  0
   -2.0410   29.2940    8.1790 C   0  0  0  0  0  0  0  0  0  0  0  0
   -1.1380   31.0360    9.6090 C   0  0  0  0  0  0  0  0  0  0  0  0
   -2.0710   32.1070    9.1030 C   0  0  0  0  0  0  0  0  0  0  0  0
   -3.3200   31.9090    8.9030 O   0  0  0  0  0  0  0  0  0  0  0  0
   -1.7240   33.5170    9.5270 C   0  0  0  0  0  0  0  0  0  0  0  0
   -2.9330   34.3940    9.6910 C   0  0  0  0  0  0  0  0  0  0  0  0
   -4.0310   34.0050    9.7900 O   0  0  0  0  0  0  0  0  0  0  0  0
   -2.5970   35.6490    9.4650 O   0  0  0  0  0  0  0  0  0  0  0  0
   -1.4730   29.2842   11.3995 H   0  0  0  0  0  0  0  0  0  0  0  0
   -2.8834   28.8238   10.3868 H   0  0  0  0  0  0  0  0  0  0  0  0
   -1.4059   27.8021   10.3868 H   0  0  0  0  0  0  0  0  0  0  0  0
    0.5150   28.9732   10.2534 H   0  0  0  0  0  0  0  0  0  0  0  0
    0.1088   28.1651    8.7015 H   0  0  0  0  0  0  0  0  0  0  0  0
    0.7201   29.8542    8.7015 H   0  0  0  0  0  0  0  0  0  0  0  0
   -3.0189   28.9036    8.4974 H   0  0  0  0  0  0  0  0  0  0  0  0
   -2.1875   30.2026    7.5765 H   0  0  0  0  0  0  0  0  0  0  0  0
   -1.5214   28.5344    7.5765 H   0  0  0  0  0  0  0  0  0  0  0  0
   -1.1622   31.1272   10.7050 H   0  0  0  0  0  0  0  0  0  0  0  0
   -0.2440   31.2697    9.0122 H   0  0  0  0  0  0  0  0  0  0  0  0
   -1.7801   31.9536    8.0533 H   0  0  0  0  0  0  0  0  0  0  0  0
   -3.7859   31.8351    9.7734 H   0  0  0  0  0  0  0  0  0  0  0  0
   -1.1898   33.4729   10.4876 H   0  0  0  0  0  0  0  0  0  0  0  0
   -1.1034   33.9567    8.7324 H   0  0  0  0  0  0  0  0  0  0  0  0
   -2.4329   36.2620   10.2248 H   0  0  0  0  0  0  0  0  0  0  0  0
  1  2  1  0
  2  3  1  0
  2  4  1  0
  2  5  1  0
  5  6  1  0
  6  7  1  0
  6  8  1  0
  8  9  1  0
  9 10  2  0
  9 11  1  0
  1 12  1  0
  1 13  1  0
  1 14  1  0
  3 15  1  0
  3 16  1  0
  3 17  1  0
  4 18  1  0
  4 19  1  0
  4 20  1  0
  5 21  1  0
  5 22  1  0
  6 23  1  0
  7 24  1  0
  8 25  1  0
  8 26  1  0
 11 27  1  0
M  CHG  1   2   1
A    1
C01
A    2
N02
A    3
C03
A    4
C04
A    5
C05
A    6
C06
A    7
O07
A    8
C08
A    9
C09
A   10
O10
A   11
O11
M  END
