3PR2_7MN_B_2
     RDKit          3D

 53 55  0  0  0  0  0  0  0  0999 V2000
   80.1410   17.7630    8.5930 C   0  0  0  0  0  0  0  0  0  0  0  0
   81.2580   16.7610   10.4440 N   0  0  0  0  0  0  0  0  0  0  0  0
   81.1290   17.3820    7.9500 O   0  0  0  0  0  0  0  0  0  0  0  0
   80.2740   12.5310   14.1660 P   0  0  0  0  0  0  0  0  0  0  0  0
   85.1030   13.8170   11.9950 N   0  0  0  0  0  0  0  0  0  0  0  0
   84.9730   14.5240   10.8270 C   0  0  0  0  0  0  0  0  0  0  0  0
   83.8040   15.2920   10.5830 C   0  0  0  0  0  0  0  0  0  0  0  0
   83.6930   15.9560    9.5030 O   0  0  0  0  0  0  0  0  0  0  0  0
   82.7510   15.2710   11.6400 C   0  0  0  0  0  0  0  0  0  0  0  0
   82.9780   14.5020   12.8310 C   0  0  0  0  0  0  0  0  0  0  0  0
   84.1520   13.7930   12.9530 C   0  0  0  0  0  0  0  0  0  0  0  0
   80.1810   17.4160   10.0880 C   0  0  0  0  0  0  0  0  0  0  0  0
   79.0530   17.7660   11.0270 C   0  0  0  0  0  0  0  0  0  0  0  0
   75.5760   16.8780   10.5700 C   0  0  0  0  0  0  0  0  0  0  0  0
   80.2760   12.6430   15.6650 O   0  0  0  0  0  0  0  0  0  0  0  0
   86.0960   14.4730    9.8320 C   0  0  0  0  0  0  0  0  0  0  0  0
   78.8920   12.3620   13.6040 O   0  0  0  0  0  0  0  0  0  0  0  0
   81.2730   11.5460   13.6350 O   0  0  0  0  0  0  0  0  0  0  0  0
   81.5590   15.9880   11.5290 C   0  0  0  0  0  0  0  0  0  0  0  0
   80.6720   13.7790   13.6450 O   0  0  0  0  0  0  0  0  0  0  0  0
   81.9390   14.4270   13.9430 C   0  0  0  0  0  0  0  0  0  0  0  0
   76.9830   16.9120    9.9170 C   0  0  0  0  0  0  0  0  0  0  0  0
   75.9480   16.7360   12.0190 C   0  0  0  0  0  0  0  0  0  0  0  0
   78.0210   16.6760   10.9830 N   0  0  0  0  0  0  0  0  0  0  0  0
   77.3210   16.4940   12.1810 C   0  0  0  0  0  0  0  0  0  0  0  0
   75.1160   16.9900   13.0940 C   0  0  0  0  0  0  0  0  0  0  0  0
   77.0620   16.6950   14.5690 C   0  0  0  0  0  0  0  0  0  0  0  0
   79.1380   18.3770    8.2210 O   0  0  0  0  0  0  0  0  0  0  0  0
   77.9000   16.4600   13.4630 C   0  0  0  0  0  0  0  0  0  0  0  0
   75.6860   16.9610   14.3930 C   0  0  0  0  0  0  0  0  0  0  0  0
   82.0331   16.8459    9.7710 H   0  0  0  0  0  0  0  0  0  0  0  0
   85.9675   13.2786   12.1487 H   0  0  0  0  0  0  0  0  0  0  0  0
   83.5299   16.9319    9.5365 H   0  0  0  0  0  0  0  0  0  0  0  0
   84.3199   13.1895   13.8572 H   0  0  0  0  0  0  0  0  0  0  0  0
   79.4428   17.8631   12.0510 H   0  0  0  0  0  0  0  0  0  0  0  0
   78.5982   18.7196   10.7207 H   0  0  0  0  0  0  0  0  0  0  0  0
   74.9853   16.0200   10.2167 H   0  0  0  0  0  0  0  0  0  0  0  0
   74.9448   17.7497   10.3428 H   0  0  0  0  0  0  0  0  0  0  0  0
   80.2598   11.7369   16.0636 H   0  0  0  0  0  0  0  0  0  0  0  0
   87.0569   14.4294   10.3656 H   0  0  0  0  0  0  0  0  0  0  0  0
   85.9862   13.5789    9.2007 H   0  0  0  0  0  0  0  0  0  0  0  0
   86.0677   15.3734    9.2007 H   0  0  0  0  0  0  0  0  0  0  0  0
   81.7280   11.0973   14.3911 H   0  0  0  0  0  0  0  0  0  0  0  0
   80.8303   15.9280   12.3509 H   0  0  0  0  0  0  0  0  0  0  0  0
   82.3961   13.8831   14.7828 H   0  0  0  0  0  0  0  0  0  0  0  0
   81.6731   15.4752   14.1445 H   0  0  0  0  0  0  0  0  0  0  0  0
   77.0541   16.1251    9.1516 H   0  0  0  0  0  0  0  0  0  0  0  0
   77.1507   17.8905    9.4433 H   0  0  0  0  0  0  0  0  0  0  0  0
   74.0478   17.2073   12.9469 H   0  0  0  0  0  0  0  0  0  0  0  0
   77.4844   16.6712   15.5844 H   0  0  0  0  0  0  0  0  0  0  0  0
   78.5149   18.7584    8.8892 H   0  0  0  0  0  0  0  0  0  0  0  0
   78.9727   16.2564   13.5964 H   0  0  0  0  0  0  0  0  0  0  0  0
   75.0504   17.1474   15.2712 H   0  0  0  0  0  0  0  0  0  0  0  0
  1 12  1  0
  2 19  1  0
  3  1  2  0
  4 15  1  0
  5 11  1  0
  6  5  1  0
  7  6  2  0
  7  9  1  0
  8  7  1  0
  9 10  1  0
 10 11  2  0
 10 21  1  0
 12  2  2  0
 12 13  1  0
 14 23  1  0
 16  6  1  0
 17  4  2  0
 18  4  1  0
 19  9  2  0
 20  4  1  0
 20 21  1  0
 22 14  1  0
 22 24  1  0
 23 25  2  0
 23 26  1  0
 24 13  1  0
 24 25  1  0
 25 29  1  0
 26 30  2  0
 28  1  1  0
 29 27  2  0
 30 27  1  0
  2 31  1  0
  5 32  1  0
  8 33  1  0
 11 34  1  0
 13 35  1  0
 13 36  1  0
 14 37  1  0
 14 38  1  0
 15 39  1  0
 16 40  1  0
 16 41  1  0
 16 42  1  0
 18 43  1  0
 19 44  1  0
 21 45  1  0
 21 46  1  0
 22 47  1  0
 22 48  1  0
 26 49  1  0
 27 50  1  0
 28 51  1  0
 29 52  1  0
 30 53  1  0
M  CHG  1   2   1
A    1
C
A    2
N
A    3
O
A    4
P
A    5
N1
A    6
C2
A    7
C3
A    8
O3
A    9
C4
A   10
C5
A   11
C6
A   12
CA
A   13
CB
A   14
CG
A   15
O1P
A   16
C2A
A   17
O2P
A   18
O3P
A   19
C4A
A   20
O4P
A   21
C5A
A   22
CD1
A   23
CD2
A   24
NE1
A   25
CE2
A   26
CE3
A   27
CH2
A   28
OXT
A   29
CZ2
A   30
CZ3
M  END
