1E4I_NFG_A_3000
     RDKit          3D

 37 38  0  0  0  0  0  0  0  0999 V2000
   17.5300   42.4260   36.3630 C   0  0  0  0  0  0  0  0  0  0  0  0
   18.0640   43.4290   37.1830 O   0  0  0  0  0  0  0  0  0  0  0  0
   16.9000   43.1330   35.2030 C   0  0  0  0  0  0  0  0  0  0  0  0
   15.8790   44.0080   35.6650 F   0  0  0  0  0  0  0  0  0  0  0  0
   16.3520   42.1240   34.2250 C   0  0  0  0  0  0  0  0  0  0  0  0
   15.9230   42.8190   33.0460 O   0  0  0  0  0  0  0  0  0  0  0  0
   17.4100   41.1000   33.8630 C   0  0  0  0  0  0  0  0  0  0  0  0
   16.7930   40.0760   33.0810 O   0  0  0  0  0  0  0  0  0  0  0  0
   18.0240   40.4810   35.1060 C   0  0  0  0  0  0  0  0  0  0  0  0
   19.1750   39.5980   34.7520 C   0  0  0  0  0  0  0  0  0  0  0  0
   19.7700   38.9900   35.8940 O   0  0  0  0  0  0  0  0  0  0  0  0
   18.5510   41.5320   35.9480 O   0  0  0  0  0  0  0  0  0  0  0  0
   18.4250   43.1500   38.4600 C   0  0  0  0  0  0  0  0  0  0  0  0
   19.0000   44.1850   39.2060 C   0  0  0  0  0  0  0  0  0  0  0  0
   19.2070   45.5110   38.6360 N   0  0  0  0  0  0  0  0  0  0  0  0
   19.3190   45.6390   37.4280 O   0  0  0  0  0  0  0  0  0  0  0  0
   19.2730   46.4910   39.3740 O   0  0  0  0  0  0  0  0  0  0  0  0
   19.3940   43.9850   40.5110 C   0  0  0  0  0  0  0  0  0  0  0  0
   19.2250   42.7720   41.0910 C   0  0  0  0  0  0  0  0  0  0  0  0
   19.5860   42.4200   42.4370 N   0  0  0  0  0  0  0  0  0  0  0  0
   19.0820   41.4400   42.9740 O   0  0  0  0  0  0  0  0  0  0  0  0
   20.4160   43.1010   43.0250 O   0  0  0  0  0  0  0  0  0  0  0  0
   18.6560   41.7370   40.3730 C   0  0  0  0  0  0  0  0  0  0  0  0
   18.2580   41.9250   39.0660 C   0  0  0  0  0  0  0  0  0  0  0  0
   16.7843   41.8140   36.8916 H   0  0  0  0  0  0  0  0  0  0  0  0
   17.6592   43.7370   34.6846 H   0  0  0  0  0  0  0  0  0  0  0  0
   15.5050   41.5925   34.6833 H   0  0  0  0  0  0  0  0  0  0  0  0
   15.4213   43.6318   33.3062 H   0  0  0  0  0  0  0  0  0  0  0  0
   18.2127   41.5971   33.2985 H   0  0  0  0  0  0  0  0  0  0  0  0
   16.3868   39.4018   33.6815 H   0  0  0  0  0  0  0  0  0  0  0  0
   17.2407   39.8989   35.6135 H   0  0  0  0  0  0  0  0  0  0  0  0
   18.8172   38.8062   34.0775 H   0  0  0  0  0  0  0  0  0  0  0  0
   19.9405   40.2249   34.2714 H   0  0  0  0  0  0  0  0  0  0  0  0
   19.3843   39.3841   36.7162 H   0  0  0  0  0  0  0  0  0  0  0  0
   19.8456   44.8097   41.0819 H   0  0  0  0  0  0  0  0  0  0  0  0
   18.5194   40.7545   40.8484 H   0  0  0  0  0  0  0  0  0  0  0  0
   17.8056   41.0935   38.5058 H   0  0  0  0  0  0  0  0  0  0  0  0
  1  2  1  0
  1  3  1  0
  1 12  1  0
  2 13  1  0
  3  4  1  0
  3  5  1  0
  5  6  1  0
  5  7  1  0
  7  8  1  0
  7  9  1  0
  9 10  1  0
  9 12  1  0
 10 11  1  0
 13 14  2  0
 13 24  1  0
 14 15  1  0
 14 18  1  0
 15 16  1  0
 15 17  2  0
 18 19  2  0
 19 20  1  0
 19 23  1  0
 20 21  1  0
 20 22  2  0
 23 24  2  0
  1 25  1  0
  3 26  1  0
  5 27  1  0
  6 28  1  0
  7 29  1  0
  8 30  1  0
  9 31  1  0
 10 32  1  0
 10 33  1  0
 11 34  1  0
 18 35  1  0
 23 36  1  0
 24 37  1  0
M  CHG  4  15   1  16  -1  20   1  21  -1
A    1
C1
A    2
O1
A    3
C2
A    4
F
A    5
C3
A    6
O3
A    7
C4
A    8
O4
A    9
C5
A   10
C6
A   11
O6
A   12
O5
A   13
C11
A   14
C12
A   15
N1
A   16
O11
A   17
O12
A   18
C13
A   19
C14
A   20
N2
A   21
O21
A   22
O22
A   23
C15
A   24
C16
M  END
