3KXJ_K68_A_1
     RDKit          3D

 21 22  0  0  0  0  0  0  0  0999 V2000
   22.1040    6.8660   20.5930 C   0  0  0  0  0  0  0  0  0  0  0  0
   23.1530    6.3640   19.8340 C   0  0  0  0  0  0  0  0  0  0  0  0
   23.4550    6.9660   18.6340 C   0  0  0  0  0  0  0  0  0  0  0  0
   22.7540    8.0580   18.1490 C   0  0  0  0  0  0  0  0  0  0  0  0
   21.7090    8.5540   18.9110 C   0  0  0  0  0  0  0  0  0  0  0  0
   21.3880    7.9600   20.1250 C   0  0  0  0  0  0  0  0  0  0  0  0
   21.6560    6.0690   22.2470 Br  0  0  0  0  0  0  0  0  0  0  0  0
   19.9600    8.6490   21.1540 Br  0  0  0  0  0  0  0  0  0  0  0  0
   20.7170   10.0420   18.2980 Br  0  0  0  0  0  0  0  0  0  0  0  0
   23.2090    8.8490   16.4930 Br  0  0  0  0  0  0  0  0  0  0  0  0
   24.0320    5.3500   19.9770 N   0  0  0  0  0  0  0  0  0  0  0  0
   24.8410    5.3460   18.8860 C   0  0  0  0  0  0  0  0  0  0  0  0
   24.4840    6.3420   18.0610 N   0  0  0  0  0  0  0  0  0  0  0  0
   25.1040    6.6790   16.7800 C   0  0  0  0  0  0  0  0  0  0  0  0
   25.2260    5.4330   15.9360 C   0  0  0  0  0  0  0  0  0  0  0  0
   25.0340    5.5260   14.7040 O   0  0  0  0  0  0  0  0  0  0  0  0
   25.5130    4.3550   16.5010 O   0  0  0  0  0  0  0  0  0  0  0  0
   25.6618    4.6361   18.7066 H   0  0  0  0  0  0  0  0  0  0  0  0
   24.4814    7.4181   16.2546 H   0  0  0  0  0  0  0  0  0  0  0  0
   26.1042    7.1012   16.9568 H   0  0  0  0  0  0  0  0  0  0  0  0
   25.5269    4.3026   17.4895 H   0  0  0  0  0  0  0  0  0  0  0  0
  2  1  2  0
  6  1  1  0
  1  7  1  0
  3  2  1  0
  2 11  1  0
  4  3  2  0
 13  3  1  0
 10  4  1  0
  4  5  1  0
  9  5  1  0
  5  6  2  0
  6  8  1  0
 12 11  2  0
 13 12  1  0
 14 13  1  0
 15 14  1  0
 16 15  2  0
 15 17  1  0
 12 18  1  0
 14 19  1  0
 14 20  1  0
 17 21  1  0
A    1
C1
A    2
C2
A    3
C3
A    4
C4
A    5
C5
A    6
C6
A    7
BR13
A    8
BR15
A    9
BR17
A   10
BR19
A   11
N21
A   12
C23
A   13
N25
A   14
C28
A   15
C30
A   16
O32
A   17
O34
M  END
