3PX8_JP2_X_1
     RDKit          3D

 20 21  0  0  0  0  0  0  0  0999 V2000
    2.7170    3.3470    8.4280 C   0  0  0  0  0  0  0  0  0  0  0  0
    3.7870    3.0330    9.1810 N   0  0  0  0  0  0  0  0  0  0  0  0
   -0.7260    3.1600    8.4760 O   0  0  0  0  0  0  0  0  0  0  0  0
    0.4810    3.4130    8.1150 C   0  0  0  0  0  0  0  0  0  0  0  0
    1.4880    3.0590    8.8930 N   0  0  0  0  0  0  0  0  0  0  0  0
    2.6270    6.7300    3.2230 O   0  0  0  0  0  0  0  0  0  0  0  0
    0.6120    4.1400    6.8760 C   0  0  0  0  0  0  0  0  0  0  0  0
    2.9620    3.9920    7.2640 N   0  0  0  0  0  0  0  0  0  0  0  0
    0.4800    6.9920    2.8640 O   0  0  0  0  0  0  0  0  0  0  0  0
    1.9460    4.4350    6.4460 C   0  0  0  0  0  0  0  0  0  0  0  0
    2.2430    5.1690    5.3630 N   0  0  0  0  0  0  0  0  0  0  0  0
    1.1650    5.6570    4.6570 C   0  0  0  0  0  0  0  0  0  0  0  0
   -0.4560    4.5010    6.0610 N   0  0  0  0  0  0  0  0  0  0  0  0
   -0.2060    5.2730    4.9930 C   0  0  0  0  0  0  0  0  0  0  0  0
    1.4120    6.4790    3.4980 C   0  0  0  0  0  0  0  0  0  0  0  0
    3.7175    3.0534   10.2085 H   0  0  0  0  0  0  0  0  0  0  0  0
    4.6755    2.7723    8.7300 H   0  0  0  0  0  0  0  0  0  0  0  0
    3.2820    6.8653    3.9529 H   0  0  0  0  0  0  0  0  0  0  0  0
    3.9385    4.1569    6.9808 H   0  0  0  0  0  0  0  0  0  0  0  0
   -1.0391    5.6204    4.3643 H   0  0  0  0  0  0  0  0  0  0  0  0
  8  1  1  0
  1  5  2  0
  1  2  1  0
  4  3  2  0
  7  4  1  0
  4  5  1  0
  6 15  1  0
 13  7  1  0
 10  7  2  0
 10  8  1  0
  9 15  2  0
 11 10  1  0
 12 11  2  0
 15 12  1  0
 12 14  1  0
 14 13  2  0
  2 16  1  0
  2 17  1  0
  6 18  1  0
  8 19  1  0
 14 20  1  0
A    1
C1
A    2
N1
A    3
O1
A    4
C2
A    5
N2
A    6
O2
A    7
C3
A    8
N3
A    9
O3
A   10
C4
A   11
N4
A   12
C5
A   13
N5
A   14
C6
A   15
C7
M  END
