3PXK_PXK_A_701
     RDKit          3D

 29 30  0  0  0  0  0  0  0  0999 V2000
   -1.4330   -3.9410   20.7150 S   0  0  0  0  0  0  0  0  0  0  0  0
   -0.0820   -4.2580   19.6350 C   0  0  0  0  0  0  0  0  0  0  0  0
   -0.2430   -3.4680   18.5070 C   0  0  0  0  0  0  0  0  0  0  0  0
   -1.3320   -2.6980   18.5620 N   0  0  0  0  0  0  0  0  0  0  0  0
   -2.0850   -2.8180   19.6010 C   0  0  0  0  0  0  0  0  0  0  0  0
    0.8210   -3.7540   17.6750 N   0  0  0  0  0  0  0  0  0  0  0  0
    1.5690   -4.7360   18.2720 C   0  0  0  0  0  0  0  0  0  0  0  0
    1.0580   -5.0400   19.4790 C   0  0  0  0  0  0  0  0  0  0  0  0
    1.5970   -6.0940   20.4380 C   0  0  0  0  0  0  0  0  0  0  0  0
    0.5370   -6.6080   21.3360 C   0  0  0  0  0  0  0  0  0  0  0  0
   -0.3320   -6.9680   22.0390 C   0  0  0  0  0  0  0  0  0  0  0  0
   -1.4460   -7.3810   22.9130 C   0  0  0  0  0  0  0  0  0  0  0  0
   -0.9120   -7.8660   24.2600 C   0  0  0  0  0  0  0  0  0  0  0  0
   -2.3700   -6.1860   23.1490 C   0  0  0  0  0  0  0  0  0  0  0  0
   -2.2550   -8.5020   22.2580 C   0  0  0  0  0  0  0  0  0  0  0  0
   -1.8102   -4.4048   21.9477 H   0  0  0  0  0  0  0  0  0  0  0  0
   -3.0261   -2.2689   19.7522 H   0  0  0  0  0  0  0  0  0  0  0  0
    2.4584   -5.2072   17.8282 H   0  0  0  0  0  0  0  0  0  0  0  0
    2.0071   -6.9313   19.8542 H   0  0  0  0  0  0  0  0  0  0  0  0
    2.3768   -5.6279   21.0582 H   0  0  0  0  0  0  0  0  0  0  0  0
   -1.4606   -7.3677   25.0728 H   0  0  0  0  0  0  0  0  0  0  0  0
   -1.0493   -8.9546   24.3384 H   0  0  0  0  0  0  0  0  0  0  0  0
    0.1584   -7.6249   24.3384 H   0  0  0  0  0  0  0  0  0  0  0  0
   -2.4937   -6.0261   24.2303 H   0  0  0  0  0  0  0  0  0  0  0  0
   -1.9300   -5.2867   22.6933 H   0  0  0  0  0  0  0  0  0  0  0  0
   -3.3511   -6.3855   22.6933 H   0  0  0  0  0  0  0  0  0  0  0  0
   -2.7088   -9.1308   23.0382 H   0  0  0  0  0  0  0  0  0  0  0  0
   -3.0473   -8.0651   21.6324 H   0  0  0  0  0  0  0  0  0  0  0  0
   -1.5907   -9.1162   21.6324 H   0  0  0  0  0  0  0  0  0  0  0  0
  2  1  2  0
  5  1  1  0
  3  2  1  0
  8  2  1  0
  6  3  2  0
  3  4  1  0
  4  5  2  0
  6  7  1  0
  7  8  2  0
  8  9  1  0
  9 10  1  0
 10 11  3  0
 11 12  1  0
 12 14  1  0
 12 15  1  0
 12 13  1  0
  1 16  1  0
  5 17  1  0
  7 18  1  0
  9 19  1  0
  9 20  1  0
 13 21  1  0
 13 22  1  0
 13 23  1  0
 14 24  1  0
 14 25  1  0
 14 26  1  0
 15 27  1  0
 15 28  1  0
 15 29  1  0
A    1
S1
A    2
C2
A    3
C3
A    4
N4
A    5
C5
A    6
N6
A    7
C7
A    8
C8
A    9
C9
A   10
C10
A   11
C11
A   12
C12
A   13
C13
A   14
C14
A   15
C15
M  END
