3PYH_3YH_A_481
     RDKit          3D

 52 55  0  0  0  0  0  0  0  0999 V2000
  -15.0980   14.9340    4.4110 N   0  0  0  0  0  0  0  0  0  0  0  0
  -13.8130   14.9850    4.7570 C   0  0  0  0  0  0  0  0  0  0  0  0
  -13.1230   13.9300    4.8430 N   0  0  0  0  0  0  0  0  0  0  0  0
  -13.1780   16.3110    5.0370 C   0  0  0  0  0  0  0  0  0  0  0  0
  -13.8430   17.4930    4.7140 C   0  0  0  0  0  0  0  0  0  0  0  0
  -13.2380   18.7230    4.9600 C   0  0  0  0  0  0  0  0  0  0  0  0
  -11.9670   18.7640    5.5480 C   0  0  0  0  0  0  0  0  0  0  0  0
  -11.3190   17.5820    5.8910 C   0  0  0  0  0  0  0  0  0  0  0  0
  -11.9170   16.3540    5.6220 C   0  0  0  0  0  0  0  0  0  0  0  0
   -9.9570   17.5770    6.4870 C   0  0  0  0  0  0  0  0  0  0  0  0
   -9.5150   17.7500    7.9090 C   0  0  0  0  0  0  0  0  0  0  0  0
  -10.4320   18.0120    9.0730 C   0  0  0  0  0  0  0  0  0  0  0  0
  -11.5750   18.4170    8.8810 O   0  0  0  0  0  0  0  0  0  0  0  0
   -9.9310   17.7980   10.2970 N   0  0  0  0  0  0  0  0  0  0  0  0
  -10.6720   17.8750   11.4420 C   0  0  0  0  0  0  0  0  0  0  0  0
  -11.2470   19.0910   11.8170 C   0  0  0  0  0  0  0  0  0  0  0  0
  -11.9920   19.2000   12.9930 C   0  0  0  0  0  0  0  0  0  0  0  0
  -12.1530   18.0970   13.8260 C   0  0  0  0  0  0  0  0  0  0  0  0
  -11.5780   16.8810   13.4620 C   0  0  0  0  0  0  0  0  0  0  0  0
  -10.8270   16.7720   12.2860 C   0  0  0  0  0  0  0  0  0  0  0  0
  -12.9700   18.2030   15.0760 C   0  0  0  0  0  0  0  0  0  0  0  0
  -14.2790   17.7090   14.9990 C   0  0  0  0  0  0  0  0  0  0  0  0
  -15.1370   17.7500   16.0970 C   0  0  0  0  0  0  0  0  0  0  0  0
  -14.6770   18.2860   17.2920 C   0  0  0  0  0  0  0  0  0  0  0  0
  -13.3760   18.7710   17.3750 C   0  0  0  0  0  0  0  0  0  0  0  0
  -12.5090   18.7410   16.2820 C   0  0  0  0  0  0  0  0  0  0  0  0
  -11.0370   19.3520   16.5130 S   0  0  0  0  0  0  0  0  0  0  0  0
  -10.0280   18.5990   15.8180 O   0  0  0  0  0  0  0  0  0  0  0  0
  -10.7990   19.3110   17.9250 O   0  0  0  0  0  0  0  0  0  0  0  0
  -10.9890   20.8830   16.0510 N   0  0  0  0  0  0  0  0  0  0  0  0
   -8.8360   17.3450    5.7620 N   0  0  0  0  0  0  0  0  0  0  0  0
   -7.8050   17.3840    6.6170 O   0  0  0  0  0  0  0  0  0  0  0  0
   -8.1310   17.6270    7.9280 C   0  0  0  0  0  0  0  0  0  0  0  0
  -15.6484   15.8021    4.3449 H   0  0  0  0  0  0  0  0  0  0  0  0
  -12.8750   13.5508    5.7680 H   0  0  0  0  0  0  0  0  0  0  0  0
  -12.8085   13.4492    3.9881 H   0  0  0  0  0  0  0  0  0  0  0  0
  -14.8462   17.4540    4.2645 H   0  0  0  0  0  0  0  0  0  0  0  0
  -13.7550   19.6568    4.6942 H   0  0  0  0  0  0  0  0  0  0  0  0
  -11.4809   19.7322    5.7386 H   0  0  0  0  0  0  0  0  0  0  0  0
  -11.3932   15.4195    5.8717 H   0  0  0  0  0  0  0  0  0  0  0  0
   -8.9317   17.5624   10.3792 H   0  0  0  0  0  0  0  0  0  0  0  0
  -11.1112   19.9754   11.1771 H   0  0  0  0  0  0  0  0  0  0  0  0
  -12.4535   20.1616   13.2620 H   0  0  0  0  0  0  0  0  0  0  0  0
  -11.7156   15.9989   14.1047 H   0  0  0  0  0  0  0  0  0  0  0  0
  -10.3562   15.8128   12.0246 H   0  0  0  0  0  0  0  0  0  0  0  0
  -14.6373   17.2796   14.0518 H   0  0  0  0  0  0  0  0  0  0  0  0
  -16.1637   17.3632   16.0176 H   0  0  0  0  0  0  0  0  0  0  0  0
  -15.3387   18.3270   18.1698 H   0  0  0  0  0  0  0  0  0  0  0  0
  -13.0209   19.1896   18.3282 H   0  0  0  0  0  0  0  0  0  0  0  0
  -10.9699   21.4918   16.8816 H   0  0  0  0  0  0  0  0  0  0  0  0
  -10.1425   21.0451   15.4870 H   0  0  0  0  0  0  0  0  0  0  0  0
   -7.4546   17.7059    8.7919 H   0  0  0  0  0  0  0  0  0  0  0  0
  1  2  2  3
  2  3  1  0
  2  4  1  0
  5  4  2  0
  4  9  1  0
  5  6  1  0
  6  7  2  0
  7  8  1  0
  9  8  2  0
  8 10  1  0
 31 10  2  0
 10 11  1  0
 11 33  2  0
 11 12  1  0
 13 12  2  0
 12 14  1  0
 14 15  1  0
 15 16  2  0
 15 20  1  0
 16 17  1  0
 17 18  2  0
 19 18  1  0
 18 21  1  0
 20 19  2  0
 22 21  2  0
 21 26  1  0
 22 23  1  0
 23 24  2  0
 24 25  1  0
 26 25  2  0
 26 27  1  0
 28 27  2  0
 30 27  1  0
 27 29  2  0
 31 32  1  0
 32 33  1  0
  1 34  1  0
  3 35  1  0
  3 36  1  0
  5 37  1  0
  6 38  1  0
  7 39  1  0
  9 40  1  0
 14 41  1  0
 16 42  1  0
 17 43  1  0
 19 44  1  0
 20 45  1  0
 22 46  1  0
 23 47  1  0
 24 48  1  0
 25 49  1  0
 30 50  1  0
 30 51  1  0
 33 52  1  0
A    1
N1
A    2
C2
A    3
N3
A    4
C4
A    5
C5
A    6
C6
A    7
C7
A    8
C8
A    9
C9
A   10
C10
A   11
C11
A   12
C12
A   13
O13
A   14
N14
A   15
C15
A   16
C16
A   17
C17
A   18
C18
A   19
C19
A   20
C20
A   21
C21
A   22
C22
A   23
C23
A   24
C24
A   25
C25
A   26
C26
A   27
S27
A   28
O28
A   29
O29
A   30
N30
A   31
N39
A   32
O40
A   33
C41
M  END
