3PYY_3YY_A_538
     RDKit          3D

 38 41  0  0  0  0  0  0  0  0999 V2000
   18.1090   11.8270  -38.0900 C   0  0  0  0  0  0  0  0  0  0  0  0
   16.7900   11.5600  -38.3780 C   0  0  0  0  0  0  0  0  0  0  0  0
   18.7680   11.1360  -37.0980 C   0  0  0  0  0  0  0  0  0  0  0  0
   15.6560    5.0160  -33.7600 C   0  0  0  0  0  0  0  0  0  0  0  0
   17.3200    6.4920  -32.8980 C   0  0  0  0  0  0  0  0  0  0  0  0
   16.1170   10.5900  -37.6700 C   0  0  0  0  0  0  0  0  0  0  0  0
   18.1050   10.1660  -36.3810 C   0  0  0  0  0  0  0  0  0  0  0  0
   16.0930    4.0380  -32.8930 C   0  0  0  0  0  0  0  0  0  0  0  0
   17.7540    5.5080  -32.0270 C   0  0  0  0  0  0  0  0  0  0  0  0
   14.7680    8.7890  -35.8810 C   0  0  0  0  0  0  0  0  0  0  0  0
   16.2680    6.2470  -33.7640 C   0  0  0  0  0  0  0  0  0  0  0  0
   14.5540    7.7250  -35.0330 C   0  0  0  0  0  0  0  0  0  0  0  0
   16.7930    9.9100  -36.6890 C   0  0  0  0  0  0  0  0  0  0  0  0
   17.1380    4.2780  -32.0300 C   0  0  0  0  0  0  0  0  0  0  0  0
   15.8540    7.2950  -34.6530 C   0  0  0  0  0  0  0  0  0  0  0  0
   12.6630    6.2580  -35.6600 C   0  0  0  0  0  0  0  0  0  0  0  0
   11.2160    7.9820  -35.5040 C   0  0  0  0  0  0  0  0  0  0  0  0
   13.2470    7.1860  -34.6250 C   0  0  0  0  0  0  0  0  0  0  0  0
   16.8040    8.0430  -35.2290 N   0  0  0  0  0  0  0  0  0  0  0  0
   16.1220    8.9300  -35.9620 N   0  0  0  0  0  0  0  0  0  0  0  0
   11.5100    6.8060  -36.1320 N   0  0  0  0  0  0  0  0  0  0  0  0
   12.2590    8.2460  -34.6560 N   0  0  0  0  0  0  0  0  0  0  0  0
   13.1240    5.1740  -35.9740 O   0  0  0  0  0  0  0  0  0  0  0  0
   10.2160    8.6570  -35.6920 O   0  0  0  0  0  0  0  0  0  0  0  0
   17.5460    3.3010  -31.1790 F   0  0  0  0  0  0  0  0  0  0  0  0
   18.6433   12.6019  -38.6593 H   0  0  0  0  0  0  0  0  0  0  0  0
   16.2747   12.1203  -39.1720 H   0  0  0  0  0  0  0  0  0  0  0  0
   19.8227   11.3588  -36.8788 H   0  0  0  0  0  0  0  0  0  0  0  0
   14.8207    4.8124  -34.4462 H   0  0  0  0  0  0  0  0  0  0  0  0
   17.8139    7.4749  -32.9023 H   0  0  0  0  0  0  0  0  0  0  0  0
   15.0620   10.3655  -37.8858 H   0  0  0  0  0  0  0  0  0  0  0  0
   18.6148    9.6097  -35.5806 H   0  0  0  0  0  0  0  0  0  0  0  0
   15.6010    3.0542  -32.8906 H   0  0  0  0  0  0  0  0  0  0  0  0
   18.5865    5.7082  -31.3365 H   0  0  0  0  0  0  0  0  0  0  0  0
   14.0052    9.3984  -36.3877 H   0  0  0  0  0  0  0  0  0  0  0  0
   13.4259    6.7088  -33.6502 H   0  0  0  0  0  0  0  0  0  0  0  0
   10.9304    6.3851  -36.8722 H   0  0  0  0  0  0  0  0  0  0  0  0
   12.3334    9.1086  -34.0981 H   0  0  0  0  0  0  0  0  0  0  0  0
  2  1  2  0
  1  3  1  0
  2  6  1  0
  3  7  2  0
 11  4  2  0
  4  8  1  0
 11  5  1  0
  5  9  2  0
  6 13  2  0
 13  7  1  0
  8 14  2  0
  9 14  1  0
 10 20  1  0
 10 12  2  0
 15 11  1  0
 18 12  1  0
 12 15  1  0
 13 20  1  0
 14 25  1  0
 19 15  2  0
 21 16  1  0
 16 18  1  0
 16 23  2  0
 24 17  2  0
 17 21  1  0
 17 22  1  0
 22 18  1  0
 20 19  1  0
  1 26  1  0
  2 27  1  0
  3 28  1  0
  4 29  1  0
  5 30  1  0
  6 31  1  0
  7 32  1  0
  8 33  1  0
  9 34  1  0
 10 35  1  0
 18 36  1  0
 21 37  1  0
 22 38  1  0
A    1
C1
A    2
C2
A    3
C3
A    4
C4
A    5
C5
A    6
C6
A    7
C7
A    8
C8
A    9
C9
A   10
C10
A   11
C11
A   12
C12
A   13
C13
A   14
C14
A   15
C15
A   16
C16
A   17
C17
A   18
C18
A   19
N19
A   20
N20
A   21
N21
A   22
N22
A   23
O23
A   24
O24
A   25
F25
M  END
