3PZ3_PZ3_B_333
     RDKit          3D

 93 99  0  0  0  0  0  0  0  0999 V2000
    3.2570   17.8650   31.7160 C   0  0  0  0  0  0  0  0  0  0  0  0
    3.6560   14.5290   26.3390 C   0  0  0  0  0  0  0  0  0  0  0  0
    0.0430   26.7420   30.4040 O   0  0  0  0  0  0  0  0  0  0  0  0
    7.7320   24.3480   19.7900 O   0  0  0  0  0  0  0  0  0  0  0  0
    7.7820   20.9060   26.6340 O   0  0  0  0  0  0  0  0  0  0  0  0
    6.5900   22.8510   27.5530 O   0  0  0  0  0  0  0  0  0  0  0  0
   -0.4630   25.7680   30.9630 C   0  0  0  0  0  0  0  0  0  0  0  0
    3.4970   27.7570   17.7680 C   0  0  0  0  0  0  0  0  0  0  0  0
    4.4340   28.7850   17.7460 C   0  0  0  0  0  0  0  0  0  0  0  0
    3.9040   26.4580   18.0660 C   0  0  0  0  0  0  0  0  0  0  0  0
    5.7710   28.5140   18.0260 C   0  0  0  0  0  0  0  0  0  0  0  0
    5.2450   26.1850   18.3460 C   0  0  0  0  0  0  0  0  0  0  0  0
    5.4080   22.5310   22.8630 C   0  0  0  0  0  0  0  0  0  0  0  0
    7.6790   21.7410   23.1000 C   0  0  0  0  0  0  0  0  0  0  0  0
   -0.0280   23.3800   31.6990 C   0  0  0  0  0  0  0  0  0  0  0  0
    5.8830   23.7660   22.4220 C   0  0  0  0  0  0  0  0  0  0  0  0
    8.1580   22.9730   22.6590 C   0  0  0  0  0  0  0  0  0  0  0  0
    4.7120   20.1770   30.5910 C   0  0  0  0  0  0  0  0  0  0  0  0
    5.9000   18.2850   29.6830 C   0  0  0  0  0  0  0  0  0  0  0  0
    1.3890   20.2940   29.1410 C   0  0  0  0  0  0  0  0  0  0  0  0
    5.1360   20.9560   29.5160 C   0  0  0  0  0  0  0  0  0  0  0  0
    6.3170   19.0670   28.6020 C   0  0  0  0  0  0  0  0  0  0  0  0
    0.5260   22.2760   31.1950 C   0  0  0  0  0  0  0  0  0  0  0  0
    2.0350   19.4190   28.2680 C   0  0  0  0  0  0  0  0  0  0  0  0
    1.4360   17.2540   25.6690 C   0  0  0  0  0  0  0  0  0  0  0  0
    1.4660   15.1260   25.3130 C   0  0  0  0  0  0  0  0  0  0  0  0
    2.4850   22.1670   28.1030 C   0  0  0  0  0  0  0  0  0  0  0  0
    7.6460   26.9150   18.6340 C   0  0  0  0  0  0  0  0  0  0  0  0
    5.7990   20.1460   23.6970 C   0  0  0  0  0  0  0  0  0  0  0  0
    3.6610   17.6150   26.8860 C   0  0  0  0  0  0  0  0  0  0  0  0
    4.0540   22.0430   26.2420 C   0  0  0  0  0  0  0  0  0  0  0  0
    3.9230   19.4070   25.1600 C   0  0  0  0  0  0  0  0  0  0  0  0
    0.7550   16.2390   25.1430 N   0  0  0  0  0  0  0  0  0  0  0  0
    7.6990   26.5860   20.0630 N   0  0  0  0  0  0  0  0  0  0  0  0
    4.6820   18.0770   31.7370 O   0  0  0  0  0  0  0  0  0  0  0  0
    7.7440   25.1900   21.8820 O   0  0  0  0  0  0  0  0  0  0  0  0
    0.6700   23.8380   29.6630 O   0  0  0  0  0  0  0  0  0  0  0  0
    7.7220   25.3390   20.5240 C   0  0  0  0  0  0  0  0  0  0  0  0
    6.1810   27.2160   18.3190 C   0  0  0  0  0  0  0  0  0  0  0  0
    6.3060   21.5210   23.2090 C   0  0  0  0  0  0  0  0  0  0  0  0
    0.0590   24.3340   30.7770 C   0  0  0  0  0  0  0  0  0  0  0  0
    5.0930   18.8370   30.6790 C   0  0  0  0  0  0  0  0  0  0  0  0
    7.2600   23.9870   22.3170 C   0  0  0  0  0  0  0  0  0  0  0  0
    1.6030   21.6690   29.0650 C   0  0  0  0  0  0  0  0  0  0  0  0
    5.9350   20.4090   28.5110 C   0  0  0  0  0  0  0  0  0  0  0  0
    3.1380   21.2980   27.2310 C   0  0  0  0  0  0  0  0  0  0  0  0
    2.5750   16.7850   26.1790 C   0  0  0  0  0  0  0  0  0  0  0  0
    0.9540   22.5320   29.9550 C   0  0  0  0  0  0  0  0  0  0  0  0
    2.9230   19.9290   27.3130 C   0  0  0  0  0  0  0  0  0  0  0  0
    5.3020   20.0590   25.1880 C   0  0  0  0  0  0  0  0  0  0  0  0
    3.4890   19.0290   26.5050 N   0  0  0  0  0  0  0  0  0  0  0  0
    5.3450   21.3800   25.8750 N   0  0  0  0  0  0  0  0  0  0  0  0
    2.5770   15.4750   25.9490 N   0  0  0  0  0  0  0  0  0  0  0  0
    6.4530   21.4110   27.1380 S   0  0  0  0  0  0  0  0  0  0  0  0
    2.8794   17.8088   32.7476 H   0  0  0  0  0  0  0  0  0  0  0  0
    2.7697   18.7005   31.1922 H   0  0  0  0  0  0  0  0  0  0  0  0
    3.0340   16.9238   31.1922 H   0  0  0  0  0  0  0  0  0  0  0  0
    3.7175   14.4751   27.4360 H   0  0  0  0  0  0  0  0  0  0  0  0
    3.4322   13.5307   25.9348 H   0  0  0  0  0  0  0  0  0  0  0  0
    4.6164   14.8814   25.9348 H   0  0  0  0  0  0  0  0  0  0  0  0
   -1.3265   25.9314   31.6245 H   0  0  0  0  0  0  0  0  0  0  0  0
    2.4396   27.9686   17.5511 H   0  0  0  0  0  0  0  0  0  0  0  0
    4.1190   29.8116   17.5075 H   0  0  0  0  0  0  0  0  0  0  0  0
    3.1652   25.6431   18.0808 H   0  0  0  0  0  0  0  0  0  0  0  0
    6.5079   29.3306   18.0156 H   0  0  0  0  0  0  0  0  0  0  0  0
    5.5607   25.1592   18.5870 H   0  0  0  0  0  0  0  0  0  0  0  0
    4.3250   22.3533   22.9380 H   0  0  0  0  0  0  0  0  0  0  0  0
    8.3855   20.9399   23.3628 H   0  0  0  0  0  0  0  0  0  0  0  0
   -0.4764   23.4826   32.6982 H   0  0  0  0  0  0  0  0  0  0  0  0
    5.1753   24.5654   22.1571 H   0  0  0  0  0  0  0  0  0  0  0  0
    9.2413   23.1468   22.5803 H   0  0  0  0  0  0  0  0  0  0  0  0
    4.0757   20.6191   31.3718 H   0  0  0  0  0  0  0  0  0  0  0  0
    6.2088   17.2313   29.7489 H   0  0  0  0  0  0  0  0  0  0  0  0
    0.7011   19.8933   29.9000 H   0  0  0  0  0  0  0  0  0  0  0  0
    4.8377   22.0133   29.4590 H   0  0  0  0  0  0  0  0  0  0  0  0
    6.9493   18.6241   27.8184 H   0  0  0  0  0  0  0  0  0  0  0  0
    0.6160   21.3112   31.7157 H   0  0  0  0  0  0  0  0  0  0  0  0
    1.8484   18.3367   28.3292 H   0  0  0  0  0  0  0  0  0  0  0  0
    1.1128   18.3054   25.6810 H   0  0  0  0  0  0  0  0  0  0  0  0
    1.1863   14.1128   24.9887 H   0  0  0  0  0  0  0  0  0  0  0  0
    2.6649   23.2500   28.0335 H   0  0  0  0  0  0  0  0  0  0  0  0
    7.9978   26.0632   18.0334 H   0  0  0  0  0  0  0  0  0  0  0  0
    8.2913   27.7735   18.3965 H   0  0  0  0  0  0  0  0  0  0  0  0
    4.9599   19.8521   23.0492 H   0  0  0  0  0  0  0  0  0  0  0  0
    6.6753   19.4829   23.6475 H   0  0  0  0  0  0  0  0  0  0  0  0
    3.5586   17.5090   27.9761 H   0  0  0  0  0  0  0  0  0  0  0  0
    4.6595   17.2624   26.5881 H   0  0  0  0  0  0  0  0  0  0  0  0
    4.2977   23.0190   26.6871 H   0  0  0  0  0  0  0  0  0  0  0  0
    3.4815   22.0891   25.3039 H   0  0  0  0  0  0  0  0  0  0  0  0
    3.1986   20.1178   24.7358 H   0  0  0  0  0  0  0  0  0  0  0  0
    3.9803   18.4974   24.5440 H   0  0  0  0  0  0  0  0  0  0  0  0
    7.7194   27.3595   20.7428 H   0  0  0  0  0  0  0  0  0  0  0  0
    5.9764   19.4383   25.7962 H   0  0  0  0  0  0  0  0  0  0  0  0
  1 35  1  0
 53  2  1  0
  3  7  2  0
  4 38  2  0
  5 54  2  0
 54  6  2  0
 41  7  1  0
  9  8  2  0
  8 10  1  0
  9 11  1  0
 10 12  2  0
 11 39  2  0
 39 12  1  0
 16 13  2  0
 13 40  1  0
 17 14  1  0
 14 40  2  0
 41 15  2  0
 23 15  1  0
 43 16  1  0
 43 17  2  0
 21 18  2  0
 18 42  1  0
 22 19  1  0
 19 42  2  0
 24 20  2  0
 44 20  1  0
 45 21  1  0
 45 22  2  0
 48 23  2  0
 49 24  1  0
 33 25  1  0
 25 47  2  0
 33 26  2  0
 26 53  1  0
 46 27  1  0
 27 44  2  0
 39 28  1  0
 28 34  1  0
 40 29  1  0
 29 50  1  0
 47 30  1  0
 51 30  1  0
 52 31  1  0
 31 46  1  0
 32 50  1  0
 32 51  1  0
 34 38  1  0
 42 35  1  0
 38 36  1  0
 36 43  1  0
 37 48  1  0
 37 41  1  0
 44 48  1  0
 54 45  1  0
 46 49  2  0
 53 47  1  0
 51 49  1  0
 50 52  1  0
 52 54  1  0
  1 55  1  0
  1 56  1  0
  1 57  1  0
  2 58  1  0
  2 59  1  0
  2 60  1  0
  7 61  1  0
  8 62  1  0
  9 63  1  0
 10 64  1  0
 11 65  1  0
 12 66  1  0
 13 67  1  0
 14 68  1  0
 15 69  1  0
 16 70  1  0
 17 71  1  0
 18 72  1  0
 19 73  1  0
 20 74  1  0
 21 75  1  0
 22 76  1  0
 23 77  1  0
 24 78  1  0
 25 79  1  0
 26 80  1  0
 27 81  1  0
 28 82  1  0
 28 83  1  0
 29 84  1  0
 29 85  1  0
 30 86  1  0
 30 87  1  0
 31 88  1  0
 31 89  1  0
 32 90  1  0
 32 91  1  0
 34 92  1  0
 50 93  1  0
A    1
CAA
A    2
CAB
A    3
OAC
A    4
OAD
A    5
OAE
A    6
OAF
A    7
CAG
A    8
CAH
A    9
CAI
A   10
CAJ
A   11
CAK
A   12
CAL
A   13
CAM
A   14
CAN
A   15
CAO
A   16
CAP
A   17
CAQ
A   18
CAR
A   19
CAS
A   20
CAT
A   21
CAU
A   22
CAV
A   23
CAW
A   24
CAX
A   25
CAY
A   26
CAZ
A   27
CBA
A   28
CBB
A   29
CBC
A   30
CBD
A   31
CBE
A   32
CBF
A   33
NBG
A   34
NBH
A   35
OBI
A   36
OBJ
A   37
OBK
A   38
CBL
A   39
CBM
A   40
CBN
A   41
CBO
A   42
CBP
A   43
CBQ
A   44
CBR
A   45
CBS
A   46
CBT
A   47
CBU
A   48
CBV
A   49
CBW
A   50
CBX
A   51
NBY
A   52
NBZ
A   53
NCA
A   54
SCB
M  END
