3Q0W_LL5_A_217
     RDKit          3D

 45 47  0  0  0  0  0  0  0  0999 V2000
   37.1230   61.6890   11.8180 C   0  0  0  0  0  0  0  0  0  0  0  0
   37.6560   60.4930   12.5760 C   0  0  0  0  0  0  0  0  0  0  0  0
   38.8230   60.7610   13.5750 C   0  0  0  0  0  0  0  0  0  0  0  0
   36.4860   59.7590   13.3010 C   0  0  0  0  0  0  0  0  0  0  0  0
   36.8900   58.3190   13.2540 N   0  0  0  0  0  0  0  0  0  0  0  0
   35.1770   59.9690   12.5150 C   0  0  0  0  0  0  0  0  0  0  0  0
   34.8540   59.2720   11.5290 O   0  0  0  0  0  0  0  0  0  0  0  0
   34.3060   60.8940   12.8560 N   0  0  0  0  0  0  0  0  0  0  0  0
   34.5360   61.8890   13.9370 C   0  0  0  0  0  0  0  0  0  0  0  0
   34.7500   63.2270   13.2020 C   0  0  0  0  0  0  0  0  0  0  0  0
   33.0940   61.1420   12.0420 C   0  0  0  0  0  0  0  0  0  0  0  0
   33.1800   62.5400   11.3850 C   0  0  0  0  0  0  0  0  0  0  0  0
   33.4740   63.6190   12.4870 C   0  0  0  0  0  0  0  0  0  0  0  0
   33.6480   64.9660   11.8070 C   0  0  0  0  0  0  0  0  0  0  0  0
   33.2880   66.0720   12.3340 N   0  0  0  0  0  0  0  0  0  0  0  0
   34.1940   65.1370   10.6210 O   0  0  0  0  0  0  0  0  0  0  0  0
   34.2020   66.6000   10.4210 N   0  0  0  0  0  0  0  0  0  0  0  0
   33.5820   67.0790   11.4760 C   0  0  0  0  0  0  0  0  0  0  0  0
   33.3530   68.3990   11.7140 C   0  0  0  0  0  0  0  0  0  0  0  0
   33.0600   68.9680   12.8620 C   0  0  0  0  0  0  0  0  0  0  0  0
   33.0070   70.3370   12.6880 C   0  0  0  0  0  0  0  0  0  0  0  0
   33.2250   70.9030   11.4540 C   0  0  0  0  0  0  0  0  0  0  0  0
   33.5500   69.5880   10.4970 S   0  0  0  0  0  0  0  0  0  0  0  0
   36.7823   62.4534   12.5318 H   0  0  0  0  0  0  0  0  0  0  0  0
   37.9199   62.1072   11.1855 H   0  0  0  0  0  0  0  0  0  0  0  0
   36.2792   61.3760   11.1855 H   0  0  0  0  0  0  0  0  0  0  0  0
   38.1109   59.8609   11.7992 H   0  0  0  0  0  0  0  0  0  0  0  0
   38.4499   60.6753   14.6062 H   0  0  0  0  0  0  0  0  0  0  0  0
   39.6222   60.0230   13.4117 H   0  0  0  0  0  0  0  0  0  0  0  0
   39.2201   61.7737   13.4117 H   0  0  0  0  0  0  0  0  0  0  0  0
   36.3122   60.1209   14.3251 H   0  0  0  0  0  0  0  0  0  0  0  0
   36.9909   57.9592   14.2138 H   0  0  0  0  0  0  0  0  0  0  0  0
   36.1689   57.7761   12.7579 H   0  0  0  0  0  0  0  0  0  0  0  0
   33.6617   61.9477   14.6020 H   0  0  0  0  0  0  0  0  0  0  0  0
   35.3941   61.6219   14.5713 H   0  0  0  0  0  0  0  0  0  0  0  0
   35.0168   64.0070   13.9303 H   0  0  0  0  0  0  0  0  0  0  0  0
   35.5626   63.1171   12.4688 H   0  0  0  0  0  0  0  0  0  0  0  0
   33.0175   60.3743   11.2579 H   0  0  0  0  0  0  0  0  0  0  0  0
   32.2065   61.0998   12.6905 H   0  0  0  0  0  0  0  0  0  0  0  0
   33.9898   62.5461   10.6406 H   0  0  0  0  0  0  0  0  0  0  0  0
   32.2253   62.7719   10.8902 H   0  0  0  0  0  0  0  0  0  0  0  0
   32.6495   63.6825   13.2124 H   0  0  0  0  0  0  0  0  0  0  0  0
   32.8849   68.4383   13.8101 H   0  0  0  0  0  0  0  0  0  0  0  0
   32.7871   70.9844   13.5497 H   0  0  0  0  0  0  0  0  0  0  0  0
   33.1920   71.9655   11.1713 H   0  0  0  0  0  0  0  0  0  0  0  0
  1  2  1  0
  2  4  1  0
  2  3  1  0
  6  4  1  0
  5  4  1  0
  7  6  2  0
  6  8  1  0
 11  8  1  0
  8  9  1  0
 10  9  1  0
 13 10  1  0
 12 11  1  0
 12 13  1  0
 14 13  1  0
 16 14  1  0
 14 15  2  0
 18 15  1  0
 17 16  1  0
 17 18  2  0
 18 19  1  0
 23 19  1  0
 19 20  2  0
 21 20  1  0
 22 21  2  0
 23 22  1  0
  1 24  1  0
  1 25  1  0
  1 26  1  0
  2 27  1  0
  3 28  1  0
  3 29  1  0
  3 30  1  0
  4 31  1  0
  5 32  1  0
  5 33  1  0
  9 34  1  0
  9 35  1  0
 10 36  1  0
 10 37  1  0
 11 38  1  0
 11 39  1  0
 12 40  1  0
 12 41  1  0
 13 42  1  0
 20 43  1  0
 21 44  1  0
 22 45  1  0
A    1
C22
A    2
C20
A    3
C21
A    4
C19
A    5
N33
A    6
C7
A    7
O32
A    8
N1
A    9
C2
A   10
C3
A   11
C6
A   12
C5
A   13
C4
A   14
C14
A   15
N23
A   16
O26
A   17
N25
A   18
C24
A   19
C27
A   20
C31
A   21
C30
A   22
C29
A   23
S28
M  END
