3Q2F_OAM_A_1
     RDKit          3D

 39 41  0  0  0  0  0  0  0  0999 V2000
   15.6300   36.6880   28.8930 C   0  0  0  0  0  0  0  0  0  0  0  0
   15.1340   38.0970   29.2340 C   0  0  0  0  0  0  0  0  0  0  0  0
   15.8240   39.1180   29.7670 N   0  0  0  0  0  0  0  0  0  0  0  0
   15.0390   40.0940   29.8670 N   0  0  0  0  0  0  0  0  0  0  0  0
   13.8070   39.7880   29.4210 C   0  0  0  0  0  0  0  0  0  0  0  0
   12.6260   40.5810   29.3870 C   0  0  0  0  0  0  0  0  0  0  0  0
   11.5420   40.4570   28.6050 C   0  0  0  0  0  0  0  0  0  0  0  0
   10.6500   41.4120   28.9290 N   0  0  0  0  0  0  0  0  0  0  0  0
   11.0910   42.0830   29.8810 N   0  0  0  0  0  0  0  0  0  0  0  0
   10.3520   43.2430   30.5260 C   0  0  0  0  0  0  0  0  0  0  0  0
   12.3020   41.6460   30.2330 C   0  0  0  0  0  0  0  0  0  0  0  0
   13.0550   42.1590   31.2050 N   0  0  0  0  0  0  0  0  0  0  0  0
   13.8980   38.5040   29.0240 N   0  0  0  0  0  0  0  0  0  0  0  0
   12.8260   37.6730   28.4210 C   0  0  0  0  0  0  0  0  0  0  0  0
   11.6140   37.3390   29.2990 C   0  0  0  0  0  0  0  0  0  0  0  0
   10.4520   36.9090   28.3950 C   0  0  0  0  0  0  0  0  0  0  0  0
    9.2310   36.5240   29.1120 N   0  0  0  0  0  0  0  0  0  0  0  0
    8.4660   37.3510   29.8220 C   0  0  0  0  0  0  0  0  0  0  0  0
    7.4620   36.6070   30.2920 C   0  0  0  0  0  0  0  0  0  0  0  0
    7.6090   35.3500   29.8640 N   0  0  0  0  0  0  0  0  0  0  0  0
    8.7250   35.2860   29.1290 C   0  0  0  0  0  0  0  0  0  0  0  0
   15.8253   36.1331   29.8225 H   0  0  0  0  0  0  0  0  0  0  0  0
   14.8632   36.1614   28.3059 H   0  0  0  0  0  0  0  0  0  0  0  0
   16.5576   36.7579   28.3059 H   0  0  0  0  0  0  0  0  0  0  0  0
   11.4043   39.6956   27.8232 H   0  0  0  0  0  0  0  0  0  0  0  0
   10.4102   43.1516   31.6206 H   0  0  0  0  0  0  0  0  0  0  0  0
   10.8128   44.1912   30.2122 H   0  0  0  0  0  0  0  0  0  0  0  0
    9.2978   43.2261   30.2122 H   0  0  0  0  0  0  0  0  0  0  0  0
   12.8082   41.9909   32.1908 H   0  0  0  0  0  0  0  0  0  0  0  0
   13.8839   42.7237   30.9707 H   0  0  0  0  0  0  0  0  0  0  0  0
   12.4539   38.2071   27.5343 H   0  0  0  0  0  0  0  0  0  0  0  0
   13.3027   36.7025   28.2185 H   0  0  0  0  0  0  0  0  0  0  0  0
   11.8702   36.5195   29.9866 H   0  0  0  0  0  0  0  0  0  0  0  0
   11.3233   38.2225   29.8864 H   0  0  0  0  0  0  0  0  0  0  0  0
   10.2077   37.7485   27.7274 H   0  0  0  0  0  0  0  0  0  0  0  0
   10.7921   36.0132   27.8547 H   0  0  0  0  0  0  0  0  0  0  0  0
    8.6280   38.4264   29.9873 H   0  0  0  0  0  0  0  0  0  0  0  0
    6.6436   36.9712   30.9304 H   0  0  0  0  0  0  0  0  0  0  0  0
    9.1424   34.3947   28.6376 H   0  0  0  0  0  0  0  0  0  0  0  0
  1  2  1  0
  2  3  2  0
  2 13  1  0
  3  4  1  0
  4  5  2  0
  5  6  1  0
  5 13  1  0
  6  7  1  0
  6 11  2  0
  7  8  2  0
  8  9  1  0
  9 10  1  0
  9 11  1  0
 11 12  1  0
 13 14  1  0
 14 15  1  0
 15 16  1  0
 16 17  1  0
 17 18  1  0
 17 21  1  0
 18 19  2  0
 19 20  1  0
 20 21  2  0
  1 22  1  0
  1 23  1  0
  1 24  1  0
  7 25  1  0
 10 26  1  0
 10 27  1  0
 10 28  1  0
 12 29  1  0
 12 30  1  0
 14 31  1  0
 14 32  1  0
 15 33  1  0
 15 34  1  0
 16 35  1  0
 16 36  1  0
 18 37  1  0
 19 38  1  0
 21 39  1  0
A    1
CAA
A    2
CAB
A    3
NAC
A    4
NAD
A    5
CAE
A    6
CAF
A    7
CAG
A    8
NAH
A    9
NAI
A   10
CAJ
A   11
CAK
A   12
NAL
A   13
NAM
A   14
CAN
A   15
CAO
A   16
CAP
A   17
NAQ
A   18
CAR
A   19
CAS
A   20
NAT
A   21
CAU
M  END
