3Q2Z_D9A_A_700
     RDKit          3D

 73 75  0  0  0  0  0  0  0  0999 V2000
   16.9000   -1.8260   54.7650 C   0  0  0  0  0  0  0  0  0  0  0  0
   14.6380   -0.1760   51.9820 Cl  0  0  0  0  0  0  0  0  0  0  0  0
   16.2890   -3.0820   54.9620 C   0  0  0  0  0  0  0  0  0  0  0  0
   16.8270   -4.0240   55.9870 N   0  0  0  0  0  0  0  0  0  0  0  0
   16.9780   -3.5430   57.2600 C   0  0  0  0  0  0  0  0  0  0  0  0
   16.7760   -2.0400   57.6120 C   0  0  0  0  0  0  0  0  0  0  0  0
   17.7120   -1.1260   57.0110 O   0  0  0  0  0  0  0  0  0  0  0  0
   18.0960   -1.4160   55.6250 C   0  0  0  0  0  0  0  0  0  0  0  0
   15.1760   -3.4300   54.1810 C   0  0  0  0  0  0  0  0  0  0  0  0
   14.6910   -2.5250   53.2320 C   0  0  0  0  0  0  0  0  0  0  0  0
   15.2720   -1.3010   53.1130 C   0  0  0  0  0  0  0  0  0  0  0  0
   16.3790   -0.9190   53.8460 C   0  0  0  0  0  0  0  0  0  0  0  0
   18.9400   -0.2230   55.1130 C   0  0  0  0  0  0  0  0  0  0  0  0
   18.7440    1.0560   55.6110 C   0  0  0  0  0  0  0  0  0  0  0  0
   19.5500    2.1060   55.1280 C   0  0  0  0  0  0  0  0  0  0  0  0
   20.5340    1.8640   54.1840 C   0  0  0  0  0  0  0  0  0  0  0  0
   20.7210    0.5660   53.6830 C   0  0  0  0  0  0  0  0  0  0  0  0
   19.9380   -0.4710   54.1610 C   0  0  0  0  0  0  0  0  0  0  0  0
   21.7310    0.3810   52.7170 O   0  0  0  0  0  0  0  0  0  0  0  0
   22.5690    1.4550   52.2390 C   0  0  0  0  0  0  0  0  0  0  0  0
   20.1330   -1.7600   53.6400 O   0  0  0  0  0  0  0  0  0  0  0  0
   21.4460   -2.3740   53.6690 C   0  0  0  0  0  0  0  0  0  0  0  0
   17.2780   -4.2940   58.1450 O   0  0  0  0  0  0  0  0  0  0  0  0
   16.7680   -5.5140   55.8160 C   0  0  0  0  0  0  0  0  0  0  0  0
   18.1220   -6.0120   55.1500 C   0  0  0  0  0  0  0  0  0  0  0  0
   18.0280   -7.5560   55.0180 C   0  0  0  0  0  0  0  0  0  0  0  0
   19.3170   -5.6200   56.0250 C   0  0  0  0  0  0  0  0  0  0  0  0
   18.4530   -5.4020   53.7870 C   0  0  0  0  0  0  0  0  0  0  0  0
   16.6680   -1.6780   59.0950 C   0  0  0  0  0  0  0  0  0  0  0  0
   15.3670   -2.2390   59.6200 C   0  0  0  0  0  0  0  0  0  0  0  0
   15.2420   -2.2260   60.8990 N   0  0  0  0  0  0  0  0  0  0  0  0
   14.4130   -3.2680   61.5230 C   0  0  0  0  0  0  0  0  0  0  0  0
   15.1910   -3.8880   62.7030 C   0  0  0  0  0  0  0  0  0  0  0  0
   15.4700   -5.3420   62.3420 C   0  0  0  0  0  0  0  0  0  0  0  0
   16.4680   -5.9800   62.8090 O   0  0  0  0  0  0  0  0  0  0  0  0
   14.6230   -5.8180   61.5300 O   0  0  0  0  0  0  0  0  0  0  0  0
   14.5290   -2.7270   58.8990 O   0  0  0  0  0  0  0  0  0  0  0  0
   13.1230   -2.6310   62.0490 C   0  0  0  0  0  0  0  0  0  0  0  0
   12.0590   -3.2010   61.6640 O   0  0  0  0  0  0  0  0  0  0  0  0
   13.2040   -1.6200   62.8090 O   0  0  0  0  0  0  0  0  0  0  0  0
   15.7834   -1.9084   57.1565 H   0  0  0  0  0  0  0  0  0  0  0  0
   18.7332   -2.3102   55.5591 H   0  0  0  0  0  0  0  0  0  0  0  0
   14.6890   -4.4072   54.3145 H   0  0  0  0  0  0  0  0  0  0  0  0
   13.8448   -2.8012   52.5857 H   0  0  0  0  0  0  0  0  0  0  0  0
   16.8353    0.0723   53.7077 H   0  0  0  0  0  0  0  0  0  0  0  0
   17.9720    1.2479   56.3707 H   0  0  0  0  0  0  0  0  0  0  0  0
   19.3961    3.1281   55.5045 H   0  0  0  0  0  0  0  0  0  0  0  0
   21.1687    2.6884   53.8270 H   0  0  0  0  0  0  0  0  0  0  0  0
   22.9931    1.9985   53.0962 H   0  0  0  0  0  0  0  0  0  0  0  0
   23.3843    1.0399   51.6283 H   0  0  0  0  0  0  0  0  0  0  0  0
   21.9681    2.1449   51.6283 H   0  0  0  0  0  0  0  0  0  0  0  0
   21.7593   -2.5205   54.7132 H   0  0  0  0  0  0  0  0  0  0  0  0
   21.4070   -3.3473   53.1579 H   0  0  0  0  0  0  0  0  0  0  0  0
   22.1679   -1.7201   53.1579 H   0  0  0  0  0  0  0  0  0  0  0  0
   16.6419   -5.9933   56.7980 H   0  0  0  0  0  0  0  0  0  0  0  0
   15.9169   -5.7809   55.1722 H   0  0  0  0  0  0  0  0  0  0  0  0
   18.0004   -8.0087   56.0202 H   0  0  0  0  0  0  0  0  0  0  0  0
   17.1120   -7.8221   54.4702 H   0  0  0  0  0  0  0  0  0  0  0  0
   18.9050   -7.9312   54.4702 H   0  0  0  0  0  0  0  0  0  0  0  0
   19.0402   -5.7108   57.0857 H   0  0  0  0  0  0  0  0  0  0  0  0
   20.1643   -6.2873   55.8088 H   0  0  0  0  0  0  0  0  0  0  0  0
   19.6044   -4.5805   55.8088 H   0  0  0  0  0  0  0  0  0  0  0  0
   18.9731   -4.4435   53.9308 H   0  0  0  0  0  0  0  0  0  0  0  0
   19.1014   -6.0903   53.2250 H   0  0  0  0  0  0  0  0  0  0  0  0
   17.5225   -5.2336   53.2250 H   0  0  0  0  0  0  0  0  0  0  0  0
   17.5127   -2.1145   59.6481 H   0  0  0  0  0  0  0  0  0  0  0  0
   16.6925   -0.5859   59.2241 H   0  0  0  0  0  0  0  0  0  0  0  0
   15.7087   -1.5070   61.4701 H   0  0  0  0  0  0  0  0  0  0  0  0
   14.1696   -4.0474   60.7859 H   0  0  0  0  0  0  0  0  0  0  0  0
   16.1376   -3.3489   62.8555 H   0  0  0  0  0  0  0  0  0  0  0  0
   14.6088   -3.8208   63.6339 H   0  0  0  0  0  0  0  0  0  0  0  0
   16.5910   -6.0587   63.7882 H   0  0  0  0  0  0  0  0  0  0  0  0
   13.1946   -1.7376   63.7919 H   0  0  0  0  0  0  0  0  0  0  0  0
  1  3  2  0
  1  8  1  0
  1 12  1  0
  2 11  1  0
  3  4  1  0
  3  9  1  0
  4  5  1  0
  4 24  1  0
  5  6  1  0
  5 23  2  0
  6  7  1  0
  6 29  1  0
  7  8  1  0
  8 13  1  0
  9 10  2  0
 10 11  1  0
 11 12  2  0
 13 14  2  0
 13 18  1  0
 14 15  1  0
 15 16  2  0
 16 17  1  0
 17 18  2  0
 17 19  1  0
 18 21  1  0
 19 20  1  0
 21 22  1  0
 24 25  1  0
 25 26  1  0
 25 27  1  0
 25 28  1  0
 29 30  1  0
 30 31  1  0
 30 37  2  0
 31 32  1  0
 32 33  1  0
 32 38  1  0
 33 34  1  0
 34 35  1  0
 34 36  2  0
 38 39  2  0
 38 40  1  0
  6 41  1  0
  8 42  1  0
  9 43  1  0
 10 44  1  0
 12 45  1  0
 14 46  1  0
 15 47  1  0
 16 48  1  0
 20 49  1  0
 20 50  1  0
 20 51  1  0
 22 52  1  0
 22 53  1  0
 22 54  1  0
 24 55  1  0
 24 56  1  0
 26 57  1  0
 26 58  1  0
 26 59  1  0
 27 60  1  0
 27 61  1  0
 27 62  1  0
 28 63  1  0
 28 64  1  0
 28 65  1  0
 29 66  1  0
 29 67  1  0
 31 68  1  0
 32 69  1  0
 33 70  1  0
 33 71  1  0
 35 72  1  0
 40 73  1  0
A    1
C1
A    2
CL1
A    3
C2
A    4
N3
A    5
C4
A    6
C5
A    7
O6
A    8
C7
A    9
C8
A   10
C9
A   11
C10
A   12
C11
A   13
C12
A   14
C13
A   15
C14
A   16
C15
A   17
C16
A   18
C17
A   19
O18
A   20
C19
A   21
O20
A   22
C21
A   23
O22
A   24
C23
A   25
C24
A   26
C25
A   27
C26
A   28
C27
A   29
C28
A   30
C29
A   31
N30
A   32
C31
A   33
C32
A   34
C33
A   35
O34
A   36
O35
A   37
O36
A   38
C38
A   39
O39
A   40
O40
M  END
