1Q7Y_PUY_5_78
     RDKit          3D

 63 66  0  0  0  0  0  0  0  0999 V2000
   71.9830  117.6210  100.8980 N   0  0  0  0  0  0  0  0  0  0  0  0
   71.6750  118.5810  101.9290 C   0  0  0  0  0  0  0  0  0  0  0  0
   70.3330  118.2260  102.8250 C   0  0  0  0  0  0  0  0  0  0  0  0
   69.1510  118.6360  101.8770 C   0  0  0  0  0  0  0  0  0  0  0  0
   68.7010  120.0940  101.9490 C   0  0  0  0  0  0  0  0  0  0  0  0
   68.3400  117.5790  101.1560 C   0  0  0  0  0  0  0  0  0  0  0  0
   67.4250  120.4140  101.3900 C   0  0  0  0  0  0  0  0  0  0  0  0
   67.0820  117.9010  100.6830 C   0  0  0  0  0  0  0  0  0  0  0  0
   66.5710  119.3420  100.8480 C   0  0  0  0  0  0  0  0  0  0  0  0
   73.5740  117.1880  102.9640 O   0  0  0  0  0  0  0  0  0  0  0  0
   65.2470  119.6070  100.4310 O   0  0  0  0  0  0  0  0  0  0  0  0
   64.5820  120.6980  100.5300 C   0  0  0  0  0  0  0  0  0  0  0  0
   72.8880  118.2460  102.9990 C   0  0  0  0  0  0  0  0  0  0  0  0
   73.5350  116.1560  105.9440 O   0  0  0  0  0  0  0  0  0  0  0  0
   72.8240  117.1380  106.7830 C   0  0  0  0  0  0  0  0  0  0  0  0
   73.2660  118.6010  106.5260 C   0  0  0  0  0  0  0  0  0  0  0  0
   74.2010  119.0540  107.5510 O   0  0  0  0  0  0  0  0  0  0  0  0
   75.0260  120.0700  106.9790 C   0  0  0  0  0  0  0  0  0  0  0  0
   76.4520  119.6970  107.1090 N   0  0  0  0  0  0  0  0  0  0  0  0
   77.4580  120.5210  107.6240 C   0  0  0  0  0  0  0  0  0  0  0  0
   77.3390  121.8110  108.0480 N   0  0  0  0  0  0  0  0  0  0  0  0
   78.4700  122.2520  108.5090 C   0  0  0  0  0  0  0  0  0  0  0  0
   79.6820  121.6250  108.5660 N   0  0  0  0  0  0  0  0  0  0  0  0
   79.8150  120.3770  108.0670 C   0  0  0  0  0  0  0  0  0  0  0  0
   81.0860  119.7980  108.0510 N   0  0  0  0  0  0  0  0  0  0  0  0
   81.2870  118.5460  107.5680 C   0  0  0  0  0  0  0  0  0  0  0  0
   82.2080  120.4630  108.4640 C   0  0  0  0  0  0  0  0  0  0  0  0
   78.6140  119.7580  107.5790 C   0  0  0  0  0  0  0  0  0  0  0  0
   78.3540  118.5060  107.0250 N   0  0  0  0  0  0  0  0  0  0  0  0
   77.0820  118.5260  106.7430 C   0  0  0  0  0  0  0  0  0  0  0  0
   74.5780  120.2960  105.5000 C   0  0  0  0  0  0  0  0  0  0  0  0
   73.6340  121.3120  105.3650 O   0  0  0  0  0  0  0  0  0  0  0  0
   73.8910  118.9740  105.1810 C   0  0  0  0  0  0  0  0  0  0  0  0
   72.7280  118.8430  104.3310 N   0  0  0  0  0  0  0  0  0  0  0  0
   72.2684  116.7313  101.3315 H   0  0  0  0  0  0  0  0  0  0  0  0
   71.1495  117.4661  100.3131 H   0  0  0  0  0  0  0  0  0  0  0  0
   71.5497  119.5818  101.4901 H   0  0  0  0  0  0  0  0  0  0  0  0
   70.2918  117.1535  103.0659 H   0  0  0  0  0  0  0  0  0  0  0  0
   70.3103  118.7471  103.7935 H   0  0  0  0  0  0  0  0  0  0  0  0
   69.3331  120.8660  102.4121 H   0  0  0  0  0  0  0  0  0  0  0  0
   68.7474  116.5676  101.0107 H   0  0  0  0  0  0  0  0  0  0  0  0
   67.0810  121.4585  101.3644 H   0  0  0  0  0  0  0  0  0  0  0  0
   66.4561  117.1386  100.1962 H   0  0  0  0  0  0  0  0  0  0  0  0
   64.4334  120.9417  101.5923 H   0  0  0  0  0  0  0  0  0  0  0  0
   65.1378  121.5118  100.0413 H   0  0  0  0  0  0  0  0  0  0  0  0
   63.6040  120.5769  100.0413 H   0  0  0  0  0  0  0  0  0  0  0  0
   74.0056  115.5060  106.5237 H   0  0  0  0  0  0  0  0  0  0  0  0
   71.7465  117.0578  106.5766 H   0  0  0  0  0  0  0  0  0  0  0  0
   73.0649  116.9051  107.8307 H   0  0  0  0  0  0  0  0  0  0  0  0
   72.2862  119.1007  106.5405 H   0  0  0  0  0  0  0  0  0  0  0  0
   74.9103  121.0243  107.5136 H   0  0  0  0  0  0  0  0  0  0  0  0
   78.4489  123.2759  108.9106 H   0  0  0  0  0  0  0  0  0  0  0  0
   81.3998  117.8432  108.4066 H   0  0  0  0  0  0  0  0  0  0  0  0
   80.4253  118.2476  106.9529 H   0  0  0  0  0  0  0  0  0  0  0  0
   82.1988  118.5323  106.9529 H   0  0  0  0  0  0  0  0  0  0  0  0
   82.2394  120.4816  109.5634 H   0  0  0  0  0  0  0  0  0  0  0  0
   83.1013  119.9484  108.0803 H   0  0  0  0  0  0  0  0  0  0  0  0
   82.1854  121.4937  108.0803 H   0  0  0  0  0  0  0  0  0  0  0  0
   76.5598  117.6878  106.2586 H   0  0  0  0  0  0  0  0  0  0  0  0
   75.4234  120.5805  104.8563 H   0  0  0  0  0  0  0  0  0  0  0  0
   73.3489  121.6189  106.2620 H   0  0  0  0  0  0  0  0  0  0  0  0
   74.6843  118.4188  104.6591 H   0  0  0  0  0  0  0  0  0  0  0  0
   71.8039  119.1629  104.6544 H   0  0  0  0  0  0  0  0  0  0  0  0
  1  2  1  0
  2  3  1  0
  2 13  1  0
  3  4  1  0
  4  5  2  0
  4  6  1  0
  5  7  1  0
  6  8  2  0
  7  9  2  0
  8  9  1  0
  9 11  1  0
 10 13  2  0
 11 12  1  0
 13 34  1  0
 14 15  1  0
 15 16  1  0
 16 17  1  0
 16 33  1  0
 17 18  1  0
 18 19  1  0
 18 31  1  0
 19 20  1  0
 19 30  1  0
 20 21  2  0
 20 28  1  0
 21 22  1  0
 22 23  2  0
 23 24  1  0
 24 25  1  0
 24 28  2  0
 25 26  1  0
 25 27  1  0
 28 29  1  0
 29 30  2  0
 31 32  1  0
 31 33  1  0
 33 34  1  0
  1 35  1  0
  1 36  1  0
  2 37  1  0
  3 38  1  0
  3 39  1  0
  5 40  1  0
  6 41  1  0
  7 42  1  0
  8 43  1  0
 12 44  1  0
 12 45  1  0
 12 46  1  0
 14 47  1  0
 15 48  1  0
 15 49  1  0
 16 50  1  0
 18 51  1  0
 22 52  1  0
 26 53  1  0
 26 54  1  0
 26 55  1  0
 27 56  1  0
 27 57  1  0
 27 58  1  0
 30 59  1  0
 31 60  1  0
 32 61  1  0
 33 62  1  0
 34 63  1  0
A    1
N
A    2
CA
A    3
CB
A    4
CG
A    5
CD1
A    6
CD2
A    7
CE1
A    8
CE2
A    9
CZ
A   10
O
A   11
OM
A   12
CMZ
A   13
C
A   14
O5'
A   15
C5'
A   16
C4'
A   17
O4'
A   18
C1'
A   19
N9
A   20
C4
A   21
N3
A   22
C2
A   23
N1
A   24
C6
A   25
N6
A   26
C9
A   27
C10
A   28
C5
A   29
N7
A   30
C8
A   31
C2'
A   32
O2'
A   33
C3'
A   34
N3'
M  END
