3Q3K_D90_A_700
     RDKit          3D

 52 56  0  0  0  0  0  0  0  0999 V2000
    8.5570    8.9150   25.0360 C   0  0  0  0  0  0  0  0  0  0  0  0
    8.6980    8.2650   26.2130 N   0  0  0  0  0  0  0  0  0  0  0  0
    7.1400   10.1380   23.8020 O   0  0  0  0  0  0  0  0  0  0  0  0
   14.4530    8.0710   26.5830 Cl  0  0  0  0  0  0  0  0  0  0  0  0
    7.2930    9.1640   24.5110 C   0  0  0  0  0  0  0  0  0  0  0  0
    9.8070    9.2460   24.4410 C   0  0  0  0  0  0  0  0  0  0  0  0
   10.7330    8.7470   25.3790 C   0  0  0  0  0  0  0  0  0  0  0  0
   10.0350    8.1310   26.4750 C   0  0  0  0  0  0  0  0  0  0  0  0
   12.1370    8.7290   25.4250 C   0  0  0  0  0  0  0  0  0  0  0  0
   10.6660    7.5510   27.5800 C   0  0  0  0  0  0  0  0  0  0  0  0
   12.0600    7.5390   27.6190 C   0  0  0  0  0  0  0  0  0  0  0  0
   12.7450    8.1330   26.5130 C   0  0  0  0  0  0  0  0  0  0  0  0
    2.2570    8.5100   24.2770 C   0  0  0  0  0  0  0  0  0  0  0  0
    3.0110    7.7990   23.3630 C   0  0  0  0  0  0  0  0  0  0  0  0
    2.8670    9.1280   25.3670 C   0  0  0  0  0  0  0  0  0  0  0  0
    4.2400    9.0340   25.5460 C   0  0  0  0  0  0  0  0  0  0  0  0
    5.1970    5.6790   22.5080 C   0  0  0  0  0  0  0  0  0  0  0  0
    4.6440    4.8300   23.1890 O   0  0  0  0  0  0  0  0  0  0  0  0
    5.0100    8.3340   24.6290 C   0  0  0  0  0  0  0  0  0  0  0  0
    6.3520    8.2360   24.8190 N   0  0  0  0  0  0  0  0  0  0  0  0
    4.3800    7.7060   23.5390 C   0  0  0  0  0  0  0  0  0  0  0  0
    5.1010    7.0080   22.6330 N   0  0  0  0  0  0  0  0  0  0  0  0
    6.1090    5.1310   21.4330 C   0  0  0  0  0  0  0  0  0  0  0  0
    6.8340    5.8200   20.5270 N   0  0  0  0  0  0  0  0  0  0  0  0
    6.3210    3.4160   21.2990 S   0  0  0  0  0  0  0  0  0  0  0  0
    7.4230    3.6550   19.9670 C   0  0  0  0  0  0  0  0  0  0  0  0
    8.8080    2.9640   18.0860 N   0  0  0  0  0  0  0  0  0  0  0  0
    8.0850    2.5300   19.2460 C   0  0  0  0  0  0  0  0  0  0  0  0
    9.2330    4.3140   17.8450 C   0  0  0  0  0  0  0  0  0  0  0  0
    8.4910    5.4480   18.5630 C   0  0  0  0  0  0  0  0  0  0  0  0
    7.6100    4.9420   19.6600 C   0  0  0  0  0  0  0  0  0  0  0  0
    9.6050    1.9240   17.4550 C   0  0  0  0  0  0  0  0  0  0  0  0
    7.9301    7.9279   26.8109 H   0  0  0  0  0  0  0  0  0  0  0  0
   10.0013    9.7614   23.4889 H   0  0  0  0  0  0  0  0  0  0  0  0
   12.7352    9.1767   24.6177 H   0  0  0  0  0  0  0  0  0  0  0  0
   10.0764    7.1143   28.3996 H   0  0  0  0  0  0  0  0  0  0  0  0
   12.6078    7.0929   28.4622 H   0  0  0  0  0  0  0  0  0  0  0  0
    1.1680    8.5887   24.1433 H   0  0  0  0  0  0  0  0  0  0  0  0
    2.5273    7.3116   22.5037 H   0  0  0  0  0  0  0  0  0  0  0  0
    2.2578    9.6925   26.0883 H   0  0  0  0  0  0  0  0  0  0  0  0
    4.7167    9.5138   26.4135 H   0  0  0  0  0  0  0  0  0  0  0  0
    6.6923    7.3614   25.2434 H   0  0  0  0  0  0  0  0  0  0  0  0
    5.6417    7.5666   21.9573 H   0  0  0  0  0  0  0  0  0  0  0  0
    8.7872    2.0362   19.9338 H   0  0  0  0  0  0  0  0  0  0  0  0
    7.2957    1.8429   18.9072 H   0  0  0  0  0  0  0  0  0  0  0  0
   10.2911    4.3798   18.1385 H   0  0  0  0  0  0  0  0  0  0  0  0
    9.0181    4.4805   16.7791 H   0  0  0  0  0  0  0  0  0  0  0  0
    9.2311    6.1387   18.9934 H   0  0  0  0  0  0  0  0  0  0  0  0
    7.8525    5.9543   17.8240 H   0  0  0  0  0  0  0  0  0  0  0  0
   10.0797    1.3046   18.2303 H   0  0  0  0  0  0  0  0  0  0  0  0
    8.9562    1.2941   16.8287 H   0  0  0  0  0  0  0  0  0  0  0  0
   10.3820    2.3867   16.8287 H   0  0  0  0  0  0  0  0  0  0  0  0
  1  2  1  0
  1  5  1  0
  1  6  2  0
  2  8  1  0
  3  5  2  0
  4 12  1  0
  5 20  1  0
  6  7  1  0
  7  8  2  0
  7  9  1  0
  8 10  1  0
  9 12  2  0
 10 11  2  0
 11 12  1  0
 13 14  2  0
 13 15  1  0
 14 21  1  0
 15 16  2  0
 16 19  1  0
 17 18  2  0
 17 22  1  0
 17 23  1  0
 19 20  1  0
 19 21  2  0
 21 22  1  0
 23 24  2  0
 23 25  1  0
 24 31  1  0
 25 26  1  0
 26 28  1  0
 26 31  2  0
 27 28  1  0
 27 29  1  0
 27 32  1  0
 29 30  1  0
 30 31  1  0
  2 33  1  0
  6 34  1  0
  9 35  1  0
 10 36  1  0
 11 37  1  0
 13 38  1  0
 14 39  1  0
 15 40  1  0
 16 41  1  0
 20 42  1  0
 22 43  1  0
 28 44  1  0
 28 45  1  0
 29 46  1  0
 29 47  1  0
 30 48  1  0
 30 49  1  0
 32 50  1  0
 32 51  1  0
 32 52  1  0
A    1
C1
A    2
N1
A    3
O1
A    4
CL1
A    5
C2
A    6
C3
A    7
C4
A    8
C5
A    9
C6
A   10
C7
A   11
C8
A   12
C9
A   13
C10
A   14
C11
A   15
C13
A   16
C15
A   17
CC1
A   18
OC1
A   19
CP1
A   20
NP1
A   21
CP2
A   22
NP2
A   23
CZ1
A   24
NZ1
A   25
SZ1
A   26
CZ2
A   27
NZ2
A   28
CZ3
A   29
CZ4
A   30
CZ5
A   31
CZ6
A   32
CZ7
M  END
