3Q3T_RX0_A_500
     RDKit          3D

 75 78  0  0  0  0  0  0  0  0999 V2000
   31.1750   -8.8950  -11.7870 C   0  0  0  0  0  0  0  0  0  0  0  0
   30.8990   -7.8080  -10.9530 C   0  0  0  0  0  0  0  0  0  0  0  0
   31.2940  -10.1550  -11.2310 C   0  0  0  0  0  0  0  0  0  0  0  0
   30.7110   -7.9480   -9.5790 C   0  0  0  0  0  0  0  0  0  0  0  0
   31.1040  -10.3190   -9.8500 C   0  0  0  0  0  0  0  0  0  0  0  0
   30.8150   -9.2150   -9.0290 C   0  0  0  0  0  0  0  0  0  0  0  0
   26.1160  -10.6720  -11.0730 C   0  0  0  0  0  0  0  0  0  0  0  0
   25.8160  -11.7320  -10.5630 O   0  0  0  0  0  0  0  0  0  0  0  0
   26.2820  -10.6500  -12.4560 N   0  0  0  0  0  0  0  0  0  0  0  0
   28.1400  -12.0150  -13.4030 C   0  0  0  0  0  0  0  0  0  0  0  0
   28.4500  -10.7570  -14.2290 C   0  0  0  0  0  0  0  0  0  0  0  0
   28.3950   -9.5270  -13.3300 C   0  0  0  0  0  0  0  0  0  0  0  0
   26.9360   -9.3990  -12.9620 C   0  0  0  0  0  0  0  0  0  0  0  0
   26.6640  -11.9720  -13.0430 C   0  0  0  0  0  0  0  0  0  0  0  0
   28.9720   -8.2640  -14.0070 C   0  0  0  0  0  0  0  0  0  0  0  0
   28.2980   -8.1370  -15.2600 O   0  0  0  0  0  0  0  0  0  0  0  0
   30.4710   -8.4240  -14.2400 C   0  0  0  0  0  0  0  0  0  0  0  0
   30.9230   -8.3120  -15.5630 C   0  0  0  0  0  0  0  0  0  0  0  0
   31.4210   -8.7160  -13.2470 C   0  0  0  0  0  0  0  0  0  0  0  0
   32.2520   -8.4540  -15.9370 C   0  0  0  0  0  0  0  0  0  0  0  0
   32.7600   -8.8600  -13.6230 C   0  0  0  0  0  0  0  0  0  0  0  0
   33.1790   -8.7350  -14.9500 C   0  0  0  0  0  0  0  0  0  0  0  0
   28.6820   -6.9280  -13.3140 C   0  0  0  0  0  0  0  0  0  0  0  0
   29.4470   -5.7800  -13.9850 C   0  0  0  0  0  0  0  0  0  0  0  0
   29.1030   -4.4460  -13.3550 C   0  0  0  0  0  0  0  0  0  0  0  0
   27.6300   -4.1270  -13.5990 C   0  0  0  0  0  0  0  0  0  0  0  0
   27.3820   -2.7410  -13.3620 O   0  0  0  0  0  0  0  0  0  0  0  0
   26.0030   -2.3890  -13.5200 C   0  0  0  0  0  0  0  0  0  0  0  0
   27.4560   -8.9920   -9.5520 C   0  0  0  0  0  0  0  0  0  0  0  0
   27.0040   -8.1330   -8.3780 C   0  0  0  0  0  0  0  0  0  0  0  0
   25.4820   -8.1440   -8.3510 C   0  0  0  0  0  0  0  0  0  0  0  0
   25.1560   -9.4170   -9.0750 C   0  0  0  0  0  0  0  0  0  0  0  0
   26.1510   -9.3870  -10.2320 C   0  0  0  0  0  0  0  0  0  0  0  0
   27.4990   -8.6730   -7.1270 O   0  0  0  0  0  0  0  0  0  0  0  0
   24.9070   -8.1620   -6.9790 N   0  0  0  0  0  0  0  0  0  0  0  0
   30.8275   -6.8044  -11.3976 H   0  0  0  0  0  0  0  0  0  0  0  0
   31.5353  -11.0210  -11.8649 H   0  0  0  0  0  0  0  0  0  0  0  0
   30.4860   -7.0754   -8.9482 H   0  0  0  0  0  0  0  0  0  0  0  0
   31.1821  -11.3221   -9.4054 H   0  0  0  0  0  0  0  0  0  0  0  0
   30.6712   -9.3576   -7.9478 H   0  0  0  0  0  0  0  0  0  0  0  0
   28.7499  -12.0231  -12.4876 H   0  0  0  0  0  0  0  0  0  0  0  0
   28.3725  -12.9234  -13.9780 H   0  0  0  0  0  0  0  0  0  0  0  0
   29.4552  -10.8454  -14.6670 H   0  0  0  0  0  0  0  0  0  0  0  0
   27.7053  -10.6553  -15.0322 H   0  0  0  0  0  0  0  0  0  0  0  0
   29.0285   -9.6357  -12.4373 H   0  0  0  0  0  0  0  0  0  0  0  0
   26.3889   -9.0699  -13.8578 H   0  0  0  0  0  0  0  0  0  0  0  0
   26.8982   -8.6821  -12.1286 H   0  0  0  0  0  0  0  0  0  0  0  0
   26.4516  -12.7637  -12.3095 H   0  0  0  0  0  0  0  0  0  0  0  0
   26.0795  -12.1236  -13.9625 H   0  0  0  0  0  0  0  0  0  0  0  0
   27.3377   -7.9561  -15.1013 H   0  0  0  0  0  0  0  0  0  0  0  0
   30.1826   -8.0997  -16.3483 H   0  0  0  0  0  0  0  0  0  0  0  0
   32.5590   -8.3462  -16.9878 H   0  0  0  0  0  0  0  0  0  0  0  0
   33.5090   -9.0791  -12.8477 H   0  0  0  0  0  0  0  0  0  0  0  0
   34.2410   -8.8595  -15.2084 H   0  0  0  0  0  0  0  0  0  0  0  0
   27.6030   -6.7214  -13.3694 H   0  0  0  0  0  0  0  0  0  0  0  0
   29.0087   -6.9999  -12.2661 H   0  0  0  0  0  0  0  0  0  0  0  0
   30.5271   -5.9587  -13.8781 H   0  0  0  0  0  0  0  0  0  0  0  0
   29.1609   -5.7463  -15.0466 H   0  0  0  0  0  0  0  0  0  0  0  0
   29.2926   -4.4930  -12.2725 H   0  0  0  0  0  0  0  0  0  0  0  0
   29.7259   -3.6589  -13.8050 H   0  0  0  0  0  0  0  0  0  0  0  0
   27.3730   -4.3696  -14.6407 H   0  0  0  0  0  0  0  0  0  0  0  0
   27.0136   -4.7255  -12.9121 H   0  0  0  0  0  0  0  0  0  0  0  0
   25.5390   -2.2706  -12.5297 H   0  0  0  0  0  0  0  0  0  0  0  0
   25.9275   -1.4428  -14.0758 H   0  0  0  0  0  0  0  0  0  0  0  0
   25.4832   -3.1833  -14.0758 H   0  0  0  0  0  0  0  0  0  0  0  0
   28.0964   -8.4160  -10.2362 H   0  0  0  0  0  0  0  0  0  0  0  0
   28.0547   -9.8604   -9.2400 H   0  0  0  0  0  0  0  0  0  0  0  0
   27.3953   -7.1119   -8.4970 H   0  0  0  0  0  0  0  0  0  0  0  0
   25.0595   -7.2336   -8.8011 H   0  0  0  0  0  0  0  0  0  0  0  0
   25.3168  -10.2950   -8.4321 H   0  0  0  0  0  0  0  0  0  0  0  0
   24.1059   -9.4894   -9.3945 H   0  0  0  0  0  0  0  0  0  0  0  0
   25.9303   -8.6623  -11.0295 H   0  0  0  0  0  0  0  0  0  0  0  0
   27.0674   -8.2022   -6.3706 H   0  0  0  0  0  0  0  0  0  0  0  0
   25.6694   -8.1381   -6.2869 H   0  0  0  0  0  0  0  0  0  0  0  0
   24.3004   -7.3396   -6.8501 H   0  0  0  0  0  0  0  0  0  0  0  0
  2  1  2  0
  3  1  1  0
  1 19  1  0
  4  2  1  0
  5  3  2  0
  6  4  2  0
  6  5  1  0
 33  7  1  0
  8  7  2  0
  7  9  1  0
  9 13  1  0
  9 14  1  0
 14 10  1  0
 10 11  1  0
 12 11  1  0
 13 12  1  0
 12 15  1  0
 23 15  1  0
 15 17  1  0
 15 16  1  0
 19 17  1  0
 17 18  2  0
 18 20  1  0
 19 21  2  0
 22 20  2  0
 21 22  1  0
 23 24  1  0
 25 24  1  0
 25 26  1  0
 27 26  1  0
 28 27  1  0
 30 29  1  0
 29 33  1  0
 34 30  1  0
 30 31  1  0
 35 31  1  0
 31 32  1  0
 32 33  1  0
  2 36  1  0
  3 37  1  0
  4 38  1  0
  5 39  1  0
  6 40  1  0
 10 41  1  0
 10 42  1  0
 11 43  1  0
 11 44  1  0
 12 45  1  0
 13 46  1  0
 13 47  1  0
 14 48  1  0
 14 49  1  0
 16 50  1  0
 18 51  1  0
 20 52  1  0
 21 53  1  0
 22 54  1  0
 23 55  1  0
 23 56  1  0
 24 57  1  0
 24 58  1  0
 25 59  1  0
 25 60  1  0
 26 61  1  0
 26 62  1  0
 28 63  1  0
 28 64  1  0
 28 65  1  0
 29 66  1  0
 29 67  1  0
 30 68  1  0
 31 69  1  0
 32 70  1  0
 32 71  1  0
 33 72  1  0
 34 73  1  0
 35 74  1  0
 35 75  1  0
A    1
C1
A    2
C2
A    3
C3
A    4
C4
A    5
C5
A    6
C6
A    7
C7
A    8
O8
A    9
N9
A   10
C10
A   11
C11
A   12
C12
A   13
C13
A   14
C14
A   15
C15
A   16
O16
A   17
C17
A   18
C18
A   19
C19
A   20
C20
A   21
C21
A   22
C22
A   23
C23
A   24
C24
A   25
C25
A   26
C26
A   27
O27
A   28
C28
A   29
C29
A   30
C30
A   31
C31
A   32
C32
A   33
C33
A   34
O34
A   35
N35
M  END
