3Q44_D50_A_1086
     RDKit          3D

 60 61  0  0  0  0  0  0  0  0999 V2000
   17.2420    9.0780    7.0360 C   0  0  0  0  0  0  0  0  0  0  0  0
   15.4250   10.7780   10.5820 N   0  0  0  0  0  0  0  0  0  0  0  0
   13.9390    9.6190   11.7240 O   0  0  0  0  0  0  0  0  0  0  0  0
   16.3420    9.0290    8.2410 C   0  0  0  0  0  0  0  0  0  0  0  0
   11.2460   12.7430   11.9840 N   0  0  0  0  0  0  0  0  0  0  0  0
   12.8170   12.1970    9.8930 O   0  0  0  0  0  0  0  0  0  0  0  0
   15.8120    7.6000    8.4500 C   0  0  0  0  0  0  0  0  0  0  0  0
   12.1540   10.1800   18.6040 O   0  0  0  0  0  0  0  0  0  0  0  0
   17.1690    9.5400    9.4170 C   0  0  0  0  0  0  0  0  0  0  0  0
   17.1020   10.7430   12.6490 O   0  0  0  0  0  0  0  0  0  0  0  0
   16.3490    9.6640   10.6690 C   0  0  0  0  0  0  0  0  0  0  0  0
   18.0750    8.8160   12.1410 O   0  0  0  0  0  0  0  0  0  0  0  0
   14.2660   10.6850   11.1690 C   0  0  0  0  0  0  0  0  0  0  0  0
   13.4490   11.9820   11.1860 C   0  0  0  0  0  0  0  0  0  0  0  0
   12.4360   11.9060   12.3170 C   0  0  0  0  0  0  0  0  0  0  0  0
   13.1310   12.5110   13.5140 C   0  0  0  0  0  0  0  0  0  0  0  0
   12.8380   11.8650   14.8410 C   0  0  0  0  0  0  0  0  0  0  0  0
   13.2690   10.5600   15.1310 C   0  0  0  0  0  0  0  0  0  0  0  0
   13.0230   10.0080   16.3840 C   0  0  0  0  0  0  0  0  0  0  0  0
   12.3690   10.7420   17.3480 C   0  0  0  0  0  0  0  0  0  0  0  0
   11.0280   10.4060   19.4460 C   0  0  0  0  0  0  0  0  0  0  0  0
   11.1280    9.4110   20.5780 C   0  0  0  0  0  0  0  0  0  0  0  0
   10.8140    9.7900   21.8870 C   0  0  0  0  0  0  0  0  0  0  0  0
   10.9110    8.8660   22.9270 C   0  0  0  0  0  0  0  0  0  0  0  0
   11.3270    7.5620   22.6600 C   0  0  0  0  0  0  0  0  0  0  0  0
   11.6540    7.1620   21.3580 C   0  0  0  0  0  0  0  0  0  0  0  0
   11.5460    8.1020   20.3210 C   0  0  0  0  0  0  0  0  0  0  0  0
   11.9620   12.0370   17.0600 C   0  0  0  0  0  0  0  0  0  0  0  0
   12.1930   12.6210   15.8070 C   0  0  0  0  0  0  0  0  0  0  0  0
   17.2050    9.7750   11.8940 C   0  0  0  0  0  0  0  0  0  0  0  0
   18.2905    9.1351    7.3636 H   0  0  0  0  0  0  0  0  0  0  0  0
   17.0955    8.1705    6.4318 H   0  0  0  0  0  0  0  0  0  0  0  0
   16.9979    9.9642    6.4318 H   0  0  0  0  0  0  0  0  0  0  0  0
   15.6814   11.6303   10.0636 H   0  0  0  0  0  0  0  0  0  0  0  0
   15.4485    9.6595    8.1221 H   0  0  0  0  0  0  0  0  0  0  0  0
   10.7950   13.0602   12.8540 H   0  0  0  0  0  0  0  0  0  0  0  0
   11.5447   13.5611   11.4341 H   0  0  0  0  0  0  0  0  0  0  0  0
   11.8885   12.5129   10.0280 H   0  0  0  0  0  0  0  0  0  0  0  0
   15.7347    7.3915    9.5273 H   0  0  0  0  0  0  0  0  0  0  0  0
   14.8191    7.5057    7.9861 H   0  0  0  0  0  0  0  0  0  0  0  0
   16.5033    6.8810    7.9861 H   0  0  0  0  0  0  0  0  0  0  0  0
   17.9955    8.8380    9.6017 H   0  0  0  0  0  0  0  0  0  0  0  0
   17.5471   10.5399    9.1578 H   0  0  0  0  0  0  0  0  0  0  0  0
   17.1162   10.6095   13.6298 H   0  0  0  0  0  0  0  0  0  0  0  0
   15.7636    8.7373   10.7620 H   0  0  0  0  0  0  0  0  0  0  0  0
   14.1049   12.8466   11.3659 H   0  0  0  0  0  0  0  0  0  0  0  0
   12.1001   10.8738   12.4953 H   0  0  0  0  0  0  0  0  0  0  0  0
   14.2155   12.4485   13.3410 H   0  0  0  0  0  0  0  0  0  0  0  0
   12.7472   13.5389   13.5925 H   0  0  0  0  0  0  0  0  0  0  0  0
   13.8013    9.9743   14.3670 H   0  0  0  0  0  0  0  0  0  0  0  0
   13.3520    8.9819   16.6053 H   0  0  0  0  0  0  0  0  0  0  0  0
   11.0491   11.4327   19.8403 H   0  0  0  0  0  0  0  0  0  0  0  0
   10.0866   10.2815   18.8908 H   0  0  0  0  0  0  0  0  0  0  0  0
   10.4896   10.8199   22.0969 H   0  0  0  0  0  0  0  0  0  0  0  0
   10.6600    9.1650   23.9554 H   0  0  0  0  0  0  0  0  0  0  0  0
   11.3994    6.8369   23.4840 H   0  0  0  0  0  0  0  0  0  0  0  0
   11.9880    6.1342   21.1527 H   0  0  0  0  0  0  0  0  0  0  0  0
   11.7938    7.8043   19.2915 H   0  0  0  0  0  0  0  0  0  0  0  0
   11.4444   12.6206   17.8356 H   0  0  0  0  0  0  0  0  0  0  0  0
   11.8711   13.6515   15.5960 H   0  0  0  0  0  0  0  0  0  0  0  0
  1  4  1  0
  2 11  1  0
  2 13  1  0
 13  3  2  0
  4  7  1  0
  4  9  1  0
  5 15  1  0
  6 14  1  0
 20  8  1  0
  8 21  1  0
  9 11  1  0
 30 10  1  0
 11 30  1  0
 30 12  2  0
 13 14  1  0
 14 15  1  0
 15 16  1  0
 16 17  1  0
 17 18  2  0
 17 29  1  0
 18 19  1  0
 19 20  2  0
 28 20  1  0
 21 22  1  0
 27 22  1  0
 22 23  2  0
 23 24  1  0
 25 24  2  0
 26 25  1  0
 27 26  2  0
 29 28  2  0
  1 31  1  0
  1 32  1  0
  1 33  1  0
  2 34  1  0
  4 35  1  0
  5 36  1  0
  5 37  1  0
  6 38  1  0
  7 39  1  0
  7 40  1  0
  7 41  1  0
  9 42  1  0
  9 43  1  0
 10 44  1  0
 11 45  1  0
 14 46  1  0
 15 47  1  0
 16 48  1  0
 16 49  1  0
 18 50  1  0
 19 51  1  0
 21 52  1  0
 21 53  1  0
 23 54  1  0
 24 55  1  0
 25 56  1  0
 26 57  1  0
 27 58  1  0
 28 59  1  0
 29 60  1  0
A    1
C1
A    2
N1
A    3
O1
A    4
C2
A    5
N2
A    6
O2
A    7
C3
A    8
O3
A    9
C4
A   10
O4
A   11
C5
A   12
O5
A   13
C6
A   14
C7
A   15
C8
A   16
C9
A   17
C10
A   18
C11
A   19
C12
A   20
C13
A   21
C14
A   22
C15
A   23
C16
A   24
C17
A   25
C18
A   26
C19
A   27
C20
A   28
C21
A   29
C22
A   30
C23
M  END
