3Q4B_RX5_A_335
     RDKit          3D

 77 79  0  0  0  0  0  0  0  0999 V2000
   25.3160   -9.1970   -6.3710 C   0  0  0  0  0  0  0  0  0  0  0  0
   25.5350   -8.0720   -7.2880 N   0  0  0  0  0  0  0  0  0  0  0  0
   25.4310  -11.2350  -11.1690 O   0  0  0  0  0  0  0  0  0  0  0  0
   26.2920   -8.4090   -8.5250 C   0  0  0  0  0  0  0  0  0  0  0  0
   26.0060   -9.1650  -10.8360 N   0  0  0  0  0  0  0  0  0  0  0  0
   29.2030   -7.1570  -13.4380 O   0  0  0  0  0  0  0  0  0  0  0  0
   25.5220   -9.3270   -9.4650 C   0  0  0  0  0  0  0  0  0  0  0  0
   26.3380  -10.1480  -12.9240 N   0  0  0  0  0  0  0  0  0  0  0  0
   27.8540   -2.6940  -13.6150 O   0  0  0  0  0  0  0  0  0  0  0  0
   25.9080  -10.2030  -11.6500 C   0  0  0  0  0  0  0  0  0  0  0  0
   27.8940   -4.7900  -12.5890 N   0  0  0  0  0  0  0  0  0  0  0  0
   25.8550   -3.6220  -12.8980 O   0  0  0  0  0  0  0  0  0  0  0  0
   26.9440   -8.9620  -13.5810 C   0  0  0  0  0  0  0  0  0  0  0  0
   28.4120   -9.3260  -13.8840 C   0  0  0  0  0  0  0  0  0  0  0  0
   28.4600  -10.5760  -14.8020 C   0  0  0  0  0  0  0  0  0  0  0  0
   27.6300  -11.7620  -14.2580 C   0  0  0  0  0  0  0  0  0  0  0  0
   26.2140  -11.3350  -13.7920 C   0  0  0  0  0  0  0  0  0  0  0  0
   29.1870   -8.1430  -14.4660 C   0  0  0  0  0  0  0  0  0  0  0  0
   27.6450   -8.9850   -8.1350 C   0  0  0  0  0  0  0  0  0  0  0  0
   28.7560   -8.7410   -9.1500 C   0  0  0  0  0  0  0  0  0  0  0  0
   29.8010   -9.8440   -8.9650 C   0  0  0  0  0  0  0  0  0  0  0  0
   30.8880   -9.6470   -9.8890 O   0  0  0  0  0  0  0  0  0  0  0  0
   31.6330   -8.4820   -9.5280 C   0  0  0  0  0  0  0  0  0  0  0  0
   30.7260   -7.2610   -9.6420 C   0  0  0  0  0  0  0  0  0  0  0  0
   29.4490   -7.4190   -8.8580 C   0  0  0  0  0  0  0  0  0  0  0  0
   29.5600   -5.8650  -13.9650 C   0  0  0  0  0  0  0  0  0  0  0  0
   29.3540   -4.8960  -12.7960 C   0  0  0  0  0  0  0  0  0  0  0  0
   27.2840   -3.6700  -13.0510 C   0  0  0  0  0  0  0  0  0  0  0  0
   30.6190   -8.4440  -14.7940 C   0  0  0  0  0  0  0  0  0  0  0  0
   31.5410   -8.7370  -13.7920 C   0  0  0  0  0  0  0  0  0  0  0  0
   32.8580   -9.0120  -14.1170 C   0  0  0  0  0  0  0  0  0  0  0  0
   33.3250   -8.9860  -15.4220 C   0  0  0  0  0  0  0  0  0  0  0  0
   32.3940   -8.6870  -16.4120 C   0  0  0  0  0  0  0  0  0  0  0  0
   31.0580   -8.4410  -16.1090 C   0  0  0  0  0  0  0  0  0  0  0  0
   25.1110   -2.6210  -13.6230 C   0  0  0  0  0  0  0  0  0  0  0  0
   33.9910   -9.4230  -12.8060 Cl  0  0  0  0  0  0  0  0  0  0  0  0
   25.3851   -8.8421   -5.3321 H   0  0  0  0  0  0  0  0  0  0  0  0
   24.3178   -9.6244   -6.5468 H   0  0  0  0  0  0  0  0  0  0  0  0
   26.0810   -9.9676   -6.5468 H   0  0  0  0  0  0  0  0  0  0  0  0
   24.6147   -7.7028   -7.5668 H   0  0  0  0  0  0  0  0  0  0  0  0
   26.4447   -7.4841   -9.1006 H   0  0  0  0  0  0  0  0  0  0  0  0
   26.4093   -8.2731  -11.1565 H   0  0  0  0  0  0  0  0  0  0  0  0
   25.6639  -10.3714   -9.1503 H   0  0  0  0  0  0  0  0  0  0  0  0
   24.4541   -9.0660   -9.4275 H   0  0  0  0  0  0  0  0  0  0  0  0
   27.3631   -5.5343  -12.1146 H   0  0  0  0  0  0  0  0  0  0  0  0
   26.4100   -8.7314  -14.5146 H   0  0  0  0  0  0  0  0  0  0  0  0
   26.8815   -8.0753  -12.9331 H   0  0  0  0  0  0  0  0  0  0  0  0
   28.9165   -9.5745  -12.9386 H   0  0  0  0  0  0  0  0  0  0  0  0
   28.0672  -10.2988  -15.7914 H   0  0  0  0  0  0  0  0  0  0  0  0
   29.5083  -10.9056  -14.8519 H   0  0  0  0  0  0  0  0  0  0  0  0
   27.5270  -12.5143  -15.0539 H   0  0  0  0  0  0  0  0  0  0  0  0
   28.1606  -12.1665  -13.3835 H   0  0  0  0  0  0  0  0  0  0  0  0
   25.7460  -12.1568  -13.2302 H   0  0  0  0  0  0  0  0  0  0  0  0
   25.5888  -11.0965  -14.6651 H   0  0  0  0  0  0  0  0  0  0  0  0
   28.6987   -7.8432  -15.4050 H   0  0  0  0  0  0  0  0  0  0  0  0
   27.9480   -8.5321   -7.1794 H   0  0  0  0  0  0  0  0  0  0  0  0
   27.5132  -10.0754   -8.0737 H   0  0  0  0  0  0  0  0  0  0  0  0
   28.3313   -8.7291  -10.1647 H   0  0  0  0  0  0  0  0  0  0  0  0
   30.1868   -9.8124   -7.9354 H   0  0  0  0  0  0  0  0  0  0  0  0
   29.3346  -10.8216   -9.1565 H   0  0  0  0  0  0  0  0  0  0  0  0
   31.9926   -8.5796   -8.4930 H   0  0  0  0  0  0  0  0  0  0  0  0
   32.4967   -8.3688  -10.1997 H   0  0  0  0  0  0  0  0  0  0  0  0
   31.2674   -6.3821   -9.2620 H   0  0  0  0  0  0  0  0  0  0  0  0
   30.4564   -7.1412  -10.7017 H   0  0  0  0  0  0  0  0  0  0  0  0
   28.7678   -6.5962   -9.1207 H   0  0  0  0  0  0  0  0  0  0  0  0
   29.7047   -7.4006   -7.7883 H   0  0  0  0  0  0  0  0  0  0  0  0
   30.6094   -5.8573  -14.2946 H   0  0  0  0  0  0  0  0  0  0  0  0
   28.9551   -5.5924  -14.8423 H   0  0  0  0  0  0  0  0  0  0  0  0
   29.7753   -3.9100  -13.0413 H   0  0  0  0  0  0  0  0  0  0  0  0
   29.8588   -5.2565  -11.8876 H   0  0  0  0  0  0  0  0  0  0  0  0
   31.2216   -8.7499  -12.7395 H   0  0  0  0  0  0  0  0  0  0  0  0
   34.3785   -9.1914  -15.6628 H   0  0  0  0  0  0  0  0  0  0  0  0
   32.7223   -8.6440  -17.4610 H   0  0  0  0  0  0  0  0  0  0  0  0
   30.3432   -8.2422  -16.9211 H   0  0  0  0  0  0  0  0  0  0  0  0
   24.6110   -1.9483  -12.9107 H   0  0  0  0  0  0  0  0  0  0  0  0
   25.7982   -2.0400  -14.2556 H   0  0  0  0  0  0  0  0  0  0  0  0
   24.3565   -3.1115  -14.2556 H   0  0  0  0  0  0  0  0  0  0  0  0
  1  2  1  0
  2  4  1  0
  3 10  2  0
  4  7  1  0
  4 19  1  0
  5  7  1  0
  5 10  1  0
  6 18  1  0
  6 26  1  0
  8 10  1  0
  8 13  1  0
  8 17  1  0
  9 28  2  0
 11 27  1  0
 11 28  1  0
 12 28  1  0
 12 35  1  0
 13 14  1  0
 14 15  1  0
 14 18  1  0
 15 16  1  0
 16 17  1  0
 18 29  1  0
 19 20  1  0
 20 21  1  0
 20 25  1  0
 21 22  1  0
 22 23  1  0
 23 24  1  0
 24 25  1  0
 26 27  1  0
 29 30  2  0
 29 34  1  0
 30 31  1  0
 31 32  2  0
 31 36  1  0
 32 33  1  0
 33 34  2  0
  1 37  1  0
  1 38  1  0
  1 39  1  0
  2 40  1  0
  4 41  1  0
  5 42  1  0
  7 43  1  0
  7 44  1  0
 11 45  1  0
 13 46  1  0
 13 47  1  0
 14 48  1  0
 15 49  1  0
 15 50  1  0
 16 51  1  0
 16 52  1  0
 17 53  1  0
 17 54  1  0
 18 55  1  0
 19 56  1  0
 19 57  1  0
 20 58  1  0
 21 59  1  0
 21 60  1  0
 23 61  1  0
 23 62  1  0
 24 63  1  0
 24 64  1  0
 25 65  1  0
 25 66  1  0
 26 67  1  0
 26 68  1  0
 27 69  1  0
 27 70  1  0
 30 71  1  0
 32 72  1  0
 33 73  1  0
 34 74  1  0
 35 75  1  0
 35 76  1  0
 35 77  1  0
A    1
C1
A    2
N1
A    3
O1
A    4
C2
A    5
N2
A    6
O2
A    7
C3
A    8
N3
A    9
O3
A   10
C4
A   11
N4
A   12
O4
A   13
C5
A   14
C6
A   15
C7
A   16
C8
A   17
C9
A   18
C10
A   19
C11
A   20
C12
A   21
C13
A   22
O14
A   23
C15
A   24
C16
A   25
C17
A   26
C18
A   27
C19
A   28
C20
A   29
C21
A   30
C22
A   31
C23
A   32
C24
A   33
C25
A   34
C26
A   35
C27
A   36
CL2
M  END
