3Q77_2HY_A_500
     RDKit          3D

 50 52  0  0  0  0  0  0  0  0999 V2000
   38.2000  -13.2210    2.2430 C   0  0  0  0  0  0  0  0  0  0  0  0
   39.1390   -7.8320   -1.7260 F   0  0  0  0  0  0  0  0  0  0  0  0
   39.2950  -12.6890    1.6630 N   0  0  0  0  0  0  0  0  0  0  0  0
   37.0960  -13.1700    1.6640 O   0  0  0  0  0  0  0  0  0  0  0  0
   39.4290  -13.9090    4.2780 C   0  0  0  0  0  0  0  0  0  0  0  0
   37.3250   -8.2510   -0.6500 F   0  0  0  0  0  0  0  0  0  0  0  0
   38.2380  -13.8330    3.4410 N   0  0  0  0  0  0  0  0  0  0  0  0
   42.9990  -13.2280    3.9280 O   0  0  0  0  0  0  0  0  0  0  0  0
   40.6140  -13.3850    3.6000 C   0  0  0  0  0  0  0  0  0  0  0  0
   39.1040   -7.8500    0.4240 F   0  0  0  0  0  0  0  0  0  0  0  0
   37.8100   -9.1960    8.8700 N   0  0  0  0  0  0  0  0  0  0  0  0
   41.7620  -13.9940    5.7280 O   0  0  0  0  0  0  0  0  0  0  0  0
   40.4970  -12.7320    2.2730 C   0  0  0  0  0  0  0  0  0  0  0  0
   39.1430  -12.0520    0.4100 C   0  0  0  0  0  0  0  0  0  0  0  0
   38.9860  -10.6600    0.4420 C   0  0  0  0  0  0  0  0  0  0  0  0
   38.8210   -9.9210   -0.7260 C   0  0  0  0  0  0  0  0  0  0  0  0
   38.8040  -10.5890   -1.9490 C   0  0  0  0  0  0  0  0  0  0  0  0
   38.9460  -11.9830   -1.9810 C   0  0  0  0  0  0  0  0  0  0  0  0
   39.1150  -12.7170   -0.8070 C   0  0  0  0  0  0  0  0  0  0  0  0
   38.6270   -8.4240   -0.6640 C   0  0  0  0  0  0  0  0  0  0  0  0
   39.0900  -12.8800    5.3190 C   0  0  0  0  0  0  0  0  0  0  0  0
   38.8380  -11.5500    4.9440 C   0  0  0  0  0  0  0  0  0  0  0  0
   38.5020  -10.5780    5.8870 C   0  0  0  0  0  0  0  0  0  0  0  0
   38.4140  -10.9210    7.2320 C   0  0  0  0  0  0  0  0  0  0  0  0
   38.6650  -12.2440    7.6230 C   0  0  0  0  0  0  0  0  0  0  0  0
   39.0010  -13.2090    6.6700 C   0  0  0  0  0  0  0  0  0  0  0  0
   38.0970  -10.0230    8.1010 C   0  0  0  0  0  0  0  0  0  0  0  0
   41.8910  -13.5000    4.3750 C   0  0  0  0  0  0  0  0  0  0  0  0
   42.8830  -14.5830    6.3670 C   0  0  0  0  0  0  0  0  0  0  0  0
   43.0210  -13.9290    7.7280 C   0  0  0  0  0  0  0  0  0  0  0  0
   41.7240  -12.1490    1.6100 C   0  0  0  0  0  0  0  0  0  0  0  0
   43.9530  -14.6830    8.5100 O   0  0  0  0  0  0  0  0  0  0  0  0
   39.6471  -14.9374    4.6019 H   0  0  0  0  0  0  0  0  0  0  0  0
   37.3739  -14.2740    3.7871 H   0  0  0  0  0  0  0  0  0  0  0  0
   38.9933  -10.1399    1.4112 H   0  0  0  0  0  0  0  0  0  0  0  0
   38.6797  -10.0247   -2.8850 H   0  0  0  0  0  0  0  0  0  0  0  0
   38.9238  -12.5069   -2.9480 H   0  0  0  0  0  0  0  0  0  0  0  0
   39.2248  -13.8108   -0.8458 H   0  0  0  0  0  0  0  0  0  0  0  0
   38.9071  -11.2684    3.8829 H   0  0  0  0  0  0  0  0  0  0  0  0
   38.3073   -9.5436    5.5676 H   0  0  0  0  0  0  0  0  0  0  0  0
   38.5971  -12.5234    8.6848 H   0  0  0  0  0  0  0  0  0  0  0  0
   39.1980  -14.2426    6.9907 H   0  0  0  0  0  0  0  0  0  0  0  0
   42.7242  -15.6652    6.4837 H   0  0  0  0  0  0  0  0  0  0  0  0
   43.7945  -14.4347    5.7693 H   0  0  0  0  0  0  0  0  0  0  0  0
   43.3876  -12.8989    7.6077 H   0  0  0  0  0  0  0  0  0  0  0  0
   42.0435  -13.9053    8.2320 H   0  0  0  0  0  0  0  0  0  0  0  0
   42.4325  -11.8124    2.3812 H   0  0  0  0  0  0  0  0  0  0  0  0
   42.2017  -12.9164    0.9832 H   0  0  0  0  0  0  0  0  0  0  0  0
   41.4308  -11.2940    0.9832 H   0  0  0  0  0  0  0  0  0  0  0  0
   43.7714  -14.5361    9.4721 H   0  0  0  0  0  0  0  0  0  0  0  0
  1  3  1  0
  1  4  2  0
  1  7  1  0
  2 20  1  0
  3 13  1  0
  3 14  1  0
  5  7  1  0
  5  9  1  0
  5 21  1  0
  6 20  1  0
  8 28  2  0
  9 13  2  0
  9 28  1  0
 10 20  1  0
 11 27  3  0
 12 28  1  0
 12 29  1  0
 13 31  1  0
 14 15  2  0
 14 19  1  0
 15 16  1  0
 16 17  2  0
 16 20  1  0
 17 18  1  0
 18 19  2  0
 21 22  2  0
 21 26  1  0
 22 23  1  0
 23 24  2  0
 24 25  1  0
 24 27  1  0
 25 26  2  0
 29 30  1  0
 30 32  1  0
  5 33  1  0
  7 34  1  0
 15 35  1  0
 17 36  1  0
 18 37  1  0
 19 38  1  0
 22 39  1  0
 23 40  1  0
 25 41  1  0
 26 42  1  0
 29 43  1  0
 29 44  1  0
 30 45  1  0
 30 46  1  0
 31 47  1  0
 31 48  1  0
 31 49  1  0
 32 50  1  0
A    1
C1
A    2
F1
A    3
N1
A    4
O1
A    5
C2
A    6
F2
A    7
N2
A    8
O2
A    9
C3
A   10
F3
A   11
N3
A   12
O3
A   13
C4
A   14
C5
A   15
C6
A   16
C7
A   17
C8
A   18
C9
A   19
C10
A   20
C11
A   21
C13
A   22
C14
A   23
C15
A   24
C16
A   25
C17
A   26
C18
A   27
C19
A   28
C20
A   29
C21
A   30
C22
A   31
C23
A   32
O33
M  END
