1DQR_6PG_A_600
     RDKit          3D

 30 29  0  0  0  0  0  0  0  0999 V2000
   14.8400    9.1010   28.7870 C   0  0  0  0  0  0  0  0  0  0  0  0
   15.0770    9.4200   30.2820 C   0  0  0  0  0  0  0  0  0  0  0  0
   15.8730    8.2710   30.9800 C   0  0  0  0  0  0  0  0  0  0  0  0
   17.4020    8.2790   30.6290 C   0  0  0  0  0  0  0  0  0  0  0  0
   18.2880    7.6120   31.6960 C   0  0  0  0  0  0  0  0  0  0  0  0
   19.6750    8.2170   31.7800 C   0  0  0  0  0  0  0  0  0  0  0  0
   15.6450    9.4660   27.9630 O   0  0  0  0  0  0  0  0  0  0  0  0
   13.8470    8.4940   28.4570 O   0  0  0  0  0  0  0  0  0  0  0  0
   15.8010   10.6360   30.4380 O   0  0  0  0  0  0  0  0  0  0  0  0
   15.2490    7.0310   30.6310 O   0  0  0  0  0  0  0  0  0  0  0  0
   17.6130    7.5620   29.4260 O   0  0  0  0  0  0  0  0  0  0  0  0
   17.7000    7.8300   32.9660 O   0  0  0  0  0  0  0  0  0  0  0  0
   20.5840    7.2230   31.3290 O   0  0  0  0  0  0  0  0  0  0  0  0
   21.6650    7.6970   30.3640 P   0  0  0  0  0  0  0  0  0  0  0  0
   22.6740    8.6170   31.1290 O   0  0  0  0  0  0  0  0  0  0  0  0
   22.3950    6.4490   29.8080 O   0  0  0  0  0  0  0  0  0  0  0  0
   20.9870    8.4650   29.1770 O   0  0  0  0  0  0  0  0  0  0  0  0
   14.0872    9.5202   30.7514 H   0  0  0  0  0  0  0  0  0  0  0  0
   15.8382    8.4209   32.0692 H   0  0  0  0  0  0  0  0  0  0  0  0
   17.6827    9.3399   30.5530 H   0  0  0  0  0  0  0  0  0  0  0  0
   18.3694    6.5509   31.4177 H   0  0  0  0  0  0  0  0  0  0  0  0
   19.7391    9.1080   31.1382 H   0  0  0  0  0  0  0  0  0  0  0  0
   19.9085    8.5279   32.8090 H   0  0  0  0  0  0  0  0  0  0  0  0
   13.2411    8.1236   29.1468 H   0  0  0  0  0  0  0  0  0  0  0  0
   15.9165   10.8300   31.4019 H   0  0  0  0  0  0  0  0  0  0  0  0
   15.0028    6.5418   31.4558 H   0  0  0  0  0  0  0  0  0  0  0  0
   17.8860    6.6344   29.6383 H   0  0  0  0  0  0  0  0  0  0  0  0
   18.3477    7.5899   33.6751 H   0  0  0  0  0  0  0  0  0  0  0  0
   22.7197    5.8940   30.5607 H   0  0  0  0  0  0  0  0  0  0  0  0
   20.3767    9.1564   29.5370 H   0  0  0  0  0  0  0  0  0  0  0  0
  1  2  1  0
  1  7  2  0
  1  8  1  0
  2  3  1  0
  2  9  1  0
  3  4  1  0
  3 10  1  0
  4  5  1  0
  4 11  1  0
  5  6  1  0
  5 12  1  0
  6 13  1  0
 13 14  1  0
 14 15  2  0
 14 16  1  0
 14 17  1  0
  2 18  1  0
  3 19  1  0
  4 20  1  0
  5 21  1  0
  6 22  1  0
  6 23  1  0
  8 24  1  0
  9 25  1  0
 10 26  1  0
 11 27  1  0
 12 28  1  0
 16 29  1  0
 17 30  1  0
A    1
C1
A    2
C2
A    3
C3
A    4
C4
A    5
C5
A    6
C6
A    7
O1A
A    8
O1
A    9
O2
A   10
O3
A   11
O4
A   12
O5
A   13
O6
A   14
P
A   15
O1P
A   16
O2P
A   17
O3P
M  END
