3Q8H_AO9_A_165
     RDKit          3D

 43 46  0  0  0  0  0  0  0  0999 V2000
   10.6920  -27.1610  -24.5350 N   0  0  0  0  0  0  0  0  0  0  0  0
   11.0360  -26.9040  -25.8430 C   0  0  0  0  0  0  0  0  0  0  0  0
   10.2600  -27.1390  -26.7480 O   0  0  0  0  0  0  0  0  0  0  0  0
   12.2360  -26.4210  -26.0890 N   0  0  0  0  0  0  0  0  0  0  0  0
   13.0950  -26.1120  -25.1480 C   0  0  0  0  0  0  0  0  0  0  0  0
   14.2700  -25.5920  -25.4710 N   0  0  0  0  0  0  0  0  0  0  0  0
   12.7640  -26.3610  -23.8510 C   0  0  0  0  0  0  0  0  0  0  0  0
   11.5310  -26.8870  -23.5870 C   0  0  0  0  0  0  0  0  0  0  0  0
    9.3860  -27.7050  -24.2080 C   0  0  0  0  0  0  0  0  0  0  0  0
    9.4830  -28.9540  -23.3940 C   0  0  0  0  0  0  0  0  0  0  0  0
    9.5410  -30.0190  -24.2760 O   0  0  0  0  0  0  0  0  0  0  0  0
    8.1980  -28.9620  -22.6810 C   0  0  0  0  0  0  0  0  0  0  0  0
    7.3840  -29.5820  -23.6310 O   0  0  0  0  0  0  0  0  0  0  0  0
    6.4790  -27.6040  -19.4730 C   0  0  0  0  0  0  0  0  0  0  0  0
    5.5470  -27.1500  -20.0290 O   0  0  0  0  0  0  0  0  0  0  0  0
    6.3720  -28.0510  -18.1080 C   0  0  0  0  0  0  0  0  0  0  0  0
    5.0490  -28.1900  -17.4690 N   0  0  0  0  0  0  0  0  0  0  0  0
    5.3360  -28.5610  -16.2540 C   0  0  0  0  0  0  0  0  0  0  0  0
    6.6620  -28.7440  -16.0020 N   0  0  0  0  0  0  0  0  0  0  0  0
    7.3070  -28.3970  -17.1470 C   0  0  0  0  0  0  0  0  0  0  0  0
    3.9810  -28.7860  -15.3700 S   0  0  0  0  0  0  0  0  0  0  0  0
    2.9000  -28.2730  -16.6470 C   0  0  0  0  0  0  0  0  0  0  0  0
    3.6970  -27.9800  -17.7810 C   0  0  0  0  0  0  0  0  0  0  0  0
    7.8330  -27.4890  -22.5570 C   0  0  0  0  0  0  0  0  0  0  0  0
    8.7800  -26.8110  -23.3340 O   0  0  0  0  0  0  0  0  0  0  0  0
    7.9070  -26.8340  -21.2020 C   0  0  0  0  0  0  0  0  0  0  0  0
    7.6440  -27.6660  -20.0620 N   0  0  0  0  0  0  0  0  0  0  0  0
   14.9256  -25.3019  -24.7315 H   0  0  0  0  0  0  0  0  0  0  0  0
   14.5279  -25.4779  -26.4616 H   0  0  0  0  0  0  0  0  0  0  0  0
   13.4711  -26.1443  -23.0367 H   0  0  0  0  0  0  0  0  0  0  0  0
   11.2437  -27.0827  -22.5434 H   0  0  0  0  0  0  0  0  0  0  0  0
    8.8583  -27.8869  -25.1559 H   0  0  0  0  0  0  0  0  0  0  0  0
   10.3505  -29.0130  -22.7203 H   0  0  0  0  0  0  0  0  0  0  0  0
    9.5872  -30.8669  -23.7670 H   0  0  0  0  0  0  0  0  0  0  0  0
    8.1509  -29.4438  -21.6933 H   0  0  0  0  0  0  0  0  0  0  0  0
    6.6864  -30.1133  -23.1715 H   0  0  0  0  0  0  0  0  0  0  0  0
    8.3979  -28.3919  -17.2878 H   0  0  0  0  0  0  0  0  0  0  0  0
    1.8049  -28.1929  -16.5814 H   0  0  0  0  0  0  0  0  0  0  0  0
    3.3152  -27.6405  -18.7552 H   0  0  0  0  0  0  0  0  0  0  0  0
    6.7729  -27.4358  -22.8457 H   0  0  0  0  0  0  0  0  0  0  0  0
    8.9209  -26.4234  -21.0866 H   0  0  0  0  0  0  0  0  0  0  0  0
    7.1013  -26.0851  -21.2017 H   0  0  0  0  0  0  0  0  0  0  0  0
    8.3689  -28.3078  -19.7105 H   0  0  0  0  0  0  0  0  0  0  0  0
  9  1  1  0
  1  8  1  0
  1  2  1  0
  3  2  2  0
  2  4  1  0
  4  5  2  0
  7  5  1  0
  5  6  1  0
  8  7  2  0
 25  9  1  0
 10  9  1  0
 12 10  1  0
 10 11  1  0
 24 12  1  0
 13 12  1  0
 16 14  1  0
 15 14  2  0
 14 27  1  0
 17 16  1  0
 16 20  2  0
 23 17  1  0
 18 17  1  0
 21 18  1  0
 18 19  2  0
 19 20  1  0
 22 21  1  0
 22 23  2  0
 26 24  1  0
 24 25  1  0
 27 26  1  0
  6 28  1  0
  6 29  1  0
  7 30  1  0
  8 31  1  0
  9 32  1  0
 10 33  1  0
 11 34  1  0
 12 35  1  0
 13 36  1  0
 20 37  1  0
 22 38  1  0
 23 39  1  0
 24 40  1  0
 26 41  1  0
 26 42  1  0
 27 43  1  0
A    1
N1
A    2
C2
A    3
O2
A    4
N3
A    5
C4
A    6
N4
A    7
C5
A    8
C6
A    9
C1'
A   10
C2'
A   11
O2'
A   12
C3'
A   13
O3'
A   14
C30
A   15
O31
A   16
C32
A   17
N33
A   18
C34
A   19
N35
A   20
C36
A   21
S37
A   22
C38
A   23
C39
A   24
C4'
A   25
O4'
A   26
C5'
A   27
N5'
M  END
