3Q9C_Q9C_A_401
     RDKit          3D

 34 33  0  0  0  0  0  0  0  0999 V2000
   62.0890   33.2050   21.5110 N   0  0  0  0  0  0  0  0  0  0  0  0
   69.5790   41.1340   24.8090 C   0  0  0  0  0  0  0  0  0  0  0  0
   68.7100   41.4200   25.6510 O   0  0  0  0  0  0  0  0  0  0  0  0
   66.4210   35.4410   21.3940 N   0  0  0  0  0  0  0  0  0  0  0  0
   69.2920   40.1470   23.9450 N   0  0  0  0  0  0  0  0  0  0  0  0
   65.0350   35.5410   20.9080 C   0  0  0  0  0  0  0  0  0  0  0  0
   62.9200   34.3790   21.7780 C   0  0  0  0  0  0  0  0  0  0  0  0
   66.6890   36.2680   22.5890 C   0  0  0  0  0  0  0  0  0  0  0  0
   68.1460   39.3310   23.7950 C   0  0  0  0  0  0  0  0  0  0  0  0
   64.3150   34.2010   21.1440 C   0  0  0  0  0  0  0  0  0  0  0  0
   67.7190   37.3430   22.2260 C   0  0  0  0  0  0  0  0  0  0  0  0
   68.5280   37.8810   23.4220 C   0  0  0  0  0  0  0  0  0  0  0  0
   70.7980   41.9170   24.8640 C   0  0  0  0  0  0  0  0  0  0  0  0
   61.7916   32.7848   22.4031 H   0  0  0  0  0  0  0  0  0  0  0  0
   61.2587   33.4877   20.9709 H   0  0  0  0  0  0  0  0  0  0  0  0
   66.6136   34.4568   21.6290 H   0  0  0  0  0  0  0  0  0  0  0  0
   70.0426   39.9477   23.2684 H   0  0  0  0  0  0  0  0  0  0  0  0
   64.5114   36.3404   21.4528 H   0  0  0  0  0  0  0  0  0  0  0  0
   65.0375   35.7736   19.8329 H   0  0  0  0  0  0  0  0  0  0  0  0
   62.4377   35.2702   21.3501 H   0  0  0  0  0  0  0  0  0  0  0  0
   63.0331   34.4982   22.8657 H   0  0  0  0  0  0  0  0  0  0  0  0
   65.7570   36.7471   22.9234 H   0  0  0  0  0  0  0  0  0  0  0  0
   67.0791   35.6361   23.4005 H   0  0  0  0  0  0  0  0  0  0  0  0
   67.5878   39.3210   24.7428 H   0  0  0  0  0  0  0  0  0  0  0  0
   67.5311   39.7457   22.9827 H   0  0  0  0  0  0  0  0  0  0  0  0
   64.1997   33.6884   20.1776 H   0  0  0  0  0  0  0  0  0  0  0  0
   64.9264   33.6140   21.8451 H   0  0  0  0  0  0  0  0  0  0  0  0
   68.4241   36.9123   21.4999 H   0  0  0  0  0  0  0  0  0  0  0  0
   67.1532   38.1953   21.8217 H   0  0  0  0  0  0  0  0  0  0  0  0
   69.5972   37.8536   23.1648 H   0  0  0  0  0  0  0  0  0  0  0  0
   68.3025   37.2438   24.2898 H   0  0  0  0  0  0  0  0  0  0  0  0
   71.0732   42.0938   25.9143 H   0  0  0  0  0  0  0  0  0  0  0  0
   71.6082   41.3700   24.3597 H   0  0  0  0  0  0  0  0  0  0  0  0
   70.6374   42.8813   24.3597 H   0  0  0  0  0  0  0  0  0  0  0  0
  1  7  1  0
  3  2  2  0
  2  5  1  0
  2 13  1  0
  6  4  1  0
  4  8  1  0
  9  5  1  0
  6 10  1  0
  7 10  1  0
 11  8  1  0
  9 12  1  0
 11 12  1  0
  1 14  1  0
  1 15  1  0
  4 16  1  0
  5 17  1  0
  6 18  1  0
  6 19  1  0
  7 20  1  0
  7 21  1  0
  8 22  1  0
  8 23  1  0
  9 24  1  0
  9 25  1  0
 10 26  1  0
 10 27  1  0
 11 28  1  0
 11 29  1  0
 12 30  1  0
 12 31  1  0
 13 32  1  0
 13 33  1  0
 13 34  1  0
A    1
N
A    2
C
A    3
O
A    4
N01
A    5
N02
A    6
C01
A    7
C02
A    8
C03
A    9
C04
A   10
C05
A   11
C06
A   12
C07
A   13
C08
M  END
