3Q9K_FTE_A_598
     RDKit          3D

 14 14  0  0  0  0  0  0  0  0999 V2000
    2.2770    5.8620   30.0730 C   0  0  0  0  0  0  0  0  0  0  0  0
    2.8510    4.7130   30.6160 C   0  0  0  0  0  0  0  0  0  0  0  0
    2.0410    3.7470   31.2100 C   0  0  0  0  0  0  0  0  0  0  0  0
    0.6670    3.9530   31.2800 C   0  0  0  0  0  0  0  0  0  0  0  0
    0.0930    5.1080   30.7490 C   0  0  0  0  0  0  0  0  0  0  0  0
    0.8990    6.0660   30.1410 C   0  0  0  0  0  0  0  0  0  0  0  0
    4.2320    4.5020   30.5150 N   0  0  0  0  0  0  0  0  0  0  0  0
    4.5280    3.8230   29.4700 C   0  0  0  0  0  0  0  0  0  0  0  0
    5.7610    3.1750   28.3600 S   0  0  0  0  0  0  0  0  0  0  0  0
    2.9163    6.6137   29.5870 H   0  0  0  0  0  0  0  0  0  0  0  0
    2.4850    2.8281   31.6206 H   0  0  0  0  0  0  0  0  0  0  0  0
    0.0268    3.1975   31.7589 H   0  0  0  0  0  0  0  0  0  0  0  0
   -0.9945    5.2614   30.8106 H   0  0  0  0  0  0  0  0  0  0  0  0
    0.4524    6.9775   29.7171 H   0  0  0  0  0  0  0  0  0  0  0  0
  1  2  2  0
  1  6  1  0
  2  3  1  0
  2  7  1  0
  3  4  2  0
  4  5  1  0
  5  6  2  0
  7  8  2  3
  8  9  2  0
  1 10  1  0
  3 11  1  0
  4 12  1  0
  5 13  1  0
  6 14  1  0
A    1
C1
A    2
C2
A    3
C3
A    4
C4
A    5
C5
A    6
C6
A    7
N13
A    8
C15
A    9
S17
M  END
