3QA2_XNA_A_302
     RDKit          3D

 55 59  0  0  0  0  0  0  0  0999 V2000
   -3.1160   -1.2070   15.1500 C   0  0  0  0  0  0  0  0  0  0  0  0
   -3.5590    0.1010   15.8150 C   0  0  0  0  0  0  0  0  0  0  0  0
   -3.6990    1.3200   15.0640 C   0  0  0  0  0  0  0  0  0  0  0  0
   -4.1370    2.5280   15.7130 C   0  0  0  0  0  0  0  0  0  0  0  0
   -4.4450    2.5520   17.1240 C   0  0  0  0  0  0  0  0  0  0  0  0
   -4.2990    1.3390   17.8910 C   0  0  0  0  0  0  0  0  0  0  0  0
   -3.8580    0.1340   17.2350 C   0  0  0  0  0  0  0  0  0  0  0  0
   -3.6890   -1.0890   17.9940 N   0  0  0  0  0  0  0  0  0  0  0  0
   -4.7160   -1.4480   18.9630 C   0  0  0  0  0  0  0  0  0  0  0  0
   -5.6900   -0.5610   19.4160 N   0  0  0  0  0  0  0  0  0  0  0  0
   -6.5990   -1.0300   20.3620 C   0  0  0  0  0  0  0  0  0  0  0  0
   -6.5780   -2.3320   20.8810 N   0  0  0  0  0  0  0  0  0  0  0  0
   -5.5920   -3.1930   20.4090 C   0  0  0  0  0  0  0  0  0  0  0  0
   -5.4730   -4.5800   20.8730 C   0  0  0  0  0  0  0  0  0  0  0  0
   -4.5040   -5.4020   20.4090 N   0  0  0  0  0  0  0  0  0  0  0  0
   -3.6090   -4.9130   19.4590 C   0  0  0  0  0  0  0  0  0  0  0  0
   -3.6240   -3.6390   18.9460 N   0  0  0  0  0  0  0  0  0  0  0  0
   -4.6100   -2.8240   19.4340 C   0  0  0  0  0  0  0  0  0  0  0  0
   -6.4280   -5.0560   21.8830 N   0  0  0  0  0  0  0  0  0  0  0  0
   -6.2970   -6.4340   22.3590 C   0  0  0  0  0  0  0  0  0  0  0  0
   -7.4260   -7.2430   21.6970 C   0  0  0  0  0  0  0  0  0  0  0  0
   -8.3340   -7.9530   22.7030 C   0  0  0  0  0  0  0  0  0  0  0  0
   -7.3360   -8.7620   21.8590 C   0  0  0  0  0  0  0  0  0  0  0  0
   -7.6680   -0.1330   20.9150 N   0  0  0  0  0  0  0  0  0  0  0  0
   -7.7120    1.2700   20.6420 C   0  0  0  0  0  0  0  0  0  0  0  0
   -9.1700    1.6040   20.2560 C   0  0  0  0  0  0  0  0  0  0  0  0
  -10.1080    1.2270   21.4050 N   0  0  0  0  0  0  0  0  0  0  0  0
   -9.9360   -0.2610   21.7310 C   0  0  0  0  0  0  0  0  0  0  0  0
   -8.4520   -0.5570   22.0390 C   0  0  0  0  0  0  0  0  0  0  0  0
   -2.8657   -1.9461   15.9253 H   0  0  0  0  0  0  0  0  0  0  0  0
   -3.9329   -1.5949   14.5237 H   0  0  0  0  0  0  0  0  0  0  0  0
   -2.2315   -1.0187   14.5237 H   0  0  0  0  0  0  0  0  0  0  0  0
   -3.4701    1.3291   13.9881 H   0  0  0  0  0  0  0  0  0  0  0  0
   -4.2391    3.4507   15.1229 H   0  0  0  0  0  0  0  0  0  0  0  0
   -4.7854    3.4803   17.6060 H   0  0  0  0  0  0  0  0  0  0  0  0
   -4.5225    1.3339   18.9680 H   0  0  0  0  0  0  0  0  0  0  0  0
   -2.8639   -1.6890   17.8520 H   0  0  0  0  0  0  0  0  0  0  0  0
   -2.8317   -5.5995   19.0923 H   0  0  0  0  0  0  0  0  0  0  0  0
   -7.1681   -4.4381   22.2455 H   0  0  0  0  0  0  0  0  0  0  0  0
   -5.3179   -6.8432   22.0691 H   0  0  0  0  0  0  0  0  0  0  0  0
   -6.3689   -6.4810   23.4556 H   0  0  0  0  0  0  0  0  0  0  0  0
   -7.5694   -6.5723   20.8370 H   0  0  0  0  0  0  0  0  0  0  0  0
   -8.1653   -7.8253   23.7825 H   0  0  0  0  0  0  0  0  0  0  0  0
   -9.4192   -7.9949   22.8781 H   0  0  0  0  0  0  0  0  0  0  0  0
   -7.7007   -9.4234   21.0593 H   0  0  0  0  0  0  0  0  0  0  0  0
   -6.5281   -9.4752   22.0796 H   0  0  0  0  0  0  0  0  0  0  0  0
   -7.4170    1.8392   21.5359 H   0  0  0  0  0  0  0  0  0  0  0  0
   -7.0181    1.5363   19.8311 H   0  0  0  0  0  0  0  0  0  0  0  0
   -9.2564    2.6815   20.0522 H   0  0  0  0  0  0  0  0  0  0  0  0
   -9.4482    1.0341   19.3572 H   0  0  0  0  0  0  0  0  0  0  0  0
   -9.8779    1.7903   22.2361 H   0  0  0  0  0  0  0  0  0  0  0  0
  -10.5496   -0.5168   22.6074 H   0  0  0  0  0  0  0  0  0  0  0  0
  -10.2565   -0.8629   20.8679 H   0  0  0  0  0  0  0  0  0  0  0  0
   -8.3138   -1.6358   22.2037 H   0  0  0  0  0  0  0  0  0  0  0  0
   -8.1376   -0.0199   22.9460 H   0  0  0  0  0  0  0  0  0  0  0  0
  1  2  1  0
  3  2  2  0
  2  7  1  0
  3  4  1  0
  4  5  2  0
  5  6  1  0
  7  6  2  0
  7  8  1  0
  8  9  1  0
  9 10  2  0
  9 18  1  0
 10 11  1  0
 11 12  2  0
 11 24  1  0
 13 12  1  0
 18 13  2  0
 13 14  1  0
 15 14  2  0
 14 19  1  0
 16 15  1  0
 17 16  2  0
 17 18  1  0
 19 20  1  0
 21 20  1  0
 21 23  1  0
 21 22  1  0
 23 22  1  0
 25 24  1  0
 24 29  1  0
 26 25  1  0
 26 27  1  0
 27 28  1  0
 28 29  1  0
  1 30  1  0
  1 31  1  0
  1 32  1  0
  3 33  1  0
  4 34  1  0
  5 35  1  0
  6 36  1  0
  8 37  1  0
 16 38  1  0
 19 39  1  0
 20 40  1  0
 20 41  1  0
 21 42  1  0
 22 43  1  0
 22 44  1  0
 23 45  1  0
 23 46  1  0
 25 47  1  0
 25 48  1  0
 26 49  1  0
 26 50  1  0
 27 51  1  0
 28 52  1  0
 28 53  1  0
 29 54  1  0
 29 55  1  0
A    1
C01
A    2
C02
A    3
C03
A    4
C04
A    5
C05
A    6
C06
A    7
C07
A    8
N08
A    9
C09
A   10
N10
A   11
C11
A   12
N12
A   13
C13
A   14
C14
A   15
N15
A   16
C16
A   17
N17
A   18
C18
A   19
N19
A   20
C20
A   21
C21
A   22
C22
A   23
C23
A   24
N24
A   25
C25
A   26
C26
A   27
N27
A   28
C28
A   29
C29
M  END
