3QAI_XNN_A_302
     RDKit          3D

 57 62  0  0  0  0  0  0  0  0999 V2000
   -2.7790   -1.1480   13.6760 C   0  0  0  0  0  0  0  0  0  0  0  0
   -1.9960   -0.8440   15.3130 S   0  0  0  0  0  0  0  0  0  0  0  0
   -2.7570    0.5800   16.0730 C   0  0  0  0  0  0  0  0  0  0  0  0
   -2.8040    1.7910   15.4040 C   0  0  0  0  0  0  0  0  0  0  0  0
   -3.4320    2.9080   15.9690 C   0  0  0  0  0  0  0  0  0  0  0  0
   -4.0100    2.7730   17.2200 C   0  0  0  0  0  0  0  0  0  0  0  0
   -3.9690    1.5420   17.9030 C   0  0  0  0  0  0  0  0  0  0  0  0
   -3.3580    0.3900   17.3540 C   0  0  0  0  0  0  0  0  0  0  0  0
   -3.1740   -0.9250   17.9200 N   0  0  0  0  0  0  0  0  0  0  0  0
   -4.1570   -1.5200   18.8140 C   0  0  0  0  0  0  0  0  0  0  0  0
   -5.1910   -0.7810   19.2370 N   0  0  0  0  0  0  0  0  0  0  0  0
   -6.1800   -1.3870   20.0790 C   0  0  0  0  0  0  0  0  0  0  0  0
   -6.1370   -2.6820   20.4960 N   0  0  0  0  0  0  0  0  0  0  0  0
   -5.0590   -3.4430   20.0640 C   0  0  0  0  0  0  0  0  0  0  0  0
   -4.9730   -4.8760   20.4930 C   0  0  0  0  0  0  0  0  0  0  0  0
   -3.9170   -5.6320   20.0800 N   0  0  0  0  0  0  0  0  0  0  0  0
   -2.9910   -4.9900   19.2610 C   0  0  0  0  0  0  0  0  0  0  0  0
   -2.9830   -3.7230   18.8170 N   0  0  0  0  0  0  0  0  0  0  0  0
   -4.0480   -2.9340   19.2350 C   0  0  0  0  0  0  0  0  0  0  0  0
   -5.9900   -5.2690   21.3250 N   0  0  0  0  0  0  0  0  0  0  0  0
   -6.2080   -6.6770   21.7550 C   0  0  0  0  0  0  0  0  0  0  0  0
   -6.1350   -7.8710   20.8400 C   0  0  0  0  0  0  0  0  0  0  0  0
   -7.3910   -8.4730   20.1840 C   0  0  0  0  0  0  0  0  0  0  0  0
   -6.7090   -9.2250   21.3050 C   0  0  0  0  0  0  0  0  0  0  0  0
   -7.2560   -0.6010   20.6170 N   0  0  0  0  0  0  0  0  0  0  0  0
   -8.4850   -0.9880   21.4310 C   0  0  0  0  0  0  0  0  0  0  0  0
   -8.9610    0.4870   21.3580 C   0  0  0  0  0  0  0  0  0  0  0  0
   -9.2230    1.0490   22.7920 C   0  0  0  0  0  0  0  0  0  0  0  0
  -10.6880    1.0870   22.4560 N   0  0  0  0  0  0  0  0  0  0  0  0
  -10.3290    1.1370   20.9910 C   0  0  0  0  0  0  0  0  0  0  0  0
   -7.7990    0.7920   20.3650 C   0  0  0  0  0  0  0  0  0  0  0  0
   -3.7952   -1.5425   13.8232 H   0  0  0  0  0  0  0  0  0  0  0  0
   -2.8300   -0.2043   13.1130 H   0  0  0  0  0  0  0  0  0  0  0  0
   -2.1799   -1.8789   13.1130 H   0  0  0  0  0  0  0  0  0  0  0  0
   -2.3396    1.8775   14.4106 H   0  0  0  0  0  0  0  0  0  0  0  0
   -3.4652    3.8679   15.4328 H   0  0  0  0  0  0  0  0  0  0  0  0
   -4.5068    3.6369   17.6856 H   0  0  0  0  0  0  0  0  0  0  0  0
   -4.4289    1.4737   18.8999 H   0  0  0  0  0  0  0  0  0  0  0  0
   -2.3239   -1.4570   17.6850 H   0  0  0  0  0  0  0  0  0  0  0  0
   -2.1447   -5.6102   18.9306 H   0  0  0  0  0  0  0  0  0  0  0  0
   -6.6397   -4.5489   21.6719 H   0  0  0  0  0  0  0  0  0  0  0  0
   -5.4643   -6.8634   22.5438 H   0  0  0  0  0  0  0  0  0  0  0  0
   -7.2852   -6.6569   21.9769 H   0  0  0  0  0  0  0  0  0  0  0  0
   -5.1705   -7.4996   20.4633 H   0  0  0  0  0  0  0  0  0  0  0  0
   -8.3738   -8.0091   20.3538 H   0  0  0  0  0  0  0  0  0  0  0  0
   -7.6824   -8.7193   19.1523 H   0  0  0  0  0  0  0  0  0  0  0  0
   -6.1634  -10.1554   21.0890 H   0  0  0  0  0  0  0  0  0  0  0  0
   -7.0344   -9.6378   22.2713 H   0  0  0  0  0  0  0  0  0  0  0  0
   -9.1526   -1.7051   20.9309 H   0  0  0  0  0  0  0  0  0  0  0  0
   -8.3849   -1.5037   22.3975 H   0  0  0  0  0  0  0  0  0  0  0  0
   -8.9596    0.3594   23.6075 H   0  0  0  0  0  0  0  0  0  0  0  0
   -8.6968    1.9409   23.1630 H   0  0  0  0  0  0  0  0  0  0  0  0
  -11.2086    0.2435   22.7358 H   0  0  0  0  0  0  0  0  0  0  0  0
  -10.2548    2.1520   20.5735 H   0  0  0  0  0  0  0  0  0  0  0  0
  -10.9850    0.6988   20.2244 H   0  0  0  0  0  0  0  0  0  0  0  0
   -7.1300    1.6041   20.6858 H   0  0  0  0  0  0  0  0  0  0  0  0
   -8.0050    1.1430   19.3431 H   0  0  0  0  0  0  0  0  0  0  0  0
  2  1  1  0
  3  2  1  0
  8  3  2  0
  3  4  1  0
  5  4  2  0
  6  5  1  0
  7  6  2  0
  7  8  1  0
  9  8  1  0
 10  9  1  0
 11 10  2  0
 19 10  1  0
 12 11  1  0
 25 12  1  0
 13 12  2  0
 13 14  1  0
 15 14  1  0
 14 19  2  0
 20 15  1  0
 15 16  2  0
 16 17  1  0
 17 18  2  0
 19 18  1  0
 21 20  1  0
 21 22  1  0
 23 22  1  0
 24 22  1  0
 23 24  1  0
 26 25  1  0
 25 31  1  0
 27 26  1  0
 28 27  1  0
 30 27  1  0
 27 31  1  0
 28 29  1  0
 29 30  1  0
  1 32  1  0
  1 33  1  0
  1 34  1  0
  4 35  1  0
  5 36  1  0
  6 37  1  0
  7 38  1  0
  9 39  1  0
 17 40  1  0
 20 41  1  0
 21 42  1  0
 21 43  1  0
 22 44  1  0
 23 45  1  0
 23 46  1  0
 24 47  1  0
 24 48  1  0
 26 49  1  0
 26 50  1  0
 28 51  1  0
 28 52  1  0
 29 53  1  0
 30 54  1  0
 30 55  1  0
 31 56  1  0
 31 57  1  0
A    1
C01
A    2
S02
A    3
C03
A    4
C04
A    5
C05
A    6
C06
A    7
C07
A    8
C08
A    9
N09
A   10
C10
A   11
N11
A   12
C12
A   13
N13
A   14
C14
A   15
C15
A   16
N16
A   17
C17
A   18
N18
A   19
C19
A   20
N20
A   21
C21
A   22
C22
A   23
C23
A   24
C24
A   25
N25
A   26
C26
A   27
C27
A   28
C28
A   29
N29
A   30
C30
A   31
C31
M  END
