3QAK_UKA_A_1200
     RDKit          3D

104110  0  0  0  0  0  0  0  0999 V2000
   -5.4030  -11.1280   49.4650 C   0  0  0  0  0  0  0  0  0  0  0  0
   -4.3290   -9.9270   51.3680 N   0  0  0  0  0  0  0  0  0  0  0  0
   -3.1030  -10.7160   49.4040 O   0  0  0  0  0  0  0  0  0  0  0  0
   -5.1080  -10.2300   48.2720 C   0  0  0  0  0  0  0  0  0  0  0  0
   -2.1660   -8.9620   46.6600 N   0  0  0  0  0  0  0  0  0  0  0  0
   -5.7350  -10.6420   47.0650 O   0  0  0  0  0  0  0  0  0  0  0  0
   -3.6080  -10.3080   48.1180 C   0  0  0  0  0  0  0  0  0  0  0  0
   -4.2780   -8.0130   52.4550 N   0  0  0  0  0  0  0  0  0  0  0  0
   -5.5760  -12.5030   49.1070 O   0  0  0  0  0  0  0  0  0  0  0  0
   -4.1610  -11.0010   50.3290 C   0  0  0  0  0  0  0  0  0  0  0  0
   -5.9900  -10.0200   55.0120 N   0  0  0  0  0  0  0  0  0  0  0  0
   -3.4730   -7.9700   48.1990 O   0  0  0  0  0  0  0  0  0  0  0  0
   -3.0710   -8.9830   47.6590 C   0  0  0  0  0  0  0  0  0  0  0  0
   -5.4670  -11.2130   53.0940 N   0  0  0  0  0  0  0  0  0  0  0  0
   -6.5250  -13.4780   54.4540 O   0  0  0  0  0  0  0  0  0  0  0  0
   -1.5900   -7.7190   46.1470 C   0  0  0  0  0  0  0  0  0  0  0  0
   -5.4280   -7.7970   55.3050 N   0  0  0  0  0  0  0  0  0  0  0  0
   -9.8250  -12.7320   59.6040 O   0  0  0  0  0  0  0  0  0  0  0  0
   -1.0650   -7.8060   44.7330 C   0  0  0  0  0  0  0  0  0  0  0  0
   -7.4820  -12.0490   55.9490 N   0  0  0  0  0  0  0  0  0  0  0  0
   -3.9440   -8.6430   51.3090 C   0  0  0  0  0  0  0  0  0  0  0  0
   -7.7270  -12.5110   58.9730 N   0  0  0  0  0  0  0  0  0  0  0  0
   -4.8820   -8.9260   53.2460 C   0  0  0  0  0  0  0  0  0  0  0  0
   -8.5550  -11.3370   60.7430 N   0  0  0  0  0  0  0  0  0  0  0  0
   -4.9080  -10.1160   52.5480 C   0  0  0  0  0  0  0  0  0  0  0  0
  -10.5180   -8.7490   63.2270 N   0  0  0  0  0  0  0  0  0  0  0  0
   -5.4550   -8.8940   54.5190 C   0  0  0  0  0  0  0  0  0  0  0  0
   -9.2950   -7.0630   64.4370 N   0  0  0  0  0  0  0  0  0  0  0  0
   -5.9960  -11.1700   54.3160 C   0  0  0  0  0  0  0  0  0  0  0  0
   -5.6890   -7.9240   56.7310 C   0  0  0  0  0  0  0  0  0  0  0  0
   -6.9630   -7.1980   57.1430 C   0  0  0  0  0  0  0  0  0  0  0  0
   -6.9990   -6.9300   58.6010 C   0  0  0  0  0  0  0  0  0  0  0  0
   -8.1310   -7.9590   56.6810 C   0  0  0  0  0  0  0  0  0  0  0  0
   -7.6760   -5.8060   59.0290 C   0  0  0  0  0  0  0  0  0  0  0  0
   -7.7260   -5.4920   60.3700 C   0  0  0  0  0  0  0  0  0  0  0  0
   -7.0920   -6.2890   61.3100 C   0  0  0  0  0  0  0  0  0  0  0  0
   -6.4090   -7.4170   60.9010 C   0  0  0  0  0  0  0  0  0  0  0  0
   -6.3630   -7.7380   59.5410 C   0  0  0  0  0  0  0  0  0  0  0  0
   -8.6730   -8.9830   57.4360 C   0  0  0  0  0  0  0  0  0  0  0  0
   -9.7680   -9.6850   56.9470 C   0  0  0  0  0  0  0  0  0  0  0  0
  -10.3180   -9.3560   55.7170 C   0  0  0  0  0  0  0  0  0  0  0  0
   -9.7680   -8.3180   54.9580 C   0  0  0  0  0  0  0  0  0  0  0  0
   -8.6710   -7.6240   55.4440 C   0  0  0  0  0  0  0  0  0  0  0  0
   -6.6650  -12.3610   54.9290 C   0  0  0  0  0  0  0  0  0  0  0  0
   -8.3970  -12.9590   56.6040 C   0  0  0  0  0  0  0  0  0  0  0  0
   -7.8020  -13.4780   57.8910 C   0  0  0  0  0  0  0  0  0  0  0  0
   -8.7470  -12.2190   59.7700 C   0  0  0  0  0  0  0  0  0  0  0  0
   -9.5870  -10.9340   61.6990 C   0  0  0  0  0  0  0  0  0  0  0  0
  -10.5270   -9.8930   61.0950 C   0  0  0  0  0  0  0  0  0  0  0  0
  -11.3960   -9.1910   62.1350 C   0  0  0  0  0  0  0  0  0  0  0  0
   -9.8660   -9.8300   63.9600 C   0  0  0  0  0  0  0  0  0  0  0  0
   -8.8830  -10.4010   62.9530 C   0  0  0  0  0  0  0  0  0  0  0  0
  -10.9900   -6.3310   62.9490 C   0  0  0  0  0  0  0  0  0  0  0  0
  -10.6930   -5.0030   63.2750 C   0  0  0  0  0  0  0  0  0  0  0  0
   -9.6810   -4.7340   64.1940 C   0  0  0  0  0  0  0  0  0  0  0  0
   -8.9880   -5.8010   64.7720 C   0  0  0  0  0  0  0  0  0  0  0  0
  -10.2740   -7.3810   63.5420 C   0  0  0  0  0  0  0  0  0  0  0  0
   -6.3408  -10.8259   49.9543 H   0  0  0  0  0  0  0  0  0  0  0  0
   -5.4976   -9.2175   48.4540 H   0  0  0  0  0  0  0  0  0  0  0  0
   -1.8688   -9.8552   46.2420 H   0  0  0  0  0  0  0  0  0  0  0  0
   -6.5431  -11.1730   47.2775 H   0  0  0  0  0  0  0  0  0  0  0  0
   -3.2910  -11.0313   47.3523 H   0  0  0  0  0  0  0  0  0  0  0  0
   -5.6450  -13.0516   49.9282 H   0  0  0  0  0  0  0  0  0  0  0  0
   -3.9497  -11.9140   50.9050 H   0  0  0  0  0  0  0  0  0  0  0  0
   -2.3682   -6.9422   46.1769 H   0  0  0  0  0  0  0  0  0  0  0  0
   -0.7256   -7.4884   46.7870 H   0  0  0  0  0  0  0  0  0  0  0  0
   -5.2235   -6.8736   54.8971 H   0  0  0  0  0  0  0  0  0  0  0  0
    0.0200   -7.9858   44.7551 H   0  0  0  0  0  0  0  0  0  0  0  0
   -1.5632   -8.6338   44.2072 H   0  0  0  0  0  0  0  0  0  0  0  0
   -1.2695   -6.8617   44.2072 H   0  0  0  0  0  0  0  0  0  0  0  0
   -7.4548  -11.0790   56.2944 H   0  0  0  0  0  0  0  0  0  0  0  0
   -3.4330   -8.1743   50.4551 H   0  0  0  0  0  0  0  0  0  0  0  0
   -6.8324  -12.0252   59.1301 H   0  0  0  0  0  0  0  0  0  0  0  0
   -7.6219  -10.9098   60.8306 H   0  0  0  0  0  0  0  0  0  0  0  0
   -5.7913   -8.9905   56.9800 H   0  0  0  0  0  0  0  0  0  0  0  0
   -4.8471   -7.4687   57.2731 H   0  0  0  0  0  0  0  0  0  0  0  0
   -6.9834   -6.2100   56.6598 H   0  0  0  0  0  0  0  0  0  0  0  0
   -8.1782   -5.1575   58.2961 H   0  0  0  0  0  0  0  0  0  0  0  0
   -8.2759   -4.5977   60.6983 H   0  0  0  0  0  0  0  0  0  0  0  0
   -7.1328   -6.0241   62.3769 H   0  0  0  0  0  0  0  0  0  0  0  0
   -5.9050   -8.0581   61.6393 H   0  0  0  0  0  0  0  0  0  0  0  0
   -5.8202   -8.6359   59.2105 H   0  0  0  0  0  0  0  0  0  0  0  0
   -8.2413   -9.2395   58.4147 H   0  0  0  0  0  0  0  0  0  0  0  0
  -10.2006  -10.5055   57.5382 H   0  0  0  0  0  0  0  0  0  0  0  0
  -11.1880   -9.9122   55.3379 H   0  0  0  0  0  0  0  0  0  0  0  0
  -10.2028   -8.0543   53.9826 H   0  0  0  0  0  0  0  0  0  0  0  0
   -8.2282   -6.8094   54.8521 H   0  0  0  0  0  0  0  0  0  0  0  0
   -9.3350  -12.4296   56.8273 H   0  0  0  0  0  0  0  0  0  0  0  0
   -8.5898  -13.8102   55.9345 H   0  0  0  0  0  0  0  0  0  0  0  0
   -6.7816  -13.8287   57.6769 H   0  0  0  0  0  0  0  0  0  0  0  0
   -8.4766  -14.2739   58.2396 H   0  0  0  0  0  0  0  0  0  0  0  0
  -10.2153  -11.7972   61.9637 H   0  0  0  0  0  0  0  0  0  0  0  0
   -9.9219   -9.1350   60.5761 H   0  0  0  0  0  0  0  0  0  0  0  0
  -11.2034  -10.4232   60.4085 H   0  0  0  0  0  0  0  0  0  0  0  0
  -12.1534   -9.8883   62.5224 H   0  0  0  0  0  0  0  0  0  0  0  0
  -11.9147   -8.3311   61.6861 H   0  0  0  0  0  0  0  0  0  0  0  0
   -9.3409   -9.4432   64.8458 H   0  0  0  0  0  0  0  0  0  0  0  0
  -10.5764  -10.5804   64.3371 H   0  0  0  0  0  0  0  0  0  0  0  0
   -8.3288  -11.2251   63.4261 H   0  0  0  0  0  0  0  0  0  0  0  0
   -8.2060   -9.5912   62.6434 H   0  0  0  0  0  0  0  0  0  0  0  0
  -11.7880   -6.5522   62.2249 H   0  0  0  0  0  0  0  0  0  0  0  0
  -11.2536   -4.1788   62.8098 H   0  0  0  0  0  0  0  0  0  0  0  0
   -9.4311   -3.6965   64.4608 H   0  0  0  0  0  0  0  0  0  0  0  0
   -8.1895   -5.6056   65.5029 H   0  0  0  0  0  0  0  0  0  0  0  0
  4  1  1  0
  9  1  1  0
  1 10  1  0
 10  2  1  0
 21  2  1  0
  2 25  1  0
  7  3  1  0
  3 10  1  0
  6  4  1  0
  7  4  1  0
 16  5  1  0
  5 13  1  0
 13  7  1  0
 21  8  2  0
  8 23  1  0
 29 11  1  0
 27 11  2  0
 13 12  2  0
 25 14  1  0
 14 29  2  0
 15 44  2  0
 19 16  1  0
 27 17  1  0
 17 30  1  0
 18 47  2  0
 44 20  1  0
 20 45  1  0
 46 22  1  0
 22 47  1  0
 25 23  2  0
 23 27  1  0
 47 24  1  0
 24 48  1  0
 50 26  1  0
 26 57  1  0
 26 51  1  0
 57 28  2  0
 28 56  1  0
 29 44  1  0
 30 31  1  0
 33 31  1  0
 31 32  1  0
 32 34  2  0
 32 38  1  0
 43 33  1  0
 33 39  2  0
 34 35  1  0
 35 36  2  0
 37 36  1  0
 38 37  2  0
 40 39  1  0
 41 40  2  0
 42 41  1  0
 42 43  2  0
 45 46  1  0
 49 48  1  0
 48 52  1  0
 49 50  1  0
 52 51  1  0
 53 54  2  0
 53 57  1  0
 54 55  1  0
 55 56  2  0
  1 58  1  0
  4 59  1  0
  5 60  1  0
  6 61  1  0
  7 62  1  0
  9 63  1  0
 10 64  1  0
 16 65  1  0
 16 66  1  0
 17 67  1  0
 19 68  1  0
 19 69  1  0
 19 70  1  0
 20 71  1  0
 21 72  1  0
 22 73  1  0
 24 74  1  0
 30 75  1  0
 30 76  1  0
 31 77  1  0
 34 78  1  0
 35 79  1  0
 36 80  1  0
 37 81  1  0
 38 82  1  0
 39 83  1  0
 40 84  1  0
 41 85  1  0
 42 86  1  0
 43 87  1  0
 45 88  1  0
 45 89  1  0
 46 90  1  0
 46 91  1  0
 48 92  1  0
 49 93  1  0
 49 94  1  0
 50 95  1  0
 50 96  1  0
 51 97  1  0
 51 98  1  0
 52 99  1  0
 52100  1  0
 53101  1  0
 54102  1  0
 55103  1  0
 56104  1  0
A    1
C1
A    2
N1
A    3
O1
A    4
C2
A    5
N2
A    6
O2
A    7
C3
A    8
N3
A    9
O3
A   10
C4
A   11
N4
A   12
O4
A   13
C5
A   14
N5
A   15
O5
A   16
C6
A   17
N6
A   18
O6
A   19
C7
A   20
N7
A   21
C8
A   22
N8
A   23
C9
A   24
N9
A   25
C10
A   26
N10
A   27
C11
A   28
N11
A   29
C12
A   30
C13
A   31
C14
A   32
C15
A   33
C16
A   34
C17
A   35
C18
A   36
C19
A   37
C20
A   38
C21
A   39
C22
A   40
C23
A   41
C24
A   42
C25
A   43
C26
A   44
C27
A   45
C28
A   46
C29
A   47
C30
A   48
C31
A   49
C32
A   50
C33
A   51
C34
A   52
C35
A   53
C36
A   54
C37
A   55
C38
A   56
C39
A   57
C40
M  END
