3QBJ_NXZ_A_900
     RDKit          3D

 48 51  0  0  0  0  0  0  0  0999 V2000
   18.5470   18.4120   34.1770 N   0  0  0  0  0  0  0  0  0  0  0  0
   19.1210   17.3670   36.1700 C   0  0  0  0  0  0  0  0  0  0  0  0
   17.6580   17.8450   36.1450 C   0  0  0  0  0  0  0  0  0  0  0  0
   17.5700   18.9700   35.1520 C   0  0  0  0  0  0  0  0  0  0  0  0
   19.4730   17.3340   34.6620 C   0  0  0  0  0  0  0  0  0  0  0  0
   20.1920   18.6880   29.4590 C   0  0  0  0  0  0  0  0  0  0  0  0
   20.0080   19.3420   28.1350 C   0  0  0  0  0  0  0  0  0  0  0  0
   20.8730   18.9380   27.0620 C   0  0  0  0  0  0  0  0  0  0  0  0
   21.9060   17.9500   27.3070 C   0  0  0  0  0  0  0  0  0  0  0  0
   22.1110   17.3210   28.5820 C   0  0  0  0  0  0  0  0  0  0  0  0
   21.2290   17.6790   29.6660 C   0  0  0  0  0  0  0  0  0  0  0  0
   19.3030   19.0710   30.5990 C   0  0  0  0  0  0  0  0  0  0  0  0
   19.4290   18.4580   31.8850 C   0  0  0  0  0  0  0  0  0  0  0  0
   18.5390   18.9190   32.8780 C   0  0  0  0  0  0  0  0  0  0  0  0
   17.6160   19.9350   32.5300 N   0  0  0  0  0  0  0  0  0  0  0  0
   17.4930   20.5050   31.3250 C   0  0  0  0  0  0  0  0  0  0  0  0
   18.3320   20.0610   30.3840 N   0  0  0  0  0  0  0  0  0  0  0  0
   19.1970   16.0660   36.7340 N   0  0  0  0  0  0  0  0  0  0  0  0
   17.1490   18.1630   37.4930 N   0  0  0  0  0  0  0  0  0  0  0  0
   17.6440   19.4280   38.1320 C   0  0  0  0  0  0  0  0  0  0  0  0
   17.3480   19.5530   39.6290 C   0  0  0  0  0  0  0  0  0  0  0  0
   16.0610   18.7860   40.1310 C   0  0  0  0  0  0  0  0  0  0  0  0
   15.8810   17.3690   39.5190 C   0  0  0  0  0  0  0  0  0  0  0  0
   16.3230   17.2040   38.0450 C   0  0  0  0  0  0  0  0  0  0  0  0
   15.9870   16.1660   37.4340 O   0  0  0  0  0  0  0  0  0  0  0  0
   19.7955   17.9985   36.7669 H   0  0  0  0  0  0  0  0  0  0  0  0
   16.9847   17.0407   35.8137 H   0  0  0  0  0  0  0  0  0  0  0  0
   17.8960   19.9324   35.5734 H   0  0  0  0  0  0  0  0  0  0  0  0
   16.5693   19.2158   34.7671 H   0  0  0  0  0  0  0  0  0  0  0  0
   19.2442   16.3590   34.2069 H   0  0  0  0  0  0  0  0  0  0  0  0
   20.5363   17.4827   34.4225 H   0  0  0  0  0  0  0  0  0  0  0  0
   19.2349   20.1096   27.9831 H   0  0  0  0  0  0  0  0  0  0  0  0
   20.7527   19.3755   26.0600 H   0  0  0  0  0  0  0  0  0  0  0  0
   22.5664   17.6678   26.4737 H   0  0  0  0  0  0  0  0  0  0  0  0
   22.9175   16.5873   28.7277 H   0  0  0  0  0  0  0  0  0  0  0  0
   21.3368   17.1933   30.6470 H   0  0  0  0  0  0  0  0  0  0  0  0
   20.1744   17.6748   32.0876 H   0  0  0  0  0  0  0  0  0  0  0  0
   16.7486   21.2891   31.1221 H   0  0  0  0  0  0  0  0  0  0  0  0
   19.1929   16.1365   37.7616 H   0  0  0  0  0  0  0  0  0  0  0  0
   18.3871   15.5099   36.4248 H   0  0  0  0  0  0  0  0  0  0  0  0
   18.7342   19.4765   37.9941 H   0  0  0  0  0  0  0  0  0  0  0  0
   17.1058   20.2524   37.6414 H   0  0  0  0  0  0  0  0  0  0  0  0
   18.2145   19.1593   40.1804 H   0  0  0  0  0  0  0  0  0  0  0  0
   17.1558   20.6205   39.8122 H   0  0  0  0  0  0  0  0  0  0  0  0
   16.1258   18.6833   41.2243 H   0  0  0  0  0  0  0  0  0  0  0  0
   15.1940   19.3809   39.8079 H   0  0  0  0  0  0  0  0  0  0  0  0
   16.4665   16.6634   40.1267 H   0  0  0  0  0  0  0  0  0  0  0  0
   14.7976   17.1790   39.5261 H   0  0  0  0  0  0  0  0  0  0  0  0
  4  1  1  0
  5  1  1  0
  1 14  1  0
 18  2  1  0
  2  3  1  0
  2  5  1  0
 19  3  1  0
  3  4  1  0
 12  6  1  0
 11  6  1  0
  6  7  2  0
  7  8  1  0
  9  8  2  0
 10  9  1  0
 11 10  2  0
 13 12  2  0
 12 17  1  0
 14 13  1  0
 14 15  2  0
 15 16  1  0
 16 17  2  0
 20 19  1  0
 24 19  1  0
 21 20  1  0
 22 21  1  0
 22 23  1  0
 23 24  1  0
 24 25  2  0
  2 26  1  0
  3 27  1  0
  4 28  1  0
  4 29  1  0
  5 30  1  0
  5 31  1  0
  7 32  1  0
  8 33  1  0
  9 34  1  0
 10 35  1  0
 11 36  1  0
 13 37  1  0
 16 38  1  0
 18 39  1  0
 18 40  1  0
 20 41  1  0
 20 42  1  0
 21 43  1  0
 21 44  1  0
 22 45  1  0
 22 46  1  0
 23 47  1  0
 23 48  1  0
A    1
N1
A    2
C2
A    3
C3
A    4
C4
A    5
C5
A    6
C6
A    7
C7
A    8
C8
A    9
C9
A   10
C10
A   11
C11
A   12
C12
A   13
C13
A   14
C14
A   15
N15
A   16
C16
A   17
N17
A   18
N18
A   19
N19
A   20
C20
A   21
C21
A   22
C22
A   23
C23
A   24
C24
A   25
O25
M  END
