3QCJ_NX4_A_2001
     RDKit          3D

 47 49  0  0  0  0  0  0  0  0999 V2000
   19.9920   29.9670   62.0000 C   0  0  0  0  0  0  0  0  0  0  0  0
   21.9840   31.4990   61.7360 C   0  0  0  0  0  0  0  0  0  0  0  0
   22.6960   32.3920   62.4200 N   0  0  0  0  0  0  0  0  0  0  0  0
   19.6480   29.6980   60.3490 S   0  0  0  0  0  0  0  0  0  0  0  0
   17.9580   29.0710   60.4460 C   0  0  0  0  0  0  0  0  0  0  0  0
   17.5400   28.5720   59.0830 C   0  0  0  0  0  0  0  0  0  0  0  0
   16.8850   29.4980   58.2090 C   0  0  0  0  0  0  0  0  0  0  0  0
   16.4440   29.0990   56.9100 C   0  0  0  0  0  0  0  0  0  0  0  0
   16.7030   27.7340   56.5640 C   0  0  0  0  0  0  0  0  0  0  0  0
   17.3640   26.7950   57.4210 C   0  0  0  0  0  0  0  0  0  0  0  0
   17.8030   27.1880   58.7120 C   0  0  0  0  0  0  0  0  0  0  0  0
   16.1480   27.1840   55.0320 Cl  0  0  0  0  0  0  0  0  0  0  0  0
   17.6260   25.1760   56.8270 Cl  0  0  0  0  0  0  0  0  0  0  0  0
   22.0430   31.2720   60.5350 O   0  0  0  0  0  0  0  0  0  0  0  0
   23.7770   33.3380   61.7590 S   0  0  0  0  0  0  0  0  0  0  0  0
   24.0770   34.2810   62.7960 O   0  0  0  0  0  0  0  0  0  0  0  0
   23.2390   33.8310   60.5120 O   0  0  0  0  0  0  0  0  0  0  0  0
   21.0510   30.7660   62.5450 C   0  0  0  0  0  0  0  0  0  0  0  0
   19.4580   29.5790   63.1320 C   0  0  0  0  0  0  0  0  0  0  0  0
   19.5810   29.7160   64.4350 C   0  0  0  0  0  0  0  0  0  0  0  0
   21.0070   30.7640   64.3070 S   0  0  0  0  0  0  0  0  0  0  0  0
   25.2850   32.5450   61.5070 C   0  0  0  0  0  0  0  0  0  0  0  0
   26.2660   32.8250   62.5120 C   0  0  0  0  0  0  0  0  0  0  0  0
   27.5570   32.2670   62.4140 C   0  0  0  0  0  0  0  0  0  0  0  0
   27.8060   31.4170   61.2640 C   0  0  0  0  0  0  0  0  0  0  0  0
   26.7800   31.1420   60.2490 C   0  0  0  0  0  0  0  0  0  0  0  0
   25.4610   31.7230   60.3610 C   0  0  0  0  0  0  0  0  0  0  0  0
   29.0860   30.8410   61.1170 O   0  0  0  0  0  0  0  0  0  0  0  0
   30.1680   31.3400   61.9480 C   0  0  0  0  0  0  0  0  0  0  0  0
   27.0440   30.2730   59.0800 C   0  0  0  0  0  0  0  0  0  0  0  0
   28.2280   30.1740   58.6940 O   0  0  0  0  0  0  0  0  0  0  0  0
   26.0930   29.6790   58.5200 O   0  0  0  0  0  0  0  0  0  0  0  0
   22.5341   32.4709   63.4341 H   0  0  0  0  0  0  0  0  0  0  0  0
   17.9120   28.2452   61.1712 H   0  0  0  0  0  0  0  0  0  0  0  0
   17.2813   29.8749   60.7712 H   0  0  0  0  0  0  0  0  0  0  0  0
   16.7188   30.5328   58.5430 H   0  0  0  0  0  0  0  0  0  0  0  0
   15.9396   29.7935   56.2221 H   0  0  0  0  0  0  0  0  0  0  0  0
   18.3117   26.4891   59.3922 H   0  0  0  0  0  0  0  0  0  0  0  0
   18.6148   28.9054   62.9194 H   0  0  0  0  0  0  0  0  0  0  0  0
   19.0096   29.3246   65.2896 H   0  0  0  0  0  0  0  0  0  0  0  0
   26.0120   33.4762   63.3614 H   0  0  0  0  0  0  0  0  0  0  0  0
   28.3332   32.4650   63.1679 H   0  0  0  0  0  0  0  0  0  0  0  0
   24.6639   31.5446   59.6243 H   0  0  0  0  0  0  0  0  0  0  0  0
   29.9024   31.2175   63.0084 H   0  0  0  0  0  0  0  0  0  0  0  0
   31.0866   30.7746   61.7324 H   0  0  0  0  0  0  0  0  0  0  0  0
   30.3343   32.4058   61.7324 H   0  0  0  0  0  0  0  0  0  0  0  0
   28.9611   30.1127   59.3565 H   0  0  0  0  0  0  0  0  0  0  0  0
  4  1  1  0
  1 18  2  0
  1 19  1  0
 14  2  2  0
  2  3  1  0
  2 18  1  0
 15  3  1  0
  4  5  1  0
  6  5  1  0
  7  6  2  0
 11  6  1  0
  8  7  1  0
  9  8  2  0
 12  9  1  0
  9 10  1  0
 13 10  1  0
 10 11  2  0
 17 15  2  0
 22 15  1  0
 15 16  2  0
 18 21  1  0
 19 20  2  0
 21 20  1  0
 27 22  1  0
 22 23  2  0
 24 23  1  0
 25 24  2  0
 26 25  1  0
 28 25  1  0
 30 26  1  0
 26 27  2  0
 28 29  1  0
 32 30  2  0
 31 30  1  0
  3 33  1  0
  5 34  1  0
  5 35  1  0
  7 36  1  0
  8 37  1  0
 11 38  1  0
 19 39  1  0
 20 40  1  0
 23 41  1  0
 24 42  1  0
 27 43  1  0
 29 44  1  0
 29 45  1  0
 29 46  1  0
 31 47  1  0
A    1
C1
A    2
C2
A    3
N3
A    4
S4
A    5
C5
A    6
C6
A    7
C7
A    8
C8
A    9
C9
A   10
C10
A   11
C11
A   12
CL12
A   13
CL13
A   14
O14
A   15
S15
A   16
O16
A   17
O17
A   18
C18
A   19
C19
A   20
C20
A   21
S21
A   22
C22
A   23
C23
A   24
C24
A   25
C25
A   26
C26
A   27
C27
A   28
O28
A   29
C29
A   30
C30
A   31
O31
A   32
O32
M  END
