3QCK_NX5_A_2001
     RDKit          3D

 29 30  0  0  0  0  0  0  0  0999 V2000
   19.7460   30.0560   62.1540 C   0  0  0  0  0  0  0  0  0  0  0  0
   19.3910   29.6850   60.4550 S   0  0  0  0  0  0  0  0  0  0  0  0
   17.6880   29.0240   60.4900 C   0  0  0  0  0  0  0  0  0  0  0  0
   17.3360   28.4890   59.1230 C   0  0  0  0  0  0  0  0  0  0  0  0
   17.7080   27.1330   58.7830 C   0  0  0  0  0  0  0  0  0  0  0  0
   16.3100   28.9590   56.9020 C   0  0  0  0  0  0  0  0  0  0  0  0
   16.6590   29.3800   58.2170 C   0  0  0  0  0  0  0  0  0  0  0  0
   17.3540   26.7160   57.4770 C   0  0  0  0  0  0  0  0  0  0  0  0
   16.6590   27.6070   56.5860 C   0  0  0  0  0  0  0  0  0  0  0  0
   16.1570   26.9960   55.0690 Cl  0  0  0  0  0  0  0  0  0  0  0  0
   17.7110   25.1090   56.9360 Cl  0  0  0  0  0  0  0  0  0  0  0  0
   18.9160   29.5590   63.2290 C   0  0  0  0  0  0  0  0  0  0  0  0
   19.3230   29.8680   64.5720 C   0  0  0  0  0  0  0  0  0  0  0  0
   20.5140   30.6520   64.8220 C   0  0  0  0  0  0  0  0  0  0  0  0
   21.3400   31.1460   63.7550 C   0  0  0  0  0  0  0  0  0  0  0  0
   20.9190   30.8290   62.4150 C   0  0  0  0  0  0  0  0  0  0  0  0
   21.7200   31.2920   61.3110 C   0  0  0  0  0  0  0  0  0  0  0  0
   22.9540   31.1600   61.4000 O   0  0  0  0  0  0  0  0  0  0  0  0
   21.1760   31.8290   60.3300 O   0  0  0  0  0  0  0  0  0  0  0  0
   17.6230   28.2132   61.2305 H   0  0  0  0  0  0  0  0  0  0  0  0
   16.9860   29.8246   60.7660 H   0  0  0  0  0  0  0  0  0  0  0  0
   18.2298   26.4716   59.4902 H   0  0  0  0  0  0  0  0  0  0  0  0
   15.8093   29.6235   56.1824 H   0  0  0  0  0  0  0  0  0  0  0  0
   16.4080   30.3995   58.5449 H   0  0  0  0  0  0  0  0  0  0  0  0
   18.0102   28.9686   63.0268 H   0  0  0  0  0  0  0  0  0  0  0  0
   18.7230   29.5048   65.4194 H   0  0  0  0  0  0  0  0  0  0  0  0
   20.7955   30.8766   65.8614 H   0  0  0  0  0  0  0  0  0  0  0  0
   22.2473   31.7360   63.9518 H   0  0  0  0  0  0  0  0  0  0  0  0
   23.3840   31.1140   62.2906 H   0  0  0  0  0  0  0  0  0  0  0  0
  2  1  1  0
  1 16  1  0
  1 12  2  0
  2  3  1  0
  4  3  1  0
  7  4  1  0
  5  4  2  0
  8  5  1  0
  9  6  1  0
  6  7  2  0
  9  8  2  0
 11  8  1  0
 10  9  1  0
 12 13  1  0
 13 14  2  0
 15 14  1  0
 16 15  2  0
 17 16  1  0
 19 17  2  0
 17 18  1  0
  3 20  1  0
  3 21  1  0
  5 22  1  0
  6 23  1  0
  7 24  1  0
 12 25  1  0
 13 26  1  0
 14 27  1  0
 15 28  1  0
 18 29  1  0
A    1
C1
A    2
S2
A    3
C3
A    4
C4
A    5
C5
A    6
C6
A    7
C7
A    8
C8
A    9
C9
A   10
CL10
A   11
CL11
A   12
C12
A   13
C13
A   14
C14
A   15
C15
A   16
C16
A   17
C17
A   18
O18
A   19
O19
M  END
