3QCM_NXW_A_2001
     RDKit          3D

 61 63  0  0  0  0  0  0  0  0999 V2000
   23.6560   26.3080   24.5700 C   0  0  0  0  0  0  0  0  0  0  0  0
   23.1610   26.4310   25.6630 C   0  0  0  0  0  0  0  0  0  0  0  0
   26.1560   25.9980   21.8320 C   0  0  0  0  0  0  0  0  0  0  0  0
   25.6110   26.1090   23.1100 C   0  0  0  0  0  0  0  0  0  0  0  0
   21.2760   27.1120   27.0360 C   0  0  0  0  0  0  0  0  0  0  0  0
   20.6440   27.2110   28.2720 C   0  0  0  0  0  0  0  0  0  0  0  0
   26.2320   26.8270   32.5910 C   0  0  0  0  0  0  0  0  0  0  0  0
   25.3200   25.9470   20.7110 C   0  0  0  0  0  0  0  0  0  0  0  0
   26.9750   26.5790   33.7600 C   0  0  0  0  0  0  0  0  0  0  0  0
   23.3820   26.1140   22.1440 C   0  0  0  0  0  0  0  0  0  0  0  0
   23.1850   26.0330   28.0730 C   0  0  0  0  0  0  0  0  0  0  0  0
   26.2060   24.4670   32.0680 C   0  0  0  0  0  0  0  0  0  0  0  0
   24.2230   26.1670   23.2620 C   0  0  0  0  0  0  0  0  0  0  0  0
   22.5430   26.5310   26.9390 C   0  0  0  0  0  0  0  0  0  0  0  0
   21.2810   26.7040   29.4070 C   0  0  0  0  0  0  0  0  0  0  0  0
   25.8640   25.7680   31.7640 C   0  0  0  0  0  0  0  0  0  0  0  0
   23.9260   26.0060   20.8600 C   0  0  0  0  0  0  0  0  0  0  0  0
   22.5570   26.1320   29.3220 C   0  0  0  0  0  0  0  0  0  0  0  0
   27.3300   25.2640   34.0730 C   0  0  0  0  0  0  0  0  0  0  0  0
   26.9400   24.2270   33.2300 C   0  0  0  0  0  0  0  0  0  0  0  0
   20.6160   26.8280   30.6850 C   0  0  0  0  0  0  0  0  0  0  0  0
   21.7020   25.9830   19.6310 C   0  0  0  0  0  0  0  0  0  0  0  0
   16.7950   23.4270   16.9950 C   0  0  0  0  0  0  0  0  0  0  0  0
   25.0720   26.0170   30.5270 C   0  0  0  0  0  0  0  0  0  0  0  0
   21.2560   25.8950   18.1810 C   0  0  0  0  0  0  0  0  0  0  0  0
   18.6320   24.3200   18.3020 C   0  0  0  0  0  0  0  0  0  0  0  0
   18.9970   25.4960   17.3960 C   0  0  0  0  0  0  0  0  0  0  0  0
   23.1020   25.9440   19.7310 N   0  0  0  0  0  0  0  0  0  0  0  0
   17.2200   24.0040   18.2750 N   0  0  0  0  0  0  0  0  0  0  0  0
   19.9310   26.4500   18.0010 N   0  0  0  0  0  0  0  0  0  0  0  0
   20.9180   27.6870   31.5100 O   0  0  0  0  0  0  0  0  0  0  0  0
   20.9030   26.0750   20.5520 O   0  0  0  0  0  0  0  0  0  0  0  0
   19.6550   25.9030   30.9080 O   0  0  0  0  0  0  0  0  0  0  0  0
   23.3770   25.4800   30.7910 S   0  0  0  0  0  0  0  0  0  0  0  0
   28.2540   24.9260   35.4970 Cl  0  0  0  0  0  0  0  0  0  0  0  0
   27.3810   22.6160   33.5950 Cl  0  0  0  0  0  0  0  0  0  0  0  0
   27.2475   25.9503   21.7041 H   0  0  0  0  0  0  0  0  0  0  0  0
   26.2678   26.1506   23.9914 H   0  0  0  0  0  0  0  0  0  0  0  0
   20.7765   27.4923   26.1327 H   0  0  0  0  0  0  0  0  0  0  0  0
   19.6539   27.6832   28.3542 H   0  0  0  0  0  0  0  0  0  0  0  0
   25.9421   27.8557   32.3305 H   0  0  0  0  0  0  0  0  0  0  0  0
   25.7587   25.8601   19.7060 H   0  0  0  0  0  0  0  0  0  0  0  0
   27.2723   27.4086   34.4183 H   0  0  0  0  0  0  0  0  0  0  0  0
   22.2908   26.1574   22.2757 H   0  0  0  0  0  0  0  0  0  0  0  0
   24.1772   25.5659   27.9875 H   0  0  0  0  0  0  0  0  0  0  0  0
   25.9071   23.6379   31.4097 H   0  0  0  0  0  0  0  0  0  0  0  0
   16.1521   22.5542   17.1817 H   0  0  0  0  0  0  0  0  0  0  0  0
   16.2340   24.1797   16.4217 H   0  0  0  0  0  0  0  0  0  0  0  0
   17.6803   23.1144   16.4217 H   0  0  0  0  0  0  0  0  0  0  0  0
   25.0850   27.0916   30.2921 H   0  0  0  0  0  0  0  0  0  0  0  0
   25.5106   25.4560   29.6886 H   0  0  0  0  0  0  0  0  0  0  0  0
   21.9662   26.4536   17.5536 H   0  0  0  0  0  0  0  0  0  0  0  0
   21.2292   24.8343   17.8909 H   0  0  0  0  0  0  0  0  0  0  0  0
   18.9155   24.5716   19.3346 H   0  0  0  0  0  0  0  0  0  0  0  0
   19.1744   23.4377   17.9314 H   0  0  0  0  0  0  0  0  0  0  0  0
   19.4563   25.0966   16.4797 H   0  0  0  0  0  0  0  0  0  0  0  0
   18.0649   26.0460   17.1991 H   0  0  0  0  0  0  0  0  0  0  0  0
   23.5998   25.8561   18.8336 H   0  0  0  0  0  0  0  0  0  0  0  0
   16.6853   24.8686   18.4408 H   0  0  0  0  0  0  0  0  0  0  0  0
   19.5640   26.7325   18.9210 H   0  0  0  0  0  0  0  0  0  0  0  0
   19.4051   25.6625   31.8353 H   0  0  0  0  0  0  0  0  0  0  0  0
  2  1  3  0
  1 13  1  0
 14  2  1  0
  4  3  2  0
  8  3  1  0
 13  4  1  0
  6  5  2  0
  5 14  1  0
  6 15  1  0
 16  7  2  0
  7  9  1  0
 17  8  2  0
  9 19  2  0
 10 13  2  0
 10 17  1  0
 18 11  1  0
 14 11  2  0
 16 12  1  0
 12 20  2  0
 21 15  1  0
 15 18  2  0
 24 16  1  0
 28 17  1  0
 18 34  1  0
 20 19  1  0
 19 35  1  0
 20 36  1  0
 31 21  2  0
 33 21  1  0
 32 22  2  0
 25 22  1  0
 22 28  1  0
 29 23  1  0
 34 24  1  0
 30 25  1  0
 29 26  1  0
 26 27  1  0
 27 30  1  0
  3 37  1  0
  4 38  1  0
  5 39  1  0
  6 40  1  0
  7 41  1  0
  8 42  1  0
  9 43  1  0
 10 44  1  0
 11 45  1  0
 12 46  1  0
 23 47  1  0
 23 48  1  0
 23 49  1  0
 24 50  1  0
 24 51  1  0
 25 52  1  0
 25 53  1  0
 26 54  1  0
 26 55  1  0
 27 56  1  0
 27 57  1  0
 28 58  1  0
 29 59  1  0
 30 60  1  0
 33 61  1  0
A    1
C1
A    2
C2
A    3
C3
A    4
C4
A    5
C5
A    6
C6
A    7
C7
A    8
C8
A    9
C9
A   10
C10
A   11
C11
A   12
C12
A   13
C13
A   14
C14
A   15
C15
A   16
C16
A   17
C17
A   18
C18
A   19
C19
A   20
C20
A   21
C21
A   22
C22
A   23
C23
A   24
C24
A   25
C25
A   26
C26
A   27
C27
A   28
N28
A   29
N29
A   30
N30
A   31
O31
A   32
O32
A   33
O33
A   34
S34
A   35
CL35
A   36
CL36
M  END
