3QCQ_3Q0_A_370
     RDKit          3D

 35 37  0  0  0  0  0  0  0  0999 V2000
  -40.6490   16.4720   12.7400 C   0  0  0  0  0  0  0  0  0  0  0  0
  -41.8220   17.1280   12.4460 C   0  0  0  0  0  0  0  0  0  0  0  0
  -42.9400   15.1320   11.7670 C   0  0  0  0  0  0  0  0  0  0  0  0
  -44.4240   18.5120   12.0030 C   0  0  0  0  0  0  0  0  0  0  0  0
  -40.6310   15.0970   12.5430 C   0  0  0  0  0  0  0  0  0  0  0  0
  -42.9450   16.4960   11.9600 C   0  0  0  0  0  0  0  0  0  0  0  0
  -41.7720   14.4790   12.0740 C   0  0  0  0  0  0  0  0  0  0  0  0
  -44.1550   17.2140   11.6230 C   0  0  0  0  0  0  0  0  0  0  0  0
  -45.6480   19.0320   11.6260 C   0  0  0  0  0  0  0  0  0  0  0  0
  -39.6760   14.0500   12.7090 C   0  0  0  0  0  0  0  0  0  0  0  0
  -46.1940   17.0560   10.6050 C   0  0  0  0  0  0  0  0  0  0  0  0
  -45.0440   20.8470   14.1490 C   0  0  0  0  0  0  0  0  0  0  0  0
  -44.8700   20.9790   12.6560 C   0  0  0  0  0  0  0  0  0  0  0  0
  -45.0280   16.4850   10.9230 N   0  0  0  0  0  0  0  0  0  0  0  0
  -46.5350   18.3100   10.9300 N   0  0  0  0  0  0  0  0  0  0  0  0
  -40.1960   12.8660   12.3590 N   0  0  0  0  0  0  0  0  0  0  0  0
  -41.4570   13.1520   11.9840 N   0  0  0  0  0  0  0  0  0  0  0  0
  -38.4090   14.2590   13.1660 N   0  0  0  0  0  0  0  0  0  0  0  0
  -47.0980   16.2830    9.8740 N   0  0  0  0  0  0  0  0  0  0  0  0
  -45.9880   20.3460   11.9780 N   0  0  0  0  0  0  0  0  0  0  0  0
  -39.7662   17.0113   13.1138 H   0  0  0  0  0  0  0  0  0  0  0  0
  -41.8652   18.2152   12.6077 H   0  0  0  0  0  0  0  0  0  0  0  0
  -43.8226   14.5959   11.3880 H   0  0  0  0  0  0  0  0  0  0  0  0
  -43.6988   19.1056   12.5789 H   0  0  0  0  0  0  0  0  0  0  0  0
  -44.2687   21.4351   14.6619 H   0  0  0  0  0  0  0  0  0  0  0  0
  -46.0379   21.2204   14.4368 H   0  0  0  0  0  0  0  0  0  0  0  0
  -44.9522   19.7893   14.4368 H   0  0  0  0  0  0  0  0  0  0  0  0
  -44.8326   22.0443   12.3844 H   0  0  0  0  0  0  0  0  0  0  0  0
  -43.9332   20.4889   12.3523 H   0  0  0  0  0  0  0  0  0  0  0  0
  -39.7352   11.9450   12.3735 H   0  0  0  0  0  0  0  0  0  0  0  0
  -38.2254   14.2893   14.1790 H   0  0  0  0  0  0  0  0  0  0  0  0
  -37.6352   14.3866   12.4983 H   0  0  0  0  0  0  0  0  0  0  0  0
  -47.7864   15.6943   10.3643 H   0  0  0  0  0  0  0  0  0  0  0  0
  -47.0765   16.3014    8.8444 H   0  0  0  0  0  0  0  0  0  0  0  0
  -46.8946   20.7951   11.7848 H   0  0  0  0  0  0  0  0  0  0  0  0
  2  1  2  0
  5  1  1  0
  6  2  1  0
  3  6  2  0
  3  7  1  0
  8  4  2  0
  9  4  1  0
  7  5  1  0
  5 10  2  0
  8  6  1  0
 17  7  2  0
 14  8  1  0
 15  9  2  0
  9 20  1  0
 16 10  1  0
 10 18  1  0
 19 11  1  0
 11 14  2  0
 11 15  1  0
 13 12  1  0
 20 13  1  0
 17 16  1  0
  1 21  1  0
  2 22  1  0
  3 23  1  0
  4 24  1  0
 12 25  1  0
 12 26  1  0
 12 27  1  0
 13 28  1  0
 13 29  1  0
 16 30  1  0
 18 31  1  0
 18 32  1  0
 19 33  1  0
 19 34  1  0
 20 35  1  0
A    1
C13
A    2
C12
A    3
C20
A    4
C5
A    5
C14
A    6
C11
A    7
C19
A    8
C6
A    9
C4
A   10
C15
A   11
C8
A   12
C1
A   13
C2
A   14
N7
A   15
N10
A   16
N17
A   17
N18
A   18
N16
A   19
N9
A   20
N3
M  END
