3QCS_3Q1_A_370
     RDKit          3D

 40 43  0  0  0  0  0  0  0  0999 V2000
  -40.8520   16.4420   12.8550 C   0  0  0  0  0  0  0  0  0  0  0  0
  -42.0130   17.1260   12.5620 C   0  0  0  0  0  0  0  0  0  0  0  0
  -43.1360   15.1680   11.7880 C   0  0  0  0  0  0  0  0  0  0  0  0
  -44.6080   18.5260   12.1850 C   0  0  0  0  0  0  0  0  0  0  0  0
  -40.8490   15.0810   12.6040 C   0  0  0  0  0  0  0  0  0  0  0  0
  -43.1310   16.5230   12.0350 C   0  0  0  0  0  0  0  0  0  0  0  0
  -41.9800   14.4920   12.0880 C   0  0  0  0  0  0  0  0  0  0  0  0
  -44.3330   17.2600   11.7230 C   0  0  0  0  0  0  0  0  0  0  0  0
  -45.8210   19.0770   11.8310 C   0  0  0  0  0  0  0  0  0  0  0  0
  -39.9130   14.0190   12.7480 C   0  0  0  0  0  0  0  0  0  0  0  0
  -46.3500   17.1830   10.6660 C   0  0  0  0  0  0  0  0  0  0  0  0
  -44.9590   21.0230   12.8250 C   0  0  0  0  0  0  0  0  0  0  0  0
  -47.0900   21.0210   11.4150 C   0  0  0  0  0  0  0  0  0  0  0  0
  -44.8290   22.4510   12.3540 C   0  0  0  0  0  0  0  0  0  0  0  0
  -46.7030   22.4450   11.1100 C   0  0  0  0  0  0  0  0  0  0  0  0
  -45.1980   16.5800   10.9680 N   0  0  0  0  0  0  0  0  0  0  0  0
  -46.6970   18.4100   11.0720 N   0  0  0  0  0  0  0  0  0  0  0  0
  -40.4280   12.8530   12.3470 N   0  0  0  0  0  0  0  0  0  0  0  0
  -41.6720   13.1670   11.9540 N   0  0  0  0  0  0  0  0  0  0  0  0
  -46.1430   20.3610   12.3020 N   0  0  0  0  0  0  0  0  0  0  0  0
  -38.6640   14.2090   13.2340 N   0  0  0  0  0  0  0  0  0  0  0  0
  -47.2480   16.4620    9.8770 N   0  0  0  0  0  0  0  0  0  0  0  0
  -46.1250   23.0140   12.2780 O   0  0  0  0  0  0  0  0  0  0  0  0
  -39.9704   16.9537   13.2685 H   0  0  0  0  0  0  0  0  0  0  0  0
  -42.0465   18.2076   12.7596 H   0  0  0  0  0  0  0  0  0  0  0  0
  -44.0172   14.6564   11.3735 H   0  0  0  0  0  0  0  0  0  0  0  0
  -43.8898   19.0759   12.8109 H   0  0  0  0  0  0  0  0  0  0  0  0
  -45.0110   21.0190   13.9238 H   0  0  0  0  0  0  0  0  0  0  0  0
  -44.0818   20.4719   12.4551 H   0  0  0  0  0  0  0  0  0  0  0  0
  -48.0805   21.0199   11.8935 H   0  0  0  0  0  0  0  0  0  0  0  0
  -47.0978   20.4671   10.4646 H   0  0  0  0  0  0  0  0  0  0  0  0
  -44.2162   23.0231   13.0661 H   0  0  0  0  0  0  0  0  0  0  0  0
  -44.3442   22.4817   11.3671 H   0  0  0  0  0  0  0  0  0  0  0  0
  -45.9727   22.4633   10.2876 H   0  0  0  0  0  0  0  0  0  0  0  0
  -47.5903   23.0211   10.8088 H   0  0  0  0  0  0  0  0  0  0  0  0
  -39.9752   11.9279   12.3410 H   0  0  0  0  0  0  0  0  0  0  0  0
  -38.5054   14.2331   14.2514 H   0  0  0  0  0  0  0  0  0  0  0  0
  -37.8722   14.3295   12.5864 H   0  0  0  0  0  0  0  0  0  0  0  0
  -47.9724   15.8804   10.3218 H   0  0  0  0  0  0  0  0  0  0  0  0
  -47.1862   16.5116    8.8501 H   0  0  0  0  0  0  0  0  0  0  0  0
  2  1  2  0
  5  1  1  0
  6  2  1  0
  3  6  2  0
  3  7  1  0
  8  4  2  0
  9  4  1  0
  7  5  1  0
  5 10  2  0
  8  6  1  0
 19  7  2  0
 16  8  1  0
 17  9  2  0
  9 20  1  0
 18 10  1  0
 10 21  1  0
 22 11  1  0
 11 16  2  0
 11 17  1  0
 20 12  1  0
 14 12  1  0
 15 13  1  0
 13 20  1  0
 23 14  1  0
 15 23  1  0
 19 18  1  0
  1 24  1  0
  2 25  1  0
  3 26  1  0
  4 27  1  0
 12 28  1  0
 12 29  1  0
 13 30  1  0
 13 31  1  0
 14 32  1  0
 14 33  1  0
 15 34  1  0
 15 35  1  0
 18 36  1  0
 21 37  1  0
 21 38  1  0
 22 39  1  0
 22 40  1  0
A    1
C9
A    2
C8
A    3
C6
A    4
C12
A    5
C10
A    6
C7
A    7
C5
A    8
C11
A    9
C13
A   10
C2
A   11
C15
A   12
C19
A   13
C23
A   14
C20
A   15
C22
A   16
N17
A   17
N14
A   18
N3
A   19
N4
A   20
N18
A   21
N1
A   22
N16
A   23
O21
M  END
