3QCX_3Q2_A_370
     RDKit          3D

 43 46  0  0  0  0  0  0  0  0999 V2000
  -40.6850   16.4550   12.9350 C   0  0  0  0  0  0  0  0  0  0  0  0
  -41.8750   17.0930   12.6120 C   0  0  0  0  0  0  0  0  0  0  0  0
  -42.9100   15.0750   11.8780 C   0  0  0  0  0  0  0  0  0  0  0  0
  -44.3540   18.4770   11.8950 C   0  0  0  0  0  0  0  0  0  0  0  0
  -40.6150   15.0770   12.7190 C   0  0  0  0  0  0  0  0  0  0  0  0
  -42.9720   16.4350   12.0800 C   0  0  0  0  0  0  0  0  0  0  0  0
  -41.7370   14.4430   12.2140 C   0  0  0  0  0  0  0  0  0  0  0  0
  -44.1880   17.1330   11.6770 C   0  0  0  0  0  0  0  0  0  0  0  0
  -45.5240   19.0700   11.4710 C   0  0  0  0  0  0  0  0  0  0  0  0
  -39.6520   14.0240   12.8860 C   0  0  0  0  0  0  0  0  0  0  0  0
  -46.2580   17.0720   10.6730 C   0  0  0  0  0  0  0  0  0  0  0  0
  -47.0610   20.9290   11.7300 C   0  0  0  0  0  0  0  0  0  0  0  0
  -46.9770   22.3920   11.3480 C   0  0  0  0  0  0  0  0  0  0  0  0
  -44.7440   22.5510   12.1170 C   0  0  0  0  0  0  0  0  0  0  0  0
  -44.7480   21.1090   12.5730 C   0  0  0  0  0  0  0  0  0  0  0  0
  -45.2040   21.0400   14.0050 C   0  0  0  0  0  0  0  0  0  0  0  0
  -45.1440   16.4210   11.0680 N   0  0  0  0  0  0  0  0  0  0  0  0
  -46.4790   18.3740   10.8450 N   0  0  0  0  0  0  0  0  0  0  0  0
  -40.1520   12.8400   12.5000 N   0  0  0  0  0  0  0  0  0  0  0  0
  -41.4040   13.1190   12.0980 N   0  0  0  0  0  0  0  0  0  0  0  0
  -45.6910   20.4680   11.6540 N   0  0  0  0  0  0  0  0  0  0  0  0
  -38.3840   14.1870   13.3820 N   0  0  0  0  0  0  0  0  0  0  0  0
  -47.2810   16.3820   10.0280 N   0  0  0  0  0  0  0  0  0  0  0  0
  -46.0780   23.0730   12.2250 O   0  0  0  0  0  0  0  0  0  0  0  0
  -39.8305   17.0132   13.3451 H   0  0  0  0  0  0  0  0  0  0  0  0
  -41.9507   18.1763   12.7874 H   0  0  0  0  0  0  0  0  0  0  0  0
  -43.7635   14.5174   11.4650 H   0  0  0  0  0  0  0  0  0  0  0  0
  -43.5726   19.0673   12.3960 H   0  0  0  0  0  0  0  0  0  0  0  0
  -47.4565   20.8133   12.7499 H   0  0  0  0  0  0  0  0  0  0  0  0
  -47.7365   20.3587   11.0755 H   0  0  0  0  0  0  0  0  0  0  0  0
  -46.6130   22.4785   10.3136 H   0  0  0  0  0  0  0  0  0  0  0  0
  -47.9758   22.8455   11.4300 H   0  0  0  0  0  0  0  0  0  0  0  0
  -44.4083   22.6073   11.0710 H   0  0  0  0  0  0  0  0  0  0  0  0
  -44.0595   23.1403   12.7449 H   0  0  0  0  0  0  0  0  0  0  0  0
  -43.7634   20.6191   12.5492 H   0  0  0  0  0  0  0  0  0  0  0  0
  -44.3391   21.1709   14.6719 H   0  0  0  0  0  0  0  0  0  0  0  0
  -45.9375   21.8374   14.1951 H   0  0  0  0  0  0  0  0  0  0  0  0
  -45.6688   20.0613   14.1951 H   0  0  0  0  0  0  0  0  0  0  0  0
  -39.6821   11.9235   12.5096 H   0  0  0  0  0  0  0  0  0  0  0  0
  -38.2278   14.2071   14.3999 H   0  0  0  0  0  0  0  0  0  0  0  0
  -37.5878   14.2894   12.7367 H   0  0  0  0  0  0  0  0  0  0  0  0
  -48.0020   15.8957   10.5800 H   0  0  0  0  0  0  0  0  0  0  0  0
  -47.3168   16.3578    8.9989 H   0  0  0  0  0  0  0  0  0  0  0  0
  2  1  2  0
  5  1  1  0
  6  2  1  0
  3  6  2  0
  3  7  1  0
  9  4  2  0
  8  4  1  0
  7  5  1  0
  5 10  2  0
  8  6  1  0
 20  7  2  0
 17  8  2  0
 18  9  1  0
  9 21  1  0
 19 10  1  0
 10 22  1  0
 23 11  1  0
 11 18  2  0
 11 17  1  0
 13 12  1  0
 21 12  1  0
 13 24  1  0
 14 24  1  0
 14 15  1  0
 21 15  1  0
 15 16  1  0
 20 19  1  0
  1 25  1  0
  2 26  1  0
  3 27  1  0
  4 28  1  0
 12 29  1  0
 12 30  1  0
 13 31  1  0
 13 32  1  0
 14 33  1  0
 14 34  1  0
 15 35  1  0
 16 36  1  0
 16 37  1  0
 16 38  1  0
 19 39  1  0
 22 40  1  0
 22 41  1  0
 23 42  1  0
 23 43  1  0
A    1
C1
A    2
C2
A    3
C3
A    4
C4
A    5
C5
A    6
C6
A    7
C7
A    8
C8
A    9
C9
A   10
C10
A   11
C11
A   12
C12
A   13
C13
A   14
C14
A   15
C15
A   16
C16
A   17
N17
A   18
N18
A   19
N19
A   20
N20
A   21
N21
A   22
N22
A   23
N23
A   24
O24
M  END
