3QCY_3Q3_A_371
     RDKit          3D

 54 58  0  0  0  0  0  0  0  0999 V2000
  -52.3130   24.8140    9.0860 C   0  0  0  0  0  0  0  0  0  0  0  0
  -51.9380   23.6580    8.4390 C   0  0  0  0  0  0  0  0  0  0  0  0
  -51.4510   25.4180    9.9730 C   0  0  0  0  0  0  0  0  0  0  0  0
  -40.6460   16.4430   13.0320 C   0  0  0  0  0  0  0  0  0  0  0  0
  -41.8160   17.0990   12.7060 C   0  0  0  0  0  0  0  0  0  0  0  0
  -50.7030   23.1030    8.6790 C   0  0  0  0  0  0  0  0  0  0  0  0
  -50.2160   24.8640   10.2120 C   0  0  0  0  0  0  0  0  0  0  0  0
  -42.8600   15.1180   11.8700 C   0  0  0  0  0  0  0  0  0  0  0  0
  -44.2550   18.5570   11.9890 C   0  0  0  0  0  0  0  0  0  0  0  0
  -40.5950   15.0820   12.7690 C   0  0  0  0  0  0  0  0  0  0  0  0
  -42.9030   16.4710   12.1350 C   0  0  0  0  0  0  0  0  0  0  0  0
  -41.6950   14.4700   12.2100 C   0  0  0  0  0  0  0  0  0  0  0  0
  -49.8460   23.7080    9.5660 C   0  0  0  0  0  0  0  0  0  0  0  0
  -44.0980   17.2080   11.7620 C   0  0  0  0  0  0  0  0  0  0  0  0
  -45.4340   19.1380   11.5730 C   0  0  0  0  0  0  0  0  0  0  0  0
  -39.6330   14.0450   12.9310 C   0  0  0  0  0  0  0  0  0  0  0  0
  -46.1520   17.1230   10.7690 C   0  0  0  0  0  0  0  0  0  0  0  0
  -48.0390   23.1910   11.0650 C   0  0  0  0  0  0  0  0  0  0  0  0
  -44.8460   21.1600   12.7850 C   0  0  0  0  0  0  0  0  0  0  0  0
  -46.9820   21.0280   11.6660 C   0  0  0  0  0  0  0  0  0  0  0  0
  -44.6550   22.5540   12.2170 C   0  0  0  0  0  0  0  0  0  0  0  0
  -46.7480   22.4300   11.1220 C   0  0  0  0  0  0  0  0  0  0  0  0
  -45.0390   16.4830   11.1520 N   0  0  0  0  0  0  0  0  0  0  0  0
  -46.3800   18.4270   10.9520 N   0  0  0  0  0  0  0  0  0  0  0  0
  -40.1020   12.8730   12.4900 N   0  0  0  0  0  0  0  0  0  0  0  0
  -41.3440   13.1560   12.0670 N   0  0  0  0  0  0  0  0  0  0  0  0
  -45.6220   20.5300   11.7460 N   0  0  0  0  0  0  0  0  0  0  0  0
  -38.3940   14.2510   13.4610 N   0  0  0  0  0  0  0  0  0  0  0  0
  -47.1560   16.3900   10.1260 N   0  0  0  0  0  0  0  0  0  0  0  0
  -48.5900   23.1390    9.8060 N   0  0  0  0  0  0  0  0  0  0  0  0
  -48.5120   23.7790   12.0280 O   0  0  0  0  0  0  0  0  0  0  0  0
  -45.9310   23.1790   12.0300 O   0  0  0  0  0  0  0  0  0  0  0  0
  -53.3022   25.2552    8.8939 H   0  0  0  0  0  0  0  0  0  0  0  0
  -52.6274   23.1777    7.7290 H   0  0  0  0  0  0  0  0  0  0  0  0
  -51.7499   26.3421   10.4895 H   0  0  0  0  0  0  0  0  0  0  0  0
  -39.7935   16.9749   13.4796 H   0  0  0  0  0  0  0  0  0  0  0  0
  -41.8848   18.1773   12.9121 H   0  0  0  0  0  0  0  0  0  0  0  0
  -50.4027   22.1790    8.1632 H   0  0  0  0  0  0  0  0  0  0  0  0
  -49.5244   25.3450   10.9193 H   0  0  0  0  0  0  0  0  0  0  0  0
  -43.7085   14.5876   11.4131 H   0  0  0  0  0  0  0  0  0  0  0  0
  -43.4700   19.1483   12.4832 H   0  0  0  0  0  0  0  0  0  0  0  0
  -45.3958   21.1860   13.7374 H   0  0  0  0  0  0  0  0  0  0  0  0
  -43.9062   20.6393   13.0211 H   0  0  0  0  0  0  0  0  0  0  0  0
  -47.4614   21.0538   12.6557 H   0  0  0  0  0  0  0  0  0  0  0  0
  -47.6549   20.4107   11.0527 H   0  0  0  0  0  0  0  0  0  0  0  0
  -44.0529   23.1539   12.9153 H   0  0  0  0  0  0  0  0  0  0  0  0
  -44.1381   22.4848   11.2485 H   0  0  0  0  0  0  0  0  0  0  0  0
  -46.2857   22.3166   10.1303 H   0  0  0  0  0  0  0  0  0  0  0  0
  -39.6208   11.9624   12.4777 H   0  0  0  0  0  0  0  0  0  0  0  0
  -38.2680   14.2719   14.4831 H   0  0  0  0  0  0  0  0  0  0  0  0
  -37.5838   14.3857   12.8394 H   0  0  0  0  0  0  0  0  0  0  0  0
  -47.8564   15.8786   10.6817 H   0  0  0  0  0  0  0  0  0  0  0  0
  -47.1945   16.3619    9.0971 H   0  0  0  0  0  0  0  0  0  0  0  0
  -48.0778   22.6808    9.0388 H   0  0  0  0  0  0  0  0  0  0  0  0
  2  1  2  0
  1  3  1  0
  2  6  1  0
  3  7  2  0
  5  4  2  0
 10  4  1  0
 11  5  1  0
  6 13  2  0
 13  7  1  0
  8 11  2  0
  8 12  1  0
 15  9  2  0
 14  9  1  0
 12 10  1  0
 10 16  2  0
 14 11  1  0
 26 12  2  0
 13 30  1  0
 23 14  2  0
 24 15  1  0
 15 27  1  0
 25 16  1  0
 16 28  1  0
 29 17  1  0
 17 24  2  0
 17 23  1  0
 30 18  1  0
 18 22  1  0
 18 31  2  0
 27 19  1  0
 21 19  1  0
 22 20  1  0
 20 27  1  0
 32 21  1  0
 22 32  1  0
 26 25  1  0
  1 33  1  0
  2 34  1  0
  3 35  1  0
  4 36  1  0
  5 37  1  0
  6 38  1  0
  7 39  1  0
  8 40  1  0
  9 41  1  0
 19 42  1  0
 19 43  1  0
 20 44  1  0
 20 45  1  0
 21 46  1  0
 21 47  1  0
 22 48  1  0
 25 49  1  0
 28 50  1  0
 28 51  1  0
 29 52  1  0
 29 53  1  0
 30 54  1  0
A    1
C1
A    2
C2
A    3
C3
A    4
C4
A    5
C5
A    6
C6
A    7
C7
A    8
C8
A    9
C9
A   10
C10
A   11
C11
A   12
C12
A   13
C13
A   14
C14
A   15
C15
A   16
C16
A   17
C17
A   18
C18
A   19
C19
A   20
C20
A   21
C21
A   22
C22
A   23
N23
A   24
N24
A   25
N25
A   26
N26
A   27
N27
A   28
N28
A   29
N29
A   30
N30
A   31
O31
A   32
O32
M  END
