3QD4_3Q6_A_360
     RDKit          3D

 62 65  0  0  0  0  0  0  0  0999 V2000
  -41.1240   16.4690   12.9480 C   0  0  0  0  0  0  0  0  0  0  0  0
  -42.2820   17.1410   12.6000 C   0  0  0  0  0  0  0  0  0  0  0  0
  -43.3400   15.1520   11.8220 C   0  0  0  0  0  0  0  0  0  0  0  0
  -44.8070   18.5420   11.8730 C   0  0  0  0  0  0  0  0  0  0  0  0
  -41.0830   15.0980   12.7240 C   0  0  0  0  0  0  0  0  0  0  0  0
  -43.3760   16.5110   12.0360 C   0  0  0  0  0  0  0  0  0  0  0  0
  -42.1900   14.4870   12.1790 C   0  0  0  0  0  0  0  0  0  0  0  0
  -44.5840   17.2070   11.6270 C   0  0  0  0  0  0  0  0  0  0  0  0
  -46.0200   19.0500   11.4440 C   0  0  0  0  0  0  0  0  0  0  0  0
  -40.1420   14.0330   12.9060 C   0  0  0  0  0  0  0  0  0  0  0  0
  -46.6500   17.0150   10.6290 C   0  0  0  0  0  0  0  0  0  0  0  0
  -50.4740   21.7030   12.3330 C   0  0  0  0  0  0  0  0  0  0  0  0
  -47.0460   22.5690   13.0400 C   0  0  0  0  0  0  0  0  0  0  0  0
  -45.1710   21.2820   11.9550 C   0  0  0  0  0  0  0  0  0  0  0  0
  -47.4620   21.0020   11.0990 C   0  0  0  0  0  0  0  0  0  0  0  0
  -45.6510   21.9650   13.2290 C   0  0  0  0  0  0  0  0  0  0  0  0
  -48.0390   21.6270   12.3570 C   0  0  0  0  0  0  0  0  0  0  0  0
  -45.6720   20.9480   14.3450 C   0  0  0  0  0  0  0  0  0  0  0  0
  -53.1510   22.1240   13.4730 C   0  0  0  0  0  0  0  0  0  0  0  0
  -53.5610   23.2920   11.3170 C   0  0  0  0  0  0  0  0  0  0  0  0
  -53.1920   20.8780   11.2950 C   0  0  0  0  0  0  0  0  0  0  0  0
  -52.8070   22.1660   11.9910 C   0  0  0  0  0  0  0  0  0  0  0  0
  -45.4950   16.4440   11.0000 N   0  0  0  0  0  0  0  0  0  0  0  0
  -46.9520   18.3010   10.8420 N   0  0  0  0  0  0  0  0  0  0  0  0
  -40.6410   12.8620   12.4980 N   0  0  0  0  0  0  0  0  0  0  0  0
  -41.8770   13.1570   12.0670 N   0  0  0  0  0  0  0  0  0  0  0  0
  -46.3020   20.4020   11.7270 N   0  0  0  0  0  0  0  0  0  0  0  0
  -38.8970   14.1940   13.4270 N   0  0  0  0  0  0  0  0  0  0  0  0
  -47.6110   16.2260    9.9840 N   0  0  0  0  0  0  0  0  0  0  0  0
  -49.2690   22.3130   12.0960 N   0  0  0  0  0  0  0  0  0  0  0  0
  -50.6600   20.6440   12.9150 O   0  0  0  0  0  0  0  0  0  0  0  0
  -51.4270   22.4970   11.7890 O   0  0  0  0  0  0  0  0  0  0  0  0
  -40.2665   17.0006   13.3862 H   0  0  0  0  0  0  0  0  0  0  0  0
  -42.3348   18.2249   12.7800 H   0  0  0  0  0  0  0  0  0  0  0  0
  -44.1964   14.6190   11.3831 H   0  0  0  0  0  0  0  0  0  0  0  0
  -44.0620   19.1707   12.3826 H   0  0  0  0  0  0  0  0  0  0  0  0
  -46.9507   23.4768   12.4262 H   0  0  0  0  0  0  0  0  0  0  0  0
  -47.4428   22.7796   14.0441 H   0  0  0  0  0  0  0  0  0  0  0  0
  -44.2381   20.7213   12.1143 H   0  0  0  0  0  0  0  0  0  0  0  0
  -44.9220   21.9565   11.1225 H   0  0  0  0  0  0  0  0  0  0  0  0
  -47.1914   21.7517   10.3409 H   0  0  0  0  0  0  0  0  0  0  0  0
  -48.1222   20.3294   10.5319 H   0  0  0  0  0  0  0  0  0  0  0  0
  -44.9631   22.7864   13.4782 H   0  0  0  0  0  0  0  0  0  0  0  0
  -48.2467   20.7941   13.0448 H   0  0  0  0  0  0  0  0  0  0  0  0
  -45.6613   21.4674   15.3146 H   0  0  0  0  0  0  0  0  0  0  0  0
  -46.5830   20.3364   14.2667 H   0  0  0  0  0  0  0  0  0  0  0  0
  -44.7871   20.2994   14.2667 H   0  0  0  0  0  0  0  0  0  0  0  0
  -52.2315   22.2363   14.0662 H   0  0  0  0  0  0  0  0  0  0  0  0
  -53.8439   22.9442   13.7120 H   0  0  0  0  0  0  0  0  0  0  0  0
  -53.6262   21.1612   13.7120 H   0  0  0  0  0  0  0  0  0  0  0  0
  -54.0006   23.9485   12.0823 H   0  0  0  0  0  0  0  0  0  0  0  0
  -52.8689   23.8726   10.6894 H   0  0  0  0  0  0  0  0  0  0  0  0
  -54.3615   22.8732   10.6894 H   0  0  0  0  0  0  0  0  0  0  0  0
  -53.4218   20.1092   12.0474 H   0  0  0  0  0  0  0  0  0  0  0  0
  -54.0775   21.0517   10.6659 H   0  0  0  0  0  0  0  0  0  0  0  0
  -52.3565   20.5372   10.6659 H   0  0  0  0  0  0  0  0  0  0  0  0
  -40.1805   11.9408   12.5114 H   0  0  0  0  0  0  0  0  0  0  0  0
  -38.7644   14.2112   14.4483 H   0  0  0  0  0  0  0  0  0  0  0  0
  -38.0862   14.2989   12.8005 H   0  0  0  0  0  0  0  0  0  0  0  0
  -48.2818   15.6753   10.5387 H   0  0  0  0  0  0  0  0  0  0  0  0
  -47.6469   16.1966    8.9550 H   0  0  0  0  0  0  0  0  0  0  0  0
  -49.2482   23.2742   11.7266 H   0  0  0  0  0  0  0  0  0  0  0  0
  2  1  2  0
  5  1  1  0
  6  2  1  0
  3  6  2  0
  3  7  1  0
  9  4  2  0
  8  4  1  0
  7  5  1  0
  5 10  2  0
  8  6  1  0
 26  7  2  0
 23  8  2  0
 24  9  1  0
  9 27  1  0
 25 10  1  0
 10 28  1  0
 29 11  1  0
 11 24  2  0
 11 23  1  0
 32 12  1  0
 30 12  1  0
 12 31  2  0
 17 13  1  0
 13 16  1  0
 27 14  1  0
 14 16  1  0
 15 27  1  0
 15 17  1  0
 16 18  1  0
 30 17  1  0
 22 19  1  0
 20 22  1  0
 21 22  1  0
 32 22  1  0
 26 25  1  0
  1 33  1  0
  2 34  1  0
  3 35  1  0
  4 36  1  0
 13 37  1  0
 13 38  1  0
 14 39  1  0
 14 40  1  0
 15 41  1  0
 15 42  1  0
 16 43  1  0
 17 44  1  0
 18 45  1  0
 18 46  1  0
 18 47  1  0
 19 48  1  0
 19 49  1  0
 19 50  1  0
 20 51  1  0
 20 52  1  0
 20 53  1  0
 21 54  1  0
 21 55  1  0
 21 56  1  0
 25 57  1  0
 28 58  1  0
 28 59  1  0
 29 60  1  0
 29 61  1  0
 30 62  1  0
A    1
C1
A    2
C2
A    3
C3
A    4
C4
A    5
C5
A    6
C6
A    7
C7
A    8
C8
A    9
C9
A   10
C10
A   11
C11
A   12
C12
A   13
C13
A   14
C14
A   15
C15
A   16
C16
A   17
C17
A   18
C18
A   19
C19
A   20
C20
A   21
C21
A   22
C22
A   23
N23
A   24
N24
A   25
N25
A   26
N26
A   27
N27
A   28
N28
A   29
N29
A   30
N30
A   31
O31
A   32
O32
M  END
