3QEL_QEL_B_1
     RDKit          3D

 51 53  0  0  0  0  0  0  0  0999 V2000
   80.4990    1.0220  -32.1880 C   0  0  0  0  0  0  0  0  0  0  0  0
   86.1030    6.6010  -31.8820 N   0  0  0  0  0  0  0  0  0  0  0  0
   85.8250    9.4300  -32.0130 O   0  0  0  0  0  0  0  0  0  0  0  0
   90.3220   10.1020  -30.7460 C   0  0  0  0  0  0  0  0  0  0  0  0
   91.8370   11.8350  -31.6200 O   0  0  0  0  0  0  0  0  0  0  0  0
   89.8100   11.3520  -32.6850 C   0  0  0  0  0  0  0  0  0  0  0  0
   82.3370    2.8190  -31.0800 C   0  0  0  0  0  0  0  0  0  0  0  0
   81.0490    3.2530  -31.3780 C   0  0  0  0  0  0  0  0  0  0  0  0
   80.1200    2.3640  -31.9320 C   0  0  0  0  0  0  0  0  0  0  0  0
   83.2980    3.7680  -30.4370 C   0  0  0  0  0  0  0  0  0  0  0  0
   84.5530    4.2650  -31.2710 C   0  0  0  0  0  0  0  0  0  0  0  0
   84.1340    5.1320  -32.3440 C   0  0  0  0  0  0  0  0  0  0  0  0
   81.7840    0.5860  -31.8850 C   0  0  0  0  0  0  0  0  0  0  0  0
   82.7080    1.4760  -31.3200 C   0  0  0  0  0  0  0  0  0  0  0  0
   85.2520    5.9610  -32.9120 C   0  0  0  0  0  0  0  0  0  0  0  0
   86.4740    5.7800  -30.7630 C   0  0  0  0  0  0  0  0  0  0  0  0
   85.3560    4.9570  -30.2410 C   0  0  0  0  0  0  0  0  0  0  0  0
   87.0920    7.4840  -32.5220 C   0  0  0  0  0  0  0  0  0  0  0  0
   86.9410    8.9080  -32.0930 C   0  0  0  0  0  0  0  0  0  0  0  0
   88.2560    9.6610  -31.8720 C   0  0  0  0  0  0  0  0  0  0  0  0
   89.1030    9.3780  -30.8670 C   0  0  0  0  0  0  0  0  0  0  0  0
   90.6370   11.0920  -31.6860 C   0  0  0  0  0  0  0  0  0  0  0  0
   88.5940   10.6190  -32.7980 C   0  0  0  0  0  0  0  0  0  0  0  0
   86.9830    7.5240  -33.9870 C   0  0  0  0  0  0  0  0  0  0  0  0
   79.7731    0.3226  -32.6283 H   0  0  0  0  0  0  0  0  0  0  0  0
   85.5815    9.5439  -31.0602 H   0  0  0  0  0  0  0  0  0  0  0  0
   91.0136    9.8855  -29.9185 H   0  0  0  0  0  0  0  0  0  0  0  0
   92.2233   12.0742  -30.7404 H   0  0  0  0  0  0  0  0  0  0  0  0
   90.0595   12.1286  -33.4231 H   0  0  0  0  0  0  0  0  0  0  0  0
   80.7604    4.2955  -31.1781 H   0  0  0  0  0  0  0  0  0  0  0  0
   79.1011    2.7051  -32.1675 H   0  0  0  0  0  0  0  0  0  0  0  0
   82.7259    4.6624  -30.1493 H   0  0  0  0  0  0  0  0  0  0  0  0
   83.7383    3.1851  -29.6146 H   0  0  0  0  0  0  0  0  0  0  0  0
   85.1200    3.4683  -31.7748 H   0  0  0  0  0  0  0  0  0  0  0  0
   83.7152    4.5118  -33.1502 H   0  0  0  0  0  0  0  0  0  0  0  0
   83.3917    5.8289  -31.9277 H   0  0  0  0  0  0  0  0  0  0  0  0
   82.0750   -0.4552  -32.0882 H   0  0  0  0  0  0  0  0  0  0  0  0
   83.7202    1.1300  -31.0638 H   0  0  0  0  0  0  0  0  0  0  0  0
   84.8140    6.7508  -33.5400 H   0  0  0  0  0  0  0  0  0  0  0  0
   85.8984    5.2792  -33.4841 H   0  0  0  0  0  0  0  0  0  0  0  0
   87.2852    5.1070  -31.0778 H   0  0  0  0  0  0  0  0  0  0  0  0
   86.7859    6.4559  -29.9531 H   0  0  0  0  0  0  0  0  0  0  0  0
   84.6845    5.6163  -29.6714 H   0  0  0  0  0  0  0  0  0  0  0  0
   85.8165    4.1670  -29.6296 H   0  0  0  0  0  0  0  0  0  0  0  0
   88.0542    7.0522  -32.2094 H   0  0  0  0  0  0  0  0  0  0  0  0
   87.0174    9.2320  -33.1414 H   0  0  0  0  0  0  0  0  0  0  0  0
   88.8546    8.5898  -30.1410 H   0  0  0  0  0  0  0  0  0  0  0  0
   87.9150   10.8226  -33.6391 H   0  0  0  0  0  0  0  0  0  0  0  0
   85.9852    7.8901  -34.2706 H   0  0  0  0  0  0  0  0  0  0  0  0
   87.7505    8.1991  -34.3935 H   0  0  0  0  0  0  0  0  0  0  0  0
   87.1317    6.5127  -34.3935 H   0  0  0  0  0  0  0  0  0  0  0  0
  1  9  2  0
  1 13  1  0
  2 16  1  0
  6 22  2  0
  7 10  1  0
  8  7  2  0
  9  8  1  0
 11 10  1  0
 11 17  1  0
 12 11  1  0
 13 14  2  0
 14  7  1  0
 15  2  1  0
 15 12  1  0
 16 17  1  0
 18  2  1  0
 18 19  1  0
 19  3  1  0
 19 20  1  0
 20 21  1  0
 21  4  2  0
 22  4  1  0
 22  5  1  0
 23  6  1  0
 23 20  2  0
 24 18  1  0
  1 25  1  0
  3 26  1  0
  4 27  1  0
  5 28  1  0
  6 29  1  0
  8 30  1  0
  9 31  1  0
 10 32  1  0
 10 33  1  0
 11 34  1  0
 12 35  1  0
 12 36  1  0
 13 37  1  0
 14 38  1  0
 15 39  1  0
 15 40  1  0
 16 41  1  0
 16 42  1  0
 17 43  1  0
 17 44  1  0
 18 45  1  0
 19 46  1  0
 21 47  1  0
 23 48  1  0
 24 49  1  0
 24 50  1  0
 24 51  1  0
A    1
C1
A    2
N1
A    3
O1
A    4
C2
A    5
O2
A    6
C3
A    7
C4
A    8
C5
A    9
C6
A   10
C7
A   11
C8
A   12
C9
A   13
C01
A   14
C02
A   15
C10
A   16
C11
A   17
C12
A   18
C13
A   19
C14
A   20
C15
A   21
C16
A   22
C18
A   23
C19
A   24
C24
M  END
