3QEN_5BT_A_402
     RDKit          3D

 29 30  0  0  0  0  0  0  0  0999 V2000
  -12.5290   27.9380  -22.5590 N   0  0  0  0  0  0  0  0  0  0  0  0
  -11.1290   28.1150  -22.5030 C   0  0  0  0  0  0  0  0  0  0  0  0
  -10.6560   29.2710  -22.5530 O   0  0  0  0  0  0  0  0  0  0  0  0
  -10.2850   27.0830  -22.4300 N   0  0  0  0  0  0  0  0  0  0  0  0
  -10.7170   25.8210  -22.3890 C   0  0  0  0  0  0  0  0  0  0  0  0
   -9.7850   24.8290  -22.3200 N   0  0  0  0  0  0  0  0  0  0  0  0
  -12.1910   25.5990  -22.4250 C   0  0  0  0  0  0  0  0  0  0  0  0
  -13.0400   23.8900  -22.3920 Br  0  0  0  0  0  0  0  0  0  0  0  0
  -13.0300   26.7070  -22.5030 C   0  0  0  0  0  0  0  0  0  0  0  0
  -13.4080   29.1270  -22.5800 C   0  0  0  0  0  0  0  0  0  0  0  0
  -14.1850   29.4600  -23.8530 C   0  0  0  0  0  0  0  0  0  0  0  0
  -15.5550   29.8620  -23.3260 C   0  0  0  0  0  0  0  0  0  0  0  0
  -15.5750   31.2620  -22.9870 O   0  0  0  0  0  0  0  0  0  0  0  0
  -15.7120   29.0940  -22.0320 C   0  0  0  0  0  0  0  0  0  0  0  0
  -14.3790   28.9870  -21.5190 O   0  0  0  0  0  0  0  0  0  0  0  0
  -16.3370   27.7140  -22.2700 C   0  0  0  0  0  0  0  0  0  0  0  0
  -17.5510   27.6620  -21.5150 O   0  0  0  0  0  0  0  0  0  0  0  0
   -9.4637   24.4871  -21.4031 H   0  0  0  0  0  0  0  0  0  0  0  0
   -9.4019   24.4212  -23.1848 H   0  0  0  0  0  0  0  0  0  0  0  0
  -14.1204   26.5629  -22.5185 H   0  0  0  0  0  0  0  0  0  0  0  0
  -12.6949   29.9582  -22.4770 H   0  0  0  0  0  0  0  0  0  0  0  0
  -13.7124   30.2903  -24.3983 H   0  0  0  0  0  0  0  0  0  0  0  0
  -14.2245   28.6238  -24.5666 H   0  0  0  0  0  0  0  0  0  0  0  0
  -16.3387   29.6617  -24.0715 H   0  0  0  0  0  0  0  0  0  0  0  0
  -15.5764   31.3631  -22.0022 H   0  0  0  0  0  0  0  0  0  0  0  0
  -16.3893   29.5985  -21.3272 H   0  0  0  0  0  0  0  0  0  0  0  0
  -16.5528   27.5778  -23.3400 H   0  0  0  0  0  0  0  0  0  0  0  0
  -15.6487   26.9151  -21.9570 H   0  0  0  0  0  0  0  0  0  0  0  0
  -17.3389   27.6711  -20.5480 H   0  0  0  0  0  0  0  0  0  0  0  0
 10  1  1  0
  1  9  1  0
  1  2  1  0
  3  2  2  0
  2  4  1  0
  4  5  2  0
  7  5  1  0
  5  6  1  0
  9  7  2  0
  7  8  1  0
 11 10  1  0
 10 15  1  0
 11 12  1  0
 12 13  1  0
 12 14  1  0
 16 14  1  0
 14 15  1  0
 16 17  1  0
  6 18  1  0
  6 19  1  0
  9 20  1  0
 10 21  1  0
 11 22  1  0
 11 23  1  0
 12 24  1  0
 13 25  1  0
 14 26  1  0
 16 27  1  0
 16 28  1  0
 17 29  1  0
A    1
N1
A    2
C2
A    3
O2
A    4
N3
A    5
C4
A    6
N4
A    7
C5
A    8
BR5
A    9
C6
A   10
C1'
A   11
C2'
A   12
C3'
A   13
O3'
A   14
C4'
A   15
O4'
A   16
C5'
A   17
O5'
M  END
