3QGE_26F_B_602
     RDKit          3D

 70 73  0  0  0  0  0  0  0  0999 V2000
   20.1110    6.3040   71.8560 C   0  0  0  0  0  0  0  0  0  0  0  0
   22.4560    6.9050   72.2670 C   0  0  0  0  0  0  0  0  0  0  0  0
   19.7430    7.1120   72.9590 C   0  0  0  0  0  0  0  0  0  0  0  0
   22.0950    7.7130   73.3680 C   0  0  0  0  0  0  0  0  0  0  0  0
   28.0470   -0.0490   73.7180 C   0  0  0  0  0  0  0  0  0  0  0  0
   26.2150    0.5230   75.2260 C   0  0  0  0  0  0  0  0  0  0  0  0
   27.7500    1.0600   72.9110 C   0  0  0  0  0  0  0  0  0  0  0  0
   25.9040    1.6380   74.4210 C   0  0  0  0  0  0  0  0  0  0  0  0
   21.6750    0.0390   69.1390 C   0  0  0  0  0  0  0  0  0  0  0  0
   21.4730    6.2090   71.5110 C   0  0  0  0  0  0  0  0  0  0  0  0
   20.7220    7.8190   73.7340 C   0  0  0  0  0  0  0  0  0  0  0  0
   27.2720   -0.3300   74.8850 C   0  0  0  0  0  0  0  0  0  0  0  0
   26.6700    1.8850   73.2650 C   0  0  0  0  0  0  0  0  0  0  0  0
   23.0510    0.3210   68.9010 C   0  0  0  0  0  0  0  0  0  0  0  0
   20.8520   -0.1760   68.0000 C   0  0  0  0  0  0  0  0  0  0  0  0
   22.6650    0.0870   66.6010 C   0  0  0  0  0  0  0  0  0  0  0  0
   22.6190    3.1050   71.2600 C   0  0  0  0  0  0  0  0  0  0  0  0
   25.3990    0.7810   69.6280 C   0  0  0  0  0  0  0  0  0  0  0  0
   25.6730    2.2760   69.8180 C   0  0  0  0  0  0  0  0  0  0  0  0
   23.7170    0.8060   71.2950 C   0  0  0  0  0  0  0  0  0  0  0  0
   23.8720    2.2970   71.6180 C   0  0  0  0  0  0  0  0  0  0  0  0
   18.8920    8.5770   75.1340 C   0  0  0  0  0  0  0  0  0  0  0  0
   18.6800   -0.6860   67.1000 C   0  0  0  0  0  0  0  0  0  0  0  0
   24.5520    0.4130   65.1710 C   0  0  0  0  0  0  0  0  0  0  0  0
   21.8980    5.3530   70.3460 C   0  0  0  0  0  0  0  0  0  0  0  0
   28.7840   -1.6570   76.0940 C   0  0  0  0  0  0  0  0  0  0  0  0
   23.5150    0.3120   67.6210 N   0  0  0  0  0  0  0  0  0  0  0  0
   21.3490   -0.1580   66.7190 N   0  0  0  0  0  0  0  0  0  0  0  0
   24.0020    0.4390   69.8880 N   0  0  0  0  0  0  0  0  0  0  0  0
   25.1390    2.8310   71.0870 N   0  0  0  0  0  0  0  0  0  0  0  0
   22.8420    4.3420   70.7670 N   0  0  0  0  0  0  0  0  0  0  0  0
   21.5090    2.5860   71.4340 O   0  0  0  0  0  0  0  0  0  0  0  0
   27.5160    3.7210   71.6020 O   0  0  0  0  0  0  0  0  0  0  0  0
   25.5640    4.2130   73.2020 O   0  0  0  0  0  0  0  0  0  0  0  0
   20.2760    8.5760   74.8030 O   0  0  0  0  0  0  0  0  0  0  0  0
   27.4940   -1.3760   75.7410 O   0  0  0  0  0  0  0  0  0  0  0  0
   19.5140   -0.4130   68.2120 O   0  0  0  0  0  0  0  0  0  0  0  0
   23.1580    0.1160   65.3390 O   0  0  0  0  0  0  0  0  0  0  0  0
   29.4960   -0.5260   76.3550 F   0  0  0  0  0  0  0  0  0  0  0  0
   28.8290   -2.4860   77.1580 F   0  0  0  0  0  0  0  0  0  0  0  0
   29.4450   -2.2860   75.0830 F   0  0  0  0  0  0  0  0  0  0  0  0
   26.2760    3.3030   72.2880 S   0  0  0  0  0  0  0  0  0  0  0  0
   19.3476    5.7609   71.2796 H   0  0  0  0  0  0  0  0  0  0  0  0
   23.5164    6.8125   71.9895 H   0  0  0  0  0  0  0  0  0  0  0  0
   18.6801    7.1999   73.2285 H   0  0  0  0  0  0  0  0  0  0  0  0
   22.8654    8.2545   73.9366 H   0  0  0  0  0  0  0  0  0  0  0  0
   28.8851   -0.7088   73.4493 H   0  0  0  0  0  0  0  0  0  0  0  0
   25.6219    0.3213   76.1302 H   0  0  0  0  0  0  0  0  0  0  0  0
   28.3524    1.2792   72.0171 H   0  0  0  0  0  0  0  0  0  0  0  0
   25.0737    2.3065   74.6923 H   0  0  0  0  0  0  0  0  0  0  0  0
   21.2672   -0.0102   70.1594 H   0  0  0  0  0  0  0  0  0  0  0  0
   25.6446    0.5046   68.5920 H   0  0  0  0  0  0  0  0  0  0  0  0
   26.0216    0.2291   70.3476 H   0  0  0  0  0  0  0  0  0  0  0  0
   26.7617    2.4328   69.8029 H   0  0  0  0  0  0  0  0  0  0  0  0
   25.1582    2.8005   68.9996 H   0  0  0  0  0  0  0  0  0  0  0  0
   24.4065    0.2430   71.9413 H   0  0  0  0  0  0  0  0  0  0  0  0
   22.6588    0.5613   71.4691 H   0  0  0  0  0  0  0  0  0  0  0  0
   23.9516    2.4097   72.7093 H   0  0  0  0  0  0  0  0  0  0  0  0
   18.7766    8.5771   76.2279 H   0  0  0  0  0  0  0  0  0  0  0  0
   18.4154    9.4755   74.7150 H   0  0  0  0  0  0  0  0  0  0  0  0
   18.4141    7.6792   74.7150 H   0  0  0  0  0  0  0  0  0  0  0  0
   17.6904   -1.0099   67.4546 H   0  0  0  0  0  0  0  0  0  0  0  0
   18.5716    0.2235   66.4909 H   0  0  0  0  0  0  0  0  0  0  0  0
   19.1304   -1.4836   66.4909 H   0  0  0  0  0  0  0  0  0  0  0  0
   25.0269    0.5142   66.1580 H   0  0  0  0  0  0  0  0  0  0  0  0
   25.0359   -0.4022   64.6131 H   0  0  0  0  0  0  0  0  0  0  0  0
   24.6616    1.3547   64.6131 H   0  0  0  0  0  0  0  0  0  0  0  0
   21.0118    4.8623   69.9172 H   0  0  0  0  0  0  0  0  0  0  0  0
   22.3818    5.9953   69.5954 H   0  0  0  0  0  0  0  0  0  0  0  0
   23.8338    4.6050   70.6773 H   0  0  0  0  0  0  0  0  0  0  0  0
  1  3  2  0
  1 10  1  0
  2  4  1  0
  2 10  2  0
  3 11  1  0
  4 11  2  0
  5  7  2  0
  5 12  1  0
  6  8  1  0
  6 12  2  0
  7 13  1  0
  8 13  2  0
  9 14  2  0
  9 15  1  0
 10 25  1  0
 11 35  1  0
 12 36  1  0
 13 42  1  0
 14 27  1  0
 14 29  1  0
 15 28  2  0
 15 37  1  0
 16 27  2  0
 16 28  1  0
 16 38  1  0
 17 21  1  0
 17 31  1  0
 17 32  2  0
 18 19  1  0
 18 29  1  0
 19 30  1  0
 20 21  1  0
 20 29  1  0
 21 30  1  0
 22 35  1  0
 23 37  1  0
 24 38  1  0
 25 31  1  0
 26 36  1  0
 26 39  1  0
 26 40  1  0
 26 41  1  0
 30 42  1  0
 33 42  2  0
 34 42  2  0
  1 43  1  0
  2 44  1  0
  3 45  1  0
  4 46  1  0
  5 47  1  0
  6 48  1  0
  7 49  1  0
  8 50  1  0
  9 51  1  0
 18 52  1  0
 18 53  1  0
 19 54  1  0
 19 55  1  0
 20 56  1  0
 20 57  1  0
 21 58  1  0
 22 59  1  0
 22 60  1  0
 22 61  1  0
 23 62  1  0
 23 63  1  0
 23 64  1  0
 24 65  1  0
 24 66  1  0
 24 67  1  0
 25 68  1  0
 25 69  1  0
 31 70  1  0
A    1
C1
A    2
C2
A    3
C3
A    4
C4
A    5
C5
A    6
C6
A    7
C7
A    8
C8
A    9
C9
A   10
C10
A   11
C11
A   12
C12
A   13
C13
A   14
C14
A   15
C15
A   16
C16
A   17
C17
A   18
C18
A   19
C19
A   20
C20
A   21
C21
A   22
C22
A   23
C23
A   24
C24
A   25
C25
A   26
C26
A   27
N27
A   28
N28
A   29
N29
A   30
N30
A   31
N31
A   32
O32
A   33
O33
A   34
O34
A   35
O35
A   36
O36
A   37
O37
A   38
O38
A   39
F39
A   40
F40
A   41
F41
A   42
S42
M  END
