3QGF_46F_A_602
     RDKit          3D

 62 65  0  0  0  0  0  0  0  0999 V2000
   23.2580   11.7780   14.1640 C   0  0  0  0  0  0  0  0  0  0  0  0
   23.9810    9.4860   14.2230 C   0  0  0  0  0  0  0  0  0  0  0  0
   24.2140   12.0570   13.1700 C   0  0  0  0  0  0  0  0  0  0  0  0
   24.9460    9.7580   13.2290 C   0  0  0  0  0  0  0  0  0  0  0  0
   15.3100   11.2470   11.2420 C   0  0  0  0  0  0  0  0  0  0  0  0
   14.1580   12.2390   13.1450 C   0  0  0  0  0  0  0  0  0  0  0  0
   16.5320   11.4360   11.8570 C   0  0  0  0  0  0  0  0  0  0  0  0
   15.3760   12.4210   13.7560 C   0  0  0  0  0  0  0  0  0  0  0  0
   18.5700    6.6090   16.7040 C   0  0  0  0  0  0  0  0  0  0  0  0
   18.8900    5.7120   17.7270 C   0  0  0  0  0  0  0  0  0  0  0  0
   23.1270   10.4900   14.7100 C   0  0  0  0  0  0  0  0  0  0  0  0
   25.0660   11.0490   12.6930 C   0  0  0  0  0  0  0  0  0  0  0  0
   14.1300   11.6680   11.8840 C   0  0  0  0  0  0  0  0  0  0  0  0
   16.5320   12.0260   13.1050 C   0  0  0  0  0  0  0  0  0  0  0  0
   17.7990    7.7580   16.9730 C   0  0  0  0  0  0  0  0  0  0  0  0
   18.4490    6.0280   18.9930 C   0  0  0  0  0  0  0  0  0  0  0  0
   19.9950    9.3270   14.7440 C   0  0  0  0  0  0  0  0  0  0  0  0
   16.6740    9.8680   16.5180 C   0  0  0  0  0  0  0  0  0  0  0  0
   17.5750   11.0770   16.3520 C   0  0  0  0  0  0  0  0  0  0  0  0
   17.5770    8.5760   14.6170 C   0  0  0  0  0  0  0  0  0  0  0  0
   18.5750    9.7150   14.3030 C   0  0  0  0  0  0  0  0  0  0  0  0
   26.8810   10.4640   11.2370 C   0  0  0  0  0  0  0  0  0  0  0  0
   22.0930   10.2300   15.7680 C   0  0  0  0  0  0  0  0  0  0  0  0
   12.6840   11.6110   10.0040 C   0  0  0  0  0  0  0  0  0  0  0  0
   17.4260    7.9960   18.2570 N   0  0  0  0  0  0  0  0  0  0  0  0
   17.7350    7.1340   19.2610 N   0  0  0  0  0  0  0  0  0  0  0  0
   17.5170    8.7660   16.0510 N   0  0  0  0  0  0  0  0  0  0  0  0
   18.3140   11.0130   15.0360 N   0  0  0  0  0  0  0  0  0  0  0  0
   20.7280   10.3920   15.2870 N   0  0  0  0  0  0  0  0  0  0  0  0
   20.4380    8.1850   14.6380 O   0  0  0  0  0  0  0  0  0  0  0  0
   19.1150   12.2330   13.0020 O   0  0  0  0  0  0  0  0  0  0  0  0
   17.7540   13.4870   14.7500 O   0  0  0  0  0  0  0  0  0  0  0  0
   25.9590   11.4440   11.7220 O   0  0  0  0  0  0  0  0  0  0  0  0
   12.8550   11.5650   11.4020 O   0  0  0  0  0  0  0  0  0  0  0  0
   13.3960   12.5650    9.4040 F   0  0  0  0  0  0  0  0  0  0  0  0
   11.3880   11.8930    9.7660 F   0  0  0  0  0  0  0  0  0  0  0  0
   13.0750   10.4250    9.5050 F   0  0  0  0  0  0  0  0  0  0  0  0
   18.0240   12.3070   13.9520 S   0  0  0  0  0  0  0  0  0  0  0  0
   18.7200    5.0920   20.3950 Cl  0  0  0  0  0  0  0  0  0  0  0  0
   22.6001   12.5842   14.5207 H   0  0  0  0  0  0  0  0  0  0  0  0
   23.8958    8.4657   14.6251 H   0  0  0  0  0  0  0  0  0  0  0  0
   24.2944   13.0756   12.7626 H   0  0  0  0  0  0  0  0  0  0  0  0
   25.6069    8.9539   12.8731 H   0  0  0  0  0  0  0  0  0  0  0  0
   15.2588   10.7686   10.2528 H   0  0  0  0  0  0  0  0  0  0  0  0
   13.2266   12.5403   13.6467 H   0  0  0  0  0  0  0  0  0  0  0  0
   17.4695   11.1282   11.3709 H   0  0  0  0  0  0  0  0  0  0  0  0
   15.4316   12.8774   14.7553 H   0  0  0  0  0  0  0  0  0  0  0  0
   18.9229    6.4166   15.6801 H   0  0  0  0  0  0  0  0  0  0  0  0
   19.4671    4.7964   17.5302 H   0  0  0  0  0  0  0  0  0  0  0  0
   16.3882    9.7289   17.5711 H   0  0  0  0  0  0  0  0  0  0  0  0
   15.7259    9.9536   15.9669 H   0  0  0  0  0  0  0  0  0  0  0  0
   16.9627   11.9905   16.3787 H   0  0  0  0  0  0  0  0  0  0  0  0
   18.3094   11.0869   17.1709 H   0  0  0  0  0  0  0  0  0  0  0  0
   16.6011    8.7294   14.1332 H   0  0  0  0  0  0  0  0  0  0  0  0
   17.8597    7.5711   14.2701 H   0  0  0  0  0  0  0  0  0  0  0  0
   18.4568    9.8610   13.2192 H   0  0  0  0  0  0  0  0  0  0  0  0
   27.3583    9.9566   12.0883 H   0  0  0  0  0  0  0  0  0  0  0  0
   26.3427    9.7254   10.6248 H   0  0  0  0  0  0  0  0  0  0  0  0
   27.6510   10.9563   10.6248 H   0  0  0  0  0  0  0  0  0  0  0  0
   22.2158    9.1990   16.1312 H   0  0  0  0  0  0  0  0  0  0  0  0
   22.2486   10.9702   16.5666 H   0  0  0  0  0  0  0  0  0  0  0  0
   20.2860   11.3204   15.3477 H   0  0  0  0  0  0  0  0  0  0  0  0
  1  3  2  0
  1 11  1  0
  2  4  1  0
  2 11  2  0
  3 12  1  0
  4 12  2  0
  5  7  2  0
  5 13  1  0
  6  8  1  0
  6 13  2  0
  7 14  1  0
  8 14  2  0
  9 10  2  0
  9 15  1  0
 10 16  1  0
 11 23  1  0
 12 33  1  0
 13 34  1  0
 14 38  1  0
 15 25  2  0
 15 27  1  0
 16 26  2  0
 16 39  1  0
 17 21  1  0
 17 29  1  0
 17 30  2  0
 18 19  1  0
 18 27  1  0
 19 28  1  0
 20 21  1  0
 20 27  1  0
 21 28  1  0
 22 33  1  0
 23 29  1  0
 24 34  1  0
 24 35  1  0
 24 36  1  0
 24 37  1  0
 25 26  1  0
 28 38  1  0
 31 38  2  0
 32 38  2  0
  1 40  1  0
  2 41  1  0
  3 42  1  0
  4 43  1  0
  5 44  1  0
  6 45  1  0
  7 46  1  0
  8 47  1  0
  9 48  1  0
 10 49  1  0
 18 50  1  0
 18 51  1  0
 19 52  1  0
 19 53  1  0
 20 54  1  0
 20 55  1  0
 21 56  1  0
 22 57  1  0
 22 58  1  0
 22 59  1  0
 23 60  1  0
 23 61  1  0
 29 62  1  0
A    1
C1
A    2
C2
A    3
C3
A    4
C4
A    5
C5
A    6
C6
A    7
C7
A    8
C8
A    9
C9
A   10
C10
A   11
C11
A   12
C12
A   13
C13
A   14
C14
A   15
C15
A   16
C16
A   17
C17
A   18
C18
A   19
C19
A   20
C20
A   21
C21
A   22
C22
A   23
C23
A   24
C24
A   25
N25
A   26
N26
A   27
N27
A   28
N28
A   29
N29
A   30
O30
A   31
O31
A   32
O32
A   33
O33
A   34
O34
A   35
F35
A   36
F36
A   37
F37
A   38
S38
A   39
CL39
M  END
