3QGI_33F_A_601
     RDKit          3D

 78 81  0  0  0  0  0  0  0  0999 V2000
    7.5310   33.1940   49.1560 C   0  0  0  0  0  0  0  0  0  0  0  0
    7.8980   34.9890   50.7780 C   0  0  0  0  0  0  0  0  0  0  0  0
    8.7320   32.5750   49.5570 C   0  0  0  0  0  0  0  0  0  0  0  0
    9.0940   34.3620   51.1850 C   0  0  0  0  0  0  0  0  0  0  0  0
    7.3010   43.2080   46.1420 C   0  0  0  0  0  0  0  0  0  0  0  0
    9.3240   41.9060   45.6130 C   0  0  0  0  0  0  0  0  0  0  0  0
    6.9110   42.2410   47.0760 C   0  0  0  0  0  0  0  0  0  0  0  0
    8.9380   40.9270   46.5560 C   0  0  0  0  0  0  0  0  0  0  0  0
    2.9950   35.2350   43.7530 C   0  0  0  0  0  0  0  0  0  0  0  0
    3.9850   36.1710   44.1420 C   0  0  0  0  0  0  0  0  0  0  0  0
    7.1160   34.3970   49.7620 C   0  0  0  0  0  0  0  0  0  0  0  0
    9.5170   33.1580   50.5810 C   0  0  0  0  0  0  0  0  0  0  0  0
    8.5070   43.0550   45.4140 C   0  0  0  0  0  0  0  0  0  0  0  0
    7.7300   41.1050   47.2580 C   0  0  0  0  0  0  0  0  0  0  0  0
    1.6790   35.4210   44.2150 C   0  0  0  0  0  0  0  0  0  0  0  0
    3.5960   37.2480   44.9800 C   0  0  0  0  0  0  0  0  0  0  0  0
    0.6000   34.4460   43.8040 C   0  0  0  0  0  0  0  0  0  0  0  0
    6.3430   36.4050   47.2690 C   0  0  0  0  0  0  0  0  0  0  0  0
    4.1280   39.3180   46.2690 C   0  0  0  0  0  0  0  0  0  0  0  0
    4.6410   39.1550   47.7060 C   0  0  0  0  0  0  0  0  0  0  0  0
    5.9470   38.0460   45.3190 C   0  0  0  0  0  0  0  0  0  0  0  0
    6.5630   37.8280   46.7200 C   0  0  0  0  0  0  0  0  0  0  0  0
   -2.6180   35.8880   42.7910 C   0  0  0  0  0  0  0  0  0  0  0  0
   -1.9830   32.6950   45.0280 C   0  0  0  0  0  0  0  0  0  0  0  0
    5.8360   35.0730   49.3270 C   0  0  0  0  0  0  0  0  0  0  0  0
   -2.9660   34.7910   43.8060 C   0  0  0  0  0  0  0  0  0  0  0  0
   -1.7840   33.8270   44.0070 C   0  0  0  0  0  0  0  0  0  0  0  0
   11.8920   33.1310   50.6510 C   0  0  0  0  0  0  0  0  0  0  0  0
   10.1670   44.2160   44.1000 C   0  0  0  0  0  0  0  0  0  0  0  0
    1.3600   36.4700   45.0160 N   0  0  0  0  0  0  0  0  0  0  0  0
    2.3060   37.3540   45.4070 N   0  0  0  0  0  0  0  0  0  0  0  0
    4.4890   38.1870   45.4090 N   0  0  0  0  0  0  0  0  0  0  0  0
    6.0900   38.8780   47.6640 N   0  0  0  0  0  0  0  0  0  0  0  0
   -0.6130   34.6530   44.3250 N   0  0  0  0  0  0  0  0  0  0  0  0
    6.0730   36.2990   48.5840 N   0  0  0  0  0  0  0  0  0  0  0  0
    0.8420   33.4860   43.0600 O   0  0  0  0  0  0  0  0  0  0  0  0
    6.4210   35.4310   46.5330 O   0  0  0  0  0  0  0  0  0  0  0  0
    6.4820   40.6380   49.4870 O   0  0  0  0  0  0  0  0  0  0  0  0
    8.3880   39.0700   48.7440 O   0  0  0  0  0  0  0  0  0  0  0  0
   10.6960   32.6200   51.0550 O   0  0  0  0  0  0  0  0  0  0  0  0
    8.9020   44.0000   44.4960 O   0  0  0  0  0  0  0  0  0  0  0  0
   12.0020   33.2220   49.3210 F   0  0  0  0  0  0  0  0  0  0  0  0
   12.1350   34.3630   51.1580 F   0  0  0  0  0  0  0  0  0  0  0  0
   12.8770   32.3010   51.0730 F   0  0  0  0  0  0  0  0  0  0  0  0
   11.0330   44.3000   45.1230 F   0  0  0  0  0  0  0  0  0  0  0  0
   10.5740   43.2470   43.2710 F   0  0  0  0  0  0  0  0  0  0  0  0
   10.1830   45.3890   43.4250 F   0  0  0  0  0  0  0  0  0  0  0  0
    7.2190   39.9000   48.4520 S   0  0  0  0  0  0  0  0  0  0  0  0
    6.9154   32.7367   48.3674 H   0  0  0  0  0  0  0  0  0  0  0  0
    7.5773   35.9306   51.2477 H   0  0  0  0  0  0  0  0  0  0  0  0
    9.0586   31.6414   49.0757 H   0  0  0  0  0  0  0  0  0  0  0  0
    9.7032   34.8155   51.9808 H   0  0  0  0  0  0  0  0  0  0  0  0
    6.6679   44.0914   45.9723 H   0  0  0  0  0  0  0  0  0  0  0  0
   10.2516   41.7810   45.0352 H   0  0  0  0  0  0  0  0  0  0  0  0
    5.9849   42.3636   47.6567 H   0  0  0  0  0  0  0  0  0  0  0  0
    9.5681   40.0439   46.7381 H   0  0  0  0  0  0  0  0  0  0  0  0
    3.2492   34.3831   43.1052 H   0  0  0  0  0  0  0  0  0  0  0  0
    5.0264   36.0657   43.8037 H   0  0  0  0  0  0  0  0  0  0  0  0
    3.0318   39.4054   46.2942 H   0  0  0  0  0  0  0  0  0  0  0  0
    4.5977   40.2193   45.8482 H   0  0  0  0  0  0  0  0  0  0  0  0
    4.4576   40.0805   48.2715 H   0  0  0  0  0  0  0  0  0  0  0  0
    4.1153   38.3240   48.1990 H   0  0  0  0  0  0  0  0  0  0  0  0
    6.3713   38.9592   44.8762 H   0  0  0  0  0  0  0  0  0  0  0  0
    6.1796   37.1733   44.6910 H   0  0  0  0  0  0  0  0  0  0  0  0
    7.6534   37.9261   46.6134 H   0  0  0  0  0  0  0  0  0  0  0  0
   -2.3274   36.8040   43.3263 H   0  0  0  0  0  0  0  0  0  0  0  0
   -1.7825   35.5516   42.1596 H   0  0  0  0  0  0  0  0  0  0  0  0
   -3.4947   36.0948   42.1596 H   0  0  0  0  0  0  0  0  0  0  0  0
   -1.9112   33.1034   46.0469 H   0  0  0  0  0  0  0  0  0  0  0  0
   -2.9747   32.2413   44.8838 H   0  0  0  0  0  0  0  0  0  0  0  0
   -1.2055   31.9303   44.8838 H   0  0  0  0  0  0  0  0  0  0  0  0
    5.2708   34.3783   48.6883 H   0  0  0  0  0  0  0  0  0  0  0  0
    5.2755   35.3385   50.2355 H   0  0  0  0  0  0  0  0  0  0  0  0
   -3.2155   35.2592   44.7696 H   0  0  0  0  0  0  0  0  0  0  0  0
   -3.8225   34.2180   43.4212 H   0  0  0  0  0  0  0  0  0  0  0  0
   -1.6593   33.2620   43.0715 H   0  0  0  0  0  0  0  0  0  0  0  0
   -0.7327   35.4343   44.9854 H   0  0  0  0  0  0  0  0  0  0  0  0
    6.0300   37.1783   49.1187 H   0  0  0  0  0  0  0  0  0  0  0  0
  1  3  2  0
  1 11  1  0
  2  4  1  0
  2 11  2  0
  3 12  1  0
  4 12  2  0
  5  7  2  0
  5 13  1  0
  6  8  1  0
  6 13  2  0
  7 14  1  0
  8 14  2  0
  9 10  2  0
  9 15  1  0
 10 16  1  0
 11 25  1  0
 12 40  1  0
 13 41  1  0
 14 48  1  0
 15 17  1  0
 15 30  2  0
 16 31  2  0
 16 32  1  0
 17 34  1  0
 17 36  2  0
 18 22  1  0
 18 35  1  0
 18 37  2  0
 19 20  1  0
 19 32  1  0
 20 33  1  0
 21 22  1  0
 21 32  1  0
 22 33  1  0
 23 26  1  0
 24 27  1  0
 25 35  1  0
 26 27  1  0
 27 34  1  0
 28 40  1  0
 28 42  1  0
 28 43  1  0
 28 44  1  0
 29 41  1  0
 29 45  1  0
 29 46  1  0
 29 47  1  0
 30 31  1  0
 33 48  1  0
 38 48  2  0
 39 48  2  0
  1 49  1  0
  2 50  1  0
  3 51  1  0
  4 52  1  0
  5 53  1  0
  6 54  1  0
  7 55  1  0
  8 56  1  0
  9 57  1  0
 10 58  1  0
 19 59  1  0
 19 60  1  0
 20 61  1  0
 20 62  1  0
 21 63  1  0
 21 64  1  0
 22 65  1  0
 23 66  1  0
 23 67  1  0
 23 68  1  0
 24 69  1  0
 24 70  1  0
 24 71  1  0
 25 72  1  0
 25 73  1  0
 26 74  1  0
 26 75  1  0
 27 76  1  0
 34 77  1  0
 35 78  1  0
A    1
C1
A    2
C2
A    3
C3
A    4
C4
A    5
C5
A    6
C6
A    7
C7
A    8
C8
A    9
C9
A   10
C10
A   11
C11
A   12
C12
A   13
C13
A   14
C14
A   15
C15
A   16
C16
A   17
C17
A   18
C18
A   19
C19
A   20
C20
A   21
C21
A   22
C22
A   23
C23
A   24
C24
A   25
C25
A   26
C26
A   27
C27
A   28
C28
A   29
C29
A   30
N30
A   31
N31
A   32
N32
A   33
N33
A   34
N34
A   35
N35
A   36
O36
A   37
O37
A   38
O38
A   39
O39
A   40
O40
A   41
O41
A   42
F42
A   43
F43
A   44
F44
A   45
F45
A   46
F46
A   47
F47
A   48
S48
M  END
