3QGW_PQC_A_1
     RDKit          3D

 46 50  0  0  0  0  0  0  0  0999 V2000
   18.8490   -7.5860    4.2720 C   0  0  0  0  0  0  0  0  0  0  0  0
   19.8190   -6.9010    3.1530 C   0  0  0  0  0  0  0  0  0  0  0  0
   19.5720   -8.6200    5.1960 C   0  0  0  0  0  0  0  0  0  0  0  0
   20.9820   -8.9790    5.0870 C   0  0  0  0  0  0  0  0  0  0  0  0
   21.4400   -9.9420    6.0650 C   0  0  0  0  0  0  0  0  0  0  0  0
   18.8820   -9.5270    6.5250 S   0  0  0  0  0  0  0  0  0  0  0  0
   20.3380  -10.3160    6.9340 C   0  0  0  0  0  0  0  0  0  0  0  0
   20.4560  -11.2310    8.0670 C   0  0  0  0  0  0  0  0  0  0  0  0
   19.3000  -11.3780    8.9430 C   0  0  0  0  0  0  0  0  0  0  0  0
   21.7010  -11.9280    8.3680 C   0  0  0  0  0  0  0  0  0  0  0  0
   21.7390  -12.7410    9.5550 C   0  0  0  0  0  0  0  0  0  0  0  0
   20.5780  -12.8790   10.4320 C   0  0  0  0  0  0  0  0  0  0  0  0
   21.8740   -8.4480    4.0400 C   0  0  0  0  0  0  0  0  0  0  0  0
   21.2820   -7.4620    3.0170 C   0  0  0  0  0  0  0  0  0  0  0  0
   22.1230   -7.0780    2.0190 C   0  0  0  0  0  0  0  0  0  0  0  0
   23.4220   -7.5040    1.9140 N   0  0  0  0  0  0  0  0  0  0  0  0
   23.2850   -8.8790    3.9090 N   0  0  0  0  0  0  0  0  0  0  0  0
   24.0030   -8.3830    2.8240 C   0  0  0  0  0  0  0  0  0  0  0  0
   25.3680   -8.6950    2.6960 N   0  0  0  0  0  0  0  0  0  0  0  0
   26.0160   -9.7650    3.4740 C   0  0  0  0  0  0  0  0  0  0  0  0
   25.5840  -10.2750    4.8070 C   0  0  0  0  0  0  0  0  0  0  0  0
   27.3010  -10.2600    3.0330 C   0  0  0  0  0  0  0  0  0  0  0  0
   28.2100  -11.1700    3.6630 C   0  0  0  0  0  0  0  0  0  0  0  0
   27.7580  -11.6380    4.9230 C   0  0  0  0  0  0  0  0  0  0  0  0
   26.4490  -11.2300    5.5480 C   0  0  0  0  0  0  0  0  0  0  0  0
   26.0650  -11.8560    7.1860 S   0  0  0  0  0  0  0  0  0  0  0  0
   27.3550  -12.4570    7.7800 O   0  0  0  0  0  0  0  0  0  0  0  0
   24.8070  -12.4580    7.1500 O   0  0  0  0  0  0  0  0  0  0  0  0
   25.6990  -10.3520    8.1870 N   0  0  0  0  0  0  0  0  0  0  0  0
   19.3620  -12.1790   10.1070 C   0  0  0  0  0  0  0  0  0  0  0  0
   17.7807   -7.3420    4.3680 H   0  0  0  0  0  0  0  0  0  0  0  0
   19.4628   -6.0771    2.5171 H   0  0  0  0  0  0  0  0  0  0  0  0
   22.4661  -10.3314    6.1390 H   0  0  0  0  0  0  0  0  0  0  0  0
   18.3636  -10.8571    8.6944 H   0  0  0  0  0  0  0  0  0  0  0  0
   22.5790  -11.8358    7.7118 H   0  0  0  0  0  0  0  0  0  0  0  0
   22.6675  -13.2732    9.8092 H   0  0  0  0  0  0  0  0  0  0  0  0
   20.6324  -13.5108   11.3308 H   0  0  0  0  0  0  0  0  0  0  0  0
   21.7395   -6.3873    1.2536 H   0  0  0  0  0  0  0  0  0  0  0  0
   25.9382   -8.1532    2.0310 H   0  0  0  0  0  0  0  0  0  0  0  0
   24.6282   -9.9455    5.2405 H   0  0  0  0  0  0  0  0  0  0  0  0
   27.6337   -9.8762    2.0573 H   0  0  0  0  0  0  0  0  0  0  0  0
   29.1660  -11.4762    3.2131 H   0  0  0  0  0  0  0  0  0  0  0  0
   28.4000  -12.3394    5.4761 H   0  0  0  0  0  0  0  0  0  0  0  0
   25.7555  -10.5843    9.1889 H   0  0  0  0  0  0  0  0  0  0  0  0
   26.3856   -9.6168    7.9657 H   0  0  0  0  0  0  0  0  0  0  0  0
   18.4832  -12.2672   10.7628 H   0  0  0  0  0  0  0  0  0  0  0  0
  1  2  2  0
  1  3  1  0
  2 14  1  0
  3  4  2  0
  3  6  1  0
  4  5  1  0
  4 13  1  0
  5  7  2  0
  6  7  1  0
  7  8  1  0
  8  9  2  0
  8 10  1  0
  9 30  1  0
 10 11  2  0
 11 12  1  0
 12 30  2  0
 13 14  2  0
 13 17  1  0
 14 15  1  0
 15 16  2  0
 16 18  1  0
 17 18  2  0
 18 19  1  0
 19 20  1  0
 20 21  2  0
 20 22  1  0
 21 25  1  0
 22 23  2  0
 23 24  1  0
 24 25  2  0
 25 26  1  0
 26 27  2  0
 26 28  2  0
 26 29  1  0
  1 31  1  0
  2 32  1  0
  5 33  1  0
  9 34  1  0
 10 35  1  0
 11 36  1  0
 12 37  1  0
 15 38  1  0
 19 39  1  0
 21 40  1  0
 22 41  1  0
 23 42  1  0
 24 43  1  0
 29 44  1  0
 29 45  1  0
 30 46  1  0
A    1
C1
A    2
C2
A    3
C3
A    4
C4
A    5
C5
A    6
S6
A    7
C7
A    8
C8
A    9
C9
A   10
C10
A   11
C11
A   12
C12
A   13
C13
A   14
C14
A   15
C15
A   16
N16
A   17
N17
A   18
C18
A   19
N19
A   20
C20
A   21
C21
A   22
C22
A   23
C23
A   24
C24
A   25
C25
A   26
S26
A   27
O27
A   28
O28
A   29
N29
A   30
C30
M  END
