3QGW_L7A_B_1
     RDKit          3D

 35 37  0  0  0  0  0  0  0  0999 V2000
   34.3620   50.8050   14.6030 C   0  0  0  0  0  0  0  0  0  0  0  0
   43.1850   52.1670   13.4250 N   0  0  0  0  0  0  0  0  0  0  0  0
   36.0470   48.7250   10.5880 O   0  0  0  0  0  0  0  0  0  0  0  0
   34.2000   51.5540   15.8710 C   0  0  0  0  0  0  0  0  0  0  0  0
   35.8810   50.0640   12.9120 N   0  0  0  0  0  0  0  0  0  0  0  0
   36.6430   51.4450   14.6700 O   0  0  0  0  0  0  0  0  0  0  0  0
   32.8650   51.6010   16.4970 C   0  0  0  0  0  0  0  0  0  0  0  0
   38.3170   48.9990   10.2600 N   0  0  0  0  0  0  0  0  0  0  0  0
   31.7140   50.9270   15.8440 C   0  0  0  0  0  0  0  0  0  0  0  0
   31.8710   50.2000   14.5630 C   0  0  0  0  0  0  0  0  0  0  0  0
   33.1990   50.1200   13.9350 C   0  0  0  0  0  0  0  0  0  0  0  0
   35.7760   50.8160   14.0640 C   0  0  0  0  0  0  0  0  0  0  0  0
   39.5590   49.5830   10.6660 C   0  0  0  0  0  0  0  0  0  0  0  0
   39.4920   50.3340   11.9270 C   0  0  0  0  0  0  0  0  0  0  0  0
   38.2560   50.5210   12.7100 C   0  0  0  0  0  0  0  0  0  0  0  0
   37.0710   49.9500   12.2630 C   0  0  0  0  0  0  0  0  0  0  0  0
   37.0940   49.1770   10.9950 C   0  0  0  0  0  0  0  0  0  0  0  0
   41.9380   52.7170   13.9240 C   0  0  0  0  0  0  0  0  0  0  0  0
   43.3610   51.1020   12.4820 C   0  0  0  0  0  0  0  0  0  0  0  0
   42.1480   50.5060   11.9680 C   0  0  0  0  0  0  0  0  0  0  0  0
   40.7840   51.0280   12.4450 C   0  0  0  0  0  0  0  0  0  0  0  0
   40.6940   52.1460   13.4350 C   0  0  0  0  0  0  0  0  0  0  0  0
   35.0567   52.0641   16.3356 H   0  0  0  0  0  0  0  0  0  0  0  0
   35.0494   49.5838   12.5395 H   0  0  0  0  0  0  0  0  0  0  0  0
   32.7221   52.1354   17.4478 H   0  0  0  0  0  0  0  0  0  0  0  0
   38.2984   48.4263    9.4041 H   0  0  0  0  0  0  0  0  0  0  0  0
   30.7240   50.9685   16.3217 H   0  0  0  0  0  0  0  0  0  0  0  0
   31.0020   49.7240   14.0853 H   0  0  0  0  0  0  0  0  0  0  0  0
   33.3401   49.5691   12.9934 H   0  0  0  0  0  0  0  0  0  0  0  0
   40.4859   49.4784   10.0829 H   0  0  0  0  0  0  0  0  0  0  0  0
   38.2724   51.1078   13.6403 H   0  0  0  0  0  0  0  0  0  0  0  0
   41.9344   53.5422   14.6513 H   0  0  0  0  0  0  0  0  0  0  0  0
   44.3580   50.7590   12.1685 H   0  0  0  0  0  0  0  0  0  0  0  0
   42.2015   49.6835   11.2396 H   0  0  0  0  0  0  0  0  0  0  0  0
   39.7202   52.5228   13.7809 H   0  0  0  0  0  0  0  0  0  0  0  0
  1  4  2  0
  1 11  1  0
  1 12  1  0
  2 18  2  0
  2 19  1  0
  3 17  2  0
  4  7  1  0
  5 12  1  0
  5 16  1  0
  6 12  2  0
  7  9  2  0
  8 13  1  0
  8 17  1  0
  9 10  1  0
 10 11  2  0
 13 14  2  0
 14 15  1  0
 14 21  1  0
 15 16  2  0
 16 17  1  0
 18 22  1  0
 19 20  2  0
 20 21  1  0
 21 22  2  0
  4 23  1  0
  5 24  1  0
  7 25  1  0
  8 26  1  0
  9 27  1  0
 10 28  1  0
 11 29  1  0
 13 30  1  0
 15 31  1  0
 18 32  1  0
 19 33  1  0
 20 34  1  0
 22 35  1  0
A    1
C1
A    2
N1
A    3
O1
A    4
C2
A    5
N2
A    6
O2
A    7
C3
A    8
N3
A    9
C4
A   10
C5
A   11
C6
A   12
C7
A   13
C8
A   14
C9
A   15
C10
A   16
C11
A   17
C12
A   18
C13
A   19
C14
A   20
C15
A   21
C16
A   22
C17
M  END
