3QGY_L7O_B_1
     RDKit          3D

 54 57  0  0  0  0  0  0  0  0999 V2000
   28.9280   50.9070   14.3010 C   0  0  0  0  0  0  0  0  0  0  0  0
   29.7500   50.1450   15.2900 N   0  0  0  0  0  0  0  0  0  0  0  0
   36.2040   48.6490   10.6270 O   0  0  0  0  0  0  0  0  0  0  0  0
   27.4810   51.0710   14.8760 C   0  0  0  0  0  0  0  0  0  0  0  0
   35.6400   50.0070   12.7670 N   0  0  0  0  0  0  0  0  0  0  0  0
   36.1370   51.1290   14.6900 O   0  0  0  0  0  0  0  0  0  0  0  0
   26.8510   49.6880   15.2270 C   0  0  0  0  0  0  0  0  0  0  0  0
   38.4500   49.0740   10.4480 N   0  0  0  0  0  0  0  0  0  0  0  0
   27.8020   48.8470   16.1290 C   0  0  0  0  0  0  0  0  0  0  0  0
   44.2690   50.7900   12.4940 N   0  0  0  0  0  0  0  0  0  0  0  0
   29.2330   48.7670   15.5270 C   0  0  0  0  0  0  0  0  0  0  0  0
   42.9310   52.3110   13.7590 N   0  0  0  0  0  0  0  0  0  0  0  0
   33.0410   49.6470   13.5030 C   0  0  0  0  0  0  0  0  0  0  0  0
   41.8530   50.7300   12.3360 N   0  0  0  0  0  0  0  0  0  0  0  0
   35.3220   50.5510   13.9620 C   0  0  0  0  0  0  0  0  0  0  0  0
   39.5870   49.6970   10.9450 C   0  0  0  0  0  0  0  0  0  0  0  0
   39.4750   50.5290   12.1670 C   0  0  0  0  0  0  0  0  0  0  0  0
   38.1590   50.7150   12.7990 C   0  0  0  0  0  0  0  0  0  0  0  0
   37.0070   50.0000   12.2520 C   0  0  0  0  0  0  0  0  0  0  0  0
   37.2230   49.1940   11.0400 C   0  0  0  0  0  0  0  0  0  0  0  0
   41.7330   52.8320   14.1500 C   0  0  0  0  0  0  0  0  0  0  0  0
   42.9860   51.2870   12.8540 C   0  0  0  0  0  0  0  0  0  0  0  0
   40.6300   51.2290   12.7180 C   0  0  0  0  0  0  0  0  0  0  0  0
   40.5230   52.3080   13.6560 C   0  0  0  0  0  0  0  0  0  0  0  0
   33.9200   50.3960   14.3420 C   0  0  0  0  0  0  0  0  0  0  0  0
   33.3970   51.1000   15.4890 C   0  0  0  0  0  0  0  0  0  0  0  0
   32.0190   50.9810   15.8330 C   0  0  0  0  0  0  0  0  0  0  0  0
   31.1340   50.2320   14.9820 C   0  0  0  0  0  0  0  0  0  0  0  0
   31.6660   49.5270   13.8440 C   0  0  0  0  0  0  0  0  0  0  0  0
   44.2430   49.8080   11.3950 C   0  0  0  0  0  0  0  0  0  0  0  0
   29.3747   51.8981   14.1331 H   0  0  0  0  0  0  0  0  0  0  0  0
   28.8933   50.3654   13.3442 H   0  0  0  0  0  0  0  0  0  0  0  0
   27.5248   51.6864   15.7867 H   0  0  0  0  0  0  0  0  0  0  0  0
   26.8556   51.5534   14.1104 H   0  0  0  0  0  0  0  0  0  0  0  0
   34.8927   49.5825   12.1994 H   0  0  0  0  0  0  0  0  0  0  0  0
   25.9025   49.8509   15.7598 H   0  0  0  0  0  0  0  0  0  0  0  0
   26.6810   49.1357   14.2910 H   0  0  0  0  0  0  0  0  0  0  0  0
   38.5341   48.4977    9.5985 H   0  0  0  0  0  0  0  0  0  0  0  0
   27.8578   49.3142   17.1233 H   0  0  0  0  0  0  0  0  0  0  0  0
   27.3988   47.8259   16.1989 H   0  0  0  0  0  0  0  0  0  0  0  0
   45.1379   51.0892   12.9592 H   0  0  0  0  0  0  0  0  0  0  0  0
   29.1997   48.2189   14.5739 H   0  0  0  0  0  0  0  0  0  0  0  0
   29.8973   48.2418   16.2290 H   0  0  0  0  0  0  0  0  0  0  0  0
   33.4270   49.1632   12.5937 H   0  0  0  0  0  0  0  0  0  0  0  0
   40.5564   49.5751   10.4396 H   0  0  0  0  0  0  0  0  0  0  0  0
   38.0441   51.3802   13.6675 H   0  0  0  0  0  0  0  0  0  0  0  0
   41.7116   53.6719   14.8600 H   0  0  0  0  0  0  0  0  0  0  0  0
   39.5475   52.7054   13.9729 H   0  0  0  0  0  0  0  0  0  0  0  0
   34.0629   51.7290   16.0981 H   0  0  0  0  0  0  0  0  0  0  0  0
   31.6341   51.4599   16.7454 H   0  0  0  0  0  0  0  0  0  0  0  0
   31.0049   48.8924   13.2356 H   0  0  0  0  0  0  0  0  0  0  0  0
   44.2161   48.7908   11.8128 H   0  0  0  0  0  0  0  0  0  0  0  0
   43.3489   49.9740   10.7760 H   0  0  0  0  0  0  0  0  0  0  0  0
   45.1446   49.9264   10.7760 H   0  0  0  0  0  0  0  0  0  0  0  0
  1  2  1  0
  1  4  1  0
  2 11  1  0
  2 28  1  0
  3 20  2  0
  4  7  1  0
  5 15  1  0
  5 19  1  0
  6 15  2  0
  7  9  1  0
  8 16  1  0
  8 20  1  0
  9 11  1  0
 10 22  1  0
 10 30  1  0
 12 21  2  0
 12 22  1  0
 13 25  2  0
 13 29  1  0
 14 22  2  0
 14 23  1  0
 15 25  1  0
 16 17  2  0
 17 18  1  0
 17 23  1  0
 18 19  2  0
 19 20  1  0
 21 24  1  0
 23 24  2  0
 25 26  1  0
 26 27  2  0
 27 28  1  0
 28 29  2  0
  1 31  1  0
  1 32  1  0
  4 33  1  0
  4 34  1  0
  5 35  1  0
  7 36  1  0
  7 37  1  0
  8 38  1  0
  9 39  1  0
  9 40  1  0
 10 41  1  0
 11 42  1  0
 11 43  1  0
 13 44  1  0
 16 45  1  0
 18 46  1  0
 21 47  1  0
 24 48  1  0
 26 49  1  0
 27 50  1  0
 29 51  1  0
 30 52  1  0
 30 53  1  0
 30 54  1  0
A    1
C1
A    2
N1
A    3
O1
A    4
C2
A    5
N2
A    6
O2
A    7
C3
A    8
N3
A    9
C4
A   10
N4
A   11
C5
A   12
N5
A   13
C6
A   14
N6
A   15
C7
A   16
C8
A   17
C9
A   18
C10
A   19
C11
A   20
C12
A   21
C13
A   22
C14
A   23
C15
A   24
C16
A   25
C17
A   26
C18
A   27
C19
A   28
C20
A   29
C21
A   30
C22
M  END
