3QH1_NX6_A_999
     RDKit          3D

 32 32  0  0  0  0  0  0  0  0999 V2000
  -10.8120  -38.5290   -6.0220 C   0  0  0  0  0  0  0  0  0  0  0  0
  -11.3650  -40.1740   -4.3090 N   0  0  0  0  0  0  0  0  0  0  0  0
   -9.9960  -38.1670   -6.8480 O   0  0  0  0  0  0  0  0  0  0  0  0
  -10.5580  -40.3420   -3.2980 C   0  0  0  0  0  0  0  0  0  0  0  0
   -9.3430  -40.4260   -3.3090 O   0  0  0  0  0  0  0  0  0  0  0  0
  -10.6310  -40.1150   -0.8170 C   0  0  0  0  0  0  0  0  0  0  0  0
  -11.3150  -40.4050   -2.1100 O   0  0  0  0  0  0  0  0  0  0  0  0
   -9.9790  -38.7370   -0.7850 C   0  0  0  0  0  0  0  0  0  0  0  0
   -8.9620  -38.4950    0.0990 C   0  0  0  0  0  0  0  0  0  0  0  0
   -8.3120  -37.2600    0.1380 C   0  0  0  0  0  0  0  0  0  0  0  0
   -8.7470  -36.2620   -0.7090 C   0  0  0  0  0  0  0  0  0  0  0  0
   -9.7920  -36.4960   -1.5890 C   0  0  0  0  0  0  0  0  0  0  0  0
  -10.4120  -37.7350   -1.6270 C   0  0  0  0  0  0  0  0  0  0  0  0
  -10.8810  -39.9860   -5.6450 C   0  0  0  0  0  0  0  0  0  0  0  0
  -11.8260  -40.6590   -6.6040 C   0  0  0  0  0  0  0  0  0  0  0  0
  -11.5730  -42.1700   -6.7390 C   0  0  0  0  0  0  0  0  0  0  0  0
  -10.3840  -42.6750   -6.6730 O   0  0  0  0  0  0  0  0  0  0  0  0
  -12.6590  -42.8280   -6.9360 O   0  0  0  0  0  0  0  0  0  0  0  0
  -11.5510  -37.6890   -5.4870 O   0  0  0  0  0  0  0  0  0  0  0  0
  -12.3814  -40.1765   -4.1421 H   0  0  0  0  0  0  0  0  0  0  0  0
  -11.3735  -40.1706   -0.0073 H   0  0  0  0  0  0  0  0  0  0  0  0
   -9.8319  -40.8606   -0.6925 H   0  0  0  0  0  0  0  0  0  0  0  0
   -8.6506  -39.2898    0.7927 H   0  0  0  0  0  0  0  0  0  0  0  0
   -7.4729  -37.0869    0.8278 H   0  0  0  0  0  0  0  0  0  0  0  0
   -8.2619  -35.2750   -0.6860 H   0  0  0  0  0  0  0  0  0  0  0  0
  -10.1312  -35.6939   -2.2610 H   0  0  0  0  0  0  0  0  0  0  0  0
  -11.2434  -37.9175   -2.3238 H   0  0  0  0  0  0  0  0  0  0  0  0
   -9.8688  -40.4139   -5.6942 H   0  0  0  0  0  0  0  0  0  0  0  0
  -12.8551  -40.5068   -6.2464 H   0  0  0  0  0  0  0  0  0  0  0  0
  -11.6638  -40.2092   -7.5947 H   0  0  0  0  0  0  0  0  0  0  0  0
   -9.9693  -42.8512   -5.7915 H   0  0  0  0  0  0  0  0  0  0  0  0
  -11.6017  -37.6314   -4.5000 H   0  0  0  0  0  0  0  0  0  0  0  0
  3  1  2  0
  1 14  1  0
  1 19  1  0
 14  2  1  0
  2  4  1  0
  5  4  2  0
  4  7  1  0
  7  6  1  0
  6  8  1  0
 13  8  2  0
  8  9  1  0
  9 10  2  0
 11 10  1  0
 12 11  2  0
 13 12  1  0
 15 14  1  0
 16 15  1  0
 18 16  2  0
 16 17  1  0
  2 20  1  0
  6 21  1  0
  6 22  1  0
  9 23  1  0
 10 24  1  0
 11 25  1  0
 12 26  1  0
 13 27  1  0
 14 28  1  0
 15 29  1  0
 15 30  1  0
 17 31  1  0
 19 32  1  0
A    1
C
A    2
N
A    3
O
A    4
C1
A    5
O1
A    6
C2
A    7
O2
A    8
C3
A    9
C4
A   10
C5
A   11
C6
A   12
C7
A   13
C8
A   14
CA
A   15
CB
A   16
CG
A   17
OD1
A   18
OD2
A   19
OXT
M  END
