1UEJ_CTN_A_301
     RDKit          3D

 30 31  0  0  0  0  0  0  0  0999 V2000
   12.1490   38.7200   31.9590 O   0  0  0  0  0  0  0  0  0  0  0  0
   12.3660   37.3640   31.7250 C   0  0  0  0  0  0  0  0  0  0  0  0
   12.4370   36.5980   32.9950 C   0  0  0  0  0  0  0  0  0  0  0  0
   11.4450   36.8890   33.9880 O   0  0  0  0  0  0  0  0  0  0  0  0
   11.2000   35.7270   34.6890 C   0  0  0  0  0  0  0  0  0  0  0  0
    9.9230   35.8820   35.4220 N   0  0  0  0  0  0  0  0  0  0  0  0
    8.7630   36.3050   34.7680 C   0  0  0  0  0  0  0  0  0  0  0  0
    7.5300   36.4740   35.3930 C   0  0  0  0  0  0  0  0  0  0  0  0
    7.5120   36.1870   36.7740 C   0  0  0  0  0  0  0  0  0  0  0  0
    8.6610   35.7640   37.4550 N   0  0  0  0  0  0  0  0  0  0  0  0
    9.8310   35.6200   36.7860 C   0  0  0  0  0  0  0  0  0  0  0  0
   10.8080   35.2360   37.4740 O   0  0  0  0  0  0  0  0  0  0  0  0
    6.3900   36.3090   37.4840 N   0  0  0  0  0  0  0  0  0  0  0  0
   11.1710   34.6280   33.6380 C   0  0  0  0  0  0  0  0  0  0  0  0
   11.6000   33.3820   34.1820 O   0  0  0  0  0  0  0  0  0  0  0  0
   12.0440   35.1960   32.5290 C   0  0  0  0  0  0  0  0  0  0  0  0
   13.2790   34.5380   32.3640 O   0  0  0  0  0  0  0  0  0  0  0  0
   12.1224   38.8864   32.9346 H   0  0  0  0  0  0  0  0  0  0  0  0
   11.5397   36.9696   31.1153 H   0  0  0  0  0  0  0  0  0  0  0  0
   13.3266   37.2533   31.2006 H   0  0  0  0  0  0  0  0  0  0  0  0
   13.4172   36.7929   33.4546 H   0  0  0  0  0  0  0  0  0  0  0  0
   11.9585   35.4848   35.4479 H   0  0  0  0  0  0  0  0  0  0  0  0
    8.8278   36.5181   33.6908 H   0  0  0  0  0  0  0  0  0  0  0  0
    6.6342   36.8075   34.8487 H   0  0  0  0  0  0  0  0  0  0  0  0
    6.4288   36.3048   38.5133 H   0  0  0  0  0  0  0  0  0  0  0  0
    5.4844   36.4075   37.0032 H   0  0  0  0  0  0  0  0  0  0  0  0
   10.1708   34.3796   33.2534 H   0  0  0  0  0  0  0  0  0  0  0  0
   11.5834   33.4303   35.1707 H   0  0  0  0  0  0  0  0  0  0  0  0
   11.4722   35.1176   31.5926 H   0  0  0  0  0  0  0  0  0  0  0  0
   13.6647   34.3325   33.2523 H   0  0  0  0  0  0  0  0  0  0  0  0
  1  2  1  0
  2  3  1  0
  3  4  1  0
  3 16  1  0
  4  5  1  0
  5  6  1  0
  5 14  1  0
  6  7  1  0
  6 11  1  0
  7  8  2  0
  8  9  1  0
  9 10  2  0
  9 13  1  0
 10 11  1  0
 11 12  2  0
 14 15  1  0
 14 16  1  0
 16 17  1  0
  1 18  1  0
  2 19  1  0
  2 20  1  0
  3 21  1  0
  5 22  1  0
  7 23  1  0
  8 24  1  0
 13 25  1  0
 13 26  1  0
 14 27  1  0
 15 28  1  0
 16 29  1  0
 17 30  1  0
A    1
O5'
A    2
C5'
A    3
C4'
A    4
O4'
A    5
C1'
A    6
N1
A    7
C6
A    8
C5
A    9
C4
A   10
N3
A   11
C2
A   12
O2
A   13
N4
A   14
C2'
A   15
O2'
A   16
C3'
A   17
O3'
M  END
