3K3E_PDB_A_600
     RDKit          3D

 36 38  0  0  0  0  0  0  0  0999 V2000
   78.3700   49.9710   39.6290 C   0  0  0  0  0  0  0  0  0  0  0  0
   78.9880   49.8850   38.3870 C   0  0  0  0  0  0  0  0  0  0  0  0
   80.2390   50.4610   38.1910 C   0  0  0  0  0  0  0  0  0  0  0  0
   80.8690   51.1250   39.2370 C   0  0  0  0  0  0  0  0  0  0  0  0
   75.4250   55.1560   42.9860 F   0  0  0  0  0  0  0  0  0  0  0  0
   80.2490   51.2110   40.4790 C   0  0  0  0  0  0  0  0  0  0  0  0
   73.9320   56.3570   41.8900 F   0  0  0  0  0  0  0  0  0  0  0  0
   79.0010   50.6320   40.6780 C   0  0  0  0  0  0  0  0  0  0  0  0
   76.1010   56.5990   41.4460 F   0  0  0  0  0  0  0  0  0  0  0  0
   78.4320   50.6800   41.9010 N   0  0  0  0  0  0  0  0  0  0  0  0
   78.9090   50.1450   42.9300 N   0  0  0  0  0  0  0  0  0  0  0  0
   78.1320   50.3760   44.0100 C   0  0  0  0  0  0  0  0  0  0  0  0
   77.2810   51.3190   42.2040 C   0  0  0  0  0  0  0  0  0  0  0  0
   77.0620   51.1420   43.5640 C   0  0  0  0  0  0  0  0  0  0  0  0
   76.3850   52.0320   41.4690 N   0  0  0  0  0  0  0  0  0  0  0  0
   75.2780   52.5690   42.0510 C   0  0  0  0  0  0  0  0  0  0  0  0
   75.0460   52.4060   43.3820 N   0  0  0  0  0  0  0  0  0  0  0  0
   75.9360   51.6940   44.1580 C   0  0  0  0  0  0  0  0  0  0  0  0
   75.7350   51.5710   45.3670 O   0  0  0  0  0  0  0  0  0  0  0  0
   74.3060   53.3950   41.2230 C   0  0  0  0  0  0  0  0  0  0  0  0
   75.0360   54.6340   40.6990 C   0  0  0  0  0  0  0  0  0  0  0  0
   74.3100   55.1790   39.4670 C   0  0  0  0  0  0  0  0  0  0  0  0
   75.1250   55.7140   41.7830 C   0  0  0  0  0  0  0  0  0  0  0  0
   76.8210   49.2570   39.8590 Cl  0  0  0  0  0  0  0  0  0  0  0  0
   78.4878   49.3614   37.5589 H   0  0  0  0  0  0  0  0  0  0  0  0
   80.7293   50.3910   37.2088 H   0  0  0  0  0  0  0  0  0  0  0  0
   81.8575   51.5823   39.0826 H   0  0  0  0  0  0  0  0  0  0  0  0
   80.7474   51.7384   41.3057 H   0  0  0  0  0  0  0  0  0  0  0  0
   78.3106   50.0273   45.0379 H   0  0  0  0  0  0  0  0  0  0  0  0
   76.5463   52.1669   40.4607 H   0  0  0  0  0  0  0  0  0  0  0  0
   73.4560   53.7036   41.8492 H   0  0  0  0  0  0  0  0  0  0  0  0
   73.9306   52.7970   40.3795 H   0  0  0  0  0  0  0  0  0  0  0  0
   76.0600   54.3460   40.4187 H   0  0  0  0  0  0  0  0  0  0  0  0
   73.4683   55.8108   39.7870 H   0  0  0  0  0  0  0  0  0  0  0  0
   75.0091   55.7772   38.8642 H   0  0  0  0  0  0  0  0  0  0  0  0
   73.9307   54.3407   38.8642 H   0  0  0  0  0  0  0  0  0  0  0  0
  3  2  1  0
  3  4  2  0
  2  1  2  0
  4  6  1  0
 22 21  1  0
  1 24  1  0
  1  8  1  0
  6  8  2  0
  8 10  1  0
 21 20  1  0
 21 23  1  0
 20 16  1  0
  9 23  1  0
 15 16  1  0
 15 13  1  0
 23  7  1  0
 23  5  1  0
 10 13  1  0
 10 11  1  0
 16 17  2  0
 13 14  2  0
 11 12  2  0
 17 18  1  0
 14 12  1  0
 14 18  1  0
 18 19  2  0
  2 25  1  0
  3 26  1  0
  4 27  1  0
  6 28  1  0
 12 29  1  0
 15 30  1  0
 20 31  1  0
 20 32  1  0
 21 33  1  0
 22 34  1  0
 22 35  1  0
 22 36  1  0
A    1
C2
A    2
C3
A    3
C4
A    4
C5
A    5
F5
A    6
C6
A    7
F6
A    8
C7
A    9
F7
A   10
N8
A   11
N9
A   12
C10
A   13
C11
A   14
C12
A   15
N13
A   16
C14
A   17
N15
A   18
C16
A   19
O17
A   20
C18
A   21
C19
A   22
C20
A   23
C21
A   24
CL1
M  END
