3QIH_NI7_B_100
     RDKit          3D

 48 51  0  0  0  0  0  0  0  0999 V2000
  -15.6560   20.0440   -5.6100 C   0  0  0  0  0  0  0  0  0  0  0  0
  -17.0030   19.4950   -5.1650 C   0  0  0  0  0  0  0  0  0  0  0  0
  -18.0070   19.9140   -6.1360 N   0  0  0  0  0  0  0  0  0  0  0  0
  -19.1360   19.0040   -6.3390 C   0  0  0  0  0  0  0  0  0  0  0  0
  -19.0210   17.9610   -7.4400 C   0  0  0  0  0  0  0  0  0  0  0  0
  -19.8330   16.8320   -7.3550 C   0  0  0  0  0  0  0  0  0  0  0  0
  -19.8000   15.8310   -8.3200 C   0  0  0  0  0  0  0  0  0  0  0  0
  -20.6020   14.7250   -8.1940 O   0  0  0  0  0  0  0  0  0  0  0  0
  -18.9320   15.9570   -9.4000 C   0  0  0  0  0  0  0  0  0  0  0  0
  -18.1230   17.0870   -9.4980 C   0  0  0  0  0  0  0  0  0  0  0  0
  -18.1580   18.0910   -8.5260 C   0  0  0  0  0  0  0  0  0  0  0  0
  -17.8840   21.1520   -6.6230 C   0  0  0  0  0  0  0  0  0  0  0  0
  -18.5530   21.5640   -7.5550 O   0  0  0  0  0  0  0  0  0  0  0  0
  -16.9150   22.0380   -5.9730 C   0  0  0  0  0  0  0  0  0  0  0  0
  -17.1660   23.2270   -5.8450 O   0  0  0  0  0  0  0  0  0  0  0  0
  -15.7560   21.5060   -5.5830 N   0  0  0  0  0  0  0  0  0  0  0  0
  -14.5250   22.2540   -5.2970 C   0  0  0  0  0  0  0  0  0  0  0  0
  -14.3360   22.8220   -3.8990 C   0  0  0  0  0  0  0  0  0  0  0  0
  -13.1280   23.4570   -3.6070 C   0  0  0  0  0  0  0  0  0  0  0  0
  -12.8850   23.9960   -2.3490 C   0  0  0  0  0  0  0  0  0  0  0  0
  -11.6920   24.6080   -2.0710 O   0  0  0  0  0  0  0  0  0  0  0  0
  -13.8670   23.8970   -1.3700 C   0  0  0  0  0  0  0  0  0  0  0  0
  -15.0780   23.2720   -1.6570 C   0  0  0  0  0  0  0  0  0  0  0  0
  -15.3190   22.7300   -2.9200 C   0  0  0  0  0  0  0  0  0  0  0  0
  -16.7180   18.0010   -5.0460 C   0  0  0  0  0  0  0  0  0  0  0  0
  -15.3710   18.0570   -4.4640 N   0  0  0  0  0  0  0  0  0  0  0  0
  -14.7310   19.3710   -4.5980 C   0  0  0  0  0  0  0  0  0  0  0  0
  -15.2921   19.8392   -6.6277 H   0  0  0  0  0  0  0  0  0  0  0  0
  -17.4186   19.8534   -4.2117 H   0  0  0  0  0  0  0  0  0  0  0  0
  -19.2967   18.4656   -5.3934 H   0  0  0  0  0  0  0  0  0  0  0  0
  -19.9609   19.6560   -6.6621 H   0  0  0  0  0  0  0  0  0  0  0  0
  -20.5190   16.7295   -6.5012 H   0  0  0  0  0  0  0  0  0  0  0  0
  -20.8451   14.3897   -7.2948 H   0  0  0  0  0  0  0  0  0  0  0  0
  -18.8849   15.1720  -10.1691 H   0  0  0  0  0  0  0  0  0  0  0  0
  -17.4436   17.1911  -10.3568 H   0  0  0  0  0  0  0  0  0  0  0  0
  -17.5103   18.9753   -8.6177 H   0  0  0  0  0  0  0  0  0  0  0  0
  -13.6799   21.5770   -5.4907 H   0  0  0  0  0  0  0  0  0  0  0  0
  -14.5891   23.1409   -5.9445 H   0  0  0  0  0  0  0  0  0  0  0  0
  -12.3548   23.5322   -4.3858 H   0  0  0  0  0  0  0  0  0  0  0  0
  -11.4156   24.7498   -1.1310 H   0  0  0  0  0  0  0  0  0  0  0  0
  -13.6873   24.3128   -0.3676 H   0  0  0  0  0  0  0  0  0  0  0  0
  -15.8531   23.2049   -0.8794 H   0  0  0  0  0  0  0  0  0  0  0  0
  -16.2767   22.2351   -3.1388 H   0  0  0  0  0  0  0  0  0  0  0  0
  -17.4331   17.4987   -4.3779 H   0  0  0  0  0  0  0  0  0  0  0  0
  -16.7995   17.4326   -5.9842 H   0  0  0  0  0  0  0  0  0  0  0  0
  -15.4387   17.8277   -3.4621 H   0  0  0  0  0  0  0  0  0  0  0  0
  -13.7050   19.2830   -4.9847 H   0  0  0  0  0  0  0  0  0  0  0  0
  -14.6192   19.9195   -3.6511 H   0  0  0  0  0  0  0  0  0  0  0  0
  1  2  1  0
  1 16  1  0
  1 27  1  0
  2  3  1  0
  2 25  1  0
  3  4  1  0
  3 12  1  0
  4  5  1  0
  5  6  2  0
  5 11  1  0
  6  7  1  0
  7  8  1  0
  7  9  2  0
  9 10  1  0
 10 11  2  0
 12 13  2  0
 12 14  1  0
 14 15  2  0
 14 16  1  0
 16 17  1  0
 17 18  1  0
 18 19  2  0
 18 24  1  0
 19 20  1  0
 20 21  1  0
 20 22  2  0
 22 23  1  0
 23 24  2  0
 25 26  1  0
 26 27  1  0
  1 28  1  0
  2 29  1  0
  4 30  1  0
  4 31  1  0
  6 32  1  0
  8 33  1  0
  9 34  1  0
 10 35  1  0
 11 36  1  0
 17 37  1  0
 17 38  1  0
 19 39  1  0
 21 40  1  0
 22 41  1  0
 23 42  1  0
 24 43  1  0
 25 44  1  0
 25 45  1  0
 26 46  1  0
 27 47  1  0
 27 48  1  0
A    1
C1
A    2
C2
A    3
N3
A    4
C5
A    5
C6
A    6
C7
A    7
C8
A    8
O9
A    9
C10
A   10
C11
A   11
C12
A   12
C13
A   13
O14
A   14
C15
A   15
O16
A   16
N17
A   17
C18
A   18
C19
A   19
C20
A   20
C21
A   21
O22
A   22
C23
A   23
C24
A   24
C25
A   25
C26
A   26
N27
A   27
C28
M  END
