3QJ0_QI3_A_432
     RDKit          3D

 43 45  0  0  0  0  0  0  0  0999 V2000
  -19.5130   35.1510   -5.3980 C   0  0  0  0  0  0  0  0  0  0  0  0
  -21.8870   35.4460   -5.7760 N   0  0  0  0  0  0  0  0  0  0  0  0
  -18.6060   35.9580   -5.4120 O   0  0  0  0  0  0  0  0  0  0  0  0
  -20.7510   35.8220   -5.0040 C   0  0  0  0  0  0  0  0  0  0  0  0
  -21.0430   35.4800   -3.5790 C   0  0  0  0  0  0  0  0  0  0  0  0
  -22.4940   35.3060   -3.6200 C   0  0  0  0  0  0  0  0  0  0  0  0
  -18.2080   33.2220   -6.0710 O   0  0  0  0  0  0  0  0  0  0  0  0
  -19.3640   33.7510   -5.7240 N   0  0  0  0  0  0  0  0  0  0  0  0
  -22.5460   37.6720   -3.2240 C   0  0  0  0  0  0  0  0  0  0  0  0
  -22.2050   38.7260   -4.0910 C   0  0  0  0  0  0  0  0  0  0  0  0
  -21.6450   39.9310   -3.5490 C   0  0  0  0  0  0  0  0  0  0  0  0
  -22.3850   37.8050   -1.8320 C   0  0  0  0  0  0  0  0  0  0  0  0
  -21.8250   39.0090   -1.2870 C   0  0  0  0  0  0  0  0  0  0  0  0
  -21.4670   40.0560   -2.1450 C   0  0  0  0  0  0  0  0  0  0  0  0
  -20.7920   41.5100   -1.4490 Cl  0  0  0  0  0  0  0  0  0  0  0  0
  -20.9240   35.6640   -8.1520 O   0  0  0  0  0  0  0  0  0  0  0  0
  -22.2130   35.6380   -7.3520 S   0  0  0  0  0  0  0  0  0  0  0  0
  -23.1410   37.1680   -7.5310 C   0  0  0  0  0  0  0  0  0  0  0  0
  -24.4790   37.0980   -7.3440 C   0  0  0  0  0  0  0  0  0  0  0  0
  -25.2930   38.2490   -7.4350 C   0  0  0  0  0  0  0  0  0  0  0  0
  -23.1030   34.5220   -7.7130 O   0  0  0  0  0  0  0  0  0  0  0  0
  -22.5430   38.4250   -7.8140 C   0  0  0  0  0  0  0  0  0  0  0  0
  -23.3470   39.5920   -7.9060 C   0  0  0  0  0  0  0  0  0  0  0  0
  -24.7030   39.5000   -7.7190 C   0  0  0  0  0  0  0  0  0  0  0  0
  -25.7250   40.8680   -7.8160 Cl  0  0  0  0  0  0  0  0  0  0  0  0
  -23.1440   36.5150   -3.7520 O   0  0  0  0  0  0  0  0  0  0  0  0
  -22.7370   34.6560   -4.9310 C   0  0  0  0  0  0  0  0  0  0  0  0
  -20.5855   36.8976   -5.1645 H   0  0  0  0  0  0  0  0  0  0  0  0
  -20.5344   34.5534   -3.2745 H   0  0  0  0  0  0  0  0  0  0  0  0
  -20.6990   36.2329   -2.8545 H   0  0  0  0  0  0  0  0  0  0  0  0
  -22.8330   34.7770   -2.7171 H   0  0  0  0  0  0  0  0  0  0  0  0
  -17.6950   32.9873   -5.2575 H   0  0  0  0  0  0  0  0  0  0  0  0
  -20.1941   33.1426   -5.6835 H   0  0  0  0  0  0  0  0  0  0  0  0
  -22.3662   38.6274   -5.1747 H   0  0  0  0  0  0  0  0  0  0  0  0
  -21.3547   40.7546   -4.2179 H   0  0  0  0  0  0  0  0  0  0  0  0
  -22.6882   36.9867   -1.1623 H   0  0  0  0  0  0  0  0  0  0  0  0
  -21.6779   39.1086   -0.2014 H   0  0  0  0  0  0  0  0  0  0  0  0
  -24.9419   36.1264   -7.1168 H   0  0  0  0  0  0  0  0  0  0  0  0
  -26.3800   38.1711   -7.2855 H   0  0  0  0  0  0  0  0  0  0  0  0
  -21.4552   38.4946   -7.9622 H   0  0  0  0  0  0  0  0  0  0  0  0
  -22.8845   40.5655   -8.1262 H   0  0  0  0  0  0  0  0  0  0  0  0
  -23.7923   34.7312   -5.2322 H   0  0  0  0  0  0  0  0  0  0  0  0
  -22.5292   33.5760   -4.9528 H   0  0  0  0  0  0  0  0  0  0  0  0
  1  4  1  0
  2  4  1  0
  2 27  1  0
  3  1  2  0
  4  5  1  0
  6  5  1  0
  7  8  1  0
  8  1  1  0
  9 12  1  0
 10  9  2  0
 10 11  1  0
 11 14  2  0
 12 13  2  0
 14 13  1  0
 14 15  1  0
 16 17  2  0
 17  2  1  0
 18 17  1  0
 18 22  1  0
 19 18  2  0
 20 19  1  0
 20 24  2  0
 21 17  2  0
 23 22  2  0
 24 23  1  0
 25 24  1  0
 26  6  1  0
 26  9  1  0
 27  6  1  0
  4 28  1  0
  5 29  1  0
  5 30  1  0
  6 31  1  0
  7 32  1  0
  8 33  1  0
 10 34  1  0
 11 35  1  0
 12 36  1  0
 13 37  1  0
 19 38  1  0
 20 39  1  0
 22 40  1  0
 23 41  1  0
 27 42  1  0
 27 43  1  0
A    1
C1
A    2
N1
A    3
O1
A    4
C2
A    5
C3
A    6
C4
A    7
O2
A    8
N2
A    9
C5
A   10
C6
A   11
C7
A   12
C8
A   13
C9
A   14
C10
A   15
CL1
A   16
O3
A   17
S1
A   18
C11
A   19
C12
A   20
C13
A   21
O4
A   22
C14
A   23
C15
A   24
C16
A   25
CL2
A   26
O5
A   27
C17
M  END
