3QJ9_QJ9_A_600
     RDKit          3D

 58 63  0  0  0  0  0  0  0  0999 V2000
  -17.2830    0.2050   -4.8380 N   0  0  0  0  0  0  0  0  0  0  0  0
  -15.5840   -1.4580   -4.9530 N   0  0  0  0  0  0  0  0  0  0  0  0
  -16.6030   -0.7910   -4.2350 C   0  0  0  0  0  0  0  0  0  0  0  0
  -18.9330    1.9020   -4.8700 C   0  0  0  0  0  0  0  0  0  0  0  0
  -18.9550    2.1340   -6.1850 C   0  0  0  0  0  0  0  0  0  0  0  0
  -20.1810    3.6830   -5.1950 C   0  0  0  0  0  0  0  0  0  0  0  0
  -19.7090    3.2060   -6.4240 C   0  0  0  0  0  0  0  0  0  0  0  0
  -20.8750    4.9840   -7.5680 C   0  0  0  0  0  0  0  0  0  0  0  0
  -14.6900   -2.4490   -4.2810 C   0  0  0  0  0  0  0  0  0  0  0  0
  -12.9920   -1.9500   -6.1070 C   0  0  0  0  0  0  0  0  0  0  0  0
  -15.3820   -1.1500   -6.4000 C   0  0  0  0  0  0  0  0  0  0  0  0
  -11.2260   -5.0730   -3.6660 C   0  0  0  0  0  0  0  0  0  0  0  0
  -10.8020   -6.3770   -3.9260 C   0  0  0  0  0  0  0  0  0  0  0  0
  -11.2750   -7.0510   -5.0520 C   0  0  0  0  0  0  0  0  0  0  0  0
  -12.5880   -5.1210   -5.6600 C   0  0  0  0  0  0  0  0  0  0  0  0
   -8.6270   -3.9570   -1.8220 C   0  0  0  0  0  0  0  0  0  0  0  0
  -10.0430   -4.4620   -1.5500 C   0  0  0  0  0  0  0  0  0  0  0  0
  -10.9440   -4.2040   -2.6950 N   0  0  0  0  0  0  0  0  0  0  0  0
  -11.6230   -3.0820   -2.9170 C   0  0  0  0  0  0  0  0  0  0  0  0
  -11.5970   -2.0750   -2.2080 O   0  0  0  0  0  0  0  0  0  0  0  0
  -12.1650   -6.4190   -5.9240 C   0  0  0  0  0  0  0  0  0  0  0  0
  -12.1190   -4.4410   -4.5330 C   0  0  0  0  0  0  0  0  0  0  0  0
  -12.3360   -3.2160   -4.0340 N   0  0  0  0  0  0  0  0  0  0  0  0
  -13.2120   -2.1490   -4.5870 C   0  0  0  0  0  0  0  0  0  0  0  0
  -13.9010   -0.8590   -6.6870 C   0  0  0  0  0  0  0  0  0  0  0  0
  -16.9000   -1.1330   -2.9620 N   0  0  0  0  0  0  0  0  0  0  0  0
  -17.8570   -0.5040   -2.2890 C   0  0  0  0  0  0  0  0  0  0  0  0
  -18.5730    0.5280   -2.8930 C   0  0  0  0  0  0  0  0  0  0  0  0
  -18.2590    0.8770   -4.2030 C   0  0  0  0  0  0  0  0  0  0  0  0
  -20.0550    3.8580   -7.6110 C   0  0  0  0  0  0  0  0  0  0  0  0
  -21.3470    5.4560   -6.3420 C   0  0  0  0  0  0  0  0  0  0  0  0
  -21.0050    4.8100   -5.1520 C   0  0  0  0  0  0  0  0  0  0  0  0
  -19.6870    2.8550   -4.2220 O   0  0  0  0  0  0  0  0  0  0  0  0
  -18.4345    1.5363   -6.9478 H   0  0  0  0  0  0  0  0  0  0  0  0
  -21.1501    5.5005   -8.4994 H   0  0  0  0  0  0  0  0  0  0  0  0
  -14.8502   -2.3997   -3.1938 H   0  0  0  0  0  0  0  0  0  0  0  0
  -14.9309   -3.4535   -4.6590 H   0  0  0  0  0  0  0  0  0  0  0  0
  -11.9434   -1.6655   -6.2787 H   0  0  0  0  0  0  0  0  0  0  0  0
  -13.2380   -2.8967   -6.6102 H   0  0  0  0  0  0  0  0  0  0  0  0
  -15.7047   -2.0122   -7.0020 H   0  0  0  0  0  0  0  0  0  0  0  0
  -15.9759   -0.2616   -6.6607 H   0  0  0  0  0  0  0  0  0  0  0  0
  -10.0957   -6.8727   -3.2438 H   0  0  0  0  0  0  0  0  0  0  0  0
  -10.9468   -8.0814   -5.2536 H   0  0  0  0  0  0  0  0  0  0  0  0
  -13.2956   -4.6268   -6.3420 H   0  0  0  0  0  0  0  0  0  0  0  0
   -8.1132   -3.7738   -0.8668 H   0  0  0  0  0  0  0  0  0  0  0  0
   -8.0724   -4.7128   -2.3975 H   0  0  0  0  0  0  0  0  0  0  0  0
   -8.6758   -3.0209   -2.3975 H   0  0  0  0  0  0  0  0  0  0  0  0
  -10.0056   -5.5453   -1.3626 H   0  0  0  0  0  0  0  0  0  0  0  0
  -10.4372   -3.9246   -0.6749 H   0  0  0  0  0  0  0  0  0  0  0  0
  -12.5302   -6.9470   -6.8172 H   0  0  0  0  0  0  0  0  0  0  0  0
  -12.9361   -1.2058   -4.0928 H   0  0  0  0  0  0  0  0  0  0  0  0
  -13.6325    0.1075   -6.2356 H   0  0  0  0  0  0  0  0  0  0  0  0
  -13.7587   -0.8344   -7.7775 H   0  0  0  0  0  0  0  0  0  0  0  0
  -18.0847   -0.7980   -1.2537 H   0  0  0  0  0  0  0  0  0  0  0  0
  -19.3688    1.0550   -2.3462 H   0  0  0  0  0  0  0  0  0  0  0  0
  -19.6814    3.4837   -8.5755 H   0  0  0  0  0  0  0  0  0  0  0  0
  -21.9943    6.3449   -6.3129 H   0  0  0  0  0  0  0  0  0  0  0  0
  -21.3814    5.1855   -4.1890 H   0  0  0  0  0  0  0  0  0  0  0  0
 29  1  2  0
  3  1  1  0
  3  2  1  0
  9  2  1  0
  2 11  1  0
 26  3  2  0
 33  4  1  0
 29  4  1  0
  4  5  2  0
  7  5  1  0
 32  6  1  0
 33  6  1  0
  6  7  2  0
  7 30  1  0
 31  8  1  0
  8 30  2  0
  9 24  1  0
 24 10  1  0
 25 10  1  0
 11 25  1  0
 18 12  1  0
 12 22  1  0
 12 13  2  0
 13 14  1  0
 14 21  2  0
 22 15  2  0
 15 21  1  0
 17 16  1  0
 17 18  1  0
 19 18  1  0
 20 19  2  0
 19 23  1  0
 23 22  1  0
 24 23  1  0
 27 26  1  0
 27 28  2  0
 28 29  1  0
 32 31  2  0
  5 34  1  0
  8 35  1  0
  9 36  1  0
  9 37  1  0
 10 38  1  0
 10 39  1  0
 11 40  1  0
 11 41  1  0
 13 42  1  0
 14 43  1  0
 15 44  1  0
 16 45  1  0
 16 46  1  0
 16 47  1  0
 17 48  1  0
 17 49  1  0
 21 50  1  0
 24 51  1  0
 25 52  1  0
 25 53  1  0
 27 54  1  0
 28 55  1  0
 30 56  1  0
 31 57  1  0
 32 58  1  0
A    1
N1
A    2
N3
A    3
C4
A    4
C5
A    5
C6
A    6
C7
A    7
C8
A    8
C10
A    9
C13
A   10
C15
A   11
C17
A   12
C20
A   13
C21
A   14
C22
A   15
C24
A   16
C26
A   17
C25
A   18
N5
A   19
C18
A   20
O2
A   21
C23
A   22
C19
A   23
N4
A   24
C14
A   25
C16
A   26
N2
A   27
C1
A   28
C2
A   29
C3
A   30
C9
A   31
C11
A   32
C12
A   33
O1
M  END
