3QJZ_QJZ_A_1
     RDKit          3D

 33 35  0  0  0  0  0  0  0  0999 V2000
   18.9300   13.9370   22.5280 C   0  0  0  0  0  0  0  0  0  0  0  0
   18.6890   12.9440   23.4950 C   0  0  0  0  0  0  0  0  0  0  0  0
   19.7450   12.1060   23.8600 C   0  0  0  0  0  0  0  0  0  0  0  0
   16.6290   13.8770   23.4510 C   0  0  0  0  0  0  0  0  0  0  0  0
   22.4830   13.3650   21.7110 C   0  0  0  0  0  0  0  0  0  0  0  0
   13.0650   14.8050   23.7370 C   0  0  0  0  0  0  0  0  0  0  0  0
   23.6010   12.6580   22.1660 C   0  0  0  0  0  0  0  0  0  0  0  0
   22.3130   15.9890   18.2390 C   0  0  0  0  0  0  0  0  0  0  0  0
   14.4930   14.8620   23.1950 C   0  0  0  0  0  0  0  0  0  0  0  0
   14.7850   15.6470   22.2930 O   0  0  0  0  0  0  0  0  0  0  0  0
   15.3440   14.0160   23.7810 N   0  0  0  0  0  0  0  0  0  0  0  0
   17.4230   12.9400   23.9650 N   0  0  0  0  0  0  0  0  0  0  0  0
   17.4960   14.7690   22.3300 S   0  0  0  0  0  0  0  0  0  0  0  0
   20.1830   14.0830   21.9400 C   0  0  0  0  0  0  0  0  0  0  0  0
   21.0020   12.2420   23.2730 C   0  0  0  0  0  0  0  0  0  0  0  0
   21.2270   13.2310   22.3110 C   0  0  0  0  0  0  0  0  0  0  0  0
   22.6250   14.1780   20.6480 N   0  0  0  0  0  0  0  0  0  0  0  0
   24.8190   12.8370   21.5120 C   0  0  0  0  0  0  0  0  0  0  0  0
   24.8990   13.6620   20.4780 N   0  0  0  0  0  0  0  0  0  0  0  0
   23.8180   14.3320   20.0410 C   0  0  0  0  0  0  0  0  0  0  0  0
   23.9520   15.4190   18.6670 S   0  0  0  0  0  0  0  0  0  0  0  0
   19.5826   11.3283   24.6208 H   0  0  0  0  0  0  0  0  0  0  0  0
   13.0899   14.8060   24.8367 H   0  0  0  0  0  0  0  0  0  0  0  0
   12.5029   15.6814   23.3822 H   0  0  0  0  0  0  0  0  0  0  0  0
   12.5745   13.8866   23.3822 H   0  0  0  0  0  0  0  0  0  0  0  0
   23.5206   11.9738   23.0236 H   0  0  0  0  0  0  0  0  0  0  0  0
   21.7422   16.1875   19.1581 H   0  0  0  0  0  0  0  0  0  0  0  0
   22.3891   16.9135   17.6477 H   0  0  0  0  0  0  0  0  0  0  0  0
   21.7990   15.2168   17.6477 H   0  0  0  0  0  0  0  0  0  0  0  0
   14.9813   13.4272   24.5443 H   0  0  0  0  0  0  0  0  0  0  0  0
   20.3511   14.8661   21.1860 H   0  0  0  0  0  0  0  0  0  0  0  0
   21.8201   11.5684   23.5679 H   0  0  0  0  0  0  0  0  0  0  0  0
   25.7126   12.2941   21.8538 H   0  0  0  0  0  0  0  0  0  0  0  0
 14  1  2  0
 13  1  1  0
  1  2  1  0
  2  3  2  0
  2 12  1  0
 15  3  1  0
 13  4  1  0
  4 11  1  0
  4 12  2  0
 17  5  1  0
  5  7  2  0
  5 16  1  0
  9  6  1  0
 18  7  1  0
  8 21  1  0
 10  9  2  0
  9 11  1  0
 14 16  1  0
 16 15  2  0
 20 17  2  0
 19 18  2  0
 20 19  1  0
 21 20  1  0
  3 22  1  0
  6 23  1  0
  6 24  1  0
  6 25  1  0
  7 26  1  0
  8 27  1  0
  8 28  1  0
  8 29  1  0
 11 30  1  0
 14 31  1  0
 15 32  1  0
 18 33  1  0
A    1
C4
A    2
C5
A    3
C6
A    4
C8
A    5
C10
A    6
C13
A    7
C15
A    8
C21
A    9
C12
A   10
O14
A   11
N11
A   12
N9
A   13
S7
A   14
C3
A   15
C1
A   16
C2
A   17
N19
A   18
C16
A   19
N17
A   20
C18
A   21
S20
M  END
