3QK0_QK0_A_1103
     RDKit          3D

 45 48  0  0  0  0  0  0  0  0999 V2000
   20.5040   12.7750   23.9330 C   0  0  0  0  0  0  0  0  0  0  0  0
   20.8980   13.7940   23.0430 C   0  0  0  0  0  0  0  0  0  0  0  0
   22.2000   13.8610   22.5390 C   0  0  0  0  0  0  0  0  0  0  0  0
   18.5130   13.8730   23.8250 C   0  0  0  0  0  0  0  0  0  0  0  0
   14.9600   14.9730   24.0960 C   0  0  0  0  0  0  0  0  0  0  0  0
   24.7190   13.3920   21.1370 C   0  0  0  0  0  0  0  0  0  0  0  0
   27.0310   12.8050   21.4400 C   0  0  0  0  0  0  0  0  0  0  0  0
   26.2920   16.9900   19.8950 C   0  0  0  0  0  0  0  0  0  0  0  0
   24.8110   18.6810   20.7830 C   0  0  0  0  0  0  0  0  0  0  0  0
   16.4010   15.0090   23.5690 C   0  0  0  0  0  0  0  0  0  0  0  0
   16.7240   15.8470   22.7240 O   0  0  0  0  0  0  0  0  0  0  0  0
   17.2130   14.0850   24.1100 N   0  0  0  0  0  0  0  0  0  0  0  0
   19.2140   12.8500   24.3290 N   0  0  0  0  0  0  0  0  0  0  0  0
   19.5410   14.7620   22.8010 S   0  0  0  0  0  0  0  0  0  0  0  0
   21.4560   11.8320   24.2970 C   0  0  0  0  0  0  0  0  0  0  0  0
   22.7530   11.8970   23.7970 C   0  0  0  0  0  0  0  0  0  0  0  0
   23.1440   12.9110   22.9240 C   0  0  0  0  0  0  0  0  0  0  0  0
   24.4500   12.9100   22.4210 C   0  0  0  0  0  0  0  0  0  0  0  0
   25.5050   12.3630   23.1530 C   0  0  0  0  0  0  0  0  0  0  0  0
   26.7380   12.3320   22.6660 N   0  0  0  0  0  0  0  0  0  0  0  0
   28.6700   12.7250   20.8740 Cl  0  0  0  0  0  0  0  0  0  0  0  0
   26.0260   13.3570   20.6360 C   0  0  0  0  0  0  0  0  0  0  0  0
   26.3440   13.8160   19.4130 N   0  0  0  0  0  0  0  0  0  0  0  0
   25.4320   14.8280   18.5050 S   0  0  0  0  0  0  0  0  0  0  0  0
   24.1030   14.2050   18.1750 O   0  0  0  0  0  0  0  0  0  0  0  0
   26.1760   15.1370   17.2390 O   0  0  0  0  0  0  0  0  0  0  0  0
   25.1850   16.3140   19.3770 C   0  0  0  0  0  0  0  0  0  0  0  0
   26.1040   18.1790   20.6000 C   0  0  0  0  0  0  0  0  0  0  0  0
   24.6350   19.8290   21.4660 F   0  0  0  0  0  0  0  0  0  0  0  0
   23.7020   18.0040   20.2650 C   0  0  0  0  0  0  0  0  0  0  0  0
   23.8900   16.8140   19.5570 C   0  0  0  0  0  0  0  0  0  0  0  0
   22.4791   14.6626   21.8393 H   0  0  0  0  0  0  0  0  0  0  0  0
   14.9717   14.9733   25.1959 H   0  0  0  0  0  0  0  0  0  0  0  0
   14.4153   15.8578   23.7349 H   0  0  0  0  0  0  0  0  0  0  0  0
   14.4602   14.0621   23.7349 H   0  0  0  0  0  0  0  0  0  0  0  0
   23.9041   13.7988   20.5202 H   0  0  0  0  0  0  0  0  0  0  0  0
   27.3052   16.5876   19.7481 H   0  0  0  0  0  0  0  0  0  0  0  0
   16.7949   13.4698   24.8224 H   0  0  0  0  0  0  0  0  0  0  0  0
   21.1813   11.0229   24.9897 H   0  0  0  0  0  0  0  0  0  0  0  0
   23.4848   11.1324   24.0968 H   0  0  0  0  0  0  0  0  0  0  0  0
   25.3098   11.9495   24.1535 H   0  0  0  0  0  0  0  0  0  0  0  0
   27.2399   13.5036   19.0122 H   0  0  0  0  0  0  0  0  0  0  0  0
   26.9693   18.7199   21.0106 H   0  0  0  0  0  0  0  0  0  0  0  0
   22.6888   18.4056   20.4139 H   0  0  0  0  0  0  0  0  0  0  0  0
   23.0257   16.2735   19.1437 H   0  0  0  0  0  0  0  0  0  0  0  0
  2  1  1  0
  1 15  2  0
  1 13  1  0
  3  2  2  0
 14  2  1  0
  3 17  1  0
 14  4  1  0
  4 12  1  0
  4 13  2  0
 10  5  1  0
 22  6  2  0
  6 18  1  0
 22  7  1  0
 21  7  1  0
  7 20  2  0
 27  8  2  0
  8 28  1  0
 30  9  1  0
 28  9  2  0
  9 29  1  0
 11 10  2  0
 10 12  1  0
 16 15  1  0
 17 16  2  0
 18 17  1  0
 18 19  2  0
 20 19  1  0
 23 22  1  0
 24 23  1  0
 26 24  2  0
 25 24  2  0
 24 27  1  0
 27 31  1  0
 31 30  2  0
  3 32  1  0
  5 33  1  0
  5 34  1  0
  5 35  1  0
  6 36  1  0
  8 37  1  0
 12 38  1  0
 15 39  1  0
 16 40  1  0
 19 41  1  0
 23 42  1  0
 28 43  1  0
 30 44  1  0
 31 45  1  0
A    1
C4
A    2
C5
A    3
C6
A    4
C8
A    5
C13
A    6
C15
A    7
C17
A    8
C26
A    9
C28
A   10
C12
A   11
O14
A   12
N10
A   13
N7
A   14
S9
A   15
C3
A   16
C2
A   17
C1
A   18
C11
A   19
C19
A   20
N18
A   21
CL20
A   22
C16
A   23
N21
A   24
S22
A   25
O23
A   26
O24
A   27
C25
A   28
C27
A   29
F31
A   30
C29
A   31
C30
M  END
