3QKM_SM9_A_1
     RDKit          3D

 84 88  0  0  0  0  0  0  0  0999 V2000
   28.1440    2.6070   13.9550 C   0  0  0  0  0  0  0  0  0  0  0  0
   28.7290    1.4580   13.1180 C   0  0  0  0  0  0  0  0  0  0  0  0
   29.2960    0.4010   14.0890 C   0  0  0  0  0  0  0  0  0  0  0  0
   27.7160    0.8850   12.3060 O   0  0  0  0  0  0  0  0  0  0  0  0
   30.3940   -0.4390   13.5300 N   0  0  0  0  0  0  0  0  0  0  0  0
   29.9610   -1.7740   13.0410 C   0  0  0  0  0  0  0  0  0  0  0  0
   29.8030   -2.7930   14.1840 C   0  0  0  0  0  0  0  0  0  0  0  0
   31.8910    1.5200   12.2860 C   0  0  0  0  0  0  0  0  0  0  0  0
   31.9800    2.8620   12.7530 C   0  0  0  0  0  0  0  0  0  0  0  0
   31.8310    3.9340   11.8430 C   0  0  0  0  0  0  0  0  0  0  0  0
   31.5720    3.6740   10.4790 C   0  0  0  0  0  0  0  0  0  0  0  0
   31.4810    2.3470   10.0100 C   0  0  0  0  0  0  0  0  0  0  0  0
   31.6350    1.2690   10.9090 C   0  0  0  0  0  0  0  0  0  0  0  0
   31.5140   -0.1360   10.3330 C   0  0  0  0  0  0  0  0  0  0  0  0
   32.2380    3.2180   14.2130 C   0  0  0  0  0  0  0  0  0  0  0  0
   27.5100    5.5110   11.4420 C   0  0  0  0  0  0  0  0  0  0  0  0
   26.7490    6.4200   12.4430 C   0  0  0  0  0  0  0  0  0  0  0  0
   25.8360    5.6190   13.3960 C   0  0  0  0  0  0  0  0  0  0  0  0
   26.6680    4.5480   14.1260 C   0  0  0  0  0  0  0  0  0  0  0  0
   27.3920    3.6380   13.1940 N   0  0  0  0  0  0  0  0  0  0  0  0
   28.2150    4.3440   12.1660 C   0  0  0  0  0  0  0  0  0  0  0  0
   28.5280    6.3550   10.6620 C   0  0  0  0  0  0  0  0  0  0  0  0
   27.7820    6.8470    9.4080 C   0  0  0  0  0  0  0  0  0  0  0  0
   26.5950    5.9900    9.2660 N   0  0  0  0  0  0  0  0  0  0  0  0
   26.5820    4.9830   10.3430 C   0  0  0  0  0  0  0  0  0  0  0  0
   25.5190    6.3000    8.4820 C   0  0  0  0  0  0  0  0  0  0  0  0
   24.4000    5.4620    8.2230 C   0  0  0  0  0  0  0  0  0  0  0  0
   23.3660    5.9490    7.3850 C   0  0  0  0  0  0  0  0  0  0  0  0
   23.4640    7.1790    6.8560 N   0  0  0  0  0  0  0  0  0  0  0  0
   24.5460    7.9220    7.1380 C   0  0  0  0  0  0  0  0  0  0  0  0
   25.5620    7.5260    7.9230 N   0  0  0  0  0  0  0  0  0  0  0  0
   24.2810    4.1620    8.7710 C   0  0  0  0  0  0  0  0  0  0  0  0
   23.1460    3.3610    8.4880 C   0  0  0  0  0  0  0  0  0  0  0  0
   22.1210    3.8530    7.6460 C   0  0  0  0  0  0  0  0  0  0  0  0
   22.2340    5.1500    7.0960 C   0  0  0  0  0  0  0  0  0  0  0  0
   29.9950   -4.0900   13.6540 O   0  0  0  0  0  0  0  0  0  0  0  0
   29.7780   -6.4560   13.9040 C   0  0  0  0  0  0  0  0  0  0  0  0
   29.7720   -5.0980   14.6270 C   0  0  0  0  0  0  0  0  0  0  0  0
   32.0670    0.1130   13.4460 S   0  0  0  0  0  0  0  0  0  0  0  0
   32.4400    0.5790   14.7880 O   0  0  0  0  0  0  0  0  0  0  0  0
   32.8890   -0.9520   12.8530 O   0  0  0  0  0  0  0  0  0  0  0  0
   27.4612    2.1703   14.6986 H   0  0  0  0  0  0  0  0  0  0  0  0
   29.0070    3.1280   14.3952 H   0  0  0  0  0  0  0  0  0  0  0  0
   29.5260    1.8321   12.4586 H   0  0  0  0  0  0  0  0  0  0  0  0
   29.6834    0.9242   14.9757 H   0  0  0  0  0  0  0  0  0  0  0  0
   28.4672   -0.2855   14.3166 H   0  0  0  0  0  0  0  0  0  0  0  0
   27.0156    0.4888   12.8827 H   0  0  0  0  0  0  0  0  0  0  0  0
   28.9942   -1.6659   12.5275 H   0  0  0  0  0  0  0  0  0  0  0  0
   30.7383   -2.1508   12.3599 H   0  0  0  0  0  0  0  0  0  0  0  0
   30.5528   -2.5956   14.9643 H   0  0  0  0  0  0  0  0  0  0  0  0
   28.8002   -2.7105   14.6286 H   0  0  0  0  0  0  0  0  0  0  0  0
   31.9169    4.9717   12.1978 H   0  0  0  0  0  0  0  0  0  0  0  0
   31.4405    4.5116    9.7783 H   0  0  0  0  0  0  0  0  0  0  0  0
   31.2902    2.1519    8.9444 H   0  0  0  0  0  0  0  0  0  0  0  0
   31.4512   -0.8649   11.1544 H   0  0  0  0  0  0  0  0  0  0  0  0
   30.6069   -0.2018    9.7143 H   0  0  0  0  0  0  0  0  0  0  0  0
   32.3965   -0.3559    9.7143 H   0  0  0  0  0  0  0  0  0  0  0  0
   31.7173    2.4995   14.8631 H   0  0  0  0  0  0  0  0  0  0  0  0
   33.3187    3.1786   14.4146 H   0  0  0  0  0  0  0  0  0  0  0  0
   31.8642    4.2327   14.4146 H   0  0  0  0  0  0  0  0  0  0  0  0
   27.4842    6.9756   13.0436 H   0  0  0  0  0  0  0  0  0  0  0  0
   26.1086    7.0967   11.8582 H   0  0  0  0  0  0  0  0  0  0  0  0
   25.3880    6.3009   14.1338 H   0  0  0  0  0  0  0  0  0  0  0  0
   25.0390    5.1311   12.8157 H   0  0  0  0  0  0  0  0  0  0  0  0
   27.4060    5.0535   14.7662 H   0  0  0  0  0  0  0  0  0  0  0  0
   25.9700    3.9318   14.7117 H   0  0  0  0  0  0  0  0  0  0  0  0
   28.5167    3.6066   11.4076 H   0  0  0  0  0  0  0  0  0  0  0  0
   29.0611    4.7905   12.7089 H   0  0  0  0  0  0  0  0  0  0  0  0
   28.8643    7.2088   11.2686 H   0  0  0  0  0  0  0  0  0  0  0  0
   29.4245    5.7736   10.4009 H   0  0  0  0  0  0  0  0  0  0  0  0
   27.4798    7.8973    9.5330 H   0  0  0  0  0  0  0  0  0  0  0  0
   28.4229    6.7905    8.5157 H   0  0  0  0  0  0  0  0  0  0  0  0
   26.9505    4.0178    9.9655 H   0  0  0  0  0  0  0  0  0  0  0  0
   25.5632    4.8220   10.7254 H   0  0  0  0  0  0  0  0  0  0  0  0
   24.6050    8.9270    6.6946 H   0  0  0  0  0  0  0  0  0  0  0  0
   25.0762    3.7700    9.4221 H   0  0  0  0  0  0  0  0  0  0  0  0
   23.0621    2.3546    8.9241 H   0  0  0  0  0  0  0  0  0  0  0  0
   21.2424    3.2305    7.4210 H   0  0  0  0  0  0  0  0  0  0  0  0
   21.4402    5.5395    6.4417 H   0  0  0  0  0  0  0  0  0  0  0  0
   29.7816   -7.2670   14.6471 H   0  0  0  0  0  0  0  0  0  0  0  0
   28.8802   -6.5399   13.2740 H   0  0  0  0  0  0  0  0  0  0  0  0
   30.6765   -6.5320   13.2740 H   0  0  0  0  0  0  0  0  0  0  0  0
   30.5709   -5.0724   15.3827 H   0  0  0  0  0  0  0  0  0  0  0  0
   28.8099   -4.9365   15.1353 H   0  0  0  0  0  0  0  0  0  0  0  0
  2  1  1  0
 20  1  1  0
  4  2  1  0
  2  3  1  0
  5  3  1  0
  6  5  1  0
 39  5  1  0
  6  7  1  0
 36  7  1  0
 13  8  1  0
  8  9  2  0
  8 39  1  0
 10  9  1  0
  9 15  1  0
 11 10  2  0
 12 11  1  0
 12 13  2  0
 14 13  1  0
 25 16  1  0
 22 16  1  0
 16 21  1  0
 16 17  1  0
 17 18  1  0
 18 19  1  0
 20 19  1  0
 21 20  1  0
 23 22  1  0
 24 23  1  0
 26 24  1  0
 24 25  1  0
 31 26  1  0
 27 26  2  0
 28 27  1  0
 27 32  1  0
 29 28  2  0
 35 28  1  0
 29 30  1  0
 30 31  2  0
 33 32  2  0
 34 33  1  0
 35 34  2  0
 36 38  1  0
 37 38  1  0
 41 39  2  0
 39 40  2  0
  1 42  1  0
  1 43  1  0
  2 44  1  0
  3 45  1  0
  3 46  1  0
  4 47  1  0
  6 48  1  0
  6 49  1  0
  7 50  1  0
  7 51  1  0
 10 52  1  0
 11 53  1  0
 12 54  1  0
 14 55  1  0
 14 56  1  0
 14 57  1  0
 15 58  1  0
 15 59  1  0
 15 60  1  0
 17 61  1  0
 17 62  1  0
 18 63  1  0
 18 64  1  0
 19 65  1  0
 19 66  1  0
 21 67  1  0
 21 68  1  0
 22 69  1  0
 22 70  1  0
 23 71  1  0
 23 72  1  0
 25 73  1  0
 25 74  1  0
 30 75  1  0
 32 76  1  0
 33 77  1  0
 34 78  1  0
 35 79  1  0
 37 80  1  0
 37 81  1  0
 37 82  1  0
 38 83  1  0
 38 84  1  0
A    1
C1
A    2
C2
A    3
C3
A    4
O4
A    5
N5
A    6
C6
A    7
C7
A    8
C8
A    9
C9
A   10
C10
A   11
C11
A   12
C12
A   13
C13
A   14
C14
A   15
C15
A   16
C16
A   17
C17
A   18
C18
A   19
C19
A   20
N20
A   21
C21
A   22
C22
A   23
C23
A   24
N24
A   25
C25
A   26
C26
A   27
C27
A   28
C28
A   29
N29
A   30
C30
A   31
N31
A   32
C32
A   33
C33
A   34
C34
A   35
C35
A   36
O36
A   37
C37
A   38
C38
A   39
S39
A   40
O40
A   41
O41
M  END
