3QP0_NI8_B_102
     RDKit          3D

 54 57  0  0  0  0  0  0  0  0999 V2000
  -16.2190   19.8250   -5.7530 C   0  0  0  0  0  0  0  0  0  0  0  0
  -17.5200   19.4090   -5.1000 C   0  0  0  0  0  0  0  0  0  0  0  0
  -18.5880   19.6690   -6.0670 N   0  0  0  0  0  0  0  0  0  0  0  0
  -19.6340   18.6610   -6.2070 C   0  0  0  0  0  0  0  0  0  0  0  0
  -19.4930   17.7290   -7.3960 C   0  0  0  0  0  0  0  0  0  0  0  0
  -20.5230   16.8310   -7.6540 C   0  0  0  0  0  0  0  0  0  0  0  0
  -20.4360   15.9530   -8.7230 C   0  0  0  0  0  0  0  0  0  0  0  0
  -21.5580   14.9780   -8.9860 C   0  0  0  0  0  0  0  0  0  0  0  0
  -19.3190   15.9680   -9.5450 C   0  0  0  0  0  0  0  0  0  0  0  0
  -18.2920   16.8650   -9.2960 C   0  0  0  0  0  0  0  0  0  0  0  0
  -18.3770   17.7520   -8.2250 C   0  0  0  0  0  0  0  0  0  0  0  0
  -18.6130   20.8690   -6.6380 C   0  0  0  0  0  0  0  0  0  0  0  0
  -19.5350   21.2250   -7.3630 O   0  0  0  0  0  0  0  0  0  0  0  0
  -17.5060   21.7840   -6.3510 C   0  0  0  0  0  0  0  0  0  0  0  0
  -17.6700   22.9890   -6.4910 O   0  0  0  0  0  0  0  0  0  0  0  0
  -16.3290   21.2620   -5.9970 N   0  0  0  0  0  0  0  0  0  0  0  0
  -15.0630   21.9760   -6.0040 C   0  0  0  0  0  0  0  0  0  0  0  0
  -14.7030   22.7180   -4.7370 C   0  0  0  0  0  0  0  0  0  0  0  0
  -13.4610   23.3310   -4.7320 C   0  0  0  0  0  0  0  0  0  0  0  0
  -13.0210   24.0400   -3.6280 C   0  0  0  0  0  0  0  0  0  0  0  0
  -11.6490   24.6710   -3.6820 C   0  0  0  0  0  0  0  0  0  0  0  0
  -13.8280   24.1340   -2.4970 C   0  0  0  0  0  0  0  0  0  0  0  0
  -15.0860   23.5350   -2.4970 C   0  0  0  0  0  0  0  0  0  0  0  0
  -15.5310   22.8190   -3.6150 C   0  0  0  0  0  0  0  0  0  0  0  0
  -17.2090   17.9610   -4.7360 C   0  0  0  0  0  0  0  0  0  0  0  0
  -15.7990   18.0830   -4.3350 N   0  0  0  0  0  0  0  0  0  0  0  0
  -15.2120   19.3770   -4.6940 C   0  0  0  0  0  0  0  0  0  0  0  0
  -10.7960   23.9010   -4.5530 O   0  0  0  0  0  0  0  0  0  0  0  0
  -21.4530   13.9590   -7.9890 O   0  0  0  0  0  0  0  0  0  0  0  0
  -15.9379   19.4018   -6.7287 H   0  0  0  0  0  0  0  0  0  0  0  0
  -17.8722   19.9336   -4.1996 H   0  0  0  0  0  0  0  0  0  0  0  0
  -19.6363   18.0469   -5.2944 H   0  0  0  0  0  0  0  0  0  0  0  0
  -20.5681   19.2182   -6.3712 H   0  0  0  0  0  0  0  0  0  0  0  0
  -21.4118   16.8174   -7.0061 H   0  0  0  0  0  0  0  0  0  0  0  0
  -22.5299   15.4872   -8.9079 H   0  0  0  0  0  0  0  0  0  0  0  0
  -21.4863   14.5529   -9.9980 H   0  0  0  0  0  0  0  0  0  0  0  0
  -19.2483   15.2700  -10.3922 H   0  0  0  0  0  0  0  0  0  0  0  0
  -17.4055   16.8766   -9.9472 H   0  0  0  0  0  0  0  0  0  0  0  0
  -17.5638   18.4682   -8.0359 H   0  0  0  0  0  0  0  0  0  0  0  0
  -14.2665   21.2432   -6.2005 H   0  0  0  0  0  0  0  0  0  0  0  0
  -15.1691   22.7516   -6.7768 H   0  0  0  0  0  0  0  0  0  0  0  0
  -12.8148   23.2531   -5.6187 H   0  0  0  0  0  0  0  0  0  0  0  0
  -11.7334   25.6981   -4.0667 H   0  0  0  0  0  0  0  0  0  0  0  0
  -11.2161   24.6907   -2.6710 H   0  0  0  0  0  0  0  0  0  0  0  0
  -13.4743   24.6780   -1.6088 H   0  0  0  0  0  0  0  0  0  0  0  0
  -15.7340   23.6252   -1.6127 H   0  0  0  0  0  0  0  0  0  0  0  0
  -16.5217   22.3410   -3.6106 H   0  0  0  0  0  0  0  0  0  0  0  0
  -17.8381   17.6066   -3.9062 H   0  0  0  0  0  0  0  0  0  0  0  0
  -17.3956   17.2354   -5.5414 H   0  0  0  0  0  0  0  0  0  0  0  0
  -15.7369   17.9664   -3.3135 H   0  0  0  0  0  0  0  0  0  0  0  0
  -14.1998   19.2672   -5.1105 H   0  0  0  0  0  0  0  0  0  0  0  0
  -15.0709   20.0759   -3.8564 H   0  0  0  0  0  0  0  0  0  0  0  0
  -10.1823   23.3470   -4.0085 H   0  0  0  0  0  0  0  0  0  0  0  0
  -21.4955   14.3713   -7.0900 H   0  0  0  0  0  0  0  0  0  0  0  0
  1  2  1  0
  1 16  1  0
  1 27  1  0
  2  3  1  0
  2 25  1  0
  3  4  1  0
  3 12  1  0
  4  5  1  0
  5  6  2  0
  5 11  1  0
  6  7  1  0
  7  8  1  0
  7  9  2  0
  8 29  1  0
  9 10  1  0
 10 11  2  0
 12 13  2  0
 12 14  1  0
 14 15  2  0
 14 16  1  0
 16 17  1  0
 17 18  1  0
 18 19  2  0
 18 24  1  0
 19 20  1  0
 20 21  1  0
 20 22  2  0
 21 28  1  0
 22 23  1  0
 23 24  2  0
 25 26  1  0
 26 27  1  0
  1 30  1  0
  2 31  1  0
  4 32  1  0
  4 33  1  0
  6 34  1  0
  8 35  1  0
  8 36  1  0
  9 37  1  0
 10 38  1  0
 11 39  1  0
 17 40  1  0
 17 41  1  0
 19 42  1  0
 21 43  1  0
 21 44  1  0
 22 45  1  0
 23 46  1  0
 24 47  1  0
 25 48  1  0
 25 49  1  0
 26 50  1  0
 27 51  1  0
 27 52  1  0
 28 53  1  0
 29 54  1  0
A    1
C1
A    2
C2
A    3
N3
A    4
C5
A    5
C6
A    6
C7
A    7
C8
A    8
C9
A    9
C10
A   10
C11
A   11
C12
A   12
C13
A   13
O14
A   14
C15
A   15
O16
A   16
N17
A   17
C18
A   18
C19
A   19
C20
A   20
C21
A   21
C22
A   22
C23
A   23
C24
A   24
C25
A   25
C26
A   26
N27
A   27
C28
A   28
O29
A   29
O30
M  END
