3QPG_3QP_A_422
     RDKit          3D

 40 40  0  0  0  0  0  0  0  0999 V2000
  -37.0890   26.8840   -2.5750 C   0  0  0  0  0  0  0  0  0  0  0  0
  -37.0650   26.1840   -3.9310 C   0  0  0  0  0  0  0  0  0  0  0  0
  -36.1010   25.2120   -4.2150 C   0  0  0  0  0  0  0  0  0  0  0  0
  -35.1540   24.8050   -3.3220 O   0  0  0  0  0  0  0  0  0  0  0  0
  -36.0910   24.5880   -5.4780 C   0  0  0  0  0  0  0  0  0  0  0  0
  -37.0120   24.9680   -6.4570 C   0  0  0  0  0  0  0  0  0  0  0  0
  -36.9920   24.2380   -7.8330 C   0  0  0  0  0  0  0  0  0  0  0  0
  -37.7820   23.0750   -7.8970 O   0  0  0  0  0  0  0  0  0  0  0  0
  -38.0810   22.3750   -9.2760 P   0  0  0  0  0  0  0  0  0  0  0  0
  -36.9000   21.5700   -9.6870 O   0  0  0  0  0  0  0  0  0  0  0  0
  -38.2440   23.4330  -10.3680 O   0  0  0  0  0  0  0  0  0  0  0  0
  -39.3370   21.6280   -9.1400 O   0  0  0  0  0  0  0  0  0  0  0  0
  -37.9990   25.9280   -6.1800 C   0  0  0  0  0  0  0  0  0  0  0  0
  -38.0240   26.5310   -4.9080 C   0  0  0  0  0  0  0  0  0  0  0  0
  -35.0400   23.5630   -5.7240 C   0  0  0  0  0  0  0  0  0  0  0  0
  -33.7580   23.9560   -5.4720 N   0  0  0  0  0  0  0  0  0  0  0  0
  -32.5970   23.1050   -5.7340 C   0  0  0  0  0  0  0  0  0  0  0  0
  -32.3580   22.7610   -7.2000 C   0  0  0  0  0  0  0  0  0  0  0  0
  -32.2000   24.0140   -8.0640 C   0  0  0  0  0  0  0  0  0  0  0  0
  -32.6690   24.0330   -9.2220 O   0  0  0  0  0  0  0  0  0  0  0  0
  -31.6450   25.0610   -7.6220 O   0  0  0  0  0  0  0  0  0  0  0  0
  -31.4340   23.6810   -5.0560 C   0  0  0  0  0  0  0  0  0  0  0  0
  -30.3100   23.1350   -5.1500 O   0  0  0  0  0  0  0  0  0  0  0  0
  -31.5690   24.7710   -4.3750 O   0  0  0  0  0  0  0  0  0  0  0  0
  -37.0632   26.1313   -1.7733 H   0  0  0  0  0  0  0  0  0  0  0  0
  -36.2129   27.5434   -2.4872 H   0  0  0  0  0  0  0  0  0  0  0  0
  -38.0082   27.4818   -2.4872 H   0  0  0  0  0  0  0  0  0  0  0  0
  -35.3261   24.8789   -2.3499 H   0  0  0  0  0  0  0  0  0  0  0  0
  -37.3547   24.9403   -8.5980 H   0  0  0  0  0  0  0  0  0  0  0  0
  -35.9532   23.9154   -7.9967 H   0  0  0  0  0  0  0  0  0  0  0  0
  -36.4248   21.2461   -8.8812 H   0  0  0  0  0  0  0  0  0  0  0  0
  -39.5451   21.5043   -8.1801 H   0  0  0  0  0  0  0  0  0  0  0  0
  -38.7403   26.2042   -6.9443 H   0  0  0  0  0  0  0  0  0  0  0  0
  -38.7964   27.2782   -4.6733 H   0  0  0  0  0  0  0  0  0  0  0  0
  -35.2816   22.5528   -6.0860 H   0  0  0  0  0  0  0  0  0  0  0  0
  -32.8058   22.1115   -5.3105 H   0  0  0  0  0  0  0  0  0  0  0  0
  -31.4416   22.1576   -7.2784 H   0  0  0  0  0  0  0  0  0  0  0  0
  -33.2334   22.2041   -7.5656 H   0  0  0  0  0  0  0  0  0  0  0  0
  -31.5681   25.2060   -6.6457 H   0  0  0  0  0  0  0  0  0  0  0  0
  -31.5652   24.7401   -3.3855 H   0  0  0  0  0  0  0  0  0  0  0  0
  2  1  1  0
 14  2  2  0
  3  2  1  0
  5  3  2  0
  3  4  1  0
  6  5  1  0
 15  5  1  0
  7  6  1  0
  6 13  2  0
  8  7  1  0
  9  8  1  0
 11  9  2  0
 10  9  1  0
  9 12  1  0
 13 14  1  0
 15 16  2  0
 17 16  1  0
 18 17  1  0
 17 22  1  0
 19 18  1  0
 20 19  2  0
 19 21  1  0
 23 22  2  0
 22 24  1  0
  1 25  1  0
  1 26  1  0
  1 27  1  0
  4 28  1  0
  7 29  1  0
  7 30  1  0
 10 31  1  0
 12 32  1  0
 13 33  1  0
 14 34  1  0
 15 35  1  0
 17 36  1  0
 18 37  1  0
 18 38  1  0
 21 39  1  0
 24 40  1  0
A    1
C01
A    2
C02
A    3
C03
A    4
O04
A    5
C05
A    6
C06
A    7
C07
A    8
O08
A    9
P09
A   10
O10
A   11
O11
A   12
O12
A   13
C13
A   14
C14
A   15
C15
A   16
N16
A   17
C17
A   18
C18
A   19
C19
A   20
O20
A   21
O21
A   22
C22
A   23
O23
A   24
O24
M  END
