1E42_DTD_A_950
     RDKit          3D

 16 16  0  0  0  0  0  0  0  0999 V2000
    3.6330  -10.1420   28.7700 S   0  0  0  0  0  0  0  0  0  0  0  0
    3.5570  -11.6010   29.8410 C   0  0  0  0  0  0  0  0  0  0  0  0
    4.9430  -12.1420   30.1650 C   0  0  0  0  0  0  0  0  0  0  0  0
    4.7660  -13.3080   30.9410 O   0  0  0  0  0  0  0  0  0  0  0  0
    5.8780  -11.2210   30.9380 C   0  0  0  0  0  0  0  0  0  0  0  0
    7.1090  -11.9220   31.1180 O   0  0  0  0  0  0  0  0  0  0  0  0
    6.2290   -9.9260   30.2190 C   0  0  0  0  0  0  0  0  0  0  0  0
    4.7630   -8.9230   29.9330 S   0  0  0  0  0  0  0  0  0  0  0  0
    3.0541  -11.3267   30.7801 H   0  0  0  0  0  0  0  0  0  0  0  0
    3.0013  -12.3862   29.3075 H   0  0  0  0  0  0  0  0  0  0  0  0
    5.4296  -12.2967   29.1907 H   0  0  0  0  0  0  0  0  0  0  0  0
    4.8016  -13.0733   31.9021 H   0  0  0  0  0  0  0  0  0  0  0  0
    5.3561  -10.9541   31.8688 H   0  0  0  0  0  0  0  0  0  0  0  0
    7.2912  -12.0258   32.0855 H   0  0  0  0  0  0  0  0  0  0  0  0
    6.9399   -9.3552   30.8345 H   0  0  0  0  0  0  0  0  0  0  0  0
    6.6743  -10.1778   29.2452 H   0  0  0  0  0  0  0  0  0  0  0  0
  1  2  1  0
  1  8  1  0
  2  3  1  0
  3  4  1  0
  3  5  1  0
  5  6  1  0
  5  7  1  0
  7  8  1  0
  2  9  1  0
  2 10  1  0
  3 11  1  0
  4 12  1  0
  5 13  1  0
  6 14  1  0
  7 15  1  0
  7 16  1  0
A    1
S1
A    2
C1
A    3
C2
A    4
O2
A    5
C3
A    6
O3
A    7
C4
A    8
S4
M  END
