3QTI_3QT_A_1
     RDKit          3D

 42 46  0  0  0  0  0  0  0  0999 V2000
   12.8950   26.7010  -15.7680 C   0  0  0  0  0  0  0  0  0  0  0  0
   12.2710   27.4330  -14.8030 N   0  0  0  0  0  0  0  0  0  0  0  0
   12.2100   25.6260  -16.3870 C   0  0  0  0  0  0  0  0  0  0  0  0
   16.2280   22.6330  -17.6010 N   0  0  0  0  0  0  0  0  0  0  0  0
   12.8310   24.8610  -17.4040 C   0  0  0  0  0  0  0  0  0  0  0  0
   17.1110   23.5310  -17.0700 N   0  0  0  0  0  0  0  0  0  0  0  0
   14.1710   25.1290  -17.7900 C   0  0  0  0  0  0  0  0  0  0  0  0
   20.1790   25.8430  -15.3800 N   0  0  0  0  0  0  0  0  0  0  0  0
   14.8480   24.3290  -18.8940 C   0  0  0  0  0  0  0  0  0  0  0  0
   20.7550   24.8170  -14.7140 N   0  0  0  0  0  0  0  0  0  0  0  0
   15.1780   22.9410  -18.4430 C   0  0  0  0  0  0  0  0  0  0  0  0
   15.1800   20.6930  -18.0700 N   0  0  0  0  0  0  0  0  0  0  0  0
   18.0450   22.9740  -16.2770 C   0  0  0  0  0  0  0  0  0  0  0  0
   19.0320   23.9190  -15.7360 C   0  0  0  0  0  0  0  0  0  0  0  0
   19.1550   25.3070  -16.0280 C   0  0  0  0  0  0  0  0  0  0  0  0
   20.0930   23.6300  -14.9220 C   0  0  0  0  0  0  0  0  0  0  0  0
   21.9520   25.0550  -13.9380 C   0  0  0  0  0  0  0  0  0  0  0  0
   18.1130   21.5670  -16.0080 C   0  0  0  0  0  0  0  0  0  0  0  0
   17.1980   20.7030  -16.5620 C   0  0  0  0  0  0  0  0  0  0  0  0
   16.1870   21.2340  -17.4020 C   0  0  0  0  0  0  0  0  0  0  0  0
   14.5490   21.7550  -18.7070 C   0  0  0  0  0  0  0  0  0  0  0  0
   14.8910   26.1790  -17.1570 C   0  0  0  0  0  0  0  0  0  0  0  0
   14.2540   26.9650  -16.1600 C   0  0  0  0  0  0  0  0  0  0  0  0
   14.9670   27.9880  -15.4960 C   0  0  0  0  0  0  0  0  0  0  0  0
   14.3150   28.7300  -14.4810 C   0  0  0  0  0  0  0  0  0  0  0  0
   12.9660   28.4180  -14.1810 C   0  0  0  0  0  0  0  0  0  0  0  0
   11.1839   25.3830  -16.0738 H   0  0  0  0  0  0  0  0  0  0  0  0
   12.2714   24.0534  -17.8985 H   0  0  0  0  0  0  0  0  0  0  0  0
   14.1720   24.2721  -19.7599 H   0  0  0  0  0  0  0  0  0  0  0  0
   15.7863   24.8367  -19.1619 H   0  0  0  0  0  0  0  0  0  0  0  0
   18.4872   25.8620  -16.7033 H   0  0  0  0  0  0  0  0  0  0  0  0
   20.3627   22.6443  -14.5150 H   0  0  0  0  0  0  0  0  0  0  0  0
   21.7097   25.0068  -12.8661 H   0  0  0  0  0  0  0  0  0  0  0  0
   22.7035   24.2887  -14.1788 H   0  0  0  0  0  0  0  0  0  0  0  0
   22.3532   26.0505  -14.1788 H   0  0  0  0  0  0  0  0  0  0  0  0
   18.9046   21.1753  -15.3523 H   0  0  0  0  0  0  0  0  0  0  0  0
   17.2494   19.6233  -16.3579 H   0  0  0  0  0  0  0  0  0  0  0  0
   13.6570   21.6547  -19.3428 H   0  0  0  0  0  0  0  0  0  0  0  0
   15.9351   26.3814  -17.4377 H   0  0  0  0  0  0  0  0  0  0  0  0
   16.0118   28.2048  -15.7630 H   0  0  0  0  0  0  0  0  0  0  0  0
   14.8428   29.5286  -13.9391 H   0  0  0  0  0  0  0  0  0  0  0  0
   12.4556   29.0050  -13.4032 H   0  0  0  0  0  0  0  0  0  0  0  0
  3  1  1  0
 23  1  1  0
  1  2  2  0
  2 26  1  0
  5  3  2  0
 11  4  1  0
  4 20  1  0
  4  6  1  0
  7  5  1  0
  6 13  2  0
  9  7  1  0
  7 22  2  0
 15  8  2  0
  8 10  1  0
  9 11  1  0
 16 10  1  0
 10 17  1  0
 21 11  2  0
 21 12  1  0
 12 20  2  0
 13 18  1  0
 13 14  1  0
 15 14  1  0
 14 16  2  0
 19 18  2  0
 20 19  1  0
 22 23  1  0
 23 24  2  0
 24 25  1  0
 25 26  2  0
  3 27  1  0
  5 28  1  0
  9 29  1  0
  9 30  1  0
 15 31  1  0
 16 32  1  0
 17 33  1  0
 17 34  1  0
 17 35  1  0
 18 36  1  0
 19 37  1  0
 21 38  1  0
 22 39  1  0
 24 40  1  0
 25 41  1  0
 26 42  1  0
A    1
C1
A    2
N1
A    3
C2
A    4
N2
A    5
C3
A    6
N3
A    7
C4
A    8
N4
A    9
C5
A   10
N5
A   11
C6
A   12
N6
A   13
C7
A   14
C8
A   15
C9
A   16
C10
A   17
C11
A   18
C12
A   19
C13
A   20
C14
A   21
C15
A   22
C16
A   23
C17
A   24
C18
A   25
C19
A   26
C20
M  END
