3QV7_QV7_D_503
     RDKit          3D

 59 62  0  0  0  0  0  0  0  0999 V2000
  -20.0790   -0.5740   53.7740 O   0  0  0  0  0  0  0  0  0  0  0  0
  -19.5400   -2.2690   52.0990 O   0  0  0  0  0  0  0  0  0  0  0  0
  -29.3060    6.0760   50.6790 O   0  0  0  0  0  0  0  0  0  0  0  0
  -29.8930    7.8660   52.2460 O   0  0  0  0  0  0  0  0  0  0  0  0
  -28.8690    2.1320   52.7750 O   0  0  0  0  0  0  0  0  0  0  0  0
  -29.7710   -0.0370   52.0920 O   0  0  0  0  0  0  0  0  0  0  0  0
  -24.5030    7.8050   58.2920 O   0  0  0  0  0  0  0  0  0  0  0  0
  -26.4550    7.1620   59.6060 O   0  0  0  0  0  0  0  0  0  0  0  0
  -25.4630    3.6810   58.3020 O   0  0  0  0  0  0  0  0  0  0  0  0
  -20.7590   -0.3000   51.4990 O   0  0  0  0  0  0  0  0  0  0  0  0
  -27.7620    7.8290   51.1660 O   0  0  0  0  0  0  0  0  0  0  0  0
  -30.3170    0.8950   54.2190 O   0  0  0  0  0  0  0  0  0  0  0  0
  -24.5250    5.7500   59.5230 O   0  0  0  0  0  0  0  0  0  0  0  0
  -25.7600   -1.4770   55.0510 C   0  0  0  0  0  0  0  0  0  0  0  0
  -23.8390   -2.6410   54.4080 C   0  0  0  0  0  0  0  0  0  0  0  0
  -23.9020   -3.4560   52.1420 C   0  0  0  0  0  0  0  0  0  0  0  0
  -25.8700   -0.1070   55.2720 C   0  0  0  0  0  0  0  0  0  0  0  0
  -22.6390   -1.9940   54.1370 C   0  0  0  0  0  0  0  0  0  0  0  0
  -22.7020   -2.8090   51.8710 C   0  0  0  0  0  0  0  0  0  0  0  0
  -28.0950    4.6780   52.9690 C   0  0  0  0  0  0  0  0  0  0  0  0
  -27.5640    3.9230   54.0060 C   0  0  0  0  0  0  0  0  0  0  0  0
  -27.7790   -1.4120   53.7550 C   0  0  0  0  0  0  0  0  0  0  0  0
  -27.5770    6.6990   54.1710 C   0  0  0  0  0  0  0  0  0  0  0  0
  -26.5210    6.5690   56.3290 C   0  0  0  0  0  0  0  0  0  0  0  0
  -25.6210   -4.0020   53.6580 N   0  0  0  0  0  0  0  0  0  0  0  0
  -26.6400   -3.4410   54.0630 N   0  0  0  0  0  0  0  0  0  0  0  0
  -26.9800    1.9430   54.9830 N   0  0  0  0  0  0  0  0  0  0  0  0
  -26.5240    2.4500   56.0180 N   0  0  0  0  0  0  0  0  0  0  0  0
  -24.4750   -3.3680   53.4070 C   0  0  0  0  0  0  0  0  0  0  0  0
  -26.7170   -2.1310   54.2850 C   0  0  0  0  0  0  0  0  0  0  0  0
  -25.9840    4.4160   57.2830 C   0  0  0  0  0  0  0  0  0  0  0  0
  -26.9370    0.6220   54.7490 C   0  0  0  0  0  0  0  0  0  0  0  0
  -22.0710   -2.0780   52.8700 C   0  0  0  0  0  0  0  0  0  0  0  0
  -28.1020    6.0650   53.0510 C   0  0  0  0  0  0  0  0  0  0  0  0
  -27.8950   -0.0430   53.9720 C   0  0  0  0  0  0  0  0  0  0  0  0
  -25.9910    5.8110   57.3650 C   0  0  0  0  0  0  0  0  0  0  0  0
  -26.5210    3.7830   56.1580 C   0  0  0  0  0  0  0  0  0  0  0  0
  -27.0460    5.9410   55.2090 C   0  0  0  0  0  0  0  0  0  0  0  0
  -27.0400    4.5540   55.1260 C   0  0  0  0  0  0  0  0  0  0  0  0
  -20.5610   -1.2630   52.5350 S   0  0  0  0  0  0  0  0  0  0  0  0
  -28.7770    7.0030   51.7330 S   0  0  0  0  0  0  0  0  0  0  0  0
  -29.2730    0.7710   53.2530 S   0  0  0  0  0  0  0  0  0  0  0  0
  -25.3360    6.6460   58.7570 S   0  0  0  0  0  0  0  0  0  0  0  0
  -20.4155   -1.0550   54.5712 H   0  0  0  0  0  0  0  0  0  0  0  0
  -29.7474    5.3024   51.1113 H   0  0  0  0  0  0  0  0  0  0  0  0
  -24.1511    8.2946   59.0772 H   0  0  0  0  0  0  0  0  0  0  0  0
  -25.6448    3.9375   59.2407 H   0  0  0  0  0  0  0  0  0  0  0  0
  -29.9312    0.8492   55.1296 H   0  0  0  0  0  0  0  0  0  0  0  0
  -24.9185   -2.0397   55.4813 H   0  0  0  0  0  0  0  0  0  0  0  0
  -24.2847   -2.5783   55.4117 H   0  0  0  0  0  0  0  0  0  0  0  0
  -24.4003   -4.0395   51.3539 H   0  0  0  0  0  0  0  0  0  0  0  0
  -25.1030    0.4084   55.8687 H   0  0  0  0  0  0  0  0  0  0  0  0
  -22.1375   -1.4144   54.9260 H   0  0  0  0  0  0  0  0  0  0  0  0
  -22.2533   -2.8755   50.8689 H   0  0  0  0  0  0  0  0  0  0  0  0
  -28.5105    4.1778   52.0818 H   0  0  0  0  0  0  0  0  0  0  0  0
  -27.5585    2.8250   53.9402 H   0  0  0  0  0  0  0  0  0  0  0  0
  -28.5400   -1.9321   53.1547 H   0  0  0  0  0  0  0  0  0  0  0  0
  -27.5815    7.7971   54.2361 H   0  0  0  0  0  0  0  0  0  0  0  0
  -26.5245    7.6669   56.3965 H   0  0  0  0  0  0  0  0  0  0  0  0
 40  1  1  0
  2 40  2  0
 41  3  1  0
  4 41  2  0
  5 42  2  0
  6 42  2  0
  7 43  1  0
  8 43  2  0
  9 31  1  0
 40 10  2  0
 11 41  2  0
 42 12  1  0
 13 43  2  0
 17 14  2  0
 30 14  1  0
 15 29  2  0
 15 18  1  0
 29 16  1  0
 16 19  2  0
 32 17  1  0
 18 33  2  0
 33 19  1  0
 21 20  2  0
 34 20  1  0
 39 21  1  0
 35 22  1  0
 22 30  2  0
 38 23  1  0
 23 34  2  0
 36 24  1  0
 24 38  2  0
 26 25  2  0
 25 29  1  0
 30 26  1  0
 28 27  2  0
 27 32  1  0
 37 28  1  0
 36 31  2  0
 31 37  1  0
 35 32  2  0
 33 40  1  0
 34 41  1  0
 42 35  1  0
 43 36  1  0
 37 39  2  0
 38 39  1  0
  1 44  1  0
  3 45  1  0
  7 46  1  0
  9 47  1  0
 12 48  1  0
 14 49  1  0
 15 50  1  0
 16 51  1  0
 17 52  1  0
 18 53  1  0
 19 54  1  0
 20 55  1  0
 21 56  1  0
 22 57  1  0
 23 58  1  0
 24 59  1  0
A    1
OAA
A    2
OAB
A    3
OAC
A    4
OAD
A    5
OAE
A    6
OAF
A    7
OAG
A    8
OAH
A    9
OAI
A   10
OAJ
A   11
OAK
A   12
OAL
A   13
OAM
A   14
CAN
A   15
CAO
A   16
CAP
A   17
CAQ
A   18
CAR
A   19
CAS
A   20
CAT
A   21
CAU
A   22
CAV
A   23
CAW
A   24
CAX
A   25
NAY
A   26
NAZ
A   27
NBA
A   28
NBB
A   29
CBC
A   30
CBD
A   31
CBE
A   32
CBF
A   33
CBG
A   34
CBH
A   35
CBI
A   36
CBJ
A   37
CBK
A   38
CBL
A   39
CBM
A   40
SBN
A   41
SBO
A   42
SBP
A   43
SBQ
M  END
