3QV8_S62_D_499
     RDKit          3D

 22 23  0  0  0  0  0  0  0  0999 V2000
  -10.4490  -23.2060   14.9990 C   0  0  0  0  0  0  0  0  0  0  0  0
  -11.5690  -23.1400   14.1970 C   0  0  0  0  0  0  0  0  0  0  0  0
  -11.3770  -22.8310   12.7490 C   0  0  0  0  0  0  0  0  0  0  0  0
  -10.1120  -22.6130   12.2130 C   0  0  0  0  0  0  0  0  0  0  0  0
   -9.0220  -22.6960   13.0810 C   0  0  0  0  0  0  0  0  0  0  0  0
   -9.1910  -22.9890   14.4460 C   0  0  0  0  0  0  0  0  0  0  0  0
  -12.8220  -22.7830   11.9060 S   0  0  0  0  0  0  0  0  0  0  0  0
  -13.6600  -23.1540   13.3920 C   0  0  0  0  0  0  0  0  0  0  0  0
  -12.8880  -23.3140   14.4910 N   0  0  0  0  0  0  0  0  0  0  0  0
  -15.2820  -23.3280   13.5640 S   0  0  0  0  0  0  0  0  0  0  0  0
  -15.5570  -24.7590   13.8220 O   0  0  0  0  0  0  0  0  0  0  0  0
  -15.9950  -22.8780   12.3480 O   0  0  0  0  0  0  0  0  0  0  0  0
  -15.7130  -22.5070   14.7160 O   0  0  0  0  0  0  0  0  0  0  0  0
   -7.9460  -23.0870   15.4410 S   0  0  0  0  0  0  0  0  0  0  0  0
   -6.7320  -23.4730   14.6830 O   0  0  0  0  0  0  0  0  0  0  0  0
   -8.2330  -24.1160   16.4760 O   0  0  0  0  0  0  0  0  0  0  0  0
   -7.7630  -21.7680   16.0930 O   0  0  0  0  0  0  0  0  0  0  0  0
  -10.5499  -23.4293   16.0714 H   0  0  0  0  0  0  0  0  0  0  0  0
   -9.9758  -22.3839   11.1458 H   0  0  0  0  0  0  0  0  0  0  0  0
   -8.0081  -22.5285   12.6885 H   0  0  0  0  0  0  0  0  0  0  0  0
  -15.4712  -22.9676   15.5583 H   0  0  0  0  0  0  0  0  0  0  0  0
   -8.1222  -23.7187   17.3760 H   0  0  0  0  0  0  0  0  0  0  0  0
  2  1  2  0
  6  1  1  0
  3  2  1  0
  2  9  1  0
  7  3  1  0
  4  3  2  0
  4  5  1  0
  5  6  2  0
  6 14  1  0
  7  8  1  0
  8 10  1  0
  8  9  2  0
 12 10  2  0
 10 11  2  0
 10 13  1  0
 15 14  2  0
 14 17  2  0
 14 16  1  0
  1 18  1  0
  4 19  1  0
  5 20  1  0
 13 21  1  0
 16 22  1  0
A    1
C1
A    2
C2
A    3
C3
A    4
C4
A    5
C5
A    6
C6
A    7
S13
A    8
C14
A    9
N15
A   10
S20
A   11
O22
A   12
O24
A   13
O26
A   14
S28
A   15
O30
A   16
O32
A   17
O34
M  END
