3QYW_6PB_A_359
     RDKit          3D

 25 27  0  0  0  0  0  0  0  0999 V2000
  -17.4300   14.3800   42.3330 N   0  0  0  0  0  0  0  0  0  0  0  0
  -18.5670   13.6490   42.3930 C   0  0  0  0  0  0  0  0  0  0  0  0
  -19.7550   14.2480   42.9010 N   0  0  0  0  0  0  0  0  0  0  0  0
  -18.5790   12.3740   41.9840 N   0  0  0  0  0  0  0  0  0  0  0  0
  -17.4250   11.8040   41.4930 C   0  0  0  0  0  0  0  0  0  0  0  0
  -16.2510   12.5250   41.4230 C   0  0  0  0  0  0  0  0  0  0  0  0
  -16.2670   13.8840   41.8640 C   0  0  0  0  0  0  0  0  0  0  0  0
  -15.2960   11.6810   40.9060 N   0  0  0  0  0  0  0  0  0  0  0  0
  -15.8570   10.4780   40.6560 C   0  0  0  0  0  0  0  0  0  0  0  0
  -17.1600   10.5400   41.0130 N   0  0  0  0  0  0  0  0  0  0  0  0
  -15.0640   14.7680   41.8580 C   0  0  0  0  0  0  0  0  0  0  0  0
  -15.2330   16.1410   41.7460 C   0  0  0  0  0  0  0  0  0  0  0  0
  -14.1240   16.9780   41.7540 C   0  0  0  0  0  0  0  0  0  0  0  0
  -14.3880   18.8910   41.5870 Br  0  0  0  0  0  0  0  0  0  0  0  0
  -12.8390   16.4540   41.8870 C   0  0  0  0  0  0  0  0  0  0  0  0
  -12.6680   15.0820   42.0050 C   0  0  0  0  0  0  0  0  0  0  0  0
  -13.7780   14.2380   41.9990 C   0  0  0  0  0  0  0  0  0  0  0  0
  -19.9005   14.3214   43.9180 H   0  0  0  0  0  0  0  0  0  0  0  0
  -20.4687   14.6079   42.2514 H   0  0  0  0  0  0  0  0  0  0  0  0
  -14.3103   11.9270   40.7365 H   0  0  0  0  0  0  0  0  0  0  0  0
  -15.3436    9.6008   40.2354 H   0  0  0  0  0  0  0  0  0  0  0  0
  -16.2432   16.5658   41.6511 H   0  0  0  0  0  0  0  0  0  0  0  0
  -11.9664   17.1237   41.8983 H   0  0  0  0  0  0  0  0  0  0  0  0
  -11.6569   14.6602   42.1033 H   0  0  0  0  0  0  0  0  0  0  0  0
  -13.6414   13.1517   42.1055 H   0  0  0  0  0  0  0  0  0  0  0  0
  7  1  2  0
  1  2  1  0
  4  2  2  0
  2  3  1  0
  5  4  1  0
 10  5  1  0
  6  5  2  0
  8  6  1  0
  6  7  1  0
 11  7  1  0
  9  8  1  0
  9 10  2  0
 12 11  2  0
 11 17  1  0
 12 13  1  0
 14 13  1  0
 13 15  2  0
 15 16  1  0
 17 16  2  0
  3 18  1  0
  3 19  1  0
  8 20  1  0
  9 21  1  0
 12 22  1  0
 15 23  1  0
 16 24  1  0
 17 25  1  0
A    1
N1
A    2
C2
A    3
N2
A    4
N3
A    5
C4
A    6
C5
A    7
C6
A    8
N7
A    9
C8
A   10
N9
A   11
C61
A   12
C62
A   13
C63
A   14
BR63
A   15
C64
A   16
C65
A   17
C66
M  END
