3R02_UNM_A_555
     RDKit          3D

 38 40  0  0  0  0  0  0  0  0999 V2000
   20.7180  -38.6020    0.8390 C   0  0  0  0  0  0  0  0  0  0  0  0
   19.0230  -37.5340    2.0420 C   0  0  0  0  0  0  0  0  0  0  0  0
   20.0680  -38.4750    2.0560 C   0  0  0  0  0  0  0  0  0  0  0  0
   18.7520  -36.7700    0.9030 C   0  0  0  0  0  0  0  0  0  0  0  0
   20.4420  -37.9490   -0.3510 C   0  0  0  0  0  0  0  0  0  0  0  0
   19.4000  -36.9570   -0.3280 C   0  0  0  0  0  0  0  0  0  0  0  0
   17.7960  -35.8540    1.0860 O   0  0  0  0  0  0  0  0  0  0  0  0
   18.1690  -37.0070    3.0720 C   0  0  0  0  0  0  0  0  0  0  0  0
   17.4610  -36.0250    2.3810 C   0  0  0  0  0  0  0  0  0  0  0  0
   16.3790  -35.2020    2.8340 C   0  0  0  0  0  0  0  0  0  0  0  0
   15.8860  -34.3610    2.0210 O   0  0  0  0  0  0  0  0  0  0  0  0
   15.8820  -35.4370    4.0440 O   0  0  0  0  0  0  0  0  0  0  0  0
   22.1270  -39.9960    0.6740 Br  0  0  0  0  0  0  0  0  0  0  0  0
   19.7050  -36.5090   -2.8550 C   0  0  0  0  0  0  0  0  0  0  0  0
   19.2250  -37.9060   -3.4430 C   0  0  0  0  0  0  0  0  0  0  0  0
   17.6750  -37.9430   -3.6260 C   0  0  0  0  0  0  0  0  0  0  0  0
   17.1310  -36.8660   -4.6520 C   0  0  0  0  0  0  0  0  0  0  0  0
   17.6660  -35.4520   -4.1710 C   0  0  0  0  0  0  0  0  0  0  0  0
   19.1850  -35.4500   -3.8400 C   0  0  0  0  0  0  0  0  0  0  0  0
   15.6810  -36.9290   -4.9170 N   0  0  0  0  0  0  0  0  0  0  0  0
   19.1320  -36.2350   -1.4740 N   0  0  0  0  0  0  0  0  0  0  0  0
   20.3434  -39.0554    2.9489 H   0  0  0  0  0  0  0  0  0  0  0  0
   20.9954  -38.1788   -1.2735 H   0  0  0  0  0  0  0  0  0  0  0  0
   18.0940  -37.3018    4.1291 H   0  0  0  0  0  0  0  0  0  0  0  0
   16.4026  -35.1909    4.8493 H   0  0  0  0  0  0  0  0  0  0  0  0
   20.7994  -36.4989   -2.7450 H   0  0  0  0  0  0  0  0  0  0  0  0
   19.7049  -38.0675   -4.4195 H   0  0  0  0  0  0  0  0  0  0  0  0
   19.5094  -38.6970   -2.7335 H   0  0  0  0  0  0  0  0  0  0  0  0
   17.3915  -38.9423   -3.9880 H   0  0  0  0  0  0  0  0  0  0  0  0
   17.2294  -37.7100   -2.6477 H   0  0  0  0  0  0  0  0  0  0  0  0
   17.5241  -37.0853   -5.6557 H   0  0  0  0  0  0  0  0  0  0  0  0
   17.4817  -34.7187   -4.9699 H   0  0  0  0  0  0  0  0  0  0  0  0
   17.1301  -35.1986   -3.2444 H   0  0  0  0  0  0  0  0  0  0  0  0
   19.4278  -34.4631   -3.4191 H   0  0  0  0  0  0  0  0  0  0  0  0
   19.6767  -35.6933   -4.7935 H   0  0  0  0  0  0  0  0  0  0  0  0
   15.1693  -36.9512   -4.0234 H   0  0  0  0  0  0  0  0  0  0  0  0
   15.3942  -36.0997   -5.4563 H   0  0  0  0  0  0  0  0  0  0  0  0
   18.4851  -35.4384   -1.3850 H   0  0  0  0  0  0  0  0  0  0  0  0
  5  1  2  0
 13  1  1  0
  1  3  1  0
  4  2  1  0
  2  3  2  0
  2  8  1  0
  6  4  2  0
  4  7  1  0
  5  6  1  0
 21  6  1  0
  7  9  1  0
  9  8  2  0
  9 10  1  0
 11 10  2  0
 10 12  1  0
 19 14  1  0
 15 14  1  0
 14 21  1  0
 16 15  1  0
 17 16  1  0
 20 17  1  0
 17 18  1  0
 18 19  1  0
  3 22  1  0
  5 23  1  0
  8 24  1  0
 12 25  1  0
 14 26  1  0
 15 27  1  0
 15 28  1  0
 16 29  1  0
 16 30  1  0
 17 31  1  0
 18 32  1  0
 18 33  1  0
 19 34  1  0
 19 35  1  0
 20 36  1  0
 20 37  1  0
 21 38  1  0
A    1
C01
A    2
C02
A    3
C03
A    4
C04
A    5
C05
A    6
C06
A    7
O07
A    8
C08
A    9
C09
A   10
C10
A   11
O11
A   12
O12
A   13
BR13
A   14
C14
A   15
C15
A   16
C16
A   17
C17
A   18
C18
A   19
C19
A   20
N20
A   21
N21
M  END
