3R0T_FU9_A_338
     RDKit          3D

 48 52  0  0  0  0  0  0  0  0999 V2000
   23.4210  -29.4780   10.4200 N   0  0  0  0  0  0  0  0  0  0  0  0
   23.4340  -28.4880   11.3390 C   0  0  0  0  0  0  0  0  0  0  0  0
   23.3100  -28.7500   12.6490 N   0  0  0  0  0  0  0  0  0  0  0  0
   23.1850  -30.0060   13.0720 C   0  0  0  0  0  0  0  0  0  0  0  0
   23.1470  -31.0450   12.1510 C   0  0  0  0  0  0  0  0  0  0  0  0
   23.2870  -30.7440   10.7970 C   0  0  0  0  0  0  0  0  0  0  0  0
   22.4640  -36.5470   15.3420 O   0  0  0  0  0  0  0  0  0  0  0  0
   22.0860  -37.2140   13.2680 O   0  0  0  0  0  0  0  0  0  0  0  0
   24.1160  -31.1230   20.2890 F   0  0  0  0  0  0  0  0  0  0  0  0
   22.0090  -30.9500   20.6960 F   0  0  0  0  0  0  0  0  0  0  0  0
   22.7140  -32.2580   19.1280 F   0  0  0  0  0  0  0  0  0  0  0  0
   22.5940  -27.5560   18.4090 C   0  0  0  0  0  0  0  0  0  0  0  0
   22.7770  -27.7610   17.0490 C   0  0  0  0  0  0  0  0  0  0  0  0
   22.6580  -28.6430   19.2690 C   0  0  0  0  0  0  0  0  0  0  0  0
   22.8000  -34.7250   12.2020 C   0  0  0  0  0  0  0  0  0  0  0  0
   22.9680  -33.4330   11.7210 C   0  0  0  0  0  0  0  0  0  0  0  0
   22.9730  -30.1300   17.4000 C   0  0  0  0  0  0  0  0  0  0  0  0
   22.7080  -33.8700   14.4480 C   0  0  0  0  0  0  0  0  0  0  0  0
   23.5000  -24.7620   11.5310 C   0  0  0  0  0  0  0  0  0  0  0  0
   24.8340  -25.3070   12.0630 C   0  0  0  0  0  0  0  0  0  0  0  0
   22.8850  -31.5200   14.8490 N   0  0  0  0  0  0  0  0  0  0  0  0
   22.9850  -29.1540   15.1960 N   0  0  0  0  0  0  0  0  0  0  0  0
   23.5800  -27.2160   10.9800 N   0  0  0  0  0  0  0  0  0  0  0  0
   22.4860  -36.3650   14.1010 C   0  0  0  0  0  0  0  0  0  0  0  0
   22.8770  -29.0440   16.5270 C   0  0  0  0  0  0  0  0  0  0  0  0
   22.7080  -34.9500   13.5740 C   0  0  0  0  0  0  0  0  0  0  0  0
   22.8430  -29.9250   18.7710 C   0  0  0  0  0  0  0  0  0  0  0  0
   23.0930  -30.2470   14.4320 C   0  0  0  0  0  0  0  0  0  0  0  0
   22.8740  -32.5680   13.9780 C   0  0  0  0  0  0  0  0  0  0  0  0
   22.9960  -32.3520   12.6090 C   0  0  0  0  0  0  0  0  0  0  0  0
   23.5980  -26.1970   12.0400 C   0  0  0  0  0  0  0  0  0  0  0  0
   22.9140  -31.1030   19.7470 C   0  0  0  0  0  0  0  0  0  0  0  0
   23.2865  -31.5488   10.0471 H   0  0  0  0  0  0  0  0  0  0  0  0
   22.5571  -35.7768   15.9570 H   0  0  0  0  0  0  0  0  0  0  0  0
   22.4009  -26.5461   18.7999 H   0  0  0  0  0  0  0  0  0  0  0  0
   22.8438  -26.8947   16.3745 H   0  0  0  0  0  0  0  0  0  0  0  0
   22.5614  -28.4874   20.3536 H   0  0  0  0  0  0  0  0  0  0  0  0
   22.7396  -35.5700   11.5004 H   0  0  0  0  0  0  0  0  0  0  0  0
   23.0792  -33.2593   10.6405 H   0  0  0  0  0  0  0  0  0  0  0  0
   23.1504  -31.1418   17.0065 H   0  0  0  0  0  0  0  0  0  0  0  0
   22.5752  -34.0447   15.5259 H   0  0  0  0  0  0  0  0  0  0  0  0
   23.3744  -24.5662   10.4559 H   0  0  0  0  0  0  0  0  0  0  0  0
   22.8644  -23.8944   11.7620 H   0  0  0  0  0  0  0  0  0  0  0  0
   25.6652  -25.5013   11.3692 H   0  0  0  0  0  0  0  0  0  0  0  0
   25.5522  -24.9914   12.8341 H   0  0  0  0  0  0  0  0  0  0  0  0
   22.9849  -28.2610   14.6828 H   0  0  0  0  0  0  0  0  0  0  0  0
   23.6776  -26.9524    9.9891 H   0  0  0  0  0  0  0  0  0  0  0  0
   23.0664  -26.7987   12.7919 H   0  0  0  0  0  0  0  0  0  0  0  0
  1  6  2  0
  1  2  1  0
 23  2  1  0
  2  3  2  0
  3  4  1  0
  5  4  2  0
  4 28  1  0
  6  5  1  0
  5 30  1  0
 24  7  1  0
  8 24  2  0
 32  9  1  0
 32 10  1  0
 11 32  1  0
 13 12  2  0
 12 14  1  0
 25 13  1  0
 27 14  2  0
 16 15  1  0
 15 26  2  0
 16 30  2  0
 25 17  2  0
 17 27  1  0
 26 18  1  0
 29 18  2  0
 19 31  1  0
 19 20  1  0
 31 20  1  0
 29 21  1  0
 28 21  2  0
 28 22  1  0
 22 25  1  0
 23 31  1  0
 26 24  1  0
 27 32  1  0
 30 29  1  0
  6 33  1  0
  7 34  1  0
 12 35  1  0
 13 36  1  0
 14 37  1  0
 15 38  1  0
 16 39  1  0
 17 40  1  0
 18 41  1  0
 19 42  1  0
 19 43  1  0
 20 44  1  0
 20 45  1  0
 22 46  1  0
 23 47  1  0
 31 48  1  0
A    1
N1
A    2
C2
A    3
N3
A    4
C4
A    5
C5
A    6
C6
A    7
OAA
A    8
OAB
A    9
FAC
A   10
FAD
A   11
FAE
A   12
CAF
A   13
CAG
A   14
CAH
A   15
CAI
A   16
CAJ
A   17
CAL
A   18
CAM
A   19
CAN
A   20
CAO
A   21
NAQ
A   22
NAS
A   23
NAT
A   24
CAU
A   25
CAV
A   26
CAW
A   27
CAX
A   28
CAZ
A   29
CBA
A   30
CBB
A   31
CBE
A   32
CBF
M  END
