3R1N_05B_A_1
     RDKit          3D

 51 56  0  0  0  0  0  0  0  0999 V2000
   16.8500    8.2710   12.7220 C   0  0  0  0  0  0  0  0  0  0  0  0
   17.4500    7.8940   11.3790 C   0  0  0  0  0  0  0  0  0  0  0  0
   16.5730    7.0240   10.5630 N   0  0  0  0  0  0  0  0  0  0  0  0
   15.2420    7.2660   10.3230 C   0  0  0  0  0  0  0  0  0  0  0  0
   18.9410    8.0020   14.7900 N   0  0  0  0  0  0  0  0  0  0  0  0
   16.8830    7.1000   13.6850 C   0  0  0  0  0  0  0  0  0  0  0  0
   17.6360    9.4600   13.3190 C   0  0  0  0  0  0  0  0  0  0  0  0
   19.0290    9.1750   13.9490 C   0  0  0  0  0  0  0  0  0  0  0  0
   18.3350    6.8140   14.1800 C   0  0  0  0  0  0  0  0  0  0  0  0
   14.6070    6.7170    9.3790 O   0  0  0  0  0  0  0  0  0  0  0  0
   15.3930    8.6770   12.3890 C   0  0  0  0  0  0  0  0  0  0  0  0
   14.6750    8.2680   11.2680 C   0  0  0  0  0  0  0  0  0  0  0  0
   13.4260    8.8780   11.3130 C   0  0  0  0  0  0  0  0  0  0  0  0
   13.4140    9.6470   12.4130 C   0  0  0  0  0  0  0  0  0  0  0  0
   14.6340    9.5220   13.0410 N   0  0  0  0  0  0  0  0  0  0  0  0
   12.3890   10.5580   12.9240 C   0  0  0  0  0  0  0  0  0  0  0  0
   11.1290   10.6720   12.3490 C   0  0  0  0  0  0  0  0  0  0  0  0
   10.2270   11.5530   12.9040 C   0  0  0  0  0  0  0  0  0  0  0  0
   10.5090   12.2820   13.9550 N   0  0  0  0  0  0  0  0  0  0  0  0
   11.7470   12.1670   14.4730 C   0  0  0  0  0  0  0  0  0  0  0  0
   12.6770   11.3270   13.9840 N   0  0  0  0  0  0  0  0  0  0  0  0
   12.0220   12.9800   15.6330 C   0  0  0  0  0  0  0  0  0  0  0  0
   11.4750   14.2490   15.6480 C   0  0  0  0  0  0  0  0  0  0  0  0
   11.6580   15.0920   16.7240 C   0  0  0  0  0  0  0  0  0  0  0  0
   12.8030   12.5270   16.6950 C   0  0  0  0  0  0  0  0  0  0  0  0
   13.0050   13.3920   17.7610 C   0  0  0  0  0  0  0  0  0  0  0  0
   12.4370   14.6830   17.7780 C   0  0  0  0  0  0  0  0  0  0  0  0
   12.7360   15.3400   18.9420 O   0  0  0  0  0  0  0  0  0  0  0  0
   13.2230   14.3110   19.8220 C   0  0  0  0  0  0  0  0  0  0  0  0
   13.6880   13.2470   18.9170 O   0  0  0  0  0  0  0  0  0  0  0  0
   17.6471    8.8172   10.8144 H   0  0  0  0  0  0  0  0  0  0  0  0
   18.3692    7.3255   11.5837 H   0  0  0  0  0  0  0  0  0  0  0  0
   16.9894    6.1790   10.1465 H   0  0  0  0  0  0  0  0  0  0  0  0
   19.8964    7.7525   15.0829 H   0  0  0  0  0  0  0  0  0  0  0  0
   16.2477    7.3315   14.5526 H   0  0  0  0  0  0  0  0  0  0  0  0
   16.5132    6.2074   13.1591 H   0  0  0  0  0  0  0  0  0  0  0  0
   17.7864   10.1908   12.5108 H   0  0  0  0  0  0  0  0  0  0  0  0
   17.0183    9.8000   14.1633 H   0  0  0  0  0  0  0  0  0  0  0  0
   19.3425   10.0385   14.5541 H   0  0  0  0  0  0  0  0  0  0  0  0
   19.7664    9.0025   13.1512 H   0  0  0  0  0  0  0  0  0  0  0  0
   18.9490    6.5001   13.3230 H   0  0  0  0  0  0  0  0  0  0  0  0
   18.2892    6.0215   14.9415 H   0  0  0  0  0  0  0  0  0  0  0  0
   12.6076    8.7544   10.5885 H   0  0  0  0  0  0  0  0  0  0  0  0
   14.9092   10.0209   13.8990 H   0  0  0  0  0  0  0  0  0  0  0  0
   10.8574   10.0710   11.4686 H   0  0  0  0  0  0  0  0  0  0  0  0
    9.2311   11.6479   12.4467 H   0  0  0  0  0  0  0  0  0  0  0  0
   10.8833   14.5927   14.7867 H   0  0  0  0  0  0  0  0  0  0  0  0
   11.1835   16.0843   16.7377 H   0  0  0  0  0  0  0  0  0  0  0  0
   13.2437   11.5192   16.6882 H   0  0  0  0  0  0  0  0  0  0  0  0
   14.0520   14.6869   20.4396 H   0  0  0  0  0  0  0  0  0  0  0  0
   12.4521   13.9587   20.5231 H   0  0  0  0  0  0  0  0  0  0  0  0
  1  2  1  0
  1  6  1  0
  1  7  1  0
  1 11  1  0
  2  3  1  0
  3  4  1  0
  4 10  2  0
  4 12  1  0
  5  8  1  0
  5  9  1  0
  6  9  1  0
  7  8  1  0
 11 12  2  0
 11 15  1  0
 12 13  1  0
 13 14  2  0
 14 15  1  0
 14 16  1  0
 16 17  2  0
 16 21  1  0
 17 18  1  0
 18 19  2  0
 19 20  1  0
 20 21  2  0
 20 22  1  0
 22 23  2  0
 22 25  1  0
 23 24  1  0
 24 27  2  0
 25 26  2  0
 26 27  1  0
 26 30  1  0
 27 28  1  0
 28 29  1  0
 29 30  1  0
  2 31  1  0
  2 32  1  0
  3 33  1  0
  5 34  1  0
  6 35  1  0
  6 36  1  0
  7 37  1  0
  7 38  1  0
  8 39  1  0
  8 40  1  0
  9 41  1  0
  9 42  1  0
 13 43  1  0
 15 44  1  0
 17 45  1  0
 18 46  1  0
 23 47  1  0
 24 48  1  0
 25 49  1  0
 29 50  1  0
 29 51  1  0
A    1
C1
A    2
C2
A    3
N3
A    4
C4
A    5
N5
A    6
C6
A    7
C7
A    8
C8
A    9
C9
A   10
O10
A   11
C11
A   12
C12
A   13
C13
A   14
C14
A   15
N15
A   16
C16
A   17
C17
A   18
C18
A   19
N19
A   20
C20
A   21
N21
A   22
C22
A   23
C23
A   24
C24
A   25
C25
A   26
C26
A   27
C27
A   28
O28
A   29
C29
A   30
O30
M  END
