3R21_D36_A_1
     RDKit          3D

 59 62  0  0  0  0  0  0  0  0999 V2000
    3.8050   34.6550    0.4860 S   0  0  0  0  0  0  0  0  0  0  0  0
    3.1210   35.8630   -0.4390 C   0  0  0  0  0  0  0  0  0  0  0  0
    2.7750   33.7570    1.1990 N   0  0  0  0  0  0  0  0  0  0  0  0
    4.7240   35.3070    1.4110 O   0  0  0  0  0  0  0  0  0  0  0  0
    1.6330   33.1370    0.4900 C   0  0  0  0  0  0  0  0  0  0  0  0
    1.5950   31.3110   -1.2840 N   0  0  0  0  0  0  0  0  0  0  0  0
    4.6400   33.8240   -0.3130 O   0  0  0  0  0  0  0  0  0  0  0  0
    2.0710   31.7210    0.0600 C   0  0  0  0  0  0  0  0  0  0  0  0
    3.2960   32.9040    6.6580 N   0  0  0  0  0  0  0  0  0  0  0  0
    2.9740   33.4980    2.5600 C   0  0  0  0  0  0  0  0  0  0  0  0
    4.7670   31.0750    6.8340 N   0  0  0  0  0  0  0  0  0  0  0  0
    3.9980   32.6040    3.0260 C   0  0  0  0  0  0  0  0  0  0  0  0
    6.2870   29.1630    7.2700 N   0  0  0  0  0  0  0  0  0  0  0  0
    4.1550   32.3740    4.4130 C   0  0  0  0  0  0  0  0  0  0  0  0
    6.7390   28.5080    8.4310 N   0  0  0  0  0  0  0  0  0  0  0  0
    3.2720   33.0160    5.3020 C   0  0  0  0  0  0  0  0  0  0  0  0
    3.8090   31.9770    8.7910 N   0  0  0  0  0  0  0  0  0  0  0  0
    3.9570   31.9880    7.4270 C   0  0  0  0  0  0  0  0  0  0  0  0
    2.1660   34.1140    3.4460 N   0  0  0  0  0  0  0  0  0  0  0  0
    5.4310   30.1550    7.5460 C   0  0  0  0  0  0  0  0  0  0  0  0
    6.8790   28.6170    6.0170 C   0  0  0  0  0  0  0  0  0  0  0  0
    7.9140   29.6720    5.5530 C   0  0  0  0  0  0  0  0  0  0  0  0
    7.7600   30.2560    4.1360 C   0  0  0  0  0  0  0  0  0  0  0  0
    8.0730   29.2710    3.0030 C   0  0  0  0  0  0  0  0  0  0  0  0
    6.7480   28.5410    2.6890 C   0  0  0  0  0  0  0  0  0  0  0  0
    6.3550   27.5440    3.8110 C   0  0  0  0  0  0  0  0  0  0  0  0
    5.7660   28.2610    5.0200 C   0  0  0  0  0  0  0  0  0  0  0  0
    6.1200   29.0930    9.4840 C   0  0  0  0  0  0  0  0  0  0  0  0
    5.3090   30.1340    8.9000 C   0  0  0  0  0  0  0  0  0  0  0  0
    4.4690   31.0760    9.5290 C   0  0  0  0  0  0  0  0  0  0  0  0
    2.2920   33.8700    4.7730 C   0  0  0  0  0  0  0  0  0  0  0  0
    2.6873   36.6289    0.2207 H   0  0  0  0  0  0  0  0  0  0  0  0
    3.8939   36.3208   -1.0738 H   0  0  0  0  0  0  0  0  0  0  0  0
    2.3308   35.4358   -1.0738 H   0  0  0  0  0  0  0  0  0  0  0  0
    0.7633   33.0742    1.1606 H   0  0  0  0  0  0  0  0  0  0  0  0
    1.3468   33.7379   -0.3858 H   0  0  0  0  0  0  0  0  0  0  0  0
    0.8183   30.6420   -1.1838 H   0  0  0  0  0  0  0  0  0  0  0  0
    1.2693   32.1404   -1.8006 H   0  0  0  0  0  0  0  0  0  0  0  0
    3.1705   31.6866    0.0603 H   0  0  0  0  0  0  0  0  0  0  0  0
    1.6184   31.0220    0.7787 H   0  0  0  0  0  0  0  0  0  0  0  0
    2.7421   33.6028    7.1734 H   0  0  0  0  0  0  0  0  0  0  0  0
    4.6586   32.0994    2.3056 H   0  0  0  0  0  0  0  0  0  0  0  0
    4.9477   31.7097    4.7878 H   0  0  0  0  0  0  0  0  0  0  0  0
    7.4103   27.6620    6.1427 H   0  0  0  0  0  0  0  0  0  0  0  0
    7.8655   30.5124    6.2610 H   0  0  0  0  0  0  0  0  0  0  0  0
    8.8698   29.1282    5.5256 H   0  0  0  0  0  0  0  0  0  0  0  0
    6.7213   30.5977    4.0166 H   0  0  0  0  0  0  0  0  0  0  0  0
    8.4941   31.0710    4.0528 H   0  0  0  0  0  0  0  0  0  0  0  0
    8.4300   29.8125    2.1146 H   0  0  0  0  0  0  0  0  0  0  0  0
    8.8622   28.5622    3.2943 H   0  0  0  0  0  0  0  0  0  0  0  0
    5.9477   29.2879    2.5810 H   0  0  0  0  0  0  0  0  0  0  0  0
    6.8863   27.9697    1.7592 H   0  0  0  0  0  0  0  0  0  0  0  0
    5.6089   26.8387    3.4162 H   0  0  0  0  0  0  0  0  0  0  0  0
    7.2639   27.0155    4.1345 H   0  0  0  0  0  0  0  0  0  0  0  0
    5.0338   27.6036    5.5117 H   0  0  0  0  0  0  0  0  0  0  0  0
    5.2734   29.1858    4.6852 H   0  0  0  0  0  0  0  0  0  0  0  0
    6.2145   28.8324   10.5485 H   0  0  0  0  0  0  0  0  0  0  0  0
    4.3564   31.0705   10.6232 H   0  0  0  0  0  0  0  0  0  0  0  0
    1.5951   34.3633    5.4665 H   0  0  0  0  0  0  0  0  0  0  0  0
  2  1  1  0
  7  1  2  0
  1  3  1  0
  1  4  2  0
  5  3  1  0
  3 10  1  0
  8  5  1  0
  6  8  1  0
 16  9  1  0
  9 18  1  0
 10 12  2  0
 10 19  1  0
 11 18  2  0
 11 20  1  0
 12 14  1  0
 21 13  1  0
 13 20  1  0
 13 15  1  0
 14 16  2  0
 15 28  2  0
 31 16  1  0
 18 17  1  0
 17 30  2  0
 19 31  2  0
 20 29  2  0
 27 21  1  0
 22 21  1  0
 23 22  1  0
 24 23  1  0
 25 24  1  0
 25 26  1  0
 26 27  1  0
 29 28  1  0
 29 30  1  0
  2 32  1  0
  2 33  1  0
  2 34  1  0
  5 35  1  0
  5 36  1  0
  6 37  1  0
  6 38  1  0
  8 39  1  0
  8 40  1  0
  9 41  1  0
 12 42  1  0
 14 43  1  0
 21 44  1  0
 22 45  1  0
 22 46  1  0
 23 47  1  0
 23 48  1  0
 24 49  1  0
 24 50  1  0
 25 51  1  0
 25 52  1  0
 26 53  1  0
 26 54  1  0
 27 55  1  0
 27 56  1  0
 28 57  1  0
 30 58  1  0
 31 59  1  0
A    1
S
A    2
C1
A    3
N1
A    4
O1
A    5
C2
A    6
N2
A    7
O2
A    8
C3
A    9
N3
A   10
C4
A   11
N4
A   12
C5
A   13
N5
A   14
C6
A   15
N6
A   16
C7
A   17
N7
A   18
C8
A   19
N8
A   20
C9
A   21
C10
A   22
C11
A   23
C12
A   24
C13
A   25
C14
A   26
C15
A   27
C16
A   28
C17
A   29
C18
A   30
C19
A   31
C20
M  END
