3R30_CD2_A_1
     RDKit          3D

 44 47  0  0  0  0  0  0  0  0999 V2000
    5.9390   18.8810   52.5480 C   0  0  0  0  0  0  0  0  0  0  0  0
    4.9620   18.2470   51.7720 C   0  0  0  0  0  0  0  0  0  0  0  0
    5.0220   18.3230   50.3850 C   0  0  0  0  0  0  0  0  0  0  0  0
    6.9780   19.5930   51.9440 C   0  0  0  0  0  0  0  0  0  0  0  0
    7.0390   19.6600   50.5590 C   0  0  0  0  0  0  0  0  0  0  0  0
    6.0680   19.0300   49.7860 C   0  0  0  0  0  0  0  0  0  0  0  0
    6.1390   19.1070   48.4010 C   0  0  0  0  0  0  0  0  0  0  0  0
    7.1780   19.8050   47.8160 C   0  0  0  0  0  0  0  0  0  0  0  0
    8.1090   20.4230   48.6430 C   0  0  0  0  0  0  0  0  0  0  0  0
    8.0300   20.3400   49.9730 N   0  0  0  0  0  0  0  0  0  0  0  0
    7.2960   19.9120   46.3360 C   0  0  0  0  0  0  0  0  0  0  0  0
    7.8120   21.0480   45.8240 N   0  0  0  0  0  0  0  0  0  0  0  0
    7.9560   21.2140   44.5090 C   0  0  0  0  0  0  0  0  0  0  0  0
    7.5700   20.2220   43.6260 C   0  0  0  0  0  0  0  0  0  0  0  0
    7.0420   19.0420   44.1080 C   0  0  0  0  0  0  0  0  0  0  0  0
    6.9040   18.8840   45.4820 C   0  0  0  0  0  0  0  0  0  0  0  0
    6.6120   18.0000   43.1440 C   0  0  0  0  0  0  0  0  0  0  0  0
    6.9170   17.9880   41.8030 C   0  0  0  0  0  0  0  0  0  0  0  0
    5.8280   16.9410   43.3920 N   0  0  0  0  0  0  0  0  0  0  0  0
    5.6660   16.2680   42.1800 N   0  0  0  0  0  0  0  0  0  0  0  0
    6.3330   16.8910   41.2150 C   0  0  0  0  0  0  0  0  0  0  0  0
    6.4610   16.5540   39.7610 C   0  0  0  0  0  0  0  0  0  0  0  0
    3.6530   15.0940   43.1350 C   0  0  0  0  0  0  0  0  0  0  0  0
    4.8540   15.0330   42.1840 C   0  0  0  0  0  0  0  0  0  0  0  0
    6.4420   15.3640   39.3480 O   0  0  0  0  0  0  0  0  0  0  0  0
    2.7730   16.1770   42.7560 N   0  0  0  0  0  0  0  0  0  0  0  0
    6.5990   17.5170   38.9690 O   0  0  0  0  0  0  0  0  0  0  0  0
    5.8882   18.8180   53.6450 H   0  0  0  0  0  0  0  0  0  0  0  0
    4.1481   17.6895   52.2586 H   0  0  0  0  0  0  0  0  0  0  0  0
    4.2556   17.8327   49.7668 H   0  0  0  0  0  0  0  0  0  0  0  0
    7.7393   20.0950   52.5591 H   0  0  0  0  0  0  0  0  0  0  0  0
    5.3766   18.6178   47.7769 H   0  0  0  0  0  0  0  0  0  0  0  0
    8.9320   20.9951   48.1898 H   0  0  0  0  0  0  0  0  0  0  0  0
    8.3863   22.1496   44.1224 H   0  0  0  0  0  0  0  0  0  0  0  0
    7.6836   20.3734   42.5424 H   0  0  0  0  0  0  0  0  0  0  0  0
    6.4875   17.9523   45.8926 H   0  0  0  0  0  0  0  0  0  0  0  0
    7.5313   18.7378   41.2829 H   0  0  0  0  0  0  0  0  0  0  0  0
    3.1017   14.1433   43.0862 H   0  0  0  0  0  0  0  0  0  0  0  0
    4.0139   15.2655   44.1599 H   0  0  0  0  0  0  0  0  0  0  0  0
    4.4818   14.8577   41.1638 H   0  0  0  0  0  0  0  0  0  0  0  0
    5.5047   14.2190   42.5362 H   0  0  0  0  0  0  0  0  0  0  0  0
    6.4300   14.6154   39.9957 H   0  0  0  0  0  0  0  0  0  0  0  0
    2.4036   16.6317   43.6032 H   0  0  0  0  0  0  0  0  0  0  0  0
    3.2970   16.8657   42.1974 H   0  0  0  0  0  0  0  0  0  0  0  0
  2  1  2  0
  4  1  1  0
  3  2  1  0
  6  3  2  0
  5  4  2  0
  6  5  1  0
 10  5  1  0
  7  6  1  0
  8  7  2  0
 11  8  1  0
  8  9  1  0
  9 10  2  0
 16 11  1  0
 12 11  2  0
 13 12  1  0
 14 13  2  0
 14 15  1  0
 17 15  1  0
 15 16  2  0
 18 17  1  0
 17 19  2  0
 21 18  2  0
 20 19  1  0
 21 20  1  0
 20 24  1  0
 22 21  1  0
 27 22  2  0
 25 22  1  0
 24 23  1  0
 26 23  1  0
  1 28  1  0
  2 29  1  0
  3 30  1  0
  4 31  1  0
  7 32  1  0
  9 33  1  0
 13 34  1  0
 14 35  1  0
 16 36  1  0
 18 37  1  0
 23 38  1  0
 23 39  1  0
 24 40  1  0
 24 41  1  0
 25 42  1  0
 26 43  1  0
 26 44  1  0
A    1
C1
A    2
C2
A    3
C3
A    4
C4
A    5
C5
A    6
C6
A    7
C7
A    8
C8
A    9
C9
A   10
N10
A   11
C11
A   12
N12
A   13
C13
A   14
C14
A   15
C15
A   16
C16
A   17
C17
A   18
C18
A   19
N19
A   20
N20
A   21
C21
A   22
C22
A   23
C23
A   24
C24
A   25
O25
A   26
N26
A   27
O27
M  END
