3R33_6ME_A_161
     RDKit          3D

 27 28  0  0  0  0  0  0  0  0999 V2000
    1.9780   -4.9060  -11.0050 N   0  0  0  0  0  0  0  0  0  0  0  0
    3.1370   -5.1580  -11.6660 C   0  0  0  0  0  0  0  0  0  0  0  0
    4.0210   -4.1600  -11.8660 N   0  0  0  0  0  0  0  0  0  0  0  0
    3.7950   -2.9100  -11.3570 C   0  0  0  0  0  0  0  0  0  0  0  0
    2.3510   -1.2800  -10.0490 C   0  0  0  0  0  0  0  0  0  0  0  0
    1.4860   -1.3130   -8.7910 C   0  0  0  0  0  0  0  0  0  0  0  0
    0.2440   -2.1790   -8.9670 C   0  0  0  0  0  0  0  0  0  0  0  0
    0.4500   -3.5390   -9.6340 C   0  0  0  0  0  0  0  0  0  0  0  0
    1.0560    0.1050   -8.4090 C   0  0  0  0  0  0  0  0  0  0  0  0
    2.6330   -2.6580  -10.6200 C   0  0  0  0  0  0  0  0  0  0  0  0
    1.7190   -3.6930  -10.4500 C   0  0  0  0  0  0  0  0  0  0  0  0
    3.3890   -6.3960  -12.1550 N   0  0  0  0  0  0  0  0  0  0  0  0
    4.7270   -1.9300  -11.5670 N   0  0  0  0  0  0  0  0  0  0  0  0
    3.3101   -0.8019   -9.8008 H   0  0  0  0  0  0  0  0  0  0  0  0
    1.7935   -0.7185  -10.8131 H   0  0  0  0  0  0  0  0  0  0  0  0
    2.0997   -1.7537   -7.9915 H   0  0  0  0  0  0  0  0  0  0  0  0
   -0.1832   -2.3574   -7.9692 H   0  0  0  0  0  0  0  0  0  0  0  0
   -0.4094   -1.6158   -9.6496 H   0  0  0  0  0  0  0  0  0  0  0  0
    0.4635   -4.3033   -8.8430 H   0  0  0  0  0  0  0  0  0  0  0  0
   -0.3782   -3.6471  -10.3498 H   0  0  0  0  0  0  0  0  0  0  0  0
    1.0281    0.1970   -7.3132 H   0  0  0  0  0  0  0  0  0  0  0  0
    1.7749    0.8293   -8.8196 H   0  0  0  0  0  0  0  0  0  0  0  0
    0.0559    0.3080   -8.8196 H   0  0  0  0  0  0  0  0  0  0  0  0
    3.5490   -7.1821  -11.5090 H   0  0  0  0  0  0  0  0  0  0  0  0
    3.4206   -6.5511  -13.1728 H   0  0  0  0  0  0  0  0  0  0  0  0
    5.1720   -1.4621  -10.7646 H   0  0  0  0  0  0  0  0  0  0  0  0
    4.9834   -1.6604  -12.5275 H   0  0  0  0  0  0  0  0  0  0  0  0
  2  1  2  0
  1 11  1  0
 12  2  1  0
  3  2  1  0
  3  4  2  0
 13  4  1  0
  4 10  1  0
 10  5  1  0
  5  6  1  0
  7  6  1  0
  6  9  1  0
  8  7  1  0
 11  8  1  0
 10 11  2  0
  5 14  1  0
  5 15  1  0
  6 16  1  0
  7 17  1  0
  7 18  1  0
  8 19  1  0
  8 20  1  0
  9 21  1  0
  9 22  1  0
  9 23  1  0
 12 24  1  0
 12 25  1  0
 13 26  1  0
 13 27  1  0
A    1
N1
A    2
C2
A    3
N3
A    4
C4
A    5
C5
A    6
C6
A    7
C7
A    8
C8
A    9
C13
A   10
C4A
A   11
C8A
A   12
NA2
A   13
NA4
M  END
