3R4O_FU3_A_901
     RDKit          3D

 55 58  0  0  0  0  0  0  0  0999 V2000
    2.6080  -32.4620   52.1280 C   0  0  0  0  0  0  0  0  0  0  0  0
    2.5760  -30.1940   51.1580 C   0  0  0  0  0  0  0  0  0  0  0  0
   -4.8090  -37.4940   46.1330 C   0  0  0  0  0  0  0  0  0  0  0  0
   -3.5660  -37.3770   47.0240 C   0  0  0  0  0  0  0  0  0  0  0  0
   -4.1400  -36.4260   45.2390 C   0  0  0  0  0  0  0  0  0  0  0  0
    0.4670  -33.5640   48.2470 C   0  0  0  0  0  0  0  0  0  0  0  0
    0.6760  -34.5380   46.0190 C   0  0  0  0  0  0  0  0  0  0  0  0
    2.7740  -36.6760   50.7540 C   0  0  0  0  0  0  0  0  0  0  0  0
    1.4940  -36.7130   49.9000 C   0  0  0  0  0  0  0  0  0  0  0  0
    2.8300  -35.3750   51.5370 C   0  0  0  0  0  0  0  0  0  0  0  0
    2.5080  -31.0630   52.2810 C   0  0  0  0  0  0  0  0  0  0  0  0
    2.7650  -33.0150   50.8320 C   0  0  0  0  0  0  0  0  0  0  0  0
    2.7380  -30.7290   49.8520 C   0  0  0  0  0  0  0  0  0  0  0  0
    1.8320  -33.3660   47.7180 C   0  0  0  0  0  0  0  0  0  0  0  0
    1.9760  -33.9070   46.4520 C   0  0  0  0  0  0  0  0  0  0  0  0
    2.8270  -32.1410   49.6560 C   0  0  0  0  0  0  0  0  0  0  0  0
    2.9450  -32.7390   48.2860 C   0  0  0  0  0  0  0  0  0  0  0  0
    4.1940  -33.2290   46.3570 C   0  0  0  0  0  0  0  0  0  0  0  0
   -3.5060  -35.9190   46.5330 C   0  0  0  0  0  0  0  0  0  0  0  0
   -1.5130  -34.7360   47.4220 C   0  0  0  0  0  0  0  0  0  0  0  0
    1.5050  -37.8160   48.8870 C   0  0  0  0  0  0  0  0  0  0  0  0
    5.4080  -33.1520   45.6790 N   0  0  0  0  0  0  0  0  0  0  0  0
    3.1270  -33.8650   45.7390 N   0  0  0  0  0  0  0  0  0  0  0  0
    4.1360  -32.6630   47.6160 N   0  0  0  0  0  0  0  0  0  0  0  0
   -2.1270  -35.4210   46.3760 N   0  0  0  0  0  0  0  0  0  0  0  0
   -0.2140  -34.2910   47.1910 N   0  0  0  0  0  0  0  0  0  0  0  0
   -2.0900  -34.5300   48.4990 O   0  0  0  0  0  0  0  0  0  0  0  0
    2.8660  -34.3600   50.5430 O   0  0  0  0  0  0  0  0  0  0  0  0
    1.6050  -39.0070   49.4920 F   0  0  0  0  0  0  0  0  0  0  0  0
    0.3670  -37.8090   48.1700 F   0  0  0  0  0  0  0  0  0  0  0  0
    2.5230  -37.6810   48.0180 F   0  0  0  0  0  0  0  0  0  0  0  0
    2.3010  -30.4160   53.8660 Cl  0  0  0  0  0  0  0  0  0  0  0  0
    2.8350  -29.6280   48.5130 Cl  0  0  0  0  0  0  0  0  0  0  0  0
    2.5644  -33.1196   53.0087 H   0  0  0  0  0  0  0  0  0  0  0  0
    2.5031  -29.1057   51.3005 H   0  0  0  0  0  0  0  0  0  0  0  0
   -5.7506  -37.1791   46.6065 H   0  0  0  0  0  0  0  0  0  0  0  0
   -5.1631  -38.4574   45.7374 H   0  0  0  0  0  0  0  0  0  0  0  0
   -3.7505  -37.4997   48.1014 H   0  0  0  0  0  0  0  0  0  0  0  0
   -2.7124  -38.0670   46.9516 H   0  0  0  0  0  0  0  0  0  0  0  0
   -3.4316  -36.8177   44.4942 H   0  0  0  0  0  0  0  0  0  0  0  0
   -4.7091  -35.7757   44.5585 H   0  0  0  0  0  0  0  0  0  0  0  0
   -0.0235  -32.5978   48.4363 H   0  0  0  0  0  0  0  0  0  0  0  0
    0.4575  -34.1015   49.2067 H   0  0  0  0  0  0  0  0  0  0  0  0
    0.2824  -34.0541   45.1130 H   0  0  0  0  0  0  0  0  0  0  0  0
    0.7721  -35.6028   45.7603 H   0  0  0  0  0  0  0  0  0  0  0  0
    2.7710  -37.5243   51.4542 H   0  0  0  0  0  0  0  0  0  0  0  0
    3.6529  -36.7432   50.0960 H   0  0  0  0  0  0  0  0  0  0  0  0
    0.6307  -36.8562   50.5664 H   0  0  0  0  0  0  0  0  0  0  0  0
    1.4329  -35.7608   49.3527 H   0  0  0  0  0  0  0  0  0  0  0  0
    1.9386  -35.2652   52.1721 H   0  0  0  0  0  0  0  0  0  0  0  0
    3.6985  -35.3304   52.2106 H   0  0  0  0  0  0  0  0  0  0  0  0
   -3.9353  -35.0793   47.0992 H   0  0  0  0  0  0  0  0  0  0  0  0
    6.2903  -33.0960   46.2074 H   0  0  0  0  0  0  0  0  0  0  0  0
    5.4235  -33.1510   44.6491 H   0  0  0  0  0  0  0  0  0  0  0  0
   -1.6186  -35.5794   45.4943 H   0  0  0  0  0  0  0  0  0  0  0  0
  1 12  2  0
  2 13  1  0
  3  5  1  0
  4  3  1  0
  4 19  1  0
  6 26  1  0
  6 14  1  0
  7 15  1  0
  8  9  1  0
  9 21  1  0
 10  8  1  0
 10 28  1  0
 11  1  1  0
 11  2  2  0
 12 28  1  0
 12 16  1  0
 13 16  2  0
 13 33  1  0
 14 15  2  0
 15 23  1  0
 16 17  1  0
 17 14  1  0
 17 24  2  0
 18 23  2  0
 18 22  1  0
 19  5  1  0
 19 25  1  0
 20 25  1  0
 20 26  1  0
 21 30  1  0
 21 31  1  0
 24 18  1  0
 26  7  1  0
 27 20  2  0
 29 21  1  0
 32 11  1  0
  1 34  1  0
  2 35  1  0
  3 36  1  0
  3 37  1  0
  4 38  1  0
  4 39  1  0
  5 40  1  0
  5 41  1  0
  6 42  1  0
  6 43  1  0
  7 44  1  0
  7 45  1  0
  8 46  1  0
  8 47  1  0
  9 48  1  0
  9 49  1  0
 10 50  1  0
 10 51  1  0
 19 52  1  0
 22 53  1  0
 22 54  1  0
 25 55  1  0
A    1
C1
A    2
C2
A    3
C3
A    4
C4
A    5
C5
A    6
C6
A    7
C7
A    8
C8
A    9
C9
A   10
C10
A   11
C11
A   12
C12
A   13
C13
A   14
C14
A   15
C15
A   16
C16
A   17
C17
A   18
C18
A   19
C19
A   20
C20
A   21
C21
A   22
N22
A   23
N23
A   24
N24
A   25
N25
A   26
N26
A   27
O27
A   28
O28
A   29
F29
A   30
F30
A   31
F31
A   32
CL32
A   33
CL33
M  END
