3R4P_FU7_A_901
     RDKit          3D

 55 58  0  0  0  0  0  0  0  0999 V2000
   13.7980   -1.0690   51.6670 C   0  0  0  0  0  0  0  0  0  0  0  0
   17.6490   -7.7760   54.3260 F   0  0  0  0  0  0  0  0  0  0  0  0
   16.3200   -4.7780   51.5020 N   0  0  0  0  0  0  0  0  0  0  0  0
   15.1890   -6.4590   52.6080 O   0  0  0  0  0  0  0  0  0  0  0  0
   12.8200   -0.7640   49.0780 Cl  0  0  0  0  0  0  0  0  0  0  0  0
   13.5680   -1.1720   53.0990 C   0  0  0  0  0  0  0  0  0  0  0  0
   19.3610   -8.2000   53.0490 F   0  0  0  0  0  0  0  0  0  0  0  0
   17.6520   -1.7480   49.9190 N   0  0  0  0  0  0  0  0  0  0  0  0
   14.7180   -1.2760   53.8670 O   0  0  0  0  0  0  0  0  0  0  0  0
    9.5430   -1.0160   53.3530 Cl  0  0  0  0  0  0  0  0  0  0  0  0
   12.2350   -1.1500   53.6100 C   0  0  0  0  0  0  0  0  0  0  0  0
   15.7850   -0.2460   50.4390 N   0  0  0  0  0  0  0  0  0  0  0  0
   11.1440   -1.0160   52.7260 C   0  0  0  0  0  0  0  0  0  0  0  0
   17.6880    0.5230   49.2410 N   0  0  0  0  0  0  0  0  0  0  0  0
   11.3450   -0.8830   51.3330 C   0  0  0  0  0  0  0  0  0  0  0  0
   17.2390   -6.9460   51.6660 N   0  0  0  0  0  0  0  0  0  0  0  0
   12.6590   -0.8990   50.8040 C   0  0  0  0  0  0  0  0  0  0  0  0
   16.9330   -2.3940   55.2400 N   0  0  0  0  0  0  0  0  0  0  0  0
   15.7320   -2.5560   51.1490 C   0  0  0  0  0  0  0  0  0  0  0  0
   16.7850   -3.6990   55.5360 N   0  0  0  0  0  0  0  0  0  0  0  0
   15.2560   -3.8190   51.7680 C   0  0  0  0  0  0  0  0  0  0  0  0
   17.4340   -4.1620   50.7390 C   0  0  0  0  0  0  0  0  0  0  0  0
   16.9730   -2.7310   50.5580 C   0  0  0  0  0  0  0  0  0  0  0  0
   17.0290   -0.5120   49.8800 C   0  0  0  0  0  0  0  0  0  0  0  0
   15.1460   -1.2730   51.0700 C   0  0  0  0  0  0  0  0  0  0  0  0
   16.1870   -6.0880   51.9660 C   0  0  0  0  0  0  0  0  0  0  0  0
   14.6380   -1.3760   55.2950 C   0  0  0  0  0  0  0  0  0  0  0  0
   16.0590   -1.4160   55.8500 C   0  0  0  0  0  0  0  0  0  0  0  0
   17.9490   -2.1400   54.3610 C   0  0  0  0  0  0  0  0  0  0  0  0
   18.4970   -3.3580   54.0640 C   0  0  0  0  0  0  0  0  0  0  0  0
   17.7430   -4.2820   54.8130 C   0  0  0  0  0  0  0  0  0  0  0  0
   17.2240   -8.3480   52.0910 C   0  0  0  0  0  0  0  0  0  0  0  0
   18.0880   -8.5660   53.3150 C   0  0  0  0  0  0  0  0  0  0  0  0
   18.0770  -10.0030   53.7890 C   0  0  0  0  0  0  0  0  0  0  0  0
   12.0589   -1.2375   54.6923 H   0  0  0  0  0  0  0  0  0  0  0  0
   18.1546    1.2558   49.7943 H   0  0  0  0  0  0  0  0  0  0  0  0
   17.7120    0.5607   48.2120 H   0  0  0  0  0  0  0  0  0  0  0  0
   10.4821   -0.7672   50.6607 H   0  0  0  0  0  0  0  0  0  0  0  0
   18.0454   -6.5887   51.1341 H   0  0  0  0  0  0  0  0  0  0  0  0
   14.3126   -4.1468   51.3069 H   0  0  0  0  0  0  0  0  0  0  0  0
   15.0520   -3.7075   52.8431 H   0  0  0  0  0  0  0  0  0  0  0  0
   18.3744   -4.2054   51.3081 H   0  0  0  0  0  0  0  0  0  0  0  0
   17.6428   -4.6736   49.7879 H   0  0  0  0  0  0  0  0  0  0  0  0
   14.1043   -0.5036   55.7001 H   0  0  0  0  0  0  0  0  0  0  0  0
   14.0918   -2.2866   55.5823 H   0  0  0  0  0  0  0  0  0  0  0  0
   15.9978   -1.6387   56.9255 H   0  0  0  0  0  0  0  0  0  0  0  0
   16.5002   -0.4331   55.6282 H   0  0  0  0  0  0  0  0  0  0  0  0
   18.2612   -1.1593   53.9729 H   0  0  0  0  0  0  0  0  0  0  0  0
   19.3399   -3.5688   53.3895 H   0  0  0  0  0  0  0  0  0  0  0  0
   17.9242   -5.3669   54.8031 H   0  0  0  0  0  0  0  0  0  0  0  0
   16.1898   -8.6389   52.3271 H   0  0  0  0  0  0  0  0  0  0  0  0
   17.6259   -8.9615   51.2712 H   0  0  0  0  0  0  0  0  0  0  0  0
   18.0768  -10.0263   54.8888 H   0  0  0  0  0  0  0  0  0  0  0  0
   17.1750  -10.5068   53.4114 H   0  0  0  0  0  0  0  0  0  0  0  0
   18.9712  -10.5205   53.4114 H   0  0  0  0  0  0  0  0  0  0  0  0
  1  6  1  0
  3 21  1  0
  3 26  1  0
  5 17  1  0
  6 11  2  0
  6  9  1  0
  7 33  1  0
  8 23  1  0
  9 27  1  0
 12 25  2  0
 13 10  1  0
 13 11  1  0
 14 24  1  0
 15 13  2  0
 16 26  1  0
 16 32  1  0
 17  1  2  0
 17 15  1  0
 18 20  1  0
 18 28  1  0
 19 21  1  0
 22  3  1  0
 23 19  2  0
 23 22  1  0
 24  8  2  0
 24 12  1  0
 25  1  1  0
 25 19  1  0
 26  4  2  0
 27 28  1  0
 29 18  1  0
 30 29  2  0
 30 31  1  0
 31 20  2  0
 32 33  1  0
 33  2  1  0
 33 34  1  0
 11 35  1  0
 14 36  1  0
 14 37  1  0
 15 38  1  0
 16 39  1  0
 21 40  1  0
 21 41  1  0
 22 42  1  0
 22 43  1  0
 27 44  1  0
 27 45  1  0
 28 46  1  0
 28 47  1  0
 29 48  1  0
 30 49  1  0
 31 50  1  0
 32 51  1  0
 32 52  1  0
 34 53  1  0
 34 54  1  0
 34 55  1  0
A    1
C1
A    2
F1
A    3
N1
A    4
O1
A    5
CL1
A    6
C2
A    7
F2
A    8
N2
A    9
O2
A   10
CL2
A   11
C3
A   12
N3
A   13
C4
A   14
N4
A   15
C5
A   16
N5
A   17
C6
A   18
N6
A   19
C7
A   20
N7
A   21
C8
A   22
C9
A   23
C10
A   24
C11
A   25
C12
A   26
C13
A   27
C14
A   28
C15
A   29
C16
A   30
C17
A   31
C18
A   32
C19
A   33
C20
A   34
C21
M  END
