1X8A_PZA_?_1
     RDKit          3D

 14 14  0  0  0  0  0  0  0  0999 V2000
   -6.9460    2.6360    5.3140 C   0  0  0  0  0  0  0  0  0  0  0  0
   -7.0460    3.8890    4.4470 N   0  0  0  0  0  0  0  0  0  0  0  0
   -7.3840    2.9470    6.6190 O   0  0  0  0  0  0  0  0  0  0  0  0
   -3.2820    1.6530    4.4410 C   0  0  0  0  0  0  0  0  0  0  0  0
   -3.3990    0.1570    4.7520 C   0  0  0  0  0  0  0  0  0  0  0  0
   -4.3430   -0.1280    5.8500 N   0  0  0  0  0  0  0  0  0  0  0  0
   -5.6630    0.5050    5.6680 C   0  0  0  0  0  0  0  0  0  0  0  0
   -5.5500    2.0060    5.3890 C   0  0  0  0  0  0  0  0  0  0  0  0
   -4.6670    2.2260    4.1590 N   0  0  0  0  0  0  0  0  0  0  0  0
   -7.1200    4.8165    4.8889 H   0  0  0  0  0  0  0  0  0  0  0  0
   -7.0394    3.8067    3.4203 H   0  0  0  0  0  0  0  0  0  0  0  0
   -2.3430    2.2258    4.4238 H   0  0  0  0  0  0  0  0  0  0  0  0
   -2.8388   -0.6218    4.2139 H   0  0  0  0  0  0  0  0  0  0  0  0
   -6.6176   -0.0384    5.7260 H   0  0  0  0  0  0  0  0  0  0  0  0
  1  2  1  0
  1  3  2  0
  1  8  1  0
  4  5  2  0
  4  9  1  0
  5  6  1  0
  6  7  2  0
  7  8  1  0
  8  9  2  0
  2 10  1  0
  2 11  1  0
  4 12  1  0
  5 13  1  0
  7 14  1  0
A    1
C
A    2
N1
A    3
O
A    4
C1
A    5
C2
A    6
N2
A    7
C3
A    8
C4
A    9
N3
M  END
