3R5M_MLO_A_1
     RDKit          3D

 38 39  0  0  0  0  0  0  0  0999 V2000
   13.6480   15.9580   21.3520 C   0  0  0  0  0  0  0  0  0  0  0  0
    8.1480   13.5200   15.3360 C   0  0  0  0  0  0  0  0  0  0  0  0
   16.6340   13.0950   15.4950 O   0  0  0  0  0  0  0  0  0  0  0  0
   15.6120   15.5820   14.4830 O   0  0  0  0  0  0  0  0  0  0  0  0
   14.5560   14.9270   21.1440 C   0  0  0  0  0  0  0  0  0  0  0  0
    9.5080   13.6920   14.8950 C   0  0  0  0  0  0  0  0  0  0  0  0
   17.4190   13.4560   17.7060 C   0  0  0  0  0  0  0  0  0  0  0  0
   13.3620   15.1520   13.8910 C   0  0  0  0  0  0  0  0  0  0  0  0
   17.2330   13.9680   18.9900 C   0  0  0  0  0  0  0  0  0  0  0  0
   12.1040   14.6250   14.1880 C   0  0  0  0  0  0  0  0  0  0  0  0
   15.0530   14.8040   18.3060 C   0  0  0  0  0  0  0  0  0  0  0  0
   12.9440   13.9090   16.3200 C   0  0  0  0  0  0  0  0  0  0  0  0
   15.8410   15.2140   20.6960 C   0  0  0  0  0  0  0  0  0  0  0  0
   10.5260   13.3870   15.8030 C   0  0  0  0  0  0  0  0  0  0  0  0
   16.4250   13.6130   16.7300 C   0  0  0  0  0  0  0  0  0  0  0  0
   14.4070   15.0580   14.8080 C   0  0  0  0  0  0  0  0  0  0  0  0
   16.0450   14.6430   19.2880 C   0  0  0  0  0  0  0  0  0  0  0  0
   11.8880   13.9950   15.4130 C   0  0  0  0  0  0  0  0  0  0  0  0
   15.2300   14.2980   17.0100 C   0  0  0  0  0  0  0  0  0  0  0  0
   14.2120   14.4360   16.0430 C   0  0  0  0  0  0  0  0  0  0  0  0
   12.6314   15.7324   21.7063 H   0  0  0  0  0  0  0  0  0  0  0  0
   13.9458   16.9998   21.1624 H   0  0  0  0  0  0  0  0  0  0  0  0
    7.3156   13.7482   14.6540 H   0  0  0  0  0  0  0  0  0  0  0  0
    7.9415   13.1604   16.3548 H   0  0  0  0  0  0  0  0  0  0  0  0
   17.0026   12.1814   15.3973 H   0  0  0  0  0  0  0  0  0  0  0  0
   16.2414   15.8557   15.1964 H   0  0  0  0  0  0  0  0  0  0  0  0
   14.2588   13.8850   21.3335 H   0  0  0  0  0  0  0  0  0  0  0  0
    9.7374   14.0503   13.8806 H   0  0  0  0  0  0  0  0  0  0  0  0
   18.3505   12.9262   17.4579 H   0  0  0  0  0  0  0  0  0  0  0  0
   13.5302   15.6466   12.9230 H   0  0  0  0  0  0  0  0  0  0  0  0
   18.0104   13.8425   19.7580 H   0  0  0  0  0  0  0  0  0  0  0  0
   11.2854   14.7065   13.4577 H   0  0  0  0  0  0  0  0  0  0  0  0
   14.1232   15.3351   18.5576 H   0  0  0  0  0  0  0  0  0  0  0  0
   12.7754   13.4103   17.2859 H   0  0  0  0  0  0  0  0  0  0  0  0
   15.9830   16.3045   20.6710 H   0  0  0  0  0  0  0  0  0  0  0  0
   16.5721   14.7582   21.3799 H   0  0  0  0  0  0  0  0  0  0  0  0
   10.2403   13.7744   16.7921 H   0  0  0  0  0  0  0  0  0  0  0  0
   10.6446   12.2934   15.8069 H   0  0  0  0  0  0  0  0  0  0  0  0
  1  5  2  3
  2  6  2  3
  3 15  1  0
  4 16  1  0
 13  5  1  0
  6 14  1  0
 15  7  2  0
  7  9  1  0
 10  8  2  0
  8 16  1  0
 17  9  2  0
 10 18  1  0
 19 11  2  0
 11 17  1  0
 18 12  2  0
 12 20  1  0
 17 13  1  0
 14 18  1  0
 19 15  1  0
 16 20  2  0
 20 19  1  0
  1 21  1  0
  1 22  1  0
  2 23  1  0
  2 24  1  0
  3 25  1  0
  4 26  1  0
  5 27  1  0
  6 28  1  0
  7 29  1  0
  8 30  1  0
  9 31  1  0
 10 32  1  0
 11 33  1  0
 12 34  1  0
 13 35  1  0
 13 36  1  0
 14 37  1  0
 14 38  1  0
A    1
CAA
A    2
CAB
A    3
OAC
A    4
OAD
A    5
CAE
A    6
CAF
A    7
CAG
A    8
CAH
A    9
CAI
A   10
CAJ
A   11
CAK
A   12
CAL
A   13
CAM
A   14
CAN
A   15
CAO
A   16
CAP
A   17
CAQ
A   18
CAR
A   19
CAS
A   20
CAT
M  END
