3R6T_LU1_A_307
     RDKit          3D

 61 65  0  0  0  0  0  0  0  0999 V2000
   -2.9410   13.6250   24.6430 O   0  0  0  0  0  0  0  0  0  0  0  0
   -1.8930   13.0690   24.8990 C   0  0  0  0  0  0  0  0  0  0  0  0
   -0.5610   13.7280   24.7390 C   0  0  0  0  0  0  0  0  0  0  0  0
    0.6500   13.1970   25.2320 C   0  0  0  0  0  0  0  0  0  0  0  0
    0.7370   12.0850   25.9710 O   0  0  0  0  0  0  0  0  0  0  0  0
    1.8390   13.9070   24.9680 C   0  0  0  0  0  0  0  0  0  0  0  0
    2.9820   13.3870   25.4530 O   0  0  0  0  0  0  0  0  0  0  0  0
    1.8010   15.0910   24.2490 C   0  0  0  0  0  0  0  0  0  0  0  0
   -0.5740   14.9170   24.0170 C   0  0  0  0  0  0  0  0  0  0  0  0
    0.5840   15.6400   23.7580 C   0  0  0  0  0  0  0  0  0  0  0  0
    0.5720   16.9080   22.9840 C   0  0  0  0  0  0  0  0  0  0  0  0
    1.4130   17.9580   23.3660 C   0  0  0  0  0  0  0  0  0  0  0  0
    1.4020   19.1640   22.6400 C   0  0  0  0  0  0  0  0  0  0  0  0
   -0.2800   17.0910   21.8930 C   0  0  0  0  0  0  0  0  0  0  0  0
   -0.2900   18.2420   21.1690 C   0  0  0  0  0  0  0  0  0  0  0  0
    0.5570   19.2690   21.5520 C   0  0  0  0  0  0  0  0  0  0  0  0
    0.5590   20.4000   20.8580 F   0  0  0  0  0  0  0  0  0  0  0  0
   -1.8850   11.8160   25.3220 N   0  0  0  0  0  0  0  0  0  0  0  0
   -3.1380   11.0530   25.3910 C   0  0  0  0  0  0  0  0  0  0  0  0
   -2.7850    9.5900   25.3230 C   0  0  0  0  0  0  0  0  0  0  0  0
   -3.3800    8.6950   24.5850 C   0  0  0  0  0  0  0  0  0  0  0  0
   -3.0380    7.2430   24.5690 C   0  0  0  0  0  0  0  0  0  0  0  0
   -3.6600    6.5470   23.3660 C   0  0  0  0  0  0  0  0  0  0  0  0
   -5.0690    6.2780   23.9180 C   0  0  0  0  0  0  0  0  0  0  0  0
   -5.8120    5.3300   23.1790 O   0  0  0  0  0  0  0  0  0  0  0  0
   -4.7010    5.8100   25.3370 C   0  0  0  0  0  0  0  0  0  0  0  0
   -3.5700    6.5650   25.7400 O   0  0  0  0  0  0  0  0  0  0  0  0
   -5.7750    6.0210   26.3210 N   0  0  0  0  0  0  0  0  0  0  0  0
   -6.2340    5.1340   27.2270 C   0  0  0  0  0  0  0  0  0  0  0  0
   -7.1700    5.8580   28.0110 C   0  0  0  0  0  0  0  0  0  0  0  0
   -7.2010    7.1570   27.6100 N   0  0  0  0  0  0  0  0  0  0  0  0
   -6.3500    7.2450   26.6210 C   0  0  0  0  0  0  0  0  0  0  0  0
   -5.9680    3.8220   27.3650 N   0  0  0  0  0  0  0  0  0  0  0  0
   -6.6490    3.2500   28.3570 C   0  0  0  0  0  0  0  0  0  0  0  0
   -7.5950    3.8350   29.1210 N   0  0  0  0  0  0  0  0  0  0  0  0
   -7.8840    5.1440   28.9360 C   0  0  0  0  0  0  0  0  0  0  0  0
   -8.9640    5.7630   29.7380 C   0  0  0  0  0  0  0  0  0  0  0  0
    0.7323   12.1457   26.9591 H   0  0  0  0  0  0  0  0  0  0  0  0
    3.1211   13.3237   26.4311 H   0  0  0  0  0  0  0  0  0  0  0  0
    2.7428   15.6238   24.0514 H   0  0  0  0  0  0  0  0  0  0  0  0
   -1.5339   15.2979   23.6381 H   0  0  0  0  0  0  0  0  0  0  0  0
    2.0815   17.8418   24.2318 H   0  0  0  0  0  0  0  0  0  0  0  0
    2.0508   20.0029   22.9320 H   0  0  0  0  0  0  0  0  0  0  0  0
   -0.9650   16.2781   21.6102 H   0  0  0  0  0  0  0  0  0  0  0  0
   -0.9548   18.3549   20.2999 H   0  0  0  0  0  0  0  0  0  0  0  0
   -0.9982   11.3743   25.6036 H   0  0  0  0  0  0  0  0  0  0  0  0
   -3.6577   11.2699   26.3359 H   0  0  0  0  0  0  0  0  0  0  0  0
   -3.8043   11.3286   24.5602 H   0  0  0  0  0  0  0  0  0  0  0  0
   -1.9508    9.2462   25.9522 H   0  0  0  0  0  0  0  0  0  0  0  0
   -4.1929    9.0351   23.9266 H   0  0  0  0  0  0  0  0  0  0  0  0
   -1.9397    7.1884   24.5405 H   0  0  0  0  0  0  0  0  0  0  0  0
   -3.6850    7.2018   22.4825 H   0  0  0  0  0  0  0  0  0  0  0  0
   -3.1203    5.6553   23.0143 H   0  0  0  0  0  0  0  0  0  0  0  0
   -5.7491    7.1415   23.8748 H   0  0  0  0  0  0  0  0  0  0  0  0
   -6.2866    4.7244   23.8020 H   0  0  0  0  0  0  0  0  0  0  0  0
   -4.5115    4.7270   25.3032 H   0  0  0  0  0  0  0  0  0  0  0  0
   -6.1182    8.1802   26.0902 H   0  0  0  0  0  0  0  0  0  0  0  0
   -6.4172    2.1970   28.5747 H   0  0  0  0  0  0  0  0  0  0  0  0
   -8.7441    5.6370   30.8084 H   0  0  0  0  0  0  0  0  0  0  0  0
   -9.0285    6.8352   29.5007 H   0  0  0  0  0  0  0  0  0  0  0  0
   -9.9217    5.2767   29.5007 H   0  0  0  0  0  0  0  0  0  0  0  0
  1  2  2  0
  3  2  1  0
  2 18  1  0
  9  3  1  0
  3  4  2  0
  6  4  1  0
  4  5  1  0
  8  6  2  0
  6  7  1  0
 10  8  1  0
 10  9  2  0
 11 10  1  0
 14 11  1  0
 11 12  2  0
 13 12  1  0
 16 13  2  0
 15 14  2  0
 15 16  1  0
 17 16  1  0
 18 19  1  0
 20 19  1  0
 21 20  2  0
 22 21  1  0
 23 22  1  0
 22 27  1  0
 23 24  1  0
 25 24  1  0
 24 26  1  0
 26 27  1  0
 26 28  1  0
 28 32  1  0
 28 29  1  0
 29 33  1  0
 29 30  2  0
 31 30  1  0
 30 36  1  0
 32 31  2  0
 33 34  2  0
 34 35  1  0
 36 35  2  0
 36 37  1  0
  5 38  1  0
  7 39  1  0
  8 40  1  0
  9 41  1  0
 12 42  1  0
 13 43  1  0
 14 44  1  0
 15 45  1  0
 18 46  1  0
 19 47  1  0
 19 48  1  0
 20 49  1  0
 21 50  1  0
 22 51  1  0
 23 52  1  0
 23 53  1  0
 24 54  1  0
 25 55  1  0
 26 56  1  0
 32 57  1  0
 34 58  1  0
 37 59  1  0
 37 60  1  0
 37 61  1  0
A    1
O14
A    2
C6
A    3
C2
A    4
C3
A    5
O20
A    6
C9
A    7
O21
A    8
C10
A    9
C4
A   10
C7
A   11
C13
A   12
C17
A   13
C24
A   14
C18
A   15
C25
A   16
C23
A   17
F26
A   18
N16
A   19
C27
A   20
C19
A   21
C15
A   22
C12
A   23
C11
A   24
C8
A   25
O22
A   26
C1
A   27
O5
A   28
N28
A   29
C29
A   30
C30
A   31
N31
A   32
C32
A   33
N33
A   34
C36
A   35
N35
A   36
C34
A   37
C37
M  END
