3R7O_M61_A_1
     RDKit          3D

 72 77  0  0  0  0  0  0  0  0999 V2000
   -4.4430   -8.3610  -16.5550 C   0  0  0  0  0  0  0  0  0  0  0  0
   -6.7760   -8.9240  -16.6650 N   0  0  0  0  0  0  0  0  0  0  0  0
   -5.1400   -6.4670  -13.1050 O   0  0  0  0  0  0  0  0  0  0  0  0
   -6.2770   -2.0310  -10.9750 S   0  0  0  0  0  0  0  0  0  0  0  0
   -5.5090   -9.0640  -17.0730 C   0  0  0  0  0  0  0  0  0  0  0  0
   -7.0070   -8.0380  -15.6860 C   0  0  0  0  0  0  0  0  0  0  0  0
   -5.9850   -7.3520  -15.0460 C   0  0  0  0  0  0  0  0  0  0  0  0
   -4.6860   -7.5210  -15.4870 C   0  0  0  0  0  0  0  0  0  0  0  0
   -8.4250   -7.9680  -15.3950 C   0  0  0  0  0  0  0  0  0  0  0  0
   -9.0930   -7.1100  -14.6220 C   0  0  0  0  0  0  0  0  0  0  0  0
   -8.6030   -5.9960  -13.8360 C   0  0  0  0  0  0  0  0  0  0  0  0
   -7.2920   -5.7020  -13.4960 C   0  0  0  0  0  0  0  0  0  0  0  0
   -6.1140   -6.5080  -13.8510 C   0  0  0  0  0  0  0  0  0  0  0  0
   -9.6010   -5.1370  -13.4290 C   0  0  0  0  0  0  0  0  0  0  0  0
   -9.3140   -4.0300  -12.6710 C   0  0  0  0  0  0  0  0  0  0  0  0
   -8.0170   -3.7730  -12.2890 C   0  0  0  0  0  0  0  0  0  0  0  0
   -7.0050   -4.6030  -12.7100 C   0  0  0  0  0  0  0  0  0  0  0  0
   -3.1130   -8.5120  -17.0850 C   0  0  0  0  0  0  0  0  0  0  0  0
   -6.5970   -0.5990  -13.2700 C   0  0  0  0  0  0  0  0  0  0  0  0
   -5.6540   -1.3440  -12.4150 N   0  0  0  0  0  0  0  0  0  0  0  0
   -4.6650   -2.1180  -13.1930 C   0  0  0  0  0  0  0  0  0  0  0  0
   -6.6320   -0.9440  -10.0820 O   0  0  0  0  0  0  0  0  0  0  0  0
   -5.3800   -3.0730  -10.5170 O   0  0  0  0  0  0  0  0  0  0  0  0
   -7.8160   -2.6250  -11.4540 N   0  0  0  0  0  0  0  0  0  0  0  0
   -3.3450   -1.3780  -13.1320 C   0  0  0  0  0  0  0  0  0  0  0  0
   -2.9840   -0.8320  -14.5000 C   0  0  0  0  0  0  0  0  0  0  0  0
   -1.7540   -0.1220  -14.4000 O   0  0  0  0  0  0  0  0  0  0  0  0
   -0.7300   -1.0250  -13.9920 C   0  0  0  0  0  0  0  0  0  0  0  0
   -1.0880   -1.5880  -12.6290 C   0  0  0  0  0  0  0  0  0  0  0  0
   -2.3250   -2.2860  -12.7230 O   0  0  0  0  0  0  0  0  0  0  0  0
   -2.7970   -9.2170  -18.2240 C   0  0  0  0  0  0  0  0  0  0  0  0
   -1.4530   -9.0340  -18.3850 N   0  0  0  0  0  0  0  0  0  0  0  0
   -0.8810   -8.2550  -17.4490 N   0  0  0  0  0  0  0  0  0  0  0  0
   -1.8950   -7.9380  -16.6440 C   0  0  0  0  0  0  0  0  0  0  0  0
   -0.6500   -9.5710  -19.4710 C   0  0  0  0  0  0  0  0  0  0  0  0
    0.3900  -10.5390  -18.9270 C   0  0  0  0  0  0  0  0  0  0  0  0
    1.4170  -10.9410  -19.9690 C   0  0  0  0  0  0  0  0  0  0  0  0
    2.0040   -9.7070  -20.5480 N   0  0  0  0  0  0  0  0  0  0  0  0
    0.9780   -8.8970  -21.2600 C   0  0  0  0  0  0  0  0  0  0  0  0
   -0.0140   -8.4150  -20.2220 C   0  0  0  0  0  0  0  0  0  0  0  0
   -5.3051   -9.7885  -17.8752 H   0  0  0  0  0  0  0  0  0  0  0  0
   -3.8568   -6.9930  -14.9934 H   0  0  0  0  0  0  0  0  0  0  0  0
   -9.0420   -8.7362  -15.8840 H   0  0  0  0  0  0  0  0  0  0  0  0
  -10.1798   -7.2730  -14.5742 H   0  0  0  0  0  0  0  0  0  0  0  0
  -10.6429   -5.3420  -13.7161 H   0  0  0  0  0  0  0  0  0  0  0  0
  -10.1214   -3.3471  -12.3682 H   0  0  0  0  0  0  0  0  0  0  0  0
   -5.9651   -4.3915  -12.4204 H   0  0  0  0  0  0  0  0  0  0  0  0
   -7.3032   -0.0411  -12.6375 H   0  0  0  0  0  0  0  0  0  0  0  0
   -6.0388    0.1046  -13.9051 H   0  0  0  0  0  0  0  0  0  0  0  0
   -7.1523   -1.3049  -13.9051 H   0  0  0  0  0  0  0  0  0  0  0  0
   -4.5511   -3.1224  -12.7592 H   0  0  0  0  0  0  0  0  0  0  0  0
   -4.9967   -2.2259  -14.2362 H   0  0  0  0  0  0  0  0  0  0  0  0
   -8.6504   -2.1227  -11.1188 H   0  0  0  0  0  0  0  0  0  0  0  0
   -3.4342   -0.5452  -12.4190 H   0  0  0  0  0  0  0  0  0  0  0  0
   -2.8746   -1.6627  -15.2127 H   0  0  0  0  0  0  0  0  0  0  0  0
   -3.7773   -0.1577  -14.8548 H   0  0  0  0  0  0  0  0  0  0  0  0
   -0.6484   -1.8449  -14.7207 H   0  0  0  0  0  0  0  0  0  0  0  0
    0.2333   -0.4968  -13.9366 H   0  0  0  0  0  0  0  0  0  0  0  0
   -0.2993   -2.2794  -12.2975 H   0  0  0  0  0  0  0  0  0  0  0  0
   -1.1800   -0.7676  -11.9020 H   0  0  0  0  0  0  0  0  0  0  0  0
   -3.4767   -9.7993  -18.8635 H   0  0  0  0  0  0  0  0  0  0  0  0
   -1.7981   -7.3081  -15.7474 H   0  0  0  0  0  0  0  0  0  0  0  0
   -1.2810  -10.1384  -20.1709 H   0  0  0  0  0  0  0  0  0  0  0  0
    0.9115  -10.0591  -18.0857 H   0  0  0  0  0  0  0  0  0  0  0  0
   -0.1378  -11.4510  -18.6113 H   0  0  0  0  0  0  0  0  0  0  0  0
    2.2080  -11.5432  -19.4981 H   0  0  0  0  0  0  0  0  0  0  0  0
    0.9398  -11.5395  -20.7590 H   0  0  0  0  0  0  0  0  0  0  0  0
    2.4095   -9.1412  -19.7889 H   0  0  0  0  0  0  0  0  0  0  0  0
    1.4536   -8.0371  -21.7543 H   0  0  0  0  0  0  0  0  0  0  0  0
    0.4739   -9.4974  -22.0316 H   0  0  0  0  0  0  0  0  0  0  0  0
   -0.8047   -7.8393  -20.7254 H   0  0  0  0  0  0  0  0  0  0  0  0
    0.5272   -7.7913  -19.4952 H   0  0  0  0  0  0  0  0  0  0  0  0
  1  5  1  0
  1  8  2  0
  1 18  1  0
  2  5  2  0
  2  6  1  0
  3 13  2  0
  4 20  1  0
  4 22  2  0
  4 23  2  0
  4 24  1  0
  6  7  2  0
  6  9  1  0
  7  8  1  0
  7 13  1  0
  9 10  2  0
 10 11  1  0
 11 12  2  0
 11 14  1  0
 12 13  1  0
 12 17  1  0
 14 15  2  0
 15 16  1  0
 16 17  2  0
 16 24  1  0
 18 31  2  0
 18 34  1  0
 19 20  1  0
 20 21  1  0
 21 25  1  0
 25 26  1  0
 25 30  1  0
 26 27  1  0
 27 28  1  0
 28 29  1  0
 29 30  1  0
 31 32  1  0
 32 33  1  0
 32 35  1  0
 33 34  2  0
 35 36  1  0
 35 40  1  0
 36 37  1  0
 37 38  1  0
 38 39  1  0
 39 40  1  0
  5 41  1  0
  8 42  1  0
  9 43  1  0
 10 44  1  0
 14 45  1  0
 15 46  1  0
 17 47  1  0
 19 48  1  0
 19 49  1  0
 19 50  1  0
 21 51  1  0
 21 52  1  0
 24 53  1  0
 25 54  1  0
 26 55  1  0
 26 56  1  0
 28 57  1  0
 28 58  1  0
 29 59  1  0
 29 60  1  0
 31 61  1  0
 34 62  1  0
 35 63  1  0
 36 64  1  0
 36 65  1  0
 37 66  1  0
 37 67  1  0
 38 68  1  0
 39 69  1  0
 39 70  1  0
 40 71  1  0
 40 72  1  0
A    1
C
A    2
N
A    3
O
A    4
S
A    5
C1
A    6
C2
A    7
C3
A    8
C4
A    9
C5
A   10
C6
A   11
C7
A   12
C8
A   13
C9
A   14
C10
A   15
C11
A   16
C12
A   17
C13
A   18
C14
A   19
C15
A   20
N16
A   21
C17
A   22
O18
A   23
O19
A   24
N20
A   25
C21
A   26
C22
A   27
O23
A   28
C24
A   29
C25
A   30
O26
A   31
C27
A   32
N28
A   33
N29
A   34
C30
A   35
C31
A   36
C32
A   37
C33
A   38
N34
A   39
C35
A   40
C36
M  END
