3R7R_FAZ_A_1
     RDKit          3D

 48 51  0  0  0  0  0  0  0  0999 V2000
   17.4960   62.8130   22.3220 C   0  0  0  0  0  0  0  0  0  0  0  0
   25.8180   61.7890   20.5530 N   0  0  0  0  0  0  0  0  0  0  0  0
   19.2330   60.2410   24.0950 O   0  0  0  0  0  0  0  0  0  0  0  0
   22.6460   62.0630   21.3280 S   0  0  0  0  0  0  0  0  0  0  0  0
   18.4950   63.4000   21.5640 C   0  0  0  0  0  0  0  0  0  0  0  0
   16.1810   63.2540   22.2660 N   0  0  0  0  0  0  0  0  0  0  0  0
   26.1110   60.3600   22.1660 O   0  0  0  0  0  0  0  0  0  0  0  0
   19.7780   62.9280   21.6530 C   0  0  0  0  0  0  0  0  0  0  0  0
   16.7630   65.3540   21.8460 O   0  0  0  0  0  0  0  0  0  0  0  0
   20.0950   61.8660   22.4760 C   0  0  0  0  0  0  0  0  0  0  0  0
   19.0650   61.2660   23.2460 C   0  0  0  0  0  0  0  0  0  0  0  0
   17.7910   61.7540   23.1500 C   0  0  0  0  0  0  0  0  0  0  0  0
   21.5060   61.4510   22.4680 C   0  0  0  0  0  0  0  0  0  0  0  0
   22.1460   60.5790   23.3110 C   0  0  0  0  0  0  0  0  0  0  0  0
   21.4670   59.8660   24.4370 C   0  0  0  0  0  0  0  0  0  0  0  0
   20.2120   59.2570   23.8630 C   0  0  0  0  0  0  0  0  0  0  0  0
   23.9540   61.1240   22.0030 C   0  0  0  0  0  0  0  0  0  0  0  0
   23.4680   60.4110   23.0360 C   0  0  0  0  0  0  0  0  0  0  0  0
   25.3370   61.0780   21.5740 C   0  0  0  0  0  0  0  0  0  0  0  0
   25.0190   62.6470   19.8230 C   0  0  0  0  0  0  0  0  0  0  0  0
   24.9780   63.9920   20.1220 C   0  0  0  0  0  0  0  0  0  0  0  0
   24.1690   64.8150   19.3650 C   0  0  0  0  0  0  0  0  0  0  0  0
   23.4020   64.3040   18.3170 C   0  0  0  0  0  0  0  0  0  0  0  0
   23.4480   62.9650   18.0240 C   0  0  0  0  0  0  0  0  0  0  0  0
   24.2630   62.1610   18.7830 C   0  0  0  0  0  0  0  0  0  0  0  0
   15.8860   64.5370   22.0200 C   0  0  0  0  0  0  0  0  0  0  0  0
   14.4420   64.9390   21.9760 C   0  0  0  0  0  0  0  0  0  0  0  0
   27.2280   61.6590   20.2350 C   0  0  0  0  0  0  0  0  0  0  0  0
   24.3410   60.4850   18.4390 Cl  0  0  0  0  0  0  0  0  0  0  0  0
   18.2599   64.2404   20.8943 H   0  0  0  0  0  0  0  0  0  0  0  0
   15.4163   62.5806   22.4168 H   0  0  0  0  0  0  0  0  0  0  0  0
   20.5707   63.4043   21.0573 H   0  0  0  0  0  0  0  0  0  0  0  0
   16.9888   61.2924   23.7445 H   0  0  0  0  0  0  0  0  0  0  0  0
   22.1221   59.0789   24.8385 H   0  0  0  0  0  0  0  0  0  0  0  0
   21.2335   60.5557   25.2615 H   0  0  0  0  0  0  0  0  0  0  0  0
   19.9578   58.3200   24.3800 H   0  0  0  0  0  0  0  0  0  0  0  0
   20.3113   58.9940   22.7995 H   0  0  0  0  0  0  0  0  0  0  0  0
   24.1028   59.7318   23.6239 H   0  0  0  0  0  0  0  0  0  0  0  0
   25.5783   64.4014   20.9478 H   0  0  0  0  0  0  0  0  0  0  0  0
   24.1281   65.8907   19.5913 H   0  0  0  0  0  0  0  0  0  0  0  0
   22.7609   64.9749   17.7263 H   0  0  0  0  0  0  0  0  0  0  0  0
   22.8480   62.5459   17.2028 H   0  0  0  0  0  0  0  0  0  0  0  0
   14.0596   65.0455   23.0019 H   0  0  0  0  0  0  0  0  0  0  0  0
   14.3445   65.8985   21.4469 H   0  0  0  0  0  0  0  0  0  0  0  0
   13.8627   64.1680   21.4469 H   0  0  0  0  0  0  0  0  0  0  0  0
   27.8105   61.6053   21.1665 H   0  0  0  0  0  0  0  0  0  0  0  0
   27.3886   60.7422   19.6487 H   0  0  0  0  0  0  0  0  0  0  0  0
   27.5536   62.5309   19.6487 H   0  0  0  0  0  0  0  0  0  0  0  0
  1 12  2  0
  2 19  1  0
  4 17  1  0
  4 13  1  0
  5  1  1  0
  5  8  2  0
  6  1  1  0
  8 10  1  0
  9 26  2  0
 10 13  1  0
 10 11  2  0
 11  3  1  0
 12 11  1  0
 13 14  2  0
 14 15  1  0
 16  3  1  0
 16 15  1  0
 17 18  2  0
 18 14  1  0
 19  7  2  0
 19 17  1  0
 20  2  1  0
 20 21  2  0
 22 21  1  0
 23 22  2  0
 24 23  1  0
 24 25  2  0
 25 20  1  0
 26  6  1  0
 26 27  1  0
 28  2  1  0
 25 29  1  0
  5 30  1  0
  6 31  1  0
  8 32  1  0
 12 33  1  0
 15 34  1  0
 15 35  1  0
 16 36  1  0
 16 37  1  0
 18 38  1  0
 21 39  1  0
 22 40  1  0
 23 41  1  0
 24 42  1  0
 27 43  1  0
 27 44  1  0
 27 45  1  0
 28 46  1  0
 28 47  1  0
 28 48  1  0
A    1
C1
A    2
N1
A    3
O1
A    4
S1
A    5
C2
A    6
N2
A    7
O2
A    8
C3
A    9
O3
A   10
C4
A   11
C5
A   12
C6
A   13
C7
A   14
C8
A   15
C9
A   16
C10
A   17
C11
A   18
C12
A   19
C13
A   20
C14
A   21
C15
A   22
C16
A   23
C17
A   24
C18
A   25
C19
A   26
C20
A   27
C21
A   28
C22
A   29
CL1
M  END
