3R88_14F_B_404
     RDKit          3D

 25 25  0  0  0  0  0  0  0  0999 V2000
   -8.2390  -29.4020    5.7910 C   0  0  0  0  0  0  0  0  0  0  0  0
   -4.4180  -32.1130    8.8800 C   0  0  0  0  0  0  0  0  0  0  0  0
   -3.5570  -28.2310    4.2100 N   0  0  0  0  0  0  0  0  0  0  0  0
   -0.9460  -30.0760    6.8140 O   0  0  0  0  0  0  0  0  0  0  0  0
   -1.2310  -28.6930    5.1150 O   0  0  0  0  0  0  0  0  0  0  0  0
   -5.4140  -29.2270    5.2580 C   0  0  0  0  0  0  0  0  0  0  0  0
   -3.6750  -30.4740    7.0460 C   0  0  0  0  0  0  0  0  0  0  0  0
   -7.2800  -30.2860    6.4060 O   0  0  0  0  0  0  0  0  0  0  0  0
   -5.5040  -31.4810    8.1340 O   0  0  0  0  0  0  0  0  0  0  0  0
   -1.6660  -29.4580    5.9960 C   0  0  0  0  0  0  0  0  0  0  0  0
   -4.0370  -29.0200    5.1620 C   0  0  0  0  0  0  0  0  0  0  0  0
   -5.9350  -30.0490    6.2630 C   0  0  0  0  0  0  0  0  0  0  0  0
   -5.0460  -30.6670    7.1570 C   0  0  0  0  0  0  0  0  0  0  0  0
   -3.1690  -29.6440    6.0670 C   0  0  0  0  0  0  0  0  0  0  0  0
   -8.8081  -28.8774    6.5727 H   0  0  0  0  0  0  0  0  0  0  0  0
   -7.7115  -28.6667    5.1656 H   0  0  0  0  0  0  0  0  0  0  0  0
   -8.9290  -29.9875    5.1656 H   0  0  0  0  0  0  0  0  0  0  0  0
   -4.6031  -32.0053    9.9590 H   0  0  0  0  0  0  0  0  0  0  0  0
   -4.3684  -33.1810    8.6213 H   0  0  0  0  0  0  0  0  0  0  0  0
   -3.4649  -31.6285    8.6213 H   0  0  0  0  0  0  0  0  0  0  0  0
   -3.0379  -27.3777    4.4615 H   0  0  0  0  0  0  0  0  0  0  0  0
   -3.7034  -28.4716    3.2193 H   0  0  0  0  0  0  0  0  0  0  0  0
   -1.0863  -29.9556    7.7866 H   0  0  0  0  0  0  0  0  0  0  0  0
   -6.0922  -28.7419    4.5406 H   0  0  0  0  0  0  0  0  0  0  0  0
   -2.9911  -30.9841    7.7403 H   0  0  0  0  0  0  0  0  0  0  0  0
  1  8  1  0
  9  2  1  0
  3 11  1  0
 10  4  1  0
  5 10  2  0
 11  6  2  0
  6 12  1  0
 14  7  2  0
  7 13  1  0
 12  8  1  0
 13  9  1  0
 10 14  1  0
 11 14  1  0
 12 13  2  0
  1 15  1  0
  1 16  1  0
  1 17  1  0
  2 18  1  0
  2 19  1  0
  2 20  1  0
  3 21  1  0
  3 22  1  0
  4 23  1  0
  6 24  1  0
  7 25  1  0
A    1
CAA
A    2
CAB
A    3
NAC
A    4
OAD
A    5
OAE
A    6
CAF
A    7
CAG
A    8
OAH
A    9
OAI
A   10
CAJ
A   11
CAK
A   12
CAL
A   13
CAM
A   14
CAN
M  END
