3R8A_HIG_A_1
     RDKit          3D

 58 63  0  0  0  0  0  0  0  0999 V2000
   16.9910   16.8560   11.3160 N   0  0  0  0  0  0  0  0  0  0  0  0
   18.2240   17.0930   10.4840 C   0  0  0  0  0  0  0  0  0  0  0  0
   17.1530   16.6360   12.5950 C   0  0  0  0  0  0  0  0  0  0  0  0
   15.6680   16.8480   11.0130 C   0  0  0  0  0  0  0  0  0  0  0  0
   18.0460   18.4200    9.8200 C   0  0  0  0  0  0  0  0  0  0  0  0
   18.5410   16.1130    9.3430 C   0  0  0  0  0  0  0  0  0  0  0  0
   15.8870   16.4720   13.1870 C   0  0  0  0  0  0  0  0  0  0  0  0
   18.3280   16.5670   13.3090 N   0  0  0  0  0  0  0  0  0  0  0  0
   14.9930   16.6040   12.1700 N   0  0  0  0  0  0  0  0  0  0  0  0
   15.0800   17.0720    9.6090 C   0  0  0  0  0  0  0  0  0  0  0  0
   18.6110   18.3820    8.5720 C   0  0  0  0  0  0  0  0  0  0  0  0
   17.3940   19.5830   10.3040 C   0  0  0  0  0  0  0  0  0  0  0  0
   19.2270   17.0000    8.2980 C   0  0  0  0  0  0  0  0  0  0  0  0
   15.8240   16.2220   14.6130 C   0  0  0  0  0  0  0  0  0  0  0  0
   18.3000   16.3350   14.6720 C   0  0  0  0  0  0  0  0  0  0  0  0
   13.6940   16.5480    9.4380 C   0  0  0  0  0  0  0  0  0  0  0  0
   18.5650   19.5290    7.7420 C   0  0  0  0  0  0  0  0  0  0  0  0
   17.3460   20.7290    9.4640 C   0  0  0  0  0  0  0  0  0  0  0  0
   17.0510   16.1570   15.3500 C   0  0  0  0  0  0  0  0  0  0  0  0
   14.5180   16.0320   15.3730 C   0  0  0  0  0  0  0  0  0  0  0  0
   19.6120   16.2820   15.3990 C   0  0  0  0  0  0  0  0  0  0  0  0
   17.9210   20.7150    8.1730 C   0  0  0  0  0  0  0  0  0  0  0  0
   17.8910   21.9010    7.2220 C   0  0  0  0  0  0  0  0  0  0  0  0
   16.7300   22.6690    6.9080 C   0  0  0  0  0  0  0  0  0  0  0  0
   19.0980   22.2780    6.5720 C   0  0  0  0  0  0  0  0  0  0  0  0
   15.4150   22.4040    7.5050 C   0  0  0  0  0  0  0  0  0  0  0  0
   16.7720   23.7520    6.0080 C   0  0  0  0  0  0  0  0  0  0  0  0
   19.1450   23.3650    5.6600 C   0  0  0  0  0  0  0  0  0  0  0  0
   14.6700   23.3540    8.1280 N   0  0  0  0  0  0  0  0  0  0  0  0
   14.7790   21.1970    7.5370 N   0  0  0  0  0  0  0  0  0  0  0  0
   17.9750   24.1040    5.3840 C   0  0  0  0  0  0  0  0  0  0  0  0
   13.5140   22.6940    8.5570 N   0  0  0  0  0  0  0  0  0  0  0  0
   13.5860   21.4250    8.2100 N   0  0  0  0  0  0  0  0  0  0  0  0
   19.0513   16.9878   11.2013 H   0  0  0  0  0  0  0  0  0  0  0  0
   19.2150   15.3140    9.6855 H   0  0  0  0  0  0  0  0  0  0  0  0
   17.6484   15.6010    8.9544 H   0  0  0  0  0  0  0  0  0  0  0  0
   15.0676   18.1535    9.4083 H   0  0  0  0  0  0  0  0  0  0  0  0
   15.7179   16.5165    8.9058 H   0  0  0  0  0  0  0  0  0  0  0  0
   16.9369   19.5979   11.3044 H   0  0  0  0  0  0  0  0  0  0  0  0
   20.3171   17.0153    8.4446 H   0  0  0  0  0  0  0  0  0  0  0  0
   19.0785   16.6526    7.2649 H   0  0  0  0  0  0  0  0  0  0  0  0
   13.2421   16.3771   10.4262 H   0  0  0  0  0  0  0  0  0  0  0  0
   13.0913   17.2803    8.8808 H   0  0  0  0  0  0  0  0  0  0  0  0
   13.7265   15.6001    8.8808 H   0  0  0  0  0  0  0  0  0  0  0  0
   19.0361   19.4984    6.7485 H   0  0  0  0  0  0  0  0  0  0  0  0
   16.8524   21.6432    9.8254 H   0  0  0  0  0  0  0  0  0  0  0  0
   17.0338   15.9708   16.4340 H   0  0  0  0  0  0  0  0  0  0  0  0
   14.7157   16.0608   16.4547 H   0  0  0  0  0  0  0  0  0  0  0  0
   13.8182   16.8378   15.1066 H   0  0  0  0  0  0  0  0  0  0  0  0
   14.0768   15.0602   15.1066 H   0  0  0  0  0  0  0  0  0  0  0  0
   19.4306   16.2893   16.4839 H   0  0  0  0  0  0  0  0  0  0  0  0
   20.1472   15.3615   15.1230 H   0  0  0  0  0  0  0  0  0  0  0  0
   20.2197   17.1563   15.1230 H   0  0  0  0  0  0  0  0  0  0  0  0
   20.0185   21.7133    6.7810 H   0  0  0  0  0  0  0  0  0  0  0  0
   15.8564   24.3231    5.7947 H   0  0  0  0  0  0  0  0  0  0  0  0
   20.0927   23.6309    5.1689 H   0  0  0  0  0  0  0  0  0  0  0  0
   14.9062   24.3482    8.2569 H   0  0  0  0  0  0  0  0  0  0  0  0
   18.0078   24.9512    4.6831 H   0  0  0  0  0  0  0  0  0  0  0  0
  2  1  1  0
  4  1  1  0
  1  3  1  0
  6  2  1  0
  5  2  1  0
  3  7  2  0
  3  8  1  0
 10  4  1  0
  4  9  2  0
 11  5  2  0
  5 12  1  0
 13  6  1  0
  9  7  1  0
  7 14  1  0
  8 15  2  0
 16 10  1  0
 17 11  1  0
 13 11  1  0
 18 12  2  0
 14 19  2  0
 14 20  1  0
 15 19  1  0
 15 21  1  0
 17 22  2  0
 22 18  1  0
 23 22  1  0
 25 23  2  0
 24 23  1  0
 27 24  2  0
 24 26  1  0
 28 25  1  0
 26 30  2  0
 26 29  1  0
 31 27  1  0
 31 28  2  0
 29 32  1  0
 30 33  1  0
 33 32  2  0
  2 34  1  0
  6 35  1  0
  6 36  1  0
 10 37  1  0
 10 38  1  0
 12 39  1  0
 13 40  1  0
 13 41  1  0
 16 42  1  0
 16 43  1  0
 16 44  1  0
 17 45  1  0
 18 46  1  0
 19 47  1  0
 20 48  1  0
 20 49  1  0
 20 50  1  0
 21 51  1  0
 21 52  1  0
 21 53  1  0
 25 54  1  0
 27 55  1  0
 28 56  1  0
 29 57  1  0
 31 58  1  0
A    1
N1
A    2
C2
A    3
C3
A    4
C4
A    5
C5
A    6
C6
A    7
C7
A    8
N8
A    9
N9
A   10
C10
A   11
C11
A   12
C12
A   13
C13
A   14
C14
A   15
C15
A   16
C16
A   17
C17
A   18
C18
A   19
C19
A   20
C20
A   21
C21
A   22
C22
A   23
C23
A   24
C24
A   25
C25
A   26
C26
A   27
C27
A   28
C28
A   29
N29
A   30
N30
A   31
C31
A   32
N32
A   33
N33
M  END
