3R8H_ZOM_A_332
     RDKit          3D

 34 35  0  0  0  0  0  0  0  0999 V2000
   32.2150   19.6830   14.9540 Cl  0  0  0  0  0  0  0  0  0  0  0  0
   30.8550   27.7550   14.1800 N   0  0  0  0  0  0  0  0  0  0  0  0
   30.9530   28.3740   12.8420 C   0  0  0  0  0  0  0  0  0  0  0  0
   31.3730   27.3800   11.9830 C   0  0  0  0  0  0  0  0  0  0  0  0
   31.6630   26.2610   12.7050 C   0  0  0  0  0  0  0  0  0  0  0  0
   31.3860   26.4420   14.0630 C   0  0  0  0  0  0  0  0  0  0  0  0
   31.5410   25.5540   15.3150 C   0  0  0  0  0  0  0  0  0  0  0  0
   31.7310   26.0880   16.4130 O   0  0  0  0  0  0  0  0  0  0  0  0
   30.5270   29.8220   12.6210 C   0  0  0  0  0  0  0  0  0  0  0  0
   28.9970   29.8000   12.3710 C   0  0  0  0  0  0  0  0  0  0  0  0
   30.5500   28.4080   15.5020 C   0  0  0  0  0  0  0  0  0  0  0  0
   28.6810   30.3380   11.2840 O   0  0  0  0  0  0  0  0  0  0  0  0
   32.1260   24.9120   12.1080 C   0  0  0  0  0  0  0  0  0  0  0  0
   31.6870   24.0870   15.1930 C   0  0  0  0  0  0  0  0  0  0  0  0
   32.9040   23.5800   15.6730 C   0  0  0  0  0  0  0  0  0  0  0  0
   32.9880   22.1610   15.5400 C   0  0  0  0  0  0  0  0  0  0  0  0
   31.9760   21.3760   15.0370 C   0  0  0  0  0  0  0  0  0  0  0  0
   30.7660   21.9020   14.5420 C   0  0  0  0  0  0  0  0  0  0  0  0
   30.6380   23.3050   14.6600 C   0  0  0  0  0  0  0  0  0  0  0  0
   28.1840   29.3960   13.3060 O   0  0  0  0  0  0  0  0  0  0  0  0
   31.4600   27.4751   10.8906 H   0  0  0  0  0  0  0  0  0  0  0  0
   30.7575   30.4256   13.5112 H   0  0  0  0  0  0  0  0  0  0  0  0
   31.0619   30.2674   11.7693 H   0  0  0  0  0  0  0  0  0  0  0  0
   30.8611   27.7420   16.3203 H   0  0  0  0  0  0  0  0  0  0  0  0
   31.0968   29.3596   15.5757 H   0  0  0  0  0  0  0  0  0  0  0  0
   29.4693   28.5994   15.5757 H   0  0  0  0  0  0  0  0  0  0  0  0
   32.3658   24.2133   12.9231 H   0  0  0  0  0  0  0  0  0  0  0  0
   31.3213   24.4899   11.4881 H   0  0  0  0  0  0  0  0  0  0  0  0
   33.0203   25.0730   11.4881 H   0  0  0  0  0  0  0  0  0  0  0  0
   33.7016   24.2040   16.1024 H   0  0  0  0  0  0  0  0  0  0  0  0
   33.9171   21.6657   15.8586 H   0  0  0  0  0  0  0  0  0  0  0  0
   29.9823   21.2703   14.0984 H   0  0  0  0  0  0  0  0  0  0  0  0
   29.7090   23.7945   14.3323 H   0  0  0  0  0  0  0  0  0  0  0  0
   28.4261   29.5163   14.2584 H   0  0  0  0  0  0  0  0  0  0  0  0
  1 17  1  0
  3  2  1  0
  6  2  1  0
  2 11  1  0
  4  3  2  0
  9  3  1  0
  4  5  1  0
 13  5  1  0
  5  6  2  0
  6  7  1  0
 14  7  1  0
  7  8  2  0
 10  9  1  0
 12 10  2  0
 10 20  1  0
 19 14  1  0
 14 15  2  0
 16 15  1  0
 17 16  2  0
 18 17  1  0
 18 19  2  0
  4 21  1  0
  9 22  1  0
  9 23  1  0
 11 24  1  0
 11 25  1  0
 11 26  1  0
 13 27  1  0
 13 28  1  0
 13 29  1  0
 15 30  1  0
 16 31  1  0
 18 32  1  0
 19 33  1  0
 20 34  1  0
A    1
CL
A    2
N1
A    3
C2
A    4
C3
A    5
C4
A    6
C5
A    7
C6
A    8
O6
A    9
C7
A   10
C8
A   11
C9
A   12
OH
A   13
C10
A   14
C1B
A   15
C2B
A   16
C3B
A   17
C4B
A   18
C5B
A   19
C6B
A   20
OXT
M  END
