3R8I_XCX_A_1
     RDKit          3D

 66 68  0  0  0  0  0  0  0  0999 V2000
   18.3400    8.3930    9.8040 N   0  0  0  0  0  0  0  0  0  0  0  0
   17.0350    6.5830   10.5750 N   0  0  0  0  0  0  0  0  0  0  0  0
    9.1390    5.3070    9.5850 C   0  0  0  0  0  0  0  0  0  0  0  0
   21.2620    7.3880   17.4110 C   0  0  0  0  0  0  0  0  0  0  0  0
   18.8080    7.8560   17.6160 C   0  0  0  0  0  0  0  0  0  0  0  0
   21.0300    7.5110   20.0340 O   0  0  0  0  0  0  0  0  0  0  0  0
   19.1800    6.2780   20.1730 O   0  0  0  0  0  0  0  0  0  0  0  0
   18.3930   11.6200    7.9960 C   0  0  0  0  0  0  0  0  0  0  0  0
   17.0530   11.6190    7.6270 C   0  0  0  0  0  0  0  0  0  0  0  0
   19.5620    5.3090   13.9230 C   0  0  0  0  0  0  0  0  0  0  0  0
   17.3230    5.2450   14.7990 C   0  0  0  0  0  0  0  0  0  0  0  0
   20.0620    5.4460   15.2150 C   0  0  0  0  0  0  0  0  0  0  0  0
   17.8240    5.3830   16.0870 C   0  0  0  0  0  0  0  0  0  0  0  0
   18.9180   10.5610    8.7280 C   0  0  0  0  0  0  0  0  0  0  0  0
   16.2380   10.5520    7.9870 C   0  0  0  0  0  0  0  0  0  0  0  0
   10.5580    5.7630    9.2370 C   0  0  0  0  0  0  0  0  0  0  0  0
   11.3940    5.9210   10.5080 C   0  0  0  0  0  0  0  0  0  0  0  0
   12.8100    6.4190   10.2120 C   0  0  0  0  0  0  0  0  0  0  0  0
   13.6100    5.4100    9.3870 C   0  0  0  0  0  0  0  0  0  0  0  0
   15.0660    5.8680    9.2720 C   0  0  0  0  0  0  0  0  0  0  0  0
   17.6310    4.9690   12.3080 C   0  0  0  0  0  0  0  0  0  0  0  0
   15.6980    5.9760   10.6610 C   0  0  0  0  0  0  0  0  0  0  0  0
   18.1690    5.9660   11.2780 C   0  0  0  0  0  0  0  0  0  0  0  0
   19.6800    5.5650   17.5720 O   0  0  0  0  0  0  0  0  0  0  0  0
   16.2020    8.3600    9.2240 O   0  0  0  0  0  0  0  0  0  0  0  0
   20.0610    6.8960   19.5360 C   0  0  0  0  0  0  0  0  0  0  0  0
   18.1920    5.2020   13.7110 C   0  0  0  0  0  0  0  0  0  0  0  0
   19.1950    5.4800   16.3000 C   0  0  0  0  0  0  0  0  0  0  0  0
   17.2020    7.7130    9.8940 C   0  0  0  0  0  0  0  0  0  0  0  0
   18.1040    9.4940    9.0930 C   0  0  0  0  0  0  0  0  0  0  0  0
   16.7650    9.4930    8.7180 C   0  0  0  0  0  0  0  0  0  0  0  0
   19.9400    6.9040   18.0100 C   0  0  0  0  0  0  0  0  0  0  0  0
    9.0236    5.2699   10.6783 H   0  0  0  0  0  0  0  0  0  0  0  0
    8.4120    6.0168    9.1634 H   0  0  0  0  0  0  0  0  0  0  0  0
    8.9616    4.3066    9.1634 H   0  0  0  0  0  0  0  0  0  0  0  0
   21.9601    7.6436   18.2217 H   0  0  0  0  0  0  0  0  0  0  0  0
   21.6970    6.5908   16.7903 H   0  0  0  0  0  0  0  0  0  0  0  0
   21.0794    8.2776   16.7903 H   0  0  0  0  0  0  0  0  0  0  0  0
   18.3325    8.2559   18.5238 H   0  0  0  0  0  0  0  0  0  0  0  0
   19.2171    8.6855   17.0205 H   0  0  0  0  0  0  0  0  0  0  0  0
   18.0609    7.3108   17.0205 H   0  0  0  0  0  0  0  0  0  0  0  0
   19.1888    6.2842   21.1629 H   0  0  0  0  0  0  0  0  0  0  0  0
   19.0403   12.4615    7.7079 H   0  0  0  0  0  0  0  0  0  0  0  0
   16.6386   12.4601    7.0518 H   0  0  0  0  0  0  0  0  0  0  0  0
   20.2528    5.2853   13.0673 H   0  0  0  0  0  0  0  0  0  0  0  0
   16.2375    5.1695   14.6376 H   0  0  0  0  0  0  0  0  0  0  0  0
   21.1469    5.5276   15.3773 H   0  0  0  0  0  0  0  0  0  0  0  0
   17.1333    5.4157   16.9425 H   0  0  0  0  0  0  0  0  0  0  0  0
   19.9788   10.5670    9.0189 H   0  0  0  0  0  0  0  0  0  0  0  0
   15.1777   10.5454    7.6940 H   0  0  0  0  0  0  0  0  0  0  0  0
   11.0295    5.0139    8.5838 H   0  0  0  0  0  0  0  0  0  0  0  0
   10.5047    6.7335    8.7220 H   0  0  0  0  0  0  0  0  0  0  0  0
   10.8962    6.6434   11.1716 H   0  0  0  0  0  0  0  0  0  0  0  0
   11.4768    4.9319   10.9821 H   0  0  0  0  0  0  0  0  0  0  0  0
   12.7447    7.3636    9.6521 H   0  0  0  0  0  0  0  0  0  0  0  0
   13.3284    6.5611   11.1717 H   0  0  0  0  0  0  0  0  0  0  0  0
   13.5748    4.4269    9.8793 H   0  0  0  0  0  0  0  0  0  0  0  0
   13.1727    5.3379    8.3802 H   0  0  0  0  0  0  0  0  0  0  0  0
   15.6299    5.1385    8.6721 H   0  0  0  0  0  0  0  0  0  0  0  0
   15.0942    6.8551    8.7875 H   0  0  0  0  0  0  0  0  0  0  0  0
   16.5357    5.0624   12.3480 H   0  0  0  0  0  0  0  0  0  0  0  0
   17.9448    3.9639   11.9897 H   0  0  0  0  0  0  0  0  0  0  0  0
   15.7849    4.9703   11.0979 H   0  0  0  0  0  0  0  0  0  0  0  0
   15.0598    6.6112   11.2928 H   0  0  0  0  0  0  0  0  0  0  0  0
   18.8098    5.4402   10.5549 H   0  0  0  0  0  0  0  0  0  0  0  0
   18.7605    6.7427   11.7848 H   0  0  0  0  0  0  0  0  0  0  0  0
 30  1  1  0
  1 29  2  0
 29  2  1  0
  2 22  1  0
  2 23  1  0
 16  3  1  0
  4 32  1  0
  5 32  1  0
 26  6  2  0
 26  7  1  0
  9  8  2  0
  8 14  1  0
  9 15  1  0
 27 10  2  0
 10 12  1  0
 27 11  1  0
 11 13  2  0
 12 28  2  0
 13 28  1  0
 14 30  2  0
 15 31  2  0
 16 17  1  0
 18 17  1  0
 19 18  1  0
 20 19  1  0
 20 22  1  0
 23 21  1  0
 21 27  1  0
 28 24  1  0
 24 32  1  0
 31 25  1  0
 25 29  1  0
 32 26  1  0
 31 30  1  0
  3 33  1  0
  3 34  1  0
  3 35  1  0
  4 36  1  0
  4 37  1  0
  4 38  1  0
  5 39  1  0
  5 40  1  0
  5 41  1  0
  7 42  1  0
  8 43  1  0
  9 44  1  0
 10 45  1  0
 11 46  1  0
 12 47  1  0
 13 48  1  0
 14 49  1  0
 15 50  1  0
 16 51  1  0
 16 52  1  0
 17 53  1  0
 17 54  1  0
 18 55  1  0
 18 56  1  0
 19 57  1  0
 19 58  1  0
 20 59  1  0
 20 60  1  0
 21 61  1  0
 21 62  1  0
 22 63  1  0
 22 64  1  0
 23 65  1  0
 23 66  1  0
A    1
N1V
A    2
N2E
A    3
CAA
A    4
CAB
A    5
CAC
A    6
OAD
A    7
OAE
A    8
CAF
A    9
CAG
A   10
CAH
A   11
CAI
A   12
CAJ
A   13
CAK
A   14
CAL
A   15
CAM
A   16
CAN
A   17
CAO
A   18
CAP
A   19
CAQ
A   20
CAR
A   21
CAS
A   22
CAT
A   23
CAU
A   24
OAW
A   25
OAX
A   26
CAY
A   27
CAZ
A   28
CBA
A   29
CBB
A   30
CBC
A   31
CBD
A   32
CBF
M  END
