3R92_06J_A_1
     RDKit          3D

 66 70  0  0  0  0  0  0  0  0999 V2000
    7.3190    9.1320   23.3440 C   0  0  0  0  0  0  0  0  0  0  0  0
    6.1760   10.0230   23.6970 C   0  0  0  0  0  0  0  0  0  0  0  0
    4.8170    9.6950   23.7220 C   0  0  0  0  0  0  0  0  0  0  0  0
    4.1100   10.8560   24.0900 N   0  0  0  0  0  0  0  0  0  0  0  0
    5.0200   11.8870   24.2680 C   0  0  0  0  0  0  0  0  0  0  0  0
    6.2870   11.4030   24.0240 C   0  0  0  0  0  0  0  0  0  0  0  0
    7.4510   12.2770   24.1150 C   0  0  0  0  0  0  0  0  0  0  0  0
    8.5930   11.8310   24.0480 O   0  0  0  0  0  0  0  0  0  0  0  0
    7.2110   13.7300   24.5120 C   0  0  0  0  0  0  0  0  0  0  0  0
    5.9250   13.9650   25.3450 C   0  0  0  0  0  0  0  0  0  0  0  0
    4.7060   13.3000   24.6550 C   0  0  0  0  0  0  0  0  0  0  0  0
    6.1160   13.3460   26.7420 C   0  0  0  0  0  0  0  0  0  0  0  0
    5.6620   15.4740   25.5360 C   0  0  0  0  0  0  0  0  0  0  0  0
    2.7050   10.9500   24.2730 C   0  0  0  0  0  0  0  0  0  0  0  0
    1.8960   11.8330   23.5670 C   0  0  0  0  0  0  0  0  0  0  0  0
    0.5380   11.9290   23.8990 C   0  0  0  0  0  0  0  0  0  0  0  0
   -0.0100   11.1390   24.9310 C   0  0  0  0  0  0  0  0  0  0  0  0
    0.7920   10.2270   25.6330 C   0  0  0  0  0  0  0  0  0  0  0  0
    2.1290   10.1340   25.2370 C   0  0  0  0  0  0  0  0  0  0  0  0
    0.3100    9.4080   26.6500 N   0  0  0  0  0  0  0  0  0  0  0  0
    1.1880    8.7780   27.6300 C   0  0  0  0  0  0  0  0  0  0  0  0
    1.4110    7.2970   27.2820 C   0  0  0  0  0  0  0  0  0  0  0  0
    0.0980    6.5280   27.0930 C   0  0  0  0  0  0  0  0  0  0  0  0
    0.3930    5.4570   26.0540 C   0  0  0  0  0  0  0  0  0  0  0  0
    1.8260    5.6790   25.6020 C   0  0  0  0  0  0  0  0  0  0  0  0
    2.1120    7.1360   25.9250 N   0  0  0  0  0  0  0  0  0  0  0  0
    3.6100    7.4680   25.9100 C   0  0  0  0  0  0  0  0  0  0  0  0
    4.3540    7.2480   24.5760 C   0  0  0  0  0  0  0  0  0  0  0  0
    4.1500    8.3430   23.5040 C   0  0  0  0  0  0  0  0  0  0  0  0
   -1.4730   11.1950   25.1970 C   0  0  0  0  0  0  0  0  0  0  0  0
   -1.9290   10.7130   26.2300 O   0  0  0  0  0  0  0  0  0  0  0  0
   -2.2420   11.8020   24.2310 N   0  0  0  0  0  0  0  0  0  0  0  0
    7.7935    8.7621   24.2649 H   0  0  0  0  0  0  0  0  0  0  0  0
    6.9510    8.2801   22.7534 H   0  0  0  0  0  0  0  0  0  0  0  0
    8.0554    9.6968   22.7534 H   0  0  0  0  0  0  0  0  0  0  0  0
    8.0720   14.0706   25.1059 H   0  0  0  0  0  0  0  0  0  0  0  0
    7.0844   14.2932   23.5757 H   0  0  0  0  0  0  0  0  0  0  0  0
    4.4461   13.8721   23.7521 H   0  0  0  0  0  0  0  0  0  0  0  0
    3.8616   13.2935   25.3600 H   0  0  0  0  0  0  0  0  0  0  0  0
    5.8841   14.0976   27.5109 H   0  0  0  0  0  0  0  0  0  0  0  0
    5.4420   12.4843   26.8565 H   0  0  0  0  0  0  0  0  0  0  0  0
    7.1584   13.0139   26.8565 H   0  0  0  0  0  0  0  0  0  0  0  0
    5.6216   15.7060   26.6105 H   0  0  0  0  0  0  0  0  0  0  0  0
    6.4733   16.0499   25.0668 H   0  0  0  0  0  0  0  0  0  0  0  0
    4.7037   15.7414   25.0668 H   0  0  0  0  0  0  0  0  0  0  0  0
    2.3165   12.4485   22.7581 H   0  0  0  0  0  0  0  0  0  0  0  0
   -0.1081   12.6286   23.3484 H   0  0  0  0  0  0  0  0  0  0  0  0
    2.7604    9.3713   25.7161 H   0  0  0  0  0  0  0  0  0  0  0  0
   -0.7043    9.2405   26.7130 H   0  0  0  0  0  0  0  0  0  0  0  0
    2.1571    9.2984   27.6347 H   0  0  0  0  0  0  0  0  0  0  0  0
    0.7172    8.8427   28.6220 H   0  0  0  0  0  0  0  0  0  0  0  0
    2.0006    6.9109   28.1265 H   0  0  0  0  0  0  0  0  0  0  0  0
   -0.6932    7.2027   26.7341 H   0  0  0  0  0  0  0  0  0  0  0  0
   -0.2551    6.0898   28.0382 H   0  0  0  0  0  0  0  0  0  0  0  0
   -0.2943    5.5554   25.2008 H   0  0  0  0  0  0  0  0  0  0  0  0
    0.2592    4.4486   26.4726 H   0  0  0  0  0  0  0  0  0  0  0  0
    1.9249    5.4946   24.5221 H   0  0  0  0  0  0  0  0  0  0  0  0
    2.5298    4.9966   26.1009 H   0  0  0  0  0  0  0  0  0  0  0  0
    4.0981    6.8418   26.6714 H   0  0  0  0  0  0  0  0  0  0  0  0
    3.6688    8.5500   26.0994 H   0  0  0  0  0  0  0  0  0  0  0  0
    4.0115    6.2925   24.1520 H   0  0  0  0  0  0  0  0  0  0  0  0
    5.4254    7.2685   24.8243 H   0  0  0  0  0  0  0  0  0  0  0  0
    3.0678    8.5223   23.4224 H   0  0  0  0  0  0  0  0  0  0  0  0
    4.6383    7.9393   22.6048 H   0  0  0  0  0  0  0  0  0  0  0  0
   -3.0214   12.4172   24.5046 H   0  0  0  0  0  0  0  0  0  0  0  0
   -2.0383   11.6412   23.2342 H   0  0  0  0  0  0  0  0  0  0  0  0
  1  2  1  0
 29  3  1  0
 29 28  1  0
 15 16  1  0
 15 14  2  0
  2  3  2  0
  2  6  1  0
  3  4  1  0
 16 17  2  0
  6  7  1  0
  6  5  2  0
  8  7  2  0
  4  5  1  0
  4 14  1  0
  7  9  1  0
 32 30  1  0
  5 11  1  0
 14 19  1  0
  9 10  1  0
 28 27  1  0
 11 10  1  0
 17 30  1  0
 17 18  1  0
 30 31  2  0
 19 18  2  0
 10 13  1  0
 10 12  1  0
 25 26  1  0
 25 24  1  0
 18 20  1  0
 27 26  1  0
 26 22  1  0
 24 23  1  0
 20 21  1  0
 23 22  1  0
 22 21  1  0
  1 33  1  0
  1 34  1  0
  1 35  1  0
  9 36  1  0
  9 37  1  0
 11 38  1  0
 11 39  1  0
 12 40  1  0
 12 41  1  0
 12 42  1  0
 13 43  1  0
 13 44  1  0
 13 45  1  0
 15 46  1  0
 16 47  1  0
 19 48  1  0
 20 49  1  0
 21 50  1  0
 21 51  1  0
 22 52  1  0
 23 53  1  0
 23 54  1  0
 24 55  1  0
 24 56  1  0
 25 57  1  0
 25 58  1  0
 27 59  1  0
 27 60  1  0
 28 61  1  0
 28 62  1  0
 29 63  1  0
 29 64  1  0
 32 65  1  0
 32 66  1  0
A    1
C1
A    2
C2
A    3
C3
A    4
N1
A    5
C4
A    6
C5
A    7
C6
A    8
O1
A    9
C7
A   10
C8
A   11
C9
A   12
C10
A   13
C11
A   14
C12
A   15
C13
A   16
C14
A   17
C15
A   18
C16
A   19
C17
A   20
N2
A   21
C18
A   22
C19
A   23
C20
A   24
C21
A   25
C22
A   26
N3
A   27
C23
A   28
C24
A   29
C25
A   30
C26
A   31
O2
A   32
N4
M  END
