1B6T_COD_B_3000
     RDKit          3D

 79 81  0  0  0  0  0  0  0  0999 V2000
   23.8970   20.3970   42.1640 N   0  0  0  0  0  0  0  0  0  0  0  0
   23.1640   21.5570   42.4270 C   0  0  0  0  0  0  0  0  0  0  0  0
   22.1070   21.9520   41.6250 N   0  0  0  0  0  0  0  0  0  0  0  0
   21.7580   21.1740   40.5200 C   0  0  0  0  0  0  0  0  0  0  0  0
   22.4670   20.0070   40.2160 C   0  0  0  0  0  0  0  0  0  0  0  0
   23.5960   19.5980   41.0830 C   0  0  0  0  0  0  0  0  0  0  0  0
   24.2720   18.4870   40.8010 N   0  0  0  0  0  0  0  0  0  0  0  0
   22.0450   19.3940   39.1790 N   0  0  0  0  0  0  0  0  0  0  0  0
   20.9610   20.1750   38.7110 C   0  0  0  0  0  0  0  0  0  0  0  0
   20.8550   21.2750   39.6110 N   0  0  0  0  0  0  0  0  0  0  0  0
   19.8700   22.3490   39.5400 C   0  0  0  0  0  0  0  0  0  0  0  0
   19.7870   23.1560   38.2020 C   0  0  0  0  0  0  0  0  0  0  0  0
   20.8690   24.0900   38.0520 O   0  0  0  0  0  0  0  0  0  0  0  0
   18.4000   23.7980   38.3240 C   0  0  0  0  0  0  0  0  0  0  0  0
   18.5360   25.0020   39.1050 O   0  0  0  0  0  0  0  0  0  0  0  0
   17.6330   22.7280   39.0560 C   0  0  0  0  0  0  0  0  0  0  0  0
   18.5470   21.8600   39.7710 O   0  0  0  0  0  0  0  0  0  0  0  0
   16.8270   21.9070   38.0570 C   0  0  0  0  0  0  0  0  0  0  0  0
   17.7100   21.3090   37.0760 O   0  0  0  0  0  0  0  0  0  0  0  0
   17.1340   20.4710   35.8110 P   0  0  0  0  0  0  0  0  0  0  0  0
   18.2270   20.2810   34.7290 O   0  0  0  0  0  0  0  0  0  0  0  0
   16.5550   19.0970   36.2670 O   0  0  0  0  0  0  0  0  0  0  0  0
   15.9820   21.4270   35.3120 O   0  0  0  0  0  0  0  0  0  0  0  0
   16.0930   22.5880   34.2820 P   0  0  0  0  0  0  0  0  0  0  0  0
   17.1780   23.5910   34.7080 O   0  0  0  0  0  0  0  0  0  0  0  0
   16.4140   21.9650   32.9050 O   0  0  0  0  0  0  0  0  0  0  0  0
   14.6260   23.1830   34.2540 O   0  0  0  0  0  0  0  0  0  0  0  0
   14.1770   24.2560   33.4730 C   0  0  0  0  0  0  0  0  0  0  0  0
   12.6610   24.3940   33.8060 C   0  0  0  0  0  0  0  0  0  0  0  0
   12.0000   23.0090   33.4620 C   0  0  0  0  0  0  0  0  0  0  0  0
   12.4530   24.6840   35.3530 C   0  0  0  0  0  0  0  0  0  0  0  0
   12.0950   25.5710   32.9140 C   0  0  0  0  0  0  0  0  0  0  0  0
   12.3070   25.2870   31.5150 O   0  0  0  0  0  0  0  0  0  0  0  0
   10.5470   25.8050   33.1260 C   0  0  0  0  0  0  0  0  0  0  0  0
   10.1530   26.6420   33.9970 O   0  0  0  0  0  0  0  0  0  0  0  0
    9.7090   25.0690   32.3390 N   0  0  0  0  0  0  0  0  0  0  0  0
    8.2320   25.1560   32.3990 C   0  0  0  0  0  0  0  0  0  0  0  0
    7.7250   26.0580   31.2480 C   0  0  0  0  0  0  0  0  0  0  0  0
    7.9600   27.5250   31.5670 C   0  0  0  0  0  0  0  0  0  0  0  0
    7.2300   28.1530   32.3510 O   0  0  0  0  0  0  0  0  0  0  0  0
    9.0000   28.0860   30.9570 N   0  0  0  0  0  0  0  0  0  0  0  0
    9.4490   29.5390   31.1090 C   0  0  0  0  0  0  0  0  0  0  0  0
   10.3540   29.6090   32.2420 C   0  0  0  0  0  0  0  0  0  0  0  0
   10.8250   31.2730   32.3610 S   0  0  0  0  0  0  0  0  0  0  0  0
   23.4346   22.1742   43.2964 H   0  0  0  0  0  0  0  0  0  0  0  0
   24.6319   17.8955   41.5636 H   0  0  0  0  0  0  0  0  0  0  0  0
   24.4354   18.2185   39.8201 H   0  0  0  0  0  0  0  0  0  0  0  0
   20.3299   19.9741   37.8328 H   0  0  0  0  0  0  0  0  0  0  0  0
   20.2378   23.0305   40.3212 H   0  0  0  0  0  0  0  0  0  0  0  0
   19.8953   22.5493   37.2908 H   0  0  0  0  0  0  0  0  0  0  0  0
   21.1912   24.3681   38.9458 H   0  0  0  0  0  0  0  0  0  0  0  0
   17.9133   24.0900   37.3818 H   0  0  0  0  0  0  0  0  0  0  0  0
   18.5104   24.7751   40.0683 H   0  0  0  0  0  0  0  0  0  0  0  0
   16.9528   23.2039   39.7777 H   0  0  0  0  0  0  0  0  0  0  0  0
   16.2860   21.1124   38.5917 H   0  0  0  0  0  0  0  0  0  0  0  0
   16.1120   22.5663   37.5431 H   0  0  0  0  0  0  0  0  0  0  0  0
   19.1018   20.1289   35.1668 H   0  0  0  0  0  0  0  0  0  0  0  0
   17.2210   23.6307   35.6963 H   0  0  0  0  0  0  0  0  0  0  0  0
   14.7159   25.1779   33.7370 H   0  0  0  0  0  0  0  0  0  0  0  0
   14.3494   24.0854   32.4001 H   0  0  0  0  0  0  0  0  0  0  0  0
   11.7482   22.4814   34.3938 H   0  0  0  0  0  0  0  0  0  0  0  0
   11.0842   23.1753   32.8758 H   0  0  0  0  0  0  0  0  0  0  0  0
   12.7053   22.4016   32.8758 H   0  0  0  0  0  0  0  0  0  0  0  0
   12.9939   23.9298   35.9434 H   0  0  0  0  0  0  0  0  0  0  0  0
   12.8403   25.6850   35.5937 H   0  0  0  0  0  0  0  0  0  0  0  0
   11.3806   24.6381   35.5937 H   0  0  0  0  0  0  0  0  0  0  0  0
   12.6375   26.4764   33.2237 H   0  0  0  0  0  0  0  0  0  0  0  0
   12.8967   24.4970   31.4243 H   0  0  0  0  0  0  0  0  0  0  0  0
   10.1288   24.4145   31.6635 H   0  0  0  0  0  0  0  0  0  0  0  0
    7.8002   24.1497   32.2946 H   0  0  0  0  0  0  0  0  0  0  0  0
    7.9273   25.5853   33.3648 H   0  0  0  0  0  0  0  0  0  0  0  0
    8.2627   25.7995   30.3239 H   0  0  0  0  0  0  0  0  0  0  0  0
    6.6447   25.8938   31.1217 H   0  0  0  0  0  0  0  0  0  0  0  0
    9.5522   27.4880   30.3258 H   0  0  0  0  0  0  0  0  0  0  0  0
    9.9668   29.8679   30.1959 H   0  0  0  0  0  0  0  0  0  0  0  0
    8.5803   30.1941   31.2708 H   0  0  0  0  0  0  0  0  0  0  0  0
    9.8432   29.2879   33.1618 H   0  0  0  0  0  0  0  0  0  0  0  0
   11.2236   28.9485   32.1095 H   0  0  0  0  0  0  0  0  0  0  0  0
   10.9249   31.6260   33.6810 H   0  0  0  0  0  0  0  0  0  0  0  0
  1  2  2  0
  1  6  1  0
  2  3  1  0
  3  4  2  0
  4  5  1  0
  4 10  1  0
  5  6  2  0
  5  8  1  0
  6  7  1  0
  8  9  2  0
  9 10  1  0
 10 11  1  0
 11 12  1  0
 11 17  1  0
 12 13  1  0
 12 14  1  0
 14 15  1  0
 14 16  1  0
 16 17  1  0
 16 18  1  0
 18 19  1  0
 19 20  1  0
 20 21  1  0
 20 22  2  0
 20 23  1  0
 23 24  1  0
 24 25  1  0
 24 26  2  0
 24 27  1  0
 27 28  1  0
 28 29  1  0
 29 30  1  0
 29 31  1  0
 29 32  1  0
 32 33  1  0
 32 34  1  0
 34 35  2  0
 34 36  1  0
 36 37  1  0
 37 38  1  0
 38 39  1  0
 39 40  2  0
 39 41  1  0
 41 42  1  0
 42 43  1  0
 43 44  1  0
  2 45  1  0
  7 46  1  0
  7 47  1  0
  9 48  1  0
 11 49  1  0
 12 50  1  0
 13 51  1  0
 14 52  1  0
 15 53  1  0
 16 54  1  0
 18 55  1  0
 18 56  1  0
 21 57  1  0
 25 58  1  0
 28 59  1  0
 28 60  1  0
 30 61  1  0
 30 62  1  0
 30 63  1  0
 31 64  1  0
 31 65  1  0
 31 66  1  0
 32 67  1  0
 33 68  1  0
 36 69  1  0
 37 70  1  0
 37 71  1  0
 38 72  1  0
 38 73  1  0
 41 74  1  0
 42 75  1  0
 42 76  1  0
 43 77  1  0
 43 78  1  0
 44 79  1  0
A    1
N1
A    2
C2
A    3
N3
A    4
C4
A    5
C5
A    6
C6
A    7
N7
A    8
N8
A    9
C9
A   10
N10
A   11
C11
A   12
C12
A   13
O13
A   14
C14
A   15
O15
A   16
C16
A   17
O17
A   18
C18
A   19
O19
A   20
P20
A   21
O21
A   22
O22
A   23
O23
A   24
P24
A   25
O25
A   26
O26
A   27
O27
A   28
C28
A   29
C29
A   30
C30
A   31
C31
A   32
C32
A   33
O33
A   34
C34
A   35
O35
A   36
N36
A   37
C37
A   38
C38
A   39
C39
A   40
O40
A   41
N41
A   42
C42
A   43
C43
A   44
S44
M  END
