3RCK_1FP_X_208
     RDKit          3D

 18 18  0  0  0  0  0  0  0  0999 V2000
    0.0990   16.6860   18.9970 O   0  0  0  0  0  0  0  0  0  0  0  0
   -0.4420   15.7840   19.6370 C   0  0  0  0  0  0  0  0  0  0  0  0
    1.1010   16.0920   22.8920 C   0  0  0  0  0  0  0  0  0  0  0  0
   -0.7770   14.6020   23.0030 C   0  0  0  0  0  0  0  0  0  0  0  0
    1.2890   15.9220   21.3840 C   0  0  0  0  0  0  0  0  0  0  0  0
   -0.6620   14.2520   21.5200 C   0  0  0  0  0  0  0  0  0  0  0  0
    0.5820   14.8650   23.5020 N   0  0  0  0  0  0  0  0  0  0  0  0
    0.0450   15.3440   20.8030 N   0  0  0  0  0  0  0  0  0  0  0  0
   -1.3573   15.3240   19.2364 H   0  0  0  0  0  0  0  0  0  0  0  0
    2.0708   16.3378   23.3492 H   0  0  0  0  0  0  0  0  0  0  0  0
    0.3756   16.9008   23.0640 H   0  0  0  0  0  0  0  0  0  0  0  0
   -1.4036   15.4971   23.1301 H   0  0  0  0  0  0  0  0  0  0  0  0
   -1.2416   13.7758   23.5612 H   0  0  0  0  0  0  0  0  0  0  0  0
    1.4905   16.9010   20.9246 H   0  0  0  0  0  0  0  0  0  0  0  0
    2.1379   15.2503   21.1884 H   0  0  0  0  0  0  0  0  0  0  0  0
   -0.0971   13.3148   21.4079 H   0  0  0  0  0  0  0  0  0  0  0  0
   -1.6690   14.1284   21.0950 H   0  0  0  0  0  0  0  0  0  0  0  0
    1.1957   14.0747   23.2578 H   0  0  0  0  0  0  0  0  0  0  0  0
  1  2  2  0
  2  8  1  0
  3  5  1  0
  3  7  1  0
  4  6  1  0
  4  7  1  0
  5  8  1  0
  6  8  1  0
  2  9  1  0
  3 10  1  0
  3 11  1  0
  4 12  1  0
  4 13  1  0
  5 14  1  0
  5 15  1  0
  6 16  1  0
  6 17  1  0
  7 18  1  0
A    1
OAA
A    2
CAB
A    3
CAC
A    4
CAD
A    5
CAE
A    6
CAF
A    7
NAG
A    8
NAH
M  END
