3RCL_5AO_A_1
     RDKit          3D

 20 21  0  0  0  0  0  0  0  0999 V2000
    0.8920   15.0430   23.7340 N   0  0  0  0  0  0  0  0  0  0  0  0
    1.8100   16.5480   20.5690 C   0  0  0  0  0  0  0  0  0  0  0  0
    1.8910   16.1270   21.8930 C   0  0  0  0  0  0  0  0  0  0  0  0
    0.6660   16.2790   19.8200 C   0  0  0  0  0  0  0  0  0  0  0  0
   -3.5330   14.4970   19.1650 C   0  0  0  0  0  0  0  0  0  0  0  0
   -1.8920   15.7070   18.4270 C   0  0  0  0  0  0  0  0  0  0  0  0
   -0.3180   15.1780   21.7160 C   0  0  0  0  0  0  0  0  0  0  0  0
   -3.0900   15.2060   18.1280 N   0  0  0  0  0  0  0  0  0  0  0  0
   -2.5730   14.5530   20.1470 O   0  0  0  0  0  0  0  0  0  0  0  0
    0.8240   15.4440   22.4690 C   0  0  0  0  0  0  0  0  0  0  0  0
   -0.4050   15.5930   20.3910 C   0  0  0  0  0  0  0  0  0  0  0  0
   -1.5600   15.3160   19.6560 C   0  0  0  0  0  0  0  0  0  0  0  0
    0.7764   15.7248   24.4973 H   0  0  0  0  0  0  0  0  0  0  0  0
    1.0603   14.0503   23.9512 H   0  0  0  0  0  0  0  0  0  0  0  0
    2.6496   17.0935   20.1134 H   0  0  0  0  0  0  0  0  0  0  0  0
    2.7962   16.3336   22.4828 H   0  0  0  0  0  0  0  0  0  0  0  0
    0.6077   16.6097   18.7725 H   0  0  0  0  0  0  0  0  0  0  0  0
   -4.4931   13.9634   19.2246 H   0  0  0  0  0  0  0  0  0  0  0  0
   -1.2788   16.3390   17.7678 H   0  0  0  0  0  0  0  0  0  0  0  0
   -1.1582   14.6350   22.1734 H   0  0  0  0  0  0  0  0  0  0  0  0
  1 10  1  0
  2  3  2  0
  2  4  1  0
  3 10  1  0
  4 11  2  0
  5  8  2  0
  5  9  1  0
  6  8  1  0
  6 12  2  0
  7 10  2  0
  7 11  1  0
  9 12  1  0
 11 12  1  0
  1 13  1  0
  1 14  1  0
  2 15  1  0
  3 16  1  0
  4 17  1  0
  5 18  1  0
  6 19  1  0
  7 20  1  0
A    1
NAA
A    2
CAB
A    3
CAC
A    4
CAD
A    5
CAE
A    6
CAF
A    7
CAG
A    8
NAH
A    9
OAI
A   10
CAJ
A   11
CAK
A   12
CAL
M  END
