3RD9_MSY_X_301
     RDKit          3D

 28 29  0  0  0  0  0  0  0  0999 V2000
    3.2600   21.7710   18.8260 N   0  0  0  0  0  0  0  0  0  0  0  0
    4.5760   20.6080   18.6040 S   0  0  0  0  0  0  0  0  0  0  0  0
    5.2400   20.3030   19.9230 O   0  0  0  0  0  0  0  0  0  0  0  0
    5.5980   21.1880   17.6470 O   0  0  0  0  0  0  0  0  0  0  0  0
    3.9480   19.1700   17.9340 C   0  0  0  0  0  0  0  0  0  0  0  0
    3.9500   19.0820   16.5340 C   0  0  0  0  0  0  0  0  0  0  0  0
    3.4450   17.9270   15.9200 C   0  0  0  0  0  0  0  0  0  0  0  0
    2.9380   16.8570   16.6940 C   0  0  0  0  0  0  0  0  0  0  0  0
    2.9400   16.9580   18.1000 C   0  0  0  0  0  0  0  0  0  0  0  0
    3.4490   18.1140   18.7250 C   0  0  0  0  0  0  0  0  0  0  0  0
    3.4770   17.9030   14.4590 N   0  0  0  0  0  0  0  0  0  0  0  0
    3.3430   18.8990   13.7740 N   0  0  0  0  0  0  0  0  0  0  0  0
    3.2980   19.5800   11.3660 C   0  0  0  0  0  0  0  0  0  0  0  0
    3.4270   18.5790   12.4040 C   0  0  0  0  0  0  0  0  0  0  0  0
    3.6560   17.1540   12.1810 C   0  0  0  0  0  0  0  0  0  0  0  0
    3.6890   16.6840   13.6240 C   0  0  0  0  0  0  0  0  0  0  0  0
    3.8620   15.5550   14.0360 O   0  0  0  0  0  0  0  0  0  0  0  0
    3.0960   21.9159   19.8325 H   0  0  0  0  0  0  0  0  0  0  0  0
    3.5160   22.6671   18.3873 H   0  0  0  0  0  0  0  0  0  0  0  0
    4.3431   19.9094   15.9250 H   0  0  0  0  0  0  0  0  0  0  0  0
    2.5457   15.9542   16.2031 H   0  0  0  0  0  0  0  0  0  0  0  0
    2.5436   16.1332   18.7103 H   0  0  0  0  0  0  0  0  0  0  0  0
    3.4571   18.1923   19.8222 H   0  0  0  0  0  0  0  0  0  0  0  0
    3.1703   20.5710   11.8261 H   0  0  0  0  0  0  0  0  0  0  0  0
    4.2036   19.5796   10.7416 H   0  0  0  0  0  0  0  0  0  0  0  0
    2.4221   19.3500   10.7416 H   0  0  0  0  0  0  0  0  0  0  0  0
    2.8352   16.6889   11.6154 H   0  0  0  0  0  0  0  0  0  0  0  0
    4.5473   16.9079   11.5852 H   0  0  0  0  0  0  0  0  0  0  0  0
  2  1  1  0
  4  2  2  0
  5  2  1  0
  2  3  2  0
  6  5  2  0
  5 10  1  0
  7  6  1  0
 11  7  1  0
  7  8  2  0
  8  9  1  0
  9 10  2  0
 16 11  1  0
 12 11  1  0
 14 12  2  0
 13 14  1  0
 15 14  1  0
 15 16  1  0
 16 17  2  0
  1 18  1  0
  1 19  1  0
  6 20  1  0
  8 21  1  0
  9 22  1  0
 10 23  1  0
 13 24  1  0
 13 25  1  0
 13 26  1  0
 15 27  1  0
 15 28  1  0
A    1
N
A    2
S
A    3
O1
A    4
O2
A    5
CA1
A    6
CA2
A    7
CA3
A    8
CA4
A    9
CA5
A   10
CA6
A   11
NB1
A   12
NB2
A   13
CME
A   14
CP3
A   15
CP4
A   16
CP5
A   17
OPY
M  END
