3RE4_TO1_A_259
     RDKit          3D

 34 36  0  0  0  0  0  0  0  0999 V2000
    7.6150    2.1430   25.3360 C   0  0  0  0  0  0  0  0  0  0  0  0
    8.4730    2.2490   26.5260 N   0  0  0  0  0  0  0  0  0  0  0  0
    7.3230    0.7890   24.9830 O   0  0  0  0  0  0  0  0  0  0  0  0
    8.4550    3.3000   27.3520 C   0  0  0  0  0  0  0  0  0  0  0  0
    7.7570    4.4380   27.3360 N   0  0  0  0  0  0  0  0  0  0  0  0
    7.1600    3.3050   23.2260 O   0  0  0  0  0  0  0  0  0  0  0  0
    7.8870    5.3800   28.2490 C   0  0  0  0  0  0  0  0  0  0  0  0
    8.7660    5.2100   29.2390 N   0  0  0  0  0  0  0  0  0  0  0  0
    8.4710    1.9290   21.9510 O   0  0  0  0  0  0  0  0  0  0  0  0
    9.5430    4.1360   29.4310 C   0  0  0  0  0  0  0  0  0  0  0  0
   11.8030    0.6450   29.3760 N   0  0  0  0  0  0  0  0  0  0  0  0
   10.1110   -0.4940   24.1190 O   0  0  0  0  0  0  0  0  0  0  0  0
    9.4170    3.0680   28.4440 C   0  0  0  0  0  0  0  0  0  0  0  0
   10.4240    3.9780   30.4450 N   0  0  0  0  0  0  0  0  0  0  0  0
    9.9800    1.7500   28.0930 C   0  0  0  0  0  0  0  0  0  0  0  0
    9.3460    1.2600   26.8910 C   0  0  0  0  0  0  0  0  0  0  0  0
   10.8890    1.0860   28.8100 C   0  0  0  0  0  0  0  0  0  0  0  0
    8.1970    2.7860   24.0920 C   0  0  0  0  0  0  0  0  0  0  0  0
    8.7600    1.6430   23.3130 C   0  0  0  0  0  0  0  0  0  0  0  0
    7.9180    0.4490   23.7190 C   0  0  0  0  0  0  0  0  0  0  0  0
    8.7320   -0.8220   23.8840 C   0  0  0  0  0  0  0  0  0  0  0  0
    6.7060    2.6806   25.6437 H   0  0  0  0  0  0  0  0  0  0  0  0
    6.4241    3.6733   23.7764 H   0  0  0  0  0  0  0  0  0  0  0  0
    7.2786    6.2949   28.1956 H   0  0  0  0  0  0  0  0  0  0  0  0
    7.7682    2.6245   21.9018 H   0  0  0  0  0  0  0  0  0  0  0  0
   10.2792   -0.4540   25.0938 H   0  0  0  0  0  0  0  0  0  0  0  0
   10.1012    4.0359   31.4214 H   0  0  0  0  0  0  0  0  0  0  0  0
   11.4177    3.7998   30.2408 H   0  0  0  0  0  0  0  0  0  0  0  0
    9.5255    0.3021   26.3809 H   0  0  0  0  0  0  0  0  0  0  0  0
    8.8940    3.5865   24.3808 H   0  0  0  0  0  0  0  0  0  0  0  0
    9.8350    1.4734   23.4728 H   0  0  0  0  0  0  0  0  0  0  0  0
    7.1773    0.2448   22.9318 H   0  0  0  0  0  0  0  0  0  0  0  0
    8.6521   -1.4273   22.9690 H   0  0  0  0  0  0  0  0  0  0  0  0
    8.3443   -1.3908   24.7420 H   0  0  0  0  0  0  0  0  0  0  0  0
  1  2  1  0
  1  3  1  0
  1 18  1  0
  2  4  1  0
  2 16  1  0
  3 20  1  0
  4  5  2  0
  4 13  1  0
  5  7  1  0
  6 18  1  0
  7  8  2  0
  8 10  1  0
  9 19  1  0
 10 13  2  0
 10 14  1  0
 11 17  3  0
 12 21  1  0
 13 15  1  0
 15 16  2  0
 15 17  1  0
 18 19  1  0
 19 20  1  0
 20 21  1  0
  1 22  1  0
  6 23  1  0
  7 24  1  0
  9 25  1  0
 12 26  1  0
 14 27  1  0
 14 28  1  0
 16 29  1  0
 18 30  1  0
 19 31  1  0
 20 32  1  0
 21 33  1  0
 21 34  1  0
A    1
C
A    2
N
A    3
O
A    4
C2
A    5
N2
A    6
O2
A    7
C3
A    8
N3
A    9
O3
A   10
C4
A   11
N4
A   12
O4
A   13
C5
A   14
N5
A   15
C6
A   16
C7
A   17
C8
A   18
C9
A   19
C10
A   20
C11
A   21
C12
M  END
