1DZN_EUG_A_601
     RDKit          3D

 21 21  0  0  0  0  0  0  0  0999 V2000
  111.4240   47.9710   70.4410 C   0  0  0  0  0  0  0  0  0  0  0  0
  111.0760   47.2890   69.2760 C   0  0  0  0  0  0  0  0  0  0  0  0
  109.8980   47.6190   68.5760 C   0  0  0  0  0  0  0  0  0  0  0  0
  109.0530   48.6410   69.0150 C   0  0  0  0  0  0  0  0  0  0  0  0
  109.4070   49.3410   70.1780 C   0  0  0  0  0  0  0  0  0  0  0  0
  110.5620   48.9960   70.8450 C   0  0  0  0  0  0  0  0  0  0  0  0
  112.6220   47.6590   71.2160 C   0  0  0  0  0  0  0  0  0  0  0  0
  113.1100   46.4650   71.3510 C   0  0  0  0  0  0  0  0  0  0  0  0
  110.6970   46.5120   66.5550 C   0  0  0  0  0  0  0  0  0  0  0  0
  109.7060   46.8280   67.4730 O   0  0  0  0  0  0  0  0  0  0  0  0
  107.9010   49.0790   68.4590 O   0  0  0  0  0  0  0  0  0  0  0  0
  111.7267   46.4860   68.8996 H   0  0  0  0  0  0  0  0  0  0  0  0
  108.7700   50.1556   70.5529 H   0  0  0  0  0  0  0  0  0  0  0  0
  110.8226   49.5617   71.7517 H   0  0  0  0  0  0  0  0  0  0  0  0
  113.1429   48.4886   71.7165 H   0  0  0  0  0  0  0  0  0  0  0  0
  114.0179   46.3066   71.9515 H   0  0  0  0  0  0  0  0  0  0  0  0
  112.6160   45.6107   70.8650 H   0  0  0  0  0  0  0  0  0  0  0  0
  111.6127   46.2200   67.0899 H   0  0  0  0  0  0  0  0  0  0  0  0
  110.3592   45.6770   65.9236 H   0  0  0  0  0  0  0  0  0  0  0  0
  110.9049   47.3884   65.9236 H   0  0  0  0  0  0  0  0  0  0  0  0
  107.1497   49.3647   69.0370 H   0  0  0  0  0  0  0  0  0  0  0  0
  1  2  2  0
  1  6  1  0
  1  7  1  0
  2  3  1  0
  3  4  2  0
  3 10  1  0
  4  5  1  0
  4 11  1  0
  5  6  2  0
  7  8  2  3
  9 10  1  0
  2 12  1  0
  5 13  1  0
  6 14  1  0
  7 15  1  0
  8 16  1  0
  8 17  1  0
  9 18  1  0
  9 19  1  0
  9 20  1  0
 11 21  1  0
A    1
C1
A    2
C2
A    3
C3
A    4
C4
A    5
C5
A    6
C6
A    7
C7
A    8
C8
A    9
C9
A   10
O3
A   11
O4
M  END
