2E59_LP5_A_501
     RDKit          3D

114114  0  0  0  0  0  0  0  0999 V2000
   -5.7040   13.0360   25.5140 O   0  0  0  0  0  0  0  0  0  0  0  0
   -4.4730   12.3200   25.0120 P   0  0  0  0  0  0  0  0  0  0  0  0
   -3.2000   12.6780   25.7370 O   0  0  0  0  0  0  0  0  0  0  0  0
   -4.6950   10.8350   24.8170 O   0  0  0  0  0  0  0  0  0  0  0  0
   -4.3210   12.9700   23.5370 O   0  0  0  0  0  0  0  0  0  0  0  0
   -3.1120   13.0200   22.7820 C   0  0  0  0  0  0  0  0  0  0  0  0
   -3.3160   14.0190   21.6520 C   0  0  0  0  0  0  0  0  0  0  0  0
   -3.7430   15.2650   22.2620 N   0  0  0  0  0  0  0  0  0  0  0  0
   -2.8930   16.2680   22.4870 C   0  0  0  0  0  0  0  0  0  0  0  0
   -3.4780   17.5070   23.1330 C   0  0  0  0  0  0  0  0  0  0  0  0
   -4.0240   18.4370   22.0640 C   0  0  0  0  0  0  0  0  0  0  0  0
   -5.0140   17.7440   21.3010 O   0  0  0  0  0  0  0  0  0  0  0  0
   -2.8940   18.8380   21.1350 C   0  0  0  0  0  0  0  0  0  0  0  0
   -3.4340   19.8140   20.1070 C   0  0  0  0  0  0  0  0  0  0  0  0
   -2.6070   21.0890   20.1110 C   0  0  0  0  0  0  0  0  0  0  0  0
   -2.9850   21.9380   18.9140 C   0  0  0  0  0  0  0  0  0  0  0  0
   -3.7140   23.2080   19.3150 C   0  0  0  0  0  0  0  0  0  0  0  0
   -3.1250   24.3660   18.5290 C   0  0  0  0  0  0  0  0  0  0  0  0
   -4.0140   25.5830   18.6620 C   0  0  0  0  0  0  0  0  0  0  0  0
   -3.6650   26.6470   17.6430 C   0  0  0  0  0  0  0  0  0  0  0  0
   -4.7210   27.7370   17.6780 C   0  0  0  0  0  0  0  0  0  0  0  0
   -4.0580   29.0320   18.0940 C   0  0  0  0  0  0  0  0  0  0  0  0
   -4.1900   30.0780   17.0200 C   0  0  0  0  0  0  0  0  0  0  0  0
   -1.7050   16.2170   22.2160 O   0  0  0  0  0  0  0  0  0  0  0  0
   -4.5090   13.6020   20.8140 C   0  0  0  0  0  0  0  0  0  0  0  0
   -4.2820   12.1890   20.2880 C   0  0  0  0  0  0  0  0  0  0  0  0
   -3.9320   11.2390   21.4390 C   0  0  0  0  0  0  0  0  0  0  0  0
   -2.8260   11.7450   22.1910 O   0  0  0  0  0  0  0  0  0  0  0  0
   -3.6370    9.8140   20.9670 C   0  0  0  0  0  0  0  0  0  0  0  0
   -2.6510    9.7680   19.9270 O   0  0  0  0  0  0  0  0  0  0  0  0
   -5.4510   11.7110   19.5990 O   0  0  0  0  0  0  0  0  0  0  0  0
   -4.6310   14.5500   19.7580 O   0  0  0  0  0  0  0  0  0  0  0  0
   -5.9880   14.7990   19.2790 C   0  0  0  0  0  0  0  0  0  0  0  0
   -6.9590   14.2310   19.7750 O   0  0  0  0  0  0  0  0  0  0  0  0
   -6.1670   15.7740   18.1390 C   0  0  0  0  0  0  0  0  0  0  0  0
   -5.1170   16.8750   18.2580 C   0  0  0  0  0  0  0  0  0  0  0  0
   -5.7170   18.1320   17.9080 O   0  0  0  0  0  0  0  0  0  0  0  0
   -3.9210   16.5660   17.3620 C   0  0  0  0  0  0  0  0  0  0  0  0
   -3.9150   17.4060   16.0880 C   0  0  0  0  0  0  0  0  0  0  0  0
   -3.6410   18.8810   16.3480 C   0  0  0  0  0  0  0  0  0  0  0  0
   -3.1660   19.6070   15.0910 C   0  0  0  0  0  0  0  0  0  0  0  0
   -1.6960   19.3290   14.7880 C   0  0  0  0  0  0  0  0  0  0  0  0
   -1.1540   20.2720   13.7120 C   0  0  0  0  0  0  0  0  0  0  0  0
   -0.2050   21.3380   14.2720 C   0  0  0  0  0  0  0  0  0  0  0  0
   -0.9020   22.6330   14.7210 C   0  0  0  0  0  0  0  0  0  0  0  0
    0.0970   23.7420   15.0610 C   0  0  0  0  0  0  0  0  0  0  0  0
   -0.3820   25.0090   14.3710 C   0  0  0  0  0  0  0  0  0  0  0  0
   -0.2060   26.2080   15.2760 C   0  0  0  0  0  0  0  0  0  0  0  0
   -5.7048   13.0365   26.5040 H   0  0  0  0  0  0  0  0  0  0  0  0
   -3.3534   12.6349   26.7141 H   0  0  0  0  0  0  0  0  0  0  0  0
   -2.2819   13.3041   23.4454 H   0  0  0  0  0  0  0  0  0  0  0  0
   -2.3932   14.0901   21.0575 H   0  0  0  0  0  0  0  0  0  0  0  0
   -4.7314   15.3779   22.5289 H   0  0  0  0  0  0  0  0  0  0  0  0
   -4.2919   17.2145   23.8127 H   0  0  0  0  0  0  0  0  0  0  0  0
   -2.6909   18.0271   23.6986 H   0  0  0  0  0  0  0  0  0  0  0  0
   -4.4642   19.3273   22.5368 H   0  0  0  0  0  0  0  0  0  0  0  0
   -5.6508   17.2982   21.9141 H   0  0  0  0  0  0  0  0  0  0  0  0
   -2.0907   19.3169   21.7141 H   0  0  0  0  0  0  0  0  0  0  0  0
   -2.4889   17.9481   20.6310 H   0  0  0  0  0  0  0  0  0  0  0  0
   -3.3877   19.3537   19.1090 H   0  0  0  0  0  0  0  0  0  0  0  0
   -4.4762   20.0606   20.3580 H   0  0  0  0  0  0  0  0  0  0  0  0
   -2.8033   21.6508   21.0361 H   0  0  0  0  0  0  0  0  0  0  0  0
   -1.5383   20.8339   20.0577 H   0  0  0  0  0  0  0  0  0  0  0  0
   -2.0683   22.2127   18.3716 H   0  0  0  0  0  0  0  0  0  0  0  0
   -3.6636   21.3458   18.2824 H   0  0  0  0  0  0  0  0  0  0  0  0
   -4.7853   23.1098   19.0856 H   0  0  0  0  0  0  0  0  0  0  0  0
   -3.5986   23.3858   20.3944 H   0  0  0  0  0  0  0  0  0  0  0  0
   -2.1241   24.6008   18.9202 H   0  0  0  0  0  0  0  0  0  0  0  0
   -3.0526   24.0843   17.4681 H   0  0  0  0  0  0  0  0  0  0  0  0
   -5.0604   25.2777   18.5141 H   0  0  0  0  0  0  0  0  0  0  0  0
   -3.8647   26.0080   19.6656 H   0  0  0  0  0  0  0  0  0  0  0  0
   -2.6824   27.0788   17.8838 H   0  0  0  0  0  0  0  0  0  0  0  0
   -3.6290   26.1994   16.6388 H   0  0  0  0  0  0  0  0  0  0  0  0
   -5.1685   27.8528   16.6798 H   0  0  0  0  0  0  0  0  0  0  0  0
   -5.5138   27.4719   18.3929 H   0  0  0  0  0  0  0  0  0  0  0  0
   -4.5347   29.4001   19.0145 H   0  0  0  0  0  0  0  0  0  0  0  0
   -2.9885   28.8382   18.2632 H   0  0  0  0  0  0  0  0  0  0  0  0
   -4.3148   31.0671   17.4849 H   0  0  0  0  0  0  0  0  0  0  0  0
   -3.2848   30.0782   16.3951 H   0  0  0  0  0  0  0  0  0  0  0  0
   -5.0669   29.8533   16.3951 H   0  0  0  0  0  0  0  0  0  0  0  0
   -5.4405   13.5868   21.3989 H   0  0  0  0  0  0  0  0  0  0  0  0
   -3.4406   12.2180   19.5800 H   0  0  0  0  0  0  0  0  0  0  0  0
   -4.8225   11.1882   22.0828 H   0  0  0  0  0  0  0  0  0  0  0  0
   -3.2724    9.2280   21.8236 H   0  0  0  0  0  0  0  0  0  0  0  0
   -4.5704    9.3997   20.5581 H   0  0  0  0  0  0  0  0  0  0  0  0
   -1.7478    9.7259   20.3302 H   0  0  0  0  0  0  0  0  0  0  0  0
   -6.1329   11.4322   20.2603 H   0  0  0  0  0  0  0  0  0  0  0  0
   -6.0430   15.2480   17.1809 H   0  0  0  0  0  0  0  0  0  0  0  0
   -7.1741   16.2145   18.1811 H   0  0  0  0  0  0  0  0  0  0  0  0
   -4.7500   16.9305   19.2935 H   0  0  0  0  0  0  0  0  0  0  0  0
   -5.9529   18.6261   18.7328 H   0  0  0  0  0  0  0  0  0  0  0  0
   -2.9973   16.7695   17.9235 H   0  0  0  0  0  0  0  0  0  0  0  0
   -3.9886   15.5088   17.0659 H   0  0  0  0  0  0  0  0  0  0  0  0
   -3.1352   17.0179   15.4162 H   0  0  0  0  0  0  0  0  0  0  0  0
   -4.9172   17.3318   15.6408 H   0  0  0  0  0  0  0  0  0  0  0  0
   -4.5669   19.3565   16.7038 H   0  0  0  0  0  0  0  0  0  0  0  0
   -2.8423   18.9497   17.1013 H   0  0  0  0  0  0  0  0  0  0  0  0
   -3.7735   19.2724   14.2372 H   0  0  0  0  0  0  0  0  0  0  0  0
   -3.2781   20.6879   15.2615 H   0  0  0  0  0  0  0  0  0  0  0  0
   -1.1100   19.4642   15.7091 H   0  0  0  0  0  0  0  0  0  0  0  0
   -1.6108   18.2974   14.4157 H   0  0  0  0  0  0  0  0  0  0  0  0
   -0.6095   19.6755   12.9652 H   0  0  0  0  0  0  0  0  0  0  0  0
   -2.0143   20.7966   13.2708 H   0  0  0  0  0  0  0  0  0  0  0  0
    0.3197   20.9107   15.1392 H   0  0  0  0  0  0  0  0  0  0  0  0
    0.4761   21.6144   13.4537 H   0  0  0  0  0  0  0  0  0  0  0  0
   -1.5560   22.9828   13.9087 H   0  0  0  0  0  0  0  0  0  0  0  0
   -1.4775   22.4076   15.6309 H   0  0  0  0  0  0  0  0  0  0  0  0
    0.1320   23.8964   16.1495 H   0  0  0  0  0  0  0  0  0  0  0  0
    1.1082   23.4725   14.7222 H   0  0  0  0  0  0  0  0  0  0  0  0
    0.2012   25.1620   13.4510 H   0  0  0  0  0  0  0  0  0  0  0  0
   -1.4500   24.8998   14.1313 H   0  0  0  0  0  0  0  0  0  0  0  0
   -0.2535   25.8847   16.3263 H   0  0  0  0  0  0  0  0  0  0  0  0
    0.7704   26.6752   15.0799 H   0  0  0  0  0  0  0  0  0  0  0  0
   -1.0069   26.9361   15.0799 H   0  0  0  0  0  0  0  0  0  0  0  0
  1  2  1  0
  2  5  1  0
  2  4  2  0
  2  3  1  0
  5  6  1  0
  6  7  1  0
  6 28  1  0
  7 25  1  0
  7  8  1  0
  8  9  1  0
  9 24  2  0
  9 10  1  0
 10 11  1  0
 11 13  1  0
 11 12  1  0
 13 14  1  0
 14 15  1  0
 15 16  1  0
 16 17  1  0
 17 18  1  0
 18 19  1  0
 19 20  1  0
 20 21  1  0
 21 22  1  0
 22 23  1  0
 25 32  1  0
 25 26  1  0
 26 31  1  0
 26 27  1  0
 27 29  1  0
 27 28  1  0
 29 30  1  0
 32 33  1  0
 33 35  1  0
 33 34  2  0
 35 36  1  0
 36 38  1  0
 36 37  1  0
 38 39  1  0
 39 40  1  0
 40 41  1  0
 41 42  1  0
 42 43  1  0
 43 44  1  0
 44 45  1  0
 45 46  1  0
 46 47  1  0
 47 48  1  0
  1 49  1  0
  3 50  1  0
  6 51  1  0
  7 52  1  0
  8 53  1  0
 10 54  1  0
 10 55  1  0
 11 56  1  0
 12 57  1  0
 13 58  1  0
 13 59  1  0
 14 60  1  0
 14 61  1  0
 15 62  1  0
 15 63  1  0
 16 64  1  0
 16 65  1  0
 17 66  1  0
 17 67  1  0
 18 68  1  0
 18 69  1  0
 19 70  1  0
 19 71  1  0
 20 72  1  0
 20 73  1  0
 21 74  1  0
 21 75  1  0
 22 76  1  0
 22 77  1  0
 23 78  1  0
 23 79  1  0
 23 80  1  0
 25 81  1  0
 26 82  1  0
 27 83  1  0
 29 84  1  0
 29 85  1  0
 30 86  1  0
 31 87  1  0
 35 88  1  0
 35 89  1  0
 36 90  1  0
 37 91  1  0
 38 92  1  0
 38 93  1  0
 39 94  1  0
 39 95  1  0
 40 96  1  0
 40 97  1  0
 41 98  1  0
 41 99  1  0
 42100  1  0
 42101  1  0
 43102  1  0
 43103  1  0
 44104  1  0
 44105  1  0
 45106  1  0
 45107  1  0
 46108  1  0
 46109  1  0
 47110  1  0
 47111  1  0
 48112  1  0
 48113  1  0
 48114  1  0
A    1
O48
A    2
P45
A    3
O46
A    4
O47
A    5
O1
A    6
C1
A    7
C2
A    8
N2
A    9
C7
A   10
C8
A   11
C16
A   12
O44
A   13
C17
A   14
C18
A   15
C19
A   16
C20
A   17
C21
A   18
C22
A   19
C23
A   20
C24
A   21
C25
A   22
C26
A   23
C27
A   24
O7
A   25
C3
A   26
C4
A   27
C5
A   28
O5
A   29
C6
A   30
O6
A   31
O4
A   32
O3
A   33
C28
A   34
O42
A   35
C29
A   36
C30
A   37
O43
A   38
C31
A   39
C32
A   40
C33
A   41
C34
A   42
C35
A   43
C36
A   44
C37
A   45
C38
A   46
C39
A   47
C40
A   48
C41
M  END
