3RJH_6CF_A_401
     RDKit          3D

 46 47  0  0  0  0  0  0  0  0999 V2000
    6.7210    7.4610   10.6130 N   0  0  0  0  0  0  0  0  0  0  0  0
    5.0980    5.3780   15.1440 P   0  0  0  0  0  0  0  0  0  0  0  0
    7.6250    7.8610    9.6120 C   0  0  0  0  0  0  0  0  0  0  0  0
    7.1860    8.2150    8.5040 O   0  0  0  0  0  0  0  0  0  0  0  0
    4.0170    2.6880   14.1030 P   0  0  0  0  0  0  0  0  0  0  0  0
    8.9550    7.8570    9.8810 N   0  0  0  0  0  0  0  0  0  0  0  0
    3.8940    1.2770   16.3960 P   0  0  0  0  0  0  0  0  0  0  0  0
    9.3920    7.4830   11.0860 C   0  0  0  0  0  0  0  0  0  0  0  0
   10.7090    7.4690   11.2960 N   0  0  0  0  0  0  0  0  0  0  0  0
    8.4980    7.1010   12.1270 C   0  0  0  0  0  0  0  0  0  0  0  0
    7.1850    7.1080   11.8530 C   0  0  0  0  0  0  0  0  0  0  0  0
    5.2750    7.4020   10.2910 C   0  0  0  0  0  0  0  0  0  0  0  0
    6.2210    3.7740   13.5110 F   0  0  0  0  0  0  0  0  0  0  0  0
    3.8760    5.4000   15.9970 O   0  0  0  0  0  0  0  0  0  0  0  0
    4.1710    2.2440   12.6950 O   0  0  0  0  0  0  0  0  0  0  0  0
    3.6010    2.6420   16.9060 O   0  0  0  0  0  0  0  0  0  0  0  0
    4.8720    6.0420    9.7070 C   0  0  0  0  0  0  0  0  0  0  0  0
    6.0490    3.0480   15.5380 F   0  0  0  0  0  0  0  0  0  0  0  0
    6.3510    5.9560   15.6970 O   0  0  0  0  0  0  0  0  0  0  0  0
    2.7380    3.3260   14.5200 O   0  0  0  0  0  0  0  0  0  0  0  0
    4.9790    0.4840   17.0380 O   0  0  0  0  0  0  0  0  0  0  0  0
    4.4480    5.2990   10.9670 C   0  0  0  0  0  0  0  0  0  0  0  0
    3.5620    4.2180   10.6930 O   0  0  0  0  0  0  0  0  0  0  0  0
    5.4110    3.7030   14.5610 C   0  0  0  0  0  0  0  0  0  0  0  0
    4.1670    1.4060   14.9060 O   0  0  0  0  0  0  0  0  0  0  0  0
    2.6470    0.4920   16.5770 O   0  0  0  0  0  0  0  0  0  0  0  0
    3.7080    6.3900   11.7150 C   0  0  0  0  0  0  0  0  0  0  0  0
    4.5190    7.5700   11.4870 O   0  0  0  0  0  0  0  0  0  0  0  0
    3.4940    6.1240   13.1890 C   0  0  0  0  0  0  0  0  0  0  0  0
    4.6910    6.3380   13.9330 O   0  0  0  0  0  0  0  0  0  0  0  0
   11.0771    7.4651   12.2580 H   0  0  0  0  0  0  0  0  0  0  0  0
   11.3580    7.4621   10.4962 H   0  0  0  0  0  0  0  0  0  0  0  0
    8.8711    6.8106   13.1202 H   0  0  0  0  0  0  0  0  0  0  0  0
    6.4679    6.8253   12.6378 H   0  0  0  0  0  0  0  0  0  0  0  0
    5.0769    8.1954    9.5553 H   0  0  0  0  0  0  0  0  0  0  0  0
    4.1395    5.3953   16.9513 H   0  0  0  0  0  0  0  0  0  0  0  0
    3.6032    2.6319   17.8959 H   0  0  0  0  0  0  0  0  0  0  0  0
    4.0388    6.1388    8.9954 H   0  0  0  0  0  0  0  0  0  0  0  0
    5.6652    5.5426    9.1313 H   0  0  0  0  0  0  0  0  0  0  0  0
    2.6885    3.3507   15.5085 H   0  0  0  0  0  0  0  0  0  0  0  0
    4.8946    0.5457   18.0225 H   0  0  0  0  0  0  0  0  0  0  0  0
    5.2939    4.8428   11.5021 H   0  0  0  0  0  0  0  0  0  0  0  0
    3.2429    3.8287   11.5455 H   0  0  0  0  0  0  0  0  0  0  0  0
    2.6757    6.4831   11.3465 H   0  0  0  0  0  0  0  0  0  0  0  0
    2.7124    6.8003   13.5654 H   0  0  0  0  0  0  0  0  0  0  0  0
    3.1919    5.0735   13.3120 H   0  0  0  0  0  0  0  0  0  0  0  0
  3  1  1  0
 12  1  1  0
  1 11  1  0
 30  2  1  0
 24  2  1  0
  2 19  2  0
  2 14  1  0
  4  3  2  0
  3  6  1  0
 15  5  2  0
  5 20  1  0
  5 24  1  0
  5 25  1  0
  6  8  2  0
 25  7  1  0
  7 26  2  0
  7 16  1  0
  7 21  1  0
  8  9  1  0
  8 10  1  0
 11 10  2  0
 17 12  1  0
 12 28  1  0
 13 24  1  0
 17 22  1  0
 24 18  1  0
 23 22  1  0
 22 27  1  0
 28 27  1  0
 27 29  1  0
 29 30  1  0
  9 31  1  0
  9 32  1  0
 10 33  1  0
 11 34  1  0
 12 35  1  0
 14 36  1  0
 16 37  1  0
 17 38  1  0
 17 39  1  0
 20 40  1  0
 21 41  1  0
 22 42  1  0
 23 43  1  0
 27 44  1  0
 29 45  1  0
 29 46  1  0
A    1
N1
A    2
P1
A    3
C2
A    4
O2
A    5
P2
A    6
N3
A    7
P3
A    8
C4
A    9
N4
A   10
C5
A   11
C6
A   12
C1'
A   13
F1A
A   14
O1A
A   15
O1B
A   16
O1G
A   17
C2'
A   18
F2A
A   19
O2A
A   20
O2B
A   21
O2G
A   22
C3'
A   23
O3'
A   24
C3A
A   25
O3B
A   26
O3G
A   27
C4'
A   28
O4'
A   29
C5'
A   30
O5'
M  END
