3RME_RME_A_418
     RDKit          3D

 38 39  0  0  0  0  0  0  0  0999 V2000
    0.9820   49.5790   65.7470 C   0  0  0  0  0  0  0  0  0  0  0  0
    1.3740   48.0200   67.6120 N   0  0  0  0  0  0  0  0  0  0  0  0
    1.8610   45.7550   67.5550 O   0  0  0  0  0  0  0  0  0  0  0  0
    1.0000   48.1340   66.2110 C   0  0  0  0  0  0  0  0  0  0  0  0
    1.7620   47.4580   71.9170 N   0  0  0  0  0  0  0  0  0  0  0  0
    1.7740   46.8170   68.1680 C   0  0  0  0  0  0  0  0  0  0  0  0
    0.1110   48.1440   70.3280 N   0  0  0  0  0  0  0  0  0  0  0  0
    2.1270   46.8570   69.6150 C   0  0  0  0  0  0  0  0  0  0  0  0
   -2.4260   49.3510   69.9240 N   0  0  0  0  0  0  0  0  0  0  0  0
    3.3280   46.2230   69.9870 C   0  0  0  0  0  0  0  0  0  0  0  0
    3.7350   46.2090   71.3160 C   0  0  0  0  0  0  0  0  0  0  0  0
    2.9230   46.8370   72.2360 C   0  0  0  0  0  0  0  0  0  0  0  0
    1.3320   47.4850   70.6160 C   0  0  0  0  0  0  0  0  0  0  0  0
   -1.0000   47.3350   69.8090 C   0  0  0  0  0  0  0  0  0  0  0  0
   -1.9370   48.2420   69.0120 C   0  0  0  0  0  0  0  0  0  0  0  0
   -1.2910   50.1550   70.5250 C   0  0  0  0  0  0  0  0  0  0  0  0
   -0.3050   49.2310   71.2350 C   0  0  0  0  0  0  0  0  0  0  0  0
   -3.4040   50.2490   69.2190 C   0  0  0  0  0  0  0  0  0  0  0  0
    0.9737   50.2451   66.6223 H   0  0  0  0  0  0  0  0  0  0  0  0
    1.8777   49.7808   65.1412 H   0  0  0  0  0  0  0  0  0  0  0  0
    0.0816   49.7584   65.1412 H   0  0  0  0  0  0  0  0  0  0  0  0
    1.3402   48.8593   68.2081 H   0  0  0  0  0  0  0  0  0  0  0  0
   -0.0032   47.7039   66.0744 H   0  0  0  0  0  0  0  0  0  0  0  0
    1.7478   47.5926   65.6129 H   0  0  0  0  0  0  0  0  0  0  0  0
    3.9484   45.7354   69.2206 H   0  0  0  0  0  0  0  0  0  0  0  0
    4.6694   45.7156   71.6219 H   0  0  0  0  0  0  0  0  0  0  0  0
    3.2359   46.8337   73.2905 H   0  0  0  0  0  0  0  0  0  0  0  0
   -0.6069   46.5428   69.1549 H   0  0  0  0  0  0  0  0  0  0  0  0
   -1.5473   46.8715   70.6430 H   0  0  0  0  0  0  0  0  0  0  0  0
   -2.7943   47.6587   68.6449 H   0  0  0  0  0  0  0  0  0  0  0  0
   -1.4036   48.6706   68.1507 H   0  0  0  0  0  0  0  0  0  0  0  0
   -0.7674   50.6980   69.7244 H   0  0  0  0  0  0  0  0  0  0  0  0
   -1.7040   50.8664   71.2553 H   0  0  0  0  0  0  0  0  0  0  0  0
   -0.7866   48.7989   72.1246 H   0  0  0  0  0  0  0  0  0  0  0  0
    0.5809   49.8102   71.5345 H   0  0  0  0  0  0  0  0  0  0  0  0
   -4.0008   50.7970   69.9630 H   0  0  0  0  0  0  0  0  0  0  0  0
   -2.8560   50.9651   68.5891 H   0  0  0  0  0  0  0  0  0  0  0  0
   -4.0709   49.6420   68.5891 H   0  0  0  0  0  0  0  0  0  0  0  0
  1  4  1  0
  2  4  1  0
  2  6  1  0
  3  6  2  0
  5 12  2  0
  5 13  1  0
  6  8  1  0
  7 13  1  0
  7 14  1  0
  7 17  1  0
  8 10  1  0
  8 13  2  0
  9 15  1  0
  9 16  1  0
  9 18  1  0
 10 11  2  0
 11 12  1  0
 14 15  1  0
 16 17  1  0
  1 19  1  0
  1 20  1  0
  1 21  1  0
  2 22  1  0
  4 23  1  0
  4 24  1  0
 10 25  1  0
 11 26  1  0
 12 27  1  0
 14 28  1  0
 14 29  1  0
 15 30  1  0
 15 31  1  0
 16 32  1  0
 16 33  1  0
 17 34  1  0
 17 35  1  0
 18 36  1  0
 18 37  1  0
 18 38  1  0
A    1
C1
A    2
N1
A    3
O1
A    4
C2
A    5
N2
A    6
C3
A    7
N3
A    8
C4
A    9
N4
A   10
C5
A   11
C6
A   12
C7
A   13
C8
A   14
C9
A   15
C10
A   16
C11
A   17
C12
A   18
C13
M  END
