3RO4_LJ9_B_301
     RDKit          3D

 49 53  0  0  0  0  0  0  0  0999 V2000
   -3.0550   -1.1770   14.9330 C   0  0  0  0  0  0  0  0  0  0  0  0
   -2.5950   -0.2820   16.0660 C   0  0  0  0  0  0  0  0  0  0  0  0
   -3.2710   -0.6370   17.3350 C   0  0  0  0  0  0  0  0  0  0  0  0
   -3.2020   -1.8140   17.9670 N   0  0  0  0  0  0  0  0  0  0  0  0
   -4.0530   -1.7250   19.0450 N   0  0  0  0  0  0  0  0  0  0  0  0
   -4.7530   -0.5080   19.0580 C   0  0  0  0  0  0  0  0  0  0  0  0
   -5.7230    0.0290   19.9160 C   0  0  0  0  0  0  0  0  0  0  0  0
   -6.1670    1.3200   19.6600 C   0  0  0  0  0  0  0  0  0  0  0  0
   -5.6530    2.0670   18.5530 C   0  0  0  0  0  0  0  0  0  0  0  0
   -4.6990    1.5270   17.7220 C   0  0  0  0  0  0  0  0  0  0  0  0
   -4.2370    0.2460   17.9650 C   0  0  0  0  0  0  0  0  0  0  0  0
   -7.2030    1.8440   20.5260 N   0  0  0  0  0  0  0  0  0  0  0  0
   -8.0690    3.0280   20.2160 C   0  0  0  0  0  0  0  0  0  0  0  0
   -9.2820    2.8920   21.1650 C   0  0  0  0  0  0  0  0  0  0  0  0
   -9.1870    3.7230   22.4590 C   0  0  0  0  0  0  0  0  0  0  0  0
   -9.0090    2.7510   23.5660 N   0  0  0  0  0  0  0  0  0  0  0  0
   -9.6220    1.4770   23.1320 C   0  0  0  0  0  0  0  0  0  0  0  0
   -9.3480    1.4180   21.6220 C   0  0  0  0  0  0  0  0  0  0  0  0
   -7.9730    0.8120   21.2950 C   0  0  0  0  0  0  0  0  0  0  0  0
   -4.3130   -2.8350   19.9380 C   0  0  0  0  0  0  0  0  0  0  0  0
   -4.5320   -4.0940   19.3900 C   0  0  0  0  0  0  0  0  0  0  0  0
   -4.8650   -5.1560   20.2310 C   0  0  0  0  0  0  0  0  0  0  0  0
   -4.9810   -4.9660   21.6000 C   0  0  0  0  0  0  0  0  0  0  0  0
   -4.7710   -3.7030   22.1340 C   0  0  0  0  0  0  0  0  0  0  0  0
   -4.4420   -2.6290   21.3100 C   0  0  0  0  0  0  0  0  0  0  0  0
   -3.5208   -2.0832   15.3475 H   0  0  0  0  0  0  0  0  0  0  0  0
   -3.7879   -0.6382   14.3145 H   0  0  0  0  0  0  0  0  0  0  0  0
   -2.1903   -1.4593   14.3145 H   0  0  0  0  0  0  0  0  0  0  0  0
   -1.5083   -0.3948   16.1942 H   0  0  0  0  0  0  0  0  0  0  0  0
   -2.8491    0.7582   15.8143 H   0  0  0  0  0  0  0  0  0  0  0  0
   -6.1186   -0.5517   20.7623 H   0  0  0  0  0  0  0  0  0  0  0  0
   -6.0251    3.0848   18.3644 H   0  0  0  0  0  0  0  0  0  0  0  0
   -4.3078    2.1075   16.8735 H   0  0  0  0  0  0  0  0  0  0  0  0
   -7.5277    3.9654   20.4115 H   0  0  0  0  0  0  0  0  0  0  0  0
   -8.3711    3.0550   19.1586 H   0  0  0  0  0  0  0  0  0  0  0  0
  -10.1550    3.2473   20.5979 H   0  0  0  0  0  0  0  0  0  0  0  0
   -8.3266    4.4066   22.4103 H   0  0  0  0  0  0  0  0  0  0  0  0
  -10.0877    4.3369   22.6069 H   0  0  0  0  0  0  0  0  0  0  0  0
   -8.0063    2.6132   23.7568 H   0  0  0  0  0  0  0  0  0  0  0  0
   -9.1543    0.6246   23.6463 H   0  0  0  0  0  0  0  0  0  0  0  0
  -10.6956    1.4263   23.3663 H   0  0  0  0  0  0  0  0  0  0  0  0
  -10.1230    0.8063   21.1370 H   0  0  0  0  0  0  0  0  0  0  0  0
   -8.0968   -0.0961   20.6867 H   0  0  0  0  0  0  0  0  0  0  0  0
   -7.4402    0.5348   22.2165 H   0  0  0  0  0  0  0  0  0  0  0  0
   -4.4436   -4.2509   18.3048 H   0  0  0  0  0  0  0  0  0  0  0  0
   -5.0374   -6.1549   19.8038 H   0  0  0  0  0  0  0  0  0  0  0  0
   -5.2375   -5.8101   22.2571 H   0  0  0  0  0  0  0  0  0  0  0  0
   -4.8652   -3.5480   23.2189 H   0  0  0  0  0  0  0  0  0  0  0  0
   -4.2856   -1.6280   21.7384 H   0  0  0  0  0  0  0  0  0  0  0  0
  1  2  1  0
  2  3  1  0
  3 11  1  0
  3  4  2  0
  4  5  1  0
  5  6  1  0
  5 20  1  0
 11  6  2  0
  6  7  1  0
  8  7  2  0
  9  8  1  0
  8 12  1  0
 10  9  2  0
 10 11  1  0
 13 12  1  0
 12 19  1  0
 13 14  1  0
 14 18  1  0
 14 15  1  0
 15 16  1  0
 17 16  1  0
 18 17  1  0
 19 18  1  0
 21 20  2  0
 20 25  1  0
 21 22  1  0
 22 23  2  0
 23 24  1  0
 25 24  2  0
  1 26  1  0
  1 27  1  0
  1 28  1  0
  2 29  1  0
  2 30  1  0
  7 31  1  0
  9 32  1  0
 10 33  1  0
 13 34  1  0
 13 35  1  0
 14 36  1  0
 15 37  1  0
 15 38  1  0
 16 39  1  0
 17 40  1  0
 17 41  1  0
 18 42  1  0
 19 43  1  0
 19 44  1  0
 21 45  1  0
 22 46  1  0
 23 47  1  0
 24 48  1  0
 25 49  1  0
A    1
C01
A    2
C02
A    3
C03
A    4
N04
A    5
N05
A    6
C06
A    7
C07
A    8
C08
A    9
C09
A   10
C10
A   11
C11
A   12
N12
A   13
C13
A   14
C14
A   15
C15
A   16
N16
A   17
C17
A   18
C18
A   19
C19
A   20
C20
A   21
C21
A   22
C22
A   23
C23
A   24
C24
A   25
C25
M  END
