3RO5_LGH_B_1
     RDKit          3D

 53 56  0  0  0  0  0  0  0  0999 V2000
   25.9340  -33.6450   21.1860 C   0  0  0  0  0  0  0  0  0  0  0  0
   26.9690  -34.3690   20.5960 C   0  0  0  0  0  0  0  0  0  0  0  0
   24.7970  -34.3020   21.6490 C   0  0  0  0  0  0  0  0  0  0  0  0
   26.3780  -35.5040   15.6230 C   0  0  0  0  0  0  0  0  0  0  0  0
   27.2060  -34.8390   14.7190 C   0  0  0  0  0  0  0  0  0  0  0  0
   26.8670  -35.7530   20.4670 C   0  0  0  0  0  0  0  0  0  0  0  0
   25.4810  -33.1850   14.3770 C   0  0  0  0  0  0  0  0  0  0  0  0
   24.6900  -35.6870   21.5260 C   0  0  0  0  0  0  0  0  0  0  0  0
   22.7370  -37.3330   21.3710 C   0  0  0  0  0  0  0  0  0  0  0  0
   25.0990  -35.0160   15.9070 C   0  0  0  0  0  0  0  0  0  0  0  0
   26.7490  -33.6760   14.1010 C   0  0  0  0  0  0  0  0  0  0  0  0
   25.7280  -36.4170   20.9330 C   0  0  0  0  0  0  0  0  0  0  0  0
   24.6570  -33.8480   15.2770 C   0  0  0  0  0  0  0  0  0  0  0  0
   23.4970  -36.3360   22.0110 C   0  0  0  0  0  0  0  0  0  0  0  0
   21.7250  -37.5930   22.2550 C   0  0  0  0  0  0  0  0  0  0  0  0
   22.9220  -38.0040   20.0800 C   0  0  0  0  0  0  0  0  0  0  0  0
   24.0650  -35.0880   18.1310 C   0  0  0  0  0  0  0  0  0  0  0  0
   24.4260  -37.1920   16.8630 C   0  0  0  0  0  0  0  0  0  0  0  0
   22.9810  -35.7900   18.9540 C   0  0  0  0  0  0  0  0  0  0  0  0
   23.2290  -37.8170   17.5750 C   0  0  0  0  0  0  0  0  0  0  0  0
   20.5790  -38.5110   22.2470 C   0  0  0  0  0  0  0  0  0  0  0  0
   26.9030  -38.4690   20.6190 C   0  0  0  0  0  0  0  0  0  0  0  0
   22.9810  -35.9960   23.1960 N   0  0  0  0  0  0  0  0  0  0  0  0
   24.3200  -35.7290   16.8300 N   0  0  0  0  0  0  0  0  0  0  0  0
   23.0500  -37.2510   18.9130 N   0  0  0  0  0  0  0  0  0  0  0  0
   27.5490  -32.9680   13.1770 N   0  0  0  0  0  0  0  0  0  0  0  0
   28.7010  -33.3910   12.9070 O   0  0  0  0  0  0  0  0  0  0  0  0
   22.9530  -39.2290   20.1270 O   0  0  0  0  0  0  0  0  0  0  0  0
   27.0640  -31.9330   12.6550 O   0  0  0  0  0  0  0  0  0  0  0  0
   21.8530  -36.7990   23.3490 O   0  0  0  0  0  0  0  0  0  0  0  0
   25.6660  -37.7790   20.7920 O   0  0  0  0  0  0  0  0  0  0  0  0
   23.1040  -33.1460   15.5310 Cl  0  0  0  0  0  0  0  0  0  0  0  0
   26.0157  -32.5526   21.2860 H   0  0  0  0  0  0  0  0  0  0  0  0
   27.8666  -33.8477   20.2321 H   0  0  0  0  0  0  0  0  0  0  0  0
   23.9816  -33.7275   22.1127 H   0  0  0  0  0  0  0  0  0  0  0  0
   26.7342  -36.4202   16.1167 H   0  0  0  0  0  0  0  0  0  0  0  0
   28.2102  -35.2285   14.4957 H   0  0  0  0  0  0  0  0  0  0  0  0
   27.6827  -36.3232   19.9985 H   0  0  0  0  0  0  0  0  0  0  0  0
   25.1276  -32.2685   13.8818 H   0  0  0  0  0  0  0  0  0  0  0  0
   23.7490  -34.0497   17.9519 H   0  0  0  0  0  0  0  0  0  0  0  0
   24.9990  -35.1451   18.7092 H   0  0  0  0  0  0  0  0  0  0  0  0
   25.3467  -37.4730   17.3953 H   0  0  0  0  0  0  0  0  0  0  0  0
   24.4476  -37.5628   15.8276 H   0  0  0  0  0  0  0  0  0  0  0  0
   23.0807  -35.4690   20.0014 H   0  0  0  0  0  0  0  0  0  0  0  0
   22.0145  -35.5062   18.5120 H   0  0  0  0  0  0  0  0  0  0  0  0
   22.3216  -37.6291   16.9823 H   0  0  0  0  0  0  0  0  0  0  0  0
   23.4112  -38.8970   17.6768 H   0  0  0  0  0  0  0  0  0  0  0  0
   20.2884  -38.7438   23.2821 H   0  0  0  0  0  0  0  0  0  0  0  0
   19.7335  -38.0375   21.7265 H   0  0  0  0  0  0  0  0  0  0  0  0
   20.8565  -39.4394   21.7265 H   0  0  0  0  0  0  0  0  0  0  0  0
   27.3307  -38.7075   21.6040 H   0  0  0  0  0  0  0  0  0  0  0  0
   26.7284  -39.4000   20.0598 H   0  0  0  0  0  0  0  0  0  0  0  0
   27.6035  -37.8313   20.0598 H   0  0  0  0  0  0  0  0  0  0  0  0
  2  1  2  0
  3  1  1  0
  6  2  1  0
  8  3  2  0
  4 10  2  0
  4  5  1  0
  5 11  2  0
 12  6  2  0
 13  7  2  0
 11  7  1  0
 12  8  1  0
 14  8  1  0
 16  9  1  0
 15  9  2  0
  9 14  1  0
 24 10  1  0
 10 13  1  0
 11 26  1  0
 31 12  1  0
 13 32  1  0
 14 23  2  0
 21 15  1  0
 15 30  1  0
 28 16  2  0
 16 25  1  0
 19 17  1  0
 24 17  1  0
 20 18  1  0
 18 24  1  0
 25 19  1  0
 20 25  1  0
 22 31  1  0
 30 23  1  0
 27 26  2  0
 26 29  1  0
  1 33  1  0
  2 34  1  0
  3 35  1  0
  4 36  1  0
  5 37  1  0
  6 38  1  0
  7 39  1  0
 17 40  1  0
 17 41  1  0
 18 42  1  0
 18 43  1  0
 19 44  1  0
 19 45  1  0
 20 46  1  0
 20 47  1  0
 21 48  1  0
 21 49  1  0
 21 50  1  0
 22 51  1  0
 22 52  1  0
 22 53  1  0
M  CHG  2  26   1  29  -1
A    1
C1
A    2
C2
A    3
C3
A    4
C4
A    5
C5
A    6
C6
A    7
C7
A    8
C8
A    9
C9
A   10
C10
A   11
C11
A   12
C12
A   13
C13
A   14
C14
A   15
C15
A   16
C16
A   17
C17
A   18
C18
A   19
C19
A   20
C20
A   21
C21
A   22
C22
A   23
N23
A   24
N24
A   25
N25
A   26
N26
A   27
O27
A   28
O28
A   29
O29
A   30
O30
A   31
O31
A   32
CL32
M  END
