3ROY_22Z_A_781
     RDKit          3D

 52 53  0  0  0  0  0  0  0  0999 V2000
  -64.2620  -10.1780   24.0660 N   0  0  0  0  0  0  0  0  0  0  0  0
  -66.9390   -9.8370   20.9520 N   0  0  0  0  0  0  0  0  0  0  0  0
  -62.6950  -13.2900   26.5530 N   0  0  0  0  0  0  0  0  0  0  0  0
  -67.3630   -8.0710   26.9780 N   0  0  0  0  0  0  0  0  0  0  0  0
  -69.2770   -8.1720   25.0040 N   0  0  0  0  0  0  0  0  0  0  0  0
  -67.7710   -9.2180   23.5530 C   0  0  0  0  0  0  0  0  0  0  0  0
  -66.4730   -9.7470   23.2860 C   0  0  0  0  0  0  0  0  0  0  0  0
  -65.4540   -9.6950   24.3100 C   0  0  0  0  0  0  0  0  0  0  0  0
  -65.7870   -9.1080   25.5880 C   0  0  0  0  0  0  0  0  0  0  0  0
  -67.0950   -8.5860   25.8370 C   0  0  0  0  0  0  0  0  0  0  0  0
  -68.0970   -8.6390   24.8110 C   0  0  0  0  0  0  0  0  0  0  0  0
  -66.2350  -10.2930   22.0390 C   0  0  0  0  0  0  0  0  0  0  0  0
  -63.0400   -9.8740   24.8610 C   0  0  0  0  0  0  0  0  0  0  0  0
  -62.8330  -10.9240   25.9200 C   0  0  0  0  0  0  0  0  0  0  0  0
  -62.8740  -12.3010   25.6100 C   0  0  0  0  0  0  0  0  0  0  0  0
  -62.4650  -12.8990   27.8580 C   0  0  0  0  0  0  0  0  0  0  0  0
  -62.4070  -11.5510   28.2620 C   0  0  0  0  0  0  0  0  0  0  0  0
  -62.5960  -10.5540   27.2720 C   0  0  0  0  0  0  0  0  0  0  0  0
  -67.8400   -8.9120   28.0910 C   0  0  0  0  0  0  0  0  0  0  0  0
  -67.1390   -8.4930   29.3880 C   0  0  0  0  0  0  0  0  0  0  0  0
  -65.6870   -8.9780   29.3740 C   0  0  0  0  0  0  0  0  0  0  0  0
  -64.9420   -8.4010   30.5680 C   0  0  0  0  0  0  0  0  0  0  0  0
  -63.8110   -9.3420   30.9710 C   0  0  0  0  0  0  0  0  0  0  0  0
  -63.6380   -9.3040   32.4860 C   0  0  0  0  0  0  0  0  0  0  0  0
  -65.4190  -11.1760   21.8870 O   0  0  0  0  0  0  0  0  0  0  0  0
  -69.4570   -7.0970   25.7480 O   0  0  0  0  0  0  0  0  0  0  0  0
  -70.3300   -8.7340   24.4410 O   0  0  0  0  0  0  0  0  0  0  0  0
  -64.1618  -10.8163   23.2638 H   0  0  0  0  0  0  0  0  0  0  0  0
  -67.7958   -9.2820   21.0892 H   0  0  0  0  0  0  0  0  0  0  0  0
  -66.6103  -10.0499   19.9993 H   0  0  0  0  0  0  0  0  0  0  0  0
  -67.2440   -7.0578   27.1200 H   0  0  0  0  0  0  0  0  0  0  0  0
  -68.5389   -9.2589   22.7664 H   0  0  0  0  0  0  0  0  0  0  0  0
  -65.0245   -9.0621   26.3795 H   0  0  0  0  0  0  0  0  0  0  0  0
  -62.1669   -9.8556   24.1922 H   0  0  0  0  0  0  0  0  0  0  0  0
  -63.1625   -8.8945   25.3464 H   0  0  0  0  0  0  0  0  0  0  0  0
  -63.0574  -12.5983   24.5669 H   0  0  0  0  0  0  0  0  0  0  0  0
  -62.3199  -13.6794   28.6195 H   0  0  0  0  0  0  0  0  0  0  0  0
  -62.2210  -11.2805   29.3119 H   0  0  0  0  0  0  0  0  0  0  0  0
  -62.5591   -9.4906   27.5509 H   0  0  0  0  0  0  0  0  0  0  0  0
  -68.9269   -8.7866   28.2051 H   0  0  0  0  0  0  0  0  0  0  0  0
  -67.6120   -9.9665   27.8763 H   0  0  0  0  0  0  0  0  0  0  0  0
  -67.1568   -7.3966   29.4747 H   0  0  0  0  0  0  0  0  0  0  0  0
  -67.6630   -8.9416   30.2448 H   0  0  0  0  0  0  0  0  0  0  0  0
  -65.6679  -10.0765   29.4272 H   0  0  0  0  0  0  0  0  0  0  0  0
  -65.2006   -8.6446   28.4454 H   0  0  0  0  0  0  0  0  0  0  0  0
  -64.5233   -7.4201   30.2987 H   0  0  0  0  0  0  0  0  0  0  0  0
  -65.6386   -8.2859   31.4115 H   0  0  0  0  0  0  0  0  0  0  0  0
  -64.0556  -10.3668   30.6549 H   0  0  0  0  0  0  0  0  0  0  0  0
  -62.8766   -9.0235   30.4857 H   0  0  0  0  0  0  0  0  0  0  0  0
  -64.6025   -9.5159   32.9706 H   0  0  0  0  0  0  0  0  0  0  0  0
  -62.9007  -10.0616   32.7900 H   0  0  0  0  0  0  0  0  0  0  0  0
  -63.2861   -8.3071   32.7900 H   0  0  0  0  0  0  0  0  0  0  0  0
  1  8  1  0
  1 13  1  0
  2 12  1  0
  3 15  2  0
  3 16  1  0
  4 10  1  0
  4 19  1  0
  5 11  1  0
  5 26  1  0
  5 27  2  0
  6  7  2  0
  6 11  1  0
  7  8  1  0
  7 12  1  0
  8  9  2  0
  9 10  1  0
 10 11  2  0
 12 25  2  0
 13 14  1  0
 14 15  1  0
 14 18  2  0
 16 17  2  0
 17 18  1  0
 19 20  1  0
 20 21  1  0
 21 22  1  0
 22 23  1  0
 23 24  1  0
  1 28  1  0
  2 29  1  0
  2 30  1  0
  4 31  1  0
  6 32  1  0
  9 33  1  0
 13 34  1  0
 13 35  1  0
 15 36  1  0
 16 37  1  0
 17 38  1  0
 18 39  1  0
 19 40  1  0
 19 41  1  0
 20 42  1  0
 20 43  1  0
 21 44  1  0
 21 45  1  0
 22 46  1  0
 22 47  1  0
 23 48  1  0
 23 49  1  0
 24 50  1  0
 24 51  1  0
 24 52  1  0
M  CHG  2   5   1  26  -1
A    1
N01
A    2
N02
A    3
N03
A    4
N04
A    5
N05
A    6
C06
A    7
C07
A    8
C08
A    9
C09
A   10
C10
A   11
C11
A   12
C12
A   13
C13
A   14
C14
A   15
C15
A   16
C16
A   17
C17
A   18
C18
A   19
C19
A   20
C20
A   21
C21
A   22
C22
A   23
C23
A   24
C24
A   25
O25
A   26
O26
A   27
O27
M  END
