3RPO_24Z_A_778
     RDKit          3D

 46 47  0  0  0  0  0  0  0  0999 V2000
   63.7870   82.0240   24.2740 N   0  0  0  0  0  0  0  0  0  0  0  0
   66.9320   81.8670   21.5820 N   0  0  0  0  0  0  0  0  0  0  0  0
   62.3150   85.0030   26.9990 N   0  0  0  0  0  0  0  0  0  0  0  0
   66.4120   79.8450   27.5730 N   0  0  0  0  0  0  0  0  0  0  0  0
   68.6390   80.0350   25.8850 N   0  0  0  0  0  0  0  0  0  0  0  0
   67.3440   81.1150   24.2540 C   0  0  0  0  0  0  0  0  0  0  0  0
   66.0900   81.6430   23.8040 C   0  0  0  0  0  0  0  0  0  0  0  0
   64.9360   81.5500   24.6660 C   0  0  0  0  0  0  0  0  0  0  0  0
   65.0840   80.9240   25.9570 C   0  0  0  0  0  0  0  0  0  0  0  0
   66.3300   80.3990   26.4010 C   0  0  0  0  0  0  0  0  0  0  0  0
   67.4860   80.4940   25.5350 C   0  0  0  0  0  0  0  0  0  0  0  0
   66.0310   82.2260   22.5320 C   0  0  0  0  0  0  0  0  0  0  0  0
   62.4760   81.7640   24.9420 C   0  0  0  0  0  0  0  0  0  0  0  0
   62.2660   82.7230   26.1020 C   0  0  0  0  0  0  0  0  0  0  0  0
   62.4870   84.1080   25.9630 C   0  0  0  0  0  0  0  0  0  0  0  0
   61.9090   84.5040   28.2120 C   0  0  0  0  0  0  0  0  0  0  0  0
   61.6640   83.1390   28.4480 C   0  0  0  0  0  0  0  0  0  0  0  0
   61.8490   82.2460   27.3730 C   0  0  0  0  0  0  0  0  0  0  0  0
   65.4390   78.8230   28.0150 C   0  0  0  0  0  0  0  0  0  0  0  0
   65.1040   79.0200   29.4890 C   0  0  0  0  0  0  0  0  0  0  0  0
   65.6520   77.8400   30.2870 C   0  0  0  0  0  0  0  0  0  0  0  0
   65.2230   77.9420   31.7370 C   0  0  0  0  0  0  0  0  0  0  0  0
   65.1890   83.0420   22.2380 O   0  0  0  0  0  0  0  0  0  0  0  0
   65.9470   78.6650   32.6030 O   0  0  0  0  0  0  0  0  0  0  0  0
   64.2280   77.3650   32.1140 O   0  0  0  0  0  0  0  0  0  0  0  0
   69.7050   80.2530   25.1300 O   0  0  0  0  0  0  0  0  0  0  0  0
   68.7880   79.3440   26.9820 O   0  0  0  0  0  0  0  0  0  0  0  0
   63.7823   82.6253   23.4377 H   0  0  0  0  0  0  0  0  0  0  0  0
   67.8536   81.4998   21.8589 H   0  0  0  0  0  0  0  0  0  0  0  0
   66.6939   81.9619   20.5844 H   0  0  0  0  0  0  0  0  0  0  0  0
   67.1724   80.1241   28.2092 H   0  0  0  0  0  0  0  0  0  0  0  0
   68.2222   81.1893   23.5958 H   0  0  0  0  0  0  0  0  0  0  0  0
   64.2078   80.8502   26.6179 H   0  0  0  0  0  0  0  0  0  0  0  0
   61.6651   81.8982   24.2109 H   0  0  0  0  0  0  0  0  0  0  0  0
   62.4737   80.7343   25.3289 H   0  0  0  0  0  0  0  0  0  0  0  0
   62.8111   84.4927   24.9848 H   0  0  0  0  0  0  0  0  0  0  0  0
   61.7677   85.2095   29.0440 H   0  0  0  0  0  0  0  0  0  0  0  0
   61.3396   82.7812   29.4363 H   0  0  0  0  0  0  0  0  0  0  0  0
   61.6689   81.1708   27.5199 H   0  0  0  0  0  0  0  0  0  0  0  0
   64.5197   78.9139   27.4179 H   0  0  0  0  0  0  0  0  0  0  0  0
   65.8787   77.8242   27.8765 H   0  0  0  0  0  0  0  0  0  0  0  0
   65.5619   79.9530   29.8494 H   0  0  0  0  0  0  0  0  0  0  0  0
   64.0131   79.0794   29.6167 H   0  0  0  0  0  0  0  0  0  0  0  0
   65.2668   76.9025   29.8596 H   0  0  0  0  0  0  0  0  0  0  0  0
   66.7508   77.8531   30.2368 H   0  0  0  0  0  0  0  0  0  0  0  0
   65.8224   78.5406   33.5772 H   0  0  0  0  0  0  0  0  0  0  0  0
  1  8  1  0
  1 13  1  0
  2 12  1  0
  3 16  2  0
  4 19  1  0
  5 27  2  0
  6 11  2  0
  7  6  1  0
  7  8  2  0
  8  9  1  0
  9 10  2  0
 10  4  1  0
 11  5  1  0
 11 10  1  0
 12  7  1  0
 13 14  1  0
 14 18  1  0
 15 14  2  0
 15  3  1  0
 16 17  1  0
 18 17  2  0
 19 20  1  0
 20 21  1  0
 21 22  1  0
 22 25  2  0
 22 24  1  0
 23 12  2  0
 26  5  1  0
  1 28  1  0
  2 29  1  0
  2 30  1  0
  4 31  1  0
  6 32  1  0
  9 33  1  0
 13 34  1  0
 13 35  1  0
 15 36  1  0
 16 37  1  0
 17 38  1  0
 18 39  1  0
 19 40  1  0
 19 41  1  0
 20 42  1  0
 20 43  1  0
 21 44  1  0
 21 45  1  0
 24 46  1  0
M  CHG  2   5   1  26  -1
A    1
N01
A    2
N02
A    3
N03
A    4
N04
A    5
N05
A    6
C06
A    7
C07
A    8
C08
A    9
C09
A   10
C10
A   11
C11
A   12
C12
A   13
C13
A   14
C14
A   15
C15
A   16
C16
A   17
C17
A   18
C18
A   19
C19
A   20
C20
A   21
C21
A   22
C22
A   23
O23
A   24
O24
A   25
O25
A   26
O26
A   27
O27
M  END
