3RQK_X2C_A_800
     RDKit          3D

 60 63  0  0  0  0  0  0  0  0999 V2000
    5.1380    5.8960   26.7470 N   0  0  0  0  0  0  0  0  0  0  0  0
    4.7960    7.1130   27.2660 C   0  0  0  0  0  0  0  0  0  0  0  0
    5.6920    8.1480   27.2890 N   0  0  0  0  0  0  0  0  0  0  0  0
    3.4980    7.3040   27.7580 C   0  0  0  0  0  0  0  0  0  0  0  0
    2.5780    6.2460   27.7390 C   0  0  0  0  0  0  0  0  0  0  0  0
    2.9660    5.0090   27.2150 C   0  0  0  0  0  0  0  0  0  0  0  0
    4.2590    4.8550   26.7090 C   0  0  0  0  0  0  0  0  0  0  0  0
    1.1740    6.4330   28.2760 C   0  0  0  0  0  0  0  0  0  0  0  0
    4.6860    3.5060   26.1450 C   0  0  0  0  0  0  0  0  0  0  0  0
    6.2030    1.2140   25.7810 O   0  0  0  0  0  0  0  0  0  0  0  0
    6.7240    1.7470   28.5120 N   0  0  0  0  0  0  0  0  0  0  0  0
    6.7520   -0.0360   25.3740 C   0  0  0  0  0  0  0  0  0  0  0  0
    7.7510    0.2850   24.2740 C   0  0  0  0  0  0  0  0  0  0  0  0
    9.1140    0.2840   24.7890 N   0  0  0  0  0  0  0  0  0  0  0  0
   10.1420    0.6850   23.8800 C   0  0  0  0  0  0  0  0  0  0  0  0
   11.2840   -0.3320   23.9440 C   0  0  0  0  0  0  0  0  0  0  0  0
   10.2210   -0.4160   22.8360 C   0  0  0  0  0  0  0  0  0  0  0  0
    5.8900    2.9270   28.2970 C   0  0  0  0  0  0  0  0  0  0  0  0
   12.6300    0.1480   23.4450 C   0  0  0  0  0  0  0  0  0  0  0  0
   12.7450    1.1330   22.4540 C   0  0  0  0  0  0  0  0  0  0  0  0
   13.9910    1.5470   22.0050 C   0  0  0  0  0  0  0  0  0  0  0  0
   15.1380    0.9730   22.5360 C   0  0  0  0  0  0  0  0  0  0  0  0
   15.0680   -0.0080   23.5370 C   0  0  0  0  0  0  0  0  0  0  0  0
   13.8020   -0.3950   23.9820 C   0  0  0  0  0  0  0  0  0  0  0  0
   14.0400    2.5870   20.9070 C   0  0  0  0  0  0  0  0  0  0  0  0
    4.8220    2.4830   27.2810 C   0  0  0  0  0  0  0  0  0  0  0  0
    5.2630    1.0860   26.8460 C   0  0  0  0  0  0  0  0  0  0  0  0
    6.0330    0.5460   28.0530 C   0  0  0  0  0  0  0  0  0  0  0  0
    6.0192    8.5260   28.1895 H   0  0  0  0  0  0  0  0  0  0  0  0
    6.0388    8.5486   26.4058 H   0  0  0  0  0  0  0  0  0  0  0  0
    3.2007    8.2841   28.1592 H   0  0  0  0  0  0  0  0  0  0  0  0
    2.2601    4.1655   27.2014 H   0  0  0  0  0  0  0  0  0  0  0  0
    1.1986    6.4297   29.3757 H   0  0  0  0  0  0  0  0  0  0  0  0
    0.7705    7.3928   27.9211 H   0  0  0  0  0  0  0  0  0  0  0  0
    0.5333    5.6123   27.9211 H   0  0  0  0  0  0  0  0  0  0  0  0
    3.9300    3.1552   25.4271 H   0  0  0  0  0  0  0  0  0  0  0  0
    5.6567    3.6162   25.6394 H   0  0  0  0  0  0  0  0  0  0  0  0
    6.9314    1.6563   29.5168 H   0  0  0  0  0  0  0  0  0  0  0  0
    7.2581   -0.5249   26.2195 H   0  0  0  0  0  0  0  0  0  0  0  0
    5.9700   -0.7242   25.0206 H   0  0  0  0  0  0  0  0  0  0  0  0
    7.6663   -0.4710   23.4795 H   0  0  0  0  0  0  0  0  0  0  0  0
    7.5268    1.2868   23.8788 H   0  0  0  0  0  0  0  0  0  0  0  0
    9.1436    0.9233   25.5960 H   0  0  0  0  0  0  0  0  0  0  0  0
   10.0900    1.7838   23.8863 H   0  0  0  0  0  0  0  0  0  0  0  0
   11.6772   -0.9968   24.7272 H   0  0  0  0  0  0  0  0  0  0  0  0
    9.4843   -1.2329   22.8417 H   0  0  0  0  0  0  0  0  0  0  0  0
   10.2447   -0.4445   21.7366 H   0  0  0  0  0  0  0  0  0  0  0  0
    5.4188    3.2438   29.2391 H   0  0  0  0  0  0  0  0  0  0  0  0
    6.4748    3.7844   27.9324 H   0  0  0  0  0  0  0  0  0  0  0  0
   11.8365    1.5831   22.0272 H   0  0  0  0  0  0  0  0  0  0  0  0
   16.1223    1.2938   22.1643 H   0  0  0  0  0  0  0  0  0  0  0  0
   15.9799   -0.4572   23.9572 H   0  0  0  0  0  0  0  0  0  0  0  0
   13.7241   -1.1495   24.7787 H   0  0  0  0  0  0  0  0  0  0  0  0
   14.0873    3.5907   21.3545 H   0  0  0  0  0  0  0  0  0  0  0  0
   14.9313    2.4209   20.2841 H   0  0  0  0  0  0  0  0  0  0  0  0
   13.1370    2.5054   20.2841 H   0  0  0  0  0  0  0  0  0  0  0  0
    3.8045    2.4366   27.6964 H   0  0  0  0  0  0  0  0  0  0  0  0
    4.4181    0.4565   26.5300 H   0  0  0  0  0  0  0  0  0  0  0  0
    6.7440   -0.2399   27.7583 H   0  0  0  0  0  0  0  0  0  0  0  0
    5.3989    0.0716   28.8164 H   0  0  0  0  0  0  0  0  0  0  0  0
  2  1  2  0
  2  3  1  0
  4  2  1  0
  5  4  2  0
  5  6  1  0
  6  7  2  0
  7  1  1  0
  7  9  1  0
  8  5  1  0
 10 12  1  0
 11 28  1  0
 11 18  1  0
 12 13  1  0
 14 13  1  0
 14 15  1  0
 15 17  1  0
 16 15  1  0
 16 19  1  0
 16 17  1  0
 18 26  1  0
 19 20  2  0
 20 21  1  0
 21 25  1  0
 22 21  2  0
 23 22  1  0
 24 19  1  0
 24 23  2  0
 26  9  1  0
 26 27  1  0
 27 10  1  0
 28 27  1  0
  3 29  1  0
  3 30  1  0
  4 31  1  0
  6 32  1  0
  8 33  1  0
  8 34  1  0
  8 35  1  0
  9 36  1  0
  9 37  1  0
 11 38  1  0
 12 39  1  0
 12 40  1  0
 13 41  1  0
 13 42  1  0
 14 43  1  0
 15 44  1  0
 16 45  1  0
 17 46  1  0
 17 47  1  0
 18 48  1  0
 18 49  1  0
 20 50  1  0
 22 51  1  0
 23 52  1  0
 24 53  1  0
 25 54  1  0
 25 55  1  0
 25 56  1  0
 26 57  1  0
 27 58  1  0
 28 59  1  0
 28 60  1  0
A    1
N01
A    2
C02
A    3
N02
A    4
C03
A    5
C04
A    6
C05
A    7
C06
A    8
C07
A    9
C08
A   10
O09
A   11
N1'
A   12
C10
A   13
C11
A   14
N12
A   15
C13
A   16
C14
A   17
C15
A   18
C2'
A   19
C21
A   20
C22
A   21
C23
A   22
C24
A   23
C25
A   24
C26
A   25
C27
A   26
C3'
A   27
C4'
A   28
C5'
M  END
