3RQL_X2D_A_800
     RDKit          3D

 57 60  0  0  0  0  0  0  0  0999 V2000
    5.2170    5.8680   26.6180 N   0  0  0  0  0  0  0  0  0  0  0  0
    4.8740    7.0790   27.1330 C   0  0  0  0  0  0  0  0  0  0  0  0
    5.7590    8.1370   27.1320 N   0  0  0  0  0  0  0  0  0  0  0  0
    3.5850    7.2440   27.6670 C   0  0  0  0  0  0  0  0  0  0  0  0
    2.6760    6.1780   27.6710 C   0  0  0  0  0  0  0  0  0  0  0  0
    3.0560    4.9560   27.1130 C   0  0  0  0  0  0  0  0  0  0  0  0
    4.3370    4.8110   26.5910 C   0  0  0  0  0  0  0  0  0  0  0  0
    1.2630    6.3360   28.2360 C   0  0  0  0  0  0  0  0  0  0  0  0
    4.7320    3.4570   26.0070 C   0  0  0  0  0  0  0  0  0  0  0  0
    6.4360    1.2620   25.7040 O   0  0  0  0  0  0  0  0  0  0  0  0
    6.8490    1.8490   28.4330 N   0  0  0  0  0  0  0  0  0  0  0  0
    6.6660    0.0840   24.9300 C   0  0  0  0  0  0  0  0  0  0  0  0
    7.7210    0.4480   23.9200 C   0  0  0  0  0  0  0  0  0  0  0  0
    9.0470    0.2410   24.4850 N   0  0  0  0  0  0  0  0  0  0  0  0
   10.1680    0.7080   23.7010 C   0  0  0  0  0  0  0  0  0  0  0  0
   11.3130   -0.2760   23.8200 C   0  0  0  0  0  0  0  0  0  0  0  0
   10.3370   -0.3800   22.6360 C   0  0  0  0  0  0  0  0  0  0  0  0
    5.9900    2.9890   28.1430 C   0  0  0  0  0  0  0  0  0  0  0  0
   12.6390    0.1690   23.3090 C   0  0  0  0  0  0  0  0  0  0  0  0
   12.7340    1.1010   22.2770 C   0  0  0  0  0  0  0  0  0  0  0  0
   14.0040    1.4690   21.8480 C   0  0  0  0  0  0  0  0  0  0  0  0
   14.0650    2.6590   20.5040 Cl  0  0  0  0  0  0  0  0  0  0  0  0
   15.1640    0.8950   22.3700 C   0  0  0  0  0  0  0  0  0  0  0  0
   15.0750   -0.0520   23.4130 C   0  0  0  0  0  0  0  0  0  0  0  0
   13.8000   -0.4090   23.8490 C   0  0  0  0  0  0  0  0  0  0  0  0
    4.9190    2.4610   27.1590 C   0  0  0  0  0  0  0  0  0  0  0  0
    5.4510    1.0870   26.7310 C   0  0  0  0  0  0  0  0  0  0  0  0
    6.2310    0.6200   27.9580 C   0  0  0  0  0  0  0  0  0  0  0  0
    6.0898    8.5325   28.0236 H   0  0  0  0  0  0  0  0  0  0  0  0
    6.0890    8.5315   26.2396 H   0  0  0  0  0  0  0  0  0  0  0  0
    3.2874    8.2170   28.0849 H   0  0  0  0  0  0  0  0  0  0  0  0
    2.3480    4.1146   27.0864 H   0  0  0  0  0  0  0  0  0  0  0  0
    1.3050    6.3313   29.3352 H   0  0  0  0  0  0  0  0  0  0  0  0
    0.8339    7.2877   27.8895 H   0  0  0  0  0  0  0  0  0  0  0  0
    0.6342    5.5026   27.8895 H   0  0  0  0  0  0  0  0  0  0  0  0
    3.9398    3.0991   25.3330 H   0  0  0  0  0  0  0  0  0  0  0  0
    5.6686    3.5527   25.4381 H   0  0  0  0  0  0  0  0  0  0  0  0
    6.9966    1.7844   29.4503 H   0  0  0  0  0  0  0  0  0  0  0  0
    7.0207   -0.7334   25.5750 H   0  0  0  0  0  0  0  0  0  0  0  0
    5.7435   -0.2621   24.4408 H   0  0  0  0  0  0  0  0  0  0  0  0
    7.6033   -0.1836   23.0271 H   0  0  0  0  0  0  0  0  0  0  0  0
    7.6075    1.5074   23.6465 H   0  0  0  0  0  0  0  0  0  0  0  0
    9.0782    0.7257   25.3933 H   0  0  0  0  0  0  0  0  0  0  0  0
   10.1088    1.8053   23.7494 H   0  0  0  0  0  0  0  0  0  0  0  0
   11.6648   -0.8956   24.6581 H   0  0  0  0  0  0  0  0  0  0  0  0
    9.6226   -1.2146   22.5807 H   0  0  0  0  0  0  0  0  0  0  0  0
   10.4339   -0.3948   21.5404 H   0  0  0  0  0  0  0  0  0  0  0  0
    5.5164    3.3577   29.0649 H   0  0  0  0  0  0  0  0  0  0  0  0
    6.5575    3.8289   27.7158 H   0  0  0  0  0  0  0  0  0  0  0  0
   11.8326    1.5317   21.8166 H   0  0  0  0  0  0  0  0  0  0  0  0
   16.1476    1.1805   21.9687 H   0  0  0  0  0  0  0  0  0  0  0  0
   15.9769   -0.4913   23.8643 H   0  0  0  0  0  0  0  0  0  0  0  0
   13.6999   -1.1666   24.6402 H   0  0  0  0  0  0  0  0  0  0  0  0
    3.9128    2.3569   27.5911 H   0  0  0  0  0  0  0  0  0  0  0  0
    4.6497    0.4168   26.3863 H   0  0  0  0  0  0  0  0  0  0  0  0
    6.9916   -0.1259   27.6839 H   0  0  0  0  0  0  0  0  0  0  0  0
    5.6009    0.1285   28.7139 H   0  0  0  0  0  0  0  0  0  0  0  0
  7  1  2  0
  1  2  1  0
  3  2  1  0
  2  4  2  0
  4  5  1  0
  6  5  2  0
  5  8  1  0
  7  6  1  0
  9  7  1  0
  9 26  1  0
 12 10  1  0
 10 27  1  0
 28 11  1  0
 18 11  1  0
 13 12  1  0
 13 14  1  0
 15 14  1  0
 17 15  1  0
 15 16  1  0
 17 16  1  0
 19 16  1  0
 26 18  1  0
 20 19  2  0
 19 25  1  0
 21 20  1  0
 22 21  1  0
 21 23  2  0
 23 24  1  0
 24 25  2  0
 27 26  1  0
 27 28  1  0
  3 29  1  0
  3 30  1  0
  4 31  1  0
  6 32  1  0
  8 33  1  0
  8 34  1  0
  8 35  1  0
  9 36  1  0
  9 37  1  0
 11 38  1  0
 12 39  1  0
 12 40  1  0
 13 41  1  0
 13 42  1  0
 14 43  1  0
 15 44  1  0
 16 45  1  0
 17 46  1  0
 17 47  1  0
 18 48  1  0
 18 49  1  0
 20 50  1  0
 23 51  1  0
 24 52  1  0
 25 53  1  0
 26 54  1  0
 27 55  1  0
 28 56  1  0
 28 57  1  0
A    1
N01
A    2
C02
A    3
N02
A    4
C03
A    5
C04
A    6
C05
A    7
C06
A    8
C07
A    9
C08
A   10
O09
A   11
N1'
A   12
C10
A   13
C11
A   14
N12
A   15
C13
A   16
C14
A   17
C15
A   18
C2'
A   19
C21
A   20
C22
A   21
C23
A   22
CL23
A   23
C24
A   24
C25
A   25
C26
A   26
C3'
A   27
C4'
A   28
C5'
M  END
