3RQM_X2E_A_805
     RDKit          3D

 59 61  0  0  0  0  0  0  0  0999 V2000
    5.3040    6.0650   26.8270 N   0  0  0  0  0  0  0  0  0  0  0  0
    4.9330    7.2470   27.4200 C   0  0  0  0  0  0  0  0  0  0  0  0
    5.7570    8.3440   27.3950 N   0  0  0  0  0  0  0  0  0  0  0  0
    3.6800    7.3240   28.0560 C   0  0  0  0  0  0  0  0  0  0  0  0
    2.8240    6.2130   28.0970 C   0  0  0  0  0  0  0  0  0  0  0  0
    3.2300    5.0280   27.4760 C   0  0  0  0  0  0  0  0  0  0  0  0
    4.4770    4.9740   26.8520 C   0  0  0  0  0  0  0  0  0  0  0  0
    1.4610    6.2800   28.7700 C   0  0  0  0  0  0  0  0  0  0  0  0
    4.9110    3.6650   26.2260 C   0  0  0  0  0  0  0  0  0  0  0  0
    6.4430    1.5150   25.8200 O   0  0  0  0  0  0  0  0  0  0  0  0
    6.8830    1.7200   28.6540 N   0  0  0  0  0  0  0  0  0  0  0  0
    6.8570    0.3680   25.1120 C   0  0  0  0  0  0  0  0  0  0  0  0
    7.8850    0.9080   24.1510 C   0  0  0  0  0  0  0  0  0  0  0  0
    9.2030    0.6020   24.6410 N   0  0  0  0  0  0  0  0  0  0  0  0
   10.2050    0.6770   23.6100 C   0  0  0  0  0  0  0  0  0  0  0  0
   11.4070    1.3000   24.2400 C   0  0  0  0  0  0  0  0  0  0  0  0
   10.4630   -0.6840   22.9740 C   0  0  0  0  0  0  0  0  0  0  0  0
    6.2100    0.5870   28.0410 C   0  0  0  0  0  0  0  0  0  0  0  0
   12.6710    1.1690   23.4050 C   0  0  0  0  0  0  0  0  0  0  0  0
   13.6360    0.2390   23.8170 C   0  0  0  0  0  0  0  0  0  0  0  0
   14.8460    0.1000   23.1690 C   0  0  0  0  0  0  0  0  0  0  0  0
   15.0620    0.9330   22.0590 C   0  0  0  0  0  0  0  0  0  0  0  0
   14.1090    1.8480   21.6130 C   0  0  0  0  0  0  0  0  0  0  0  0
   14.3710    2.6330   20.5310 F   0  0  0  0  0  0  0  0  0  0  0  0
   12.9010    1.9880   22.2950 C   0  0  0  0  0  0  0  0  0  0  0  0
    5.5020    1.2590   26.8660 C   0  0  0  0  0  0  0  0  0  0  0  0
    5.1100    2.6400   27.3600 C   0  0  0  0  0  0  0  0  0  0  0  0
    6.2500    2.9980   28.3080 C   0  0  0  0  0  0  0  0  0  0  0  0
    6.0760    8.7687   28.2775 H   0  0  0  0  0  0  0  0  0  0  0  0
    6.0565    8.7427   26.4938 H   0  0  0  0  0  0  0  0  0  0  0  0
    3.3676    8.2676   28.5272 H   0  0  0  0  0  0  0  0  0  0  0  0
    2.5724    4.1462   27.4793 H   0  0  0  0  0  0  0  0  0  0  0  0
    1.5907    6.2736   29.8623 H   0  0  0  0  0  0  0  0  0  0  0  0
    0.9476    7.2045   28.4671 H   0  0  0  0  0  0  0  0  0  0  0  0
    0.8594    5.4103   28.4671 H   0  0  0  0  0  0  0  0  0  0  0  0
    4.1364    3.3080   25.5314 H   0  0  0  0  0  0  0  0  0  0  0  0
    5.8468    3.8009   25.6640 H   0  0  0  0  0  0  0  0  0  0  0  0
    6.8595    1.6051   29.6773 H   0  0  0  0  0  0  0  0  0  0  0  0
    7.3028   -0.3745   25.7902 H   0  0  0  0  0  0  0  0  0  0  0  0
    6.0276   -0.1510   24.6093 H   0  0  0  0  0  0  0  0  0  0  0  0
    7.7436    0.4446   23.1634 H   0  0  0  0  0  0  0  0  0  0  0  0
    7.7692    1.9983   24.0628 H   0  0  0  0  0  0  0  0  0  0  0  0
    9.4431    1.2731   25.3846 H   0  0  0  0  0  0  0  0  0  0  0  0
    9.8779    1.2975   22.7626 H   0  0  0  0  0  0  0  0  0  0  0  0
   11.2027    2.3696   24.3956 H   0  0  0  0  0  0  0  0  0  0  0  0
   11.5885    0.7661   25.1845 H   0  0  0  0  0  0  0  0  0  0  0  0
   10.6057   -1.4365   23.7635 H   0  0  0  0  0  0  0  0  0  0  0  0
    9.6023   -0.9661   22.3498 H   0  0  0  0  0  0  0  0  0  0  0  0
   11.3672   -0.6315   22.3498 H   0  0  0  0  0  0  0  0  0  0  0  0
    6.9294   -0.1710   27.6975 H   0  0  0  0  0  0  0  0  0  0  0  0
    5.5378    0.0414   28.7196 H   0  0  0  0  0  0  0  0  0  0  0  0
   13.4212   -0.4009   24.6856 H   0  0  0  0  0  0  0  0  0  0  0  0
   15.6021   -0.6253   23.5041 H   0  0  0  0  0  0  0  0  0  0  0  0
   16.0189    0.8609   21.5213 H   0  0  0  0  0  0  0  0  0  0  0  0
   12.1497    2.7223   21.9690 H   0  0  0  0  0  0  0  0  0  0  0  0
    4.6685    0.6326   26.5154 H   0  0  0  0  0  0  0  0  0  0  0  0
    4.1267    2.6512   27.8530 H   0  0  0  0  0  0  0  0  0  0  0  0
    5.8599    3.4914   29.2105 H   0  0  0  0  0  0  0  0  0  0  0  0
    6.9631    3.6966   27.8459 H   0  0  0  0  0  0  0  0  0  0  0  0
  1  7  2  0
  1  2  1  0
  3  2  1  0
  2  4  2  0
  4  5  1  0
  6  5  2  0
  5  8  1  0
  7  6  1  0
  9  7  1  0
  9 27  1  0
 12 10  1  0
 10 26  1  0
 18 11  1  0
 28 11  1  0
 13 12  1  0
 13 14  1  0
 15 14  1  0
 17 15  1  0
 15 16  1  0
 19 16  1  0
 26 18  1  0
 25 19  1  0
 19 20  2  0
 21 20  1  0
 22 21  2  0
 23 22  1  0
 24 23  1  0
 23 25  2  0
 26 27  1  0
 27 28  1  0
  3 29  1  0
  3 30  1  0
  4 31  1  0
  6 32  1  0
  8 33  1  0
  8 34  1  0
  8 35  1  0
  9 36  1  0
  9 37  1  0
 11 38  1  0
 12 39  1  0
 12 40  1  0
 13 41  1  0
 13 42  1  0
 14 43  1  0
 15 44  1  0
 16 45  1  0
 16 46  1  0
 17 47  1  0
 17 48  1  0
 17 49  1  0
 18 50  1  0
 18 51  1  0
 20 52  1  0
 21 53  1  0
 22 54  1  0
 25 55  1  0
 26 56  1  0
 27 57  1  0
 28 58  1  0
 28 59  1  0
A    1
N01
A    2
C02
A    3
N02
A    4
C03
A    5
C04
A    6
C05
A    7
C06
A    8
C07
A    9
C08
A   10
O09
A   11
N1'
A   12
C10
A   13
C11
A   14
N11
A   15
C13
A   16
C14
A   17
C15
A   18
C2'
A   19
C21
A   20
C22
A   21
C23
A   22
C24
A   23
C25
A   24
F25
A   25
C26
A   26
C3'
A   27
C4'
A   28
C5'
M  END
