3R94_FLR_A_332
     RDKit          3D

 31 32  0  0  0  0  0  0  0  0999 V2000
   32.0820   22.2170   14.0620 C   0  0  0  0  0  0  0  0  0  0  0  0
   32.3780   20.8430   14.1320 C   0  0  0  0  0  0  0  0  0  0  0  0
   31.5550   20.0370   14.9240 C   0  0  0  0  0  0  0  0  0  0  0  0
   30.5280   20.6480   15.6590 C   0  0  0  0  0  0  0  0  0  0  0  0
   30.2450   22.0350   15.5950 C   0  0  0  0  0  0  0  0  0  0  0  0
   31.0230   22.8310   14.7630 C   0  0  0  0  0  0  0  0  0  0  0  0
   30.8440   24.2160   14.6070 C   0  0  0  0  0  0  0  0  0  0  0  0
   30.5380   25.0460   15.6890 C   0  0  0  0  0  0  0  0  0  0  0  0
   30.3980   26.4130   15.5750 C   0  0  0  0  0  0  0  0  0  0  0  0
   30.3550   24.5010   16.8740 F   0  0  0  0  0  0  0  0  0  0  0  0
   31.0420   24.8220   13.3540 C   0  0  0  0  0  0  0  0  0  0  0  0
   30.8860   26.2160   13.2060 C   0  0  0  0  0  0  0  0  0  0  0  0
   30.5730   26.9980   14.3340 C   0  0  0  0  0  0  0  0  0  0  0  0
   30.3900   28.5070   14.2160 C   0  0  0  0  0  0  0  0  0  0  0  0
   31.6440   29.1550   13.6040 C   0  0  0  0  0  0  0  0  0  0  0  0
   29.2240   28.8310   13.2860 C   0  0  0  0  0  0  0  0  0  0  0  0
   29.5690   29.2040   12.1470 O   0  0  0  0  0  0  0  0  0  0  0  0
   28.0440   28.8070   13.7220 O   0  0  0  0  0  0  0  0  0  0  0  0
   32.7143   22.8502   13.4223 H   0  0  0  0  0  0  0  0  0  0  0  0
   33.2296   20.4169   13.5812 H   0  0  0  0  0  0  0  0  0  0  0  0
   31.7091   18.9488   14.9699 H   0  0  0  0  0  0  0  0  0  0  0  0
   29.9116   20.0189   16.3180 H   0  0  0  0  0  0  0  0  0  0  0  0
   29.4289   22.4712   16.1897 H   0  0  0  0  0  0  0  0  0  0  0  0
   30.1518   27.0265   16.4542 H   0  0  0  0  0  0  0  0  0  0  0  0
   31.3197   24.2066   12.4856 H   0  0  0  0  0  0  0  0  0  0  0  0
   31.0076   26.6872   12.2195 H   0  0  0  0  0  0  0  0  0  0  0  0
   30.2037   28.8949   15.2283 H   0  0  0  0  0  0  0  0  0  0  0  0
   32.3094   29.4988   14.4097 H   0  0  0  0  0  0  0  0  0  0  0  0
   32.1719   28.4168   12.9824 H   0  0  0  0  0  0  0  0  0  0  0  0
   31.3473   30.0127   12.9824 H   0  0  0  0  0  0  0  0  0  0  0  0
   27.8768   28.8036   14.6978 H   0  0  0  0  0  0  0  0  0  0  0  0
 17 16  2  0
 12 11  2  0
 12 13  1  0
 16 18  1  0
 16 14  1  0
 11  7  1  0
 15 14  1  0
  1  2  2  0
  1  6  1  0
  2  3  1  0
 14 13  1  0
 13  9  2  0
  7  6  1  0
  7  8  2  0
  6  5  2  0
  3  4  2  0
  9  8  1  0
  5  4  1  0
  8 10  1  0
  1 19  1  0
  2 20  1  0
  3 21  1  0
  4 22  1  0
  5 23  1  0
  9 24  1  0
 11 25  1  0
 12 26  1  0
 14 27  1  0
 15 28  1  0
 15 29  1  0
 15 30  1  0
 18 31  1  0
A    1
C1
A    2
C
A    3
C5
A    4
C4
A    5
C3
A    6
C2
A    7
C6
A    8
C11
A    9
C10
A   10
F
A   11
C7
A   12
C8
A   13
C9
A   14
C12
A   15
C13
A   16
C14
A   17
O1
A   18
O
M  END
