3RSV_3RS_A_400
     RDKit          3D

 65 68  0  0  0  0  0  0  0  0999 V2000
   13.3440  -40.0090   11.6280 C   0  0  0  0  0  0  0  0  0  0  0  0
   13.3210  -39.0620   12.8280 C   0  0  0  0  0  0  0  0  0  0  0  0
   12.7680  -39.7660   14.0870 C   0  0  0  0  0  0  0  0  0  0  0  0
   14.7450  -38.5810   13.0740 C   0  0  0  0  0  0  0  0  0  0  0  0
   12.5320  -37.8720   12.5010 O   0  0  0  0  0  0  0  0  0  0  0  0
   11.1650  -38.1240   12.0340 C   0  0  0  0  0  0  0  0  0  0  0  0
   11.1870  -39.0210   10.7910 C   0  0  0  0  0  0  0  0  0  0  0  0
   11.9500  -40.3160   11.0670 C   0  0  0  0  0  0  0  0  0  0  0  0
   12.1620  -41.0320    9.8010 N   0  0  0  0  0  0  0  0  0  0  0  0
   12.4110  -42.3390    9.7410 C   0  0  0  0  0  0  0  0  0  0  0  0
   12.4580  -43.0730   10.7230 O   0  0  0  0  0  0  0  0  0  0  0  0
   12.6630  -42.9000    8.3350 C   0  0  0  0  0  0  0  0  0  0  0  0
   11.7340  -44.0980    8.1050 C   0  0  0  0  0  0  0  0  0  0  0  0
   14.1780  -43.2350    8.1380 C   0  0  0  0  0  0  0  0  0  0  0  0
   15.0050  -41.9540    8.4020 C   0  0  0  0  0  0  0  0  0  0  0  0
   14.9760  -40.8110    7.5820 C   0  0  0  0  0  0  0  0  0  0  0  0
   15.6950  -39.7150    7.8810 N   0  0  0  0  0  0  0  0  0  0  0  0
   14.2470  -40.7750    6.4780 N   0  0  0  0  0  0  0  0  0  0  0  0
   15.8160  -41.9030    9.5450 C   0  0  0  0  0  0  0  0  0  0  0  0
   16.5660  -40.7510    9.8340 C   0  0  0  0  0  0  0  0  0  0  0  0
   17.3910  -40.6690   10.9700 C   0  0  0  0  0  0  0  0  0  0  0  0
   16.4760  -39.6540    8.9680 C   0  0  0  0  0  0  0  0  0  0  0  0
   17.2000  -38.4880    9.2190 C   0  0  0  0  0  0  0  0  0  0  0  0
   18.0200  -38.4130   10.3420 C   0  0  0  0  0  0  0  0  0  0  0  0
   18.1270  -39.5000   11.2190 C   0  0  0  0  0  0  0  0  0  0  0  0
   18.9710  -39.3650   12.3280 C   0  0  0  0  0  0  0  0  0  0  0  0
   18.6330  -38.4410   13.3210 C   0  0  0  0  0  0  0  0  0  0  0  0
   19.4540  -38.2690   14.4290 C   0  0  0  0  0  0  0  0  0  0  0  0
   20.6250  -39.0170   14.5500 C   0  0  0  0  0  0  0  0  0  0  0  0
   20.9830  -39.9380   13.5700 C   0  0  0  0  0  0  0  0  0  0  0  0
   20.1630  -40.1090   12.4540 C   0  0  0  0  0  0  0  0  0  0  0  0
   20.6200  -41.1470   11.4130 C   0  0  0  0  0  0  0  0  0  0  0  0
   13.8105  -40.9552   11.9395 H   0  0  0  0  0  0  0  0  0  0  0  0
   13.9118  -39.5081   10.8301 H   0  0  0  0  0  0  0  0  0  0  0  0
   13.1588  -39.2684   14.9868 H   0  0  0  0  0  0  0  0  0  0  0  0
   11.6694  -39.7106   14.0853 H   0  0  0  0  0  0  0  0  0  0  0  0
   13.0820  -40.8202   14.0853 H   0  0  0  0  0  0  0  0  0  0  0  0
   14.9291  -38.5188   14.1567 H   0  0  0  0  0  0  0  0  0  0  0  0
   15.4546  -39.2893   12.6215 H   0  0  0  0  0  0  0  0  0  0  0  0
   14.8798  -37.5875   12.6215 H   0  0  0  0  0  0  0  0  0  0  0  0
   10.5946  -38.6224   12.8317 H   0  0  0  0  0  0  0  0  0  0  0  0
   10.6913  -37.1652   11.7764 H   0  0  0  0  0  0  0  0  0  0  0  0
   10.1534  -39.2658   10.5051 H   0  0  0  0  0  0  0  0  0  0  0  0
   11.6930  -38.4814    9.9769 H   0  0  0  0  0  0  0  0  0  0  0  0
   11.3632  -40.9097   11.7833 H   0  0  0  0  0  0  0  0  0  0  0  0
   12.1159  -40.4991    8.9208 H   0  0  0  0  0  0  0  0  0  0  0  0
   12.4256  -42.1467    7.5694 H   0  0  0  0  0  0  0  0  0  0  0  0
   11.4165  -44.5074    9.0754 H   0  0  0  0  0  0  0  0  0  0  0  0
   10.8498  -43.7726    7.5373 H   0  0  0  0  0  0  0  0  0  0  0  0
   12.2693  -44.8734    7.5373 H   0  0  0  0  0  0  0  0  0  0  0  0
   14.4784  -44.0224    8.8450 H   0  0  0  0  0  0  0  0  0  0  0  0
   14.3539  -43.5913    7.1123 H   0  0  0  0  0  0  0  0  0  0  0  0
   13.2201  -40.7243    6.5403 H   0  0  0  0  0  0  0  0  0  0  0  0
   14.7065  -40.7977    5.5565 H   0  0  0  0  0  0  0  0  0  0  0  0
   15.8651  -42.7706   10.2195 H   0  0  0  0  0  0  0  0  0  0  0  0
   17.4595  -41.5205   11.6630 H   0  0  0  0  0  0  0  0  0  0  0  0
   17.1234  -37.6317    8.5328 H   0  0  0  0  0  0  0  0  0  0  0  0
   18.5883  -37.4927   10.5420 H   0  0  0  0  0  0  0  0  0  0  0  0
   17.7123  -37.8469   13.2249 H   0  0  0  0  0  0  0  0  0  0  0  0
   19.1807  -37.5438   15.2096 H   0  0  0  0  0  0  0  0  0  0  0  0
   21.2719  -38.8776   15.4287 H   0  0  0  0  0  0  0  0  0  0  0  0
   21.9061  -40.5271   13.6744 H   0  0  0  0  0  0  0  0  0  0  0  0
   21.0114  -42.0361   11.9291 H   0  0  0  0  0  0  0  0  0  0  0  0
   19.7656  -41.4352   10.7830 H   0  0  0  0  0  0  0  0  0  0  0  0
   21.4096  -40.7114   10.7830 H   0  0  0  0  0  0  0  0  0  0  0  0
  8  1  1  0
  1  2  1  0
  5  2  1  0
  2  4  1  0
  2  3  1  0
  6  5  1  0
  7  6  1  0
  7  8  1  0
  9  8  1  0
 10  9  1  0
 12 10  1  0
 10 11  2  0
 13 12  1  0
 14 12  1  0
 14 15  1  0
 16 15  2  0
 15 19  1  0
 18 16  1  0
 16 17  1  0
 17 22  2  0
 19 20  2  0
 22 20  1  0
 20 21  1  0
 21 25  2  0
 22 23  1  0
 23 24  2  0
 24 25  1  0
 25 26  1  0
 26 31  1  0
 26 27  2  0
 27 28  1  0
 28 29  2  0
 30 29  1  0
 31 30  2  0
 32 31  1  0
  1 33  1  0
  1 34  1  0
  3 35  1  0
  3 36  1  0
  3 37  1  0
  4 38  1  0
  4 39  1  0
  4 40  1  0
  6 41  1  0
  6 42  1  0
  7 43  1  0
  7 44  1  0
  8 45  1  0
  9 46  1  0
 12 47  1  0
 13 48  1  0
 13 49  1  0
 13 50  1  0
 14 51  1  0
 14 52  1  0
 18 53  1  0
 18 54  1  0
 19 55  1  0
 21 56  1  0
 23 57  1  0
 24 58  1  0
 27 59  1  0
 28 60  1  0
 29 61  1  0
 30 62  1  0
 32 63  1  0
 32 64  1  0
 32 65  1  0
A    1
C26
A    2
C27
A    3
C31
A    4
C32
A    5
O28
A    6
C29
A    7
C30
A    8
C25
A    9
N15
A   10
C14
A   11
O16
A   12
C13
A   13
C17
A   14
C12
A   15
C9
A   16
C8
A   17
N7
A   18
N11
A   19
C10
A   20
C5
A   21
C6
A   22
C4
A   23
C3
A   24
C2
A   25
C1
A   26
C18
A   27
C19
A   28
C20
A   29
C21
A   30
C22
A   31
C23
A   32
C24
M  END
