3RTS_KLG_A_0
     RDKit          3D

 31 31  0  0  0  0  0  0  0  0999 V2000
    2.7750   -2.6060    3.8310 O   0  0  0  0  0  0  0  0  0  0  0  0
    1.6380   -2.6540    4.2900 C   0  0  0  0  0  0  0  0  0  0  0  0
    1.2640   -2.0380    5.4060 N   0  0  0  0  0  0  0  0  0  0  0  0
    2.1930   -1.2600    6.0740 O   0  0  0  0  0  0  0  0  0  0  0  0
    0.5750   -3.4740    3.6340 C   0  0  0  0  0  0  0  0  0  0  0  0
    0.9860   -4.8570    3.5250 N   0  0  0  0  0  0  0  0  0  0  0  0
    1.4700   -5.8850    4.6770 S   0  0  0  0  0  0  0  0  0  0  0  0
    0.8880   -7.1380    4.6440 O   0  0  0  0  0  0  0  0  0  0  0  0
    0.4000   -5.4900    5.5550 O   0  0  0  0  0  0  0  0  0  0  0  0
    2.5660   -5.3750    5.8380 C   0  0  0  0  0  0  0  0  0  0  0  0
    2.7360   -6.3550    7.0060 C   0  0  0  0  0  0  0  0  0  0  0  0
    4.1300   -6.4100    7.5870 C   0  0  0  0  0  0  0  0  0  0  0  0
    5.2550   -6.3210    6.7680 C   0  0  0  0  0  0  0  0  0  0  0  0
    6.5140   -6.4210    7.3350 C   0  0  0  0  0  0  0  0  0  0  0  0
    4.2730   -6.6200    8.9670 C   0  0  0  0  0  0  0  0  0  0  0  0
    5.5350   -6.7100    9.5430 C   0  0  0  0  0  0  0  0  0  0  0  0
    6.6540   -6.6130    8.7190 C   0  0  0  0  0  0  0  0  0  0  0  0
    0.3041   -2.1373    5.7659 H   0  0  0  0  0  0  0  0  0  0  0  0
    2.0691   -1.3638    7.0507 H   0  0  0  0  0  0  0  0  0  0  0  0
   -0.3454   -3.4176    4.2338 H   0  0  0  0  0  0  0  0  0  0  0  0
    0.3984   -3.0782    2.6230 H   0  0  0  0  0  0  0  0  0  0  0  0
    0.1794   -5.3268    3.0895 H   0  0  0  0  0  0  0  0  0  0  0  0
    3.5447   -5.2395    5.3545 H   0  0  0  0  0  0  0  0  0  0  0  0
    2.1706   -4.4398    6.2611 H   0  0  0  0  0  0  0  0  0  0  0  0
    2.0427   -6.0574    7.8065 H   0  0  0  0  0  0  0  0  0  0  0  0
    2.5278   -7.3572    6.6032 H   0  0  0  0  0  0  0  0  0  0  0  0
    5.1434   -6.1730    5.6837 H   0  0  0  0  0  0  0  0  0  0  0  0
    7.4085   -6.3498    6.6987 H   0  0  0  0  0  0  0  0  0  0  0  0
    3.3778   -6.7143    9.5992 H   0  0  0  0  0  0  0  0  0  0  0  0
    5.6477   -6.8549   10.6276 H   0  0  0  0  0  0  0  0  0  0  0  0
    7.6598   -6.6877    9.1580 H   0  0  0  0  0  0  0  0  0  0  0  0
  1  2  2  0
  2  3  1  0
  3  4  1  0
  5  2  1  0
  6  5  1  0
  6  7  1  0
  7  9  2  0
  7 10  1  0
  8  7  2  0
 10 11  1  0
 11 12  1  0
 12 15  2  0
 13 12  1  0
 13 14  2  0
 14 17  1  0
 15 16  1  0
 17 16  2  0
  3 18  1  0
  4 19  1  0
  5 20  1  0
  5 21  1  0
  6 22  1  0
 10 23  1  0
 10 24  1  0
 11 25  1  0
 11 26  1  0
 13 27  1  0
 14 28  1  0
 15 29  1  0
 16 30  1  0
 17 31  1  0
A    1
O3
A    2
C10
A    3
N1
A    4
O4
A    5
C9
A    6
N2
A    7
S1
A    8
O1
A    9
O2
A   10
C8
A   11
C7
A   12
C6
A   13
C3
A   14
C1
A   15
C5
A   16
C4
A   17
C2
M  END
