3RUU_37G_A_1
     RDKit          3D

 58 62  0  0  0  0  0  0  0  0999 V2000
   27.7820   -0.9560  -20.0480 C   0  0  0  0  0  0  0  0  0  0  0  0
   25.9230   -2.4700  -20.1710 C   0  0  0  0  0  0  0  0  0  0  0  0
   27.8810   -2.9840  -18.6750 C   0  0  0  0  0  0  0  0  0  0  0  0
   29.1890   -4.5300  -16.7730 C   0  0  0  0  0  0  0  0  0  0  0  0
   29.5540   -5.4110  -15.7770 C   0  0  0  0  0  0  0  0  0  0  0  0
   28.3770   -6.0090  -15.3340 C   0  0  0  0  0  0  0  0  0  0  0  0
   27.8080   -4.6200  -16.9200 C   0  0  0  0  0  0  0  0  0  0  0  0
   30.9240   -5.6640  -15.2660 C   0  0  0  0  0  0  0  0  0  0  0  0
   22.7580    4.7030  -22.1170 C   0  0  0  0  0  0  0  0  0  0  0  0
   22.2720    3.3270  -22.4200 C   0  0  0  0  0  0  0  0  0  0  0  0
   20.7500    3.2160  -22.4190 C   0  0  0  0  0  0  0  0  0  0  0  0
   22.9220    2.7240  -23.6620 C   0  0  0  0  0  0  0  0  0  0  0  0
   22.9110    3.2960  -24.8860 O   0  0  0  0  0  0  0  0  0  0  0  0
   23.5940    2.4740  -25.7580 N   0  0  0  0  0  0  0  0  0  0  0  0
   24.0340    1.3900  -25.0810 C   0  0  0  0  0  0  0  0  0  0  0  0
   23.6230    1.5150  -23.7690 C   0  0  0  0  0  0  0  0  0  0  0  0
   23.9410    0.4670  -22.6450 C   0  0  0  0  0  0  0  0  0  0  0  0
   25.3490    0.4080  -22.3550 O   0  0  0  0  0  0  0  0  0  0  0  0
   25.9150   -0.4450  -21.4680 C   0  0  0  0  0  0  0  0  0  0  0  0
   27.1530   -0.1190  -20.9520 C   0  0  0  0  0  0  0  0  0  0  0  0
   27.1760   -2.1350  -19.6620 C   0  0  0  0  0  0  0  0  0  0  0  0
   25.2950   -1.6310  -21.0780 C   0  0  0  0  0  0  0  0  0  0  0  0
   29.2760   -2.8840  -18.5270 C   0  0  0  0  0  0  0  0  0  0  0  0
   29.9240   -3.6560  -17.5820 C   0  0  0  0  0  0  0  0  0  0  0  0
   27.3510   -5.5190  -16.0380 N   0  0  0  0  0  0  0  0  0  0  0  0
   27.1580   -3.8470  -17.8620 C   0  0  0  0  0  0  0  0  0  0  0  0
   31.9300   -5.1650  -15.8650 O   0  0  0  0  0  0  0  0  0  0  0  0
   31.0930   -6.4110  -14.1660 O   0  0  0  0  0  0  0  0  0  0  0  0
   24.8090    0.2610  -25.6370 C   0  0  0  0  0  0  0  0  0  0  0  0
   24.1770   -0.9320  -25.9210 C   0  0  0  0  0  0  0  0  0  0  0  0
   22.5050   -1.1100  -25.6300 Cl  0  0  0  0  0  0  0  0  0  0  0  0
   24.9020   -1.9960  -26.4430 C   0  0  0  0  0  0  0  0  0  0  0  0
   26.2700   -1.8540  -26.6780 C   0  0  0  0  0  0  0  0  0  0  0  0
   26.9080   -0.6590  -26.3980 C   0  0  0  0  0  0  0  0  0  0  0  0
   26.1830    0.3980  -25.8810 C   0  0  0  0  0  0  0  0  0  0  0  0
   26.9550    1.8560  -25.5280 Cl  0  0  0  0  0  0  0  0  0  0  0  0
   28.7648   -0.6823  -19.6367 H   0  0  0  0  0  0  0  0  0  0  0  0
   25.4317   -3.4013  -19.8527 H   0  0  0  0  0  0  0  0  0  0  0  0
   28.3032   -6.7617  -14.5352 H   0  0  0  0  0  0  0  0  0  0  0  0
   22.8073    4.8427  -21.0270 H   0  0  0  0  0  0  0  0  0  0  0  0
   23.7595    4.8418  -22.5502 H   0  0  0  0  0  0  0  0  0  0  0  0
   22.0658    5.4400  -22.5502 H   0  0  0  0  0  0  0  0  0  0  0  0
   22.6094    2.7007  -21.5810 H   0  0  0  0  0  0  0  0  0  0  0  0
   20.3850    3.1894  -21.3817 H   0  0  0  0  0  0  0  0  0  0  0  0
   20.3186    4.0851  -22.9373 H   0  0  0  0  0  0  0  0  0  0  0  0
   20.4493    2.2935  -22.9373 H   0  0  0  0  0  0  0  0  0  0  0  0
   23.4002    0.7505  -21.7300 H   0  0  0  0  0  0  0  0  0  0  0  0
   23.6224   -0.5241  -23.0003 H   0  0  0  0  0  0  0  0  0  0  0  0
   27.6440    0.8151  -21.2625 H   0  0  0  0  0  0  0  0  0  0  0  0
   24.3107   -1.9001  -21.4887 H   0  0  0  0  0  0  0  0  0  0  0  0
   29.8497   -2.1929  -19.1620 H   0  0  0  0  0  0  0  0  0  0  0  0
   31.0155   -3.5838  -17.4657 H   0  0  0  0  0  0  0  0  0  0  0  0
   26.3643   -5.7902  -15.9206 H   0  0  0  0  0  0  0  0  0  0  0  0
   26.0653   -3.9151  -17.9685 H   0  0  0  0  0  0  0  0  0  0  0  0
   31.0002   -6.0006  -13.2699 H   0  0  0  0  0  0  0  0  0  0  0  0
   24.3991   -2.9475  -26.6703 H   0  0  0  0  0  0  0  0  0  0  0  0
   26.8446   -2.6974  -27.0884 H   0  0  0  0  0  0  0  0  0  0  0  0
   27.9864   -0.5506  -26.5858 H   0  0  0  0  0  0  0  0  0  0  0  0
  1 20  2  0
  1 21  1  0
  2 21  2  0
  2 22  1  0
  3 21  1  0
  3 23  1  0
  3 26  2  0
  4  5  1  0
  4  7  2  0
  4 24  1  0
  5  6  2  0
  5  8  1  0
  6 25  1  0
  7 25  1  0
  7 26  1  0
  8 27  2  0
  8 28  1  0
  9 10  1  0
 10 11  1  0
 10 12  1  0
 12 13  1  0
 12 16  2  0
 13 14  1  0
 14 15  2  0
 15 16  1  0
 15 29  1  0
 16 17  1  0
 17 18  1  0
 18 19  1  0
 19 20  1  0
 19 22  2  0
 23 24  2  0
 29 30  2  0
 29 35  1  0
 30 31  1  0
 30 32  1  0
 32 33  2  0
 33 34  1  0
 34 35  2  0
 35 36  1  0
  1 37  1  0
  2 38  1  0
  6 39  1  0
  9 40  1  0
  9 41  1  0
  9 42  1  0
 10 43  1  0
 11 44  1  0
 11 45  1  0
 11 46  1  0
 17 47  1  0
 17 48  1  0
 20 49  1  0
 22 50  1  0
 23 51  1  0
 24 52  1  0
 25 53  1  0
 26 54  1  0
 28 55  1  0
 32 56  1  0
 33 57  1  0
 34 58  1  0
A    1
C13
A    2
C15
A    3
C17
A    4
C20
A    5
C21
A    6
C22
A    7
C24
A    8
C26
A    9
C01
A   10
C02
A   11
C03
A   12
C04
A   13
O05
A   14
N06
A   15
C07
A   16
C08
A   17
C09
A   18
O10
A   19
C11
A   20
C12
A   21
C14
A   22
C16
A   23
C18
A   24
C19
A   25
N23
A   26
C25
A   27
O27
A   28
O28
A   29
C29
A   30
C30
A   31
CL31
A   32
C32
A   33
C33
A   34
C34
A   35
C35
A   36
CL36
M  END
