3RV6_RVA_A_454
     RDKit          3D

 34 35  0  0  0  0  0  0  0  0999 V2000
   11.7860   56.4310   40.2530 C   0  0  0  0  0  0  0  0  0  0  0  0
   15.3050   52.8420   44.6610 C   0  0  0  0  0  0  0  0  0  0  0  0
   12.9860   55.9710   40.9230 C   0  0  0  0  0  0  0  0  0  0  0  0
   13.1600   54.6370   41.3650 C   0  0  0  0  0  0  0  0  0  0  0  0
   12.0950   53.6560   41.2080 O   0  0  0  0  0  0  0  0  0  0  0  0
   14.4100   54.2000   42.0250 C   0  0  0  0  0  0  0  0  0  0  0  0
   14.3680   52.8530   42.3240 O   0  0  0  0  0  0  0  0  0  0  0  0
   15.3570   55.1200   42.2170 C   0  0  0  0  0  0  0  0  0  0  0  0
   15.1630   56.4950   41.7610 C   0  0  0  0  0  0  0  0  0  0  0  0
   14.1010   56.9100   41.1790 C   0  0  0  0  0  0  0  0  0  0  0  0
   15.3780   52.2090   43.2180 C   0  0  0  0  0  0  0  0  0  0  0  0
   16.1450   51.2620   42.7710 C   0  0  0  0  0  0  0  0  0  0  0  0
   16.1940   50.6280   41.3660 C   0  0  0  0  0  0  0  0  0  0  0  0
   10.8630   55.6600   40.0010 O   0  0  0  0  0  0  0  0  0  0  0  0
   11.7650   57.7370   39.9190 O   0  0  0  0  0  0  0  0  0  0  0  0
   15.6560   51.2680   40.0430 C   0  0  0  0  0  0  0  0  0  0  0  0
   15.6810   50.6760   38.8050 C   0  0  0  0  0  0  0  0  0  0  0  0
   16.2040   49.4220   38.6910 C   0  0  0  0  0  0  0  0  0  0  0  0
   16.7720   48.6310   39.8270 C   0  0  0  0  0  0  0  0  0  0  0  0
   16.7470   49.3040   41.2240 C   0  0  0  0  0  0  0  0  0  0  0  0
   16.3460   52.7080   45.2940 O   0  0  0  0  0  0  0  0  0  0  0  0
   14.3660   53.3310   45.0270 O   0  0  0  0  0  0  0  0  0  0  0  0
   11.6651   53.2600   42.0070 H   0  0  0  0  0  0  0  0  0  0  0  0
   16.2928   54.8410   42.7234 H   0  0  0  0  0  0  0  0  0  0  0  0
   15.9773   57.2155   41.9277 H   0  0  0  0  0  0  0  0  0  0  0  0
   14.0173   57.9623   40.8698 H   0  0  0  0  0  0  0  0  0  0  0  0
   16.8623   50.8534   43.4980 H   0  0  0  0  0  0  0  0  0  0  0  0
   10.3562   55.2367   40.7386 H   0  0  0  0  0  0  0  0  0  0  0  0
   15.2216   52.2763   40.1110 H   0  0  0  0  0  0  0  0  0  0  0  0
   15.2872   51.2023   37.9230 H   0  0  0  0  0  0  0  0  0  0  0  0
   16.2087   48.9590   37.6932 H   0  0  0  0  0  0  0  0  0  0  0  0
   17.1864   47.6229   39.6787 H   0  0  0  0  0  0  0  0  0  0  0  0
   17.1485   48.7748   42.1008 H   0  0  0  0  0  0  0  0  0  0  0  0
   16.3273   52.7104   46.2838 H   0  0  0  0  0  0  0  0  0  0  0  0
  1  3  1  0
  1 14  1  0
  1 15  2  0
  2 11  1  0
  2 21  1  0
  2 22  2  0
  3  4  2  0
  3 10  1  0
  4  5  1  0
  4  6  1  0
  6  7  1  0
  6  8  2  0
  7 11  1  0
  8  9  1  0
  9 10  2  0
 11 12  2  0
 12 13  1  0
 13 16  2  0
 13 20  1  0
 16 17  1  0
 17 18  2  0
 18 19  1  0
 19 20  2  0
  5 23  1  0
  8 24  1  0
  9 25  1  0
 10 26  1  0
 12 27  1  0
 14 28  1  0
 16 29  1  0
 17 30  1  0
 18 31  1  0
 19 32  1  0
 20 33  1  0
 21 34  1  0
A    1
C
A    2
C'
A    3
C1
A    4
C2
A    5
O2
A    6
C3
A    7
O3
A    8
C4
A    9
C5
A   10
C6
A   11
C7
A   12
C8
A   13
C9
A   14
OA
A   15
OB
A   16
C10
A   17
C11
A   18
C12
A   19
C13
A   20
C14
A   21
OA'
A   22
OB'
M  END
