3RV6_VAE_A_451
     RDKit          3D

 34 35  0  0  0  0  0  0  0  0999 V2000
   11.9800   42.0910   24.7790 C   0  0  0  0  0  0  0  0  0  0  0  0
   13.4380   42.1400   30.9360 C   0  0  0  0  0  0  0  0  0  0  0  0
   12.0080   42.7250   26.0770 C   0  0  0  0  0  0  0  0  0  0  0  0
   11.6840   41.9780   27.2110 C   0  0  0  0  0  0  0  0  0  0  0  0
   11.3190   40.5280   27.1610 O   0  0  0  0  0  0  0  0  0  0  0  0
   11.7000   42.5810   28.5370 C   0  0  0  0  0  0  0  0  0  0  0  0
   11.3390   41.6330   29.4820 O   0  0  0  0  0  0  0  0  0  0  0  0
   12.0150   43.8690   28.5960 C   0  0  0  0  0  0  0  0  0  0  0  0
   12.2960   44.6340   27.3930 C   0  0  0  0  0  0  0  0  0  0  0  0
   12.3680   44.1150   26.2510 C   0  0  0  0  0  0  0  0  0  0  0  0
   11.8990   41.8060   30.8550 C   0  0  0  0  0  0  0  0  0  0  0  0
   11.1300   41.6790   31.8360 C   0  0  0  0  0  0  0  0  0  0  0  0
   11.3420   41.7630   33.3420 C   0  0  0  0  0  0  0  0  0  0  0  0
   11.5910   40.7960   24.6950 O   0  0  0  0  0  0  0  0  0  0  0  0
   12.2980   42.7610   23.8350 O   0  0  0  0  0  0  0  0  0  0  0  0
   12.6470   41.4290   34.0890 C   0  0  0  0  0  0  0  0  0  0  0  0
   12.8170   41.5260   35.4340 C   0  0  0  0  0  0  0  0  0  0  0  0
   11.7570   41.8970   36.1980 C   0  0  0  0  0  0  0  0  0  0  0  0
   10.4090   42.2780   35.6780 C   0  0  0  0  0  0  0  0  0  0  0  0
   10.2510   42.1870   34.1500 C   0  0  0  0  0  0  0  0  0  0  0  0
   13.6990   43.1120   31.6510 O   0  0  0  0  0  0  0  0  0  0  0  0
   14.1470   41.6040   30.3100 O   0  0  0  0  0  0  0  0  0  0  0  0
   11.1912   40.0205   28.0013 H   0  0  0  0  0  0  0  0  0  0  0  0
   12.0643   44.3674   29.5754 H   0  0  0  0  0  0  0  0  0  0  0  0
   12.4531   45.7187   27.4865 H   0  0  0  0  0  0  0  0  0  0  0  0
   12.7022   44.7130   25.3904 H   0  0  0  0  0  0  0  0  0  0  0  0
   10.0896   41.4627   31.5517 H   0  0  0  0  0  0  0  0  0  0  0  0
   11.4336   40.2719   25.5200 H   0  0  0  0  0  0  0  0  0  0  0  0
   13.5040   41.0870   33.4902 H   0  0  0  0  0  0  0  0  0  0  0  0
   13.7923   41.3087   35.8940 H   0  0  0  0  0  0  0  0  0  0  0  0
   11.9028   41.9187   37.2881 H   0  0  0  0  0  0  0  0  0  0  0  0
    9.5903   42.5997   36.3385 H   0  0  0  0  0  0  0  0  0  0  0  0
    9.2914   42.4507   33.6813 H   0  0  0  0  0  0  0  0  0  0  0  0
   13.6749   43.0222   32.6366 H   0  0  0  0  0  0  0  0  0  0  0  0
  1  3  1  0
  1 14  1  0
  1 15  2  0
  2 11  1  0
  2 21  1  0
  2 22  2  0
  3  4  2  0
  3 10  1  0
  4  5  1  0
  4  6  1  0
  6  7  1  0
  6  8  2  0
  7 11  1  0
  8  9  1  0
  9 10  2  0
 11 12  2  0
 12 13  1  0
 13 16  2  0
 13 20  1  0
 16 17  1  0
 17 18  2  0
 18 19  1  0
 19 20  2  0
  5 23  1  0
  8 24  1  0
  9 25  1  0
 10 26  1  0
 12 27  1  0
 14 28  1  0
 16 29  1  0
 17 30  1  0
 18 31  1  0
 19 32  1  0
 20 33  1  0
 21 34  1  0
A    1
C
A    2
C'
A    3
C1
A    4
C2
A    5
O2
A    6
C3
A    7
O3
A    8
C4
A    9
C5
A   10
C6
A   11
C7
A   12
C8
A   13
C9
A   14
OA
A   15
OB
A   16
C10
A   17
C11
A   18
C12
A   19
C13
A   20
C14
A   21
OA'
A   22
OB'
M  END
