3RV7_RVB_A_451
     RDKit          3D

 33 33  0  0  0  0  0  0  0  0999 V2000
   41.5620   -1.7870   38.9920 C   0  0  0  0  0  0  0  0  0  0  0  0
   43.9080   -1.1790   38.9660 C   0  0  0  0  0  0  0  0  0  0  0  0
   40.8970    3.7960   39.2690 O   0  0  0  0  0  0  0  0  0  0  0  0
   40.0560    2.6620   33.0550 O   0  0  0  0  0  0  0  0  0  0  0  0
   40.4960    2.2320   40.6920 O   0  0  0  0  0  0  0  0  0  0  0  0
   37.9840    2.3730   32.9350 O   0  0  0  0  0  0  0  0  0  0  0  0
   41.2690    2.3280   34.9780 O   0  0  0  0  0  0  0  0  0  0  0  0
   42.2330    0.5590   39.3680 C   0  0  0  0  0  0  0  0  0  0  0  0
   37.9120    1.1060   36.8580 C   0  0  0  0  0  0  0  0  0  0  0  0
   39.1200    1.1120   37.5470 C   0  0  0  0  0  0  0  0  0  0  0  0
   37.8360    1.5060   35.5350 C   0  0  0  0  0  0  0  0  0  0  0  0
   41.5340    1.6050   37.4060 O   0  0  0  0  0  0  0  0  0  0  0  0
   40.9870    2.6110   39.6100 C   0  0  0  0  0  0  0  0  0  0  0  0
   39.0030    2.3320   33.5860 C   0  0  0  0  0  0  0  0  0  0  0  0
   41.7500    1.6260   38.7410 C   0  0  0  0  0  0  0  0  0  0  0  0
   40.1640    1.9260   35.5960 C   0  0  0  0  0  0  0  0  0  0  0  0
   40.2680    1.5400   36.8980 C   0  0  0  0  0  0  0  0  0  0  0  0
   38.9880    1.9210   34.8930 C   0  0  0  0  0  0  0  0  0  0  0  0
   42.5280   -0.6980   38.5880 C   0  0  0  0  0  0  0  0  0  0  0  0
   41.5116   -1.8438   40.0894 H   0  0  0  0  0  0  0  0  0  0  0  0
   40.5636   -1.5590   38.5904 H   0  0  0  0  0  0  0  0  0  0  0  0
   41.9074   -2.7511   38.5904 H   0  0  0  0  0  0  0  0  0  0  0  0
   43.9980   -1.2104   40.0619 H   0  0  0  0  0  0  0  0  0  0  0  0
   44.0702   -2.1867   38.5558 H   0  0  0  0  0  0  0  0  0  0  0  0
   44.6614   -0.4905   38.5558 H   0  0  0  0  0  0  0  0  0  0  0  0
   40.8364    2.9066   33.6129 H   0  0  0  0  0  0  0  0  0  0  0  0
   40.8899    2.5361   41.5478 H   0  0  0  0  0  0  0  0  0  0  0  0
   42.0556    2.6142   35.5066 H   0  0  0  0  0  0  0  0  0  0  0  0
   42.4171    0.5920   40.4520 H   0  0  0  0  0  0  0  0  0  0  0  0
   36.9985    0.7767   37.3748 H   0  0  0  0  0  0  0  0  0  0  0  0
   39.1642    0.7809   38.5951 H   0  0  0  0  0  0  0  0  0  0  0  0
   36.8736    1.4939   35.0025 H   0  0  0  0  0  0  0  0  0  0  0  0
   42.4457   -0.4837   37.5122 H   0  0  0  0  0  0  0  0  0  0  0  0
  1 19  1  0
  2 19  1  0
  3 13  2  0
  4 14  1  0
  5 13  1  0
  6 14  2  0
  7 16  1  0
  8 15  2  0
  8 19  1  0
  9 10  2  0
  9 11  1  0
 10 17  1  0
 11 18  2  0
 12 15  1  0
 12 17  1  0
 13 15  1  0
 14 18  1  0
 16 17  2  0
 16 18  1  0
  1 20  1  0
  1 21  1  0
  1 22  1  0
  2 23  1  0
  2 24  1  0
  2 25  1  0
  4 26  1  0
  5 27  1  0
  7 28  1  0
  8 29  1  0
  9 30  1  0
 10 31  1  0
 11 32  1  0
 19 33  1  0
A    1
C10
A    2
C11
A    3
OA'
A    4
OA
A    5
OB'
A    6
OB
A    7
O2
A    8
C8
A    9
C5
A   10
C4
A   11
C6
A   12
O3
A   13
C'
A   14
C
A   15
C7
A   16
C2
A   17
C3
A   18
C1
A   19
C9
M  END
