3RV8_RVC_A_451
     RDKit          3D

 31 32  0  0  0  0  0  0  0  0999 V2000
   -3.3480   -7.0600   30.0620 O   0  0  0  0  0  0  0  0  0  0  0  0
   -0.7150   -5.6570   23.9090 O   0  0  0  0  0  0  0  0  0  0  0  0
   -1.3260   -7.0740   30.6930 O   0  0  0  0  0  0  0  0  0  0  0  0
    1.3010   -6.0330   23.9040 O   0  0  0  0  0  0  0  0  0  0  0  0
   -1.8190   -5.0560   25.8290 O   0  0  0  0  0  0  0  0  0  0  0  0
   -2.4070   -4.2320   30.5940 C   0  0  0  0  0  0  0  0  0  0  0  0
    1.3470   -5.9870   27.9510 C   0  0  0  0  0  0  0  0  0  0  0  0
    0.2200   -5.5880   28.6170 C   0  0  0  0  0  0  0  0  0  0  0  0
    1.4210   -6.0890   26.5930 C   0  0  0  0  0  0  0  0  0  0  0  0
   -2.3900   -1.9160   31.3010 C   0  0  0  0  0  0  0  0  0  0  0  0
   -3.7710   -2.1640   30.8610 C   0  0  0  0  0  0  0  0  0  0  0  0
   -2.0270   -4.8730   28.4040 O   0  0  0  0  0  0  0  0  0  0  0  0
   -2.2650   -6.5120   30.1720 C   0  0  0  0  0  0  0  0  0  0  0  0
    0.3070   -5.8130   24.5190 C   0  0  0  0  0  0  0  0  0  0  0  0
   -2.0840   -5.1260   29.7110 C   0  0  0  0  0  0  0  0  0  0  0  0
   -0.7810   -5.3570   26.5440 C   0  0  0  0  0  0  0  0  0  0  0  0
   -0.8730   -5.2670   27.8870 C   0  0  0  0  0  0  0  0  0  0  0  0
    0.3260   -5.7510   25.8760 C   0  0  0  0  0  0  0  0  0  0  0  0
   -2.6430   -2.8130   30.1900 C   0  0  0  0  0  0  0  0  0  0  0  0
   -1.5671   -5.5269   24.3959 H   0  0  0  0  0  0  0  0  0  0  0  0
   -1.2587   -7.1143   31.6799 H   0  0  0  0  0  0  0  0  0  0  0  0
   -2.6698   -4.8093   26.2709 H   0  0  0  0  0  0  0  0  0  0  0  0
   -2.5081   -4.5215   31.6504 H   0  0  0  0  0  0  0  0  0  0  0  0
    2.2400   -6.2386   28.5420 H   0  0  0  0  0  0  0  0  0  0  0  0
    0.2032   -5.5299   29.7153 H   0  0  0  0  0  0  0  0  0  0  0  0
    2.3405   -6.4346   26.0980 H   0  0  0  0  0  0  0  0  0  0  0  0
   -1.9235   -0.9362   31.1210 H   0  0  0  0  0  0  0  0  0  0  0  0
   -1.8532   -1.9966   32.2578 H   0  0  0  0  0  0  0  0  0  0  0  0
   -4.4533   -2.7546   31.4901 H   0  0  0  0  0  0  0  0  0  0  0  0
   -4.6150   -1.5352   30.5411 H   0  0  0  0  0  0  0  0  0  0  0  0
   -2.3345   -2.8920   29.1371 H   0  0  0  0  0  0  0  0  0  0  0  0
  1 13  2  0
  2 14  1  0
  3 13  1  0
  4 14  2  0
  5 16  1  0
  6 15  2  0
  6 19  1  0
  7  8  2  0
  7  9  1  0
  8 17  1  0
  9 18  2  0
 10 11  1  0
 10 19  1  0
 11 19  1  0
 12 15  1  0
 12 17  1  0
 13 15  1  0
 14 18  1  0
 16 17  2  0
 16 18  1  0
  2 20  1  0
  3 21  1  0
  5 22  1  0
  6 23  1  0
  7 24  1  0
  8 25  1  0
  9 26  1  0
 10 27  1  0
 10 28  1  0
 11 29  1  0
 11 30  1  0
 19 31  1  0
A    1
OB'
A    2
OB
A    3
OA'
A    4
OA
A    5
O2
A    6
C8
A    7
C5
A    8
C4
A    9
C6
A   10
C10
A   11
C11
A   12
O3
A   13
C'
A   14
C
A   15
C7
A   16
C2
A   17
C3
A   18
C1
A   19
C9
M  END
