3RVH_HQ2_A_503
     RDKit          3D

 35 37  0  0  0  0  0  0  0  0999 V2000
  -26.9600  -20.2770  -20.8230 N   0  0  0  0  0  0  0  0  0  0  0  0
  -23.6740  -18.9100  -20.5460 N   0  0  0  0  0  0  0  0  0  0  0  0
  -21.6060  -17.0670  -19.8350 N   0  0  0  0  0  0  0  0  0  0  0  0
  -27.9560  -22.7430  -23.3400 C   0  0  0  0  0  0  0  0  0  0  0  0
  -26.7540  -22.8740  -24.0170 C   0  0  0  0  0  0  0  0  0  0  0  0
  -25.6320  -22.1540  -23.6350 C   0  0  0  0  0  0  0  0  0  0  0  0
  -25.6940  -21.2570  -22.5570 C   0  0  0  0  0  0  0  0  0  0  0  0
  -26.9100  -21.1270  -21.8650 C   0  0  0  0  0  0  0  0  0  0  0  0
  -28.0460  -21.8760  -22.2640 C   0  0  0  0  0  0  0  0  0  0  0  0
  -24.5660  -20.5270  -22.1240 C   0  0  0  0  0  0  0  0  0  0  0  0
  -24.6900  -19.6530  -21.0320 C   0  0  0  0  0  0  0  0  0  0  0  0
  -25.9290  -19.5640  -20.3950 C   0  0  0  0  0  0  0  0  0  0  0  0
  -24.3360  -22.3260  -24.4090 C   0  0  0  0  0  0  0  0  0  0  0  0
  -22.3680  -18.9820  -21.2250 C   0  0  0  0  0  0  0  0  0  0  0  0
  -21.2720  -18.4310  -20.2880 C   0  0  0  0  0  0  0  0  0  0  0  0
  -22.9460  -17.0000  -19.2100 C   0  0  0  0  0  0  0  0  0  0  0  0
  -24.0210  -17.5230  -20.1840 C   0  0  0  0  0  0  0  0  0  0  0  0
  -29.2370  -21.7490  -21.5930 O   0  0  0  0  0  0  0  0  0  0  0  0
  -24.4480  -22.7840  -25.5720 O   0  0  0  0  0  0  0  0  0  0  0  0
  -23.2650  -21.9930  -23.8530 O   0  0  0  0  0  0  0  0  0  0  0  0
  -20.9027  -16.7644  -19.1460 H   0  0  0  0  0  0  0  0  0  0  0  0
  -28.8344  -23.3249  -23.6558 H   0  0  0  0  0  0  0  0  0  0  0  0
  -26.6886  -23.5617  -24.8731 H   0  0  0  0  0  0  0  0  0  0  0  0
  -23.5997  -20.6417  -22.6369 H   0  0  0  0  0  0  0  0  0  0  0  0
  -26.0502  -18.8957  -19.5298 H   0  0  0  0  0  0  0  0  0  0  0  0
  -22.1428  -20.0287  -21.4775 H   0  0  0  0  0  0  0  0  0  0  0  0
  -22.3994  -18.3821  -22.1465 H   0  0  0  0  0  0  0  0  0  0  0  0
  -20.3143  -18.4069  -20.8285 H   0  0  0  0  0  0  0  0  0  0  0  0
  -21.1989  -19.0865  -19.4077 H   0  0  0  0  0  0  0  0  0  0  0  0
  -22.9520  -17.6162  -18.2988 H   0  0  0  0  0  0  0  0  0  0  0  0
  -23.1708  -15.9527  -18.9599 H   0  0  0  0  0  0  0  0  0  0  0  0
  -24.0426  -16.8959  -21.0875 H   0  0  0  0  0  0  0  0  0  0  0  0
  -25.0135  -17.4891  -19.7109 H   0  0  0  0  0  0  0  0  0  0  0  0
  -29.2497  -21.7476  -20.6031 H   0  0  0  0  0  0  0  0  0  0  0  0
  -23.2051  -21.9744  -22.8650 H   0  0  0  0  0  0  0  0  0  0  0  0
  8  1  2  0
  1 12  1  0
 14  2  1  0
 11  2  1  0
  2 17  1  0
 15  3  1  0
  3 16  1  0
  5  4  1  0
  4  9  2  0
  5  6  2  0
 13  6  1  0
  6  7  1  0
  7 10  2  0
  7  8  1  0
  9  8  1  0
  9 18  1  0
 10 11  1  0
 11 12  2  0
 19 13  2  0
 13 20  1  0
 14 15  1  0
 17 16  1  0
  3 21  1  0
  4 22  1  0
  5 23  1  0
 10 24  1  0
 12 25  1  0
 14 26  1  0
 14 27  1  0
 15 28  1  0
 15 29  1  0
 16 30  1  0
 16 31  1  0
 17 32  1  0
 17 33  1  0
 18 34  1  0
 20 35  1  0
A    1
NAA
A    2
NAB
A    3
NAC
A    4
CAD
A    5
CAE
A    6
CAF
A    7
CAG
A    8
CAH
A    9
CAI
A   10
CAJ
A   11
CAK
A   12
CAL
A   13
CAM
A   14
CAN
A   15
CAO
A   16
CAP
A   17
CAQ
A   18
OAR
A   19
OAS
A   20
OAT
M  END
