3RWQ_3RW_A_1
     RDKit          3D

 52 55  0  0  0  0  0  0  0  0999 V2000
   31.1340  -26.4380  -13.3250 C   0  0  0  0  0  0  0  0  0  0  0  0
   39.5550  -27.0330  -10.1830 N   0  0  0  0  0  0  0  0  0  0  0  0
   34.6670  -30.0230  -11.2340 O   0  0  0  0  0  0  0  0  0  0  0  0
   32.1920  -28.3170  -12.3180 C   0  0  0  0  0  0  0  0  0  0  0  0
   31.0950  -27.6490  -12.7410 N   0  0  0  0  0  0  0  0  0  0  0  0
   35.6510  -26.7790  -12.7400 C   0  0  0  0  0  0  0  0  0  0  0  0
   32.2830  -25.7740  -13.5420 N   0  0  0  0  0  0  0  0  0  0  0  0
   34.9730  -27.8890  -12.2620 C   0  0  0  0  0  0  0  0  0  0  0  0
   34.7830  -25.8780  -13.2620 N   0  0  0  0  0  0  0  0  0  0  0  0
   33.5220  -27.6660  -12.5220 C   0  0  0  0  0  0  0  0  0  0  0  0
   32.0490  -29.5190  -11.7360 N   0  0  0  0  0  0  0  0  0  0  0  0
   33.5010  -26.3180  -13.1720 C   0  0  0  0  0  0  0  0  0  0  0  0
   38.9540  -30.5440  -11.0400 N   0  0  0  0  0  0  0  0  0  0  0  0
   35.1570  -24.5750  -13.8820 C   0  0  0  0  0  0  0  0  0  0  0  0
   37.6250  -28.1550  -10.8690 N   0  0  0  0  0  0  0  0  0  0  0  0
   34.8440  -23.4180  -12.9440 C   0  0  0  0  0  0  0  0  0  0  0  0
   41.2070  -28.6870  -14.2810 N   0  0  0  0  0  0  0  0  0  0  0  0
   35.4600  -29.1460  -11.5660 C   0  0  0  0  0  0  0  0  0  0  0  0
   36.9400  -29.2690  -11.2450 C   0  0  0  0  0  0  0  0  0  0  0  0
   37.6330  -30.4800  -11.3290 C   0  0  0  0  0  0  0  0  0  0  0  0
   39.6290  -29.4260  -10.6650 C   0  0  0  0  0  0  0  0  0  0  0  0
   38.9490  -28.1970  -10.5730 C   0  0  0  0  0  0  0  0  0  0  0  0
   36.6390  -24.5920  -14.2470 C   0  0  0  0  0  0  0  0  0  0  0  0
   40.9910  -26.7690  -12.8560 C   0  0  0  0  0  0  0  0  0  0  0  0
   40.0030  -26.2270  -13.6990 C   0  0  0  0  0  0  0  0  0  0  0  0
   41.5760  -28.0150  -13.1700 C   0  0  0  0  0  0  0  0  0  0  0  0
   41.3950  -26.0140  -11.5940 C   0  0  0  0  0  0  0  0  0  0  0  0
   39.6480  -26.9420  -14.8350 C   0  0  0  0  0  0  0  0  0  0  0  0
   40.9930  -26.7660  -10.3020 C   0  0  0  0  0  0  0  0  0  0  0  0
   40.2710  -28.1720  -15.1000 C   0  0  0  0  0  0  0  0  0  0  0  0
   30.1879  -25.9720  -13.6377 H   0  0  0  0  0  0  0  0  0  0  0  0
   38.9614  -26.2947   -9.7787 H   0  0  0  0  0  0  0  0  0  0  0  0
   36.7424  -26.6472  -12.7012 H   0  0  0  0  0  0  0  0  0  0  0  0
   32.0398  -29.5961  -10.7089 H   0  0  0  0  0  0  0  0  0  0  0  0
   31.9485  -30.3637  -12.3168 H   0  0  0  0  0  0  0  0  0  0  0  0
   34.5636  -24.4307  -14.7969 H   0  0  0  0  0  0  0  0  0  0  0  0
   34.9355  -23.7562  -11.9013 H   0  0  0  0  0  0  0  0  0  0  0  0
   35.5521  -22.5962  -13.1264 H   0  0  0  0  0  0  0  0  0  0  0  0
   33.8182  -23.0653  -13.1264 H   0  0  0  0  0  0  0  0  0  0  0  0
   37.0986  -31.3919  -11.6336 H   0  0  0  0  0  0  0  0  0  0  0  0
   40.7031  -29.4811  -10.4341 H   0  0  0  0  0  0  0  0  0  0  0  0
   37.2430  -24.5989  -13.3277 H   0  0  0  0  0  0  0  0  0  0  0  0
   36.8607  -25.4927  -14.8382 H   0  0  0  0  0  0  0  0  0  0  0  0
   36.8813  -23.6966  -14.8382 H   0  0  0  0  0  0  0  0  0  0  0  0
   39.5255  -25.2642  -13.4645 H   0  0  0  0  0  0  0  0  0  0  0  0
   42.3395  -28.4421  -12.5032 H   0  0  0  0  0  0  0  0  0  0  0  0
   42.4865  -25.8776  -11.5982 H   0  0  0  0  0  0  0  0  0  0  0  0
   40.8680  -25.0485  -11.5977 H   0  0  0  0  0  0  0  0  0  0  0  0
   38.8846  -26.5479  -15.5220 H   0  0  0  0  0  0  0  0  0  0  0  0
   41.3035  -26.1589   -9.4389 H   0  0  0  0  0  0  0  0  0  0  0  0
   41.4939  -27.7447  -10.3376 H   0  0  0  0  0  0  0  0  0  0  0  0
   39.9859  -28.7312  -16.0033 H   0  0  0  0  0  0  0  0  0  0  0  0
  7  1  2  0
  1  5  1  0
 22  2  1  0
 29  2  1  0
 18  3  2  0
  5  4  2  0
 10  4  1  0
  4 11  1  0
  9  6  1  0
  6  8  2  0
  7 12  1  0
 10  8  1  0
  8 18  1  0
 14  9  1  0
  9 12  1  0
 12 10  2  0
 20 13  2  0
 13 21  1  0
 23 14  1  0
 14 16  1  0
 19 15  2  0
 15 22  1  0
 30 17  2  0
 17 26  1  0
 18 19  1  0
 20 19  1  0
 21 22  2  0
 25 24  1  0
 26 24  2  0
 24 27  1  0
 28 25  2  0
 27 29  1  0
 30 28  1  0
  1 31  1  0
  2 32  1  0
  6 33  1  0
 11 34  1  0
 11 35  1  0
 14 36  1  0
 16 37  1  0
 16 38  1  0
 16 39  1  0
 20 40  1  0
 21 41  1  0
 23 42  1  0
 23 43  1  0
 23 44  1  0
 25 45  1  0
 26 46  1  0
 27 47  1  0
 27 48  1  0
 28 49  1  0
 29 50  1  0
 29 51  1  0
 30 52  1  0
A    1
C1
A    2
N1
A    3
O1
A    4
C2
A    5
N2
A    6
C3
A    7
N3
A    8
C4
A    9
N4
A   10
C5
A   11
N5
A   12
C6
A   13
N6
A   14
C7
A   15
N7
A   16
C8
A   17
N8
A   18
C9
A   19
C10
A   20
C11
A   21
C12
A   22
C13
A   23
C14
A   24
C15
A   25
C16
A   26
C17
A   27
C18
A   28
C19
A   29
C20
A   30
C21
M  END
