3RX4_SFI_A_317
     RDKit          3D

 41 43  0  0  0  0  0  0  0  0999 V2000
   -5.7400   10.8580   15.0510 F   0  0  0  0  0  0  0  0  0  0  0  0
  -14.5370   12.3340   19.0670 S   0  0  0  0  0  0  0  0  0  0  0  0
   -6.8900    7.2690   18.1960 C   0  0  0  0  0  0  0  0  0  0  0  0
   -4.6110    5.3130   16.3260 O   0  0  0  0  0  0  0  0  0  0  0  0
   -7.0840    8.5030   17.4250 C   0  0  0  0  0  0  0  0  0  0  0  0
   -6.8980    5.1850   16.4700 O   0  0  0  0  0  0  0  0  0  0  0  0
   -8.0100    7.0700   18.9280 C   0  0  0  0  0  0  0  0  0  0  0  0
   -8.3420    9.0700   17.7100 C   0  0  0  0  0  0  0  0  0  0  0  0
   -8.9590    8.1490   18.6800 C   0  0  0  0  0  0  0  0  0  0  0  0
   -5.6240    6.4980   18.0500 C   0  0  0  0  0  0  0  0  0  0  0  0
   -6.2080    9.0960   16.5340 C   0  0  0  0  0  0  0  0  0  0  0  0
   -8.7390   10.2500   17.0890 C   0  0  0  0  0  0  0  0  0  0  0  0
  -10.1600    8.2110   19.2740 C   0  0  0  0  0  0  0  0  0  0  0  0
   -8.3630    5.9780   19.8790 C   0  0  0  0  0  0  0  0  0  0  0  0
   -6.5930   10.2810   15.9130 C   0  0  0  0  0  0  0  0  0  0  0  0
   -7.8510   10.8520   16.1860 C   0  0  0  0  0  0  0  0  0  0  0  0
  -11.2420    9.2060   19.1940 C   0  0  0  0  0  0  0  0  0  0  0  0
   -5.8110    5.5920   16.8810 C   0  0  0  0  0  0  0  0  0  0  0  0
  -10.9260   10.5440   19.3890 C   0  0  0  0  0  0  0  0  0  0  0  0
  -12.5480    8.8010   18.9770 C   0  0  0  0  0  0  0  0  0  0  0  0
  -11.9300   11.5120   19.3430 C   0  0  0  0  0  0  0  0  0  0  0  0
  -13.5560    9.7660   18.9360 C   0  0  0  0  0  0  0  0  0  0  0  0
  -13.2440   11.1170   19.1070 C   0  0  0  0  0  0  0  0  0  0  0  0
  -15.3020   12.0060   17.4570 C   0  0  0  0  0  0  0  0  0  0  0  0
   -3.8284    5.1310   16.9044 H   0  0  0  0  0  0  0  0  0  0  0  0
   -4.7815    7.1819   17.8695 H   0  0  0  0  0  0  0  0  0  0  0  0
   -5.3990    5.9272   18.9630 H   0  0  0  0  0  0  0  0  0  0  0  0
   -5.2292    8.6416   16.3209 H   0  0  0  0  0  0  0  0  0  0  0  0
   -9.7212   10.6978   17.3003 H   0  0  0  0  0  0  0  0  0  0  0  0
  -10.3757    7.3644   19.9425 H   0  0  0  0  0  0  0  0  0  0  0  0
   -8.2463    6.3390   20.9115 H   0  0  0  0  0  0  0  0  0  0  0  0
   -9.4062    5.6708   19.7137 H   0  0  0  0  0  0  0  0  0  0  0  0
   -7.6970    5.1183   19.7137 H   0  0  0  0  0  0  0  0  0  0  0  0
   -8.1419   11.7858   15.6825 H   0  0  0  0  0  0  0  0  0  0  0  0
   -9.8841   10.8409   19.5798 H   0  0  0  0  0  0  0  0  0  0  0  0
  -12.7875    7.7363   18.8391 H   0  0  0  0  0  0  0  0  0  0  0  0
  -11.6862   12.5743   19.4914 H   0  0  0  0  0  0  0  0  0  0  0  0
  -14.5997    9.4615   18.7685 H   0  0  0  0  0  0  0  0  0  0  0  0
  -16.3035   11.5766   17.6076 H   0  0  0  0  0  0  0  0  0  0  0  0
  -15.3873   12.9466   16.8931 H   0  0  0  0  0  0  0  0  0  0  0  0
  -14.6795   11.2957   16.8931 H   0  0  0  0  0  0  0  0  0  0  0  0
  1 15  1  0
  2 23  1  0
  2 24  1  0
  3  5  1  0
  3  7  2  0
  3 10  1  0
  4 18  1  0
  5  8  2  0
  5 11  1  0
  6 18  2  0
  7  9  1  0
  7 14  1  0
  8  9  1  0
  8 12  1  0
  9 13  2  0
 10 18  1  0
 11 15  2  0
 12 16  2  0
 13 17  1  0
 15 16  1  0
 17 19  2  0
 17 20  1  0
 19 21  1  0
 20 22  2  0
 21 23  2  0
 22 23  1  0
  4 25  1  0
 10 26  1  0
 10 27  1  0
 11 28  1  0
 12 29  1  0
 13 30  1  0
 14 31  1  0
 14 32  1  0
 14 33  1  0
 16 34  1  0
 19 35  1  0
 20 36  1  0
 21 37  1  0
 22 38  1  0
 24 39  1  0
 24 40  1  0
 24 41  1  0
A    1
F
A    2
S
A    3
C1
A    4
O1
A    5
C2
A    6
O2
A    7
C3
A    8
C4
A    9
C5
A   10
C6
A   11
C7
A   12
C8
A   13
C9
A   14
C10
A   15
C11
A   16
C12
A   17
C13
A   18
C14
A   19
C15
A   20
C16
A   21
C17
A   22
C18
A   23
C19
A   24
C20
M  END
