3RYZ_RYZ_A_262
     RDKit          3D

 33 33  0  0  0  0  0  0  0  0999 V2000
   15.1040    0.9880   16.8390 S   0  0  0  0  0  0  0  0  0  0  0  0
   18.5310    5.8400   13.5380 N   0  0  0  0  0  0  0  0  0  0  0  0
   16.4300    6.6550   13.5280 O   0  0  0  0  0  0  0  0  0  0  0  0
   16.7230    4.6060   14.6110 C   0  0  0  0  0  0  0  0  0  0  0  0
   17.0410    2.4570   15.8020 C   0  0  0  0  0  0  0  0  0  0  0  0
   17.5720    3.5920   15.0880 C   0  0  0  0  0  0  0  0  0  0  0  0
   15.6480    2.3260   16.0060 C   0  0  0  0  0  0  0  0  0  0  0  0
   15.3340    4.5110   14.8270 C   0  0  0  0  0  0  0  0  0  0  0  0
   14.7890    3.4040   15.5440 C   0  0  0  0  0  0  0  0  0  0  0  0
   17.2400    5.7600   13.8490 C   0  0  0  0  0  0  0  0  0  0  0  0
   20.3320    7.6460   14.7320 F   0  0  0  0  0  0  0  0  0  0  0  0
   19.1060    9.6650   12.1060 F   0  0  0  0  0  0  0  0  0  0  0  0
   21.0910   11.1990   13.0750 F   0  0  0  0  0  0  0  0  0  0  0  0
   18.5850    8.4970   14.5200 F   0  0  0  0  0  0  0  0  0  0  0  0
   21.0520    8.7730   12.2830 F   0  0  0  0  0  0  0  0  0  0  0  0
   20.9180   10.1310   14.9930 F   0  0  0  0  0  0  0  0  0  0  0  0
   19.2270   11.0340   14.2300 F   0  0  0  0  0  0  0  0  0  0  0  0
   19.0970    6.9690   12.7710 C   0  0  0  0  0  0  0  0  0  0  0  0
   13.6350    1.0140   16.7140 O   0  0  0  0  0  0  0  0  0  0  0  0
   19.5480    8.0920   13.7510 C   0  0  0  0  0  0  0  0  0  0  0  0
   15.6060    1.0450   18.1780 O   0  0  0  0  0  0  0  0  0  0  0  0
   20.0450    9.2570   12.9640 C   0  0  0  0  0  0  0  0  0  0  0  0
   15.7080   -0.3050   16.0840 N   0  0  0  0  0  0  0  0  0  0  0  0
   20.3610   10.4530   13.8530 C   0  0  0  0  0  0  0  0  0  0  0  0
   19.1611    5.0849   13.8441 H   0  0  0  0  0  0  0  0  0  0  0  0
   17.7246    1.6878   16.1906 H   0  0  0  0  0  0  0  0  0  0  0  0
   18.6557    3.6653   14.9143 H   0  0  0  0  0  0  0  0  0  0  0  0
   14.6657    5.2947   14.4407 H   0  0  0  0  0  0  0  0  0  0  0  0
   13.7089    3.3660   15.7490 H   0  0  0  0  0  0  0  0  0  0  0  0
   19.9638    6.6195   12.1908 H   0  0  0  0  0  0  0  0  0  0  0  0
   18.3323    7.3661   12.0872 H   0  0  0  0  0  0  0  0  0  0  0  0
   16.0286   -0.9914   16.7818 H   0  0  0  0  0  0  0  0  0  0  0  0
   14.9784   -0.7302   15.4943 H   0  0  0  0  0  0  0  0  0  0  0  0
  7  1  1  0
 23  1  1  0
 19  1  2  0
  1 21  2  0
 18  2  1  0
  2 10  1  0
  3 10  2  0
 10  4  1  0
  4  8  2  0
  4  6  1  0
  6  5  2  0
  5  7  1  0
  9  7  2  0
  8  9  1  0
 20 11  1  0
 12 22  1  0
 13 24  1  0
 20 14  1  0
 15 22  1  0
 24 16  1  0
 24 17  1  0
 18 20  1  0
 22 20  1  0
 22 24  1  0
  2 25  1  0
  5 26  1  0
  6 27  1  0
  8 28  1  0
  9 29  1  0
 18 30  1  0
 18 31  1  0
 23 32  1  0
 23 33  1  0
A    1
S
A    2
N'
A    3
O'
A    4
C1
A    5
C2
A    6
C3
A    7
C4
A    8
C5
A    9
C6
A   10
C7
A   11
F2'1
A   12
F3'1
A   13
F4'1
A   14
F2'2
A   15
F3'2
A   16
F4'2
A   17
F4'3
A   18
C1'
A   19
O1S
A   20
C2'
A   21
O2S
A   22
C3'
A   23
N3S
A   24
C4'
M  END
