3S0K_03F_A_210
     RDKit          3D

130130  0  0  0  0  0  0  0  0999 V2000
   32.1700   23.2980   -3.4840 C   0  0  0  0  0  0  0  0  0  0  0  0
   30.8910   23.9300   -3.9760 C   0  0  0  0  0  0  0  0  0  0  0  0
   30.0480   24.2490   -2.7980 N   0  0  0  0  0  0  0  0  0  0  0  0
   30.1190   23.0070   -4.8890 C   0  0  0  0  0  0  0  0  0  0  0  0
   30.9960   22.7940   -6.0150 O   0  0  0  0  0  0  0  0  0  0  0  0
   28.8650   23.6680   -5.4280 C   0  0  0  0  0  0  0  0  0  0  0  0
   27.6700   23.2180   -5.1580 C   0  0  0  0  0  0  0  0  0  0  0  0
   26.4400   23.9380   -5.7230 C   0  0  0  0  0  0  0  0  0  0  0  0
   26.5620   25.4450   -6.0070 C   0  0  0  0  0  0  0  0  0  0  0  0
   25.1720   26.1020   -6.1420 C   0  0  0  0  0  0  0  0  0  0  0  0
   25.3080   27.5670   -6.5910 C   0  0  0  0  0  0  0  0  0  0  0  0
   24.1370   28.5050   -6.2640 C   0  0  0  0  0  0  0  0  0  0  0  0
   22.7770   27.8440   -6.1490 C   0  0  0  0  0  0  0  0  0  0  0  0
   21.5190   28.5610   -6.6490 C   0  0  0  0  0  0  0  0  0  0  0  0
   20.8130   29.3120   -5.5230 C   0  0  0  0  0  0  0  0  0  0  0  0
   19.5130   29.9540   -6.0040 C   0  0  0  0  0  0  0  0  0  0  0  0
   18.4980   30.0250   -4.8870 C   0  0  0  0  0  0  0  0  0  0  0  0
   17.1290   30.4930   -5.3480 C   0  0  0  0  0  0  0  0  0  0  0  0
   16.1620   30.5030   -4.1560 C   0  0  0  0  0  0  0  0  0  0  0  0
   15.3820   29.2050   -3.9510 C   0  0  0  0  0  0  0  0  0  0  0  0
   32.8050   21.9060   -1.6710 C   0  0  0  0  0  0  0  0  0  0  0  0
   31.9070   22.2100   -2.6770 O   0  0  0  0  0  0  0  0  0  0  0  0
   32.1600   20.9450   -0.7350 C   0  0  0  0  0  0  0  0  0  0  0  0
   31.0480   21.6200   -0.0840 O   0  0  0  0  0  0  0  0  0  0  0  0
   33.1400   20.4970    0.3120 C   0  0  0  0  0  0  0  0  0  0  0  0
   32.5850   19.4480    1.1080 O   0  0  0  0  0  0  0  0  0  0  0  0
   34.4620   20.0020   -0.3260 C   0  0  0  0  0  0  0  0  0  0  0  0
   35.3850   19.7310    0.7030 O   0  0  0  0  0  0  0  0  0  0  0  0
   36.7320   21.6150   -2.8360 O   0  0  0  0  0  0  0  0  0  0  0  0
   34.9320   21.0570   -1.3260 C   0  0  0  0  0  0  0  0  0  0  0  0
   36.2290   20.6150   -1.9910 C   0  0  0  0  0  0  0  0  0  0  0  0
   33.9380   21.3370   -2.3050 O   0  0  0  0  0  0  0  0  0  0  0  0
   29.5520   25.5570   -2.6140 C   0  0  0  0  0  0  0  0  0  0  0  0
   29.8060   26.5310   -3.2760 O   0  0  0  0  0  0  0  0  0  0  0  0
   28.5790   25.8260   -1.4820 C   0  0  0  0  0  0  0  0  0  0  0  0
   27.1660   25.9640   -2.0850 C   0  0  0  0  0  0  0  0  0  0  0  0
   26.0470   26.4820   -1.1190 C   0  0  0  0  0  0  0  0  0  0  0  0
   24.7130   26.7220   -1.8130 C   0  0  0  0  0  0  0  0  0  0  0  0
   23.6150   27.2950   -0.9860 C   0  0  0  0  0  0  0  0  0  0  0  0
   22.3750   27.7280   -1.7520 C   0  0  0  0  0  0  0  0  0  0  0  0
   21.1510   27.9410   -0.8720 C   0  0  0  0  0  0  0  0  0  0  0  0
   19.9510   28.1940   -1.7890 C   0  0  0  0  0  0  0  0  0  0  0  0
   18.7260   28.6160   -1.4370 C   0  0  0  0  0  0  0  0  0  0  0  0
   18.3920   28.8370   -0.0320 C   0  0  0  0  0  0  0  0  0  0  0  0
   17.0350   29.0540    0.6440 C   0  0  0  0  0  0  0  0  0  0  0  0
   17.0180   28.3810    2.0200 C   0  0  0  0  0  0  0  0  0  0  0  0
   15.9290   28.9090    2.9280 C   0  0  0  0  0  0  0  0  0  0  0  0
   15.9550   28.3610    4.3500 C   0  0  0  0  0  0  0  0  0  0  0  0
   15.6090   29.4560    5.3400 C   0  0  0  0  0  0  0  0  0  0  0  0
   15.3760   28.9790    6.7650 C   0  0  0  0  0  0  0  0  0  0  0  0
   14.6750   30.0360    7.5860 C   0  0  0  0  0  0  0  0  0  0  0  0
   32.7641   22.9686   -4.3492 H   0  0  0  0  0  0  0  0  0  0  0  0
   32.7250   24.0437   -2.8959 H   0  0  0  0  0  0  0  0  0  0  0  0
   31.1482   24.8337   -4.5480 H   0  0  0  0  0  0  0  0  0  0  0  0
   29.8241   23.5136   -2.1124 H   0  0  0  0  0  0  0  0  0  0  0  0
   29.8229   22.0949   -4.3502 H   0  0  0  0  0  0  0  0  0  0  0  0
   31.9043   22.5734   -5.6887 H   0  0  0  0  0  0  0  0  0  0  0  0
   28.9660   24.5568   -6.0682 H   0  0  0  0  0  0  0  0  0  0  0  0
   27.5458   22.3254   -4.5273 H   0  0  0  0  0  0  0  0  0  0  0  0
   26.1772   23.4452   -6.6707 H   0  0  0  0  0  0  0  0  0  0  0  0
   25.6847   23.8652   -4.9266 H   0  0  0  0  0  0  0  0  0  0  0  0
   27.1060   25.9232   -5.1791 H   0  0  0  0  0  0  0  0  0  0  0  0
   27.1036   25.5780   -6.9551 H   0  0  0  0  0  0  0  0  0  0  0  0
   24.5813   25.5487   -6.8869 H   0  0  0  0  0  0  0  0  0  0  0  0
   24.6703   26.0757   -5.1634 H   0  0  0  0  0  0  0  0  0  0  0  0
   26.2081   27.9794   -6.1116 H   0  0  0  0  0  0  0  0  0  0  0  0
   25.3462   27.5280   -7.6896 H   0  0  0  0  0  0  0  0  0  0  0  0
   24.3558   28.9970   -5.3048 H   0  0  0  0  0  0  0  0  0  0  0  0
   24.0622   29.1987   -7.1144 H   0  0  0  0  0  0  0  0  0  0  0  0
   22.8399   26.8954   -6.7023 H   0  0  0  0  0  0  0  0  0  0  0  0
   22.6175   27.7941   -5.0618 H   0  0  0  0  0  0  0  0  0  0  0  0
   21.8050   29.2788   -7.4319 H   0  0  0  0  0  0  0  0  0  0  0  0
   20.8260   27.8033   -7.0436 H   0  0  0  0  0  0  0  0  0  0  0  0
   20.5834   28.6055   -4.7118 H   0  0  0  0  0  0  0  0  0  0  0  0
   21.4815   30.1112   -5.1704 H   0  0  0  0  0  0  0  0  0  0  0  0
   19.7257   30.9722   -6.3620 H   0  0  0  0  0  0  0  0  0  0  0  0
   19.0979   29.3387   -6.8159 H   0  0  0  0  0  0  0  0  0  0  0  0
   18.3940   29.0228   -4.4456 H   0  0  0  0  0  0  0  0  0  0  0  0
   18.8662   30.7626   -4.1587 H   0  0  0  0  0  0  0  0  0  0  0  0
   17.2095   31.5085   -5.7631 H   0  0  0  0  0  0  0  0  0  0  0  0
   16.7496   29.8091   -6.1215 H   0  0  0  0  0  0  0  0  0  0  0  0
   16.7452   30.6991   -3.2442 H   0  0  0  0  0  0  0  0  0  0  0  0
   15.4153   31.2818   -4.3703 H   0  0  0  0  0  0  0  0  0  0  0  0
   15.2665   29.0128   -2.8741 H   0  0  0  0  0  0  0  0  0  0  0  0
   14.3892   29.2965   -4.4157 H   0  0  0  0  0  0  0  0  0  0  0  0
   15.9289   28.3713   -4.4157 H   0  0  0  0  0  0  0  0  0  0  0  0
   33.1077   22.7885   -1.0882 H   0  0  0  0  0  0  0  0  0  0  0  0
   31.8115   20.0644   -1.2945 H   0  0  0  0  0  0  0  0  0  0  0  0
   31.1528   21.5564    0.8984 H   0  0  0  0  0  0  0  0  0  0  0  0
   33.3559   21.3681    0.9481 H   0  0  0  0  0  0  0  0  0  0  0  0
   32.7000   19.6653    2.0670 H   0  0  0  0  0  0  0  0  0  0  0  0
   34.3363   19.0635   -0.8858 H   0  0  0  0  0  0  0  0  0  0  0  0
   34.9470   19.8596    1.5815 H   0  0  0  0  0  0  0  0  0  0  0  0
   37.1030   22.3527   -2.2899 H   0  0  0  0  0  0  0  0  0  0  0  0
   35.1155   21.9872   -0.7683 H   0  0  0  0  0  0  0  0  0  0  0  0
   36.0377   19.7078   -2.5829 H   0  0  0  0  0  0  0  0  0  0  0  0
   36.9729   20.4159   -1.2056 H   0  0  0  0  0  0  0  0  0  0  0  0
   28.5990   24.9903   -0.7671 H   0  0  0  0  0  0  0  0  0  0  0  0
   28.8580   26.7484   -0.9517 H   0  0  0  0  0  0  0  0  0  0  0  0
   27.2294   26.6646   -2.9307 H   0  0  0  0  0  0  0  0  0  0  0  0
   26.8645   24.9432   -2.3626 H   0  0  0  0  0  0  0  0  0  0  0  0
   25.8979   25.7349   -0.3256 H   0  0  0  0  0  0  0  0  0  0  0  0
   26.3846   27.4500   -0.7202 H   0  0  0  0  0  0  0  0  0  0  0  0
   24.8936   27.4129   -2.6497 H   0  0  0  0  0  0  0  0  0  0  0  0
   24.3589   25.7225   -2.1057 H   0  0  0  0  0  0  0  0  0  0  0  0
   23.3112   26.5340   -0.2521 H   0  0  0  0  0  0  0  0  0  0  0  0
   24.0245   28.2100   -0.5331 H   0  0  0  0  0  0  0  0  0  0  0  0
   22.5991   28.6729   -2.2686 H   0  0  0  0  0  0  0  0  0  0  0  0
   22.1295   26.9139   -2.4498 H   0  0  0  0  0  0  0  0  0  0  0  0
   20.9709   27.0455   -0.2590 H   0  0  0  0  0  0  0  0  0  0  0  0
   21.3067   28.7973   -0.1993 H   0  0  0  0  0  0  0  0  0  0  0  0
   20.1113   28.0083   -2.8613 H   0  0  0  0  0  0  0  0  0  0  0  0
   17.9675   28.7968   -2.2129 H   0  0  0  0  0  0  0  0  0  0  0  0
   18.8080   27.9579    0.4820 H   0  0  0  0  0  0  0  0  0  0  0  0
   18.7504   29.8748    0.0360 H   0  0  0  0  0  0  0  0  0  0  0  0
   16.8571   30.1328    0.7645 H   0  0  0  0  0  0  0  0  0  0  0  0
   16.2462   28.6120    0.0176 H   0  0  0  0  0  0  0  0  0  0  0  0
   16.8628   27.3011    1.8792 H   0  0  0  0  0  0  0  0  0  0  0  0
   17.9815   28.6003    2.5032 H   0  0  0  0  0  0  0  0  0  0  0  0
   16.0301   30.0030    2.9819 H   0  0  0  0  0  0  0  0  0  0  0  0
   14.9757   28.5799    2.4888 H   0  0  0  0  0  0  0  0  0  0  0  0
   15.2215   27.5460    4.4387 H   0  0  0  0  0  0  0  0  0  0  0  0
   16.9644   27.9837    4.5707 H   0  0  0  0  0  0  0  0  0  0  0  0
   16.4374   30.1796    5.3528 H   0  0  0  0  0  0  0  0  0  0  0  0
   14.6573   29.8905    5.0001 H   0  0  0  0  0  0  0  0  0  0  0  0
   14.7551   28.0713    6.7428 H   0  0  0  0  0  0  0  0  0  0  0  0
   16.3522   28.7692    7.2266 H   0  0  0  0  0  0  0  0  0  0  0  0
   14.8164   29.8229    8.6559 H   0  0  0  0  0  0  0  0  0  0  0  0
   15.0976   31.0238    7.3499 H   0  0  0  0  0  0  0  0  0  0  0  0
   13.6006   30.0309    7.3499 H   0  0  0  0  0  0  0  0  0  0  0  0
  2  1  1  0
  1 22  1  0
  4  2  1  0
  2  3  1  0
  3 33  1  0
  5  4  1  0
  6  4  1  0
  6  7  2  0
  8  7  1  0
  9  8  1  0
 10  9  1  0
 11 10  1  0
 11 12  1  0
 12 13  1  0
 14 13  1  0
 14 15  1  0
 16 15  1  0
 16 17  1  0
 18 17  1  0
 18 19  1  0
 19 20  1  0
 22 21  1  0
 32 21  1  0
 21 23  1  0
 23 24  1  0
 23 25  1  0
 27 25  1  0
 25 26  1  0
 30 27  1  0
 27 28  1  0
 29 31  1  0
 32 30  1  0
 31 30  1  0
 34 33  2  0
 33 35  1  0
 36 35  1  0
 36 37  1  0
 38 37  1  0
 38 39  1  0
 40 39  1  0
 40 41  1  0
 42 41  1  0
 42 43  2  0
 43 44  1  0
 44 45  1  0
 45 46  1  0
 46 47  1  0
 47 48  1  0
 48 49  1  0
 49 50  1  0
 50 51  1  0
  1 52  1  0
  1 53  1  0
  2 54  1  0
  3 55  1  0
  4 56  1  0
  5 57  1  0
  6 58  1  0
  7 59  1  0
  8 60  1  0
  8 61  1  0
  9 62  1  0
  9 63  1  0
 10 64  1  0
 10 65  1  0
 11 66  1  0
 11 67  1  0
 12 68  1  0
 12 69  1  0
 13 70  1  0
 13 71  1  0
 14 72  1  0
 14 73  1  0
 15 74  1  0
 15 75  1  0
 16 76  1  0
 16 77  1  0
 17 78  1  0
 17 79  1  0
 18 80  1  0
 18 81  1  0
 19 82  1  0
 19 83  1  0
 20 84  1  0
 20 85  1  0
 20 86  1  0
 21 87  1  0
 23 88  1  0
 24 89  1  0
 25 90  1  0
 26 91  1  0
 27 92  1  0
 28 93  1  0
 29 94  1  0
 30 95  1  0
 31 96  1  0
 31 97  1  0
 35 98  1  0
 35 99  1  0
 36100  1  0
 36101  1  0
 37102  1  0
 37103  1  0
 38104  1  0
 38105  1  0
 39106  1  0
 39107  1  0
 40108  1  0
 40109  1  0
 41110  1  0
 41111  1  0
 42112  1  0
 43113  1  0
 44114  1  0
 44115  1  0
 45116  1  0
 45117  1  0
 46118  1  0
 46119  1  0
 47120  1  0
 47121  1  0
 48122  1  0
 48123  1  0
 49124  1  0
 49125  1  0
 50126  1  0
 50127  1  0
 51128  1  0
 51129  1  0
 51130  1  0
A    1
C1
A    2
C2
A    3
N2
A    4
C3
A    5
O3
A    6
C4
A    7
C5
A    8
C6
A    9
C7
A   10
C8
A   11
C9
A   12
C10
A   13
C11
A   14
C12
A   15
C13
A   16
C14
A   17
C15
A   18
C16
A   19
C17
A   20
C18
A   21
C1A
A   22
O1A
A   23
C2A
A   24
O2A
A   25
C3A
A   26
O3A
A   27
C4A
A   28
O4A
A   29
O5A
A   30
C5M
A   31
C6A
A   32
O6A
A   33
CAA
A   34
OAA
A   35
CAB
A   36
CAC
A   37
CAD
A   38
CAE
A   39
CAF
A   40
CAG
A   41
CAH
A   42
CAI
A   43
CAJ
A   44
CAK
A   45
CAL
A   46
CAM
A   47
CAN
A   48
CAO
A   49
CAP
A   50
CAQ
A   51
CAR
M  END
