3S1H_56Z_A_479
     RDKit          3D

 43 45  0  0  0  0  0  0  0  0999 V2000
   96.2020   77.2120  -47.0020 C   0  0  0  0  0  0  0  0  0  0  0  0
   92.2610   81.9090  -51.3390 N   0  0  0  0  0  0  0  0  0  0  0  0
   86.2250   80.8410  -45.4210 O   0  0  0  0  0  0  0  0  0  0  0  0
   92.9860   80.7360  -49.1500 S   0  0  0  0  0  0  0  0  0  0  0  0
   97.2400   77.9420  -47.7770 C   0  0  0  0  0  0  0  0  0  0  0  0
   93.7920   81.0630  -52.9230 N   0  0  0  0  0  0  0  0  0  0  0  0
   86.9220   83.1470  -44.3330 O   0  0  0  0  0  0  0  0  0  0  0  0
   87.4330   81.7170  -44.8730 S   0  0  0  0  0  0  0  0  0  0  0  0
   96.8790   78.6870  -48.9880 C   0  0  0  0  0  0  0  0  0  0  0  0
   90.9060   82.5510  -49.5490 N   0  0  0  0  0  0  0  0  0  0  0  0
   95.6300   79.2820  -51.8560 O   0  0  0  0  0  0  0  0  0  0  0  0
   94.4470   77.9660  -48.6570 C   0  0  0  0  0  0  0  0  0  0  0  0
   88.1570   80.9180  -43.7310 N   0  0  0  0  0  0  0  0  0  0  0  0
   94.7880   77.2320  -47.4650 C   0  0  0  0  0  0  0  0  0  0  0  0
   96.5340   76.5090  -45.8450 O   0  0  0  0  0  0  0  0  0  0  0  0
   95.6740   75.8150  -45.0650 C   0  0  0  0  0  0  0  0  0  0  0  0
   95.4640   78.7110  -49.4420 C   0  0  0  0  0  0  0  0  0  0  0  0
   95.0130   79.4550  -50.6680 C   0  0  0  0  0  0  0  0  0  0  0  0
   93.8380   80.4130  -50.5990 C   0  0  0  0  0  0  0  0  0  0  0  0
   93.3150   81.1280  -51.6600 C   0  0  0  0  0  0  0  0  0  0  0  0
   91.9600   81.8150  -50.0460 C   0  0  0  0  0  0  0  0  0  0  0  0
   90.1390   82.3120  -48.4360 C   0  0  0  0  0  0  0  0  0  0  0  0
   90.3240   81.1300  -47.5020 C   0  0  0  0  0  0  0  0  0  0  0  0
   89.4840   80.9440  -46.3810 C   0  0  0  0  0  0  0  0  0  0  0  0
   88.4150   81.9190  -46.1240 C   0  0  0  0  0  0  0  0  0  0  0  0
   88.2260   83.0740  -47.0150 C   0  0  0  0  0  0  0  0  0  0  0  0
   89.0670   83.2720  -48.1470 C   0  0  0  0  0  0  0  0  0  0  0  0
   98.2868   77.9232  -47.4396 H   0  0  0  0  0  0  0  0  0  0  0  0
   94.7996   80.9257  -53.0865 H   0  0  0  0  0  0  0  0  0  0  0  0
   93.1479   81.1508  -53.7219 H   0  0  0  0  0  0  0  0  0  0  0  0
   97.6515   79.2250  -49.5571 H   0  0  0  0  0  0  0  0  0  0  0  0
   90.6605   83.3951  -50.0857 H   0  0  0  0  0  0  0  0  0  0  0  0
   93.4006   77.9748  -48.9962 H   0  0  0  0  0  0  0  0  0  0  0  0
   87.8411   81.2666  -42.8147 H   0  0  0  0  0  0  0  0  0  0  0  0
   87.9291   79.9170  -43.8147 H   0  0  0  0  0  0  0  0  0  0  0  0
   94.0114   76.6922  -46.9033 H   0  0  0  0  0  0  0  0  0  0  0  0
   95.9063   76.0024  -44.0063 H   0  0  0  0  0  0  0  0  0  0  0  0
   94.6441   76.1380  -45.2772 H   0  0  0  0  0  0  0  0  0  0  0  0
   95.7722   74.7401  -45.2772 H   0  0  0  0  0  0  0  0  0  0  0  0
   91.1267   80.4048  -47.7014 H   0  0  0  0  0  0  0  0  0  0  0  0
   89.6280   80.0832  -45.7115 H   0  0  0  0  0  0  0  0  0  0  0  0
   87.4231   83.7956  -46.8038 H   0  0  0  0  0  0  0  0  0  0  0  0
   88.9137   84.1417  -48.8028 H   0  0  0  0  0  0  0  0  0  0  0  0
  1  5  2  0
  1 14  1  0
  1 15  1  0
  2 20  1  0
  2 21  2  0
  3  8  2  0
  4 19  1  0
  4 21  1  0
  5  9  1  0
  6 20  1  0
  7  8  2  0
  8 13  1  0
  8 25  1  0
  9 17  2  0
 10 21  1  0
 10 22  1  0
 11 18  2  0
 12 14  2  0
 12 17  1  0
 15 16  1  0
 17 18  1  0
 18 19  1  0
 19 20  2  0
 22 23  2  0
 22 27  1  0
 23 24  1  0
 24 25  2  0
 25 26  1  0
 26 27  2  0
  5 28  1  0
  6 29  1  0
  6 30  1  0
  9 31  1  0
 10 32  1  0
 12 33  1  0
 13 34  1  0
 13 35  1  0
 14 36  1  0
 16 37  1  0
 16 38  1  0
 16 39  1  0
 23 40  1  0
 24 41  1  0
 26 42  1  0
 27 43  1  0
A    1
C1
A    2
N1
A    3
O1
A    4
S1
A    5
C2
A    6
N2
A    7
O2
A    8
S2
A    9
C3
A   10
N3
A   11
O3
A   12
C4
A   13
N4
A   14
C5
A   15
O6
A   16
C7
A   17
C10
A   18
C11
A   19
C12
A   20
C13
A   21
C14
A   22
C15
A   23
C16
A   24
C17
A   25
C18
A   26
C19
A   27
C20
M  END
