3S2A_2NQ_A_1103
     RDKit          3D

 54 58  0  0  0  0  0  0  0  0999 V2000
   26.6260   12.4580   22.4990 N   0  0  0  0  0  0  0  0  0  0  0  0
   19.2280   12.9160   24.3330 N   0  0  0  0  0  0  0  0  0  0  0  0
   24.5420   13.3150   20.9270 C   0  0  0  0  0  0  0  0  0  0  0  0
   25.8260   13.2580   20.3980 C   0  0  0  0  0  0  0  0  0  0  0  0
   25.6640   16.2980   19.1630 C   0  0  0  0  0  0  0  0  0  0  0  0
   26.8770   16.5550   19.7950 C   0  0  0  0  0  0  0  0  0  0  0  0
   27.0360   17.7390   20.5090 C   0  0  0  0  0  0  0  0  0  0  0  0
   24.7680   18.3890   19.9330 C   0  0  0  0  0  0  0  0  0  0  0  0
   22.6290   11.9500   23.6100 C   0  0  0  0  0  0  0  0  0  0  0  0
   20.4660   12.9560   23.8150 C   0  0  0  0  0  0  0  0  0  0  0  0
   22.1740   14.0230   22.4770 C   0  0  0  0  0  0  0  0  0  0  0  0
   19.9610   15.0440   22.6960 C   0  0  0  0  0  0  0  0  0  0  0  0
   21.6450   16.7450   21.8210 C   0  0  0  0  0  0  0  0  0  0  0  0
   21.6350   18.2590   21.5670 C   0  0  0  0  0  0  0  0  0  0  0  0
   19.1840   16.7680   21.0480 C   0  0  0  0  0  0  0  0  0  0  0  0
   20.6930   18.5820   20.5320 O   0  0  0  0  0  0  0  0  0  0  0  0
   19.3490   18.2920   20.9700 C   0  0  0  0  0  0  0  0  0  0  0  0
   20.2650   16.1610   21.8700 N   0  0  0  0  0  0  0  0  0  0  0  0
   20.8750   14.0150   22.9860 C   0  0  0  0  0  0  0  0  0  0  0  0
   18.6850   14.9480   23.2570 C   0  0  0  0  0  0  0  0  0  0  0  0
   18.3490   13.8730   24.0780 C   0  0  0  0  0  0  0  0  0  0  0  0
   21.3430   11.9290   24.1300 C   0  0  0  0  0  0  0  0  0  0  0  0
   23.0530   12.9950   22.7930 C   0  0  0  0  0  0  0  0  0  0  0  0
   24.3400   12.9580   22.2650 C   0  0  0  0  0  0  0  0  0  0  0  0
   25.4150   12.5110   23.0290 C   0  0  0  0  0  0  0  0  0  0  0  0
   26.8600   12.8130   21.2180 C   0  0  0  0  0  0  0  0  0  0  0  0
   28.4590   12.7160   20.5630 Cl  0  0  0  0  0  0  0  0  0  0  0  0
   26.1090   13.5810   19.1290 N   0  0  0  0  0  0  0  0  0  0  0  0
   25.4860   14.8400   18.2840 S   0  0  0  0  0  0  0  0  0  0  0  0
   24.0450   14.5680   17.9700 O   0  0  0  0  0  0  0  0  0  0  0  0
   26.2620   15.0030   17.0100 O   0  0  0  0  0  0  0  0  0  0  0  0
   25.9790   18.6500   20.5730 C   0  0  0  0  0  0  0  0  0  0  0  0
   26.1270   19.7890   21.2680 F   0  0  0  0  0  0  0  0  0  0  0  0
   24.6100   17.2060   19.2170 C   0  0  0  0  0  0  0  0  0  0  0  0
   23.6957   13.6365   20.3022 H   0  0  0  0  0  0  0  0  0  0  0  0
   27.7016   15.8298   19.7309 H   0  0  0  0  0  0  0  0  0  0  0  0
   27.9863   17.9557   21.0188 H   0  0  0  0  0  0  0  0  0  0  0  0
   23.9426   19.1136   19.9936 H   0  0  0  0  0  0  0  0  0  0  0  0
   23.3232   11.1301   23.8462 H   0  0  0  0  0  0  0  0  0  0  0  0
   22.5027   14.8450   21.8242 H   0  0  0  0  0  0  0  0  0  0  0  0
   22.1439   16.5520   22.7822 H   0  0  0  0  0  0  0  0  0  0  0  0
   22.1791   16.2698   20.9850 H   0  0  0  0  0  0  0  0  0  0  0  0
   21.3509   18.7809   22.4927 H   0  0  0  0  0  0  0  0  0  0  0  0
   22.6394   18.5765   21.2501 H   0  0  0  0  0  0  0  0  0  0  0  0
   19.2247   16.3484   20.0320 H   0  0  0  0  0  0  0  0  0  0  0  0
   18.2151   16.5418   21.5171 H   0  0  0  0  0  0  0  0  0  0  0  0
   19.1775   18.7356   21.9618 H   0  0  0  0  0  0  0  0  0  0  0  0
   18.6209   18.7156   20.2626 H   0  0  0  0  0  0  0  0  0  0  0  0
   17.9383   15.7284   23.0487 H   0  0  0  0  0  0  0  0  0  0  0  0
   17.3427   13.8190   24.5189 H   0  0  0  0  0  0  0  0  0  0  0  0
   21.0222   11.1060   24.7856 H   0  0  0  0  0  0  0  0  0  0  0  0
   25.2573   12.2021   24.0729 H   0  0  0  0  0  0  0  0  0  0  0  0
   26.7842   12.9793   18.6360 H   0  0  0  0  0  0  0  0  0  0  0  0
   23.6633   16.9909   18.6998 H   0  0  0  0  0  0  0  0  0  0  0  0
  1 25  2  0
  3 24  2  0
  4  3  1  0
  4 26  2  0
  5 34  1  0
  5  6  2  0
  6  7  1  0
  7 32  2  0
  8 32  1  0
  9 22  2  0
 10 22  1  0
 10  2  2  0
 11 23  2  0
 11 19  1  0
 12 19  2  0
 12 20  1  0
 13 18  1  0
 14 13  1  0
 15 18  1  0
 16 17  1  0
 16 14  1  0
 17 15  1  0
 18 12  1  0
 19 10  1  0
 20 21  2  0
 21  2  1  0
 23  9  1  0
 24 23  1  0
 24 25  1  0
 26  1  1  0
 27 26  1  0
 28  4  1  0
 29 28  1  0
 29  5  1  0
 30 29  2  0
 31 29  2  0
 32 33  1  0
 34  8  2  0
  3 35  1  0
  6 36  1  0
  7 37  1  0
  8 38  1  0
  9 39  1  0
 11 40  1  0
 13 41  1  0
 13 42  1  0
 14 43  1  0
 14 44  1  0
 15 45  1  0
 15 46  1  0
 17 47  1  0
 17 48  1  0
 20 49  1  0
 21 50  1  0
 22 51  1  0
 25 52  1  0
 28 53  1  0
 34 54  1  0
A    1
N1
A    2
N2
A    3
C1
A    4
C2
A    5
C3
A    6
C4
A    7
C5
A    8
C6
A    9
C7
A   10
C8
A   11
C9
A   12
C10
A   13
C11
A   14
C12
A   15
C13
A   16
O1
A   17
C14
A   18
N3
A   19
C15
A   20
C16
A   21
C17
A   22
C18
A   23
C19
A   24
C20
A   25
C21
A   26
C22
A   27
CL1
A   28
N4
A   29
S1
A   30
O2
A   31
O3
A   32
C23
A   33
F1
A   34
C24
M  END
