3S3I_CQ0_A_1
     RDKit          3D

 50 53  0  0  0  0  0  0  0  0999 V2000
    6.9830   29.5440   31.0730 C   0  0  0  0  0  0  0  0  0  0  0  0
    5.7790   30.1950   31.3990 C   0  0  0  0  0  0  0  0  0  0  0  0
    4.6760   30.0220   30.5650 C   0  0  0  0  0  0  0  0  0  0  0  0
    4.7900   29.1620   29.4490 C   0  0  0  0  0  0  0  0  0  0  0  0
    5.9750   28.5320   29.0960 C   0  0  0  0  0  0  0  0  0  0  0  0
    7.0960   28.7560   29.9230 C   0  0  0  0  0  0  0  0  0  0  0  0
    3.3750   30.5370   30.7200 C   0  0  0  0  0  0  0  0  0  0  0  0
    2.9530   31.6830   30.0050 C   0  0  0  0  0  0  0  0  0  0  0  0
    1.6500   32.1350   30.1510 C   0  0  0  0  0  0  0  0  0  0  0  0
    0.7880   31.4550   31.0080 N   0  0  0  0  0  0  0  0  0  0  0  0
    1.1850   30.2370   31.7010 C   0  0  0  0  0  0  0  0  0  0  0  0
    2.4980   29.8150   31.5450 C   0  0  0  0  0  0  0  0  0  0  0  0
    0.9610   33.1870   29.6460 N   0  0  0  0  0  0  0  0  0  0  0  0
   -0.2490   33.1940   30.0380 N   0  0  0  0  0  0  0  0  0  0  0  0
   -0.4660   32.1710   30.9040 C   0  0  0  0  0  0  0  0  0  0  0  0
   -1.8340   31.7700   31.5840 C   0  0  0  0  0  0  0  0  0  0  0  0
    5.6810   31.0640   32.6390 C   0  0  0  0  0  0  0  0  0  0  0  0
    5.9630   27.6530   27.8240 C   0  0  0  0  0  0  0  0  0  0  0  0
    6.8520   26.6460   27.7280 N   0  0  0  0  0  0  0  0  0  0  0  0
    6.9360   25.7480   26.5820 C   0  0  0  0  0  0  0  0  0  0  0  0
    7.1770   26.4590   25.2880 C   0  0  0  0  0  0  0  0  0  0  0  0
    8.3000   25.6460   25.9180 C   0  0  0  0  0  0  0  0  0  0  0  0
    5.1540   27.8980   26.9440 O   0  0  0  0  0  0  0  0  0  0  0  0
   -2.9280   32.7050   31.1570 C   0  0  0  0  0  0  0  0  0  0  0  0
   -1.7000   31.7690   33.1000 C   0  0  0  0  0  0  0  0  0  0  0  0
   -2.2800   30.3590   31.0450 C   0  0  0  0  0  0  0  0  0  0  0  0
    7.8533   29.6571   31.7362 H   0  0  0  0  0  0  0  0  0  0  0  0
    3.8974   28.9838   28.8313 H   0  0  0  0  0  0  0  0  0  0  0  0
    8.0658   28.3077   29.6614 H   0  0  0  0  0  0  0  0  0  0  0  0
    3.6521   32.2105   29.3394 H   0  0  0  0  0  0  0  0  0  0  0  0
    0.4731   29.6744   32.3228 H   0  0  0  0  0  0  0  0  0  0  0  0
    2.8517   28.9143   32.0681 H   0  0  0  0  0  0  0  0  0  0  0  0
    5.7523   30.4318   33.5364 H   0  0  0  0  0  0  0  0  0  0  0  0
    6.5023   31.7957   32.6398 H   0  0  0  0  0  0  0  0  0  0  0  0
    4.7173   31.5944   32.6398 H   0  0  0  0  0  0  0  0  0  0  0  0
    7.5095   26.5020   28.5077 H   0  0  0  0  0  0  0  0  0  0  0  0
    6.2127   25.0078   26.9549 H   0  0  0  0  0  0  0  0  0  0  0  0
    6.6915   26.1027   24.3675 H   0  0  0  0  0  0  0  0  0  0  0  0
    7.0718   27.4983   24.9435 H   0  0  0  0  0  0  0  0  0  0  0  0
    9.1697   26.1540   26.3601 H   0  0  0  0  0  0  0  0  0  0  0  0
    8.9528   24.8239   25.5893 H   0  0  0  0  0  0  0  0  0  0  0  0
   -3.4195   33.1250   32.0470 H   0  0  0  0  0  0  0  0  0  0  0  0
   -2.4996   33.5203   30.5556 H   0  0  0  0  0  0  0  0  0  0  0  0
   -3.6666   32.1548   30.5556 H   0  0  0  0  0  0  0  0  0  0  0  0
   -2.7008   31.7765   33.5566 H   0  0  0  0  0  0  0  0  0  0  0  0
   -1.1579   30.8668   33.4196 H   0  0  0  0  0  0  0  0  0  0  0  0
   -1.1445   32.6630   33.4196 H   0  0  0  0  0  0  0  0  0  0  0  0
   -2.4908   29.6921   31.8940 H   0  0  0  0  0  0  0  0  0  0  0  0
   -3.1867   30.4704   30.4323 H   0  0  0  0  0  0  0  0  0  0  0  0
   -1.4740   29.9290   30.4323 H   0  0  0  0  0  0  0  0  0  0  0  0
  6  1  2  0
  1  2  1  0
  3  2  2  0
  2 17  1  0
  4  3  1  0
  3  7  1  0
  5  4  2  0
 18  5  1  0
  5  6  1  0
  8  7  2  0
  7 12  1  0
  8  9  1  0
 13  9  2  0
  9 10  1  0
 15 10  1  0
 10 11  1  0
 12 11  2  0
 13 14  1  0
 14 15  2  0
 15 16  1  0
 26 16  1  0
 24 16  1  0
 16 25  1  0
 23 18  2  0
 19 18  1  0
 20 19  1  0
 21 20  1  0
 22 20  1  0
 21 22  1  0
  1 27  1  0
  4 28  1  0
  6 29  1  0
  8 30  1  0
 11 31  1  0
 12 32  1  0
 17 33  1  0
 17 34  1  0
 17 35  1  0
 19 36  1  0
 20 37  1  0
 21 38  1  0
 21 39  1  0
 22 40  1  0
 22 41  1  0
 24 42  1  0
 24 43  1  0
 24 44  1  0
 25 45  1  0
 25 46  1  0
 25 47  1  0
 26 48  1  0
 26 49  1  0
 26 50  1  0
A    1
CAA
A    2
CAB
A    3
CAC
A    4
CAD
A    5
CAE
A    6
CAF
A    7
CAG
A    8
CAH
A    9
CAI
A   10
NAJ
A   11
CAK
A   12
CAL
A   13
NAM
A   14
NAN
A   15
CAO
A   16
CAP
A   17
CAQ
A   18
CAR
A   19
NAS
A   20
CAT
A   21
CAU
A   22
CAV
A   23
OAW
A   24
CAX
A   25
CAY
A   26
CAZ
M  END
