1HPV_478_B_200
     RDKit          3D

 70 72  0  0  0  0  0  0  0  0999 V2000
   11.1690   14.9770    2.4450 C   0  0  0  0  0  0  0  0  0  0  0  0
    9.1760   16.2240    2.9970 C   0  0  0  0  0  0  0  0  0  0  0  0
   10.1490   15.7020    5.9990 C   0  0  0  0  0  0  0  0  0  0  0  0
   10.1130   15.1490    3.5480 C   0  0  0  0  0  0  0  0  0  0  0  0
   10.9600   16.6620    8.1450 C   0  0  0  0  0  0  0  0  0  0  0  0
   10.3870   18.1190    8.4840 C   0  0  0  0  0  0  0  0  0  0  0  0
   12.4160   16.2780    8.6520 C   0  0  0  0  0  0  0  0  0  0  0  0
   12.8310   14.9140    8.1700 C   0  0  0  0  0  0  0  0  0  0  0  0
   13.6360   14.8250    6.9780 C   0  0  0  0  0  0  0  0  0  0  0  0
   12.2990   13.7060    8.7650 C   0  0  0  0  0  0  0  0  0  0  0  0
   13.8910   13.5660    6.3310 C   0  0  0  0  0  0  0  0  0  0  0  0
   12.5740   12.4340    8.1160 C   0  0  0  0  0  0  0  0  0  0  0  0
   13.3710   12.3570    6.8870 C   0  0  0  0  0  0  0  0  0  0  0  0
    9.6950   18.4110    9.8910 C   0  0  0  0  0  0  0  0  0  0  0  0
    7.3810   17.6970    9.1700 C   0  0  0  0  0  0  0  0  0  0  0  0
    6.1860   18.4060    9.7900 C   0  0  0  0  0  0  0  0  0  0  0  0
    8.8320   16.3810   12.8860 C   0  0  0  0  0  0  0  0  0  0  0  0
   10.0730   16.3630   13.6040 C   0  0  0  0  0  0  0  0  0  0  0  0
   10.0920   16.6920   14.9920 C   0  0  0  0  0  0  0  0  0  0  0  0
    8.8650   17.0540   15.6200 C   0  0  0  0  0  0  0  0  0  0  0  0
    7.6520   17.0060   14.9260 C   0  0  0  0  0  0  0  0  0  0  0  0
    7.6390   16.6690   13.5550 C   0  0  0  0  0  0  0  0  0  0  0  0
    6.1460   19.9370    9.6140 C   0  0  0  0  0  0  0  0  0  0  0  0
    4.8220   17.6950    9.7310 C   0  0  0  0  0  0  0  0  0  0  0  0
    9.7510   16.6260    1.6330 C   0  0  0  0  0  0  0  0  0  0  0  0
   10.9400   16.4720    6.7130 N   0  0  0  0  0  0  0  0  0  0  0  0
    8.5160   17.5800   10.2280 N   0  0  0  0  0  0  0  0  0  0  0  0
    8.8400   17.3220   16.8980 N   0  0  0  0  0  0  0  0  0  0  0  0
   10.7260   15.6620    4.7310 O   0  0  0  0  0  0  0  0  0  0  0  0
    9.0810   15.3130    6.2870 O   0  0  0  0  0  0  0  0  0  0  0  0
   11.4320   19.0300    8.4660 O   0  0  0  0  0  0  0  0  0  0  0  0
   10.0510   15.5110   10.8470 O   0  0  0  0  0  0  0  0  0  0  0  0
    7.7070   15.1600   11.0710 O   0  0  0  0  0  0  0  0  0  0  0  0
   11.0530   16.0820    1.5150 O   0  0  0  0  0  0  0  0  0  0  0  0
    8.7650   16.1120   11.2000 S   0  0  0  0  0  0  0  0  0  0  0  0
   12.1741   14.9733    2.8920 H   0  0  0  0  0  0  0  0  0  0  0  0
   11.0090   14.0249    1.9179 H   0  0  0  0  0  0  0  0  0  0  0  0
    8.1591   15.8213    2.8796 H   0  0  0  0  0  0  0  0  0  0  0  0
    9.1083   17.0866    3.6762 H   0  0  0  0  0  0  0  0  0  0  0  0
    9.6113   14.2022    3.7966 H   0  0  0  0  0  0  0  0  0  0  0  0
   10.2885   16.0010    8.7126 H   0  0  0  0  0  0  0  0  0  0  0  0
    9.5998   18.1996    7.7200 H   0  0  0  0  0  0  0  0  0  0  0  0
   13.1327   17.0226    8.2753 H   0  0  0  0  0  0  0  0  0  0  0  0
   12.4038   16.2642    9.7518 H   0  0  0  0  0  0  0  0  0  0  0  0
   14.0664   15.7434    6.5521 H   0  0  0  0  0  0  0  0  0  0  0  0
   11.7005   13.7494    9.6869 H   0  0  0  0  0  0  0  0  0  0  0  0
   14.4871   13.5339    5.4071 H   0  0  0  0  0  0  0  0  0  0  0  0
   12.1752   11.5084    8.5568 H   0  0  0  0  0  0  0  0  0  0  0  0
   13.5644   11.3882    6.4033 H   0  0  0  0  0  0  0  0  0  0  0  0
   10.4505   18.2542   10.6749 H   0  0  0  0  0  0  0  0  0  0  0  0
    9.3173   19.4419    9.8236 H   0  0  0  0  0  0  0  0  0  0  0  0
    7.0810   16.6914    8.8403 H   0  0  0  0  0  0  0  0  0  0  0  0
    7.7421   18.2721    8.3046 H   0  0  0  0  0  0  0  0  0  0  0  0
    6.4271   18.2818   10.8560 H   0  0  0  0  0  0  0  0  0  0  0  0
   11.0065   16.0966   13.0867 H   0  0  0  0  0  0  0  0  0  0  0  0
   11.0313   16.6669   15.5639 H   0  0  0  0  0  0  0  0  0  0  0  0
    6.7097   17.2304   15.4472 H   0  0  0  0  0  0  0  0  0  0  0  0
    6.6842   16.6329   13.0100 H   0  0  0  0  0  0  0  0  0  0  0  0
    6.1334   20.4195   10.6024 H   0  0  0  0  0  0  0  0  0  0  0  0
    7.0359   20.2654    9.0570 H   0  0  0  0  0  0  0  0  0  0  0  0
    5.2402   20.2185    9.0570 H   0  0  0  0  0  0  0  0  0  0  0  0
    4.4618   17.5073   10.7533 H   0  0  0  0  0  0  0  0  0  0  0  0
    4.0996   18.3313    9.1988 H   0  0  0  0  0  0  0  0  0  0  0  0
    4.9299   16.7384    9.1988 H   0  0  0  0  0  0  0  0  0  0  0  0
    9.1105   16.2324    0.8300 H   0  0  0  0  0  0  0  0  0  0  0  0
    9.7921   17.7221    1.5501 H   0  0  0  0  0  0  0  0  0  0  0  0
   11.6379   17.0112    6.1810 H   0  0  0  0  0  0  0  0  0  0  0  0
    8.9112   16.5586   17.5858 H   0  0  0  0  0  0  0  0  0  0  0  0
    8.7491   18.2968   17.2181 H   0  0  0  0  0  0  0  0  0  0  0  0
   11.6899   19.2548    9.3950 H   0  0  0  0  0  0  0  0  0  0  0  0
  1  4  1  0
  1 34  1  0
  2  4  1  0
  2 25  1  0
  3 26  1  0
  3 29  1  0
  3 30  2  0
  4 29  1  0
  5  6  1  0
  5  7  1  0
  5 26  1  0
  6 14  1  0
  6 31  1  0
  7  8  1  0
  8  9  2  0
  8 10  1  0
  9 11  1  0
 10 12  2  0
 11 13  2  0
 12 13  1  0
 14 27  1  0
 15 16  1  0
 15 27  1  0
 16 23  1  0
 16 24  1  0
 17 18  2  0
 17 22  1  0
 17 35  1  0
 18 19  1  0
 19 20  2  0
 20 21  1  0
 20 28  1  0
 21 22  2  0
 25 34  1  0
 27 35  1  0
 32 35  2  0
 33 35  2  0
  1 36  1  0
  1 37  1  0
  2 38  1  0
  2 39  1  0
  4 40  1  0
  5 41  1  0
  6 42  1  0
  7 43  1  0
  7 44  1  0
  9 45  1  0
 10 46  1  0
 11 47  1  0
 12 48  1  0
 13 49  1  0
 14 50  1  0
 14 51  1  0
 15 52  1  0
 15 53  1  0
 16 54  1  0
 18 55  1  0
 19 56  1  0
 21 57  1  0
 22 58  1  0
 23 59  1  0
 23 60  1  0
 23 61  1  0
 24 62  1  0
 24 63  1  0
 24 64  1  0
 25 65  1  0
 25 66  1  0
 26 67  1  0
 28 68  1  0
 28 69  1  0
 31 70  1  0
A    1
C1
A    2
C2
A    3
C3
A    4
C4
A    5
C5
A    6
C6
A    7
C7
A    8
C8
A    9
C9
A   10
C10
A   11
C11
A   12
C12
A   13
C13
A   14
C14
A   15
C15
A   16
C16
A   17
C17
A   18
C18
A   19
C19
A   20
C20
A   21
C21
A   22
C22
A   23
C23
A   24
C24
A   25
C25
A   26
N1
A   27
N2
A   28
N3
A   29
O1
A   30
O2
A   31
O3
A   32
O4
A   33
O5
A   34
O6
A   35
S1
M  END
