2O9B_LBV_A_328
     RDKit          3D

 80 83  0  0  0  0  0  0  0  0999 V2000
   23.7680   -9.4670   20.7080 C   0  0  0  0  0  0  0  0  0  0  0  0
   19.7550   -7.4830   20.9000 C   0  0  0  0  0  0  0  0  0  0  0  0
   15.4180   -2.5740   21.1510 O   0  0  0  0  0  0  0  0  0  0  0  0
   18.6110   -7.0520   16.5670 C   0  0  0  0  0  0  0  0  0  0  0  0
   17.0020   -4.3150   12.8160 O   0  0  0  0  0  0  0  0  0  0  0  0
   21.5480   -8.6000   13.1850 C   0  0  0  0  0  0  0  0  0  0  0  0
   24.1300   -9.6930   22.0420 C   0  0  0  0  0  0  0  0  0  0  0  0
   18.5850   -6.8130   21.4020 C   0  0  0  0  0  0  0  0  0  0  0  0
   14.5440   -3.6610   19.4140 O   0  0  0  0  0  0  0  0  0  0  0  0
   18.0280   -6.7930   15.3170 C   0  0  0  0  0  0  0  0  0  0  0  0
   18.1900   -3.0300   14.1680 O   0  0  0  0  0  0  0  0  0  0  0  0
   22.4400   -9.6470   12.6180 C   0  0  0  0  0  0  0  0  0  0  0  0
   22.8790   -9.1220   22.5840 C   0  0  0  0  0  0  0  0  0  0  0  0
   17.8550   -6.4600   20.3090 C   0  0  0  0  0  0  0  0  0  0  0  0
   18.8950   -7.3110   14.3750 C   0  0  0  0  0  0  0  0  0  0  0  0
   23.0710   -9.0150   11.5230 C   0  0  0  0  0  0  0  0  0  0  0  0
   21.8460   -8.8760   21.5610 C   0  0  0  0  0  0  0  0  0  0  0  0
   18.5830   -6.9180   19.1740 C   0  0  0  0  0  0  0  0  0  0  0  0
   19.9660   -7.8600   15.0820 C   0  0  0  0  0  0  0  0  0  0  0  0
   22.5790   -7.6850   11.5050 C   0  0  0  0  0  0  0  0  0  0  0  0
   22.4660   -9.6870   23.8130 C   0  0  0  0  0  0  0  0  0  0  0  0
   16.5250   -5.7360   20.3010 C   0  0  0  0  0  0  0  0  0  0  0  0
   16.6970   -6.1320   14.9920 C   0  0  0  0  0  0  0  0  0  0  0  0
   24.0670   -9.6050   10.5820 C   0  0  0  0  0  0  0  0  0  0  0  0
   23.3680  -10.0260   24.9760 C   0  0  0  0  0  0  0  0  0  0  0  0
   16.7720   -4.2290   20.0440 C   0  0  0  0  0  0  0  0  0  0  0  0
   16.7180   -4.6190   15.1640 C   0  0  0  0  0  0  0  0  0  0  0  0
   24.6310   -8.8960    9.5810 C   0  0  0  0  0  0  0  0  0  0  0  0
   15.4940   -3.4300   20.2060 C   0  0  0  0  0  0  0  0  0  0  0  0
   17.3580   -3.9530   13.9620 C   0  0  0  0  0  0  0  0  0  0  0  0
   20.8490   -7.9590   21.7850 C   0  0  0  0  0  0  0  0  0  0  0  0
   18.0820   -6.7240   17.8490 C   0  0  0  0  0  0  0  0  0  0  0  0
   21.1530   -8.5210   14.6260 C   0  0  0  0  0  0  0  0  0  0  0  0
   25.3520   -8.8490   22.4170 C   0  0  0  0  0  0  0  0  0  0  0  0
   18.2190   -6.5170   22.8480 C   0  0  0  0  0  0  0  0  0  0  0  0
   18.6400   -7.2690   12.9020 C   0  0  0  0  0  0  0  0  0  0  0  0
   22.5670  -11.0760   13.0990 C   0  0  0  0  0  0  0  0  0  0  0  0
   22.6350   -8.7420   20.3940 N   0  0  0  0  0  0  0  0  0  0  0  0
   24.7170   -9.3950   19.9200 O   0  0  0  0  0  0  0  0  0  0  0  0
   19.7650   -7.5420   19.5190 N   0  0  0  0  0  0  0  0  0  0  0  0
   19.8110   -7.7080   16.4390 N   0  0  0  0  0  0  0  0  0  0  0  0
   21.6930   -7.3840   12.4920 N   0  0  0  0  0  0  0  0  0  0  0  0
   22.9620   -6.8220   10.6390 O   0  0  0  0  0  0  0  0  0  0  0  0
   16.3118   -5.0169   12.7107 H   0  0  0  0  0  0  0  0  0  0  0  0
   24.4137  -10.7080   22.3570 H   0  0  0  0  0  0  0  0  0  0  0  0
   13.6459   -3.8794   19.7686 H   0  0  0  0  0  0  0  0  0  0  0  0
   21.3931   -9.8982   23.9324 H   0  0  0  0  0  0  0  0  0  0  0  0
   15.8868   -6.1461   19.5044 H   0  0  0  0  0  0  0  0  0  0  0  0
   16.0235   -5.8700   21.2708 H   0  0  0  0  0  0  0  0  0  0  0  0
   16.4392   -6.3611   13.9475 H   0  0  0  0  0  0  0  0  0  0  0  0
   15.9543   -6.5300   15.6991 H   0  0  0  0  0  0  0  0  0  0  0  0
   24.3532  -10.6595   10.7088 H   0  0  0  0  0  0  0  0  0  0  0  0
   22.8394   -9.8273   25.9200 H   0  0  0  0  0  0  0  0  0  0  0  0
   23.6448  -11.0895   24.9275 H   0  0  0  0  0  0  0  0  0  0  0  0
   24.2767   -9.4080   24.9275 H   0  0  0  0  0  0  0  0  0  0  0  0
   17.5195   -3.8601   20.7618 H   0  0  0  0  0  0  0  0  0  0  0  0
   17.1323   -4.1055   19.0120 H   0  0  0  0  0  0  0  0  0  0  0  0
   15.6863   -4.2534   15.2729 H   0  0  0  0  0  0  0  0  0  0  0  0
   17.3062   -4.3726   16.0603 H   0  0  0  0  0  0  0  0  0  0  0  0
   25.3612   -9.3744    8.9117 H   0  0  0  0  0  0  0  0  0  0  0  0
   24.3603   -7.8399    9.4347 H   0  0  0  0  0  0  0  0  0  0  0  0
   20.8626   -7.5011   22.7851 H   0  0  0  0  0  0  0  0  0  0  0  0
   17.1014   -6.2269   17.8121 H   0  0  0  0  0  0  0  0  0  0  0  0
   21.8069   -8.9943   15.3733 H   0  0  0  0  0  0  0  0  0  0  0  0
   25.4356   -8.7913   23.5123 H   0  0  0  0  0  0  0  0  0  0  0  0
   26.2594   -9.3138   22.0040 H   0  0  0  0  0  0  0  0  0  0  0  0
   25.2386   -7.8358   22.0040 H   0  0  0  0  0  0  0  0  0  0  0  0
   18.8975   -7.0658   23.5177 H   0  0  0  0  0  0  0  0  0  0  0  0
   18.3121   -5.4372   23.0361 H   0  0  0  0  0  0  0  0  0  0  0  0
   17.1826   -6.8339   23.0361 H   0  0  0  0  0  0  0  0  0  0  0  0
   17.5696   -7.0927   12.7201 H   0  0  0  0  0  0  0  0  0  0  0  0
   19.2274   -6.4555   12.4512 H   0  0  0  0  0  0  0  0  0  0  0  0
   18.9355   -8.2279   12.4512 H   0  0  0  0  0  0  0  0  0  0  0  0
   22.5686  -11.0939   14.1989 H   0  0  0  0  0  0  0  0  0  0  0  0
   21.7177  -11.6660   12.7239 H   0  0  0  0  0  0  0  0  0  0  0  0
   23.5070  -11.5070   12.7239 H   0  0  0  0  0  0  0  0  0  0  0  0
   22.4184   -8.2310   19.5263 H   0  0  0  0  0  0  0  0  0  0  0  0
   20.4790   -7.9511   18.8995 H   0  0  0  0  0  0  0  0  0  0  0  0
   20.4481   -8.0153   17.1878 H   0  0  0  0  0  0  0  0  0  0  0  0
   21.2369   -6.4811   12.6860 H   0  0  0  0  0  0  0  0  0  0  0  0
  1 38  1  0
  1  7  1  0
  2  8  2  0
  2 31  1  0
  3 29  2  0
  4 32  2  0
  6 33  2  0
  7 34  1  0
  7 13  1  0
  8 35  1  0
 10  4  1  0
 11 30  2  0
 12  6  1  0
 12 37  1  0
 13 21  2  0
 14  8  1  0
 14 22  1  0
 15 10  2  0
 15 19  1  0
 16 12  2  0
 17 13  1  0
 17 31  2  0
 18 14  2  0
 18 40  1  0
 19 41  2  0
 20 16  1  0
 20 42  1  0
 21 25  1  0
 23 10  1  0
 23 27  1  0
 24 16  1  0
 26 22  1  0
 26 29  1  0
 28 24  2  3
 29  9  1  0
 30  5  1  0
 30 27  1  0
 32 18  1  0
 33 19  1  0
 36 15  1  0
 38 17  1  0
 39  1  2  0
 40  2  1  0
 41  4  1  0
 42  6  1  0
 43 20  2  0
  5 44  1  0
  7 45  1  0
  9 46  1  0
 21 47  1  0
 22 48  1  0
 22 49  1  0
 23 50  1  0
 23 51  1  0
 24 52  1  0
 25 53  1  0
 25 54  1  0
 25 55  1  0
 26 56  1  0
 26 57  1  0
 27 58  1  0
 27 59  1  0
 28 60  1  0
 28 61  1  0
 31 62  1  0
 32 63  1  0
 33 64  1  0
 34 65  1  0
 34 66  1  0
 34 67  1  0
 35 68  1  0
 35 69  1  0
 35 70  1  0
 36 71  1  0
 36 72  1  0
 36 73  1  0
 37 74  1  0
 37 75  1  0
 37 76  1  0
 38 77  1  0
 40 78  1  0
 41 79  1  0
 42 80  1  0
M  CHG  1  41   1
A    1
C1A
A    2
C1B
A    3
O1B
A    4
C1C
A    5
O1C
A    6
C1D
A    7
C2A
A    8
C2B
A    9
O2B
A   10
C2C
A   11
O2C
A   12
C2D
A   13
C3A
A   14
C3B
A   15
C3C
A   16
C3D
A   17
C4A
A   18
C4B
A   19
C4C
A   20
C4D
A   21
CAA
A   22
CAB
A   23
CAC
A   24
CAD
A   25
CBA
A   26
CBB
A   27
CBC
A   28
CBD
A   29
CGB
A   30
CGC
A   31
CHB
A   32
CHC
A   33
CHD
A   34
CMA
A   35
CMB
A   36
CMC
A   37
CMD
A   38
N_A
A   39
O_A
A   40
N_B
A   41
N_C
A   42
N_D
A   43
O_D
M  END
