3S7S_EXM_A_601
     RDKit          3D

 46 49  0  0  0  0  0  0  0  0999 V2000
   84.2060   52.5630   48.9090 C   0  0  0  0  0  0  0  0  0  0  0  0
   87.4480   51.8130   45.4250 C   0  0  0  0  0  0  0  0  0  0  0  0
   88.6760   49.8980   48.1490 O   0  0  0  0  0  0  0  0  0  0  0  0
   88.1970   50.9020   46.1640 C   0  0  0  0  0  0  0  0  0  0  0  0
   86.0160   58.9170   43.8660 O   0  0  0  0  0  0  0  0  0  0  0  0
   87.9640   50.7130   47.5200 C   0  0  0  0  0  0  0  0  0  0  0  0
   86.9630   51.4260   48.1740 C   0  0  0  0  0  0  0  0  0  0  0  0
   86.1780   52.3270   47.4640 C   0  0  0  0  0  0  0  0  0  0  0  0
   85.1220   53.1230   48.1490 C   0  0  0  0  0  0  0  0  0  0  0  0
   85.1630   54.6150   47.9250 C   0  0  0  0  0  0  0  0  0  0  0  0
   85.3750   54.8930   46.4370 C   0  0  0  0  0  0  0  0  0  0  0  0
   86.5740   54.1180   45.8500 C   0  0  0  0  0  0  0  0  0  0  0  0
   86.3560   52.6020   45.9950 C   0  0  0  0  0  0  0  0  0  0  0  0
   86.9210   54.5320   44.4050 C   0  0  0  0  0  0  0  0  0  0  0  0
   86.9420   56.0460   44.1610 C   0  0  0  0  0  0  0  0  0  0  0  0
   85.6480   56.6670   44.6620 C   0  0  0  0  0  0  0  0  0  0  0  0
   85.5610   56.3720   46.1480 C   0  0  0  0  0  0  0  0  0  0  0  0
   84.5560   57.3740   46.7160 C   0  0  0  0  0  0  0  0  0  0  0  0
   84.8750   58.6660   45.9580 C   0  0  0  0  0  0  0  0  0  0  0  0
   85.5740   58.1650   44.7170 C   0  0  0  0  0  0  0  0  0  0  0  0
   84.4460   56.1900   43.8540 C   0  0  0  0  0  0  0  0  0  0  0  0
   85.0840   52.1760   45.2580 C   0  0  0  0  0  0  0  0  0  0  0  0
   83.4420   53.1849   49.3984 H   0  0  0  0  0  0  0  0  0  0  0  0
   84.2039   51.4727   49.0551 H   0  0  0  0  0  0  0  0  0  0  0  0
   87.6890   51.9463   44.3600 H   0  0  0  0  0  0  0  0  0  0  0  0
   88.9873   50.3216   45.6654 H   0  0  0  0  0  0  0  0  0  0  0  0
   86.7936   51.2766   49.2506 H   0  0  0  0  0  0  0  0  0  0  0  0
   85.9912   55.0514   48.5027 H   0  0  0  0  0  0  0  0  0  0  0  0
   84.2146   55.0648   48.2541 H   0  0  0  0  0  0  0  0  0  0  0  0
   84.4539   54.5416   45.9491 H   0  0  0  0  0  0  0  0  0  0  0  0
   87.4603   54.3928   46.4407 H   0  0  0  0  0  0  0  0  0  0  0  0
   86.1737   54.0865   43.7319 H   0  0  0  0  0  0  0  0  0  0  0  0
   87.9429   54.1719   44.2149 H   0  0  0  0  0  0  0  0  0  0  0  0
   87.7924   56.4907   44.6986 H   0  0  0  0  0  0  0  0  0  0  0  0
   87.0432   56.2384   43.0827 H   0  0  0  0  0  0  0  0  0  0  0  0
   86.5032   56.5339   46.6921 H   0  0  0  0  0  0  0  0  0  0  0  0
   84.7013   57.5066   47.7983 H   0  0  0  0  0  0  0  0  0  0  0  0
   83.5117   57.0510   46.5932 H   0  0  0  0  0  0  0  0  0  0  0  0
   85.5354   59.3183   46.5482 H   0  0  0  0  0  0  0  0  0  0  0  0
   83.9839   59.2729   45.7397 H   0  0  0  0  0  0  0  0  0  0  0  0
   83.6462   55.8726   44.5392 H   0  0  0  0  0  0  0  0  0  0  0  0
   84.0811   57.0115   43.2199 H   0  0  0  0  0  0  0  0  0  0  0  0
   84.7436   55.3418   43.2199 H   0  0  0  0  0  0  0  0  0  0  0  0
   84.3057   51.9154   45.9904 H   0  0  0  0  0  0  0  0  0  0  0  0
   84.7308   53.0049   44.6270 H   0  0  0  0  0  0  0  0  0  0  0  0
   85.3013   51.3016   44.6270 H   0  0  0  0  0  0  0  0  0  0  0  0
 21 16  1  0
  5 20  2  0
 15 14  1  0
 15 16  1  0
 14 12  1  0
 16 20  1  0
 16 17  1  0
 20 19  1  0
 22 13  1  0
  2 13  1  0
  2  4  2  0
 12 13  1  0
 12 11  1  0
 19 18  1  0
 13  8  1  0
 17 11  1  0
 17 18  1  0
  4  6  1  0
 11 10  1  0
  8  9  1  0
  8  7  2  0
  6  3  2  0
  6  7  1  0
 10  9  1  0
  9  1  2  3
  1 23  1  0
  1 24  1  0
  2 25  1  0
  4 26  1  0
  7 27  1  0
 10 28  1  0
 10 29  1  0
 11 30  1  0
 12 31  1  0
 14 32  1  0
 14 33  1  0
 15 34  1  0
 15 35  1  0
 17 36  1  0
 18 37  1  0
 18 38  1  0
 19 39  1  0
 19 40  1  0
 21 41  1  0
 21 42  1  0
 21 43  1  0
 22 44  1  0
 22 45  1  0
 22 46  1  0
A    1
C
A    2
C1
A    3
O1
A    4
C2
A    5
O2
A    6
C3
A    7
C4
A    8
C5
A    9
C6
A   10
C7
A   11
C8
A   12
C9
A   13
C10
A   14
C11
A   15
C12
A   16
C13
A   17
C14
A   18
C15
A   19
C16
A   20
C17
A   21
C18
A   22
C19
M  END
