3S9S_M0T_A_1
     RDKit          3D

 54 57  0  0  0  0  0  0  0  0999 V2000
  -21.2880   19.6220  -13.0890 N   0  0  0  0  0  0  0  0  0  0  0  0
  -23.5070   16.4740   -9.6660 N   0  0  0  0  0  0  0  0  0  0  0  0
  -22.6570   19.7000  -13.2750 C   0  0  0  0  0  0  0  0  0  0  0  0
  -23.4410   19.1440  -12.1670 C   0  0  0  0  0  0  0  0  0  0  0  0
  -24.6290   19.7500  -11.8360 C   0  0  0  0  0  0  0  0  0  0  0  0
  -25.4110   19.2800  -10.8040 C   0  0  0  0  0  0  0  0  0  0  0  0
  -24.9150   18.1740  -10.1550 C   0  0  0  0  0  0  0  0  0  0  0  0
  -24.7530   15.4440   -7.7570 C   0  0  0  0  0  0  0  0  0  0  0  0
  -20.2250   21.7700  -13.5740 C   0  0  0  0  0  0  0  0  0  0  0  0
  -20.9810   22.3190  -12.5630 C   0  0  0  0  0  0  0  0  0  0  0  0
  -20.8310   23.6390  -12.1970 C   0  0  0  0  0  0  0  0  0  0  0  0
  -19.1510   23.8910  -13.8670 C   0  0  0  0  0  0  0  0  0  0  0  0
  -19.2210   18.2970  -14.7270 C   0  0  0  0  0  0  0  0  0  0  0  0
  -23.2330   20.1850  -14.2380 O   0  0  0  0  0  0  0  0  0  0  0  0
  -19.0590   19.6520  -14.0770 C   0  0  0  0  0  0  0  0  0  0  0  0
  -25.3780   17.4400   -9.1060 N   0  0  0  0  0  0  0  0  0  0  0  0
  -20.3970   20.3420  -13.9750 C   0  0  0  0  0  0  0  0  0  0  0  0
  -26.6100   17.6350   -8.3950 C   0  0  0  0  0  0  0  0  0  0  0  0
  -24.5170   16.4270   -8.8370 C   0  0  0  0  0  0  0  0  0  0  0  0
  -23.7360   17.5490  -10.4810 C   0  0  0  0  0  0  0  0  0  0  0  0
  -22.9550   18.0300  -11.5170 C   0  0  0  0  0  0  0  0  0  0  0  0
  -19.9150   24.4270  -12.8560 C   0  0  0  0  0  0  0  0  0  0  0  0
  -19.3070   22.5690  -14.2220 C   0  0  0  0  0  0  0  0  0  0  0  0
  -26.6300   18.8860   -7.5920 C   0  0  0  0  0  0  0  0  0  0  0  0
  -26.7390   21.2140   -6.1300 C   0  0  0  0  0  0  0  0  0  0  0  0
  -25.7090   19.1030   -6.5960 C   0  0  0  0  0  0  0  0  0  0  0  0
  -26.7770   22.6660   -5.1960 Cl  0  0  0  0  0  0  0  0  0  0  0  0
  -24.6390   20.5790   -4.6300 Cl  0  0  0  0  0  0  0  0  0  0  0  0
  -27.6000   19.8280   -7.8460 C   0  0  0  0  0  0  0  0  0  0  0  0
  -27.6630   20.9940   -7.1220 C   0  0  0  0  0  0  0  0  0  0  0  0
  -25.7750   20.2720   -5.8770 C   0  0  0  0  0  0  0  0  0  0  0  0
  -20.9033   19.0528  -12.3216 H   0  0  0  0  0  0  0  0  0  0  0  0
  -24.9626   20.6289  -12.4072 H   0  0  0  0  0  0  0  0  0  0  0  0
  -26.3620   19.7544  -10.5201 H   0  0  0  0  0  0  0  0  0  0  0  0
  -24.6347   15.9366   -6.7806 H   0  0  0  0  0  0  0  0  0  0  0  0
  -25.7732   15.0419   -7.8437 H   0  0  0  0  0  0  0  0  0  0  0  0
  -24.0265   14.6226   -7.8437 H   0  0  0  0  0  0  0  0  0  0  0  0
  -21.7177   21.6930  -12.0381 H   0  0  0  0  0  0  0  0  0  0  0  0
  -21.4395   24.0603  -11.3832 H   0  0  0  0  0  0  0  0  0  0  0  0
  -18.4154   24.5182  -14.3920 H   0  0  0  0  0  0  0  0  0  0  0  0
  -19.3132   17.5255  -13.9484 H   0  0  0  0  0  0  0  0  0  0  0  0
  -20.1256   18.2963  -15.3528 H   0  0  0  0  0  0  0  0  0  0  0  0
  -18.3420   18.0831  -15.3528 H   0  0  0  0  0  0  0  0  0  0  0  0
  -18.6381   19.5238  -13.0688 H   0  0  0  0  0  0  0  0  0  0  0  0
  -18.3830   20.2665  -14.6897 H   0  0  0  0  0  0  0  0  0  0  0  0
  -20.8696   20.3397  -14.9683 H   0  0  0  0  0  0  0  0  0  0  0  0
  -27.4324   17.6744   -9.1245 H   0  0  0  0  0  0  0  0  0  0  0  0
  -26.7200   16.7944   -7.6941 H   0  0  0  0  0  0  0  0  0  0  0  0
  -22.0060   17.5533  -11.8038 H   0  0  0  0  0  0  0  0  0  0  0  0
  -19.7939   25.4836  -12.5749 H   0  0  0  0  0  0  0  0  0  0  0  0
  -18.6928   22.1465  -15.0308 H   0  0  0  0  0  0  0  0  0  0  0  0
  -24.9329   18.3545   -6.3781 H   0  0  0  0  0  0  0  0  0  0  0  0
  -28.3371   19.6447   -8.6417 H   0  0  0  0  0  0  0  0  0  0  0  0
  -28.4424   21.7407   -7.3339 H   0  0  0  0  0  0  0  0  0  0  0  0
  1  3  1  0
  1 17  1  0
  2 19  2  0
  2 20  1  0
  3  4  1  0
  3 14  2  0
  4  5  1  0
  4 21  2  0
  5  6  2  0
  6  7  1  0
  7 16  1  0
  7 20  2  0
  8 19  1  0
  9 10  2  0
  9 17  1  0
  9 23  1  0
 10 11  1  0
 11 22  2  0
 12 22  1  0
 12 23  2  0
 13 15  1  0
 15 17  1  0
 16 18  1  0
 16 19  1  0
 18 24  1  0
 20 21  1  0
 24 26  1  0
 24 29  2  0
 25 27  1  0
 25 30  2  0
 25 31  1  0
 26 31  2  0
 28 31  1  0
 29 30  1  0
  1 32  1  0
  5 33  1  0
  6 34  1  0
  8 35  1  0
  8 36  1  0
  8 37  1  0
 10 38  1  0
 11 39  1  0
 12 40  1  0
 13 41  1  0
 13 42  1  0
 13 43  1  0
 15 44  1  0
 15 45  1  0
 17 46  1  0
 18 47  1  0
 18 48  1  0
 21 49  1  0
 22 50  1  0
 23 51  1  0
 26 52  1  0
 29 53  1  0
 30 54  1  0
A    1
N1
A    2
N3
A    3
C4
A    4
C5
A    5
C6
A    6
C7
A    7
C8
A    8
C17
A    9
C20
A   10
C21
A   11
C22
A   12
C24
A   13
C1
A   14
O1
A   15
C2
A   16
N2
A   17
C3
A   18
C9
A   19
C16
A   20
C18
A   21
C19
A   22
C23
A   23
C25
A   24
C10
A   25
C13
A   26
C15
A   27
CL1
A   28
CL2
A   29
C11
A   30
C12
A   31
C14
M  END
