3S9T_E49_A_266
     RDKit          3D

 37 38  0  0  0  0  0  0  0  0999 V2000
   -0.7740    4.7670   10.2150 N   0  0  0  0  0  0  0  0  0  0  0  0
   -1.5170    4.1500   11.1130 C   0  0  0  0  0  0  0  0  0  0  0  0
   -1.8890    4.7280   12.2580 N   0  0  0  0  0  0  0  0  0  0  0  0
   -1.6290    6.0190   12.5240 C   0  0  0  0  0  0  0  0  0  0  0  0
   -0.8950    6.7040   11.5700 C   0  0  0  0  0  0  0  0  0  0  0  0
   -0.4370    6.0630   10.4120 C   0  0  0  0  0  0  0  0  0  0  0  0
   -1.9310    2.5010   10.7070 S   0  0  0  0  0  0  0  0  0  0  0  0
   -3.0800    1.9640   12.0540 C   0  0  0  0  0  0  0  0  0  0  0  0
   -4.2280    2.9630   12.2230 C   0  0  0  0  0  0  0  0  0  0  0  0
   -4.6780    3.6070   11.2120 O   0  0  0  0  0  0  0  0  0  0  0  0
   -2.1700    6.7310   13.7960 C   0  0  0  0  0  0  0  0  0  0  0  0
    0.4060    6.7420    9.4440 C   0  0  0  0  0  0  0  0  0  0  0  0
   -4.8440    3.1210   13.5860 C   0  0  0  0  0  0  0  0  0  0  0  0
   -5.0590    2.0850   14.4560 C   0  0  0  0  0  0  0  0  0  0  0  0
   -5.6360    2.2760   15.6370 C   0  0  0  0  0  0  0  0  0  0  0  0
   -6.1970    3.4920   15.9250 C   0  0  0  0  0  0  0  0  0  0  0  0
   -5.9330    4.6360   15.1350 C   0  0  0  0  0  0  0  0  0  0  0  0
   -5.4280    4.3590   13.9570 C   0  0  0  0  0  0  0  0  0  0  0  0
   -5.9540    0.8350   16.6890 S   0  0  0  0  0  0  0  0  0  0  0  0
   -7.4580    0.7840   16.7220 O   0  0  0  0  0  0  0  0  0  0  0  0
   -5.3560    1.0460   17.9540 O   0  0  0  0  0  0  0  0  0  0  0  0
   -5.2970   -0.5060   16.0580 N   0  0  0  0  0  0  0  0  0  0  0  0
   -6.8490    3.8180   17.4580 Cl  0  0  0  0  0  0  0  0  0  0  0  0
   -0.6680    7.7692   11.7243 H   0  0  0  0  0  0  0  0  0  0  0  0
   -3.4954    0.9773   11.8011 H   0  0  0  0  0  0  0  0  0  0  0  0
   -2.5165    1.9131   12.9973 H   0  0  0  0  0  0  0  0  0  0  0  0
   -1.7843    6.2234   14.6924 H   0  0  0  0  0  0  0  0  0  0  0  0
   -1.8391    7.7800   13.7977 H   0  0  0  0  0  0  0  0  0  0  0  0
   -3.2694    6.6933   13.7977 H   0  0  0  0  0  0  0  0  0  0  0  0
    1.1573    7.3471    9.9726 H   0  0  0  0  0  0  0  0  0  0  0  0
    0.9131    5.9972    8.8130 H   0  0  0  0  0  0  0  0  0  0  0  0
   -0.2137    7.3961    8.8130 H   0  0  0  0  0  0  0  0  0  0  0  0
   -4.7461    1.0701   14.1696 H   0  0  0  0  0  0  0  0  0  0  0  0
   -6.1328    5.6621   15.4773 H   0  0  0  0  0  0  0  0  0  0  0  0
   -5.4599    5.1513   13.1946 H   0  0  0  0  0  0  0  0  0  0  0  0
   -4.9916   -1.1294   16.8189 H   0  0  0  0  0  0  0  0  0  0  0  0
   -5.9962   -0.9903   15.4771 H   0  0  0  0  0  0  0  0  0  0  0  0
  1  6  2  0
  1  2  1  0
  2  3  2  0
  3  4  1  0
  4 11  1  0
  5  4  2  0
  6  5  1  0
  7  2  1  0
  7  8  1  0
  8  9  1  0
  9 13  1  0
 10  9  2  0
 12  6  1  0
 13 18  1  0
 13 14  2  0
 14 15  1  0
 15 16  2  0
 15 19  1  0
 17 16  1  0
 18 17  2  0
 19 20  2  0
 19 21  2  0
 22 19  1  0
 16 23  1  0
  5 24  1  0
  8 25  1  0
  8 26  1  0
 11 27  1  0
 11 28  1  0
 11 29  1  0
 12 30  1  0
 12 31  1  0
 12 32  1  0
 14 33  1  0
 17 34  1  0
 18 35  1  0
 22 36  1  0
 22 37  1  0
A    1
N1
A    2
C2
A    3
N3
A    4
C4
A    5
C5
A    6
C6
A    7
S7
A    8
C8
A    9
C9
A   10
O10
A   11
C11
A   12
C12
A   13
C13
A   14
C14
A   15
C15
A   16
C16
A   17
C17
A   18
C18
A   19
S19
A   20
O20
A   21
O22
A   22
N23
A   23
CL21
M  END
