3SA0_NRA_A_361
     RDKit          3D

 27 29  0  0  0  0  0  0  0  0999 V2000
  -14.8870   11.6290   40.0970 C   0  0  0  0  0  0  0  0  0  0  0  0
  -17.1270   11.0260   40.8280 C   0  0  0  0  0  0  0  0  0  0  0  0
  -17.2380   12.3330   41.4310 C   0  0  0  0  0  0  0  0  0  0  0  0
  -14.7260   18.7340   43.0710 O   0  0  0  0  0  0  0  0  0  0  0  0
  -14.5420   17.5210   42.4500 C   0  0  0  0  0  0  0  0  0  0  0  0
  -13.3310   17.2240   41.7980 C   0  0  0  0  0  0  0  0  0  0  0  0
  -13.1440   15.9790   41.1850 C   0  0  0  0  0  0  0  0  0  0  0  0
  -11.9580   15.6770   40.5560 O   0  0  0  0  0  0  0  0  0  0  0  0
  -14.1550   15.0400   41.2220 C   0  0  0  0  0  0  0  0  0  0  0  0
  -13.9820   13.8480   40.6360 C   0  0  0  0  0  0  0  0  0  0  0  0
  -12.9250   13.6110   40.0480 O   0  0  0  0  0  0  0  0  0  0  0  0
  -15.0190   12.8920   40.6890 C   0  0  0  0  0  0  0  0  0  0  0  0
  -16.0180   10.6970   40.1990 C   0  0  0  0  0  0  0  0  0  0  0  0
  -15.9360    9.4510   39.6650 O   0  0  0  0  0  0  0  0  0  0  0  0
  -18.2080   10.1840   40.8810 O   0  0  0  0  0  0  0  0  0  0  0  0
  -16.1800   13.2140   41.3420 C   0  0  0  0  0  0  0  0  0  0  0  0
  -16.3400   14.4700   41.9420 O   0  0  0  0  0  0  0  0  0  0  0  0
  -15.3790   15.3500   41.8920 C   0  0  0  0  0  0  0  0  0  0  0  0
  -15.5620   16.5770   42.4930 C   0  0  0  0  0  0  0  0  0  0  0  0
  -13.9638   11.3437   39.5714 H   0  0  0  0  0  0  0  0  0  0  0  0
  -18.1590   12.6242   41.9573 H   0  0  0  0  0  0  0  0  0  0  0  0
  -14.7342   18.7878   44.0595 H   0  0  0  0  0  0  0  0  0  0  0  0
  -12.5268   17.9739   41.7697 H   0  0  0  0  0  0  0  0  0  0  0  0
  -11.1516   15.4717   41.0923 H   0  0  0  0  0  0  0  0  0  0  0  0
  -15.8840    8.6605   40.2587 H   0  0  0  0  0  0  0  0  0  0  0  0
  -18.5721    9.9004   41.7569 H   0  0  0  0  0  0  0  0  0  0  0  0
  -16.5088   16.8078   43.0033 H   0  0  0  0  0  0  0  0  0  0  0  0
  1 13  2  0
  1 12  1  0
 13  2  1  0
  2 15  1  0
  2  3  2  0
 16  3  1  0
  5  4  1  0
  6  5  2  0
  5 19  1  0
  7  6  1  0
  8  7  1  0
  7  9  2  0
 10  9  1  0
  9 18  1  0
 11 10  2  0
 10 12  1  0
 12 16  2  0
 14 13  1  0
 16 17  1  0
 18 17  1  0
 18 19  2  0
  1 20  1  0
  3 21  1  0
  4 22  1  0
  6 23  1  0
  8 24  1  0
 14 25  1  0
 15 26  1  0
 19 27  1  0
A    1
C10
A    2
C13
A    3
C15
A    4
O01
A    5
C02
A    6
C03
A    7
C04
A    8
O05
A    9
C06
A   10
C07
A   11
O08
A   12
C09
A   13
C11
A   14
O12
A   15
O14
A   16
C16
A   17
O17
A   18
C18
A   19
C19
M  END
