3SA4_F72_B_200
     RDKit          3D

 76 80  0  0  0  0  0  0  0  0999 V2000
   21.4510   28.7090   12.7260 C   0  0  0  0  0  0  0  0  0  0  0  0
   21.6200   29.8410   12.3270 O   0  0  0  0  0  0  0  0  0  0  0  0
   22.1610   27.6250   12.0080 C   0  0  0  0  0  0  0  0  0  0  0  0
   23.5060   27.7570   11.7370 C   0  0  0  0  0  0  0  0  0  0  0  0
   24.1430   26.7250   11.0530 C   0  0  0  0  0  0  0  0  0  0  0  0
   23.4650   25.5730   10.6620 C   0  0  0  0  0  0  0  0  0  0  0  0
   22.1150   25.4400   10.9590 C   0  0  0  0  0  0  0  0  0  0  0  0
   21.4710   26.4740   11.6220 C   0  0  0  0  0  0  0  0  0  0  0  0
   25.4560   26.8450   10.7590 O   0  0  0  0  0  0  0  0  0  0  0  0
   23.3510   34.0470   17.1210 C   0  0  0  0  0  0  0  0  0  0  0  0
   19.2330   31.8730   15.6330 N   0  0  0  0  0  0  0  0  0  0  0  0
   19.7320   32.8200   16.6440 C   0  0  0  0  0  0  0  0  0  0  0  0
   21.0940   33.3260   16.2360 C   0  0  0  0  0  0  0  0  0  0  0  0
   21.9970   32.2300   15.7000 C   0  0  0  0  0  0  0  0  0  0  0  0
   21.8420   34.0890   17.3210 C   0  0  0  0  0  0  0  0  0  0  0  0
   18.9410   30.5530   16.2350 C   0  0  0  0  0  0  0  0  0  0  0  0
   19.9340   29.5270   15.6990 C   0  0  0  0  0  0  0  0  0  0  0  0
   23.8210   33.9200   15.6660 C   0  0  0  0  0  0  0  0  0  0  0  0
   19.9880   28.3710   16.5300 O   0  0  0  0  0  0  0  0  0  0  0  0
   19.5810   29.1440   14.2730 C   0  0  0  0  0  0  0  0  0  0  0  0
   22.9440   32.9960   14.8170 C   0  0  0  0  0  0  0  0  0  0  0  0
   20.6380   28.3400   13.7040 N   0  0  0  0  0  0  0  0  0  0  0  0
   18.2510   28.3900   14.1680 C   0  0  0  0  0  0  0  0  0  0  0  0
   18.2170   26.7510   12.2650 C   0  0  0  0  0  0  0  0  0  0  0  0
   18.0100   26.3960   10.9280 C   0  0  0  0  0  0  0  0  0  0  0  0
   17.5700   27.3560   10.0220 C   0  0  0  0  0  0  0  0  0  0  0  0
   17.3560   28.6550   10.4620 C   0  0  0  0  0  0  0  0  0  0  0  0
   17.5570   29.0000   11.7980 C   0  0  0  0  0  0  0  0  0  0  0  0
   17.9930   28.0490   12.7100 C   0  0  0  0  0  0  0  0  0  0  0  0
   15.2230   36.7530   18.5550 C   0  0  0  0  0  0  0  0  0  0  0  0
   14.8340   35.4720   18.6310 N   0  0  0  0  0  0  0  0  0  0  0  0
   16.4670   37.0770   17.3850 S   0  0  0  0  0  0  0  0  0  0  0  0
   15.4700   34.6640   17.7610 C   0  0  0  0  0  0  0  0  0  0  0  0
   16.4080   35.4000   17.0400 C   0  0  0  0  0  0  0  0  0  0  0  0
   17.1980   34.7180   16.0950 C   0  0  0  0  0  0  0  0  0  0  0  0
   17.0430   33.3280   15.8540 C   0  0  0  0  0  0  0  0  0  0  0  0
   16.1010   32.6370   16.6190 C   0  0  0  0  0  0  0  0  0  0  0  0
   15.3280   33.2970   17.5630 C   0  0  0  0  0  0  0  0  0  0  0  0
   17.9770   32.4800   14.8240 S   0  0  0  0  0  0  0  0  0  0  0  0
   18.5230   33.3600   13.8450 O   0  0  0  0  0  0  0  0  0  0  0  0
   17.2800   31.4260   14.2360 O   0  0  0  0  0  0  0  0  0  0  0  0
   24.0608   28.6529   12.0524 H   0  0  0  0  0  0  0  0  0  0  0  0
   23.9949   24.7745   10.1220 H   0  0  0  0  0  0  0  0  0  0  0  0
   21.5661   24.5305   10.6734 H   0  0  0  0  0  0  0  0  0  0  0  0
   20.3980   26.3859   11.8477 H   0  0  0  0  0  0  0  0  0  0  0  0
   26.1230   26.9060   11.4881 H   0  0  0  0  0  0  0  0  0  0  0  0
   23.7736   34.9749   17.5339 H   0  0  0  0  0  0  0  0  0  0  0  0
   23.6981   33.1363   17.6311 H   0  0  0  0  0  0  0  0  0  0  0  0
   19.0361   33.6679   16.7262 H   0  0  0  0  0  0  0  0  0  0  0  0
   19.8080   32.3101   17.6157 H   0  0  0  0  0  0  0  0  0  0  0  0
   20.8592   34.0375   15.4306 H   0  0  0  0  0  0  0  0  0  0  0  0
   22.5345   31.7230   16.5149 H   0  0  0  0  0  0  0  0  0  0  0  0
   21.4542   31.4308   15.1740 H   0  0  0  0  0  0  0  0  0  0  0  0
   21.6019   33.6423   18.2971 H   0  0  0  0  0  0  0  0  0  0  0  0
   21.5251   35.1412   17.2720 H   0  0  0  0  0  0  0  0  0  0  0  0
   19.0344   30.6188   17.3291 H   0  0  0  0  0  0  0  0  0  0  0  0
   17.9168   30.2468   15.9756 H   0  0  0  0  0  0  0  0  0  0  0  0
   20.9325   29.9886   15.7044 H   0  0  0  0  0  0  0  0  0  0  0  0
   23.8149   34.9210   15.2100 H   0  0  0  0  0  0  0  0  0  0  0  0
   24.8276   33.4772   15.6897 H   0  0  0  0  0  0  0  0  0  0  0  0
   19.9751   28.6471   17.4806 H   0  0  0  0  0  0  0  0  0  0  0  0
   19.4676   30.0826   13.7107 H   0  0  0  0  0  0  0  0  0  0  0  0
   23.5839   32.2886   14.2692 H   0  0  0  0  0  0  0  0  0  0  0  0
   22.3637   33.6023   14.1059 H   0  0  0  0  0  0  0  0  0  0  0  0
   20.7710   27.3959   14.0937 H   0  0  0  0  0  0  0  0  0  0  0  0
   18.3034   27.4644   14.7601 H   0  0  0  0  0  0  0  0  0  0  0  0
   17.4347   29.0181   14.5542 H   0  0  0  0  0  0  0  0  0  0  0  0
   18.5637   25.9886   12.9781 H   0  0  0  0  0  0  0  0  0  0  0  0
   18.1940   25.3640   10.5948 H   0  0  0  0  0  0  0  0  0  0  0  0
   17.3938   27.0887    8.9696 H   0  0  0  0  0  0  0  0  0  0  0  0
   17.0235   29.4223    9.7474 H   0  0  0  0  0  0  0  0  0  0  0  0
   17.3690   30.0314   12.1309 H   0  0  0  0  0  0  0  0  0  0  0  0
   14.7869   37.5409   19.1867 H   0  0  0  0  0  0  0  0  0  0  0  0
   17.9562   35.2779   15.5279 H   0  0  0  0  0  0  0  0  0  0  0  0
   15.9702   31.5549   16.4711 H   0  0  0  0  0  0  0  0  0  0  0  0
   14.5963   32.7326   18.1598 H   0  0  0  0  0  0  0  0  0  0  0  0
 30 31  2  0
 30 32  1  0
 31 33  1  0
 32 34  1  0
 33 34  2  0
 33 38  1  0
 34 35  1  0
 35 36  2  0
 36 37  1  0
 36 39  1  0
 37 38  2  0
 39 40  2  0
 39 41  2  0
 39 11  1  0
 10 15  1  0
 10 18  1  0
 11 12  1  0
 11 16  1  0
 12 13  1  0
 13 14  1  0
 13 15  1  0
 14 21  1  0
 16 17  1  0
 17 19  1  0
 17 20  1  0
 18 21  1  0
 20 22  1  0
 20 23  1  0
 22  1  1  0
  1  3  1  0
  1  2  2  0
  3  8  1  0
  3  4  2  0
  8  7  2  0
  7  6  1  0
  6  5  2  0
  5  4  1  0
  5  9  1  0
 23 29  1  0
 24 25  2  0
 24 29  1  0
 25 26  1  0
 26 27  2  0
 27 28  1  0
 28 29  2  0
  4 42  1  0
  6 43  1  0
  7 44  1  0
  8 45  1  0
  9 46  1  0
 10 47  1  0
 10 48  1  0
 12 49  1  0
 12 50  1  0
 13 51  1  0
 14 52  1  0
 14 53  1  0
 15 54  1  0
 15 55  1  0
 16 56  1  0
 16 57  1  0
 17 58  1  0
 18 59  1  0
 18 60  1  0
 19 61  1  0
 20 62  1  0
 21 63  1  0
 21 64  1  0
 22 65  1  0
 23 66  1  0
 23 67  1  0
 24 68  1  0
 25 69  1  0
 26 70  1  0
 27 71  1  0
 28 72  1  0
 30 73  1  0
 35 74  1  0
 37 75  1  0
 38 76  1  0
A    1
C21
A    2
O22
A    3
C22
A    4
C27
A    5
C26
A    6
C25
A    7
C24
A    8
C23
A    9
O27
A   10
C11
A   11
N11
A   12
C12
A   13
C13
A   14
C14
A   15
C15
A   16
C16
A   17
C17
A   18
C18
A   19
O18
A   20
C19
A   21
C20
A   22
N20
A   23
C32
A   24
C33
A   25
C34
A   26
C35
A   27
C36
A   28
C37
A   29
C38
A   30
C1
A   31
N1
A   32
S1
A   33
C2
A   34
C3
A   35
C4
A   36
C5
A   37
C6
A   38
C7
A   39
S8
A   40
O9
A   41
O10
M  END
