3SA6_F71_B_200
     RDKit          3D

 73 76  0  0  0  0  0  0  0  0999 V2000
   21.2320   28.9730   12.6220 C   0  0  0  0  0  0  0  0  0  0  0  0
   21.2800   30.1140   12.2060 O   0  0  0  0  0  0  0  0  0  0  0  0
   21.9710   27.8790   11.9140 C   0  0  0  0  0  0  0  0  0  0  0  0
   23.3120   27.9910   11.6780 C   0  0  0  0  0  0  0  0  0  0  0  0
   23.9790   26.9550   11.0240 C   0  0  0  0  0  0  0  0  0  0  0  0
   23.3040   25.7970   10.6270 C   0  0  0  0  0  0  0  0  0  0  0  0
   21.9390   25.6770   10.8810 C   0  0  0  0  0  0  0  0  0  0  0  0
   21.2820   26.7260   11.5210 C   0  0  0  0  0  0  0  0  0  0  0  0
   25.3060   27.0950   10.7940 O   0  0  0  0  0  0  0  0  0  0  0  0
   19.1890   32.0550   15.5650 N   0  0  0  0  0  0  0  0  0  0  0  0
   19.9340   33.0530   16.3890 C   0  0  0  0  0  0  0  0  0  0  0  0
   21.4420   32.7640   16.3930 C   0  0  0  0  0  0  0  0  0  0  0  0
   22.0680   32.7730   14.9900 C   0  0  0  0  0  0  0  0  0  0  0  0
   22.1560   33.7380   17.3210 C   0  0  0  0  0  0  0  0  0  0  0  0
   18.9500   30.7810   16.2760 C   0  0  0  0  0  0  0  0  0  0  0  0
   19.8420   29.6920   15.6600 C   0  0  0  0  0  0  0  0  0  0  0  0
   22.0220   35.1840   16.9090 C   0  0  0  0  0  0  0  0  0  0  0  0
   19.8230   28.5110   16.4750 O   0  0  0  0  0  0  0  0  0  0  0  0
   19.4340   29.3520   14.2310 C   0  0  0  0  0  0  0  0  0  0  0  0
   20.4840   28.5650   13.6370 N   0  0  0  0  0  0  0  0  0  0  0  0
   18.1390   28.5270   14.1080 C   0  0  0  0  0  0  0  0  0  0  0  0
   17.9890   26.9350   12.1400 C   0  0  0  0  0  0  0  0  0  0  0  0
   17.7310   26.6520   10.7940 C   0  0  0  0  0  0  0  0  0  0  0  0
   17.3210   27.6640    9.9360 C   0  0  0  0  0  0  0  0  0  0  0  0
   17.1570   28.9550   10.4270 C   0  0  0  0  0  0  0  0  0  0  0  0
   17.4210   29.2380   11.7700 C   0  0  0  0  0  0  0  0  0  0  0  0
   17.8410   28.2360   12.6380 C   0  0  0  0  0  0  0  0  0  0  0  0
   15.0720   38.1610   18.9940 C   0  0  0  0  0  0  0  0  0  0  0  0
   14.0800   37.4070   19.5610 N   0  0  0  0  0  0  0  0  0  0  0  0
   14.1910   36.1710   19.0420 O   0  0  0  0  0  0  0  0  0  0  0  0
   17.0200   35.1420   16.2790 S   0  0  0  0  0  0  0  0  0  0  0  0
   15.6840   34.9590   17.3680 C   0  0  0  0  0  0  0  0  0  0  0  0
   15.2170   36.1480   18.1530 C   0  0  0  0  0  0  0  0  0  0  0  0
   15.8180   37.3840   18.1060 C   0  0  0  0  0  0  0  0  0  0  0  0
   16.8180   33.4480   15.9050 C   0  0  0  0  0  0  0  0  0  0  0  0
   15.7900   32.8060   16.5910 C   0  0  0  0  0  0  0  0  0  0  0  0
   15.1120   33.6940   17.4470 C   0  0  0  0  0  0  0  0  0  0  0  0
   17.8510   32.6630   14.8310 S   0  0  0  0  0  0  0  0  0  0  0  0
   17.2020   31.5740   14.2100 O   0  0  0  0  0  0  0  0  0  0  0  0
   18.3450   33.6470   13.9070 O   0  0  0  0  0  0  0  0  0  0  0  0
   23.8600   28.8887   12.0003 H   0  0  0  0  0  0  0  0  0  0  0  0
   23.8462   24.9866   10.1179 H   0  0  0  0  0  0  0  0  0  0  0  0
   21.3907   24.7715   10.5820 H   0  0  0  0  0  0  0  0  0  0  0  0
   20.2032   26.6465   11.7208 H   0  0  0  0  0  0  0  0  0  0  0  0
   25.9359   27.1615   11.5548 H   0  0  0  0  0  0  0  0  0  0  0  0
   19.7634   34.0576   15.9747 H   0  0  0  0  0  0  0  0  0  0  0  0
   19.5671   32.9896   17.4241 H   0  0  0  0  0  0  0  0  0  0  0  0
   21.5722   31.7388   16.7699 H   0  0  0  0  0  0  0  0  0  0  0  0
   23.1644   32.7888   15.0778 H   0  0  0  0  0  0  0  0  0  0  0  0
   21.7568   31.8703   14.4438 H   0  0  0  0  0  0  0  0  0  0  0  0
   21.7310   33.6664   14.4438 H   0  0  0  0  0  0  0  0  0  0  0  0
   21.7358   33.6252   18.3313 H   0  0  0  0  0  0  0  0  0  0  0  0
   23.2273   33.4918   17.2797 H   0  0  0  0  0  0  0  0  0  0  0  0
   19.1962   30.9009   17.3414 H   0  0  0  0  0  0  0  0  0  0  0  0
   17.8923   30.4941   16.1811 H   0  0  0  0  0  0  0  0  0  0  0  0
   20.8657   30.0928   15.6226 H   0  0  0  0  0  0  0  0  0  0  0  0
   21.9633   35.8171   17.8066 H   0  0  0  0  0  0  0  0  0  0  0  0
   22.8968   35.4772   16.3101 H   0  0  0  0  0  0  0  0  0  0  0  0
   21.1082   35.3114   16.3101 H   0  0  0  0  0  0  0  0  0  0  0  0
   19.8272   28.7694   17.4307 H   0  0  0  0  0  0  0  0  0  0  0  0
   19.2590   30.3162   13.7313 H   0  0  0  0  0  0  0  0  0  0  0  0
   20.6645   27.6280   14.0248 H   0  0  0  0  0  0  0  0  0  0  0  0
   18.2595   27.5774   14.6500 H   0  0  0  0  0  0  0  0  0  0  0  0
   17.3044   29.0997   14.5386 H   0  0  0  0  0  0  0  0  0  0  0  0
   18.3113   26.1276   12.8139 H   0  0  0  0  0  0  0  0  0  0  0  0
   17.8531   25.6266   10.4151 H   0  0  0  0  0  0  0  0  0  0  0  0
   17.1273   27.4461    8.8753 H   0  0  0  0  0  0  0  0  0  0  0  0
   16.8179   29.7572    9.7550 H   0  0  0  0  0  0  0  0  0  0  0  0
   17.2952   30.2646   12.1445 H   0  0  0  0  0  0  0  0  0  0  0  0
   15.2547   39.2246   19.2071 H   0  0  0  0  0  0  0  0  0  0  0  0
   16.6876   37.6903   17.5060 H   0  0  0  0  0  0  0  0  0  0  0  0
   15.5398   31.7408   16.4782 H   0  0  0  0  0  0  0  0  0  0  0  0
   14.2561   33.4268   18.0843 H   0  0  0  0  0  0  0  0  0  0  0  0
 28 29  2  0
 28 34  1  0
 29 30  1  0
 30 33  1  0
 31 32  1  0
 31 35  1  0
 32 33  1  0
 32 37  2  0
 33 34  2  0
 35 36  2  0
 35 38  1  0
 36 37  1  0
 38 39  2  0
 38 40  2  0
 38 10  1  0
 10 11  1  0
 10 15  1  0
 11 12  1  0
 12 13  1  0
 12 14  1  0
 14 17  1  0
 15 16  1  0
 16 18  1  0
 16 19  1  0
 19 20  1  0
 19 21  1  0
 20  1  1  0
  1  3  1  0
  1  2  2  0
  3  8  1  0
  3  4  2  0
  8  7  2  0
  7  6  1  0
  6  5  2  0
  5  4  1  0
  5  9  1  0
 21 27  1  0
 22 23  2  0
 22 27  1  0
 23 24  1  0
 24 25  2  0
 25 26  1  0
 26 27  2  0
  4 41  1  0
  6 42  1  0
  7 43  1  0
  8 44  1  0
  9 45  1  0
 11 46  1  0
 11 47  1  0
 12 48  1  0
 13 49  1  0
 13 50  1  0
 13 51  1  0
 14 52  1  0
 14 53  1  0
 15 54  1  0
 15 55  1  0
 16 56  1  0
 17 57  1  0
 17 58  1  0
 17 59  1  0
 18 60  1  0
 19 61  1  0
 20 62  1  0
 21 63  1  0
 21 64  1  0
 22 65  1  0
 23 66  1  0
 24 67  1  0
 25 68  1  0
 26 69  1  0
 28 70  1  0
 34 71  1  0
 36 72  1  0
 37 73  1  0
A    1
C21
A    2
O22
A    3
C22
A    4
C27
A    5
C26
A    6
C25
A    7
C24
A    8
C23
A    9
O27
A   10
N11
A   11
C12
A   12
C13
A   13
C14
A   14
C15
A   15
C16
A   16
C17
A   17
C18
A   18
O18
A   19
C19
A   20
N20
A   21
C32
A   22
C33
A   23
C34
A   24
C35
A   25
C36
A   26
C37
A   27
C38
A   28
C1
A   29
N1
A   30
O1
A   31
S1
A   32
C2
A   33
C3
A   34
C4
A   35
C5
A   36
C6
A   37
C7
A   38
S8
A   39
O9
A   40
O10
M  END
