3SAP_E2I_A_266
     RDKit          3D

 43 44  0  0  0  0  0  0  0  0999 V2000
   -0.5030    8.7320   14.8530 N   0  0  0  0  0  0  0  0  0  0  0  0
    0.1480    9.7390   15.3690 C   0  0  0  0  0  0  0  0  0  0  0  0
    0.1890   11.0140   14.8470 C   0  0  0  0  0  0  0  0  0  0  0  0
   -0.5150   11.2910   13.6640 C   0  0  0  0  0  0  0  0  0  0  0  0
   -1.1690   10.2110   13.1710 N   0  0  0  0  0  0  0  0  0  0  0  0
   -1.1330    8.9760   13.7890 C   0  0  0  0  0  0  0  0  0  0  0  0
    1.0150   11.9230   15.6620 C   0  0  0  0  0  0  0  0  0  0  0  0
    2.4780   11.5550   15.2910 C   0  0  0  0  0  0  0  0  0  0  0  0
    3.4690   11.8180   16.4250 C   0  0  0  0  0  0  0  0  0  0  0  0
    3.8980   10.5430   17.1850 C   0  0  0  0  0  0  0  0  0  0  0  0
   -1.9390    7.5770   13.1770 S   0  0  0  0  0  0  0  0  0  0  0  0
   -2.0780    5.8720   13.7480 C   0  0  0  0  0  0  0  0  0  0  0  0
   -3.5400    5.4540   13.5820 C   0  0  0  0  0  0  0  0  0  0  0  0
   -4.2870    6.0380   12.7900 O   0  0  0  0  0  0  0  0  0  0  0  0
   -4.1460    4.3250   14.3680 C   0  0  0  0  0  0  0  0  0  0  0  0
   -5.5220    4.2950   14.6170 C   0  0  0  0  0  0  0  0  0  0  0  0
   -6.0260    3.2000   15.3590 C   0  0  0  0  0  0  0  0  0  0  0  0
   -5.1990    2.2010   15.8480 C   0  0  0  0  0  0  0  0  0  0  0  0
   -3.8460    2.2420   15.5920 C   0  0  0  0  0  0  0  0  0  0  0  0
   -3.3150    3.3020   14.8470 C   0  0  0  0  0  0  0  0  0  0  0  0
   -5.8530    0.8040   16.7700 S   0  0  0  0  0  0  0  0  0  0  0  0
   -5.3050    0.9610   18.1290 O   0  0  0  0  0  0  0  0  0  0  0  0
   -7.3140    0.9010   16.6260 O   0  0  0  0  0  0  0  0  0  0  0  0
   -5.1390   -0.5220   15.9850 N   0  0  0  0  0  0  0  0  0  0  0  0
    0.7100    9.5549   16.2965 H   0  0  0  0  0  0  0  0  0  0  0  0
   -0.5338   12.2819   13.1868 H   0  0  0  0  0  0  0  0  0  0  0  0
    0.8022   12.9725   15.4107 H   0  0  0  0  0  0  0  0  0  0  0  0
    0.8167   11.8168   16.7388 H   0  0  0  0  0  0  0  0  0  0  0  0
    2.5156   10.4861   15.0342 H   0  0  0  0  0  0  0  0  0  0  0  0
    2.7718   12.1929   14.4444 H   0  0  0  0  0  0  0  0  0  0  0  0
    4.3681   12.2868   15.9984 H   0  0  0  0  0  0  0  0  0  0  0  0
    2.9601   12.4686   17.1514 H   0  0  0  0  0  0  0  0  0  0  0  0
    3.8371   10.7239   18.2683 H   0  0  0  0  0  0  0  0  0  0  0  0
    3.2299    9.7123   16.9139 H   0  0  0  0  0  0  0  0  0  0  0  0
    4.9324   10.2851   16.9139 H   0  0  0  0  0  0  0  0  0  0  0  0
   -1.4292    5.2193   13.1455 H   0  0  0  0  0  0  0  0  0  0  0  0
   -1.7658    5.7869   14.7993 H   0  0  0  0  0  0  0  0  0  0  0  0
   -6.1866    5.0913   14.2505 H   0  0  0  0  0  0  0  0  0  0  0  0
   -7.1070    3.1401   15.5535 H   0  0  0  0  0  0  0  0  0  0  0  0
   -3.1868    1.4469   15.9705 H   0  0  0  0  0  0  0  0  0  0  0  0
   -2.2360    3.3326   14.6355 H   0  0  0  0  0  0  0  0  0  0  0  0
   -4.7819   -1.1853   16.6874 H   0  0  0  0  0  0  0  0  0  0  0  0
   -5.8415   -0.9912   15.3957 H   0  0  0  0  0  0  0  0  0  0  0  0
  6  1  2  0
  1  2  1  0
  3  2  2  0
  4  3  1  0
  3  7  1  0
  5  4  2  0
  5  6  1  0
 11  6  1  0
  8  7  1  0
  8  9  1  0
  9 10  1  0
 11 12  1  0
 13 12  1  0
 14 13  2  0
 13 15  1  0
 15 16  2  0
 15 20  1  0
 16 17  1  0
 17 18  2  0
 19 18  1  0
 18 21  1  0
 20 19  2  0
 24 21  1  0
 23 21  2  0
 21 22  2  0
  2 25  1  0
  4 26  1  0
  7 27  1  0
  7 28  1  0
  8 29  1  0
  8 30  1  0
  9 31  1  0
  9 32  1  0
 10 33  1  0
 10 34  1  0
 10 35  1  0
 12 36  1  0
 12 37  1  0
 16 38  1  0
 17 39  1  0
 19 40  1  0
 20 41  1  0
 24 42  1  0
 24 43  1  0
A    1
N1
A    2
C2
A    3
C3
A    4
C4
A    5
N5
A    6
C6
A    7
C13
A    8
C15
A    9
C17
A   10
C19
A   11
S21
A   12
C23
A   13
C25
A   14
O27
A   15
C29
A   16
C31
A   17
C32
A   18
C33
A   19
C34
A   20
C35
A   21
S42
A   22
O44
A   23
O46
A   24
N48
M  END
