3SAX_E50_A_263
     RDKit          3D

 37 38  0  0  0  0  0  0  0  0999 V2000
   -0.4910    4.8960   11.1950 N   0  0  0  0  0  0  0  0  0  0  0  0
   -1.4110    4.1500   11.7850 C   0  0  0  0  0  0  0  0  0  0  0  0
   -2.0900    4.5660   12.8890 N   0  0  0  0  0  0  0  0  0  0  0  0
   -1.8940    5.8070   13.4560 C   0  0  0  0  0  0  0  0  0  0  0  0
   -0.9270    6.6330   12.8910 C   0  0  0  0  0  0  0  0  0  0  0  0
   -0.2560    6.1370   11.7460 C   0  0  0  0  0  0  0  0  0  0  0  0
   -1.7110    2.5940   11.0480 S   0  0  0  0  0  0  0  0  0  0  0  0
   -2.9990    1.9780   12.1560 C   0  0  0  0  0  0  0  0  0  0  0  0
   -4.1790    2.9210   12.2730 C   0  0  0  0  0  0  0  0  0  0  0  0
   -4.5440    3.5820   11.2440 O   0  0  0  0  0  0  0  0  0  0  0  0
   -0.5940    8.0310   13.4070 C   0  0  0  0  0  0  0  0  0  0  0  0
   -1.2990    8.3380   14.7670 C   0  0  0  0  0  0  0  0  0  0  0  0
   -4.8570    3.0830   13.6290 C   0  0  0  0  0  0  0  0  0  0  0  0
   -4.9810    2.0570   14.5510 C   0  0  0  0  0  0  0  0  0  0  0  0
   -5.6200    2.2540   15.7720 C   0  0  0  0  0  0  0  0  0  0  0  0
   -6.0780    3.5460   16.0670 C   0  0  0  0  0  0  0  0  0  0  0  0
   -5.9080    4.5950   15.2060 C   0  0  0  0  0  0  0  0  0  0  0  0
   -5.3010    4.3680   13.9620 C   0  0  0  0  0  0  0  0  0  0  0  0
   -5.9820    0.8130   16.8060 S   0  0  0  0  0  0  0  0  0  0  0  0
   -5.3400    1.0550   18.0790 O   0  0  0  0  0  0  0  0  0  0  0  0
   -6.8510    3.8100   17.5760 Cl  0  0  0  0  0  0  0  0  0  0  0  0
   -7.4370    0.7700   16.7900 O   0  0  0  0  0  0  0  0  0  0  0  0
   -5.4280   -0.4780   16.0830 N   0  0  0  0  0  0  0  0  0  0  0  0
   -2.4824    6.1336   14.3261 H   0  0  0  0  0  0  0  0  0  0  0  0
    0.4973    6.7808   11.2685 H   0  0  0  0  0  0  0  0  0  0  0  0
   -3.3589    1.0119   11.7725 H   0  0  0  0  0  0  0  0  0  0  0  0
   -2.5538    1.8818   13.1573 H   0  0  0  0  0  0  0  0  0  0  0  0
    0.4944    8.1079   13.5462 H   0  0  0  0  0  0  0  0  0  0  0  0
   -0.9537    8.7604   12.6664 H   0  0  0  0  0  0  0  0  0  0  0  0
   -0.6367    8.0496   15.5966 H   0  0  0  0  0  0  0  0  0  0  0  0
   -1.5197    9.4137   14.8310 H   0  0  0  0  0  0  0  0  0  0  0  0
   -2.2369    7.7668   14.8310 H   0  0  0  0  0  0  0  0  0  0  0  0
   -4.5661    1.0663   14.3137 H   0  0  0  0  0  0  0  0  0  0  0  0
   -6.2433    5.6046   15.4857 H   0  0  0  0  0  0  0  0  0  0  0  0
   -5.1743    5.1972   13.2504 H   0  0  0  0  0  0  0  0  0  0  0  0
   -5.1324   -1.1669   16.7893 H   0  0  0  0  0  0  0  0  0  0  0  0
   -6.1681   -0.8860   15.4942 H   0  0  0  0  0  0  0  0  0  0  0  0
  1  6  2  0
  1  2  1  0
  7  2  1  0
  2  3  2  0
  3  4  1  0
  5  4  2  0
  6  5  1  0
  5 11  1  0
  7  8  1  0
  8  9  1  0
 10  9  2  0
  9 13  1  0
 11 12  1  0
 13 18  1  0
 13 14  2  0
 14 15  1  0
 15 16  2  0
 15 19  1  0
 17 16  1  0
 16 21  1  0
 18 17  2  0
 23 19  1  0
 22 19  2  0
 19 20  2  0
  4 24  1  0
  6 25  1  0
  8 26  1  0
  8 27  1  0
 11 28  1  0
 11 29  1  0
 12 30  1  0
 12 31  1  0
 12 32  1  0
 14 33  1  0
 17 34  1  0
 18 35  1  0
 23 36  1  0
 23 37  1  0
A    1
N1
A    2
C2
A    3
N3
A    4
C4
A    5
C5
A    6
C6
A    7
S7
A    8
C8
A    9
C9
A   10
O10
A   11
C11
A   12
C12
A   13
C13
A   14
C14
A   15
C15
A   16
C16
A   17
C17
A   18
C18
A   19
S19
A   20
O20
A   21
CL21
A   22
O22
A   23
N23
M  END
