3SAY_OFT_A_431
     RDKit          3D

 49 52  0  0  0  0  0  0  0  0999 V2000
  -13.9430   16.0900  -31.1040 C   0  0  0  0  0  0  0  0  0  0  0  0
  -12.6460   15.5940  -31.1350 C   0  0  0  0  0  0  0  0  0  0  0  0
  -11.7670   15.7110  -32.3380 C   0  0  0  0  0  0  0  0  0  0  0  0
  -12.3050   16.3510  -33.4510 C   0  0  0  0  0  0  0  0  0  0  0  0
  -13.6150   16.8460  -33.4030 C   0  0  0  0  0  0  0  0  0  0  0  0
  -14.4160   16.7240  -32.2580 C   0  0  0  0  0  0  0  0  0  0  0  0
  -11.8070   14.8870  -30.1630 C   0  0  0  0  0  0  0  0  0  0  0  0
  -10.5310   14.6490  -30.8540 C   0  0  0  0  0  0  0  0  0  0  0  0
  -10.5570   15.1420  -32.1040 N   0  0  0  0  0  0  0  0  0  0  0  0
   -9.3210   13.9660  -30.3210 C   0  0  0  0  0  0  0  0  0  0  0  0
   -9.0530   13.3480  -29.0060 C   0  0  0  0  0  0  0  0  0  0  0  0
   -7.6430   12.8430  -29.1590 C   0  0  0  0  0  0  0  0  0  0  0  0
   -7.1420   13.1200  -30.3970 N   0  0  0  0  0  0  0  0  0  0  0  0
   -8.0890   13.7770  -31.0970 C   0  0  0  0  0  0  0  0  0  0  0  0
   -9.7750   13.1760  -27.8230 C   0  0  0  0  0  0  0  0  0  0  0  0
   -9.1470   12.5050  -26.7600 C   0  0  0  0  0  0  0  0  0  0  0  0
   -7.8300   12.0470  -26.9010 C   0  0  0  0  0  0  0  0  0  0  0  0
   -7.0850   12.2000  -28.0700 C   0  0  0  0  0  0  0  0  0  0  0  0
   -7.9430   14.1840  -32.3010 O   0  0  0  0  0  0  0  0  0  0  0  0
  -12.1690   14.5370  -28.8930 N   0  0  0  0  0  0  0  0  0  0  0  0
  -13.4420   14.8470  -28.4100 O   0  0  0  0  0  0  0  0  0  0  0  0
   -9.8640   12.2430  -25.3420 S   0  0  0  0  0  0  0  0  0  0  0  0
   -9.3320   11.0350  -24.7730 O   0  0  0  0  0  0  0  0  0  0  0  0
   -9.5200   13.3230  -24.4610 O   0  0  0  0  0  0  0  0  0  0  0  0
  -11.4100   12.1410  -25.4200 N   0  0  0  0  0  0  0  0  0  0  0  0
  -12.2600   12.9250  -24.5130 C   0  0  0  0  0  0  0  0  0  0  0  0
  -12.5930   14.3050  -25.0530 C   0  0  0  0  0  0  0  0  0  0  0  0
  -12.0450   11.2000  -26.3520 C   0  0  0  0  0  0  0  0  0  0  0  0
  -13.1850   11.7910  -27.1600 C   0  0  0  0  0  0  0  0  0  0  0  0
  -14.5730   15.9884  -30.2080 H   0  0  0  0  0  0  0  0  0  0  0  0
  -11.7039   16.4677  -34.3648 H   0  0  0  0  0  0  0  0  0  0  0  0
  -14.0283   17.3461  -34.2913 H   0  0  0  0  0  0  0  0  0  0  0  0
  -15.4363   17.1350  -32.2676 H   0  0  0  0  0  0  0  0  0  0  0  0
   -9.7803   15.0954  -32.7789 H   0  0  0  0  0  0  0  0  0  0  0  0
   -6.2027   12.8705  -30.7382 H   0  0  0  0  0  0  0  0  0  0  0  0
  -10.8034   13.5541  -27.7263 H   0  0  0  0  0  0  0  0  0  0  0  0
   -7.3595   11.5406  -26.0453 H   0  0  0  0  0  0  0  0  0  0  0  0
   -6.0577   11.8106  -28.1252 H   0  0  0  0  0  0  0  0  0  0  0  0
  -13.6051   14.8867  -27.4343 H   0  0  0  0  0  0  0  0  0  0  0  0
  -13.1995   12.3761  -24.3516 H   0  0  0  0  0  0  0  0  0  0  0  0
  -11.6992   13.0654  -23.5771 H   0  0  0  0  0  0  0  0  0  0  0  0
  -12.7599   14.9966  -24.2140 H   0  0  0  0  0  0  0  0  0  0  0  0
  -11.7571   14.6696  -25.6680 H   0  0  0  0  0  0  0  0  0  0  0  0
  -13.5032   14.2483  -25.6680 H   0  0  0  0  0  0  0  0  0  0  0  0
  -11.2776   10.8392  -27.0527 H   0  0  0  0  0  0  0  0  0  0  0  0
  -12.4785   10.3958  -25.7393 H   0  0  0  0  0  0  0  0  0  0  0  0
  -13.9509   12.1880  -26.4775 H   0  0  0  0  0  0  0  0  0  0  0  0
  -12.8020   12.6041  -27.7942 H   0  0  0  0  0  0  0  0  0  0  0  0
  -13.6287   11.0094  -27.7942 H   0  0  0  0  0  0  0  0  0  0  0  0
  1  2  2  0
  2  3  1  0
  2  7  1  0
  3  9  1  0
  4  3  2  0
  5  4  1  0
  6  1  1  0
  6  5  2  0
  7  8  1  0
  8 10  2  0
  9  8  1  0
 10 11  1  0
 10 14  1  0
 11 12  2  0
 12 13  1  0
 12 18  1  0
 14 13  1  0
 15 11  1  0
 15 16  2  0
 16 17  1  0
 17 18  2  0
 19 14  2  0
 20  7  2  0
 21 20  1  0
 22 16  1  0
 22 23  2  0
 22 24  2  0
 25 22  1  0
 26 25  1  0
 27 26  1  0
 28 25  1  0
 29 28  1  0
  1 30  1  0
  4 31  1  0
  5 32  1  0
  6 33  1  0
  9 34  1  0
 13 35  1  0
 15 36  1  0
 17 37  1  0
 18 38  1  0
 21 39  1  0
 26 40  1  0
 26 41  1  0
 27 42  1  0
 27 43  1  0
 27 44  1  0
 28 45  1  0
 28 46  1  0
 29 47  1  0
 29 48  1  0
 29 49  1  0
A    1
C1
A    2
C2
A    3
C3
A    4
C4
A    5
C5
A    6
C6
A    7
C7
A    8
C8
A    9
N9
A   10
C10
A   11
C11
A   12
C12
A   13
N13
A   14
C14
A   15
C15
A   16
C16
A   17
C17
A   18
C18
A   19
O19
A   20
N20
A   21
O21
A   22
S22
A   23
O23
A   24
O24
A   25
N25
A   26
C26
A   27
C27
A   28
C28
A   29
C29
M  END
