3SDA_GCY_A_601
     RDKit          3D

150150  0  0  0  0  0  0  0  0999 V2000
  -15.8000  -99.2480  -45.9710 C   0  0  0  0  0  0  0  0  0  0  0  0
   -2.6670  -94.6830  -53.7190 N   0  0  0  0  0  0  0  0  0  0  0  0
   -5.1580  -94.1260  -51.2980 O   0  0  0  0  0  0  0  0  0  0  0  0
  -15.1630 -100.5800  -46.3730 C   0  0  0  0  0  0  0  0  0  0  0  0
   -2.9630  -91.3210  -53.6160 O   0  0  0  0  0  0  0  0  0  0  0  0
  -14.2270 -100.4030  -47.5720 C   0  0  0  0  0  0  0  0  0  0  0  0
    0.9600  -89.5870  -55.7910 O   0  0  0  0  0  0  0  0  0  0  0  0
  -13.8940 -101.7510  -48.2160 C   0  0  0  0  0  0  0  0  0  0  0  0
   -1.2160  -90.7140  -55.2570 O   0  0  0  0  0  0  0  0  0  0  0  0
  -12.3830 -101.9650  -48.3040 C   0  0  0  0  0  0  0  0  0  0  0  0
   -1.8340  -89.2680  -57.8110 O   0  0  0  0  0  0  0  0  0  0  0  0
  -11.9390 -102.2240  -49.7510 C   0  0  0  0  0  0  0  0  0  0  0  0
  -10.9060 -101.1880  -50.2060 C   0  0  0  0  0  0  0  0  0  0  0  0
   -9.9920 -101.7590  -51.2920 C   0  0  0  0  0  0  0  0  0  0  0  0
   -8.5160 -101.5410  -50.9350 C   0  0  0  0  0  0  0  0  0  0  0  0
   -7.9440 -100.2860  -51.6020 C   0  0  0  0  0  0  0  0  0  0  0  0
   -6.4390 -100.1590  -51.3400 C   0  0  0  0  0  0  0  0  0  0  0  0
   -5.8090  -99.0400  -52.1780 C   0  0  0  0  0  0  0  0  0  0  0  0
   -5.7290  -97.7410  -51.3730 C   0  0  0  0  0  0  0  0  0  0  0  0
   -6.0220  -96.5230  -52.2490 C   0  0  0  0  0  0  0  0  0  0  0  0
   -4.8430  -95.8550  -52.5580 C   0  0  0  0  0  0  0  0  0  0  0  0
   -4.7010  -94.4750  -52.4030 C   0  0  0  0  0  0  0  0  0  0  0  0
   -4.1470  -90.6590  -58.2260 O   0  0  0  0  0  0  0  0  0  0  0  0
   -3.3810  -93.7880  -52.7780 C   0  0  0  0  0  0  0  0  0  0  0  0
   -4.7910  -91.4950  -55.5990 O   0  0  0  0  0  0  0  0  0  0  0  0
   -3.8110  -92.4660  -53.4090 C   0  0  0  0  0  0  0  0  0  0  0  0
   -0.6020  -94.3590  -52.8140 O   0  0  0  0  0  0  0  0  0  0  0  0
   -2.4650  -91.3880  -54.9750 C   0  0  0  0  0  0  0  0  0  0  0  0
   -0.7250  -91.1170  -56.6140 C   0  0  0  0  0  0  0  0  0  0  0  0
    0.6040  -90.4200  -56.9030 C   0  0  0  0  0  0  0  0  0  0  0  0
   -1.7900  -90.6980  -57.7080 C   0  0  0  0  0  0  0  0  0  0  0  0
   -3.1830  -91.2280  -57.3490 C   0  0  0  0  0  0  0  0  0  0  0  0
   -3.5360  -90.8940  -55.9330 C   0  0  0  0  0  0  0  0  0  0  0  0
   -1.3520  -94.9130  -53.6200 C   0  0  0  0  0  0  0  0  0  0  0  0
   -0.8050  -95.9300  -54.6410 C   0  0  0  0  0  0  0  0  0  0  0  0
    0.0320  -97.0430  -53.9720 C   0  0  0  0  0  0  0  0  0  0  0  0
   -0.7910  -98.2690  -53.5100 C   0  0  0  0  0  0  0  0  0  0  0  0
    0.1190  -99.4170  -53.0090 C   0  0  0  0  0  0  0  0  0  0  0  0
   -0.6340 -100.5010  -52.2050 C   0  0  0  0  0  0  0  0  0  0  0  0
    0.3210 -101.5630  -51.6200 C   0  0  0  0  0  0  0  0  0  0  0  0
   -0.1400 -102.0810  -50.2430 C   0  0  0  0  0  0  0  0  0  0  0  0
    0.9520 -102.9100  -49.5290 C   0  0  0  0  0  0  0  0  0  0  0  0
    1.3680 -102.3080  -48.1660 C   0  0  0  0  0  0  0  0  0  0  0  0
    2.7930 -102.7280  -47.7450 C   0  0  0  0  0  0  0  0  0  0  0  0
    3.3050 -101.9460  -46.5240 C   0  0  0  0  0  0  0  0  0  0  0  0
    4.6220 -102.3040  -46.4030 C   0  0  0  0  0  0  0  0  0  0  0  0
    5.7810 -102.5910  -47.3010 C   0  0  0  0  0  0  0  0  0  0  0  0
    7.2240 -103.0080  -46.6940 C   0  0  0  0  0  0  0  0  0  0  0  0
    8.2770 -102.8260  -47.5270 C   0  0  0  0  0  0  0  0  0  0  0  0
    8.6770 -103.9090  -48.3240 C   0  0  0  0  0  0  0  0  0  0  0  0
    9.1900 -103.6580  -49.6890 C   0  0  0  0  0  0  0  0  0  0  0  0
    8.4090 -104.4020  -50.5820 C   0  0  0  0  0  0  0  0  0  0  0  0
    8.1800 -103.9930  -51.9390 C   0  0  0  0  0  0  0  0  0  0  0  0
    7.4620 -104.6410  -53.0050 C   0  0  0  0  0  0  0  0  0  0  0  0
    6.0380 -104.7300  -52.6150 C   0  0  0  0  0  0  0  0  0  0  0  0
    5.2960 -105.1700  -53.1890 C   0  0  0  0  0  0  0  0  0  0  0  0
    4.0720 -105.6120  -53.2190 C   0  0  0  0  0  0  0  0  0  0  0  0
  -15.8351  -99.1746  -44.8740 H   0  0  0  0  0  0  0  0  0  0  0  0
  -15.2012  -98.4184  -46.3750 H   0  0  0  0  0  0  0  0  0  0  0  0
  -16.8217  -99.1934  -46.3750 H   0  0  0  0  0  0  0  0  0  0  0  0
   -3.1988  -95.1421  -54.4722 H   0  0  0  0  0  0  0  0  0  0  0  0
   -4.6210  -94.5361  -50.5744 H   0  0  0  0  0  0  0  0  0  0  0  0
  -14.5872 -100.9741  -45.5227 H   0  0  0  0  0  0  0  0  0  0  0  0
  -15.9637 -101.2796  -46.6547 H   0  0  0  0  0  0  0  0  0  0  0  0
  -14.7167  -99.7599  -48.3180 H   0  0  0  0  0  0  0  0  0  0  0  0
  -13.2915  -99.9440  -47.2197 H   0  0  0  0  0  0  0  0  0  0  0  0
    0.7575  -90.0608  -54.9456 H   0  0  0  0  0  0  0  0  0  0  0  0
  -14.3355 -102.5564  -47.6107 H   0  0  0  0  0  0  0  0  0  0  0  0
  -14.3065 -101.7605  -49.2357 H   0  0  0  0  0  0  0  0  0  0  0  0
  -11.8715 -101.0668  -47.9276 H   0  0  0  0  0  0  0  0  0  0  0  0
  -12.1213 -102.8449  -47.6980 H   0  0  0  0  0  0  0  0  0  0  0  0
   -1.8462  -88.8720  -56.9037 H   0  0  0  0  0  0  0  0  0  0  0  0
  -11.4935 -103.2277  -49.8157 H   0  0  0  0  0  0  0  0  0  0  0  0
  -12.8202 -102.1487  -50.4051 H   0  0  0  0  0  0  0  0  0  0  0  0
  -11.4319 -100.3083  -50.6055 H   0  0  0  0  0  0  0  0  0  0  0  0
  -10.2870 -100.9095  -49.3404 H   0  0  0  0  0  0  0  0  0  0  0  0
  -10.1827 -102.8376  -51.3929 H   0  0  0  0  0  0  0  0  0  0  0  0
  -10.2049 -101.2412  -52.2389 H   0  0  0  0  0  0  0  0  0  0  0  0
   -8.4263 -101.4355  -49.8437 H   0  0  0  0  0  0  0  0  0  0  0  0
   -7.9465 -102.4089  -51.2988 H   0  0  0  0  0  0  0  0  0  0  0  0
   -8.1160 -100.3456  -52.6868 H   0  0  0  0  0  0  0  0  0  0  0  0
   -8.4479  -99.4047  -51.1785 H   0  0  0  0  0  0  0  0  0  0  0  0
   -6.2802  -99.9384  -50.2741 H   0  0  0  0  0  0  0  0  0  0  0  0
   -5.9609 -101.1087  -51.6219 H   0  0  0  0  0  0  0  0  0  0  0  0
   -4.7948  -99.3415  -52.4788 H   0  0  0  0  0  0  0  0  0  0  0  0
   -6.4351  -98.8678  -53.0659 H   0  0  0  0  0  0  0  0  0  0  0  0
   -6.4651  -97.7800  -50.5565 H   0  0  0  0  0  0  0  0  0  0  0  0
   -4.7085  -97.6432  -50.9742 H   0  0  0  0  0  0  0  0  0  0  0  0
   -7.0236  -96.2185  -52.5868 H   0  0  0  0  0  0  0  0  0  0  0  0
   -3.9898  -96.4355  -52.9390 H   0  0  0  0  0  0  0  0  0  0  0  0
   -5.3077  -94.0710  -53.2268 H   0  0  0  0  0  0  0  0  0  0  0  0
   -4.8664  -90.2344  -57.6948 H   0  0  0  0  0  0  0  0  0  0  0  0
   -2.6938  -93.5947  -51.9411 H   0  0  0  0  0  0  0  0  0  0  0  0
   -4.8839  -91.5395  -54.6144 H   0  0  0  0  0  0  0  0  0  0  0  0
   -4.6414  -92.1033  -52.7855 H   0  0  0  0  0  0  0  0  0  0  0  0
   -3.9551  -92.7887  -54.4507 H   0  0  0  0  0  0  0  0  0  0  0  0
   -2.2292  -92.4528  -55.1182 H   0  0  0  0  0  0  0  0  0  0  0  0
   -0.5810  -92.2072  -56.6422 H   0  0  0  0  0  0  0  0  0  0  0  0
    0.5044  -89.8014  -57.8071 H   0  0  0  0  0  0  0  0  0  0  0  0
    1.3875  -91.1760  -57.0598 H   0  0  0  0  0  0  0  0  0  0  0  0
   -1.4889  -91.1346  -58.6717 H   0  0  0  0  0  0  0  0  0  0  0  0
   -3.1773  -92.3227  -57.4563 H   0  0  0  0  0  0  0  0  0  0  0  0
   -3.6079  -89.8003  -55.8404 H   0  0  0  0  0  0  0  0  0  0  0  0
   -1.6526  -96.3932  -55.1672 H   0  0  0  0  0  0  0  0  0  0  0  0
   -0.1475  -95.3873  -55.3361 H   0  0  0  0  0  0  0  0  0  0  0  0
    0.7870  -97.3873  -54.6941 H   0  0  0  0  0  0  0  0  0  0  0  0
    0.4753  -96.6024  -53.0668 H   0  0  0  0  0  0  0  0  0  0  0  0
   -1.4591  -97.9615  -52.6920 H   0  0  0  0  0  0  0  0  0  0  0  0
   -1.3654  -98.6395  -54.3718 H   0  0  0  0  0  0  0  0  0  0  0  0
    0.5876  -99.8949  -53.8820 H   0  0  0  0  0  0  0  0  0  0  0  0
    0.8581  -98.9679  -52.3292 H   0  0  0  0  0  0  0  0  0  0  0  0
   -1.1746 -100.0171  -51.3782 H   0  0  0  0  0  0  0  0  0  0  0  0
   -1.3255 -101.0110  -52.8918 H   0  0  0  0  0  0  0  0  0  0  0  0
    0.3724 -102.4126  -52.3168 H   0  0  0  0  0  0  0  0  0  0  0  0
    1.3043 -101.0886  -51.4853 H   0  0  0  0  0  0  0  0  0  0  0  0
   -0.3995 -101.2194  -49.6103 H   0  0  0  0  0  0  0  0  0  0  0  0
   -1.0072 -102.7380  -50.4052 H   0  0  0  0  0  0  0  0  0  0  0  0
    0.5675 -103.9269  -49.3612 H   0  0  0  0  0  0  0  0  0  0  0  0
    1.8420 -102.9111  -50.1755 H   0  0  0  0  0  0  0  0  0  0  0  0
    1.3304 -101.2110  -48.2385 H   0  0  0  0  0  0  0  0  0  0  0  0
    0.6692 -102.6870  -47.4057 H   0  0  0  0  0  0  0  0  0  0  0  0
    2.7857 -103.8000  -47.4987 H   0  0  0  0  0  0  0  0  0  0  0  0
    3.4666 -102.5089  -48.5866 H   0  0  0  0  0  0  0  0  0  0  0  0
    3.2122 -100.8628  -46.6914 H   0  0  0  0  0  0  0  0  0  0  0  0
    2.7288 -102.1737  -45.6151 H   0  0  0  0  0  0  0  0  0  0  0  0
    5.0196 -101.4983  -45.7684 H   0  0  0  0  0  0  0  0  0  0  0  0
    4.3882 -103.3685  -46.2537 H   0  0  0  0  0  0  0  0  0  0  0  0
    5.4693 -103.4145  -47.9603 H   0  0  0  0  0  0  0  0  0  0  0  0
    5.9840 -101.6097  -47.7548 H   0  0  0  0  0  0  0  0  0  0  0  0
    7.3986 -102.4072  -45.7893 H   0  0  0  0  0  0  0  0  0  0  0  0
    7.1719 -104.0898  -46.5014 H   0  0  0  0  0  0  0  0  0  0  0  0
    8.0201 -101.9980  -48.2041 H   0  0  0  0  0  0  0  0  0  0  0  0
    9.1309 -102.6453  -46.8576 H   0  0  0  0  0  0  0  0  0  0  0  0
    9.4723 -104.4341  -47.7747 H   0  0  0  0  0  0  0  0  0  0  0  0
    7.7421 -104.4622  -48.4968 H   0  0  0  0  0  0  0  0  0  0  0  0
    9.1129 -102.5868  -49.9269 H   0  0  0  0  0  0  0  0  0  0  0  0
   10.2468 -103.9539  -49.7633 H   0  0  0  0  0  0  0  0  0  0  0  0
    8.8752 -105.3967  -50.6384 H   0  0  0  0  0  0  0  0  0  0  0  0
    7.4057 -104.2944  -50.1441 H   0  0  0  0  0  0  0  0  0  0  0  0
    7.6847 -103.0157  -51.8414 H   0  0  0  0  0  0  0  0  0  0  0  0
    9.1945 -104.1900  -52.3158 H   0  0  0  0  0  0  0  0  0  0  0  0
    7.5588 -104.0538  -53.9301 H   0  0  0  0  0  0  0  0  0  0  0  0
    7.8711 -105.6465  -53.1827 H   0  0  0  0  0  0  0  0  0  0  0  0
    6.0280 -105.2694  -51.6564 H   0  0  0  0  0  0  0  0  0  0  0  0
    5.7440 -103.6721  -52.6817 H   0  0  0  0  0  0  0  0  0  0  0  0
    5.2530 -104.4499  -54.0194 H   0  0  0  0  0  0  0  0  0  0  0  0
    5.6507 -106.1666  -52.8872 H   0  0  0  0  0  0  0  0  0  0  0  0
    3.7047 -105.7446  -52.1906 H   0  0  0  0  0  0  0  0  0  0  0  0
    3.4334 -104.8877  -53.7459 H   0  0  0  0  0  0  0  0  0  0  0  0
    4.0435 -106.5772  -53.7459 H   0  0  0  0  0  0  0  0  0  0  0  0
  1  4  1  0
  2 24  1  0
  2 34  1  0
  3 22  1  0
  4  6  1  0
  5 26  1  0
  5 28  1  0
  6  8  1  0
  7 30  1  0
  8 10  1  0
  9 28  1  0
  9 29  1  0
 10 12  1  0
 11 31  1  0
 12 13  1  0
 13 14  1  0
 14 15  1  0
 15 16  1  0
 16 17  1  0
 17 18  1  0
 18 19  1  0
 19 20  1  0
 20 21  2  0
 21 22  1  0
 22 24  1  0
 23 32  1  0
 24 26  1  0
 25 33  1  0
 27 34  2  0
 28 33  1  0
 29 30  1  0
 29 31  1  0
 31 32  1  0
 32 33  1  0
 34 35  1  0
 35 36  1  0
 36 37  1  0
 37 38  1  0
 38 39  1  0
 39 40  1  0
 40 41  1  0
 41 42  1  0
 42 43  1  0
 43 44  1  0
 44 45  1  0
 45 46  1  0
 46 47  1  0
 47 48  1  0
 48 49  1  0
 49 50  1  0
 50 51  1  0
 51 52  1  0
 52 53  1  0
 53 54  1  0
 54 55  1  0
 55 56  1  0
 56 57  1  0
  1 58  1  0
  1 59  1  0
  1 60  1  0
  2 61  1  0
  3 62  1  0
  4 63  1  0
  4 64  1  0
  6 65  1  0
  6 66  1  0
  7 67  1  0
  8 68  1  0
  8 69  1  0
 10 70  1  0
 10 71  1  0
 11 72  1  0
 12 73  1  0
 12 74  1  0
 13 75  1  0
 13 76  1  0
 14 77  1  0
 14 78  1  0
 15 79  1  0
 15 80  1  0
 16 81  1  0
 16 82  1  0
 17 83  1  0
 17 84  1  0
 18 85  1  0
 18 86  1  0
 19 87  1  0
 19 88  1  0
 20 89  1  0
 21 90  1  0
 22 91  1  0
 23 92  1  0
 24 93  1  0
 25 94  1  0
 26 95  1  0
 26 96  1  0
 28 97  1  0
 29 98  1  0
 30 99  1  0
 30100  1  0
 31101  1  0
 32102  1  0
 33103  1  0
 35104  1  0
 35105  1  0
 36106  1  0
 36107  1  0
 37108  1  0
 37109  1  0
 38110  1  0
 38111  1  0
 39112  1  0
 39113  1  0
 40114  1  0
 40115  1  0
 41116  1  0
 41117  1  0
 42118  1  0
 42119  1  0
 43120  1  0
 43121  1  0
 44122  1  0
 44123  1  0
 45124  1  0
 45125  1  0
 46126  1  0
 46127  1  0
 47128  1  0
 47129  1  0
 48130  1  0
 48131  1  0
 49132  1  0
 49133  1  0
 50134  1  0
 50135  1  0
 51136  1  0
 51137  1  0
 52138  1  0
 52139  1  0
 53140  1  0
 53141  1  0
 54142  1  0
 54143  1  0
 55144  1  0
 55145  1  0
 56146  1  0
 56147  1  0
 57148  1  0
 57149  1  0
 57150  1  0
A    1
C1
A    2
N1
A    3
O1
A    4
C2
A    5
O2
A    6
C3
A    7
O3
A    8
C4
A    9
O4
A   10
C5
A   11
O5
A   12
C6
A   13
C7
A   14
C8
A   15
C9
A   16
C10
A   17
C11
A   18
C12
A   19
C13
A   20
C14
A   21
C15
A   22
C16
A   23
O16
A   24
C17
A   25
O17
A   26
C18
A   27
O18
A   28
C19
A   29
C20
A   30
C21
A   31
C22
A   32
C35
A   33
C36
A   34
C37
A   35
C38
A   36
C39
A   37
C40
A   38
C41
A   39
C42
A   40
C43
A   41
C44
A   42
CAJ
A   43
CAK
A   44
CAL
A   45
CAM
A   46
CAN
A   47
CAO
A   48
CAP
A   49
CAQ
A   50
CAR
A   51
CAS
A   52
CAT
A   53
CAU
A   54
CAV
A   55
CAW
A   56
CAX
A   57
CAY
M  END
