3SFF_0DI_A_378
     RDKit          3D

 48 50  0  0  0  0  0  0  0  0999 V2000
   10.0800   13.0350  -25.9630 C   0  0  0  0  0  0  0  0  0  0  0  0
   14.3950   10.5630  -23.7870 F   0  0  0  0  0  0  0  0  0  0  0  0
   10.9380   14.2270  -26.2280 N   0  0  0  0  0  0  0  0  0  0  0  0
    6.7760   15.7730  -24.1880 O   0  0  0  0  0  0  0  0  0  0  0  0
    7.2110   17.2190  -19.4190 Cl  0  0  0  0  0  0  0  0  0  0  0  0
    9.2970   13.1780  -24.6410 C   0  0  0  0  0  0  0  0  0  0  0  0
   13.3450   12.9500  -28.6500 F   0  0  0  0  0  0  0  0  0  0  0  0
    8.6060   14.5030  -24.5790 N   0  0  0  0  0  0  0  0  0  0  0  0
   12.9590   15.2490  -26.5970 O   0  0  0  0  0  0  0  0  0  0  0  0
    9.4820   15.6600  -24.9240 C   0  0  0  0  0  0  0  0  0  0  0  0
    4.9310   13.7720  -23.8810 N   0  0  0  0  0  0  0  0  0  0  0  0
   10.1730   15.4920  -26.2970 C   0  0  0  0  0  0  0  0  0  0  0  0
    7.3000   14.6490  -24.2020 C   0  0  0  0  0  0  0  0  0  0  0  0
    6.3740   13.4740  -23.7800 C   0  0  0  0  0  0  0  0  0  0  0  0
    6.7920   12.9300  -22.3850 C   0  0  0  0  0  0  0  0  0  0  0  0
    6.2650   13.7250  -21.2040 C   0  0  0  0  0  0  0  0  0  0  0  0
    6.9330   14.9270  -20.8290 C   0  0  0  0  0  0  0  0  0  0  0  0
    6.4290   15.7180  -19.7710 C   0  0  0  0  0  0  0  0  0  0  0  0
    5.3370   15.2550  -19.0020 C   0  0  0  0  0  0  0  0  0  0  0  0
    4.7060   14.0400  -19.3400 C   0  0  0  0  0  0  0  0  0  0  0  0
    5.1450   13.2810  -20.4550 C   0  0  0  0  0  0  0  0  0  0  0  0
   12.3020   14.2300  -26.3640 C   0  0  0  0  0  0  0  0  0  0  0  0
   13.0870   12.9520  -26.2770 C   0  0  0  0  0  0  0  0  0  0  0  0
   13.5980   12.3670  -27.4580 C   0  0  0  0  0  0  0  0  0  0  0  0
   14.3640   11.1780  -27.4120 C   0  0  0  0  0  0  0  0  0  0  0  0
   14.5960   10.5650  -26.1670 C   0  0  0  0  0  0  0  0  0  0  0  0
   14.1160   11.1570  -24.9750 C   0  0  0  0  0  0  0  0  0  0  0  0
   13.3590   12.3550  -25.0150 C   0  0  0  0  0  0  0  0  0  0  0  0
    9.3644   12.9198  -26.7905 H   0  0  0  0  0  0  0  0  0  0  0  0
   10.7332   12.1537  -25.8811 H   0  0  0  0  0  0  0  0  0  0  0  0
    8.5471   12.3758  -24.5764 H   0  0  0  0  0  0  0  0  0  0  0  0
   10.0036   13.1069  -23.8009 H   0  0  0  0  0  0  0  0  0  0  0  0
    8.8680   16.5724  -24.9476 H   0  0  0  0  0  0  0  0  0  0  0  0
   10.2700   15.7219  -24.1590 H   0  0  0  0  0  0  0  0  0  0  0  0
    4.5305   13.8547  -22.9357 H   0  0  0  0  0  0  0  0  0  0  0  0
    4.7982   14.6582  -24.3889 H   0  0  0  0  0  0  0  0  0  0  0  0
   10.8513   16.3368  -26.4874 H   0  0  0  0  0  0  0  0  0  0  0  0
    9.4365   15.4685  -27.1138 H   0  0  0  0  0  0  0  0  0  0  0  0
    6.5226   12.6708  -24.5168 H   0  0  0  0  0  0  0  0  0  0  0  0
    6.4207   11.8985  -22.2954 H   0  0  0  0  0  0  0  0  0  0  0  0
    7.8887   13.0037  -22.3414 H   0  0  0  0  0  0  0  0  0  0  0  0
    7.8421   15.2397  -21.3636 H   0  0  0  0  0  0  0  0  0  0  0  0
    4.9803   15.8410  -18.1421 H   0  0  0  0  0  0  0  0  0  0  0  0
    3.8641   13.6769  -18.7323 H   0  0  0  0  0  0  0  0  0  0  0  0
    4.6212   12.3556  -20.7366 H   0  0  0  0  0  0  0  0  0  0  0  0
   14.7716   10.7399  -28.3350 H   0  0  0  0  0  0  0  0  0  0  0  0
   15.1546    9.6186  -26.1201 H   0  0  0  0  0  0  0  0  0  0  0  0
   12.9887   12.8146  -24.0867 H   0  0  0  0  0  0  0  0  0  0  0  0
  1  3  1  0
  1  6  1  0
  2 27  1  0
  3 12  1  0
  3 22  1  0
  4 13  2  0
  5 18  1  0
  6  8  1  0
  7 24  1  0
  8 10  1  0
  8 13  1  0
  9 22  2  0
 10 12  1  0
 11 14  1  0
 13 14  1  0
 14 15  1  0
 15 16  1  0
 16 17  2  0
 16 21  1  0
 17 18  1  0
 18 19  2  0
 19 20  1  0
 20 21  2  0
 22 23  1  0
 23 24  2  0
 23 28  1  0
 24 25  1  0
 25 26  2  0
 26 27  1  0
 27 28  2  0
  1 29  1  0
  1 30  1  0
  6 31  1  0
  6 32  1  0
 10 33  1  0
 10 34  1  0
 11 35  1  0
 11 36  1  0
 12 37  1  0
 12 38  1  0
 14 39  1  0
 15 40  1  0
 15 41  1  0
 17 42  1  0
 19 43  1  0
 20 44  1  0
 21 45  1  0
 25 46  1  0
 26 47  1  0
 28 48  1  0
A    1
C1
A    2
F1
A    3
N1
A    4
O1
A    5
CL1
A    6
C2
A    7
F2
A    8
N2
A    9
O2
A   10
C3
A   11
N3
A   12
C4
A   13
C5
A   14
C6
A   15
C7
A   16
C8
A   17
C9
A   18
C10
A   19
C11
A   20
C12
A   21
C13
A   22
C14
A   23
C15
A   24
C16
A   25
C17
A   26
C18
A   27
C19
A   28
C20
M  END
