3SFH_1DI_A_501
     RDKit          3D

 38 40  0  0  0  0  0  0  0  0999 V2000
    5.5700   13.6050  -23.3180 N   0  0  0  0  0  0  0  0  0  0  0  0
    7.0170   13.2910  -23.3000 C   0  0  0  0  0  0  0  0  0  0  0  0
    7.5530   13.0630  -21.8310 C   0  0  0  0  0  0  0  0  0  0  0  0
    7.2840   14.2250  -20.8380 C   0  0  0  0  0  0  0  0  0  0  0  0
    8.2980   15.2690  -20.6970 C   0  0  0  0  0  0  0  0  0  0  0  0
    8.1010   16.3730  -19.7980 C   0  0  0  0  0  0  0  0  0  0  0  0
    6.8900   16.4540  -19.0240 C   0  0  0  0  0  0  0  0  0  0  0  0
    6.6460   17.7860  -17.9390 Cl  0  0  0  0  0  0  0  0  0  0  0  0
    5.8760   15.4320  -19.1430 C   0  0  0  0  0  0  0  0  0  0  0  0
    6.0530   14.3170  -20.0380 C   0  0  0  0  0  0  0  0  0  0  0  0
    4.7600   13.1270  -20.1140 Cl  0  0  0  0  0  0  0  0  0  0  0  0
    7.8940   14.3550  -24.0070 C   0  0  0  0  0  0  0  0  0  0  0  0
    7.4220   15.4900  -23.9730 O   0  0  0  0  0  0  0  0  0  0  0  0
    9.1370   14.1280  -24.6390 N   0  0  0  0  0  0  0  0  0  0  0  0
    9.7200   12.7590  -24.7040 C   0  0  0  0  0  0  0  0  0  0  0  0
   10.9330   13.0230  -25.5750 C   0  0  0  0  0  0  0  0  0  0  0  0
   11.8820   12.0660  -26.0890 C   0  0  0  0  0  0  0  0  0  0  0  0
   12.9790   12.5360  -26.9130 C   0  0  0  0  0  0  0  0  0  0  0  0
   13.1170   13.9480  -27.2150 C   0  0  0  0  0  0  0  0  0  0  0  0
   12.1560   14.9040  -26.6920 C   0  0  0  0  0  0  0  0  0  0  0  0
   11.0650   14.4180  -25.8690 C   0  0  0  0  0  0  0  0  0  0  0  0
    9.9540   15.2270  -25.2190 C   0  0  0  0  0  0  0  0  0  0  0  0
    5.2230   13.6803  -22.3512 H   0  0  0  0  0  0  0  0  0  0  0  0
    5.4186   14.4984  -23.8077 H   0  0  0  0  0  0  0  0  0  0  0  0
    7.1063   12.3556  -23.8718 H   0  0  0  0  0  0  0  0  0  0  0  0
    7.0739   12.1570  -21.4314 H   0  0  0  0  0  0  0  0  0  0  0  0
    8.6468   12.9830  -21.9158 H   0  0  0  0  0  0  0  0  0  0  0  0
    9.2244   15.2086  -21.2871 H   0  0  0  0  0  0  0  0  0  0  0  0
    8.8717   17.1520  -19.7019 H   0  0  0  0  0  0  0  0  0  0  0  0
    4.9572   15.5060  -18.5427 H   0  0  0  0  0  0  0  0  0  0  0  0
   10.0065   12.3908  -23.7078 H   0  0  0  0  0  0  0  0  0  0  0  0
    9.0378   11.9854  -25.0863 H   0  0  0  0  0  0  0  0  0  0  0  0
   11.7752   10.9955  -25.8594 H   0  0  0  0  0  0  0  0  0  0  0  0
   13.7106   11.8176  -27.3113 H   0  0  0  0  0  0  0  0  0  0  0  0
   13.9514   14.2959  -27.8416 H   0  0  0  0  0  0  0  0  0  0  0  0
   12.2540   15.9765  -26.9160 H   0  0  0  0  0  0  0  0  0  0  0  0
    9.3868   15.8097  -25.9597 H   0  0  0  0  0  0  0  0  0  0  0  0
   10.2944   15.9820  -24.4950 H   0  0  0  0  0  0  0  0  0  0  0  0
  1  2  1  0
  2  3  1  0
  2 12  1  0
  3  4  1  0
  4  5  2  0
  4 10  1  0
  5  6  1  0
  6  7  2  0
  7  8  1  0
  7  9  1  0
  9 10  2  0
 10 11  1  0
 12 13  2  0
 12 14  1  0
 14 15  1  0
 14 22  1  0
 15 16  1  0
 16 17  1  0
 16 21  2  0
 17 18  2  0
 18 19  1  0
 19 20  2  0
 20 21  1  0
 21 22  1  0
  1 23  1  0
  1 24  1  0
  2 25  1  0
  3 26  1  0
  3 27  1  0
  5 28  1  0
  6 29  1  0
  9 30  1  0
 15 31  1  0
 15 32  1  0
 17 33  1  0
 18 34  1  0
 19 35  1  0
 20 36  1  0
 22 37  1  0
 22 38  1  0
A    1
N1
A    2
C2
A    3
C3
A    4
C4
A    5
C5
A    6
C6
A    7
C7
A    8
CL8
A    9
C9
A   10
C10
A   11
CL11
A   12
C12
A   13
O13
A   14
N14
A   15
C15
A   16
C16
A   17
C17
A   18
C18
A   19
C19
A   20
C20
A   21
C21
A   22
C22
M  END
