3SGX_0FW_A_1001
     RDKit          3D

 53 56  0  0  0  0  0  0  0  0999 V2000
  -11.3460   17.8360    1.5230 O   0  0  0  0  0  0  0  0  0  0  0  0
  -10.0410   14.6410    5.8000 O   0  0  0  0  0  0  0  0  0  0  0  0
  -12.0000    6.9280    1.3980 O   0  0  0  0  0  0  0  0  0  0  0  0
  -10.4160   17.6800    3.5450 O   0  0  0  0  0  0  0  0  0  0  0  0
  -11.3410   16.3720    5.3350 O   0  0  0  0  0  0  0  0  0  0  0  0
  -14.1450   -1.7410    3.1560 C   0  0  0  0  0  0  0  0  0  0  0  0
  -14.8750   -0.7810    3.8570 C   0  0  0  0  0  0  0  0  0  0  0  0
  -13.0730   -1.3370    2.3410 C   0  0  0  0  0  0  0  0  0  0  0  0
  -14.8860   10.8360    3.1690 C   0  0  0  0  0  0  0  0  0  0  0  0
  -14.8010    9.4410    3.2300 C   0  0  0  0  0  0  0  0  0  0  0  0
  -13.7750   11.5820    2.8110 C   0  0  0  0  0  0  0  0  0  0  0  0
  -14.5520    0.5660    3.7300 C   0  0  0  0  0  0  0  0  0  0  0  0
  -12.7330    0.0220    2.1990 C   0  0  0  0  0  0  0  0  0  0  0  0
  -11.4620   13.6770    1.0700 C   0  0  0  0  0  0  0  0  0  0  0  0
  -13.1260    4.5420    3.7010 C   0  0  0  0  0  0  0  0  0  0  0  0
  -13.0160    4.2490    1.3070 C   0  0  0  0  0  0  0  0  0  0  0  0
  -13.2760    3.1780    3.8730 C   0  0  0  0  0  0  0  0  0  0  0  0
  -13.1640    2.8830    1.4990 C   0  0  0  0  0  0  0  0  0  0  0  0
  -11.3350   15.0590    1.1990 C   0  0  0  0  0  0  0  0  0  0  0  0
  -12.5040    9.5120    2.5830 C   0  0  0  0  0  0  0  0  0  0  0  0
  -11.1270   13.4620    3.4350 C   0  0  0  0  0  0  0  0  0  0  0  0
  -13.5930    7.3940    2.9840 N   0  0  0  0  0  0  0  0  0  0  0  0
  -11.4590   11.5300    2.1490 O   0  0  0  0  0  0  0  0  0  0  0  0
  -10.9560   17.1780    2.5180 C   0  0  0  0  0  0  0  0  0  0  0  0
  -10.7470   15.3340    5.0110 C   0  0  0  0  0  0  0  0  0  0  0  0
  -12.8210    6.5760    2.2310 C   0  0  0  0  0  0  0  0  0  0  0  0
  -13.6190    8.7490    2.9370 C   0  0  0  0  0  0  0  0  0  0  0  0
  -12.5870   10.8990    2.5190 C   0  0  0  0  0  0  0  0  0  0  0  0
  -11.3730   12.8850    2.2070 C   0  0  0  0  0  0  0  0  0  0  0  0
  -12.9920    5.0770    2.4280 C   0  0  0  0  0  0  0  0  0  0  0  0
  -13.4800    0.9750    2.9110 C   0  0  0  0  0  0  0  0  0  0  0  0
  -13.2710    2.3440    2.7760 C   0  0  0  0  0  0  0  0  0  0  0  0
  -11.0960   15.6440    2.4430 C   0  0  0  0  0  0  0  0  0  0  0  0
  -10.9870   14.8250    3.5790 C   0  0  0  0  0  0  0  0  0  0  0  0
  -10.1463   14.7444    6.7789 H   0  0  0  0  0  0  0  0  0  0  0  0
  -10.7147   17.4023    4.4471 H   0  0  0  0  0  0  0  0  0  0  0  0
  -14.4062   -2.8062    3.2403 H   0  0  0  0  0  0  0  0  0  0  0  0
  -15.7053   -1.0889    4.5096 H   0  0  0  0  0  0  0  0  0  0  0  0
  -12.4881   -2.0979    1.8035 H   0  0  0  0  0  0  0  0  0  0  0  0
  -15.8346   11.3403    3.4052 H   0  0  0  0  0  0  0  0  0  0  0  0
  -15.6941    8.8672    3.5183 H   0  0  0  0  0  0  0  0  0  0  0  0
  -13.8241   12.6796    2.7575 H   0  0  0  0  0  0  0  0  0  0  0  0
  -15.1393    1.3201    4.2744 H   0  0  0  0  0  0  0  0  0  0  0  0
  -11.9027    0.3299    1.5464 H   0  0  0  0  0  0  0  0  0  0  0  0
  -11.6301   13.2210    0.0832 H   0  0  0  0  0  0  0  0  0  0  0  0
  -13.1129    5.2060    4.5779 H   0  0  0  0  0  0  0  0  0  0  0  0
  -12.9199    4.6685    0.2947 H   0  0  0  0  0  0  0  0  0  0  0  0
  -13.3990    2.7598    4.8830 H   0  0  0  0  0  0  0  0  0  0  0  0
  -13.1973    2.2149    0.6258 H   0  0  0  0  0  0  0  0  0  0  0  0
  -11.4244   15.6974    0.3077 H   0  0  0  0  0  0  0  0  0  0  0  0
  -11.5518    9.0116    2.3528 H   0  0  0  0  0  0  0  0  0  0  0  0
  -11.0403   12.8176    4.3223 H   0  0  0  0  0  0  0  0  0  0  0  0
  -14.2242    6.9418    3.6608 H   0  0  0  0  0  0  0  0  0  0  0  0
  1 24  2  0
 25  2  1  0
  3 26  2  0
 24  4  1  0
  5 25  2  0
  8  6  2  0
  6  7  1  0
  7 12  2  0
  8 13  1  0
 11  9  2  0
 10  9  1  0
 27 10  2  0
 28 11  1  0
 31 12  1  0
 13 31  2  0
 29 14  2  0
 14 19  1  0
 17 15  2  0
 15 30  1  0
 18 16  1  0
 16 30  2  0
 32 17  1  0
 32 18  2  0
 19 33  2  0
 20 28  2  0
 20 27  1  0
 29 21  1  0
 21 34  2  0
 26 22  1  0
 22 27  1  0
 23 29  1  0
 23 28  1  0
 33 24  1  0
 34 25  1  0
 30 26  1  0
 31 32  1  0
 34 33  1  0
  2 35  1  0
  4 36  1  0
  6 37  1  0
  7 38  1  0
  8 39  1  0
  9 40  1  0
 10 41  1  0
 11 42  1  0
 12 43  1  0
 13 44  1  0
 14 45  1  0
 15 46  1  0
 16 47  1  0
 17 48  1  0
 18 49  1  0
 19 50  1  0
 20 51  1  0
 21 52  1  0
 22 53  1  0
A    1
OAA
A    2
OAB
A    3
OAC
A    4
OAD
A    5
OAE
A    6
CAF
A    7
CAG
A    8
CAH
A    9
CAI
A   10
CAJ
A   11
CAK
A   12
CAL
A   13
CAM
A   14
CAN
A   15
CAO
A   16
CAP
A   17
CAQ
A   18
CAR
A   19
CAS
A   20
CAT
A   21
CAU
A   22
NAV
A   23
OAW
A   24
CAX
A   25
CAY
A   26
CAZ
A   27
CBA
A   28
CBB
A   29
CBC
A   30
CBD
A   31
CBE
A   32
CBF
A   33
CBG
A   34
CBH
M  END
