3SGY_06W_A_168
     RDKit          3D

 51 53  0  0  0  0  0  0  0  0999 V2000
   26.4360   -9.0870   -7.3250 N   0  0  0  0  0  0  0  0  0  0  0  0
   26.9530   -8.0030   -7.9250 C   0  0  0  0  0  0  0  0  0  0  0  0
   27.9630   -8.1260   -8.7920 N   0  0  0  0  0  0  0  0  0  0  0  0
   28.4890   -9.3270   -9.0930 C   0  0  0  0  0  0  0  0  0  0  0  0
   27.9660  -10.4610   -8.4780 C   0  0  0  0  0  0  0  0  0  0  0  0
   26.9150  -10.3140   -7.5830 C   0  0  0  0  0  0  0  0  0  0  0  0
   35.3370  -12.1620   -8.5390 C   0  0  0  0  0  0  0  0  0  0  0  0
   26.4730   -6.7950   -7.6620 N   0  0  0  0  0  0  0  0  0  0  0  0
   29.6410   -9.3610  -10.0850 C   0  0  0  0  0  0  0  0  0  0  0  0
   26.3850  -11.3790   -6.9960 N   0  0  0  0  0  0  0  0  0  0  0  0
   28.5050  -11.7540   -8.7790 C   0  0  0  0  0  0  0  0  0  0  0  0
   28.9740  -12.8560   -9.0470 C   0  0  0  0  0  0  0  0  0  0  0  0
   29.5430  -14.1740   -9.3810 C   0  0  0  0  0  0  0  0  0  0  0  0
   29.4350  -14.4520  -10.8930 C   0  0  0  0  0  0  0  0  0  0  0  0
   31.0190  -14.2820   -8.9580 C   0  0  0  0  0  0  0  0  0  0  0  0
   31.3950  -15.3570   -8.1430 C   0  0  0  0  0  0  0  0  0  0  0  0
   32.7210  -15.5190   -7.7280 C   0  0  0  0  0  0  0  0  0  0  0  0
   33.6790  -14.5840   -8.1620 C   0  0  0  0  0  0  0  0  0  0  0  0
   33.3260  -13.4940   -8.9770 C   0  0  0  0  0  0  0  0  0  0  0  0
   31.9850  -13.3520   -9.3800 C   0  0  0  0  0  0  0  0  0  0  0  0
   34.3150  -12.5850   -9.3980 C   0  0  0  0  0  0  0  0  0  0  0  0
   34.3180  -12.0960  -10.7120 C   0  0  0  0  0  0  0  0  0  0  0  0
   35.3200  -11.2010  -11.1040 C   0  0  0  0  0  0  0  0  0  0  0  0
   36.2700  -10.8200  -10.2500 N   0  0  0  0  0  0  0  0  0  0  0  0
   36.3090  -11.2680   -8.9980 C   0  0  0  0  0  0  0  0  0  0  0  0
   30.9140   -8.9220   -9.3810 C   0  0  0  0  0  0  0  0  0  0  0  0
   33.0570  -16.5970   -6.9320 O   0  0  0  0  0  0  0  0  0  0  0  0
   33.6600  -16.2680   -5.6740 C   0  0  0  0  0  0  0  0  0  0  0  0
   35.3750  -12.5328   -7.5041 H   0  0  0  0  0  0  0  0  0  0  0  0
   26.3519   -6.4903   -6.6856 H   0  0  0  0  0  0  0  0  0  0  0  0
   26.2213   -6.1615   -8.4342 H   0  0  0  0  0  0  0  0  0  0  0  0
   29.7663  -10.3839  -10.4695 H   0  0  0  0  0  0  0  0  0  0  0  0
   29.4282   -8.6829  -10.9246 H   0  0  0  0  0  0  0  0  0  0  0  0
   26.3551  -11.4391   -5.9682 H   0  0  0  0  0  0  0  0  0  0  0  0
   26.0034  -12.1458   -7.5680 H   0  0  0  0  0  0  0  0  0  0  0  0
   28.9591  -14.9215   -8.8240 H   0  0  0  0  0  0  0  0  0  0  0  0
   29.0409  -15.4666  -11.0520 H   0  0  0  0  0  0  0  0  0  0  0  0
   28.7563  -13.7187  -11.3531 H   0  0  0  0  0  0  0  0  0  0  0  0
   30.4307  -14.3692  -11.3531 H   0  0  0  0  0  0  0  0  0  0  0  0
   30.6353  -16.0858   -7.8240 H   0  0  0  0  0  0  0  0  0  0  0  0
   34.7283  -14.7088   -7.8565 H   0  0  0  0  0  0  0  0  0  0  0  0
   31.6922  -12.5116  -10.0265 H   0  0  0  0  0  0  0  0  0  0  0  0
   33.5428  -12.4117  -11.4257 H   0  0  0  0  0  0  0  0  0  0  0  0
   35.3237  -10.8066  -12.1308 H   0  0  0  0  0  0  0  0  0  0  0  0
   37.1091  -10.9337   -8.3212 H   0  0  0  0  0  0  0  0  0  0  0  0
   30.7669   -8.9727   -8.2921 H   0  0  0  0  0  0  0  0  0  0  0  0
   31.7411   -9.5868   -9.6707 H   0  0  0  0  0  0  0  0  0  0  0  0
   31.1555   -7.8887   -9.6707 H   0  0  0  0  0  0  0  0  0  0  0  0
   33.0152  -16.6198   -4.8552 H   0  0  0  0  0  0  0  0  0  0  0  0
   34.6439  -16.7543   -5.6007 H   0  0  0  0  0  0  0  0  0  0  0  0
   33.7836  -15.1774   -5.6007 H   0  0  0  0  0  0  0  0  0  0  0  0
  2  1  2  0
  6  1  1  0
  3  2  1  0
  2  8  1  0
  4  3  2  0
  9  4  1  0
  4  5  1  0
 11  5  1  0
  5  6  2  0
  6 10  1  0
 21  7  2  0
 25  7  1  0
  9 26  1  0
 12 11  3  0
 13 12  1  0
 14 13  1  0
 13 15  1  0
 20 15  1  0
 15 16  2  0
 16 17  1  0
 18 17  2  0
 17 27  1  0
 19 18  1  0
 21 19  1  0
 20 19  2  0
 22 21  1  0
 23 22  2  0
 23 24  1  0
 24 25  2  0
 27 28  1  0
  7 29  1  0
  8 30  1  0
  8 31  1  0
  9 32  1  0
  9 33  1  0
 10 34  1  0
 10 35  1  0
 13 36  1  0
 14 37  1  0
 14 38  1  0
 14 39  1  0
 16 40  1  0
 18 41  1  0
 20 42  1  0
 22 43  1  0
 23 44  1  0
 25 45  1  0
 26 46  1  0
 26 47  1  0
 26 48  1  0
 28 49  1  0
 28 50  1  0
 28 51  1  0
A    1
N1
A    2
C2
A    3
N3
A    4
C4
A    5
C5
A    6
C6
A    7
CAA
A    8
NAH
A    9
CAI
A   10
NAJ
A   11
CAK
A   12
CAL
A   13
CAM
A   14
CAN
A   15
CAO
A   16
CAP
A   17
CAQ
A   18
CAR
A   19
CAS
A   20
CAT
A   21
CAU
A   22
CAV
A   23
CAW
A   24
NAX
A   25
CAY
A   26
CAZ
A   27
OBA
A   28
CBB
M  END
