3SH0_SAX_B_1001
     RDKit          3D

 53 53  0  0  0  0  0  0  0  0999 V2000
  -14.0800    7.2360    7.3220 C   0  0  0  0  0  0  0  0  0  0  0  0
  -14.7430    9.0750    8.6530 O   0  0  0  0  0  0  0  0  0  0  0  0
  -15.0880    8.0680    7.7800 C   0  0  0  0  0  0  0  0  0  0  0  0
  -13.4540    5.3530    5.9450 O   0  0  0  0  0  0  0  0  0  0  0  0
  -16.3990    7.8860    7.3450 C   0  0  0  0  0  0  0  0  0  0  0  0
  -11.8400    6.5600    7.7770 O   0  0  0  0  0  0  0  0  0  0  0  0
  -16.7450    6.8610    6.4490 C   0  0  0  0  0  0  0  0  0  0  0  0
  -12.4480    8.5960    8.4660 O   0  0  0  0  0  0  0  0  0  0  0  0
  -15.7340    6.0070    5.9970 C   0  0  0  0  0  0  0  0  0  0  0  0
  -14.4100    6.2000    6.4380 C   0  0  0  0  0  0  0  0  0  0  0  0
  -13.8590    4.4070    4.9300 C   0  0  0  0  0  0  0  0  0  0  0  0
  -12.6070    3.8850    4.2660 C   0  0  0  0  0  0  0  0  0  0  0  0
  -12.9480    2.9140    3.1620 C   0  0  0  0  0  0  0  0  0  0  0  0
  -11.7410    2.0560    2.8690 C   0  0  0  0  0  0  0  0  0  0  0  0
  -12.1360    1.0480    1.8050 C   0  0  0  0  0  0  0  0  0  0  0  0
  -10.8460    0.5430    1.1440 C   0  0  0  0  0  0  0  0  0  0  0  0
  -11.0630   -0.7130    0.2890 C   0  0  0  0  0  0  0  0  0  0  0  0
  -12.2430   -0.5430   -0.6570 C   0  0  0  0  0  0  0  0  0  0  0  0
  -11.9930   -0.0720   -2.0860 C   0  0  0  0  0  0  0  0  0  0  0  0
  -11.6680   -1.2560   -2.9810 C   0  0  0  0  0  0  0  0  0  0  0  0
  -12.6470   -1.5990   -4.1140 C   0  0  0  0  0  0  0  0  0  0  0  0
  -12.1770   -2.9220   -4.7300 C   0  0  0  0  0  0  0  0  0  0  0  0
  -12.6990    7.4930    7.8640 C   0  0  0  0  0  0  0  0  0  0  0  0
  -14.7952    8.9227    9.6298 H   0  0  0  0  0  0  0  0  0  0  0  0
  -17.1840    8.5630    7.7130 H   0  0  0  0  0  0  0  0  0  0  0  0
  -17.7842    6.7334    6.1116 H   0  0  0  0  0  0  0  0  0  0  0  0
  -12.4404    8.6293    9.4554 H   0  0  0  0  0  0  0  0  0  0  0  0
  -15.9713    5.1890    5.3009 H   0  0  0  0  0  0  0  0  0  0  0  0
  -14.4131    3.5762    5.3914 H   0  0  0  0  0  0  0  0  0  0  0  0
  -14.5150    4.8906    4.1912 H   0  0  0  0  0  0  0  0  0  0  0  0
  -12.0452    4.7301    3.8416 H   0  0  0  0  0  0  0  0  0  0  0  0
  -12.0013    3.3612    5.0202 H   0  0  0  0  0  0  0  0  0  0  0  0
  -13.7858    2.2754    3.4788 H   0  0  0  0  0  0  0  0  0  0  0  0
  -13.2373    3.4683    2.2570 H   0  0  0  0  0  0  0  0  0  0  0  0
  -10.9158    2.6838    2.5018 H   0  0  0  0  0  0  0  0  0  0  0  0
  -11.4052    1.5407    3.7810 H   0  0  0  0  0  0  0  0  0  0  0  0
  -12.6753    0.2075    2.2661 H   0  0  0  0  0  0  0  0  0  0  0  0
  -12.7969    1.5126    1.0584 H   0  0  0  0  0  0  0  0  0  0  0  0
  -10.4463    1.3405    0.5004 H   0  0  0  0  0  0  0  0  0  0  0  0
  -10.1459    0.2762    1.9494 H   0  0  0  0  0  0  0  0  0  0  0  0
  -10.1553   -0.9051   -0.3019 H   0  0  0  0  0  0  0  0  0  0  0  0
  -11.2767   -1.5570    0.9612 H   0  0  0  0  0  0  0  0  0  0  0  0
  -12.7436   -1.5202   -0.7243 H   0  0  0  0  0  0  0  0  0  0  0  0
  -12.8193    0.2798   -0.2089 H   0  0  0  0  0  0  0  0  0  0  0  0
  -12.8939    0.4329   -2.4647 H   0  0  0  0  0  0  0  0  0  0  0  0
  -11.1416    0.6245   -2.0899 H   0  0  0  0  0  0  0  0  0  0  0  0
  -10.6903   -1.0564   -3.4439 H   0  0  0  0  0  0  0  0  0  0  0  0
  -11.7124   -2.1260   -2.3093 H   0  0  0  0  0  0  0  0  0  0  0  0
  -13.6650   -1.7102   -3.7124 H   0  0  0  0  0  0  0  0  0  0  0  0
  -12.6668   -0.8001   -4.8699 H   0  0  0  0  0  0  0  0  0  0  0  0
  -11.9251   -3.6310   -3.9276 H   0  0  0  0  0  0  0  0  0  0  0  0
  -12.9807   -3.3427   -5.3522 H   0  0  0  0  0  0  0  0  0  0  0  0
  -11.2880   -2.7414   -5.3522 H   0  0  0  0  0  0  0  0  0  0  0  0
 10  1  2  0
  1  3  1  0
  1 23  1  0
  3  2  1  0
  5  3  2  0
 11  4  1  0
  4 10  1  0
  7  5  1  0
  6 23  2  0
  9  7  2  0
 23  8  1  0
  9 10  1  0
 12 11  1  0
 13 12  1  0
 14 13  1  0
 15 14  1  0
 16 15  1  0
 17 16  1  0
 18 17  1  0
 19 18  1  0
 20 19  1  0
 21 20  1  0
 22 21  1  0
  2 24  1  0
  5 25  1  0
  7 26  1  0
  8 27  1  0
  9 28  1  0
 11 29  1  0
 11 30  1  0
 12 31  1  0
 12 32  1  0
 13 33  1  0
 13 34  1  0
 14 35  1  0
 14 36  1  0
 15 37  1  0
 15 38  1  0
 16 39  1  0
 16 40  1  0
 17 41  1  0
 17 42  1  0
 18 43  1  0
 18 44  1  0
 19 45  1  0
 19 46  1  0
 20 47  1  0
 20 48  1  0
 21 49  1  0
 21 50  1  0
 22 51  1  0
 22 52  1  0
 22 53  1  0
A    1
C1
A    2
O1
A    3
C2
A    4
O2
A    5
C3
A    6
O3
A    7
C4
A    8
O4
A    9
C5
A   10
C6
A   11
C7
A   12
C8
A   13
C9
A   14
C10
A   15
C11
A   16
C12
A   17
C13
A   18
C14
A   19
C15
A   20
C16
A   21
C17
A   22
C18
A   23
C19
M  END
