3KGM_BB0_A_2
     RDKit          3D

 31 32  0  0  0  0  0  0  0  0999 V2000
    5.0560   -6.9580   19.8020 N   0  0  0  0  0  0  0  0  0  0  0  0
   11.4990   -2.6140   20.4270 C   0  0  0  0  0  0  0  0  0  0  0  0
   10.1870   -3.3020   20.3220 C   0  0  0  0  0  0  0  0  0  0  0  0
    9.0560   -2.5200   20.4820 C   0  0  0  0  0  0  0  0  0  0  0  0
    7.8080   -3.1040   20.4120 C   0  0  0  0  0  0  0  0  0  0  0  0
    7.7080   -4.4660   20.1770 C   0  0  0  0  0  0  0  0  0  0  0  0
    8.8420   -5.2390   20.0140 C   0  0  0  0  0  0  0  0  0  0  0  0
   10.0960   -4.6700   20.0890 C   0  0  0  0  0  0  0  0  0  0  0  0
    6.4470   -5.0470   20.1070 C   0  0  0  0  0  0  0  0  0  0  0  0
    6.3060   -6.4070   19.8700 C   0  0  0  0  0  0  0  0  0  0  0  0
    7.4560   -7.1630   19.7090 C   0  0  0  0  0  0  0  0  0  0  0  0
    8.7030   -6.5780   19.7820 C   0  0  0  0  0  0  0  0  0  0  0  0
    3.8800   -6.1350   19.9610 C   0  0  0  0  0  0  0  0  0  0  0  0
    4.8170   -8.3680   19.5550 C   0  0  0  0  0  0  0  0  0  0  0  0
   12.8060   -3.4890   20.3280 C   0  0  0  0  0  0  0  0  0  0  0  0
   11.4440   -1.3700   20.6280 O   0  0  0  0  0  0  0  0  0  0  0  0
    9.1517   -1.4394   20.6639 H   0  0  0  0  0  0  0  0  0  0  0  0
    6.9014   -2.4946   20.5414 H   0  0  0  0  0  0  0  0  0  0  0  0
   11.0014   -5.2828   19.9676 H   0  0  0  0  0  0  0  0  0  0  0  0
    5.5517   -4.4222   20.2409 H   0  0  0  0  0  0  0  0  0  0  0  0
    7.3734   -8.2436   19.5205 H   0  0  0  0  0  0  0  0  0  0  0  0
    9.6007   -7.2002   19.6512 H   0  0  0  0  0  0  0  0  0  0  0  0
    3.6750   -5.9915   21.0322 H   0  0  0  0  0  0  0  0  0  0  0  0
    4.0496   -5.1575   19.4860 H   0  0  0  0  0  0  0  0  0  0  0  0
    3.0197   -6.6292   19.4860 H   0  0  0  0  0  0  0  0  0  0  0  0
    4.7271   -8.8983   20.5146 H   0  0  0  0  0  0  0  0  0  0  0  0
    3.8859   -8.4871   18.9816 H   0  0  0  0  0  0  0  0  0  0  0  0
    5.6569   -8.7873   18.9816 H   0  0  0  0  0  0  0  0  0  0  0  0
   13.1642   -3.7288   21.3400 H   0  0  0  0  0  0  0  0  0  0  0  0
   12.5834   -4.4208   19.7874 H   0  0  0  0  0  0  0  0  0  0  0  0
   13.5827   -2.9281   19.7874 H   0  0  0  0  0  0  0  0  0  0  0  0
  1 10  1  0
  1 13  1  0
  1 14  1  0
  2  3  1  0
  2 15  1  0
  2 16  2  0
  3  4  2  0
  3  8  1  0
  4  5  1  0
  5  6  2  0
  6  7  1  0
  6  9  1  0
  7  8  2  0
  7 12  1  0
  9 10  2  0
 10 11  1  0
 11 12  2  0
  4 17  1  0
  5 18  1  0
  8 19  1  0
  9 20  1  0
 11 21  1  0
 12 22  1  0
 13 23  1  0
 13 24  1  0
 13 25  1  0
 14 26  1  0
 14 27  1  0
 14 28  1  0
 15 29  1  0
 15 30  1  0
 15 31  1  0
A    1
NAB
A    2
CAF
A    3
CAG
A    4
CAH
A    5
CAI
A    6
CAJ
A    7
CAK
A    8
CAL
A    9
CAM
A   10
CAN
A   11
CAO
A   12
CAP
A   13
CAQ
A   14
CAR
A   15
CAS
A   16
OAU
M  END
