1GHM_CED_A_1
     RDKit          3D

 38 39  0  0  0  0  0  0  0  0999 V2000
    2.5790   -6.7200  -10.9940 S   0  0  0  0  0  0  0  0  0  0  0  0
    4.2860   -6.2910  -10.5870 C   0  0  0  0  0  0  0  0  0  0  0  0
    5.3260   -6.3400  -11.6650 C   0  0  0  0  0  0  0  0  0  0  0  0
    6.4980   -5.5480  -11.5110 C   0  0  0  0  0  0  0  0  0  0  0  0
    5.1130   -7.2520  -12.8720 C   0  0  0  0  0  0  0  0  0  0  0  0
    6.1550   -7.3700  -13.9920 C   0  0  0  0  0  0  0  0  0  0  0  0
    7.2400   -6.7450  -13.9740 O   0  0  0  0  0  0  0  0  0  0  0  0
    5.7950   -8.1340  -14.8830 O   0  0  0  0  0  0  0  0  0  0  0  0
    3.9820   -8.0210  -13.0390 N   0  0  0  0  0  0  0  0  0  0  0  0
    2.8480   -8.1230  -12.1300 C   0  0  0  0  0  0  0  0  0  0  0  0
    2.9390   -9.4790  -11.3500 C   0  0  0  0  0  0  0  0  0  0  0  0
    3.6400  -10.5130  -12.2480 C   0  0  0  0  0  0  0  0  0  0  0  0
    4.8290  -10.8380  -12.0460 O   0  0  0  0  0  0  0  0  0  0  0  0
    3.7810   -9.4480  -10.0920 N   0  0  0  0  0  0  0  0  0  0  0  0
    3.1560   -9.3880   -8.7920 C   0  0  0  0  0  0  0  0  0  0  0  0
    1.9210   -9.3470   -8.6340 O   0  0  0  0  0  0  0  0  0  0  0  0
    4.1110   -9.4090   -7.5980 C   0  0  0  0  0  0  0  0  0  0  0  0
    4.6540   -8.0380   -7.3450 C   0  0  0  0  0  0  0  0  0  0  0  0
    3.9000   -6.8050   -7.0520 C   0  0  0  0  0  0  0  0  0  0  0  0
    4.8650   -5.7710   -6.9710 C   0  0  0  0  0  0  0  0  0  0  0  0
    6.1740   -6.1090   -7.1290 C   0  0  0  0  0  0  0  0  0  0  0  0
    6.2950   -7.7850   -7.4140 S   0  0  0  0  0  0  0  0  0  0  0  0
    4.2752   -5.2627  -10.1965 H   0  0  0  0  0  0  0  0  0  0  0  0
    4.5958   -7.0806   -9.8866 H   0  0  0  0  0  0  0  0  0  0  0  0
    6.7070   -5.4068  -10.4403 H   0  0  0  0  0  0  0  0  0  0  0  0
    7.3494   -6.0566  -11.9868 H   0  0  0  0  0  0  0  0  0  0  0  0
    6.3436   -4.5683  -11.9868 H   0  0  0  0  0  0  0  0  0  0  0  0
    5.3846   -9.0049  -14.6524 H   0  0  0  0  0  0  0  0  0  0  0  0
    3.9329   -8.5848  -13.8996 H   0  0  0  0  0  0  0  0  0  0  0  0
    1.9558   -8.0885  -12.7726 H   0  0  0  0  0  0  0  0  0  0  0  0
    1.8993   -9.7120  -11.0768 H   0  0  0  0  0  0  0  0  0  0  0  0
    3.0862  -10.9727  -13.0799 H   0  0  0  0  0  0  0  0  0  0  0  0
    4.8082   -9.4699  -10.1643 H   0  0  0  0  0  0  0  0  0  0  0  0
    3.5691   -9.7553   -6.7056 H   0  0  0  0  0  0  0  0  0  0  0  0
    4.9460  -10.0901   -7.8189 H   0  0  0  0  0  0  0  0  0  0  0  0
    2.8119   -6.7081   -6.9229 H   0  0  0  0  0  0  0  0  0  0  0  0
    4.5661   -4.7286   -6.7864 H   0  0  0  0  0  0  0  0  0  0  0  0
    7.0216   -5.4095   -7.0803 H   0  0  0  0  0  0  0  0  0  0  0  0
  1  2  1  0
  1 10  1  0
  2  3  1  0
  3  4  1  0
  3  5  2  0
  5  6  1  0
  5  9  1  0
  6  7  2  0
  6  8  1  0
  9 10  1  0
 10 11  1  0
 11 12  1  0
 11 14  1  0
 12 13  2  0
 14 15  1  0
 15 16  2  0
 15 17  1  0
 17 18  1  0
 18 19  2  0
 18 22  1  0
 19 20  1  0
 20 21  2  0
 21 22  1  0
  2 23  1  0
  2 24  1  0
  4 25  1  0
  4 26  1  0
  4 27  1  0
  8 28  1  0
  9 29  1  0
 10 30  1  0
 11 31  1  0
 12 32  1  0
 14 33  1  0
 17 34  1  0
 17 35  1  0
 19 36  1  0
 20 37  1  0
 21 38  1  0
A    1
S1
A    2
C2
A    3
C3
A    4
C3'
A    5
C4
A    6
C4'
A    7
O4A
A    8
O4B
A    9
N5
A   10
C6
A   11
C7
A   12
C8
A   13
O9
A   14
N10
A   15
C11
A   16
O12
A   17
C13
A   18
C14
A   19
C15
A   20
C16
A   21
C17
A   22
S19
M  END
