3PB7_PBD_X_390
     RDKit          3D

 42 43  0  0  0  0  0  0  0  0999 V2000
    0.7170   51.0540   21.9440 C   0  0  0  0  0  0  0  0  0  0  0  0
    1.7390   46.9840   18.2750 C   0  0  0  0  0  0  0  0  0  0  0  0
    8.1040   49.6840   17.1240 S   0  0  0  0  0  0  0  0  0  0  0  0
    8.4590   47.0570   25.4860 C   0  0  0  0  0  0  0  0  0  0  0  0
    4.2220   51.2760   19.5070 C   0  0  0  0  0  0  0  0  0  0  0  0
    3.0220   51.2880   20.2740 C   0  0  0  0  0  0  0  0  0  0  0  0
    8.6820   46.9550   24.1640 C   0  0  0  0  0  0  0  0  0  0  0  0
    8.8000   49.0370   24.6940 C   0  0  0  0  0  0  0  0  0  0  0  0
    3.5280   49.1630   18.4620 C   0  0  0  0  0  0  0  0  0  0  0  0
    7.9920   48.7920   21.5390 C   0  0  0  0  0  0  0  0  0  0  0  0
    8.2810   49.2810   20.1530 C   0  0  0  0  0  0  0  0  0  0  0  0
    9.2550   48.5950   22.3120 C   0  0  0  0  0  0  0  0  0  0  0  0
    8.4510   48.3650   25.8190 N   0  0  0  0  0  0  0  0  0  0  0  0
    6.9750   49.6240   19.5500 N   0  0  0  0  0  0  0  0  0  0  0  0
    5.5620   50.1180   17.8580 N   0  0  0  0  0  0  0  0  0  0  0  0
    0.9140   50.0700   20.8630 O   0  0  0  0  0  0  0  0  0  0  0  0
    1.4390   48.1300   19.1260 O   0  0  0  0  0  0  0  0  0  0  0  0
    6.7900   49.8200   18.2690 C   0  0  0  0  0  0  0  0  0  0  0  0
    4.4440   50.1970   18.6240 C   0  0  0  0  0  0  0  0  0  0  0  0
    2.0870   50.2270   20.1090 C   0  0  0  0  0  0  0  0  0  0  0  0
    2.3870   49.1460   19.2600 C   0  0  0  0  0  0  0  0  0  0  0  0
    8.9530   48.1610   23.6980 N   0  0  0  0  0  0  0  0  0  0  0  0
    0.8172   50.5533   22.9183 H   0  0  0  0  0  0  0  0  0  0  0  0
    1.4741   51.8476   21.8599 H   0  0  0  0  0  0  0  0  0  0  0  0
   -0.2872   51.4949   21.8599 H   0  0  0  0  0  0  0  0  0  0  0  0
    1.9676   46.1106   18.9034 H   0  0  0  0  0  0  0  0  0  0  0  0
    0.8689   46.7611   17.6399 H   0  0  0  0  0  0  0  0  0  0  0  0
    2.6067   47.2160   17.6399 H   0  0  0  0  0  0  0  0  0  0  0  0
    8.3085   46.2163   26.1792 H   0  0  0  0  0  0  0  0  0  0  0  0
    4.9582   52.0880   19.6004 H   0  0  0  0  0  0  0  0  0  0  0  0
    2.8206   52.1045   20.9830 H   0  0  0  0  0  0  0  0  0  0  0  0
    8.6452   46.0280   23.5730 H   0  0  0  0  0  0  0  0  0  0  0  0
    8.9350   50.1258   24.6149 H   0  0  0  0  0  0  0  0  0  0  0  0
    3.7018   48.3728   17.7168 H   0  0  0  0  0  0  0  0  0  0  0  0
    7.3645   49.5317   22.0578 H   0  0  0  0  0  0  0  0  0  0  0  0
    7.4706   47.8260   21.4680 H   0  0  0  0  0  0  0  0  0  0  0  0
    8.9279   50.1699   20.1904 H   0  0  0  0  0  0  0  0  0  0  0  0
    8.8045   48.5156   19.5613 H   0  0  0  0  0  0  0  0  0  0  0  0
    9.8663   47.8261   21.8169 H   0  0  0  0  0  0  0  0  0  0  0  0
    9.8022   49.5485   22.3488 H   0  0  0  0  0  0  0  0  0  0  0  0
    6.1618   49.7141   20.1757 H   0  0  0  0  0  0  0  0  0  0  0  0
    5.4462   50.3091   16.8525 H   0  0  0  0  0  0  0  0  0  0  0  0
  1 16  1  0
  2 17  1  0
  3 18  2  0
  4  7  2  0
  4 13  1  0
  5  6  2  0
  5 19  1  0
  6 20  1  0
  7 22  1  0
  8 13  2  0
  8 22  1  0
  9 19  2  0
  9 21  1  0
 10 11  1  0
 10 12  1  0
 11 14  1  0
 12 22  1  0
 14 18  1  0
 15 18  1  0
 15 19  1  0
 16 20  1  0
 17 21  1  0
 20 21  2  0
  1 23  1  0
  1 24  1  0
  1 25  1  0
  2 26  1  0
  2 27  1  0
  2 28  1  0
  4 29  1  0
  5 30  1  0
  6 31  1  0
  7 32  1  0
  8 33  1  0
  9 34  1  0
 10 35  1  0
 10 36  1  0
 11 37  1  0
 11 38  1  0
 12 39  1  0
 12 40  1  0
 14 41  1  0
 15 42  1  0
A    1
CAA
A    2
CAB
A    3
SAC
A    4
CAD
A    5
CAE
A    6
CAF
A    7
CAG
A    8
CAH
A    9
CAI
A   10
CAJ
A   11
CAK
A   12
CAL
A   13
NAM
A   14
NAN
A   15
NAO
A   16
OAP
A   17
OAQ
A   18
CAR
A   19
CAS
A   20
CAT
A   21
CAU
A   22
NAV
M  END
