3SIE_5BO_A_1
     RDKit          3D

 57 59  0  0  0  0  0  0  0  0999 V2000
  -24.1770   -6.4040   -1.7950 C   0  0  0  0  0  0  0  0  0  0  0  0
  -17.7680   -3.6950    1.3950 C   0  0  0  0  0  0  0  0  0  0  0  0
  -15.6730   -4.6030  -11.2370 C   0  0  0  0  0  0  0  0  0  0  0  0
  -20.5590   -8.1180   -0.2310 O   0  0  0  0  0  0  0  0  0  0  0  0
  -16.4180   -4.4920   -6.3050 O   0  0  0  0  0  0  0  0  0  0  0  0
  -17.2450   -2.1430   -6.4630 O   0  0  0  0  0  0  0  0  0  0  0  0
  -18.5340   -7.2490    1.8980 Br  0  0  0  0  0  0  0  0  0  0  0  0
  -20.1860   -3.7180   -5.9400 C   0  0  0  0  0  0  0  0  0  0  0  0
  -21.2620   -4.0490   -5.1230 C   0  0  0  0  0  0  0  0  0  0  0  0
  -18.6590   -4.5760   -4.3030 C   0  0  0  0  0  0  0  0  0  0  0  0
  -24.3410   -5.0420   -2.4870 C   0  0  0  0  0  0  0  0  0  0  0  0
  -17.1160   -4.7610    0.4960 C   0  0  0  0  0  0  0  0  0  0  0  0
  -23.3480   -4.8610   -3.6510 C   0  0  0  0  0  0  0  0  0  0  0  0
  -16.7930   -5.4300   -9.1300 C   0  0  0  0  0  0  0  0  0  0  0  0
  -16.7660   -2.9340   -9.6470 C   0  0  0  0  0  0  0  0  0  0  0  0
  -18.2500   -5.2300   -8.7190 C   0  0  0  0  0  0  0  0  0  0  0  0
  -18.2250   -2.9250   -9.2000 C   0  0  0  0  0  0  0  0  0  0  0  0
  -18.5050   -4.9780   -1.5310 N   0  0  0  0  0  0  0  0  0  0  0  0
  -20.2180   -6.5650   -1.8170 N   0  0  0  0  0  0  0  0  0  0  0  0
  -22.0460   -4.9560   -3.0720 O   0  0  0  0  0  0  0  0  0  0  0  0
  -18.8920   -4.0450   -5.5570 C   0  0  0  0  0  0  0  0  0  0  0  0
  -21.0240   -4.7050   -3.9140 C   0  0  0  0  0  0  0  0  0  0  0  0
  -18.2150   -5.4580   -0.3080 C   0  0  0  0  0  0  0  0  0  0  0  0
  -18.9250   -6.5530    0.1720 C   0  0  0  0  0  0  0  0  0  0  0  0
  -19.7210   -5.0350   -3.5510 C   0  0  0  0  0  0  0  0  0  0  0  0
  -19.3950   -5.5880   -2.3230 C   0  0  0  0  0  0  0  0  0  0  0  0
  -19.9090   -7.1500   -0.6130 C   0  0  0  0  0  0  0  0  0  0  0  0
  -16.5760   -4.3380  -10.1030 N   0  0  0  0  0  0  0  0  0  0  0  0
  -18.4830   -3.8960   -8.1010 N   0  0  0  0  0  0  0  0  0  0  0  0
  -17.5970   -3.6050   -6.6180 S   0  0  0  0  0  0  0  0  0  0  0  0
  -24.1937   -6.2653   -0.7039 H   0  0  0  0  0  0  0  0  0  0  0  0
  -25.0016   -7.0683   -2.0928 H   0  0  0  0  0  0  0  0  0  0  0  0
  -23.2182   -6.8535   -2.0928 H   0  0  0  0  0  0  0  0  0  0  0  0
  -17.6073   -3.9578    2.4510 H   0  0  0  0  0  0  0  0  0  0  0  0
  -17.3151   -2.7141    1.1882 H   0  0  0  0  0  0  0  0  0  0  0  0
  -18.8475   -3.6514    1.1882 H   0  0  0  0  0  0  0  0  0  0  0  0
  -14.6825   -4.8937  -10.8569 H   0  0  0  0  0  0  0  0  0  0  0  0
  -16.0841   -5.4184  -11.8503 H   0  0  0  0  0  0  0  0  0  0  0  0
  -15.5783   -3.6948  -11.8503 H   0  0  0  0  0  0  0  0  0  0  0  0
  -20.3607   -3.1957   -6.8922 H   0  0  0  0  0  0  0  0  0  0  0  0
  -22.2889   -3.7967   -5.4262 H   0  0  0  0  0  0  0  0  0  0  0  0
  -17.6343   -4.6325   -3.9069 H   0  0  0  0  0  0  0  0  0  0  0  0
  -25.3657   -4.9644   -2.8794 H   0  0  0  0  0  0  0  0  0  0  0  0
  -24.1384   -4.2572   -1.7433 H   0  0  0  0  0  0  0  0  0  0  0  0
  -16.4022   -4.2814   -0.1899 H   0  0  0  0  0  0  0  0  0  0  0  0
  -16.5777   -5.4955    1.1130 H   0  0  0  0  0  0  0  0  0  0  0  0
  -23.4912   -5.6512   -4.4027 H   0  0  0  0  0  0  0  0  0  0  0  0
  -23.4943   -3.8974   -4.1610 H   0  0  0  0  0  0  0  0  0  0  0  0
  -16.1200   -5.3305   -8.2656 H   0  0  0  0  0  0  0  0  0  0  0  0
  -16.5895   -6.4290   -9.5430 H   0  0  0  0  0  0  0  0  0  0  0  0
  -16.5981   -2.2230  -10.4694 H   0  0  0  0  0  0  0  0  0  0  0  0
  -16.0638   -2.6315   -8.8562 H   0  0  0  0  0  0  0  0  0  0  0  0
  -18.8856   -5.3224   -9.6120 H   0  0  0  0  0  0  0  0  0  0  0  0
  -18.4973   -5.9965   -7.9698 H   0  0  0  0  0  0  0  0  0  0  0  0
  -18.4812   -1.9150   -8.8476 H   0  0  0  0  0  0  0  0  0  0  0  0
  -18.8436   -3.2177  -10.0612 H   0  0  0  0  0  0  0  0  0  0  0  0
  -21.0589   -6.8561   -2.3356 H   0  0  0  0  0  0  0  0  0  0  0  0
  1 11  1  0
  2 12  1  0
  3 28  1  0
  4 27  2  0
  5 30  2  0
  6 30  2  0
  7 24  1  0
  8  9  2  0
  8 21  1  0
  9 22  1  0
 10 21  2  0
 10 25  1  0
 11 13  1  0
 12 23  1  0
 13 20  1  0
 14 16  1  0
 14 28  1  0
 15 17  1  0
 15 28  1  0
 16 29  1  0
 17 29  1  0
 18 23  1  0
 18 26  2  0
 19 26  1  0
 19 27  1  0
 20 22  1  0
 21 30  1  0
 22 25  2  0
 23 24  2  0
 24 27  1  0
 25 26  1  0
 29 30  1  0
  1 31  1  0
  1 32  1  0
  1 33  1  0
  2 34  1  0
  2 35  1  0
  2 36  1  0
  3 37  1  0
  3 38  1  0
  3 39  1  0
  8 40  1  0
  9 41  1  0
 10 42  1  0
 11 43  1  0
 11 44  1  0
 12 45  1  0
 12 46  1  0
 13 47  1  0
 13 48  1  0
 14 49  1  0
 14 50  1  0
 15 51  1  0
 15 52  1  0
 16 53  1  0
 16 54  1  0
 17 55  1  0
 17 56  1  0
 19 57  1  0
A    1
CAA
A    2
CAB
A    3
CAC
A    4
OAD
A    5
OAE
A    6
OAF
A    7
BRAG
A    8
CAH
A    9
CAI
A   10
CAJ
A   11
CAK
A   12
CAL
A   13
CAM
A   14
CAN
A   15
CAO
A   16
CAP
A   17
CAQ
A   18
NAR
A   19
NAS
A   20
OAT
A   21
CAU
A   22
CAV
A   23
CAW
A   24
CAX
A   25
CAY
A   26
CAZ
A   27
CBA
A   28
NBB
A   29
NBC
A   30
SBD
M  END
