1A7C_RIP_A_951
     RDKit          3D

 19 19  0  0  0  0  0  0  0  0999 V2000
   -4.0130   -3.1170   22.7760 C   0  0  0  0  0  0  0  0  0  0  0  0
   -2.9790   -4.2380   22.8050 C   0  0  0  0  0  0  0  0  0  0  0  0
   -2.0360   -4.0440   23.9760 C   0  0  0  0  0  0  0  0  0  0  0  0
   -2.8440   -4.0270   25.2790 C   0  0  0  0  0  0  0  0  0  0  0  0
   -3.8980   -2.9080   25.2060 C   0  0  0  0  0  0  0  0  0  0  0  0
   -2.2540   -4.2440   21.5890 O   0  0  0  0  0  0  0  0  0  0  0  0
   -1.0600   -5.0870   24.0160 O   0  0  0  0  0  0  0  0  0  0  0  0
   -3.4770   -5.2790   25.4820 O   0  0  0  0  0  0  0  0  0  0  0  0
   -4.7320   -3.0860   24.0190 O   0  0  0  0  0  0  0  0  0  0  0  0
   -3.5034   -2.1540   22.6248 H   0  0  0  0  0  0  0  0  0  0  0  0
   -4.7195   -3.2958   21.9521 H   0  0  0  0  0  0  0  0  0  0  0  0
   -3.4922   -5.2037   22.9236 H   0  0  0  0  0  0  0  0  0  0  0  0
   -1.5087   -3.0860   23.8568 H   0  0  0  0  0  0  0  0  0  0  0  0
   -2.1661   -3.8395   26.1247 H   0  0  0  0  0  0  0  0  0  0  0  0
   -4.5308   -2.9440   26.1050 H   0  0  0  0  0  0  0  0  0  0  0  0
   -3.3889   -1.9346   25.1480 H   0  0  0  0  0  0  0  0  0  0  0  0
   -1.2833   -4.2520   21.7836 H   0  0  0  0  0  0  0  0  0  0  0  0
   -0.8525   -5.3088   24.9583 H   0  0  0  0  0  0  0  0  0  0  0  0
   -3.5640   -5.4512   26.4530 H   0  0  0  0  0  0  0  0  0  0  0  0
  1  2  1  0
  1  9  1  0
  2  3  1  0
  2  6  1  0
  3  4  1  0
  3  7  1  0
  4  5  1  0
  4  8  1  0
  5  9  1  0
  1 10  1  0
  1 11  1  0
  2 12  1  0
  3 13  1  0
  4 14  1  0
  5 15  1  0
  5 16  1  0
  6 17  1  0
  7 18  1  0
  8 19  1  0
A    1
C1
A    2
C2
A    3
C3
A    4
C4
A    5
C5
A    6
O2
A    7
O3
A    8
O4
A    9
O5
M  END
