3SJE_SDR_A_1
     RDKit          3D

 49 48  0  0  0  0  0  0  0  0999 V2000
   20.1760   43.6540   46.2410 C   0  0  0  0  0  0  0  0  0  0  0  0
   19.8970   44.5000   47.1240 O   0  0  0  0  0  0  0  0  0  0  0  0
   21.1800   42.5290   46.5310 C   0  0  0  0  0  0  0  0  0  0  0  0
   19.7940   43.7230   44.9480 N   0  0  0  0  0  0  0  0  0  0  0  0
   18.8850   44.7780   44.4100 C   0  0  0  0  0  0  0  0  0  0  0  0
   18.0830   44.2850   43.1730 C   0  0  0  0  0  0  0  0  0  0  0  0
   18.4110   43.3110   42.4900 O   0  0  0  0  0  0  0  0  0  0  0  0
   19.7030   46.0310   43.9890 C   0  0  0  0  0  0  0  0  0  0  0  0
   20.3600   46.7390   45.2030 C   0  0  0  0  0  0  0  0  0  0  0  0
   21.5630   46.4490   45.4700 O   0  0  0  0  0  0  0  0  0  0  0  0
   19.6570   47.5500   45.8250 O   0  0  0  0  0  0  0  0  0  0  0  0
   17.0280   44.6260   40.3410 C   0  0  0  0  0  0  0  0  0  0  0  0
   16.9970   44.9700   42.8520 N   0  0  0  0  0  0  0  0  0  0  0  0
   16.6750   43.8990   39.3970 O   0  0  0  0  0  0  0  0  0  0  0  0
   16.2050   44.5530   41.6690 C   0  0  0  0  0  0  0  0  0  0  0  0
   15.0170   45.5060   41.6110 C   0  0  0  0  0  0  0  0  0  0  0  0
   11.6020   49.3510   39.7270 C   0  0  0  0  0  0  0  0  0  0  0  0
   13.0960   49.7060   39.7260 C   0  0  0  0  0  0  0  0  0  0  0  0
   13.9250   48.5420   40.2710 C   0  0  0  0  0  0  0  0  0  0  0  0
   13.6130   47.2660   39.5050 C   0  0  0  0  0  0  0  0  0  0  0  0
   12.9660   46.1810   40.3670 C   0  0  0  0  0  0  0  0  0  0  0  0
   13.9630   45.0500   40.6150 C   0  0  0  0  0  0  0  0  0  0  0  0
   18.0070   45.4060   40.2990 O   0  0  0  0  0  0  0  0  0  0  0  0
   21.2893   42.4065   47.6187 H   0  0  0  0  0  0  0  0  0  0  0  0
   20.8149   41.5893   46.0910 H   0  0  0  0  0  0  0  0  0  0  0  0
   22.1551   42.7853   46.0910 H   0  0  0  0  0  0  0  0  0  0  0  0
   20.1493   43.0084   44.2968 H   0  0  0  0  0  0  0  0  0  0  0  0
   18.1786   45.0264   45.2157 H   0  0  0  0  0  0  0  0  0  0  0  0
   20.4936   45.7193   43.2906 H   0  0  0  0  0  0  0  0  0  0  0  0
   19.0097   46.7434   43.5181 H   0  0  0  0  0  0  0  0  0  0  0  0
   19.6581   47.5488   46.8150 H   0  0  0  0  0  0  0  0  0  0  0  0
   16.7058   45.7814   43.4157 H   0  0  0  0  0  0  0  0  0  0  0  0
   15.8956   43.5021   41.7679 H   0  0  0  0  0  0  0  0  0  0  0  0
   14.5595   45.5630   42.6097 H   0  0  0  0  0  0  0  0  0  0  0  0
   15.3880   46.4885   41.2839 H   0  0  0  0  0  0  0  0  0  0  0  0
   11.2459   49.2664   40.7643 H   0  0  0  0  0  0  0  0  0  0  0  0
   11.0373   50.1400   39.2087 H   0  0  0  0  0  0  0  0  0  0  0  0
   11.4526   48.3923   39.2087 H   0  0  0  0  0  0  0  0  0  0  0  0
   13.4148   49.9263   38.6965 H   0  0  0  0  0  0  0  0  0  0  0  0
   13.2526   50.5850   40.3685 H   0  0  0  0  0  0  0  0  0  0  0  0
   14.9943   48.7769   40.1640 H   0  0  0  0  0  0  0  0  0  0  0  0
   13.6758   48.3918   41.3318 H   0  0  0  0  0  0  0  0  0  0  0  0
   12.9261   47.5128   38.6820 H   0  0  0  0  0  0  0  0  0  0  0  0
   14.5703   46.8636   39.1422 H   0  0  0  0  0  0  0  0  0  0  0  0
   12.6597   46.6149   41.3303 H   0  0  0  0  0  0  0  0  0  0  0  0
   12.0860   45.7794   39.8433 H   0  0  0  0  0  0  0  0  0  0  0  0
   14.4495   44.7769   39.6670 H   0  0  0  0  0  0  0  0  0  0  0  0
   13.4307   44.1774   41.0215 H   0  0  0  0  0  0  0  0  0  0  0  0
   18.4164   45.7322   41.1393 H   0  0  0  0  0  0  0  0  0  0  0  0
 14 12  2  0
 23 12  1  0
 12 15  1  0
 15 13  1  0
 13  6  1  0
 16 15  1  0
 22 16  1  0
 18 17  1  0
  1  3  1  0
  1  2  2  0
  9 10  2  0
  7  6  2  0
  9 11  1  0
 18 19  1  0
 20 19  1  0
 20 21  1  0
 21 22  1  0
  8  5  1  0
  8  9  1  0
  5  4  1  0
  4  1  1  0
  6  5  1  0
  3 24  1  0
  3 25  1  0
  3 26  1  0
  4 27  1  0
  5 28  1  0
  8 29  1  0
  8 30  1  0
 11 31  1  0
 13 32  1  0
 15 33  1  0
 16 34  1  0
 16 35  1  0
 17 36  1  0
 17 37  1  0
 17 38  1  0
 18 39  1  0
 18 40  1  0
 19 41  1  0
 19 42  1  0
 20 43  1  0
 20 44  1  0
 21 45  1  0
 21 46  1  0
 22 47  1  0
 22 48  1  0
 23 49  1  0
A    1
CAR
A    2
OAC
A    3
CAB
A    4
NAP
A    5
CAW
A    6
CAU
A    7
OAF
A    8
CAO
A    9
CAS
A   10
OAD
A   11
OAG
A   12
C
A   13
N
A   14
O
A   15
CA
A   16
CB
A   17
CAA
A   18
CAI
A   19
CAJ
A   20
CAK
A   21
CAL
A   22
CAM
A   23
OXT
M  END
