3SJT_5AB_A_551
     RDKit          3D

 31 30  0  0  0  0  0  0  0  0999 V2000
   26.1880  -13.1650    7.0090 B   0  0  0  0  0  0  0  0  0  0  0  0
   21.2870  -17.3560    7.2430 C   0  0  0  0  0  0  0  0  0  0  0  0
   21.3700  -17.6080    5.8140 N   0  0  0  0  0  0  0  0  0  0  0  0
   20.0010  -15.8600    8.5410 O   0  0  0  0  0  0  0  0  0  0  0  0
   20.1890  -16.3220    7.4640 C   0  0  0  0  0  0  0  0  0  0  0  0
   26.5420  -13.7610    5.8190 O   0  0  0  0  0  0  0  0  0  0  0  0
   22.6200  -16.8190    7.7580 C   0  0  0  0  0  0  0  0  0  0  0  0
   26.2920  -11.7980    6.8620 O   0  0  0  0  0  0  0  0  0  0  0  0
   23.1140  -15.4660    7.2310 C   0  0  0  0  0  0  0  0  0  0  0  0
   27.0780  -13.5420    7.9840 O   0  0  0  0  0  0  0  0  0  0  0  0
   24.4960  -14.9700    7.6730 C   0  0  0  0  0  0  0  0  0  0  0  0
   19.4560  -15.8740    6.3520 O   0  0  0  0  0  0  0  0  0  0  0  0
   24.8740  -13.5220    7.3500 C   0  0  0  0  0  0  0  0  0  0  0  0
   20.9280  -18.6440    7.9670 C   0  0  0  0  0  0  0  0  0  0  0  0
   21.6883  -18.5744    5.6537 H   0  0  0  0  0  0  0  0  0  0  0  0
   20.4415  -17.4772    5.3878 H   0  0  0  0  0  0  0  0  0  0  0  0
   20.2158  -16.3879    9.3505 H   0  0  0  0  0  0  0  0  0  0  0  0
   27.0387  -14.5972    6.0037 H   0  0  0  0  0  0  0  0  0  0  0  0
   22.5345  -16.7306    8.8511 H   0  0  0  0  0  0  0  0  0  0  0  0
   23.3632  -17.5408    7.3883 H   0  0  0  0  0  0  0  0  0  0  0  0
   26.3244  -11.3716    7.7549 H   0  0  0  0  0  0  0  0  0  0  0  0
   23.1278  -15.5304    6.1330 H   0  0  0  0  0  0  0  0  0  0  0  0
   22.4143  -14.7361    7.6642 H   0  0  0  0  0  0  0  0  0  0  0  0
   26.6816  -13.3741    8.8755 H   0  0  0  0  0  0  0  0  0  0  0  0
   24.5524  -15.0875    8.7652 H   0  0  0  0  0  0  0  0  0  0  0  0
   25.2059  -15.5768    7.0918 H   0  0  0  0  0  0  0  0  0  0  0  0
   24.6115  -12.9275    8.2375 H   0  0  0  0  0  0  0  0  0  0  0  0
   24.3288  -13.3392    6.4123 H   0  0  0  0  0  0  0  0  0  0  0  0
   20.9740  -18.4789    9.0536 H   0  0  0  0  0  0  0  0  0  0  0  0
   19.9100  -18.9513    7.6856 H   0  0  0  0  0  0  0  0  0  0  0  0
   21.6403  -19.4336    7.6856 H   0  0  0  0  0  0  0  0  0  0  0  0
  1 13  1  0
  1 10  1  0
  2  5  1  0
  2  7  1  0
  2 14  1  0
  3  2  1  0
  5  4  1  0
  6  1  1  0
  8  1  1  0
  9  7  1  0
  9 11  1  0
 12  5  2  0
 13 11  1  0
  3 15  1  0
  3 16  1  0
  4 17  1  0
  6 18  1  0
  7 19  1  0
  7 20  1  0
  8 21  1  0
  9 22  1  0
  9 23  1  0
 10 24  1  0
 11 25  1  0
 11 26  1  0
 13 27  1  0
 13 28  1  0
 14 29  1  0
 14 30  1  0
 14 31  1  0
M  CHG  1   1  -1
A    1
B1
A    2
C1
A    3
N1
A    4
O1
A    5
C2
A    6
O2
A    7
C3
A    8
O3
A    9
C4
A   10
O4
A   11
C5
A   12
O5
A   13
C6
A   14
C9
M  END
