3SJX_QRG_A_1
     RDKit          3D

 38 37  0  0  0  0  0  0  0  0999 V2000
   20.1760   43.5820   46.1320 C   0  0  0  0  0  0  0  0  0  0  0  0
   19.9380   44.4200   47.0080 O   0  0  0  0  0  0  0  0  0  0  0  0
   21.1210   42.4200   46.4440 C   0  0  0  0  0  0  0  0  0  0  0  0
   19.8450   43.7300   44.8290 N   0  0  0  0  0  0  0  0  0  0  0  0
   18.9800   44.8480   44.3660 C   0  0  0  0  0  0  0  0  0  0  0  0
   18.2740   44.4270   43.0790 C   0  0  0  0  0  0  0  0  0  0  0  0
   18.6100   43.4150   42.4520 O   0  0  0  0  0  0  0  0  0  0  0  0
   19.7640   46.1120   44.0040 C   0  0  0  0  0  0  0  0  0  0  0  0
   20.4100   46.7320   45.2660 C   0  0  0  0  0  0  0  0  0  0  0  0
   21.6490   46.4740   45.4860 O   0  0  0  0  0  0  0  0  0  0  0  0
   19.6610   47.4450   45.9660 O   0  0  0  0  0  0  0  0  0  0  0  0
   17.1950   45.1260   42.7290 N   0  0  0  0  0  0  0  0  0  0  0  0
   16.3690   44.6650   41.5660 C   0  0  0  0  0  0  0  0  0  0  0  0
   17.1610   44.6970   40.2340 C   0  0  0  0  0  0  0  0  0  0  0  0
   16.8980   43.8030   39.3950 O   0  0  0  0  0  0  0  0  0  0  0  0
   15.1930   45.6700   41.4770 C   0  0  0  0  0  0  0  0  0  0  0  0
   14.3550   45.3370   40.2740 C   0  0  0  0  0  0  0  0  0  0  0  0
   13.0220   46.6060   40.1300 S   0  0  0  0  0  0  0  0  0  0  0  0
   13.8510   47.9970   39.4450 C   0  0  0  0  0  0  0  0  0  0  0  0
   18.0270   45.5810   40.1000 O   0  0  0  0  0  0  0  0  0  0  0  0
   21.2140   42.3056   47.5341 H   0  0  0  0  0  0  0  0  0  0  0  0
   20.7174   41.4928   46.0111 H   0  0  0  0  0  0  0  0  0  0  0  0
   22.1110   42.6261   46.0111 H   0  0  0  0  0  0  0  0  0  0  0  0
   20.2007   43.0518   44.1403 H   0  0  0  0  0  0  0  0  0  0  0  0
   18.2954   45.0666   45.1988 H   0  0  0  0  0  0  0  0  0  0  0  0
   20.5538   45.8536   43.2833 H   0  0  0  0  0  0  0  0  0  0  0  0
   19.0719   46.8447   43.5634 H   0  0  0  0  0  0  0  0  0  0  0  0
   19.7122   47.3963   46.9535 H   0  0  0  0  0  0  0  0  0  0  0  0
   16.9314   45.9735   43.2516 H   0  0  0  0  0  0  0  0  0  0  0  0
   16.0461   43.6242   41.7162 H   0  0  0  0  0  0  0  0  0  0  0  0
   14.5778   45.5993   42.3861 H   0  0  0  0  0  0  0  0  0  0  0  0
   15.5849   46.6937   41.3852 H   0  0  0  0  0  0  0  0  0  0  0  0
   14.9806   45.3499   39.3693 H   0  0  0  0  0  0  0  0  0  0  0  0
   13.9151   44.3347   40.3832 H   0  0  0  0  0  0  0  0  0  0  0  0
   14.2307   48.6342   40.2573 H   0  0  0  0  0  0  0  0  0  0  0  0
   14.6920   47.6537   38.8246 H   0  0  0  0  0  0  0  0  0  0  0  0
   13.1489   48.5734   38.8246 H   0  0  0  0  0  0  0  0  0  0  0  0
   18.4360   45.9985   40.8991 H   0  0  0  0  0  0  0  0  0  0  0  0
 15 14  2  0
 20 14  1  0
 14 13  1  0
 13 12  1  0
 12  6  1  0
 16 13  1  0
 17 16  1  0
 19 18  1  0
 18 17  1  0
  1  3  1  0
  1  2  2  0
  9 11  1  0
  7  6  2  0
  9 10  2  0
  8  5  1  0
  8  9  1  0
  5  4  1  0
  4  1  1  0
  6  5  1  0
  3 21  1  0
  3 22  1  0
  3 23  1  0
  4 24  1  0
  5 25  1  0
  8 26  1  0
  8 27  1  0
 11 28  1  0
 12 29  1  0
 13 30  1  0
 16 31  1  0
 16 32  1  0
 17 33  1  0
 17 34  1  0
 19 35  1  0
 19 36  1  0
 19 37  1  0
 20 38  1  0
A    1
CAO
A    2
OAC
A    3
CAB
A    4
NAL
A    5
CAT
A    6
CAR
A    7
OAF
A    8
CAK
A    9
CAP
A   10
OAG
A   11
OAD
A   12
N
A   13
CA
A   14
C
A   15
OXT
A   16
CB
A   17
CG
A   18
SD
A   19
CE
A   20
O
M  END
