3SK2_GRI_A_130
     RDKit          3D

 31 33  0  0  0  0  0  0  0  0999 V2000
    4.1670   82.6450   25.9790 C   0  0  0  0  0  0  0  0  0  0  0  0
    3.9240   88.8940   22.6010 O   0  0  0  0  0  0  0  0  0  0  0  0
   -3.3060   84.7210   25.3720 O   0  0  0  0  0  0  0  0  0  0  0  0
    4.0820   86.9570   23.7980 O   0  0  0  0  0  0  0  0  0  0  0  0
   -0.0420   89.3320   23.2260 C   0  0  0  0  0  0  0  0  0  0  0  0
    1.3100   89.1380   23.0430 C   0  0  0  0  0  0  0  0  0  0  0  0
   -0.1960   83.0250   26.7020 C   0  0  0  0  0  0  0  0  0  0  0  0
    1.1810   82.8550   26.4850 C   0  0  0  0  0  0  0  0  0  0  0  0
   -0.7790   88.3390   23.8160 C   0  0  0  0  0  0  0  0  0  0  0  0
   -2.3720   84.3180   26.4640 C   0  0  0  0  0  0  0  0  0  0  0  0
   -0.8160   86.1890   24.8850 N   0  0  0  0  0  0  0  0  0  0  0  0
    1.8510   85.8350   24.5040 N   0  0  0  0  0  0  0  0  0  0  0  0
    3.2460   83.6670   25.4630 O   0  0  0  0  0  0  0  0  0  0  0  0
    3.3670   87.9180   23.2640 C   0  0  0  0  0  0  0  0  0  0  0  0
   -0.8750   84.1410   26.1650 C   0  0  0  0  0  0  0  0  0  0  0  0
    1.8780   83.8040   25.7140 C   0  0  0  0  0  0  0  0  0  0  0  0
    1.9290   87.9870   23.4750 C   0  0  0  0  0  0  0  0  0  0  0  0
   -0.1390   87.1750   24.2810 C   0  0  0  0  0  0  0  0  0  0  0  0
   -0.1880   85.0860   25.4150 C   0  0  0  0  0  0  0  0  0  0  0  0
    1.2310   86.9790   24.0840 C   0  0  0  0  0  0  0  0  0  0  0  0
    1.1890   84.9040   25.1970 C   0  0  0  0  0  0  0  0  0  0  0  0
    4.1530   82.6605   27.0788 H   0  0  0  0  0  0  0  0  0  0  0  0
    3.8515   81.6534   25.6222 H   0  0  0  0  0  0  0  0  0  0  0  0
    5.1859   82.8559   25.6222 H   0  0  0  0  0  0  0  0  0  0  0  0
    4.1435   86.8744   24.7826 H   0  0  0  0  0  0  0  0  0  0  0  0
   -0.5214   90.2682   22.9039 H   0  0  0  0  0  0  0  0  0  0  0  0
    1.9049   89.9165   22.5430 H   0  0  0  0  0  0  0  0  0  0  0  0
   -0.7504   82.2828   27.2951 H   0  0  0  0  0  0  0  0  0  0  0  0
    1.7089   81.9899   26.9128 H   0  0  0  0  0  0  0  0  0  0  0  0
   -1.8677   88.4512   23.9259 H   0  0  0  0  0  0  0  0  0  0  0  0
   -2.7545   84.1479   27.4812 H   0  0  0  0  0  0  0  0  0  0  0  0
 13  1  1  0
  2 14  2  0
  3 10  2  0
 14  4  1  0
  6  5  2  0
  5  9  1  0
  6 17  1  0
 15  7  2  0
  8  7  1  0
 16  8  2  0
  9 18  2  0
 15 10  1  0
 18 11  1  0
 11 19  2  0
 20 12  1  0
 12 21  2  0
 13 16  1  0
 14 17  1  0
 19 15  1  0
 21 16  1  0
 17 20  2  0
 20 18  1  0
 21 19  1  0
  1 22  1  0
  1 23  1  0
  1 24  1  0
  4 25  1  0
  5 26  1  0
  6 27  1  0
  7 28  1  0
  8 29  1  0
  9 30  1  0
 10 31  1  0
A    1
CAA
A    2
OAB
A    3
OAC
A    4
OAD
A    5
CAE
A    6
CAF
A    7
CAG
A    8
CAH
A    9
CAI
A   10
CAJ
A   11
NAK
A   12
NAL
A   13
OAM
A   14
CAN
A   15
CAO
A   16
CAP
A   17
CAQ
A   18
CAR
A   19
CAS
A   20
CAT
A   21
CAU
M  END
