3SKA_053_A_578
     RDKit          3D

 46 49  0  0  0  0  0  0  0  0999 V2000
   23.1410   46.1710   45.5350 C   0  0  0  0  0  0  0  0  0  0  0  0
   23.4460   47.0140   46.5570 C   0  0  0  0  0  0  0  0  0  0  0  0
   22.5840   48.1390   46.8960 C   0  0  0  0  0  0  0  0  0  0  0  0
   21.4610   48.3640   46.1740 C   0  0  0  0  0  0  0  0  0  0  0  0
   21.1090   47.5130   45.1490 N   0  0  0  0  0  0  0  0  0  0  0  0
   21.8530   46.4130   44.7760 C   0  0  0  0  0  0  0  0  0  0  0  0
   26.9720   43.5420   42.3960 C   0  0  0  0  0  0  0  0  0  0  0  0
   27.5840   44.6090   43.0630 C   0  0  0  0  0  0  0  0  0  0  0  0
   28.7680   45.1400   42.5450 C   0  0  0  0  0  0  0  0  0  0  0  0
   29.3380   44.6730   41.4100 N   0  0  0  0  0  0  0  0  0  0  0  0
   28.7310   43.6360   40.7830 C   0  0  0  0  0  0  0  0  0  0  0  0
   27.5710   43.0370   41.2310 C   0  0  0  0  0  0  0  0  0  0  0  0
   25.0390   42.7900   48.0340 C   0  0  0  0  0  0  0  0  0  0  0  0
   25.7770   41.8890   47.2540 C   0  0  0  0  0  0  0  0  0  0  0  0
   25.8830   42.0510   45.8840 C   0  0  0  0  0  0  0  0  0  0  0  0
   24.4020   43.8930   47.4550 C   0  0  0  0  0  0  0  0  0  0  0  0
   24.4890   44.0760   46.0650 C   0  0  0  0  0  0  0  0  0  0  0  0
   25.2200   43.1500   45.3090 C   0  0  0  0  0  0  0  0  0  0  0  0
   25.1160   43.5490   44.0090 N   0  0  0  0  0  0  0  0  0  0  0  0
   24.3710   44.6910   43.8820 C   0  0  0  0  0  0  0  0  0  0  0  0
   23.9640   45.0360   45.1680 C   0  0  0  0  0  0  0  0  0  0  0  0
   24.1120   45.2850   42.5770 C   0  0  0  0  0  0  0  0  0  0  0  0
   23.8030   44.6510   41.5900 O   0  0  0  0  0  0  0  0  0  0  0  0
   25.7100   42.8770   42.8560 C   0  0  0  0  0  0  0  0  0  0  0  0
   24.9450   42.5360   49.4940 C   0  0  0  0  0  0  0  0  0  0  0  0
   24.0550   46.6290   42.5910 O   0  0  0  0  0  0  0  0  0  0  0  0
   24.4710   41.3030   49.7530 F   0  0  0  0  0  0  0  0  0  0  0  0
   26.1380   42.6110   50.1120 F   0  0  0  0  0  0  0  0  0  0  0  0
   24.1600   43.4100   50.1460 F   0  0  0  0  0  0  0  0  0  0  0  0
   21.4870   45.6570   43.8610 O   0  0  0  0  0  0  0  0  0  0  0  0
   29.3730   46.1860   43.2360 N   0  0  0  0  0  0  0  0  0  0  0  0
   24.3628   46.8433   47.1404 H   0  0  0  0  0  0  0  0  0  0  0  0
   22.8444   48.8020   47.7342 H   0  0  0  0  0  0  0  0  0  0  0  0
   20.8258   49.2313   46.4070 H   0  0  0  0  0  0  0  0  0  0  0  0
   20.2404   47.7096   44.6316 H   0  0  0  0  0  0  0  0  0  0  0  0
   27.1401   45.0231   43.9803 H   0  0  0  0  0  0  0  0  0  0  0  0
   29.1904   43.2485   39.8617 H   0  0  0  0  0  0  0  0  0  0  0  0
   27.1282   42.1876   40.6903 H   0  0  0  0  0  0  0  0  0  0  0  0
   26.2800   41.0394   47.7389 H   0  0  0  0  0  0  0  0  0  0  0  0
   26.4632   41.3477   45.2686 H   0  0  0  0  0  0  0  0  0  0  0  0
   23.8420   44.6056   48.0784 H   0  0  0  0  0  0  0  0  0  0  0  0
   24.9844   42.8856   42.0293 H   0  0  0  0  0  0  0  0  0  0  0  0
   25.9627   41.8502   43.1591 H   0  0  0  0  0  0  0  0  0  0  0  0
   24.0344   47.1146   43.4535 H   0  0  0  0  0  0  0  0  0  0  0  0
   29.3751   46.1897   44.2660 H   0  0  0  0  0  0  0  0  0  0  0  0
   29.8185   46.9563   42.7173 H   0  0  0  0  0  0  0  0  0  0  0  0
  1  2  2  0
  6  1  1  0
 21  1  1  0
  2  3  1  0
  3  4  2  0
  5  4  1  0
  6  5  1  0
 30  6  2  0
 12  7  1  0
  7 24  1  0
  7  8  2  0
  9  8  1  0
 10  9  2  0
  9 31  1  0
 11 10  1  0
 11 12  2  0
 14 13  2  0
 16 13  1  0
 13 25  1  0
 15 14  1  0
 18 15  2  0
 17 16  2  0
 21 17  1  0
 18 17  1  0
 19 18  1  0
 24 19  1  0
 20 19  1  0
 22 20  1  0
 20 21  2  0
 23 22  2  0
 22 26  1  0
 25 27  1  0
 25 28  1  0
 25 29  1  0
  2 32  1  0
  3 33  1  0
  4 34  1  0
  5 35  1  0
  8 36  1  0
 11 37  1  0
 12 38  1  0
 14 39  1  0
 15 40  1  0
 16 41  1  0
 24 42  1  0
 24 43  1  0
 26 44  1  0
 31 45  1  0
 31 46  1  0
A    1
C1
A    2
C2
A    3
C3
A    4
C4
A    5
N5
A    6
C6
A    7
C7
A    8
C8
A    9
C9
A   10
N10
A   11
C11
A   12
C12
A   13
C13
A   14
C14
A   15
C15
A   16
C16
A   17
C17
A   18
C18
A   19
N19
A   20
C20
A   21
C21
A   22
C22
A   23
O23
A   24
C24
A   25
C25
A   26
O26
A   27
F27
A   28
F28
A   29
F29
A   30
O30
A   31
N31
M  END
