3SKC_BR2_A_801
     RDKit          3D

 47 50  0  0  0  0  0  0  0  0999 V2000
   13.6810  -26.7530   -2.0530 C   0  0  0  0  0  0  0  0  0  0  0  0
   12.8840  -27.9690   -2.3100 C   0  0  0  0  0  0  0  0  0  0  0  0
   13.2550  -25.6370   -2.3360 O   0  0  0  0  0  0  0  0  0  0  0  0
   12.5520  -28.2050   -3.6130 C   0  0  0  0  0  0  0  0  0  0  0  0
   11.8260  -29.3850   -3.9640 C   0  0  0  0  0  0  0  0  0  0  0  0
   11.4290  -30.3030   -2.9760 C   0  0  0  0  0  0  0  0  0  0  0  0
   11.7470  -30.0580   -1.6400 C   0  0  0  0  0  0  0  0  0  0  0  0
   12.4700  -28.9010   -1.2940 C   0  0  0  0  0  0  0  0  0  0  0  0
   12.7850  -28.6720   -0.0070 F   0  0  0  0  0  0  0  0  0  0  0  0
   12.9380  -27.3310   -4.5640 F   0  0  0  0  0  0  0  0  0  0  0  0
   11.5660  -29.5860   -5.2370 N   0  0  0  0  0  0  0  0  0  0  0  0
   14.8970  -27.0190   -1.5250 N   0  0  0  0  0  0  0  0  0  0  0  0
   15.9420  -26.1320   -1.1550 C   0  0  0  0  0  0  0  0  0  0  0  0
   15.7210  -24.7700   -0.8910 C   0  0  0  0  0  0  0  0  0  0  0  0
   16.8240  -24.0100   -0.5130 C   0  0  0  0  0  0  0  0  0  0  0  0
   18.0700  -24.6140   -0.4240 C   0  0  0  0  0  0  0  0  0  0  0  0
   18.3490  -25.9180   -0.6690 N   0  0  0  0  0  0  0  0  0  0  0  0
   17.2760  -26.6410   -1.0290 C   0  0  0  0  0  0  0  0  0  0  0  0
   17.0100  -22.7010   -0.1810 C   0  0  0  0  0  0  0  0  0  0  0  0
   18.2670  -22.4390    0.1120 N   0  0  0  0  0  0  0  0  0  0  0  0
   18.9000  -23.6400   -0.0450 N   0  0  0  0  0  0  0  0  0  0  0  0
   16.0720  -21.7360   -0.1330 O   0  0  0  0  0  0  0  0  0  0  0  0
   16.5120  -20.4370    0.2500 C   0  0  0  0  0  0  0  0  0  0  0  0
   10.8180  -30.8810   -5.9920 S   0  0  0  0  0  0  0  0  0  0  0  0
   12.2410  -31.8610   -6.3890 C   0  0  0  0  0  0  0  0  0  0  0  0
   12.9800  -31.5550   -7.5410 C   0  0  0  0  0  0  0  0  0  0  0  0
   14.1260  -32.3000   -7.8560 C   0  0  0  0  0  0  0  0  0  0  0  0
   14.5360  -33.3620   -7.0020 C   0  0  0  0  0  0  0  0  0  0  0  0
   13.7830  -33.6600   -5.8410 C   0  0  0  0  0  0  0  0  0  0  0  0
   12.6340  -32.9000   -5.5390 C   0  0  0  0  0  0  0  0  0  0  0  0
    9.9970  -31.5610   -4.9830 O   0  0  0  0  0  0  0  0  0  0  0  0
   10.2350  -30.3420   -7.2220 O   0  0  0  0  0  0  0  0  0  0  0  0
   10.8710  -31.2090   -3.2548 H   0  0  0  0  0  0  0  0  0  0  0  0
   11.4337  -30.7668   -0.8594 H   0  0  0  0  0  0  0  0  0  0  0  0
   11.8691  -28.8303   -5.8678 H   0  0  0  0  0  0  0  0  0  0  0  0
   15.0954  -28.0173   -1.3672 H   0  0  0  0  0  0  0  0  0  0  0  0
   15.7564  -26.3558   -0.0941 H   0  0  0  0  0  0  0  0  0  0  0  0
   14.7196  -24.3235   -0.9792 H   0  0  0  0  0  0  0  0  0  0  0  0
   17.4333  -27.7082   -1.2442 H   0  0  0  0  0  0  0  0  0  0  0  0
   16.5358  -20.3667    1.3475 H   0  0  0  0  0  0  0  0  0  0  0  0
   17.5207  -20.2586   -0.1508 H   0  0  0  0  0  0  0  0  0  0  0  0
   15.8194  -19.6823   -0.1508 H   0  0  0  0  0  0  0  0  0  0  0  0
   12.6612  -30.7315   -8.1969 H   0  0  0  0  0  0  0  0  0  0  0  0
   14.7060  -32.0641   -8.7604 H   0  0  0  0  0  0  0  0  0  0  0  0
   15.4345  -33.9490   -7.2431 H   0  0  0  0  0  0  0  0  0  0  0  0
   14.0927  -34.4807   -5.1773 H   0  0  0  0  0  0  0  0  0  0  0  0
   12.0474  -33.1241   -4.6358 H   0  0  0  0  0  0  0  0  0  0  0  0
  3  1  2  0
  2  1  1  0
  1 12  1  0
  4  2  2  0
  2  8  1  0
 10  4  1  0
  5  4  1  0
 11  5  1  0
  5  6  2  0
  6  7  1  0
  7  8  2  0
  8  9  1  0
 24 11  1  0
 12 13  1  0
 13 18  1  0
 13 14  1  0
 14 15  2  0
 15 16  1  0
 15 19  1  0
 17 16  1  0
 16 21  2  0
 18 17  2  0
 19 22  1  0
 19 20  2  0
 21 20  1  0
 22 23  1  0
 32 24  2  0
 25 24  1  0
 24 31  2  0
 26 25  2  0
 25 30  1  0
 27 26  1  0
 27 28  2  0
 28 29  1  0
 29 30  2  0
  6 33  1  0
  7 34  1  0
 11 35  1  0
 12 36  1  0
 13 37  1  0
 14 38  1  0
 18 39  1  0
 23 40  1  0
 23 41  1  0
 23 42  1  0
 26 43  1  0
 27 44  1  0
 28 45  1  0
 29 46  1  0
 30 47  1  0
A    1
C1
A    2
C2
A    3
O3
A    4
C4
A    5
C5
A    6
C6
A    7
C7
A    8
C8
A    9
F9
A   10
F10
A   11
N11
A   12
N12
A   13
C13
A   14
C14
A   15
C15
A   16
C16
A   17
N17
A   18
C18
A   19
C19
A   20
N20
A   21
N21
A   22
O22
A   23
C23
A   24
S24
A   25
C25
A   26
C26
A   27
C27
A   28
C28
A   29
C29
A   30
C30
A   31
O31
A   32
O32
M  END
