3SL5_J25_A_1
     RDKit          3D

 50 52  0  0  0  0  0  0  0  0999 V2000
  -21.7130    7.3930   28.9430 C   0  0  0  0  0  0  0  0  0  0  0  0
  -21.6020    6.4030   30.0660 C   0  0  0  0  0  0  0  0  0  0  0  0
  -21.2550    5.0320   29.5550 C   0  0  0  0  0  0  0  0  0  0  0  0
  -21.0610    5.0390   27.8290 S   0  0  0  0  0  0  0  0  0  0  0  0
  -21.4320    6.7340   27.6580 C   0  0  0  0  0  0  0  0  0  0  0  0
  -21.4540    7.3890   26.3130 C   0  0  0  0  0  0  0  0  0  0  0  0
  -22.2630    8.6210   26.3670 N   0  0  0  0  0  0  0  0  0  0  0  0
  -22.8220    9.1560   27.6290 C   0  0  0  0  0  0  0  0  0  0  0  0
  -22.0420    8.8560   28.9190 C   0  0  0  0  0  0  0  0  0  0  0  0
  -21.0610    3.9390   30.3470 N   0  0  0  0  0  0  0  0  0  0  0  0
  -21.2820    2.6720   29.9760 C   0  0  0  0  0  0  0  0  0  0  0  0
  -22.4680    1.9940   30.6370 C   0  0  0  0  0  0  0  0  0  0  0  0
  -22.6130    2.4530   32.0750 C   0  0  0  0  0  0  0  0  0  0  0  0
  -23.6850    2.8930   32.8430 C   0  0  0  0  0  0  0  0  0  0  0  0
  -23.3130    3.2210   34.1570 C   0  0  0  0  0  0  0  0  0  0  0  0
  -21.9680    3.0670   34.4940 C   0  0  0  0  0  0  0  0  0  0  0  0
  -21.1930    2.4810   33.0600 S   0  0  0  0  0  0  0  0  0  0  0  0
  -20.5770    2.0700   29.1710 O   0  0  0  0  0  0  0  0  0  0  0  0
  -21.8500    6.7800   31.4840 C   0  0  0  0  0  0  0  0  0  0  0  0
  -21.8660    8.1890   31.8160 O   0  0  0  0  0  0  0  0  0  0  0  0
  -22.6760    8.6550   32.8900 C   0  0  0  0  0  0  0  0  0  0  0  0
  -22.0450    9.9180   33.4340 C   0  0  0  0  0  0  0  0  0  0  0  0
  -22.0700    5.9470   32.3560 O   0  0  0  0  0  0  0  0  0  0  0  0
  -22.5640    9.2640   25.2320 C   0  0  0  0  0  0  0  0  0  0  0  0
  -21.5500    9.6160   24.2240 O   0  0  0  0  0  0  0  0  0  0  0  0
  -20.1410    9.4300   24.4230 C   0  0  0  0  0  0  0  0  0  0  0  0
  -19.4440    9.1770   23.1000 C   0  0  0  0  0  0  0  0  0  0  0  0
  -23.7300    9.5640   24.9990 O   0  0  0  0  0  0  0  0  0  0  0  0
  -20.4260    7.6407   26.0132 H   0  0  0  0  0  0  0  0  0  0  0  0
  -21.8964    6.6974   25.5809 H   0  0  0  0  0  0  0  0  0  0  0  0
  -22.8863   10.2493   27.5265 H   0  0  0  0  0  0  0  0  0  0  0  0
  -23.7881    8.6449   27.7534 H   0  0  0  0  0  0  0  0  0  0  0  0
  -22.6575    9.1129   29.7937 H   0  0  0  0  0  0  0  0  0  0  0  0
  -21.1180    9.4520   28.9496 H   0  0  0  0  0  0  0  0  0  0  0  0
  -20.7179    4.1009   31.3046 H   0  0  0  0  0  0  0  0  0  0  0  0
  -23.3839    2.2470   30.0828 H   0  0  0  0  0  0  0  0  0  0  0  0
  -22.3050    0.9062   30.6271 H   0  0  0  0  0  0  0  0  0  0  0  0
  -24.7138    2.9754   32.4625 H   0  0  0  0  0  0  0  0  0  0  0  0
  -24.0501    3.5836   34.8886 H   0  0  0  0  0  0  0  0  0  0  0  0
  -21.4981    3.2743   35.4667 H   0  0  0  0  0  0  0  0  0  0  0  0
  -23.6912    8.8712   32.5260 H   0  0  0  0  0  0  0  0  0  0  0  0
  -22.7445    7.8906   33.6781 H   0  0  0  0  0  0  0  0  0  0  0  0
  -22.0587    9.8905   34.5336 H   0  0  0  0  0  0  0  0  0  0  0  0
  -21.0053    9.9895   33.0820 H   0  0  0  0  0  0  0  0  0  0  0  0
  -22.6122   10.7923   33.0820 H   0  0  0  0  0  0  0  0  0  0  0  0
  -19.7190   10.3337   24.8869 H   0  0  0  0  0  0  0  0  0  0  0  0
  -19.9871    8.5592   25.0772 H   0  0  0  0  0  0  0  0  0  0  0  0
  -18.4251    8.8072   23.2872 H   0  0  0  0  0  0  0  0  0  0  0  0
  -20.0071    8.4259   22.5266 H   0  0  0  0  0  0  0  0  0  0  0  0
  -19.3942   10.1144   22.5266 H   0  0  0  0  0  0  0  0  0  0  0  0
  5  1  2  0
  9  1  1  0
  1  2  1  0
  3  2  2  0
  2 19  1  0
  4  3  1  0
  3 10  1  0
  5  4  1  0
  6  5  1  0
  6  7  1  0
 24  7  1  0
  7  8  1  0
  8  9  1  0
 11 10  1  0
 18 11  2  0
 11 12  1  0
 12 13  1  0
 13 17  1  0
 13 14  2  0
 14 15  1  0
 15 16  2  0
 17 16  1  0
 19 20  1  0
 19 23  2  0
 20 21  1  0
 22 21  1  0
 28 24  2  0
 25 24  1  0
 25 26  1  0
 27 26  1  0
  6 29  1  0
  6 30  1  0
  8 31  1  0
  8 32  1  0
  9 33  1  0
  9 34  1  0
 10 35  1  0
 12 36  1  0
 12 37  1  0
 14 38  1  0
 15 39  1  0
 16 40  1  0
 21 41  1  0
 21 42  1  0
 22 43  1  0
 22 44  1  0
 22 45  1  0
 26 46  1  0
 26 47  1  0
 27 48  1  0
 27 49  1  0
 27 50  1  0
A    1
C1
A    2
C2
A    3
C3
A    4
S4
A    5
C5
A    6
C6
A    7
N7
A    8
C8
A    9
C9
A   10
N10
A   11
C11
A   12
C12
A   13
C13
A   14
C14
A   15
C15
A   16
C16
A   17
S17
A   18
O18
A   19
C19
A   20
O20
A   21
C21
A   22
C22
A   23
O23
A   24
C24
A   25
O25
A   26
C26
A   27
C27
A   28
O28
M  END
