3SL8_JN7_A_18
     RDKit          3D

 55 58  0  0  0  0  0  0  0  0999 V2000
   72.0580   -9.3670   29.6650 C   0  0  0  0  0  0  0  0  0  0  0  0
   71.7730  -10.0400   28.2930 C   0  0  0  0  0  0  0  0  0  0  0  0
   72.0160   -9.1480   27.1720 N   0  0  0  0  0  0  0  0  0  0  0  0
   71.2150   -7.9180   27.0990 C   0  0  0  0  0  0  0  0  0  0  0  0
   71.3320   -7.1430   28.4070 C   0  0  0  0  0  0  0  0  0  0  0  0
   71.7610   -7.8480   29.6770 C   0  0  0  0  0  0  0  0  0  0  0  0
   71.1130   -5.5850   28.7230 S   0  0  0  0  0  0  0  0  0  0  0  0
   71.4400   -5.3840   30.3680 C   0  0  0  0  0  0  0  0  0  0  0  0
   71.8260   -6.7130   30.9490 C   0  0  0  0  0  0  0  0  0  0  0  0
   73.2510   -9.0580   26.4110 C   0  0  0  0  0  0  0  0  0  0  0  0
   73.5880   -7.9720   25.8530 O   0  0  0  0  0  0  0  0  0  0  0  0
   74.0860  -10.0170   26.5060 O   0  0  0  0  0  0  0  0  0  0  0  0
   75.2290  -10.1000   25.7260 C   0  0  0  0  0  0  0  0  0  0  0  0
   76.3030  -11.0340   26.1880 C   0  0  0  0  0  0  0  0  0  0  0  0
   72.2140   -6.9000   32.4040 C   0  0  0  0  0  0  0  0  0  0  0  0
   71.4180   -4.1500   31.1270 N   0  0  0  0  0  0  0  0  0  0  0  0
   71.4240   -2.8130   30.5780 C   0  0  0  0  0  0  0  0  0  0  0  0
   71.4890   -1.7000   31.5820 C   0  0  0  0  0  0  0  0  0  0  0  0
   71.7690   -2.1030   33.0110 C   0  0  0  0  0  0  0  0  0  0  0  0
   73.1950   -2.6440   33.6470 S   0  0  0  0  0  0  0  0  0  0  0  0
   72.9270   -2.9530   35.2140 C   0  0  0  0  0  0  0  0  0  0  0  0
   71.4600   -2.6310   35.5340 C   0  0  0  0  0  0  0  0  0  0  0  0
   70.7260   -2.0990   34.1610 C   0  0  0  0  0  0  0  0  0  0  0  0
   71.0760   -2.5890   29.4310 O   0  0  0  0  0  0  0  0  0  0  0  0
   72.0200   -7.9490   33.1080 O   0  0  0  0  0  0  0  0  0  0  0  0
   72.5510   -5.8680   33.0380 O   0  0  0  0  0  0  0  0  0  0  0  0
   71.8820   -9.2350   32.6060 C   0  0  0  0  0  0  0  0  0  0  0  0
   70.7440  -10.1180   33.1510 C   0  0  0  0  0  0  0  0  0  0  0  0
   71.3820  -11.4670   33.5570 C   0  0  0  0  0  0  0  0  0  0  0  0
   72.6660  -11.5620   32.7340 C   0  0  0  0  0  0  0  0  0  0  0  0
   73.1220  -10.1240   32.5270 C   0  0  0  0  0  0  0  0  0  0  0  0
   73.1190   -9.5170   29.9134 H   0  0  0  0  0  0  0  0  0  0  0  0
   71.3888   -9.8350   30.4020 H   0  0  0  0  0  0  0  0  0  0  0  0
   72.4244  -10.9204   28.1903 H   0  0  0  0  0  0  0  0  0  0  0  0
   70.7089  -10.3182   28.2729 H   0  0  0  0  0  0  0  0  0  0  0  0
   71.5811   -7.2932   26.2710 H   0  0  0  0  0  0  0  0  0  0  0  0
   70.1610   -8.1823   26.9281 H   0  0  0  0  0  0  0  0  0  0  0  0
   75.3416   -9.5052   24.8075 H   0  0  0  0  0  0  0  0  0  0  0  0
   77.2303  -11.1372   25.6053 H   0  0  0  0  0  0  0  0  0  0  0  0
   76.1652  -11.6174   27.1103 H   0  0  0  0  0  0  0  0  0  0  0  0
   71.3960   -4.2333   32.1534 H   0  0  0  0  0  0  0  0  0  0  0  0
   72.2853   -1.0099   31.2662 H   0  0  0  0  0  0  0  0  0  0  0  0
   70.4823   -1.2568   31.5941 H   0  0  0  0  0  0  0  0  0  0  0  0
   73.6718   -3.3307   35.9300 H   0  0  0  0  0  0  0  0  0  0  0  0
   70.9797   -2.7382   36.5178 H   0  0  0  0  0  0  0  0  0  0  0  0
   69.6734   -1.7921   34.0727 H   0  0  0  0  0  0  0  0  0  0  0  0
   71.6201   -8.8876   31.5957 H   0  0  0  0  0  0  0  0  0  0  0  0
   70.2794   -9.6400   34.0260 H   0  0  0  0  0  0  0  0  0  0  0  0
   69.9597  -10.2639   32.3936 H   0  0  0  0  0  0  0  0  0  0  0  0
   71.6109  -11.4780   34.6329 H   0  0  0  0  0  0  0  0  0  0  0  0
   70.7077  -12.3156   33.3693 H   0  0  0  0  0  0  0  0  0  0  0  0
   73.4313  -12.1335   33.2796 H   0  0  0  0  0  0  0  0  0  0  0  0
   72.5012  -12.0802   31.7778 H   0  0  0  0  0  0  0  0  0  0  0  0
   73.5977  -10.0188   31.5408 H   0  0  0  0  0  0  0  0  0  0  0  0
   73.8560   -9.8354   33.2938 H   0  0  0  0  0  0  0  0  0  0  0  0
  6  1  1  0
  1  2  1  0
  2  3  1  0
  4  3  1  0
  3 10  1  0
  5  4  1  0
  6  5  2  0
  7  5  1  0
  9  6  1  0
  8  7  1  0
 16  8  1  0
  9  8  2  0
 15  9  1  0
 12 10  1  0
 10 11  2  0
 12 13  1  0
 13 14  2  3
 26 15  2  0
 25 15  1  0
 16 17  1  0
 18 17  1  0
 17 24  2  0
 19 18  1  0
 20 19  1  0
 23 19  2  0
 21 20  1  0
 21 22  2  0
 22 23  1  0
 27 25  1  0
 28 27  1  0
 31 27  1  0
 28 29  1  0
 29 30  1  0
 31 30  1  0
  1 32  1  0
  1 33  1  0
  2 34  1  0
  2 35  1  0
  4 36  1  0
  4 37  1  0
 13 38  1  0
 14 39  1  0
 14 40  1  0
 16 41  1  0
 18 42  1  0
 18 43  1  0
 21 44  1  0
 22 45  1  0
 23 46  1  0
 27 47  1  0
 28 48  1  0
 28 49  1  0
 29 50  1  0
 29 51  1  0
 30 52  1  0
 30 53  1  0
 31 54  1  0
 31 55  1  0
A    1
C1
A    2
C2
A    3
N3
A    4
C4
A    5
C5
A    6
C6
A    7
S7
A    8
C8
A    9
C9
A   10
C10
A   11
O11
A   12
O12
A   13
C13
A   14
C14
A   15
C15
A   16
N16
A   17
C17
A   18
C18
A   19
C19
A   20
S20
A   21
C21
A   22
C22
A   23
C23
A   24
O24
A   25
O25
A   26
O26
A   27
C27
A   28
C28
A   29
C29
A   30
C30
A   31
C31
M  END
