3SLS_77D_A_500
     RDKit          3D

 57 60  0  0  0  0  0  0  0  0999 V2000
  -13.3300   22.6580  -34.4310 N   0  0  0  0  0  0  0  0  0  0  0  0
  -14.4780   23.3490  -33.9110 C   0  0  0  0  0  0  0  0  0  0  0  0
  -15.4960   22.3550  -33.4100 C   0  0  0  0  0  0  0  0  0  0  0  0
  -16.8140   23.0640  -33.1920 C   0  0  0  0  0  0  0  0  0  0  0  0
  -15.6930   21.2560  -34.4380 C   0  0  0  0  0  0  0  0  0  0  0  0
  -15.0220   21.8250  -32.0670 C   0  0  0  0  0  0  0  0  0  0  0  0
  -13.8970   20.8660  -32.1140 C   0  0  0  0  0  0  0  0  0  0  0  0
  -13.9110   19.6160  -31.4350 C   0  0  0  0  0  0  0  0  0  0  0  0
  -14.9880   19.1060  -30.6240 C   0  0  0  0  0  0  0  0  0  0  0  0
  -15.6210   20.0960  -29.9160 N   0  0  0  0  0  0  0  0  0  0  0  0
  -16.7340   19.8070  -29.0570 C   0  0  0  0  0  0  0  0  0  0  0  0
  -16.6430   20.6400  -27.7930 C   0  0  0  0  0  0  0  0  0  0  0  0
  -17.7800   20.2100  -26.9430 N   0  0  0  0  0  0  0  0  0  0  0  0
  -19.1160   20.4620  -27.5480 C   0  0  0  0  0  0  0  0  0  0  0  0
  -19.1850   19.6820  -28.8450 C   0  0  0  0  0  0  0  0  0  0  0  0
  -18.0440   20.0850  -29.7590 C   0  0  0  0  0  0  0  0  0  0  0  0
  -15.2840   17.9200  -30.6000 O   0  0  0  0  0  0  0  0  0  0  0  0
  -12.7600   18.8760  -31.6230 C   0  0  0  0  0  0  0  0  0  0  0  0
  -12.5540   17.6450  -31.0770 N   0  0  0  0  0  0  0  0  0  0  0  0
  -11.4350   16.8110  -31.2750 C   0  0  0  0  0  0  0  0  0  0  0  0
  -11.6420   15.4740  -31.5570 C   0  0  0  0  0  0  0  0  0  0  0  0
  -12.8960   14.9970  -31.6550 F   0  0  0  0  0  0  0  0  0  0  0  0
  -10.5890   14.6100  -31.7400 C   0  0  0  0  0  0  0  0  0  0  0  0
   -9.3050   15.0870  -31.6320 C   0  0  0  0  0  0  0  0  0  0  0  0
   -7.6970   13.7930  -31.8910 I   0  0  0  0  0  0  0  0  0  0  0  0
   -9.0780   16.4180  -31.3480 C   0  0  0  0  0  0  0  0  0  0  0  0
  -10.1410   17.2760  -31.1700 C   0  0  0  0  0  0  0  0  0  0  0  0
  -11.6560   19.7240  -32.6360 S   0  0  0  0  0  0  0  0  0  0  0  0
  -12.7220   21.0620  -32.8090 C   0  0  0  0  0  0  0  0  0  0  0  0
  -12.3260   22.1870  -33.6230 C   0  0  0  0  0  0  0  0  0  0  0  0
  -11.2110   22.6750  -33.6460 O   0  0  0  0  0  0  0  0  0  0  0  0
  -13.2583   22.5109  -35.4479 H   0  0  0  0  0  0  0  0  0  0  0  0
  -14.1660   24.0003  -33.0813 H   0  0  0  0  0  0  0  0  0  0  0  0
  -14.9282   23.9541  -34.7117 H   0  0  0  0  0  0  0  0  0  0  0  0
  -17.0019   23.1651  -32.1129 H   0  0  0  0  0  0  0  0  0  0  0  0
  -16.7739   24.0623  -33.6523 H   0  0  0  0  0  0  0  0  0  0  0  0
  -17.6249   22.4803  -33.6523 H   0  0  0  0  0  0  0  0  0  0  0  0
  -15.8645   20.2990  -33.9234 H   0  0  0  0  0  0  0  0  0  0  0  0
  -16.5627   21.4947  -35.0678 H   0  0  0  0  0  0  0  0  0  0  0  0
  -14.7946   21.1777  -35.0678 H   0  0  0  0  0  0  0  0  0  0  0  0
  -14.7074   22.6846  -31.4570 H   0  0  0  0  0  0  0  0  0  0  0  0
  -15.8728   21.2670  -31.6490 H   0  0  0  0  0  0  0  0  0  0  0  0
  -15.2904   21.0676  -30.0027 H   0  0  0  0  0  0  0  0  0  0  0  0
  -16.6986   18.7392  -28.7950 H   0  0  0  0  0  0  0  0  0  0  0  0
  -15.6885   20.4533  -27.2791 H   0  0  0  0  0  0  0  0  0  0  0  0
  -16.6870   21.7167  -28.0136 H   0  0  0  0  0  0  0  0  0  0  0  0
  -17.6892   19.1991  -26.7675 H   0  0  0  0  0  0  0  0  0  0  0  0
  -19.9078   20.1231  -26.8637 H   0  0  0  0  0  0  0  0  0  0  0  0
  -19.2594   21.5365  -27.7348 H   0  0  0  0  0  0  0  0  0  0  0  0
  -19.1131   18.6063  -28.6265 H   0  0  0  0  0  0  0  0  0  0  0  0
  -20.1401   19.9003  -29.3451 H   0  0  0  0  0  0  0  0  0  0  0  0
  -18.1181   21.1576  -29.9916 H   0  0  0  0  0  0  0  0  0  0  0  0
  -18.0950   19.5099  -30.6953 H   0  0  0  0  0  0  0  0  0  0  0  0
  -13.2925   17.2865  -30.4550 H   0  0  0  0  0  0  0  0  0  0  0  0
  -10.7718   13.5500  -31.9700 H   0  0  0  0  0  0  0  0  0  0  0  0
   -8.0478   16.7942  -31.2637 H   0  0  0  0  0  0  0  0  0  0  0  0
   -9.9568   18.3365  -30.9432 H   0  0  0  0  0  0  0  0  0  0  0  0
  1 30  1  0
  1  2  1  0
  2  3  1  0
  5  3  1  0
  3  4  1  0
  3  6  1  0
  7  6  1  0
 29  7  2  0
  7  8  1  0
 18  8  2  0
  8  9  1  0
  9 17  2  0
  9 10  1  0
 10 11  1  0
 16 11  1  0
 11 12  1  0
 12 13  1  0
 14 13  1  0
 15 14  1  0
 16 15  1  0
 28 18  1  0
 18 19  1  0
 20 19  1  0
 27 20  1  0
 21 20  2  0
 23 21  1  0
 21 22  1  0
 24 23  2  0
 25 24  1  0
 24 26  1  0
 26 27  2  0
 28 29  1  0
 30 29  1  0
 31 30  2  0
  1 32  1  0
  2 33  1  0
  2 34  1  0
  4 35  1  0
  4 36  1  0
  4 37  1  0
  5 38  1  0
  5 39  1  0
  5 40  1  0
  6 41  1  0
  6 42  1  0
 10 43  1  0
 11 44  1  0
 12 45  1  0
 12 46  1  0
 13 47  1  0
 14 48  1  0
 14 49  1  0
 15 50  1  0
 15 51  1  0
 16 52  1  0
 16 53  1  0
 19 54  1  0
 23 55  1  0
 26 56  1  0
 27 57  1  0
A    1
N01
A    2
C02
A    3
C03
A    4
C04
A    5
C05
A    6
C06
A    7
C07
A    8
C08
A    9
C09
A   10
N10
A   11
C11
A   12
C12
A   13
N13
A   14
C14
A   15
C15
A   16
C16
A   17
O17
A   18
C18
A   19
N19
A   20
C20
A   21
C21
A   22
F22
A   23
C23
A   24
C24
A   25
I25
A   26
C26
A   27
C27
A   28
S28
A   29
C29
A   30
C30
A   31
O31
M  END
