3SM0_AEK_A_501
     RDKit          3D

 49 52  0  0  0  0  0  0  0  0999 V2000
   19.0630   18.2860   16.1730 N   0  0  0  0  0  0  0  0  0  0  0  0
   14.1100   14.7760   17.7000 N   0  0  0  0  0  0  0  0  0  0  0  0
   16.3410   16.9230   19.9570 C   0  0  0  0  0  0  0  0  0  0  0  0
   15.0170   16.4290   19.3650 C   0  0  0  0  0  0  0  0  0  0  0  0
   15.2400   15.1070   18.5950 C   0  0  0  0  0  0  0  0  0  0  0  0
   12.7590   14.9490   18.2860 C   0  0  0  0  0  0  0  0  0  0  0  0
   11.6470   14.7750   17.1870 C   0  0  0  0  0  0  0  0  0  0  0  0
    9.3200   15.2820   16.7140 C   0  0  0  0  0  0  0  0  0  0  0  0
   16.6590   16.9100   21.3200 C   0  0  0  0  0  0  0  0  0  0  0  0
   18.1460   17.2660   23.2810 C   0  0  0  0  0  0  0  0  0  0  0  0
   18.9290   17.7730   20.9300 C   0  0  0  0  0  0  0  0  0  0  0  0
   18.2510   18.1030   14.9560 C   0  0  0  0  0  0  0  0  0  0  0  0
   18.5790   17.9880   17.4040 C   0  0  0  0  0  0  0  0  0  0  0  0
   17.3720   17.5130   17.7540 N   0  0  0  0  0  0  0  0  0  0  0  0
   17.3560   17.3770   19.1110 C   0  0  0  0  0  0  0  0  0  0  0  0
   10.2290   14.7440   17.8190 C   0  0  0  0  0  0  0  0  0  0  0  0
   10.1580   16.2290   15.8440 C   0  0  0  0  0  0  0  0  0  0  0  0
   11.6350   16.0450   16.2770 C   0  0  0  0  0  0  0  0  0  0  0  0
   15.7170   16.4820   22.2000 N   0  0  0  0  0  0  0  0  0  0  0  0
   15.9490   16.4450   23.4810 C   0  0  0  0  0  0  0  0  0  0  0  0
   17.1190   16.8180   24.0640 N   0  0  0  0  0  0  0  0  0  0  0  0
   19.2160   17.6130   23.7710 O   0  0  0  0  0  0  0  0  0  0  0  0
   17.9200   17.3230   21.7950 C   0  0  0  0  0  0  0  0  0  0  0  0
   18.5920   17.7800   19.5800 C   0  0  0  0  0  0  0  0  0  0  0  0
   19.3140   18.1460   18.5180 N   0  0  0  0  0  0  0  0  0  0  0  0
   20.0227   18.6496   16.0858 H   0  0  0  0  0  0  0  0  0  0  0  0
   14.2086   13.7910   17.4155 H   0  0  0  0  0  0  0  0  0  0  0  0
   14.2957   16.2593   20.1780 H   0  0  0  0  0  0  0  0  0  0  0  0
   14.6271   17.1884   18.6713 H   0  0  0  0  0  0  0  0  0  0  0  0
   15.3644   14.2915   19.3226 H   0  0  0  0  0  0  0  0  0  0  0  0
   16.1366   15.2311   17.9699 H   0  0  0  0  0  0  0  0  0  0  0  0
   12.6085   14.1961   19.0737 H   0  0  0  0  0  0  0  0  0  0  0  0
   12.6840   15.9629   18.7060 H   0  0  0  0  0  0  0  0  0  0  0  0
   11.8679   13.8425   16.6470 H   0  0  0  0  0  0  0  0  0  0  0  0
    8.9391   14.4501   16.1034 H   0  0  0  0  0  0  0  0  0  0  0  0
    8.4597   15.8141   17.1462 H   0  0  0  0  0  0  0  0  0  0  0  0
   19.9155   18.0970   21.2930 H   0  0  0  0  0  0  0  0  0  0  0  0
   17.2140   17.8693   15.2388 H   0  0  0  0  0  0  0  0  0  0  0  0
   18.2691   19.0278   14.3606 H   0  0  0  0  0  0  0  0  0  0  0  0
   18.6641   17.2754   14.3606 H   0  0  0  0  0  0  0  0  0  0  0  0
   16.5974   17.2912   17.1124 H   0  0  0  0  0  0  0  0  0  0  0  0
    9.9455   13.7172   18.0932 H   0  0  0  0  0  0  0  0  0  0  0  0
   10.1651   15.3345   18.7449 H   0  0  0  0  0  0  0  0  0  0  0  0
   10.0399   15.9710   14.7812 H   0  0  0  0  0  0  0  0  0  0  0  0
    9.8358   17.2728   15.9731 H   0  0  0  0  0  0  0  0  0  0  0  0
   12.2777   15.8938   15.3972 H   0  0  0  0  0  0  0  0  0  0  0  0
   12.0190   16.9299   16.8056 H   0  0  0  0  0  0  0  0  0  0  0  0
   15.1419   16.0869   24.1370 H   0  0  0  0  0  0  0  0  0  0  0  0
   17.2306   16.7635   25.0865 H   0  0  0  0  0  0  0  0  0  0  0  0
  1 13  1  0
  2  6  1  0
  2  5  1  0
  3  9  1  0
  4  3  1  0
  5  4  1  0
  7  6  1  0
  7 16  1  0
  8 16  1  0
  9 23  2  0
  9 19  1  0
 10 22  2  0
 10 21  1  0
 11 23  1  0
 12  1  1  0
 13 14  1  0
 13 25  2  0
 14 15  1  0
 15  3  2  0
 15 24  1  0
 17  8  1  0
 17 18  1  0
 18  7  1  0
 19 20  2  0
 20 21  1  0
 23 10  1  0
 24 11  2  0
 25 24  1  0
  1 26  1  0
  2 27  1  0
  4 28  1  0
  4 29  1  0
  5 30  1  0
  5 31  1  0
  6 32  1  0
  6 33  1  0
  7 34  1  0
  8 35  1  0
  8 36  1  0
 11 37  1  0
 12 38  1  0
 12 39  1  0
 12 40  1  0
 14 41  1  0
 16 42  1  0
 16 43  1  0
 17 44  1  0
 17 45  1  0
 18 46  1  0
 18 47  1  0
 20 48  1  0
 21 49  1  0
A    1
N1
A    2
N3
A    3
C4
A    4
C5
A    5
C6
A    6
C7
A    7
C8
A    8
C10
A    9
C13
A   10
C15
A   11
C17
A   12
C1
A   13
C2
A   14
N2
A   15
C3
A   16
C9
A   17
C11
A   18
C12
A   19
N4
A   20
C14
A   21
N5
A   22
O1
A   23
C16
A   24
C18
A   25
N6
M  END
