3SMK_CW7_A_232
     RDKit          3D

 94100  0  0  0  0  0  0  0  0999 V2000
   27.9760  -17.9670   -4.7370 C   0  0  0  0  0  0  0  0  0  0  0  0
   27.9940  -16.5900   -5.1640 O   0  0  0  0  0  0  0  0  0  0  0  0
   21.5870  -22.8180    0.4840 C   0  0  0  0  0  0  0  0  0  0  0  0
   22.8020  -22.1450    0.8240 C   0  0  0  0  0  0  0  0  0  0  0  0
   22.9060  -21.3000    2.0380 C   0  0  0  0  0  0  0  0  0  0  0  0
   22.9190  -22.0970    3.3920 C   0  0  0  0  0  0  0  0  0  0  0  0
   21.4160  -22.0920    3.9050 C   0  0  0  0  0  0  0  0  0  0  0  0
   20.8780  -20.7440    3.4340 C   0  0  0  0  0  0  0  0  0  0  0  0
   21.5050  -20.5630    2.0430 C   0  0  0  0  0  0  0  0  0  0  0  0
   21.3930  -19.1760    1.5010 C   0  0  0  0  0  0  0  0  0  0  0  0
   21.8220  -18.7770    0.1140 C   0  0  0  0  0  0  0  0  0  0  0  0
   22.1970  -17.3100    0.2460 C   0  0  0  0  0  0  0  0  0  0  0  0
   23.7050  -17.4400    0.7250 C   0  0  0  0  0  0  0  0  0  0  0  0
   24.1370  -18.6060   -0.0270 C   0  0  0  0  0  0  0  0  0  0  0  0
   23.0830  -19.4030   -0.3470 C   0  0  0  0  0  0  0  0  0  0  0  0
   23.0570  -20.6750   -1.0660 C   0  0  0  0  0  0  0  0  0  0  0  0
   23.6640  -21.8620   -0.2660 C   0  0  0  0  0  0  0  0  0  0  0  0
   23.7980  -22.9190   -1.2610 O   0  0  0  0  0  0  0  0  0  0  0  0
   23.8170  -20.5180   -2.2630 O   0  0  0  0  0  0  0  0  0  0  0  0
   23.2400  -20.7640   -3.4970 C   0  0  0  0  0  0  0  0  0  0  0  0
   24.5700  -20.9510   -4.1940 C   0  0  0  0  0  0  0  0  0  0  0  0
   25.1640  -19.6750   -4.8630 C   0  0  0  0  0  0  0  0  0  0  0  0
   24.2470  -18.4080   -4.8970 C   0  0  0  0  0  0  0  0  0  0  0  0
   23.0610  -18.3540   -3.9480 C   0  0  0  0  0  0  0  0  0  0  0  0
   22.4540  -19.6470   -3.9460 O   0  0  0  0  0  0  0  0  0  0  0  0
   22.0680  -17.2430   -4.4150 C   0  0  0  0  0  0  0  0  0  0  0  0
   21.0890  -17.7740   -5.3360 O   0  0  0  0  0  0  0  0  0  0  0  0
   19.9230  -16.9300   -5.4920 C   0  0  0  0  0  0  0  0  0  0  0  0
   23.8020  -18.4100   -6.2640 O   0  0  0  0  0  0  0  0  0  0  0  0
   25.1190  -18.4570   -6.8350 C   0  0  0  0  0  0  0  0  0  0  0  0
   25.5870  -19.7400   -6.2800 O   0  0  0  0  0  0  0  0  0  0  0  0
   25.7740  -17.2640   -6.1150 C   0  0  0  0  0  0  0  0  0  0  0  0
   25.1090  -17.2340   -4.7830 O   0  0  0  0  0  0  0  0  0  0  0  0
   25.4300  -15.9190   -6.8300 C   0  0  0  0  0  0  0  0  0  0  0  0
   27.3170  -17.5200   -6.0550 C   0  0  0  0  0  0  0  0  0  0  0  0
   24.6300  -22.1680   -4.8150 O   0  0  0  0  0  0  0  0  0  0  0  0
   25.6290  -18.9790   -0.3640 C   0  0  0  0  0  0  0  0  0  0  0  0
   26.4040  -19.3400    0.9170 C   0  0  0  0  0  0  0  0  0  0  0  0
   26.3750  -17.8700   -1.1240 C   0  0  0  0  0  0  0  0  0  0  0  0
   20.6070  -18.8640   -0.8380 C   0  0  0  0  0  0  0  0  0  0  0  0
   19.3310  -20.8310    3.2710 C   0  0  0  0  0  0  0  0  0  0  0  0
   18.6110  -21.0030    4.5360 O   0  0  0  0  0  0  0  0  0  0  0  0
   17.2780  -21.2950    4.2600 C   0  0  0  0  0  0  0  0  0  0  0  0
   21.3530  -19.8200    4.3910 O   0  0  0  0  0  0  0  0  0  0  0  0
   28.8992  -18.5649   -4.7534 H   0  0  0  0  0  0  0  0  0  0  0  0
   27.6491  -18.5083   -3.8369 H   0  0  0  0  0  0  0  0  0  0  0  0
   21.5373  -23.4388   -0.4227 H   0  0  0  0  0  0  0  0  0  0  0  0
   20.7020  -22.7149    1.1292 H   0  0  0  0  0  0  0  0  0  0  0  0
   23.8292  -20.7037    1.9930 H   0  0  0  0  0  0  0  0  0  0  0  0
   23.2651  -23.1281    3.2273 H   0  0  0  0  0  0  0  0  0  0  0  0
   23.6009  -21.6421    4.1255 H   0  0  0  0  0  0  0  0  0  0  0  0
   20.8461  -22.9198    3.4579 H   0  0  0  0  0  0  0  0  0  0  0  0
   21.3366  -22.2260    4.9939 H   0  0  0  0  0  0  0  0  0  0  0  0
   20.9202  -21.0656    1.2585 H   0  0  0  0  0  0  0  0  0  0  0  0
   20.3269  -18.9139    1.5703 H   0  0  0  0  0  0  0  0  0  0  0  0
   22.1434  -18.6518    2.1110 H   0  0  0  0  0  0  0  0  0  0  0  0
   22.1204  -16.7829   -0.7164 H   0  0  0  0  0  0  0  0  0  0  0  0
   21.5498  -16.7299    0.9203 H   0  0  0  0  0  0  0  0  0  0  0  0
   24.2914  -16.5481    0.4590 H   0  0  0  0  0  0  0  0  0  0  0  0
   23.8277  -17.5327    1.8142 H   0  0  0  0  0  0  0  0  0  0  0  0
   22.0009  -20.9186   -1.2539 H   0  0  0  0  0  0  0  0  0  0  0  0
   24.6459  -21.6874    0.1982 H   0  0  0  0  0  0  0  0  0  0  0  0
   23.9085  -23.7903   -0.8041 H   0  0  0  0  0  0  0  0  0  0  0  0
   22.5076  -21.5765   -3.6129 H   0  0  0  0  0  0  0  0  0  0  0  0
   25.3721  -21.0438   -3.4470 H   0  0  0  0  0  0  0  0  0  0  0  0
   26.0186  -19.6088   -4.1737 H   0  0  0  0  0  0  0  0  0  0  0  0
   23.3725  -18.0994   -2.9242 H   0  0  0  0  0  0  0  0  0  0  0  0
   21.5490  -16.8325   -3.5363 H   0  0  0  0  0  0  0  0  0  0  0  0
   22.6402  -16.4563   -4.9285 H   0  0  0  0  0  0  0  0  0  0  0  0
   19.5372  -16.6507   -4.5005 H   0  0  0  0  0  0  0  0  0  0  0  0
   20.1996  -16.0215   -6.0470 H   0  0  0  0  0  0  0  0  0  0  0  0
   19.1463  -17.4766   -6.0470 H   0  0  0  0  0  0  0  0  0  0  0  0
   25.2716  -18.4020   -7.9230 H   0  0  0  0  0  0  0  0  0  0  0  0
   25.2316  -15.1432   -6.0759 H   0  0  0  0  0  0  0  0  0  0  0  0
   26.2782  -15.6107   -7.4589 H   0  0  0  0  0  0  0  0  0  0  0  0
   24.5379  -16.0558   -7.4589 H   0  0  0  0  0  0  0  0  0  0  0  0
   27.3839  -17.8904   -7.0886 H   0  0  0  0  0  0  0  0  0  0  0  0
   24.6653  -22.8850   -4.1332 H   0  0  0  0  0  0  0  0  0  0  0  0
   25.5798  -19.8531   -1.0300 H   0  0  0  0  0  0  0  0  0  0  0  0
   25.8066  -19.0617    1.7977 H   0  0  0  0  0  0  0  0  0  0  0  0
   26.6002  -20.4222    0.9341 H   0  0  0  0  0  0  0  0  0  0  0  0
   27.3587  -18.7939    0.9341 H   0  0  0  0  0  0  0  0  0  0  0  0
   26.8390  -17.1802   -0.4037 H   0  0  0  0  0  0  0  0  0  0  0  0
   27.1551  -18.3195   -1.7560 H   0  0  0  0  0  0  0  0  0  0  0  0
   25.6646  -17.3169   -1.7560 H   0  0  0  0  0  0  0  0  0  0  0  0
   19.6818  -18.9302   -0.2466 H   0  0  0  0  0  0  0  0  0  0  0  0
   20.5732  -17.9660   -1.4724 H   0  0  0  0  0  0  0  0  0  0  0  0
   20.7015  -19.7577   -1.4724 H   0  0  0  0  0  0  0  0  0  0  0  0
   18.9798  -19.9033    2.7956 H   0  0  0  0  0  0  0  0  0  0  0  0
   19.1231  -21.7222    2.6606 H   0  0  0  0  0  0  0  0  0  0  0  0
   16.7261  -21.4159    5.2038 H   0  0  0  0  0  0  0  0  0  0  0  0
   16.8352  -20.4726    3.6791 H   0  0  0  0  0  0  0  0  0  0  0  0
   17.2195  -22.2272    3.6791 H   0  0  0  0  0  0  0  0  0  0  0  0
   21.1749  -20.1665    5.3011 H   0  0  0  0  0  0  0  0  0  0  0  0
  2  1  1  0
  3  4  2  3
  4  5  1  0
  5  9  1  0
  5  6  1  0
  6  7  1  0
  8  7  1  0
  8 44  1  0
  9  8  1  0
 10  9  1  0
 11 10  1  0
 11 12  1  0
 12 13  1  0
 14 13  1  0
 15 11  1  0
 15 14  2  0
 16 15  1  0
 16 17  1  0
 17  4  1  0
 18 17  1  0
 19 16  1  0
 20 19  1  0
 21 20  1  0
 22 21  1  0
 23 22  1  0
 23 33  1  0
 23 24  1  0
 24 25  1  0
 25 20  1  0
 26 24  1  0
 27 26  1  0
 28 27  1  0
 29 23  1  0
 30 29  1  0
 30 31  1  0
 30 32  1  0
 31 22  1  0
 32 35  1  0
 32 33  1  0
 34 32  1  0
 35  1  1  0
 35  2  1  0
 36 21  1  0
 37 14  1  0
 37 38  1  0
 39 37  1  0
 40 11  1  0
 41  8  1  0
 41 42  1  0
 43 42  1  0
  1 45  1  0
  1 46  1  0
  3 47  1  0
  3 48  1  0
  5 49  1  0
  6 50  1  0
  6 51  1  0
  7 52  1  0
  7 53  1  0
  9 54  1  0
 10 55  1  0
 10 56  1  0
 12 57  1  0
 12 58  1  0
 13 59  1  0
 13 60  1  0
 16 61  1  0
 17 62  1  0
 18 63  1  0
 20 64  1  0
 21 65  1  0
 22 66  1  0
 24 67  1  0
 26 68  1  0
 26 69  1  0
 28 70  1  0
 28 71  1  0
 28 72  1  0
 30 73  1  0
 34 74  1  0
 34 75  1  0
 34 76  1  0
 35 77  1  0
 36 78  1  0
 37 79  1  0
 38 80  1  0
 38 81  1  0
 38 82  1  0
 39 83  1  0
 39 84  1  0
 39 85  1  0
 40 86  1  0
 40 87  1  0
 40 88  1  0
 41 89  1  0
 41 90  1  0
 43 91  1  0
 43 92  1  0
 43 93  1  0
 44 94  1  0
A    1
C1
A    2
O1
A    3
CAA
A    4
CAB
A    5
CAC
A    6
CAD
A    7
CAE
A    8
CAF
A    9
CAG
A   10
CAH
A   11
CAI
A   12
CAJ
A   13
CAK
A   14
CAL
A   15
CAM
A   16
CAN
A   17
CAO
A   18
OAP
A   19
OAQ
A   20
CAR
A   21
CAS
A   22
CAT
A   23
CAU
A   24
CAV
A   25
OAW
A   26
CAX
A   27
OAY
A   28
CAZ
A   29
OBA
A   30
CBB
A   31
OBC
A   32
CBD
A   33
OBE
A   34
CBF
A   35
CBG
A   36
OBJ
A   37
CBK
A   38
CBL
A   39
CBM
A   40
CBN
A   41
CBO
A   42
OBP
A   43
CBQ
A   44
OBR
M  END
