2X5W_K2B_A_1429
     RDKit          3D

 72 75  0  0  0  0  0  0  0  0999 V2000
   58.7750   28.4840   76.5720 C   0  0  0  0  0  0  0  0  0  0  0  0
   59.3270   27.8650   77.8630 C   0  0  0  0  0  0  0  0  0  0  0  0
   60.4960   28.6400   78.4490 C   0  0  0  0  0  0  0  0  0  0  0  0
   60.5890   30.0760   78.2130 C   0  0  0  0  0  0  0  0  0  0  0  0
   59.5840   30.7140   77.5020 C   0  0  0  0  0  0  0  0  0  0  0  0
   59.6160   32.2460   77.4190 C   0  0  0  0  0  0  0  0  0  0  0  0
   59.4790   32.6060   75.8980 C   0  0  0  0  0  0  0  0  0  0  0  0
   58.1530   32.0990   75.3390 C   0  0  0  0  0  0  0  0  0  0  0  0
   58.2170   30.5500   75.3690 C   0  0  0  0  0  0  0  0  0  0  0  0
   58.4120   29.9910   76.8050 C   0  0  0  0  0  0  0  0  0  0  0  0
   56.9950   29.9060   74.6660 C   0  0  0  0  0  0  0  0  0  0  0  0
   56.7460   30.5020   73.2130 C   0  0  0  0  0  0  0  0  0  0  0  0
   56.6140   32.0650   73.2730 C   0  0  0  0  0  0  0  0  0  0  0  0
   57.9250   32.5940   73.8710 C   0  0  0  0  0  0  0  0  0  0  0  0
   57.8690   34.1270   73.6990 C   0  0  0  0  0  0  0  0  0  0  0  0
   57.1690   34.2810   72.3170 C   0  0  0  0  0  0  0  0  0  0  0  0
   56.6570   32.8440   71.9190 C   0  0  0  0  0  0  0  0  0  0  0  0
   55.3390   32.4820   74.0830 C   0  0  0  0  0  0  0  0  0  0  0  0
   57.1480   30.2160   77.6440 C   0  0  0  0  0  0  0  0  0  0  0  0
   55.3940   32.8810   71.0380 C   0  0  0  0  0  0  0  0  0  0  0  0
   55.0190   31.4580   70.5920 C   0  0  0  0  0  0  0  0  0  0  0  0
   55.6190   33.8550   69.8220 C   0  0  0  0  0  0  0  0  0  0  0  0
   54.2810   34.0800   69.0680 C   0  0  0  0  0  0  0  0  0  0  0  0
   54.3790   35.2990   68.1230 C   0  0  0  0  0  0  0  0  0  0  0  0
   53.1470   35.6320   67.2600 C   0  0  0  0  0  0  0  0  0  0  0  0
   52.7760   34.5060   66.2790 C   0  0  0  0  0  0  0  0  0  0  0  0
   53.4600   36.9490   66.4530 C   0  0  0  0  0  0  0  0  0  0  0  0
   61.3380   28.0520   79.1740 O   0  0  0  0  0  0  0  0  0  0  0  0
   59.5356   28.4118   75.7806 H   0  0  0  0  0  0  0  0  0  0  0  0
   57.8677   27.9389   76.2725 H   0  0  0  0  0  0  0  0  0  0  0  0
   58.5191   27.8347   78.6089 H   0  0  0  0  0  0  0  0  0  0  0  0
   59.6960   26.8599   77.6107 H   0  0  0  0  0  0  0  0  0  0  0  0
   61.4478   30.6473   78.5952 H   0  0  0  0  0  0  0  0  0  0  0  0
   58.7795   32.6762   77.9893 H   0  0  0  0  0  0  0  0  0  0  0  0
   60.5464   32.6507   77.8440 H   0  0  0  0  0  0  0  0  0  0  0  0
   59.5259   33.6987   75.7803 H   0  0  0  0  0  0  0  0  0  0  0  0
   60.3009   32.1261   75.3465 H   0  0  0  0  0  0  0  0  0  0  0  0
   57.3168   32.4823   75.9423 H   0  0  0  0  0  0  0  0  0  0  0  0
   59.1116   30.2660   74.7953 H   0  0  0  0  0  0  0  0  0  0  0  0
   57.1683   28.8233   74.5785 H   0  0  0  0  0  0  0  0  0  0  0  0
   56.1051   30.1247   75.2745 H   0  0  0  0  0  0  0  0  0  0  0  0
   57.5922   30.2352   72.5628 H   0  0  0  0  0  0  0  0  0  0  0  0
   55.8116   30.0820   72.8124 H   0  0  0  0  0  0  0  0  0  0  0  0
   58.8106   32.1988   73.3520 H   0  0  0  0  0  0  0  0  0  0  0  0
   57.2780   34.5962   74.4993 H   0  0  0  0  0  0  0  0  0  0  0  0
   58.8550   34.6120   73.7496 H   0  0  0  0  0  0  0  0  0  0  0  0
   56.3226   34.9793   72.3943 H   0  0  0  0  0  0  0  0  0  0  0  0
   57.8595   34.6834   71.5612 H   0  0  0  0  0  0  0  0  0  0  0  0
   57.3151   32.2938   71.2304 H   0  0  0  0  0  0  0  0  0  0  0  0
   55.5502   32.4129   75.1603 H   0  0  0  0  0  0  0  0  0  0  0  0
   55.0651   33.5165   73.8286 H   0  0  0  0  0  0  0  0  0  0  0  0
   54.5067   31.8092   73.8286 H   0  0  0  0  0  0  0  0  0  0  0  0
   57.4044   30.1704   78.7127 H   0  0  0  0  0  0  0  0  0  0  0  0
   56.7239   31.2037   77.4105 H   0  0  0  0  0  0  0  0  0  0  0  0
   56.4091   29.4353   77.4105 H   0  0  0  0  0  0  0  0  0  0  0  0
   54.5446   33.2717   71.6176 H   0  0  0  0  0  0  0  0  0  0  0  0
   54.8529   30.8278   71.4782 H   0  0  0  0  0  0  0  0  0  0  0  0
   54.0994   31.4930   69.9894 H   0  0  0  0  0  0  0  0  0  0  0  0
   55.8364   31.0352   69.9894 H   0  0  0  0  0  0  0  0  0  0  0  0
   55.9950   34.8199   70.1928 H   0  0  0  0  0  0  0  0  0  0  0  0
   56.3515   33.4094   69.1329 H   0  0  0  0  0  0  0  0  0  0  0  0
   54.0460   33.1832   68.4759 H   0  0  0  0  0  0  0  0  0  0  0  0
   53.4888   34.2708   69.8070 H   0  0  0  0  0  0  0  0  0  0  0  0
   54.5939   36.1809   68.7443 H   0  0  0  0  0  0  0  0  0  0  0  0
   55.1629   35.0300   67.3997 H   0  0  0  0  0  0  0  0  0  0  0  0
   52.2849   35.7598   67.9311 H   0  0  0  0  0  0  0  0  0  0  0  0
   52.4807   33.6097   66.8443 H   0  0  0  0  0  0  0  0  0  0  0  0
   51.9380   34.8327   65.6457 H   0  0  0  0  0  0  0  0  0  0  0  0
   53.6441   34.2706   65.6457 H   0  0  0  0  0  0  0  0  0  0  0  0
   53.6556   37.7721   67.1561 H   0  0  0  0  0  0  0  0  0  0  0  0
   54.3452   36.7894   65.8198 H   0  0  0  0  0  0  0  0  0  0  0  0
   52.5976   37.2048   65.8198 H   0  0  0  0  0  0  0  0  0  0  0  0
  1  2  1  0
  1 10  1  0
  2  3  1  0
  3  4  1  0
  3 28  2  0
  4  5  2  0
  5  6  1  0
  5 10  1  0
  6  7  1  0
  7  8  1  0
  8  9  1  0
  8 14  1  0
  9 10  1  0
  9 11  1  0
 10 19  1  0
 11 12  1  0
 12 13  1  0
 13 14  1  0
 13 17  1  0
 13 18  1  0
 14 15  1  0
 15 16  1  0
 16 17  1  0
 17 20  1  0
 20 21  1  0
 20 22  1  0
 22 23  1  0
 23 24  1  0
 24 25  1  0
 25 27  1  0
 25 26  1  0
  1 29  1  0
  1 30  1  0
  2 31  1  0
  2 32  1  0
  4 33  1  0
  6 34  1  0
  6 35  1  0
  7 36  1  0
  7 37  1  0
  8 38  1  0
  9 39  1  0
 11 40  1  0
 11 41  1  0
 12 42  1  0
 12 43  1  0
 14 44  1  0
 15 45  1  0
 15 46  1  0
 16 47  1  0
 16 48  1  0
 17 49  1  0
 18 50  1  0
 18 51  1  0
 18 52  1  0
 19 53  1  0
 19 54  1  0
 19 55  1  0
 20 56  1  0
 21 57  1  0
 21 58  1  0
 21 59  1  0
 22 60  1  0
 22 61  1  0
 23 62  1  0
 23 63  1  0
 24 64  1  0
 24 65  1  0
 25 66  1  0
 26 67  1  0
 26 68  1  0
 26 69  1  0
 27 70  1  0
 27 71  1  0
 27 72  1  0
A    1
C1
A    2
C2
A    3
C3
A    4
C4
A    5
C5
A    6
C6
A    7
C7
A    8
C8
A    9
C9
A   10
C10
A   11
C11
A   12
C12
A   13
C13
A   14
C14
A   15
C15
A   16
C16
A   17
C17
A   18
C18
A   19
C19
A   20
C20
A   21
C21
A   22
C22
A   23
C23
A   24
C24
A   25
C25
A   26
C27
A   27
C26
A   28
O1
M  END
