2UV2_GVD_A_1316
     RDKit          3D

 48 52  0  0  0  0  0  0  0  0999 V2000
  -31.4650   44.6280   -6.2290 C   0  0  0  0  0  0  0  0  0  0  0  0
  -32.3880   45.7320   -6.7790 C   0  0  0  0  0  0  0  0  0  0  0  0
  -32.1830   45.5780   -5.2640 C   0  0  0  0  0  0  0  0  0  0  0  0
  -31.2930   46.6440   -4.5760 C   0  0  0  0  0  0  0  0  0  0  0  0
  -30.5230   47.5740   -5.1690 C   0  0  0  0  0  0  0  0  0  0  0  0
  -31.2220   46.7500   -3.2450 N   0  0  0  0  0  0  0  0  0  0  0  0
  -30.4570   47.6810   -3.0100 N   0  0  0  0  0  0  0  0  0  0  0  0
  -29.9900   48.2320   -4.1300 C   0  0  0  0  0  0  0  0  0  0  0  0
  -29.0930   49.2540   -4.0550 N   0  0  0  0  0  0  0  0  0  0  0  0
  -28.5700   49.9950   -5.0570 C   0  0  0  0  0  0  0  0  0  0  0  0
  -28.6560   49.5970   -6.3290 N   0  0  0  0  0  0  0  0  0  0  0  0
  -27.8950   51.2090   -4.8010 C   0  0  0  0  0  0  0  0  0  0  0  0
  -27.7310   51.6970   -3.5050 C   0  0  0  0  0  0  0  0  0  0  0  0
  -27.0620   52.9040   -3.2850 C   0  0  0  0  0  0  0  0  0  0  0  0
  -26.5500   53.6370   -4.3470 C   0  0  0  0  0  0  0  0  0  0  0  0
  -26.7020   53.1530   -5.6400 C   0  0  0  0  0  0  0  0  0  0  0  0
  -27.3710   51.9450   -5.8700 C   0  0  0  0  0  0  0  0  0  0  0  0
  -27.5150   51.4930   -7.1320 N   0  0  0  0  0  0  0  0  0  0  0  0
  -28.1450   50.3200   -7.3490 C   0  0  0  0  0  0  0  0  0  0  0  0
  -28.2950   49.8610   -8.5900 N   0  0  0  0  0  0  0  0  0  0  0  0
  -28.6420   48.5790   -8.8060 C   0  0  0  0  0  0  0  0  0  0  0  0
  -27.8940   47.5270   -8.2690 C   0  0  0  0  0  0  0  0  0  0  0  0
  -28.2650   46.2020   -8.4990 C   0  0  0  0  0  0  0  0  0  0  0  0
  -30.8520   44.4330  -10.5850 C   0  0  0  0  0  0  0  0  0  0  0  0
  -31.5290   44.4710  -11.5160 N   0  0  0  0  0  0  0  0  0  0  0  0
  -30.1340   46.9800   -9.8170 C   0  0  0  0  0  0  0  0  0  0  0  0
  -29.7640   48.2990   -9.5840 C   0  0  0  0  0  0  0  0  0  0  0  0
  -29.8070   44.4670   -9.5420 C   0  0  0  0  0  0  0  0  0  0  0  0
  -29.3860   45.9270   -9.2790 C   0  0  0  0  0  0  0  0  0  0  0  0
  -31.7710   43.5733   -6.2920 H   0  0  0  0  0  0  0  0  0  0  0  0
  -30.4183   44.3343   -6.3965 H   0  0  0  0  0  0  0  0  0  0  0  0
  -31.9588   46.5958   -7.3078 H   0  0  0  0  0  0  0  0  0  0  0  0
  -33.2602   45.7565   -7.4489 H   0  0  0  0  0  0  0  0  0  0  0  0
  -32.8531   45.4540   -4.4005 H   0  0  0  0  0  0  0  0  0  0  0  0
  -30.3686   47.7511   -6.2436 H   0  0  0  0  0  0  0  0  0  0  0  0
  -31.7125   46.1656   -2.5531 H   0  0  0  0  0  0  0  0  0  0  0  0
  -28.7697   49.4946   -3.1071 H   0  0  0  0  0  0  0  0  0  0  0  0
  -28.1302   51.1291   -2.6517 H   0  0  0  0  0  0  0  0  0  0  0  0
  -26.9396   53.2779   -2.2578 H   0  0  0  0  0  0  0  0  0  0  0  0
  -26.0302   54.5895   -4.1667 H   0  0  0  0  0  0  0  0  0  0  0  0
  -26.2943   53.7223   -6.4883 H   0  0  0  0  0  0  0  0  0  0  0  0
  -27.0048   47.7460   -7.6596 H   0  0  0  0  0  0  0  0  0  0  0  0
  -27.6760   45.3795   -8.0671 H   0  0  0  0  0  0  0  0  0  0  0  0
  -31.0217   46.7621  -10.4290 H   0  0  0  0  0  0  0  0  0  0  0  0
  -30.3558   49.1210  -10.0130 H   0  0  0  0  0  0  0  0  0  0  0  0
  -30.2013   44.0269   -8.6142 H   0  0  0  0  0  0  0  0  0  0  0  0
  -28.9337   43.8904   -9.8809 H   0  0  0  0  0  0  0  0  0  0  0  0
  -30.0163   45.9398   -8.3776 H   0  0  0  0  0  0  0  0  0  0  0  0
  1  2  1  0
  1  3  1  0
  2  3  1  0
  3  4  1  0
  4  5  2  0
  4  6  1  0
  6  7  1  0
  5  8  1  0
  7  8  2  0
  8  9  1  0
  9 10  1  0
 10 11  2  0
 10 12  1  0
 12 13  2  0
 13 14  1  0
 14 15  2  0
 15 16  1  0
 12 17  1  0
 16 17  2  0
 17 18  1  0
 11 19  1  0
 18 19  2  0
 19 20  1  0
 20 21  2  0
 21 22  1  0
 22 23  2  0
 24 25  3  0
 21 27  1  0
 26 27  2  0
 24 28  1  0
 23 29  1  0
 26 29  1  0
 28 29  1  0
  1 30  1  0
  1 31  1  0
  2 32  1  0
  2 33  1  0
  3 34  1  0
  5 35  1  0
  6 36  1  0
  9 37  1  0
 13 38  1  0
 14 39  1  0
 15 40  1  0
 16 41  1  0
 22 42  1  0
 23 43  1  0
 26 44  1  0
 27 45  1  0
 28 46  1  0
 28 47  1  0
 29 48  1  0
A    1
CAL
A    2
CAM
A    3
CBB
A    4
CAX
A    5
CAK
A    6
NAS
A    7
NAN
A    8
CAV
A    9
NAR
A   10
C6
A   11
N1
A   12
C5
A   13
CAJ
A   14
CAD
A   15
CAC
A   16
CAI
A   17
C4
A   18
N3
A   19
C2
A   20
NAQ
A   21
CAU
A   22
CAG
A   23
CAE
A   24
CAB
A   25
NAA
A   26
CAF
A   27
CAH
A   28
CA0
A   29
CAT
M  END
