3SP5_CX7_A_232
     RDKit          3D

 59 61  0  0  0  0  0  0  0  0999 V2000
  -17.9340  -22.2200    0.3520 C   0  0  0  0  0  0  0  0  0  0  0  0
  -17.8760  -21.2370    1.5540 C   0  0  0  0  0  0  0  0  0  0  0  0
  -19.2110  -20.4440    1.6480 C   0  0  0  0  0  0  0  0  0  0  0  0
  -19.5220  -19.2280    0.9030 C   0  0  0  0  0  0  0  0  0  0  0  0
  -18.9930  -18.7690   -0.4140 C   0  0  0  0  0  0  0  0  0  0  0  0
  -17.6440  -19.3530   -0.8160 C   0  0  0  0  0  0  0  0  0  0  0  0
  -17.5680  -20.6040   -1.6250 C   0  0  0  0  0  0  0  0  0  0  0  0
  -17.0240  -21.8100   -0.8160 C   0  0  0  0  0  0  0  0  0  0  0  0
  -17.8350  -21.9880    2.8790 C   0  0  0  0  0  0  0  0  0  0  0  0
  -19.3030  -22.0670    3.3930 C   0  0  0  0  0  0  0  0  0  0  0  0
  -19.8140  -20.6960    3.0050 C   0  0  0  0  0  0  0  0  0  0  0  0
  -18.6840  -17.3050   -0.0990 C   0  0  0  0  0  0  0  0  0  0  0  0
  -17.2040  -17.3250    0.3210 C   0  0  0  0  0  0  0  0  0  0  0  0
  -16.6810  -18.5340   -0.3870 C   0  0  0  0  0  0  0  0  0  0  0  0
  -20.1500  -18.9060   -1.4390 C   0  0  0  0  0  0  0  0  0  0  0  0
  -21.3640  -20.6570    2.8640 C   0  0  0  0  0  0  0  0  0  0  0  0
  -19.4080  -22.6060   -0.0830 C   0  0  0  0  0  0  0  0  0  0  0  0
  -16.8940  -22.8890   -1.7970 O   0  0  0  0  0  0  0  0  0  0  0  0
  -16.8050  -20.2720   -2.7910 O   0  0  0  0  0  0  0  0  0  0  0  0
  -19.4200  -19.8480    4.0990 O   0  0  0  0  0  0  0  0  0  0  0  0
  -21.9100  -21.1390    4.0970 O   0  0  0  0  0  0  0  0  0  0  0  0
  -15.2040  -18.3910   -0.5000 C   0  0  0  0  0  0  0  0  0  0  0  0
  -14.6590  -17.8030   -1.8100 C   0  0  0  0  0  0  0  0  0  0  0  0
  -14.3770  -19.0190    0.5930 C   0  0  0  0  0  0  0  0  0  0  0  0
  -23.3550  -21.1890    4.0670 C   0  0  0  0  0  0  0  0  0  0  0  0
  -17.5031  -23.1603    0.7264 H   0  0  0  0  0  0  0  0  0  0  0  0
  -16.9882  -20.6076    1.3940 H   0  0  0  0  0  0  0  0  0  0  0  0
  -20.2494  -18.5548    1.3803 H   0  0  0  0  0  0  0  0  0  0  0  0
  -18.5664  -20.9550   -1.9249 H   0  0  0  0  0  0  0  0  0  0  0  0
  -16.0685  -21.5570   -0.3334 H   0  0  0  0  0  0  0  0  0  0  0  0
  -17.4307  -22.9999    2.7291 H   0  0  0  0  0  0  0  0  0  0  0  0
  -17.1880  -21.4745    3.6055 H   0  0  0  0  0  0  0  0  0  0  0  0
  -19.8659  -22.8664    2.8888 H   0  0  0  0  0  0  0  0  0  0  0  0
  -19.3986  -22.3024    4.4633 H   0  0  0  0  0  0  0  0  0  0  0  0
  -18.8308  -16.6734   -0.9876 H   0  0  0  0  0  0  0  0  0  0  0  0
  -19.3415  -16.8890    0.6786 H   0  0  0  0  0  0  0  0  0  0  0  0
  -16.6844  -16.4142   -0.0115 H   0  0  0  0  0  0  0  0  0  0  0  0
  -17.0586  -17.3588    1.4108 H   0  0  0  0  0  0  0  0  0  0  0  0
  -21.1037  -19.0189   -0.9025 H   0  0  0  0  0  0  0  0  0  0  0  0
  -20.1889  -18.0062   -2.0705 H   0  0  0  0  0  0  0  0  0  0  0  0
  -19.9776  -19.7900   -2.0705 H   0  0  0  0  0  0  0  0  0  0  0  0
  -21.7005  -19.6261    2.6795 H   0  0  0  0  0  0  0  0  0  0  0  0
  -21.6965  -21.2776    2.0188 H   0  0  0  0  0  0  0  0  0  0  0  0
  -20.0245  -22.7674    0.8136 H   0  0  0  0  0  0  0  0  0  0  0  0
  -19.8389  -21.7904   -0.6823 H   0  0  0  0  0  0  0  0  0  0  0  0
  -19.3838  -23.5281   -0.6823 H   0  0  0  0  0  0  0  0  0  0  0  0
  -16.7899  -23.7531   -1.3252 H   0  0  0  0  0  0  0  0  0  0  0  0
  -15.9326  -19.8924   -2.5174 H   0  0  0  0  0  0  0  0  0  0  0  0
  -19.6286  -20.2970    4.9563 H   0  0  0  0  0  0  0  0  0  0  0  0
  -14.6130  -17.5299   -0.1548 H   0  0  0  0  0  0  0  0  0  0  0  0
  -13.9276  -17.0139   -1.5814 H   0  0  0  0  0  0  0  0  0  0  0  0
  -14.1708  -18.5975   -2.3934 H   0  0  0  0  0  0  0  0  0  0  0  0
  -15.4883  -17.3765   -2.3934 H   0  0  0  0  0  0  0  0  0  0  0  0
  -14.7747  -18.7170    1.5731 H   0  0  0  0  0  0  0  0  0  0  0  0
  -14.4196  -20.1144    0.5017 H   0  0  0  0  0  0  0  0  0  0  0  0
  -13.3333  -18.6838    0.5017 H   0  0  0  0  0  0  0  0  0  0  0  0
  -23.7429  -21.2024    5.0963 H   0  0  0  0  0  0  0  0  0  0  0  0
  -23.7417  -20.3037    3.5410 H   0  0  0  0  0  0  0  0  0  0  0  0
  -23.6796  -22.0989    3.5410 H   0  0  0  0  0  0  0  0  0  0  0  0
  1  2  1  0
  2  3  1  0
  2  9  1  0
  3 11  1  0
  4  3  2  0
  5  4  1  0
  5 12  1  0
  6  5  1  0
  6 14  2  0
  7  6  1  0
  7  8  1  0
  8  1  1  0
  9 10  1  0
 11 10  1  0
 11 20  1  0
 12 13  1  0
 14 13  1  0
 15  5  1  0
 16 11  1  0
 16 21  1  0
 17  1  1  0
 18  8  1  0
 19  7  1  0
 22 14  1  0
 22 24  1  0
 23 22  1  0
 25 21  1  0
  1 26  1  0
  2 27  1  0
  4 28  1  0
  7 29  1  0
  8 30  1  0
  9 31  1  0
  9 32  1  0
 10 33  1  0
 10 34  1  0
 12 35  1  0
 12 36  1  0
 13 37  1  0
 13 38  1  0
 15 39  1  0
 15 40  1  0
 15 41  1  0
 16 42  1  0
 16 43  1  0
 17 44  1  0
 17 45  1  0
 17 46  1  0
 18 47  1  0
 19 48  1  0
 20 49  1  0
 22 50  1  0
 23 51  1  0
 23 52  1  0
 23 53  1  0
 24 54  1  0
 24 55  1  0
 24 56  1  0
 25 57  1  0
 25 58  1  0
 25 59  1  0
A    1
CAA
A    2
CAB
A    3
CAC
A    4
CAD
A    5
CAE
A    6
CAF
A    7
CAG
A    8
CAH
A    9
CAI
A   10
CAJ
A   11
CAK
A   12
CAL
A   13
CAM
A   14
CAN
A   15
CAO
A   16
CAP
A   17
CAQ
A   18
OAR
A   19
OAS
A   20
OAT
A   21
OAU
A   22
CAV
A   23
CAW
A   24
CAX
A   25
CAY
M  END
