3SP7_03B_A_210
     RDKit          3D

113119  0  0  0  0  0  0  0  0999 V2000
   -8.4680   -2.0000   -8.0400 N   0  0  0  0  0  0  0  0  0  0  0  0
    2.7920    3.9230   -6.0580 N   0  0  0  0  0  0  0  0  0  0  0  0
    2.6240    6.3920   -4.4780 N   0  0  0  0  0  0  0  0  0  0  0  0
    4.5580   13.0890   -3.7870 N   0  0  0  0  0  0  0  0  0  0  0  0
   -3.0740    1.8720  -10.7900 N   0  0  0  0  0  0  0  0  0  0  0  0
    1.4650   -0.4390  -10.7690 S   0  0  0  0  0  0  0  0  0  0  0  0
   -4.0970   -0.0500   -9.0330 N   0  0  0  0  0  0  0  0  0  0  0  0
    2.5390   -0.4640   -9.5150 N   0  0  0  0  0  0  0  0  0  0  0  0
   -5.0220    1.0750   -6.3090 S   0  0  0  0  0  0  0  0  0  0  0  0
    6.9960   13.2680   -4.3250 C   0  0  0  0  0  0  0  0  0  0  0  0
   -8.9790   -1.8940   -9.4190 C   0  0  0  0  0  0  0  0  0  0  0  0
   -9.1700   -3.0300   -7.2580 C   0  0  0  0  0  0  0  0  0  0  0  0
    4.3090   14.5560   -3.9680 C   0  0  0  0  0  0  0  0  0  0  0  0
    7.7900   10.4730   -3.9860 O   0  0  0  0  0  0  0  0  0  0  0  0
   -2.4900    2.7700  -11.5570 O   0  0  0  0  0  0  0  0  0  0  0  0
    1.6240   -1.8030  -11.4640 O   0  0  0  0  0  0  0  0  0  0  0  0
    1.7890    0.6810  -11.6940 O   0  0  0  0  0  0  0  0  0  0  0  0
    6.3500    8.9370   -3.8520 O   0  0  0  0  0  0  0  0  0  0  0  0
   -4.2570    1.9900  -10.5210 O   0  0  0  0  0  0  0  0  0  0  0  0
   -2.0670   13.3030   -2.1720 Cl  0  0  0  0  0  0  0  0  0  0  0  0
   -1.2900    3.4600   -7.3440 C   0  0  0  0  0  0  0  0  0  0  0  0
   -2.5370    3.9100   -7.7500 C   0  0  0  0  0  0  0  0  0  0  0  0
   -1.2040    2.2980   -6.6010 C   0  0  0  0  0  0  0  0  0  0  0  0
    2.1370    8.5550   -1.5300 C   0  0  0  0  0  0  0  0  0  0  0  0
   -0.0890   12.1900   -3.6750 C   0  0  0  0  0  0  0  0  0  0  0  0
    0.5920   13.5460   -1.7830 C   0  0  0  0  0  0  0  0  0  0  0  0
    2.0930    0.4800   -7.3330 C   0  0  0  0  0  0  0  0  0  0  0  0
    3.1390    1.8100   -9.0520 C   0  0  0  0  0  0  0  0  0  0  0  0
   -3.7100    3.2270   -7.4210 C   0  0  0  0  0  0  0  0  0  0  0  0
   -2.3550    1.6100   -6.2570 C   0  0  0  0  0  0  0  0  0  0  0  0
    2.8700    9.6830   -1.9010 C   0  0  0  0  0  0  0  0  0  0  0  0
    1.2580   11.9670   -3.9740 C   0  0  0  0  0  0  0  0  0  0  0  0
    1.9450   13.3260   -2.1180 C   0  0  0  0  0  0  0  0  0  0  0  0
    2.0180    7.4720   -2.4110 C   0  0  0  0  0  0  0  0  0  0  0  0
    2.2050    1.5850   -6.4540 C   0  0  0  0  0  0  0  0  0  0  0  0
    3.1990    2.9160   -8.1820 C   0  0  0  0  0  0  0  0  0  0  0  0
   -1.9670   -1.1150   -8.8520 C   0  0  0  0  0  0  0  0  0  0  0  0
   -0.6500   -1.2250   -9.2730 C   0  0  0  0  0  0  0  0  0  0  0  0
    3.3950    8.6550   -4.0190 C   0  0  0  0  0  0  0  0  0  0  0  0
   -0.9780    0.6950  -10.6940 C   0  0  0  0  0  0  0  0  0  0  0  0
   -6.2600   -1.0350   -8.5860 C   0  0  0  0  0  0  0  0  0  0  0  0
   -7.0090   -2.2160   -7.9620 C   0  0  0  0  0  0  0  0  0  0  0  0
    3.4670    5.1310   -6.5430 C   0  0  0  0  0  0  0  0  0  0  0  0
    1.7450    4.0930   -5.0530 C   0  0  0  0  0  0  0  0  0  0  0  0
    3.6410    6.2790   -5.5440 C   0  0  0  0  0  0  0  0  0  0  0  0
    1.9590    5.1750   -3.9940 C   0  0  0  0  0  0  0  0  0  0  0  0
   -4.4700   -0.6310   -6.7170 C   0  0  0  0  0  0  0  0  0  0  0  0
    6.5830   10.1700   -3.8700 C   0  0  0  0  0  0  0  0  0  0  0  0
   -0.4000   13.0030   -2.5800 C   0  0  0  0  0  0  0  0  0  0  0  0
    2.5810    0.5950   -8.6450 C   0  0  0  0  0  0  0  0  0  0  0  0
   -3.5970    2.0380   -6.6860 C   0  0  0  0  0  0  0  0  0  0  0  0
    5.7320   12.4560   -3.9920 C   0  0  0  0  0  0  0  0  0  0  0  0
    2.3070   12.5010   -3.2120 C   0  0  0  0  0  0  0  0  0  0  0  0
    3.5420    9.7730   -3.1410 C   0  0  0  0  0  0  0  0  0  0  0  0
    2.7610    2.8110   -6.8630 C   0  0  0  0  0  0  0  0  0  0  0  0
    2.6640    7.4910   -3.6670 C   0  0  0  0  0  0  0  0  0  0  0  0
   -2.8130   -0.1080   -9.3610 C   0  0  0  0  0  0  0  0  0  0  0  0
   -0.1340   -0.3040  -10.1980 C   0  0  0  0  0  0  0  0  0  0  0  0
   -2.3050    0.8330  -10.2940 C   0  0  0  0  0  0  0  0  0  0  0  0
    5.5730   11.1200   -3.7620 C   0  0  0  0  0  0  0  0  0  0  0  0
    4.2180   10.9400   -3.4790 C   0  0  0  0  0  0  0  0  0  0  0  0
    3.6180   12.1860   -3.4970 C   0  0  0  0  0  0  0  0  0  0  0  0
   -4.7670   -1.0350   -8.1730 C   0  0  0  0  0  0  0  0  0  0  0  0
   -4.6571    0.7313   -9.4029 H   0  0  0  0  0  0  0  0  0  0  0  0
    3.1711   -1.2672   -9.3876 H   0  0  0  0  0  0  0  0  0  0  0  0
    7.4860   13.5828   -3.3918 H   0  0  0  0  0  0  0  0  0  0  0  0
    7.6882   12.6452   -4.9106 H   0  0  0  0  0  0  0  0  0  0  0  0
    6.7173   14.1565   -4.9106 H   0  0  0  0  0  0  0  0  0  0  0  0
  -10.0558   -1.6706   -9.3949 H   0  0  0  0  0  0  0  0  0  0  0  0
   -8.4488   -1.0867   -9.9455 H   0  0  0  0  0  0  0  0  0  0  0  0
   -8.8136   -2.8456   -9.9455 H   0  0  0  0  0  0  0  0  0  0  0  0
   -9.0345   -2.8312   -6.1846 H   0  0  0  0  0  0  0  0  0  0  0  0
  -10.2423   -3.0086   -7.5024 H   0  0  0  0  0  0  0  0  0  0  0  0
   -8.7580   -4.0202   -7.5024 H   0  0  0  0  0  0  0  0  0  0  0  0
    4.2271   15.0383   -2.9828 H   0  0  0  0  0  0  0  0  0  0  0  0
    5.1440   15.0034   -4.5270 H   0  0  0  0  0  0  0  0  0  0  0  0
    3.3731   14.7028   -4.5270 H   0  0  0  0  0  0  0  0  0  0  0  0
    6.2604    8.4627   -2.9876 H   0  0  0  0  0  0  0  0  0  0  0  0
   -0.3815    4.0203   -7.6097 H   0  0  0  0  0  0  0  0  0  0  0  0
   -2.6044    4.8308   -8.3480 H   0  0  0  0  0  0  0  0  0  0  0  0
   -0.2212    1.9198   -6.2830 H   0  0  0  0  0  0  0  0  0  0  0  0
    1.6515    8.5160   -0.5437 H   0  0  0  0  0  0  0  0  0  0  0  0
   -0.8845   11.7376   -4.2854 H   0  0  0  0  0  0  0  0  0  0  0  0
    0.3288   14.1430   -0.8974 H   0  0  0  0  0  0  0  0  0  0  0  0
    1.6292   -0.4574   -6.9921 H   0  0  0  0  0  0  0  0  0  0  0  0
    3.5393    1.9044  -10.0722 H   0  0  0  0  0  0  0  0  0  0  0  0
   -4.6938    3.6105   -7.7294 H   0  0  0  0  0  0  0  0  0  0  0  0
   -2.2797    0.7079   -5.6320 H   0  0  0  0  0  0  0  0  0  0  0  0
    2.9267   10.5319   -1.2038 H   0  0  0  0  0  0  0  0  0  0  0  0
    1.5064   11.3446   -4.8463 H   0  0  0  0  0  0  0  0  0  0  0  0
    2.7338   13.8040   -1.5186 H   0  0  0  0  0  0  0  0  0  0  0  0
    1.4155    6.5983   -2.1217 H   0  0  0  0  0  0  0  0  0  0  0  0
    1.8461    1.4814   -5.4194 H   0  0  0  0  0  0  0  0  0  0  0  0
    3.5963    3.8742   -8.5479 H   0  0  0  0  0  0  0  0  0  0  0  0
   -2.3582   -1.8252   -8.1086 H   0  0  0  0  0  0  0  0  0  0  0  0
   -0.0118   -2.0316   -8.8831 H   0  0  0  0  0  0  0  0  0  0  0  0
    3.8691    8.6988   -5.0106 H   0  0  0  0  0  0  0  0  0  0  0  0
   -0.5757    1.4034  -11.4331 H   0  0  0  0  0  0  0  0  0  0  0  0
   -6.7252   -0.0970   -8.2488 H   0  0  0  0  0  0  0  0  0  0  0  0
   -6.3178   -1.1260   -9.6807 H   0  0  0  0  0  0  0  0  0  0  0  0
   -6.7134   -2.3161   -6.9072 H   0  0  0  0  0  0  0  0  0  0  0  0
   -6.7540   -3.1322   -8.5148 H   0  0  0  0  0  0  0  0  0  0  0  0
    4.4692    4.8357   -6.8870 H   0  0  0  0  0  0  0  0  0  0  0  0
    2.8072    5.5318   -7.3266 H   0  0  0  0  0  0  0  0  0  0  0  0
    0.8120    4.3310   -5.5848 H   0  0  0  0  0  0  0  0  0  0  0  0
    1.7353    3.1467   -4.4922 H   0  0  0  0  0  0  0  0  0  0  0  0
    3.6329    7.2202   -6.1133 H   0  0  0  0  0  0  0  0  0  0  0  0
    4.5850    6.0660   -5.0210 H   0  0  0  0  0  0  0  0  0  0  0  0
    0.9751    5.4598   -3.5930 H   0  0  0  0  0  0  0  0  0  0  0  0
    2.6279    4.7382   -3.2379 H   0  0  0  0  0  0  0  0  0  0  0  0
   -3.3845   -0.6959   -6.5511 H   0  0  0  0  0  0  0  0  0  0  0  0
   -5.0303   -1.3191   -6.0670 H   0  0  0  0  0  0  0  0  0  0  0  0
   -4.4167   -2.0725   -8.2771 H   0  0  0  0  0  0  0  0  0  0  0  0
  1 42  1  0
  1 12  1  0
  2 43  1  0
  3 45  1  0
  3 56  1  0
  4 62  1  0
  5 19  1  0
  5 59  1  0
  6 58  1  0
  6  8  1  0
  7 63  1  0
  8 50  1  0
 10 52  1  0
 11  1  1  0
 13  4  1  0
 14 48  2  0
 15  5  2  0
 16  6  2  0
 17  6  2  0
 21 22  2  0
 22 29  1  0
 23 21  1  0
 23 30  2  0
 25 49  2  0
 27 50  2  0
 27 35  1  0
 28 36  2  0
 30 51  1  0
 31 24  2  0
 32 25  1  0
 32 53  2  0
 33 26  2  0
 34 24  1  0
 35 55  2  0
 38 37  2  0
 39 56  1  0
 39 54  2  0
 40 59  1  0
 40 58  2  0
 41 63  1  0
 41 42  1  0
 43 45  1  0
 44  2  1  0
 44 46  1  0
 46  3  1  0
 47  9  1  0
 48 18  1  0
 48 60  1  0
 49 20  1  0
 49 26  1  0
 50 28  1  0
 51  9  1  0
 51 29  2  0
 52  4  1  0
 52 60  2  0
 53 33  1  0
 54 31  1  0
 55  2  1  0
 55 36  1  0
 56 34  2  0
 57  7  1  0
 57 37  1  0
 58 38  1  0
 59 57  2  0
 60 61  1  0
 61 54  1  0
 62 53  1  0
 62 61  2  0
 63 47  1  0
  7 64  1  0
  8 65  1  0
 10 66  1  0
 10 67  1  0
 10 68  1  0
 11 69  1  0
 11 70  1  0
 11 71  1  0
 12 72  1  0
 12 73  1  0
 12 74  1  0
 13 75  1  0
 13 76  1  0
 13 77  1  0
 18 78  1  0
 21 79  1  0
 22 80  1  0
 23 81  1  0
 24 82  1  0
 25 83  1  0
 26 84  1  0
 27 85  1  0
 28 86  1  0
 29 87  1  0
 30 88  1  0
 31 89  1  0
 32 90  1  0
 33 91  1  0
 34 92  1  0
 35 93  1  0
 36 94  1  0
 37 95  1  0
 38 96  1  0
 39 97  1  0
 40 98  1  0
 41 99  1  0
 41100  1  0
 42101  1  0
 42102  1  0
 43103  1  0
 43104  1  0
 44105  1  0
 44106  1  0
 45107  1  0
 45108  1  0
 46109  1  0
 46110  1  0
 47111  1  0
 47112  1  0
 63113  1  0
M  CHG  2   5   1  19  -1
A    1
N1
A    2
N2
A    3
N3
A    4
N4
A    5
N5
A    6
S1
A    7
N6
A    8
N7
A    9
S2
A   10
C1
A   11
C2
A   12
C3
A   13
C4
A   14
O1
A   15
O2
A   16
O3
A   17
O4
A   18
O5
A   19
O6
A   20
CL1
A   21
C5
A   22
C6
A   23
C7
A   24
C8
A   25
C9
A   26
C10
A   27
C11
A   28
C12
A   29
C13
A   30
C14
A   31
C15
A   32
C16
A   33
C17
A   34
C18
A   35
C19
A   36
C20
A   37
C21
A   38
C22
A   39
C23
A   40
C24
A   41
C25
A   42
C26
A   43
C27
A   44
C28
A   45
C29
A   46
C30
A   47
C31
A   48
C32
A   49
C33
A   50
C34
A   51
C35
A   52
C36
A   53
C37
A   54
C38
A   55
C39
A   56
C40
A   57
C41
A   58
C42
A   59
C43
A   60
C44
A   61
C45
A   62
C46
A   63
C47
M  END
