3SPW_T7M_A_435
     RDKit          3D

146146  0  0  0  0  0  0  0  0999 V2000
   -1.7780   -1.4200   36.0030 C   0  0  0  0  0  0  0  0  0  0  0  0
   -1.6980   -2.4220   37.0070 O   0  0  0  0  0  0  0  0  0  0  0  0
   -2.7040   -3.6730   37.1000 P   0  0  0  0  0  0  0  0  0  0  0  0
   -0.8040   -0.2680   36.3340 C   0  0  0  0  0  0  0  0  0  0  0  0
   -1.1360    0.3650   37.5580 O   0  0  0  0  0  0  0  0  0  0  0  0
   -0.8640    0.8030   35.2600 C   0  0  0  0  0  0  0  0  0  0  0  0
    0.0360    1.8450   35.5880 O   0  0  0  0  0  0  0  0  0  0  0  0
   -0.5080    0.2400   33.8980 C   0  0  0  0  0  0  0  0  0  0  0  0
   -0.6960    1.2750   32.9550 O   0  0  0  0  0  0  0  0  0  0  0  0
    0.4680    1.8140   32.0090 P   0  0  0  0  0  0  0  0  0  0  0  0
   -1.4630   -0.9110   33.5510 C   0  0  0  0  0  0  0  0  0  0  0  0
   -1.1590   -1.4150   32.2510 O   0  0  0  0  0  0  0  0  0  0  0  0
   -1.4500   -2.0240   34.6260 C   0  0  0  0  0  0  0  0  0  0  0  0
   -0.1730   -2.6700   34.6760 O   0  0  0  0  0  0  0  0  0  0  0  0
   -2.4590   -5.7400   35.3400 C   0  0  0  0  0  0  0  0  0  0  0  0
   -1.7140   -7.1110   35.2010 C   0  0  0  0  0  0  0  0  0  0  0  0
   -1.1330   -7.6560   36.5060 C   0  0  0  0  0  0  0  0  0  0  0  0
   -3.5550   -8.8030   35.1220 C   0  0  0  0  0  0  0  0  0  0  0  0
    0.8720   -8.8980   36.5710 C   0  0  0  0  0  0  0  0  0  0  0  0
   -4.0750   -3.4070   36.6280 O   0  0  0  0  0  0  0  0  0  0  0  0
   -3.6600  -10.3060   34.9030 C   0  0  0  0  0  0  0  0  0  0  0  0
   -2.6990   -4.1090   38.6600 O   0  0  0  0  0  0  0  0  0  0  0  0
   -2.9440  -11.0660   36.0130 C   0  0  0  0  0  0  0  0  0  0  0  0
   -1.9500   -4.9480   36.4110 O   0  0  0  0  0  0  0  0  0  0  0  0
   -3.9360  -11.6080   37.0530 C   0  0  0  0  0  0  0  0  0  0  0  0
   -4.0480  -13.0020   37.0240 C   0  0  0  0  0  0  0  0  0  0  0  0
   -3.1650  -13.8930   37.6590 C   0  0  0  0  0  0  0  0  0  0  0  0
   -2.5920   -8.0590   34.4740 O   0  0  0  0  0  0  0  0  0  0  0  0
   -2.0190  -13.5330   38.3890 C   0  0  0  0  0  0  0  0  0  0  0  0
   -4.3850   -8.2650   35.8390 O   0  0  0  0  0  0  0  0  0  0  0  0
   -0.8750  -13.9170   37.6770 C   0  0  0  0  0  0  0  0  0  0  0  0
   -0.4510   -8.8870   36.2000 O   0  0  0  0  0  0  0  0  0  0  0  0
    0.3720  -14.2340   38.2360 C   0  0  0  0  0  0  0  0  0  0  0  0
    1.5050   -7.8510   36.7130 O   0  0  0  0  0  0  0  0  0  0  0  0
    0.6750  -14.2290   39.5970 C   0  0  0  0  0  0  0  0  0  0  0  0
    1.1310  -15.4970   39.9750 C   0  0  0  0  0  0  0  0  0  0  0  0
    2.1590  -15.7340   40.9030 C   0  0  0  0  0  0  0  0  0  0  0  0
    2.8700  -14.7330   41.5770 C   0  0  0  0  0  0  0  0  0  0  0  0
    2.6290  -14.8380   42.9460 C   0  0  0  0  0  0  0  0  0  0  0  0
    3.3610  -14.1660   43.9290 C   0  0  0  0  0  0  0  0  0  0  0  0
    4.4240  -13.2940   43.6690 C   0  0  0  0  0  0  0  0  0  0  0  0
    5.6530  -13.5700   44.5640 C   0  0  0  0  0  0  0  0  0  0  0  0
    5.4870  -13.0550   46.0110 C   0  0  0  0  0  0  0  0  0  0  0  0
    6.0790  -11.6500   46.2250 C   0  0  0  0  0  0  0  0  0  0  0  0
    7.6020  -11.6790   46.3800 C   0  0  0  0  0  0  0  0  0  0  0  0
    1.5720  -10.2310   36.8310 C   0  0  0  0  0  0  0  0  0  0  0  0
    1.2930  -10.6990   38.2510 C   0  0  0  0  0  0  0  0  0  0  0  0
    2.3150  -10.1260   39.2320 C   0  0  0  0  0  0  0  0  0  0  0  0
    1.7030   -9.9320   40.6240 C   0  0  0  0  0  0  0  0  0  0  0  0
    2.2380  -10.9650   41.6240 C   0  0  0  0  0  0  0  0  0  0  0  0
    1.2620  -11.2280   42.7830 C   0  0  0  0  0  0  0  0  0  0  0  0
    0.0080  -11.9910   42.3180 C   0  0  0  0  0  0  0  0  0  0  0  0
   -0.6990  -12.7280   43.4780 C   0  0  0  0  0  0  0  0  0  0  0  0
   -1.7530  -13.7270   42.9630 C   0  0  0  0  0  0  0  0  0  0  0  0
   -3.1660  -13.1180   42.9320 C   0  0  0  0  0  0  0  0  0  0  0  0
   -4.0620  -13.8100   41.8890 C   0  0  0  0  0  0  0  0  0  0  0  0
    1.5420    2.5600   32.9240 O   0  0  0  0  0  0  0  0  0  0  0  0
   -5.4650  -13.1740   41.8570 C   0  0  0  0  0  0  0  0  0  0  0  0
   -0.0980    2.6290   30.9010 O   0  0  0  0  0  0  0  0  0  0  0  0
   -6.3420  -13.7080   40.7090 C   0  0  0  0  0  0  0  0  0  0  0  0
    1.2510    0.4800   31.4800 O   0  0  0  0  0  0  0  0  0  0  0  0
   -7.4510  -14.6270   41.2390 C   0  0  0  0  0  0  0  0  0  0  0  0
   -8.6970  -13.8440   41.6890 C   0  0  0  0  0  0  0  0  0  0  0  0
   -9.5620  -14.6540   42.6720 C   0  0  0  0  0  0  0  0  0  0  0  0
   -2.8021   -1.0197   35.9731 H   0  0  0  0  0  0  0  0  0  0  0  0
    0.1977   -0.7180   36.3986 H   0  0  0  0  0  0  0  0  0  0  0  0
   -0.8389   -0.2014   38.3137 H   0  0  0  0  0  0  0  0  0  0  0  0
   -1.8933    1.1883   35.2137 H   0  0  0  0  0  0  0  0  0  0  0  0
    0.1044    1.9242   36.5724 H   0  0  0  0  0  0  0  0  0  0  0  0
    0.5277   -0.1307   33.8930 H   0  0  0  0  0  0  0  0  0  0  0  0
   -2.4903   -0.5179   33.5392 H   0  0  0  0  0  0  0  0  0  0  0  0
   -0.6495   -2.2596   32.3354 H   0  0  0  0  0  0  0  0  0  0  0  0
   -2.2101   -2.7732   34.3595 H   0  0  0  0  0  0  0  0  0  0  0  0
    0.0922   -2.8042   35.6203 H   0  0  0  0  0  0  0  0  0  0  0  0
   -2.3438   -5.1791   34.4008 H   0  0  0  0  0  0  0  0  0  0  0  0
   -3.5161   -5.9544   35.5560 H   0  0  0  0  0  0  0  0  0  0  0  0
   -0.8044   -6.9514   34.6033 H   0  0  0  0  0  0  0  0  0  0  0  0
   -0.4243   -6.9308   36.9325 H   0  0  0  0  0  0  0  0  0  0  0  0
   -1.9325   -7.8304   37.2411 H   0  0  0  0  0  0  0  0  0  0  0  0
   -4.7211  -10.5958   34.8939 H   0  0  0  0  0  0  0  0  0  0  0  0
   -3.1864  -10.5562   33.9422 H   0  0  0  0  0  0  0  0  0  0  0  0
   -2.7083   -3.2990   39.2291 H   0  0  0  0  0  0  0  0  0  0  0  0
   -2.3927  -11.9091   35.5712 H   0  0  0  0  0  0  0  0  0  0  0  0
   -2.2570  -10.3721   36.5195 H   0  0  0  0  0  0  0  0  0  0  0  0
   -3.5961  -11.3040   38.0540 H   0  0  0  0  0  0  0  0  0  0  0  0
   -4.9258  -11.1924   36.8129 H   0  0  0  0  0  0  0  0  0  0  0  0
   -4.8898  -13.4334   36.4624 H   0  0  0  0  0  0  0  0  0  0  0  0
   -3.3909  -14.9665   37.5773 H   0  0  0  0  0  0  0  0  0  0  0  0
   -2.0081  -12.4437   38.5416 H   0  0  0  0  0  0  0  0  0  0  0  0
   -2.0313  -14.0387   39.3658 H   0  0  0  0  0  0  0  0  0  0  0  0
   -0.9625  -13.9751   36.5820 H   0  0  0  0  0  0  0  0  0  0  0  0
    1.1793  -14.5099   37.5417 H   0  0  0  0  0  0  0  0  0  0  0  0
    1.4581  -13.4827   39.7962 H   0  0  0  0  0  0  0  0  0  0  0  0
   -0.2265  -13.9750   40.1738 H   0  0  0  0  0  0  0  0  0  0  0  0
    0.6498  -16.3712   39.5121 H   0  0  0  0  0  0  0  0  0  0  0  0
    2.4243  -16.7802   41.1153 H   0  0  0  0  0  0  0  0  0  0  0  0
    3.9461  -14.8529   41.3832 H   0  0  0  0  0  0  0  0  0  0  0  0
    2.5428  -13.7452   41.2203 H   0  0  0  0  0  0  0  0  0  0  0  0
    1.8085  -15.4930   43.2744 H   0  0  0  0  0  0  0  0  0  0  0  0
    3.0821  -14.3343   44.9797 H   0  0  0  0  0  0  0  0  0  0  0  0
    4.7226  -13.4069   42.6163 H   0  0  0  0  0  0  0  0  0  0  0  0
    4.0772  -12.2728   43.8857 H   0  0  0  0  0  0  0  0  0  0  0  0
    5.8226  -14.6563   44.5979 H   0  0  0  0  0  0  0  0  0  0  0  0
    6.5036  -13.0297   44.1229 H   0  0  0  0  0  0  0  0  0  0  0  0
    4.4137  -13.0225   46.2498 H   0  0  0  0  0  0  0  0  0  0  0  0
    6.0353  -13.7451   46.6691 H   0  0  0  0  0  0  0  0  0  0  0  0
    5.8234  -11.0226   45.3583 H   0  0  0  0  0  0  0  0  0  0  0  0
    5.6537  -11.2434   47.1544 H   0  0  0  0  0  0  0  0  0  0  0  0
    7.8617  -11.6839   47.4489 H   0  0  0  0  0  0  0  0  0  0  0  0
    8.0021  -12.5849   45.9012 H   0  0  0  0  0  0  0  0  0  0  0  0
    8.0363  -10.7890   45.9012 H   0  0  0  0  0  0  0  0  0  0  0  0
    1.1987  -10.9828   36.1201 H   0  0  0  0  0  0  0  0  0  0  0  0
    2.6564  -10.0997   36.7015 H   0  0  0  0  0  0  0  0  0  0  0  0
    0.2867  -10.3677   38.5469 H   0  0  0  0  0  0  0  0  0  0  0  0
    1.3629  -11.7965   38.2763 H   0  0  0  0  0  0  0  0  0  0  0  0
    3.1661  -10.8187   39.3081 H   0  0  0  0  0  0  0  0  0  0  0  0
    2.6437   -9.1453   38.8575 H   0  0  0  0  0  0  0  0  0  0  0  0
    1.9508   -8.9231   40.9857 H   0  0  0  0  0  0  0  0  0  0  0  0
    0.6139  -10.0632   40.5428 H   0  0  0  0  0  0  0  0  0  0  0  0
    2.4158  -11.9111   41.0918 H   0  0  0  0  0  0  0  0  0  0  0  0
    3.1658  -10.5611   42.0554 H   0  0  0  0  0  0  0  0  0  0  0  0
    1.7757  -11.8238   43.5518 H   0  0  0  0  0  0  0  0  0  0  0  0
    0.9395  -10.2556   43.1835 H   0  0  0  0  0  0  0  0  0  0  0  0
   -0.6974  -11.2733   41.8738 H   0  0  0  0  0  0  0  0  0  0  0  0
    0.3285  -12.7476   41.5867 H   0  0  0  0  0  0  0  0  0  0  0  0
    0.0542  -13.2754   44.0637 H   0  0  0  0  0  0  0  0  0  0  0  0
   -1.2126  -11.9778   44.0972 H   0  0  0  0  0  0  0  0  0  0  0  0
   -1.4787  -14.0372   41.9439 H   0  0  0  0  0  0  0  0  0  0  0  0
   -1.7702  -14.5844   43.6519 H   0  0  0  0  0  0  0  0  0  0  0  0
   -3.6242  -13.2298   43.9258 H   0  0  0  0  0  0  0  0  0  0  0  0
   -3.0759  -12.0569   42.6563 H   0  0  0  0  0  0  0  0  0  0  0  0
   -3.5997  -13.7115   40.8957 H   0  0  0  0  0  0  0  0  0  0  0  0
   -4.1642  -14.8704   42.1632 H   0  0  0  0  0  0  0  0  0  0  0  0
    1.3246    2.4090   33.8779 H   0  0  0  0  0  0  0  0  0  0  0  0
   -5.9686  -13.3877   42.8113 H   0  0  0  0  0  0  0  0  0  0  0  0
   -5.3330  -12.0940   41.6951 H   0  0  0  0  0  0  0  0  0  0  0  0
   -6.8012  -12.8580   40.1831 H   0  0  0  0  0  0  0  0  0  0  0  0
   -5.7053  -14.2889   40.0255 H   0  0  0  0  0  0  0  0  0  0  0  0
    1.5619   -0.0498   32.2564 H   0  0  0  0  0  0  0  0  0  0  0  0
   -7.7421  -15.3258   40.4409 H   0  0  0  0  0  0  0  0  0  0  0  0
   -7.0546  -15.1593   42.1162 H   0  0  0  0  0  0  0  0  0  0  0  0
   -8.3741  -12.9151   42.1819 H   0  0  0  0  0  0  0  0  0  0  0  0
   -9.3048  -13.6302   40.7975 H   0  0  0  0  0  0  0  0  0  0  0  0
   -9.2847  -14.3943   43.7043 H   0  0  0  0  0  0  0  0  0  0  0  0
  -10.6235  -14.4176   42.5070 H   0  0  0  0  0  0  0  0  0  0  0  0
   -9.3957  -15.7288   42.5070 H   0  0  0  0  0  0  0  0  0  0  0  0
 13  1  1  0
  1  4  1  0
  1  2  1  0
  2  3  1  0
 24  3  1  0
 20  3  2  0
  3 22  1  0
  6  4  1  0
  4  5  1  0
  8  6  1  0
  6  7  1  0
  9  8  1  0
 11  8  1  0
 10  9  1  0
 59 10  2  0
 61 10  1  0
 10 57  1  0
 12 11  1  0
 11 13  1  0
 13 14  1  0
 16 15  1  0
 15 24  1  0
 28 16  1  0
 16 17  1  0
 32 17  1  0
 28 18  1  0
 21 18  1  0
 18 30  2  0
 32 19  1  0
 19 34  2  0
 19 46  1  0
 21 23  1  0
 23 25  1  0
 26 25  1  0
 26 27  2  0
 27 29  1  0
 31 29  1  0
 31 33  2  0
 33 35  1  0
 35 36  1  0
 36 37  2  0
 37 38  1  0
 38 39  1  0
 39 40  2  0
 41 40  1  0
 41 42  1  0
 42 43  1  0
 43 44  1  0
 44 45  1  0
 46 47  1  0
 47 48  1  0
 48 49  1  0
 49 50  1  0
 50 51  1  0
 52 51  1  0
 52 53  1  0
 54 53  1  0
 55 54  1  0
 56 55  1  0
 58 56  1  0
 60 58  1  0
 60 62  1  0
 62 63  1  0
 63 64  1  0
  1 65  1  0
  4 66  1  0
  5 67  1  0
  6 68  1  0
  7 69  1  0
  8 70  1  0
 11 71  1  0
 12 72  1  0
 13 73  1  0
 14 74  1  0
 15 75  1  0
 15 76  1  0
 16 77  1  0
 17 78  1  0
 17 79  1  0
 21 80  1  0
 21 81  1  0
 22 82  1  0
 23 83  1  0
 23 84  1  0
 25 85  1  0
 25 86  1  0
 26 87  1  0
 27 88  1  0
 29 89  1  0
 29 90  1  0
 31 91  1  0
 33 92  1  0
 35 93  1  0
 35 94  1  0
 36 95  1  0
 37 96  1  0
 38 97  1  0
 38 98  1  0
 39 99  1  0
 40100  1  0
 41101  1  0
 41102  1  0
 42103  1  0
 42104  1  0
 43105  1  0
 43106  1  0
 44107  1  0
 44108  1  0
 45109  1  0
 45110  1  0
 45111  1  0
 46112  1  0
 46113  1  0
 47114  1  0
 47115  1  0
 48116  1  0
 48117  1  0
 49118  1  0
 49119  1  0
 50120  1  0
 50121  1  0
 51122  1  0
 51123  1  0
 52124  1  0
 52125  1  0
 53126  1  0
 53127  1  0
 54128  1  0
 54129  1  0
 55130  1  0
 55131  1  0
 56132  1  0
 56133  1  0
 57134  1  0
 58135  1  0
 58136  1  0
 60137  1  0
 60138  1  0
 61139  1  0
 62140  1  0
 62141  1  0
 63142  1  0
 63143  1  0
 64144  1  0
 64145  1  0
 64146  1  0
A    1
C1
A    2
O1
A    3
P1
A    4
C2
A    5
O2
A    6
C3
A    7
O3
A    8
C4
A    9
O4
A   10
P4
A   11
C5
A   12
O5
A   13
C6
A   14
O6
A   15
C7
A   16
C8
A   17
C9
A   18
C10
A   19
C11
A   20
O11
A   21
C12
A   22
O12
A   23
C13
A   24
O13
A   25
C14
A   26
C15
A   27
C16
A   28
O16
A   29
C17
A   30
O17
A   31
C18
A   32
O18
A   33
C19
A   34
O19
A   35
C20
A   36
C21
A   37
C22
A   38
C23
A   39
C24
A   40
C25
A   41
C26
A   42
C27
A   43
C28
A   44
C29
A   45
C30
A   46
C31
A   47
C32
A   48
C33
A   49
C34
A   50
C35
A   51
C36
A   52
C37
A   53
C38
A   54
C39
A   55
C40
A   56
C41
A   57
O41
A   58
C42
A   59
O42
A   60
C43
A   61
O43
A   62
C44
A   63
C45
A   64
C46
M  END
