3SQQ_99Z_A_456
     RDKit          3D

 42 44  0  0  0  0  0  0  0  0999 V2000
  -95.7030   10.6110  -50.3950 N   0  0  0  0  0  0  0  0  0  0  0  0
  -97.0260   11.1690  -48.5350 N   0  0  0  0  0  0  0  0  0  0  0  0
  -94.0870    9.7070  -52.0970 N   0  0  0  0  0  0  0  0  0  0  0  0
  -99.9650    9.3320  -42.8290 N   0  0  0  0  0  0  0  0  0  0  0  0
  -94.1410    8.9760  -49.7020 C   0  0  0  0  0  0  0  0  0  0  0  0
  -94.5990    9.7570  -50.8010 C   0  0  0  0  0  0  0  0  0  0  0  0
  -95.9800   10.4200  -49.0610 C   0  0  0  0  0  0  0  0  0  0  0  0
  -97.8340   10.8440  -47.4320 C   0  0  0  0  0  0  0  0  0  0  0  0
  -93.0200    7.9930  -49.9040 C   0  0  0  0  0  0  0  0  0  0  0  0
  -92.6050    7.1520  -48.7390 C   0  0  0  0  0  0  0  0  0  0  0  0
  -91.2760    7.1740  -48.2250 C   0  0  0  0  0  0  0  0  0  0  0  0
  -90.9940    6.3470  -47.1150 C   0  0  0  0  0  0  0  0  0  0  0  0
  -91.9840    5.5300  -46.5360 C   0  0  0  0  0  0  0  0  0  0  0  0
  -93.3010    5.5000  -47.0460 C   0  0  0  0  0  0  0  0  0  0  0  0
  -93.6160    6.3230  -48.1630 C   0  0  0  0  0  0  0  0  0  0  0  0
  -97.6700    9.6530  -46.6900 C   0  0  0  0  0  0  0  0  0  0  0  0
  -98.5400    9.4330  -45.6220 C   0  0  0  0  0  0  0  0  0  0  0  0
  -99.5230   10.3940  -45.3440 C   0  0  0  0  0  0  0  0  0  0  0  0
  -99.6730   11.5760  -46.0820 C   0  0  0  0  0  0  0  0  0  0  0  0
  -98.8160   11.8100  -47.1420 C   0  0  0  0  0  0  0  0  0  0  0  0
  -90.1750    8.0560  -48.8280 C   0  0  0  0  0  0  0  0  0  0  0  0
  -92.4920    7.8800  -51.0250 O   0  0  0  0  0  0  0  0  0  0  0  0
 -100.9730   11.3310  -43.2960 O   0  0  0  0  0  0  0  0  0  0  0  0
 -101.4580    9.0060  -44.4850 O   0  0  0  0  0  0  0  0  0  0  0  0
  -94.9840    9.3050  -48.3360 S   0  0  0  0  0  0  0  0  0  0  0  0
 -100.6370   10.1240  -44.0380 S   0  0  0  0  0  0  0  0  0  0  0  0
  -97.2319   12.0616  -49.0060 H   0  0  0  0  0  0  0  0  0  0  0  0
  -93.0727    9.6080  -52.2466 H   0  0  0  0  0  0  0  0  0  0  0  0
  -94.7230    9.7691  -52.9048 H   0  0  0  0  0  0  0  0  0  0  0  0
 -100.2968    9.7231  -41.9358 H   0  0  0  0  0  0  0  0  0  0  0  0
 -100.2232    8.3365  -42.8850 H   0  0  0  0  0  0  0  0  0  0  0  0
  -89.9780    6.3411  -46.6934 H   0  0  0  0  0  0  0  0  0  0  0  0
  -91.7268    4.9029  -45.6696 H   0  0  0  0  0  0  0  0  0  0  0  0
  -94.0660    4.8547  -46.5897 H   0  0  0  0  0  0  0  0  0  0  0  0
  -94.6334    6.3210  -48.5812 H   0  0  0  0  0  0  0  0  0  0  0  0
  -96.8851    8.9258  -46.9451 H   0  0  0  0  0  0  0  0  0  0  0  0
  -98.4567    8.5231  -45.0095 H   0  0  0  0  0  0  0  0  0  0  0  0
 -100.4568   12.3032  -45.8233 H   0  0  0  0  0  0  0  0  0  0  0  0
  -98.8996   12.7275  -47.7431 H   0  0  0  0  0  0  0  0  0  0  0  0
  -89.5937    8.5216  -48.0185 H   0  0  0  0  0  0  0  0  0  0  0  0
  -89.5094    7.4384  -49.4489 H   0  0  0  0  0  0  0  0  0  0  0  0
  -90.6325    8.8403  -49.4489 H   0  0  0  0  0  0  0  0  0  0  0  0
  1  6  1  0
  1  7  2  0
  2  7  1  0
  2  8  1  0
  3  6  1  0
  4 26  1  0
  5  6  2  0
  5  9  1  0
  5 25  1  0
  7 25  1  0
  8 16  2  0
  8 20  1  0
  9 10  1  0
  9 22  2  0
 10 11  2  0
 10 15  1  0
 11 12  1  0
 11 21  1  0
 12 13  2  0
 13 14  1  0
 14 15  2  0
 16 17  1  0
 17 18  2  0
 18 19  1  0
 18 26  1  0
 19 20  2  0
 23 26  2  0
 24 26  2  0
  2 27  1  0
  3 28  1  0
  3 29  1  0
  4 30  1  0
  4 31  1  0
 12 32  1  0
 13 33  1  0
 14 34  1  0
 15 35  1  0
 16 36  1  0
 17 37  1  0
 19 38  1  0
 20 39  1  0
 21 40  1  0
 21 41  1  0
 21 42  1  0
A    1
N01
A    2
N02
A    3
N03
A    4
N04
A    5
C05
A    6
C06
A    7
C07
A    8
C08
A    9
C09
A   10
C10
A   11
C11
A   12
C12
A   13
C13
A   14
C14
A   15
C15
A   16
C16
A   17
C17
A   18
C18
A   19
C19
A   20
C20
A   21
C21
A   22
O22
A   23
O23
A   24
O24
A   25
S25
A   26
S26
M  END
