3SQY_Q11_X_169
     RDKit          3D

 34 36  0  0  0  0  0  0  0  0999 V2000
   -4.1280   28.6690   -3.8790 C   0  0  0  0  0  0  0  0  0  0  0  0
   -5.0660   27.6910   -3.8270 N   0  0  0  0  0  0  0  0  0  0  0  0
   -6.1980   27.7410   -4.5720 C   0  0  0  0  0  0  0  0  0  0  0  0
   -6.4730   28.7590   -5.4150 N   0  0  0  0  0  0  0  0  0  0  0  0
   -5.6300   29.8070   -5.5600 C   0  0  0  0  0  0  0  0  0  0  0  0
   -4.3780   29.8210   -4.7820 C   0  0  0  0  0  0  0  0  0  0  0  0
   -5.9090   30.8680   -6.4170 C   0  0  0  0  0  0  0  0  0  0  0  0
   -4.9990   31.9290   -6.5250 C   0  0  0  0  0  0  0  0  0  0  0  0
   -3.8100   31.9360   -5.7830 C   0  0  0  0  0  0  0  0  0  0  0  0
   -3.4910   30.8880   -4.9130 C   0  0  0  0  0  0  0  0  0  0  0  0
   -3.0050   28.5910   -3.1360 N   0  0  0  0  0  0  0  0  0  0  0  0
   -7.1070   26.7390   -4.4820 N   0  0  0  0  0  0  0  0  0  0  0  0
   -5.2950   33.0610   -7.4500 C   0  0  0  0  0  0  0  0  0  0  0  0
   -6.5340   33.6960   -7.4190 C   0  0  0  0  0  0  0  0  0  0  0  0
   -6.8010   34.7560   -8.2870 C   0  0  0  0  0  0  0  0  0  0  0  0
   -5.8400   35.1890   -9.2030 C   0  0  0  0  0  0  0  0  0  0  0  0
   -4.5860   34.5850   -9.2790 C   0  0  0  0  0  0  0  0  0  0  0  0
   -4.2730   33.5240   -8.4260 C   0  0  0  0  0  0  0  0  0  0  0  0
   -3.0490   32.9110   -8.4800 O   0  0  0  0  0  0  0  0  0  0  0  0
   -1.9900   33.4930   -9.2380 C   0  0  0  0  0  0  0  0  0  0  0  0
   -6.8380   30.8738   -7.0060 H   0  0  0  0  0  0  0  0  0  0  0  0
   -3.1143   32.7818   -5.8867 H   0  0  0  0  0  0  0  0  0  0  0  0
   -2.5523   30.9058   -4.3398 H   0  0  0  0  0  0  0  0  0  0  0  0
   -3.0664   28.5953   -2.1078 H   0  0  0  0  0  0  0  0  0  0  0  0
   -2.0860   28.5272   -3.5968 H   0  0  0  0  0  0  0  0  0  0  0  0
   -7.4125   26.4023   -3.5578 H   0  0  0  0  0  0  0  0  0  0  0  0
   -7.4920   26.3146   -5.3379 H   0  0  0  0  0  0  0  0  0  0  0  0
   -7.3043   33.3614   -6.7086 H   0  0  0  0  0  0  0  0  0  0  0  0
   -7.7800   35.2562   -8.2490 H   0  0  0  0  0  0  0  0  0  0  0  0
   -6.0775   36.0240   -9.8786 H   0  0  0  0  0  0  0  0  0  0  0  0
   -3.8448   34.9429  -10.0088 H   0  0  0  0  0  0  0  0  0  0  0  0
   -1.2348   33.9080   -8.5543 H   0  0  0  0  0  0  0  0  0  0  0  0
   -1.5267   32.7228   -9.8721 H   0  0  0  0  0  0  0  0  0  0  0  0
   -2.3918   34.2970   -9.8721 H   0  0  0  0  0  0  0  0  0  0  0  0
  1  2  2  0
  1  6  1  0
  1 11  1  0
  2  3  1  0
  3  4  2  0
  3 12  1  0
  4  5  1  0
  5  6  2  0
  5  7  1  0
  6 10  1  0
  7  8  2  0
  8  9  1  0
  8 13  1  0
  9 10  2  0
 13 14  2  0
 13 18  1  0
 14 15  1  0
 15 16  2  0
 16 17  1  0
 17 18  2  0
 18 19  1  0
 19 20  1  0
  7 21  1  0
  9 22  1  0
 10 23  1  0
 11 24  1  0
 11 25  1  0
 12 26  1  0
 12 27  1  0
 14 28  1  0
 15 29  1  0
 16 30  1  0
 17 31  1  0
 20 32  1  0
 20 33  1  0
 20 34  1  0
A    1
C1
A    2
N2
A    3
C3
A    4
N4
A    5
C5
A    6
C6
A    7
C7
A    8
C8
A    9
C9
A   10
C10
A   11
N11
A   12
N12
A   13
C13
A   14
C14
A   15
C15
A   16
C16
A   17
C17
A   18
C18
A   19
O19
A   20
C20
M  END
