3SRB_28S_B_1
     RDKit          3D

 25 26  0  0  0  0  0  0  0  0999 V2000
   34.9610   46.4870   60.1070 C   0  0  0  0  0  0  0  0  0  0  0  0
   37.0600   48.3210   56.1930 N   0  0  0  0  0  0  0  0  0  0  0  0
   34.0400   46.7350   61.7510 Br  0  0  0  0  0  0  0  0  0  0  0  0
   35.3660   45.2090   59.7050 C   0  0  0  0  0  0  0  0  0  0  0  0
   37.1340   46.0150   56.5930 N   0  0  0  0  0  0  0  0  0  0  0  0
   36.0860   45.0470   58.5120 C   0  0  0  0  0  0  0  0  0  0  0  0
   35.9420   49.7950   57.6430 N   0  0  0  0  0  0  0  0  0  0  0  0
   36.4080   46.1630   57.7320 C   0  0  0  0  0  0  0  0  0  0  0  0
   36.0040   47.4400   58.1300 C   0  0  0  0  0  0  0  0  0  0  0  0
   35.2760   47.5950   59.3150 C   0  0  0  0  0  0  0  0  0  0  0  0
   36.3310   48.5360   57.3180 C   0  0  0  0  0  0  0  0  0  0  0  0
   37.4340   47.0800   55.8330 C   0  0  0  0  0  0  0  0  0  0  0  0
   36.0790   50.8980   56.6970 C   0  0  0  0  0  0  0  0  0  0  0  0
   35.2440   52.0950   57.0960 C   0  0  0  0  0  0  0  0  0  0  0  0
   34.6960   52.8660   56.1770 C   0  0  0  0  0  0  0  0  0  0  0  0
   35.1202   44.3332   60.3234 H   0  0  0  0  0  0  0  0  0  0  0  0
   36.3975   44.0424   58.1897 H   0  0  0  0  0  0  0  0  0  0  0  0
   35.5425   49.9755   58.5750 H   0  0  0  0  0  0  0  0  0  0  0  0
   34.9486   48.5980   59.6262 H   0  0  0  0  0  0  0  0  0  0  0  0
   37.9960   46.9353   54.8986 H   0  0  0  0  0  0  0  0  0  0  0  0
   37.1358   51.2005   56.6550 H   0  0  0  0  0  0  0  0  0  0  0  0
   35.7252   50.5493   55.7155 H   0  0  0  0  0  0  0  0  0  0  0  0
   35.0928   52.3240   58.1612 H   0  0  0  0  0  0  0  0  0  0  0  0
   34.0906   53.7340   56.4770 H   0  0  0  0  0  0  0  0  0  0  0  0
   34.8444   52.6410   55.1105 H   0  0  0  0  0  0  0  0  0  0  0  0
  1  3  1  0
  1  4  2  0
  1 10  1  0
  2 11  2  0
  2 12  1  0
  4  6  1  0
  5  8  1  0
  5 12  2  0
  6  8  2  0
  7 11  1  0
  7 13  1  0
  8  9  1  0
  9 10  2  0
  9 11  1  0
 13 14  1  0
 14 15  2  3
  4 16  1  0
  6 17  1  0
  7 18  1  0
 10 19  1  0
 12 20  1  0
 13 21  1  0
 13 22  1  0
 14 23  1  0
 15 24  1  0
 15 25  1  0
A    1
C1
A    2
N1
A    3
BR1
A    4
C2
A    5
N2
A    6
C3
A    7
N3
A    8
C4
A    9
C5
A   10
C6
A   11
C7
A   12
C8
A   13
C9
A   14
C10
A   15
C11
M  END
