3SRC_28N_B_1
     RDKit          3D

 20 22  0  0  0  0  0  0  0  0999 V2000
  -23.2660  -34.2990    9.0950 C   0  0  0  0  0  0  0  0  0  0  0  0
  -23.5580  -35.2390   10.0770 C   0  0  0  0  0  0  0  0  0  0  0  0
  -23.5810  -37.6090   10.3980 C   0  0  0  0  0  0  0  0  0  0  0  0
  -24.3660  -37.2760   11.6400 C   0  0  0  0  0  0  0  0  0  0  0  0
  -25.3240  -33.8990   10.8740 C   0  0  0  0  0  0  0  0  0  0  0  0
  -25.9690  -34.9290   13.5960 O   0  0  0  0  0  0  0  0  0  0  0  0
  -25.4260  -35.9640   13.0690 C   0  0  0  0  0  0  0  0  0  0  0  0
  -25.4160  -37.2080   13.6120 O   0  0  0  0  0  0  0  0  0  0  0  0
  -24.7160  -38.0770   12.6910 N   0  0  0  0  0  0  0  0  0  0  0  0
  -24.7990  -36.0370   11.9040 N   0  0  0  0  0  0  0  0  0  0  0  0
  -22.8340  -36.4050   10.1550 O   0  0  0  0  0  0  0  0  0  0  0  0
  -24.5780  -35.0690   11.0080 C   0  0  0  0  0  0  0  0  0  0  0  0
  -25.0490  -32.9470    9.8990 C   0  0  0  0  0  0  0  0  0  0  0  0
  -26.1090  -31.3950    9.7900 Br  0  0  0  0  0  0  0  0  0  0  0  0
  -24.0180  -33.1400    8.9960 C   0  0  0  0  0  0  0  0  0  0  0  0
  -22.4360  -34.4761    8.3952 H   0  0  0  0  0  0  0  0  0  0  0  0
  -24.2511  -37.8353    9.5556 H   0  0  0  0  0  0  0  0  0  0  0  0
  -22.9441  -38.4984   10.5132 H   0  0  0  0  0  0  0  0  0  0  0  0
  -26.1612  -33.7226   11.5653 H   0  0  0  0  0  0  0  0  0  0  0  0
  -23.8013  -32.3918    8.2193 H   0  0  0  0  0  0  0  0  0  0  0  0
 15  1  2  0
  1  2  1  0
  2 11  1  0
  2 12  2  0
 11  3  1  0
  3  4  1  0
  4 10  1  0
  4  9  2  0
 13  5  2  0
  5 12  1  0
  7  6  2  0
 10  7  1  0
  7  8  1  0
  9  8  1  0
 12 10  1  0
 15 13  1  0
 14 13  1  0
  1 16  1  0
  3 17  1  0
  3 18  1  0
  5 19  1  0
 15 20  1  0
A    1
C4
A    2
C5
A    3
C7
A    4
C8
A    5
C15
A    6
O12
A    7
C11
A    8
O10
A    9
N9
A   10
N13
A   11
O6
A   12
C14
A   13
C2
A   14
BR1
A   15
C3
M  END
