3SRQ_Q19_X_169
     RDKit          3D

 38 40  0  0  0  0  0  0  0  0999 V2000
   -4.2840  -28.6440    3.8480 C   0  0  0  0  0  0  0  0  0  0  0  0
   -5.1960  -27.6420    3.7310 N   0  0  0  0  0  0  0  0  0  0  0  0
   -6.3870  -27.7080    4.3670 C   0  0  0  0  0  0  0  0  0  0  0  0
   -6.7710  -28.7510    5.1590 N   0  0  0  0  0  0  0  0  0  0  0  0
   -5.9510  -29.8240    5.3220 C   0  0  0  0  0  0  0  0  0  0  0  0
   -4.6330  -29.8250    4.6730 C   0  0  0  0  0  0  0  0  0  0  0  0
   -6.3330  -30.9130    6.0950 C   0  0  0  0  0  0  0  0  0  0  0  0
   -5.4550  -31.9950    6.2700 C   0  0  0  0  0  0  0  0  0  0  0  0
   -4.1400  -32.0000    5.6050 C   0  0  0  0  0  0  0  0  0  0  0  0
   -3.7540  -30.8940    4.8310 C   0  0  0  0  0  0  0  0  0  0  0  0
   -3.0960  -28.5520    3.2390 N   0  0  0  0  0  0  0  0  0  0  0  0
   -7.2380  -26.6700    4.2050 N   0  0  0  0  0  0  0  0  0  0  0  0
   -3.1940  -33.1790    5.8000 C   0  0  0  0  0  0  0  0  0  0  0  0
   -5.9290  -33.1690    7.0640 C   0  0  0  0  0  0  0  0  0  0  0  0
   -5.8340  -33.2880    8.4490 C   0  0  0  0  0  0  0  0  0  0  0  0
   -6.3310  -34.4390    9.0770 C   0  0  0  0  0  0  0  0  0  0  0  0
   -6.9400  -35.4480    8.3400 C   0  0  0  0  0  0  0  0  0  0  0  0
   -7.0400  -35.3270    6.9740 C   0  0  0  0  0  0  0  0  0  0  0  0
   -6.5350  -34.1920    6.3380 C   0  0  0  0  0  0  0  0  0  0  0  0
   -7.7110  -36.4160    6.1960 C   0  0  0  0  0  0  0  0  0  0  0  0
   -8.1950  -36.1460    5.1030 O   0  0  0  0  0  0  0  0  0  0  0  0
   -7.8000  -37.7820    6.8170 C   0  0  0  0  0  0  0  0  0  0  0  0
   -7.3247  -30.9279    6.5708 H   0  0  0  0  0  0  0  0  0  0  0  0
   -2.7638  -30.8718    4.3524 H   0  0  0  0  0  0  0  0  0  0  0  0
   -2.2341  -28.4852    3.7989 H   0  0  0  0  0  0  0  0  0  0  0  0
   -3.0435  -28.5479    2.2103 H   0  0  0  0  0  0  0  0  0  0  0  0
   -7.6299  -26.1920    5.0289 H   0  0  0  0  0  0  0  0  0  0  0  0
   -7.4944  -26.3573    3.2577 H   0  0  0  0  0  0  0  0  0  0  0  0
   -3.0495  -33.3591    6.8755 H   0  0  0  0  0  0  0  0  0  0  0  0
   -3.6254  -34.0765    5.3326 H   0  0  0  0  0  0  0  0  0  0  0  0
   -2.2244  -32.9523    5.3326 H   0  0  0  0  0  0  0  0  0  0  0  0
   -5.3732  -32.4861    9.0445 H   0  0  0  0  0  0  0  0  0  0  0  0
   -6.2377  -34.5449   10.1679 H   0  0  0  0  0  0  0  0  0  0  0  0
   -7.3398  -36.3386    8.8469 H   0  0  0  0  0  0  0  0  0  0  0  0
   -6.6169  -34.1036    5.2446 H   0  0  0  0  0  0  0  0  0  0  0  0
   -7.7939  -37.6877    7.9129 H   0  0  0  0  0  0  0  0  0  0  0  0
   -8.7319  -38.2706    6.4963 H   0  0  0  0  0  0  0  0  0  0  0  0
   -6.9394  -38.3874    6.4963 H   0  0  0  0  0  0  0  0  0  0  0  0
  1  2  2  0
  1  6  1  0
  1 11  1  0
  2  3  1  0
  3  4  2  0
  3 12  1  0
  4  5  1  0
  5  6  2  0
  5  7  1  0
  6 10  1  0
  7  8  2  0
  8  9  1  0
  8 14  1  0
  9 10  2  0
  9 13  1  0
 14 15  2  0
 14 19  1  0
 15 16  1  0
 16 17  2  0
 17 18  1  0
 18 19  2  0
 18 20  1  0
 20 21  2  0
 20 22  1  0
  7 23  1  0
 10 24  1  0
 11 25  1  0
 11 26  1  0
 12 27  1  0
 12 28  1  0
 13 29  1  0
 13 30  1  0
 13 31  1  0
 15 32  1  0
 16 33  1  0
 17 34  1  0
 19 35  1  0
 22 36  1  0
 22 37  1  0
 22 38  1  0
A    1
C1
A    2
N2
A    3
C3
A    4
N4
A    5
C5
A    6
C6
A    7
C7
A    8
C8
A    9
C9
A   10
C10
A   11
N11
A   12
N12
A   13
C13
A   14
C14
A   15
C15
A   16
C16
A   17
C17
A   18
C18
A   19
C19
A   20
C20
A   21
O21
A   22
C22
M  END
