3SRR_Q20_X_168
     RDKit          3D

 42 44  0  0  0  0  0  0  0  0999 V2000
    4.1600  -28.6940   -3.8970 C   0  0  0  0  0  0  0  0  0  0  0  0
    5.1130  -27.7160   -3.8630 N   0  0  0  0  0  0  0  0  0  0  0  0
    6.2670  -27.8090   -4.5590 C   0  0  0  0  0  0  0  0  0  0  0  0
    6.5580  -28.8890   -5.3320 N   0  0  0  0  0  0  0  0  0  0  0  0
    5.7130  -29.9410   -5.4370 C   0  0  0  0  0  0  0  0  0  0  0  0
    4.4340  -29.9040   -4.7140 C   0  0  0  0  0  0  0  0  0  0  0  0
    3.5090  -30.9500   -4.7650 C   0  0  0  0  0  0  0  0  0  0  0  0
    3.8340  -32.0640   -5.5430 C   0  0  0  0  0  0  0  0  0  0  0  0
    5.1210  -32.1000   -6.2850 C   0  0  0  0  0  0  0  0  0  0  0  0
    6.0500  -31.0550   -6.2120 C   0  0  0  0  0  0  0  0  0  0  0  0
    3.0000  -28.5980   -3.2330 N   0  0  0  0  0  0  0  0  0  0  0  0
    7.1870  -26.8030   -4.5110 N   0  0  0  0  0  0  0  0  0  0  0  0
    2.8230  -33.1900   -5.5960 C   0  0  0  0  0  0  0  0  0  0  0  0
    5.4170  -33.3300   -7.0500 C   0  0  0  0  0  0  0  0  0  0  0  0
    4.5670  -33.7790   -8.1770 C   0  0  0  0  0  0  0  0  0  0  0  0
    4.9080  -34.9930   -8.7900 C   0  0  0  0  0  0  0  0  0  0  0  0
    6.0090  -35.7200   -8.3360 C   0  0  0  0  0  0  0  0  0  0  0  0
    6.7990  -35.3030   -7.2630 C   0  0  0  0  0  0  0  0  0  0  0  0
    6.4850  -34.1150   -6.6050 C   0  0  0  0  0  0  0  0  0  0  0  0
    3.5010  -33.0160   -8.5610 O   0  0  0  0  0  0  0  0  0  0  0  0
    2.5180  -33.5930   -9.4470 C   0  0  0  0  0  0  0  0  0  0  0  0
    1.1390  -33.1950   -9.0070 C   0  0  0  0  0  0  0  0  0  0  0  0
    7.9530  -36.1200   -6.8150 C   0  0  0  0  0  0  0  0  0  0  0  0
    8.5510  -35.8920   -5.7650 O   0  0  0  0  0  0  0  0  0  0  0  0
    2.5592  -30.8982   -4.2125 H   0  0  0  0  0  0  0  0  0  0  0  0
    7.0106  -31.1085   -6.7453 H   0  0  0  0  0  0  0  0  0  0  0  0
    2.9947  -28.5976   -2.2030 H   0  0  0  0  0  0  0  0  0  0  0  0
    2.1137  -28.5247   -3.7526 H   0  0  0  0  0  0  0  0  0  0  0  0
    7.5132  -26.4464   -3.6014 H   0  0  0  0  0  0  0  0  0  0  0  0
    7.5555  -26.4000   -5.3843 H   0  0  0  0  0  0  0  0  0  0  0  0
    2.5539  -33.4897   -4.5724 H   0  0  0  0  0  0  0  0  0  0  0  0
    1.9220  -32.8491   -6.1271 H   0  0  0  0  0  0  0  0  0  0  0  0
    3.2586  -34.0492   -6.1271 H   0  0  0  0  0  0  0  0  0  0  0  0
    4.3071  -35.3726   -9.6295 H   0  0  0  0  0  0  0  0  0  0  0  0
    6.2653  -36.6610   -8.8447 H   0  0  0  0  0  0  0  0  0  0  0  0
    7.0777  -33.7950   -5.7353 H   0  0  0  0  0  0  0  0  0  0  0  0
    2.6929  -33.2315  -10.4711 H   0  0  0  0  0  0  0  0  0  0  0  0
    2.6049  -34.6892   -9.4203 H   0  0  0  0  0  0  0  0  0  0  0  0
    1.0942  -33.1821   -7.9080 H   0  0  0  0  0  0  0  0  0  0  0  0
    0.9052  -32.1927   -9.3953 H   0  0  0  0  0  0  0  0  0  0  0  0
    0.4071  -33.9186   -9.3953 H   0  0  0  0  0  0  0  0  0  0  0  0
    8.2855  -36.9590   -7.4439 H   0  0  0  0  0  0  0  0  0  0  0  0
  1  2  2  0
  1  6  1  0
  1 11  1  0
  2  3  1  0
  3  4  2  0
  3 12  1  0
  4  5  1  0
  5  6  2  0
  5 10  1  0
  6  7  1  0
  7  8  2  0
  8  9  1  0
  8 13  1  0
  9 10  2  0
  9 14  1  0
 14 15  2  0
 14 19  1  0
 15 16  1  0
 15 20  1  0
 16 17  2  0
 17 18  1  0
 18 19  2  0
 18 23  1  0
 20 21  1  0
 21 22  1  0
 23 24  2  0
  7 25  1  0
 10 26  1  0
 11 27  1  0
 11 28  1  0
 12 29  1  0
 12 30  1  0
 13 31  1  0
 13 32  1  0
 13 33  1  0
 16 34  1  0
 17 35  1  0
 19 36  1  0
 21 37  1  0
 21 38  1  0
 22 39  1  0
 22 40  1  0
 22 41  1  0
 23 42  1  0
A    1
C1
A    2
N2
A    3
C3
A    4
N4
A    5
C5
A    6
C6
A    7
C7
A    8
C8
A    9
C9
A   10
C10
A   11
N11
A   12
N12
A   13
C13
A   14
C14
A   15
C15
A   16
C16
A   17
C17
A   18
C18
A   19
C19
A   20
O20
A   21
C21
A   22
C22
A   23
C23
A   24
O24
M  END
