3SRU_Q26_X_169
     RDKit          3D

 55 58  0  0  0  0  0  0  0  0999 V2000
   -3.9820   28.6600   -3.8730 C   0  0  0  0  0  0  0  0  0  0  0  0
   -4.9520   27.7100   -3.8020 N   0  0  0  0  0  0  0  0  0  0  0  0
   -6.1520   27.8340   -4.4290 C   0  0  0  0  0  0  0  0  0  0  0  0
   -6.4720   28.9270   -5.1770 N   0  0  0  0  0  0  0  0  0  0  0  0
   -5.6030   29.9640   -5.2890 C   0  0  0  0  0  0  0  0  0  0  0  0
   -4.2850   29.8950   -4.6490 C   0  0  0  0  0  0  0  0  0  0  0  0
   -5.9470   31.0990   -6.0220 C   0  0  0  0  0  0  0  0  0  0  0  0
   -5.0060   32.1240   -6.1380 C   0  0  0  0  0  0  0  0  0  0  0  0
   -3.7470   32.0740   -5.5140 C   0  0  0  0  0  0  0  0  0  0  0  0
   -3.3650   30.9420   -4.7700 C   0  0  0  0  0  0  0  0  0  0  0  0
   -2.7980   28.4860   -3.2480 N   0  0  0  0  0  0  0  0  0  0  0  0
   -7.0850   26.8520   -4.3450 N   0  0  0  0  0  0  0  0  0  0  0  0
   -5.3190   33.4060   -6.8070 C   0  0  0  0  0  0  0  0  0  0  0  0
   -6.3660   34.1510   -6.2390 C   0  0  0  0  0  0  0  0  0  0  0  0
   -6.7180   35.4040   -6.7550 C   0  0  0  0  0  0  0  0  0  0  0  0
   -5.9580   35.9470   -7.8020 C   0  0  0  0  0  0  0  0  0  0  0  0
   -4.8720   35.2650   -8.3700 C   0  0  0  0  0  0  0  0  0  0  0  0
   -4.5160   33.9970   -7.8760 C   0  0  0  0  0  0  0  0  0  0  0  0
   -3.4740   33.2570   -8.3480 O   0  0  0  0  0  0  0  0  0  0  0  0
   -2.4880   33.9140   -9.1640 C   0  0  0  0  0  0  0  0  0  0  0  0
   -1.1880   33.1930   -8.9110 C   0  0  0  0  0  0  0  0  0  0  0  0
   -7.8510   36.1860   -6.1520 C   0  0  0  0  0  0  0  0  0  0  0  0
   -8.5870   37.1190   -6.8990 C   0  0  0  0  0  0  0  0  0  0  0  0
   -9.6250   37.8500   -6.2900 C   0  0  0  0  0  0  0  0  0  0  0  0
   -9.9100   37.6690   -4.9330 C   0  0  0  0  0  0  0  0  0  0  0  0
   -9.1700   36.7550   -4.1730 C   0  0  0  0  0  0  0  0  0  0  0  0
   -8.1390   36.0250   -4.7860 C   0  0  0  0  0  0  0  0  0  0  0  0
   -9.4430   36.5750   -2.8460 N   0  0  0  0  0  0  0  0  0  0  0  0
  -10.2230   35.2610   -2.3420 S   0  0  0  0  0  0  0  0  0  0  0  0
  -10.0820   35.1100   -0.9180 O   0  0  0  0  0  0  0  0  0  0  0  0
   -9.6440   34.0920   -3.0080 O   0  0  0  0  0  0  0  0  0  0  0  0
  -11.8200   35.3920   -2.7900 C   0  0  0  0  0  0  0  0  0  0  0  0
   -6.9353   31.1849   -6.4972 H   0  0  0  0  0  0  0  0  0  0  0  0
   -3.0563   32.9249   -5.6079 H   0  0  0  0  0  0  0  0  0  0  0  0
   -2.3732   30.8823   -4.2980 H   0  0  0  0  0  0  0  0  0  0  0  0
   -2.7549   28.4797   -2.2189 H   0  0  0  0  0  0  0  0  0  0  0  0
   -1.9378   28.3596   -3.8003 H   0  0  0  0  0  0  0  0  0  0  0  0
   -7.4010   26.5194   -3.4228 H   0  0  0  0  0  0  0  0  0  0  0  0
   -7.4771   26.4393   -5.2034 H   0  0  0  0  0  0  0  0  0  0  0  0
   -6.9164   33.7445   -5.3777 H   0  0  0  0  0  0  0  0  0  0  0  0
   -6.2229   36.9414   -8.1906 H   0  0  0  0  0  0  0  0  0  0  0  0
   -4.3032   35.7181   -9.1953 H   0  0  0  0  0  0  0  0  0  0  0  0
   -2.7633   33.8432  -10.2266 H   0  0  0  0  0  0  0  0  0  0  0  0
   -2.4094   34.9830   -8.9168 H   0  0  0  0  0  0  0  0  0  0  0  0
   -1.0241   33.1021   -7.8271 H   0  0  0  0  0  0  0  0  0  0  0  0
   -1.2314   32.1901   -9.3607 H   0  0  0  0  0  0  0  0  0  0  0  0
   -0.3602   33.7609   -9.3607 H   0  0  0  0  0  0  0  0  0  0  0  0
   -8.3526   37.2793   -7.9617 H   0  0  0  0  0  0  0  0  0  0  0  0
  -10.2133   38.5654   -6.8833 H   0  0  0  0  0  0  0  0  0  0  0  0
  -10.7184   38.2467   -4.4609 H   0  0  0  0  0  0  0  0  0  0  0  0
   -7.5477   35.3162   -4.1878 H   0  0  0  0  0  0  0  0  0  0  0  0
   -9.1469   37.2866   -2.1627 H   0  0  0  0  0  0  0  0  0  0  0  0
  -12.4503   35.4437   -1.8899 H   0  0  0  0  0  0  0  0  0  0  0  0
  -11.9594   36.3046   -3.3881 H   0  0  0  0  0  0  0  0  0  0  0  0
  -12.1062   34.5143   -3.3881 H   0  0  0  0  0  0  0  0  0  0  0  0
  1  2  2  0
  1  6  1  0
  1 11  1  0
  2  3  1  0
  3  4  2  0
  3 12  1  0
  4  5  1  0
  5  6  2  0
  5  7  1  0
  6 10  1  0
  7  8  2  0
  8  9  1  0
  8 13  1  0
  9 10  2  0
 13 14  2  0
 13 18  1  0
 14 15  1  0
 15 16  2  0
 15 22  1  0
 16 17  1  0
 17 18  2  0
 18 19  1  0
 19 20  1  0
 20 21  1  0
 22 23  2  0
 22 27  1  0
 23 24  1  0
 24 25  2  0
 25 26  1  0
 26 27  2  0
 26 28  1  0
 28 29  1  0
 29 30  2  0
 29 31  2  0
 29 32  1  0
  7 33  1  0
  9 34  1  0
 10 35  1  0
 11 36  1  0
 11 37  1  0
 12 38  1  0
 12 39  1  0
 14 40  1  0
 16 41  1  0
 17 42  1  0
 20 43  1  0
 20 44  1  0
 21 45  1  0
 21 46  1  0
 21 47  1  0
 23 48  1  0
 24 49  1  0
 25 50  1  0
 27 51  1  0
 28 52  1  0
 32 53  1  0
 32 54  1  0
 32 55  1  0
A    1
C1
A    2
N2
A    3
C3
A    4
N4
A    5
C5
A    6
C6
A    7
C7
A    8
C8
A    9
C9
A   10
C10
A   11
N11
A   12
N12
A   13
C13
A   14
C14
A   15
C15
A   16
C16
A   17
C17
A   18
C18
A   19
O19
A   20
C20
A   21
C21
A   22
C22
A   23
C23
A   24
C24
A   25
C25
A   26
C26
A   27
C27
A   28
N28
A   29
S29
A   30
O30
A   31
O31
A   32
C32
M  END
