3SRW_Q27_X_168
     RDKit          3D

 46 49  0  0  0  0  0  0  0  0999 V2000
   -4.0920  -28.6630    3.8390 C   0  0  0  0  0  0  0  0  0  0  0  0
   -5.0400  -27.6850    3.8550 N   0  0  0  0  0  0  0  0  0  0  0  0
   -6.1810  -27.7790    4.5750 C   0  0  0  0  0  0  0  0  0  0  0  0
   -6.4600  -28.8560    5.3490 N   0  0  0  0  0  0  0  0  0  0  0  0
   -5.6020  -29.9170    5.4150 C   0  0  0  0  0  0  0  0  0  0  0  0
   -4.3480  -29.8810    4.6510 C   0  0  0  0  0  0  0  0  0  0  0  0
   -5.9050  -31.0460    6.1750 C   0  0  0  0  0  0  0  0  0  0  0  0
   -4.9730  -32.0950    6.1980 C   0  0  0  0  0  0  0  0  0  0  0  0
   -3.7190  -32.0630    5.4260 C   0  0  0  0  0  0  0  0  0  0  0  0
   -3.4200  -30.9380    4.6570 C   0  0  0  0  0  0  0  0  0  0  0  0
   -2.9480  -28.5530    3.1460 N   0  0  0  0  0  0  0  0  0  0  0  0
   -7.0950  -26.7620    4.5460 N   0  0  0  0  0  0  0  0  0  0  0  0
   -2.7230  -33.2050    5.4580 C   0  0  0  0  0  0  0  0  0  0  0  0
   -5.2530  -33.3320    6.9520 C   0  0  0  0  0  0  0  0  0  0  0  0
   -4.5380  -33.7250    8.1800 C   0  0  0  0  0  0  0  0  0  0  0  0
   -4.8670  -34.9590    8.7820 C   0  0  0  0  0  0  0  0  0  0  0  0
   -5.8570  -35.7900    8.2410 C   0  0  0  0  0  0  0  0  0  0  0  0
   -6.5660  -35.4840    7.0770 C   0  0  0  0  0  0  0  0  0  0  0  0
   -6.2730  -34.2180    6.3590 C   0  0  0  0  0  0  0  0  0  0  0  0
   -6.9520  -33.8820    5.1850 C   0  0  0  0  0  0  0  0  0  0  0  0
   -7.9260  -34.7400    4.6680 C   0  0  0  0  0  0  0  0  0  0  0  0
   -8.2150  -35.9410    5.3390 C   0  0  0  0  0  0  0  0  0  0  0  0
   -7.5490  -36.3100    6.5210 C   0  0  0  0  0  0  0  0  0  0  0  0
   -3.5720  -32.8690    8.6380 O   0  0  0  0  0  0  0  0  0  0  0  0
   -2.5500  -33.3470    9.5350 C   0  0  0  0  0  0  0  0  0  0  0  0
   -1.1880  -33.1140    8.9480 C   0  0  0  0  0  0  0  0  0  0  0  0
   -6.8466  -31.1125    6.7398 H   0  0  0  0  0  0  0  0  0  0  0  0
   -2.4888  -30.8795    4.0743 H   0  0  0  0  0  0  0  0  0  0  0  0
   -2.0505  -28.4667    3.6439 H   0  0  0  0  0  0  0  0  0  0  0  0
   -2.9675  -28.5549    2.1162 H   0  0  0  0  0  0  0  0  0  0  0  0
   -7.4518  -26.3650    5.4269 H   0  0  0  0  0  0  0  0  0  0  0  0
   -7.4265  -26.3931    3.6433 H   0  0  0  0  0  0  0  0  0  0  0  0
   -2.4964  -33.4648    6.5026 H   0  0  0  0  0  0  0  0  0  0  0  0
   -3.1517  -34.0799    4.9473 H   0  0  0  0  0  0  0  0  0  0  0  0
   -1.7980  -32.8992    4.9473 H   0  0  0  0  0  0  0  0  0  0  0  0
   -4.3363  -35.2739    9.6926 H   0  0  0  0  0  0  0  0  0  0  0  0
   -6.0878  -36.7321    8.7598 H   0  0  0  0  0  0  0  0  0  0  0  0
   -6.7193  -32.9401    4.6667 H   0  0  0  0  0  0  0  0  0  0  0  0
   -8.4621  -34.4780    3.7439 H   0  0  0  0  0  0  0  0  0  0  0  0
   -8.9841  -36.6112    4.9276 H   0  0  0  0  0  0  0  0  0  0  0  0
   -7.8038  -37.2595    7.0146 H   0  0  0  0  0  0  0  0  0  0  0  0
   -2.6286  -32.8112   10.4925 H   0  0  0  0  0  0  0  0  0  0  0  0
   -2.6905  -34.4264    9.6934 H   0  0  0  0  0  0  0  0  0  0  0  0
   -0.4557  -32.9887    9.7592 H   0  0  0  0  0  0  0  0  0  0  0  0
   -0.9038  -33.9766    8.3274 H   0  0  0  0  0  0  0  0  0  0  0  0
   -1.2066  -32.2060    8.3274 H   0  0  0  0  0  0  0  0  0  0  0  0
  1  2  2  0
  1  6  1  0
  1 11  1  0
  2  3  1  0
  3  4  2  0
  3 12  1  0
  4  5  1  0
  5  6  2  0
  5  7  1  0
  6 10  1  0
  7  8  2  0
  8  9  1  0
  8 14  1  0
  9 10  2  0
  9 13  1  0
 14 15  2  0
 14 19  1  0
 15 16  1  0
 15 24  1  0
 16 17  2  0
 17 18  1  0
 18 19  2  0
 18 23  1  0
 19 20  1  0
 20 21  2  0
 21 22  1  0
 22 23  2  0
 24 25  1  0
 25 26  1  0
  7 27  1  0
 10 28  1  0
 11 29  1  0
 11 30  1  0
 12 31  1  0
 12 32  1  0
 13 33  1  0
 13 34  1  0
 13 35  1  0
 16 36  1  0
 17 37  1  0
 20 38  1  0
 21 39  1  0
 22 40  1  0
 23 41  1  0
 25 42  1  0
 25 43  1  0
 26 44  1  0
 26 45  1  0
 26 46  1  0
A    1
C1
A    2
N2
A    3
C3
A    4
N4
A    5
C5
A    6
C6
A    7
C7
A    8
C8
A    9
C9
A   10
C10
A   11
N11
A   12
N12
A   13
C13
A   14
C14
A   15
C15
A   16
C16
A   17
C17
A   18
C18
A   19
C19
A   20
C20
A   21
C21
A   22
C22
A   23
C23
A   24
O24
A   25
C25
A   26
C26
M  END
