3N2M_FNU_A_324
     RDKit          3D

 36 37  0  0  0  0  0  0  0  0999 V2000
   -6.7540   30.9930  -26.0000 P   0  0  0  0  0  0  0  0  0  0  0  0
   -7.8330   24.9120  -23.2540 N   0  0  0  0  0  0  0  0  0  0  0  0
   -6.8830   25.5480  -22.5710 C   0  0  0  0  0  0  0  0  0  0  0  0
   -6.0230   24.9490  -21.7060 N   0  0  0  0  0  0  0  0  0  0  0  0
   -6.7840   26.8570  -22.7690 O   0  0  0  0  0  0  0  0  0  0  0  0
   -8.8630   22.8760  -23.7550 N   0  0  0  0  0  0  0  0  0  0  0  0
   -6.1860   23.6260  -21.5230 C   0  0  0  0  0  0  0  0  0  0  0  0
   -5.3690   23.0000  -20.6740 O   0  0  0  0  0  0  0  0  0  0  0  0
   -7.1280   22.8840  -22.2210 C   0  0  0  0  0  0  0  0  0  0  0  0
   -7.9380   23.5820  -23.0740 C   0  0  0  0  0  0  0  0  0  0  0  0
   -8.6940   25.6280  -24.2160 C   0  0  0  0  0  0  0  0  0  0  0  0
   -5.6600   30.9080  -27.0440 O   0  0  0  0  0  0  0  0  0  0  0  0
   -9.3930   26.8620  -23.6270 C   0  0  0  0  0  0  0  0  0  0  0  0
  -10.5810   26.5770  -22.8790 O   0  0  0  0  0  0  0  0  0  0  0  0
   -7.2630   21.5420  -22.0370 F   0  0  0  0  0  0  0  0  0  0  0  0
   -6.2080   30.9970  -24.5830 O   0  0  0  0  0  0  0  0  0  0  0  0
   -9.6270   27.6760  -24.9000 C   0  0  0  0  0  0  0  0  0  0  0  0
  -10.7180   27.1150  -25.6280 O   0  0  0  0  0  0  0  0  0  0  0  0
   -7.7630   32.0920  -26.3190 O   0  0  0  0  0  0  0  0  0  0  0  0
   -8.3280   27.4460  -25.6800 C   0  0  0  0  0  0  0  0  0  0  0  0
   -7.9340   26.1290  -25.3430 O   0  0  0  0  0  0  0  0  0  0  0  0
   -7.2570   28.4540  -25.3050 C   0  0  0  0  0  0  0  0  0  0  0  0
   -7.5820   29.6150  -26.0410 O   0  0  0  0  0  0  0  0  0  0  0  0
   -5.2870   25.4785  -21.2174 H   0  0  0  0  0  0  0  0  0  0  0  0
   -9.5745   22.3330  -23.2453 H   0  0  0  0  0  0  0  0  0  0  0  0
   -8.8582   22.8797  -24.7850 H   0  0  0  0  0  0  0  0  0  0  0  0
   -9.4370   24.8716  -24.5089 H   0  0  0  0  0  0  0  0  0  0  0  0
   -8.8074   27.3843  -22.8561 H   0  0  0  0  0  0  0  0  0  0  0  0
  -10.3807   26.6250  -21.9107 H   0  0  0  0  0  0  0  0  0  0  0  0
   -6.9603   30.9915  -23.9395 H   0  0  0  0  0  0  0  0  0  0  0  0
   -9.8593   28.7354  -24.7161 H   0  0  0  0  0  0  0  0  0  0  0  0
  -11.3940   26.7674  -24.9937 H   0  0  0  0  0  0  0  0  0  0  0  0
   -8.1132   32.4735  -25.4752 H   0  0  0  0  0  0  0  0  0  0  0  0
   -8.4765   27.5726  -26.7625 H   0  0  0  0  0  0  0  0  0  0  0  0
   -7.2803   28.6606  -24.2248 H   0  0  0  0  0  0  0  0  0  0  0  0
   -6.2446   28.0883  -25.5313 H   0  0  0  0  0  0  0  0  0  0  0  0
  1 16  1  0
  2 10  1  0
  2  3  1  0
  3  4  1  0
  4  7  1  0
  5  3  2  0
  6 10  1  0
  7  8  2  0
  9  7  1  0
  9 15  1  0
 10  9  2  0
 11  2  1  0
 11 13  1  0
 12  1  2  0
 13 14  1  0
 17 13  1  0
 18 17  1  0
 19  1  1  0
 20 17  1  0
 20 21  1  0
 20 22  1  0
 21 11  1  0
 23  1  1  0
 23 22  1  0
  4 24  1  0
  6 25  1  0
  6 26  1  0
 11 27  1  0
 13 28  1  0
 14 29  1  0
 16 30  1  0
 17 31  1  0
 18 32  1  0
 19 33  1  0
 20 34  1  0
 22 35  1  0
 22 36  1  0
A    1
P
A    2
N1
A    3
C2
A    4
N2
A    5
O2
A    6
N3
A    7
C4
A    8
O4
A    9
C5
A   10
C6
A   11
C1'
A   12
O1P
A   13
C2'
A   14
O2'
A   15
F24
A   16
O2P
A   17
C3'
A   18
O3'
A   19
O3P
A   20
C4'
A   21
O4'
A   22
C5'
A   23
O5'
M  END
