3ST6_RVE_A_451
     RDKit          3D

 24 24  0  0  0  0  0  0  0  0999 V2000
    0.0880  -37.9250   18.2760 C   0  0  0  0  0  0  0  0  0  0  0  0
    1.1610  -38.4350   20.9550 O   0  0  0  0  0  0  0  0  0  0  0  0
    1.2790  -38.2340   11.8820 O   0  0  0  0  0  0  0  0  0  0  0  0
    2.9700  -37.5330   20.2950 O   0  0  0  0  0  0  0  0  0  0  0  0
    1.0000  -39.7890   13.3520 O   0  0  0  0  0  0  0  0  0  0  0  0
    1.4390  -39.2500   15.8570 O   0  0  0  0  0  0  0  0  0  0  0  0
    2.5420  -35.5450   14.7230 C   0  0  0  0  0  0  0  0  0  0  0  0
    2.6050  -35.9210   16.0500 C   0  0  0  0  0  0  0  0  0  0  0  0
    2.1080  -36.4160   13.7670 C   0  0  0  0  0  0  0  0  0  0  0  0
    2.3340  -37.5060   17.7310 O   0  0  0  0  0  0  0  0  0  0  0  0
    1.8960  -38.0360   20.0910 C   0  0  0  0  0  0  0  0  0  0  0  0
    1.2520  -38.6410   13.0360 C   0  0  0  0  0  0  0  0  0  0  0  0
    1.4220  -37.9620   18.5860 C   0  0  0  0  0  0  0  0  0  0  0  0
    2.2020  -37.1720   16.4460 C   0  0  0  0  0  0  0  0  0  0  0  0
    1.8050  -38.0590   15.4880 C   0  0  0  0  0  0  0  0  0  0  0  0
    1.7310  -37.6780   14.1250 C   0  0  0  0  0  0  0  0  0  0  0  0
   -0.6541  -38.3057   18.9932 H   0  0  0  0  0  0  0  0  0  0  0  0
   -0.2410  -37.5146   17.3099 H   0  0  0  0  0  0  0  0  0  0  0  0
    1.3998  -38.3053   21.9070 H   0  0  0  0  0  0  0  0  0  0  0  0
    0.9452  -40.0385   14.3085 H   0  0  0  0  0  0  0  0  0  0  0  0
    1.3711  -39.4710   16.8196 H   0  0  0  0  0  0  0  0  0  0  0  0
    2.8461  -34.5286   14.4325 H   0  0  0  0  0  0  0  0  0  0  0  0
    2.9827  -35.2094   16.7990 H   0  0  0  0  0  0  0  0  0  0  0  0
    2.0621  -36.1030   12.7135 H   0  0  0  0  0  0  0  0  0  0  0  0
  1 13  2  3
  2 11  1  0
  3 12  2  0
  4 11  2  0
  5 12  1  0
  6 15  1  0
  7  8  2  0
  7  9  1  0
  8 14  1  0
  9 16  2  0
 10 13  1  0
 10 14  1  0
 11 13  1  0
 12 16  1  0
 14 15  2  0
 15 16  1  0
  1 17  1  0
  1 18  1  0
  2 19  1  0
  5 20  1  0
  6 21  1  0
  7 22  1  0
  8 23  1  0
  9 24  1  0
A    1
C8
A    2
OA'
A    3
OB
A    4
OB'
A    5
OA
A    6
O2
A    7
C5
A    8
C4
A    9
C6
A   10
O3
A   11
C'
A   12
C
A   13
C7
A   14
C3
A   15
C2
A   16
C1
M  END
