3SU9_EPZ_A_427
     RDKit          3D

 75 77  0  0  0  0  0  0  0  0999 V2000
  -86.0200   -1.2430  124.0490 C   0  0  0  0  0  0  0  0  0  0  0  0
  -84.8890   -2.0780  123.9570 O   0  0  0  0  0  0  0  0  0  0  0  0
  -85.9860   -0.2480  122.9010 C   0  0  0  0  0  0  0  0  0  0  0  0
  -85.9930   -0.9400  121.6230 N   0  0  0  0  0  0  0  0  0  0  0  0
  -84.7110    0.5890  122.9740 C   0  0  0  0  0  0  0  0  0  0  0  0
  -84.6270    1.5010  121.9270 O   0  0  0  0  0  0  0  0  0  0  0  0
  -84.7350    1.3310  124.3060 C   0  0  0  0  0  0  0  0  0  0  0  0
  -83.5820    2.1130  124.3980 O   0  0  0  0  0  0  0  0  0  0  0  0
  -84.8060    0.2900  125.4200 C   0  0  0  0  0  0  0  0  0  0  0  0
  -85.9740   -0.5280  125.2870 O   0  0  0  0  0  0  0  0  0  0  0  0
  -84.8030    1.0100  126.7640 C   0  0  0  0  0  0  0  0  0  0  0  0
  -85.9960    1.7490  126.8290 O   0  0  0  0  0  0  0  0  0  0  0  0
  -87.1440   -1.1710  121.0010 C   0  0  0  0  0  0  0  0  0  0  0  0
  -88.2090   -0.8230  121.4670 O   0  0  0  0  0  0  0  0  0  0  0  0
  -87.0890   -1.8730  119.6870 C   0  0  0  0  0  0  0  0  0  0  0  0
  -84.6850   -3.6860  127.4950 P   0  0  0  0  0  0  0  0  0  0  0  0
  -84.8950   -3.4610  124.6530 P   0  0  0  0  0  0  0  0  0  0  0  0
  -84.9800   -5.0970  127.3370 O   0  0  0  0  0  0  0  0  0  0  0  0
  -86.1920   -4.0380  124.6730 O   0  0  0  0  0  0  0  0  0  0  0  0
  -80.9380   -6.0330  129.7500 C   0  0  0  0  0  0  0  0  0  0  0  0
  -84.0390    1.1840  119.5860 C   0  0  0  0  0  0  0  0  0  0  0  0
  -84.9550    1.9270  119.2470 O   0  0  0  0  0  0  0  0  0  0  0  0
  -81.6240   -7.2390  129.2720 N   0  0  0  0  0  0  0  0  0  0  0  0
  -85.6020   -2.8520  128.2310 O   0  0  0  0  0  0  0  0  0  0  0  0
  -83.8940   -4.2030  123.9620 O   0  0  0  0  0  0  0  0  0  0  0  0
  -80.4370   -5.1700  128.6340 C   0  0  0  0  0  0  0  0  0  0  0  0
  -79.0910   -5.4660  128.3810 O   0  0  0  0  0  0  0  0  0  0  0  0
  -83.5560    1.1990  121.0350 C   0  0  0  0  0  0  0  0  0  0  0  0
  -83.5390    0.4290  118.7390 O   0  0  0  0  0  0  0  0  0  0  0  0
  -81.0670   -8.4970  129.6250 C   0  0  0  0  0  0  0  0  0  0  0  0
  -80.0510   -8.5440  130.3060 O   0  0  0  0  0  0  0  0  0  0  0  0
  -84.3760   -3.0730  126.0800 O   0  0  0  0  0  0  0  0  0  0  0  0
  -80.6450   -3.7680  129.1460 C   0  0  0  0  0  0  0  0  0  0  0  0
  -79.4560   -3.4060  129.8660 O   0  0  0  0  0  0  0  0  0  0  0  0
  -82.4610    2.2370  121.2350 C   0  0  0  0  0  0  0  0  0  0  0  0
  -81.6270   -9.6520  129.2250 N   0  0  0  0  0  0  0  0  0  0  0  0
  -81.8440   -3.8760  130.0660 C   0  0  0  0  0  0  0  0  0  0  0  0
  -81.7730   -5.2030  130.5600 O   0  0  0  0  0  0  0  0  0  0  0  0
  -82.7460   -9.6260  128.4700 C   0  0  0  0  0  0  0  0  0  0  0  0
  -83.2190  -10.6810  128.1130 O   0  0  0  0  0  0  0  0  0  0  0  0
  -83.1920   -3.9200  129.4430 C   0  0  0  0  0  0  0  0  0  0  0  0
  -83.2880   -3.5450  128.1260 O   0  0  0  0  0  0  0  0  0  0  0  0
  -83.3240   -8.4140  128.1090 C   0  0  0  0  0  0  0  0  0  0  0  0
  -82.7370   -7.2140  128.5260 C   0  0  0  0  0  0  0  0  0  0  0  0
  -86.9391   -1.8455  124.0011 H   0  0  0  0  0  0  0  0  0  0  0  0
  -86.8755    0.3937  122.9848 H   0  0  0  0  0  0  0  0  0  0  0  0
  -85.1068   -1.2509  121.2001 H   0  0  0  0  0  0  0  0  0  0  0  0
  -83.8341   -0.0701  122.8930 H   0  0  0  0  0  0  0  0  0  0  0  0
  -85.6059    1.9976  124.3912 H   0  0  0  0  0  0  0  0  0  0  0  0
  -83.3604    2.2633  125.3511 H   0  0  0  0  0  0  0  0  0  0  0  0
  -83.9319   -0.3744  125.3530 H   0  0  0  0  0  0  0  0  0  0  0  0
  -84.7645    0.2793  127.5854 H   0  0  0  0  0  0  0  0  0  0  0  0
  -83.9254    1.6664  126.8592 H   0  0  0  0  0  0  0  0  0  0  0  0
  -86.2395    1.8998  127.7767 H   0  0  0  0  0  0  0  0  0  0  0  0
  -87.0041   -2.9570  119.8537 H   0  0  0  0  0  0  0  0  0  0  0  0
  -88.0066   -1.6602  119.1189 H   0  0  0  0  0  0  0  0  0  0  0  0
  -86.2158   -1.5199  119.1189 H   0  0  0  0  0  0  0  0  0  0  0  0
  -86.4815   -4.1668  125.6109 H   0  0  0  0  0  0  0  0  0  0  0  0
  -80.0977   -6.4261  130.3410 H   0  0  0  0  0  0  0  0  0  0  0  0
  -85.5084    2.3759  119.9343 H   0  0  0  0  0  0  0  0  0  0  0  0
  -85.4594   -2.9817  129.2020 H   0  0  0  0  0  0  0  0  0  0  0  0
  -80.9542   -5.3212  127.6750 H   0  0  0  0  0  0  0  0  0  0  0  0
  -78.6094   -5.5719  129.2395 H   0  0  0  0  0  0  0  0  0  0  0  0
  -83.1613    0.1956  121.2527 H   0  0  0  0  0  0  0  0  0  0  0  0
  -80.8214   -3.0100  128.3686 H   0  0  0  0  0  0  0  0  0  0  0  0
  -79.6304   -3.4591  130.8391 H   0  0  0  0  0  0  0  0  0  0  0  0
  -82.2961    2.3933  122.3113 H   0  0  0  0  0  0  0  0  0  0  0  0
  -81.5299    1.8821  120.7691 H   0  0  0  0  0  0  0  0  0  0  0  0
  -82.7656    3.1858  120.7691 H   0  0  0  0  0  0  0  0  0  0  0  0
  -81.2044  -10.5522  129.4932 H   0  0  0  0  0  0  0  0  0  0  0  0
  -81.7795   -3.0010  130.7295 H   0  0  0  0  0  0  0  0  0  0  0  0
  -83.5582   -4.9544  129.5199 H   0  0  0  0  0  0  0  0  0  0  0  0
  -83.7829   -3.1733  129.9937 H   0  0  0  0  0  0  0  0  0  0  0  0
  -84.2387   -8.3985  127.4983 H   0  0  0  0  0  0  0  0  0  0  0  0
  -83.1884   -6.2519  128.2419 H   0  0  0  0  0  0  0  0  0  0  0  0
  3  1  1  0
  2  1  1  0
  1 10  1  0
  2 17  1  0
  4  3  1  0
  3  5  1  0
 13  4  1  0
  6  5  1  0
  5  7  1  0
 28  6  1  0
  7  8  1  0
  7  9  1  0
 10  9  1  0
  9 11  1  0
 11 12  1  0
 15 13  1  0
 13 14  2  0
 32 16  1  0
 18 16  2  0
 16 42  1  0
 16 24  1  0
 25 17  2  0
 17 19  1  0
 17 32  1  0
 26 20  1  0
 23 20  1  0
 20 38  1  0
 29 21  2  0
 22 21  1  0
 21 28  1  0
 44 23  1  0
 23 30  1  0
 27 26  1  0
 26 33  1  0
 28 35  1  0
 36 30  1  0
 30 31  2  0
 33 34  1  0
 33 37  1  0
 39 36  1  0
 41 37  1  0
 37 38  1  0
 43 39  1  0
 40 39  2  0
 42 41  1  0
 43 44  2  0
  1 45  1  0
  3 46  1  0
  4 47  1  0
  5 48  1  0
  7 49  1  0
  8 50  1  0
  9 51  1  0
 11 52  1  0
 11 53  1  0
 12 54  1  0
 15 55  1  0
 15 56  1  0
 15 57  1  0
 19 58  1  0
 20 59  1  0
 22 60  1  0
 24 61  1  0
 26 62  1  0
 27 63  1  0
 28 64  1  0
 33 65  1  0
 34 66  1  0
 35 67  1  0
 35 68  1  0
 35 69  1  0
 36 70  1  0
 37 71  1  0
 41 72  1  0
 41 73  1  0
 43 74  1  0
 44 75  1  0
A    1
C1
A    2
O1
A    3
C2
A    4
N2
A    5
C3
A    6
O3
A    7
C4
A    8
O4
A    9
C5
A   10
O5
A   11
C6
A   12
O6
A   13
C7
A   14
O7
A   15
C8
A   16
PA
A   17
PB
A   18
O1A
A   19
O1B
A   20
C1D
A   21
C1E
A   22
O1E
A   23
N1U
A   24
O2A
A   25
O2B
A   26
C2D
A   27
O2D
A   28
C2E
A   29
O2E
A   30
C2U
A   31
O2U
A   32
O3A
A   33
C3D
A   34
O3D
A   35
C3E
A   36
N3U
A   37
C4D
A   38
O4D
A   39
C4U
A   40
O4U
A   41
C5D
A   42
O5D
A   43
C5U
A   44
C6U
M  END
