3SV3_5SI_A_1
     RDKit          3D

 52 54  0  0  0  0  0  0  0  0999 V2000
   14.8090  -12.3280  -34.4890 N   0  0  0  0  0  0  0  0  0  0  0  0
   14.0450  -13.2330  -33.8490 C   0  0  0  0  0  0  0  0  0  0  0  0
   14.2880  -14.6080  -33.9030 C   0  0  0  0  0  0  0  0  0  0  0  0
   15.3600  -15.1220  -34.6260 C   0  0  0  0  0  0  0  0  0  0  0  0
   16.2510  -14.1830  -35.3410 C   0  0  0  0  0  0  0  0  0  0  0  0
   15.9360  -12.7290  -35.2400 C   0  0  0  0  0  0  0  0  0  0  0  0
   11.0540  -11.2320  -30.5510 P   0  0  0  0  0  0  0  0  0  0  0  0
   13.5910  -11.1190  -29.3290 P   0  0  0  0  0  0  0  0  0  0  0  0
   12.7800  -12.0510  -26.8200 P   0  0  0  0  0  0  0  0  0  0  0  0
   14.5000  -10.8980  -34.3680 C   0  0  0  0  0  0  0  0  0  0  0  0
   11.0330  -12.5400  -29.7930 O   0  0  0  0  0  0  0  0  0  0  0  0
   13.5590  -12.6140  -29.5900 O   0  0  0  0  0  0  0  0  0  0  0  0
   14.0880  -12.3990  -26.1580 O   0  0  0  0  0  0  0  0  0  0  0  0
   13.6690  -10.3670  -35.5250 C   0  0  0  0  0  0  0  0  0  0  0  0
    9.8300  -10.3500  -30.5280 O   0  0  0  0  0  0  0  0  0  0  0  0
   14.8460  -10.3220  -29.6180 O   0  0  0  0  0  0  0  0  0  0  0  0
   12.2280  -13.1270  -27.7310 O   0  0  0  0  0  0  0  0  0  0  0  0
   12.7010   -9.3900  -34.8850 C   0  0  0  0  0  0  0  0  0  0  0  0
   13.2360   -8.0650  -34.9420 O   0  0  0  0  0  0  0  0  0  0  0  0
   16.8290  -11.6330  -35.9860 S   0  0  0  0  0  0  0  0  0  0  0  0
   15.6210  -16.4910  -34.6900 C   0  0  0  0  0  0  0  0  0  0  0  0
   16.7130  -16.9580  -35.4260 C   0  0  0  0  0  0  0  0  0  0  0  0
   17.5550  -16.0730  -36.1040 C   0  0  0  0  0  0  0  0  0  0  0  0
   12.3480  -10.4050  -30.0650 O   0  0  0  0  0  0  0  0  0  0  0  0
   13.1710  -10.8400  -27.8060 O   0  0  0  0  0  0  0  0  0  0  0  0
   11.7660  -11.4300  -25.8850 O   0  0  0  0  0  0  0  0  0  0  0  0
   12.6110   -9.8100  -33.4320 C   0  0  0  0  0  0  0  0  0  0  0  0
   13.7290  -10.6740  -33.1840 O   0  0  0  0  0  0  0  0  0  0  0  0
   17.3330  -14.6870  -36.0700 C   0  0  0  0  0  0  0  0  0  0  0  0
   16.9780  -18.4430  -35.4780 C   0  0  0  0  0  0  0  0  0  0  0  0
   11.2720  -10.4680  -33.0870 C   0  0  0  0  0  0  0  0  0  0  0  0
   11.4920  -11.4570  -32.0830 O   0  0  0  0  0  0  0  0  0  0  0  0
   13.1906  -12.8737  -33.2566 H   0  0  0  0  0  0  0  0  0  0  0  0
   13.6200  -15.2963  -33.3644 H   0  0  0  0  0  0  0  0  0  0  0  0
   15.4698  -10.3791  -34.3505 H   0  0  0  0  0  0  0  0  0  0  0  0
   11.0359  -12.3576  -28.8200 H   0  0  0  0  0  0  0  0  0  0  0  0
   13.5486  -13.0995  -28.7273 H   0  0  0  0  0  0  0  0  0  0  0  0
   13.9782  -12.3698  -25.1745 H   0  0  0  0  0  0  0  0  0  0  0  0
   14.3083   -9.8552  -36.2594 H   0  0  0  0  0  0  0  0  0  0  0  0
   13.1514  -11.1703  -36.0697 H   0  0  0  0  0  0  0  0  0  0  0  0
   11.7258   -9.3954  -35.3939 H   0  0  0  0  0  0  0  0  0  0  0  0
   13.3734   -7.7248  -34.0225 H   0  0  0  0  0  0  0  0  0  0  0  0
   14.9682  -17.2016  -34.1619 H   0  0  0  0  0  0  0  0  0  0  0  0
   18.4076  -16.4693  -36.6750 H   0  0  0  0  0  0  0  0  0  0  0  0
   12.0368  -11.5958  -24.9473 H   0  0  0  0  0  0  0  0  0  0  0  0
   12.6527   -8.9277  -32.7764 H   0  0  0  0  0  0  0  0  0  0  0  0
   18.0038  -14.0039  -36.6117 H   0  0  0  0  0  0  0  0  0  0  0  0
   17.0487  -18.8389  -34.4542 H   0  0  0  0  0  0  0  0  0  0  0  0
   16.1551  -18.9439  -36.0089 H   0  0  0  0  0  0  0  0  0  0  0  0
   17.9234  -18.6284  -36.0089 H   0  0  0  0  0  0  0  0  0  0  0  0
   10.5724   -9.7075  -32.7100 H   0  0  0  0  0  0  0  0  0  0  0  0
   10.8426  -10.9358  -33.9852 H   0  0  0  0  0  0  0  0  0  0  0  0
  6  1  1  0
  1 10  1  0
  1  2  1  0
  3  2  2  0
  4  3  1  0
  5  4  2  0
 21  4  1  0
 29  5  1  0
  5  6  1  0
 20  6  2  0
 32  7  1  0
  7 15  2  0
  7 24  1  0
  7 11  1  0
 24  8  1  0
 16  8  2  0
 12  8  1  0
  8 25  1  0
 25  9  1  0
 17  9  2  0
  9 13  1  0
  9 26  1  0
 14 10  1  0
 10 28  1  0
 14 18  1  0
 19 18  1  0
 18 27  1  0
 22 21  2  0
 23 22  1  0
 30 22  1  0
 23 29  2  0
 27 28  1  0
 27 31  1  0
 31 32  1  0
  2 33  1  0
  3 34  1  0
 10 35  1  0
 11 36  1  0
 12 37  1  0
 13 38  1  0
 14 39  1  0
 14 40  1  0
 18 41  1  0
 19 42  1  0
 21 43  1  0
 23 44  1  0
 26 45  1  0
 27 46  1  0
 29 47  1  0
 30 48  1  0
 30 49  1  0
 30 50  1  0
 31 51  1  0
 31 52  1  0
A    1
N1
A    2
C2
A    3
C3
A    4
C4
A    5
C5
A    6
C6
A    7
PA
A    8
PB
A    9
PG
A   10
C1'
A   11
O1A
A   12
O1B
A   13
O1G
A   14
C2'
A   15
O2A
A   16
O2B
A   17
O2G
A   18
C3'
A   19
O3'
A   20
S36
A   21
C37
A   22
C38
A   23
C39
A   24
O3A
A   25
O3B
A   26
O3G
A   27
C4'
A   28
O4'
A   29
C40
A   30
C41
A   31
C5'
A   32
O5'
M  END
