3SVP_JK5_A_800
     RDKit          3D

 56 58  0  0  0  0  0  0  0  0999 V2000
    5.1080    5.6060   26.7790 N   0  0  0  0  0  0  0  0  0  0  0  0
    4.7350    6.8230   27.2690 C   0  0  0  0  0  0  0  0  0  0  0  0
    5.6580    7.8370   27.3500 N   0  0  0  0  0  0  0  0  0  0  0  0
    3.3840    6.9930   27.6880 C   0  0  0  0  0  0  0  0  0  0  0  0
    2.4620    5.9340   27.5880 C   0  0  0  0  0  0  0  0  0  0  0  0
    2.8760    4.7040   27.0810 C   0  0  0  0  0  0  0  0  0  0  0  0
    4.2270    4.5600   26.6870 C   0  0  0  0  0  0  0  0  0  0  0  0
    1.0110    6.1130   28.0240 C   0  0  0  0  0  0  0  0  0  0  0  0
    4.7200    3.2400   26.1310 C   0  0  0  0  0  0  0  0  0  0  0  0
    6.1840    1.1630   25.4580 O   0  0  0  0  0  0  0  0  0  0  0  0
    6.7970    1.3160   28.4780 N   0  0  0  0  0  0  0  0  0  0  0  0
    7.1530    0.1830   25.0870 C   0  0  0  0  0  0  0  0  0  0  0  0
    7.9670    0.7920   23.9640 C   0  0  0  0  0  0  0  0  0  0  0  0
    9.0120    1.6470   24.5040 N   0  0  0  0  0  0  0  0  0  0  0  0
   10.3970    1.1940   24.5860 C   0  0  0  0  0  0  0  0  0  0  0  0
   10.7690    0.1080   23.5800 C   0  0  0  0  0  0  0  0  0  0  0  0
   10.0830    0.2060   22.4400 F   0  0  0  0  0  0  0  0  0  0  0  0
   10.4560   -1.1060   24.0210 F   0  0  0  0  0  0  0  0  0  0  0  0
    6.2470    0.1850   27.7440 C   0  0  0  0  0  0  0  0  0  0  0  0
   12.2560    0.2570   23.2920 C   0  0  0  0  0  0  0  0  0  0  0  0
   13.2320   -0.4650   23.9780 C   0  0  0  0  0  0  0  0  0  0  0  0
   14.5780   -0.3070   23.6730 C   0  0  0  0  0  0  0  0  0  0  0  0
   15.5100   -0.9990   24.3030 F   0  0  0  0  0  0  0  0  0  0  0  0
   14.9880    0.5470   22.7020 C   0  0  0  0  0  0  0  0  0  0  0  0
   14.0270    1.2560   22.0390 C   0  0  0  0  0  0  0  0  0  0  0  0
   14.5630    2.3490   20.7810 Cl  0  0  0  0  0  0  0  0  0  0  0  0
   12.6790    1.1450   22.3020 C   0  0  0  0  0  0  0  0  0  0  0  0
    5.4120    0.8540   26.6390 C   0  0  0  0  0  0  0  0  0  0  0  0
    4.9820    2.1980   27.2290 C   0  0  0  0  0  0  0  0  0  0  0  0
    6.1350    2.5820   28.1620 C   0  0  0  0  0  0  0  0  0  0  0  0
    5.9687    8.1783   28.2708 H   0  0  0  0  0  0  0  0  0  0  0  0
    6.0395    8.2561   26.4899 H   0  0  0  0  0  0  0  0  0  0  0  0
    3.0579    7.9620   28.0939 H   0  0  0  0  0  0  0  0  0  0  0  0
    2.1698    3.8656   26.9894 H   0  0  0  0  0  0  0  0  0  0  0  0
    0.9564    6.1197   29.1226 H   0  0  0  0  0  0  0  0  0  0  0  0
    0.6252    7.0656   27.6319 H   0  0  0  0  0  0  0  0  0  0  0  0
    0.4052    5.2828   27.6319 H   0  0  0  0  0  0  0  0  0  0  0  0
    3.9606    2.8423   25.4417 H   0  0  0  0  0  0  0  0  0  0  0  0
    5.6739    3.4301   25.6173 H   0  0  0  0  0  0  0  0  0  0  0  0
    6.6927    1.1343   29.4865 H   0  0  0  0  0  0  0  0  0  0  0  0
    7.8023   -0.0534   25.9429 H   0  0  0  0  0  0  0  0  0  0  0  0
    6.6720   -0.7537   24.7690 H   0  0  0  0  0  0  0  0  0  0  0  0
    8.4267   -0.0127   23.3714 H   0  0  0  0  0  0  0  0  0  0  0  0
    7.3033    1.3964   23.3282 H   0  0  0  0  0  0  0  0  0  0  0  0
    9.0182    2.4997   23.9262 H   0  0  0  0  0  0  0  0  0  0  0  0
   11.0525    2.0605   24.4141 H   0  0  0  0  0  0  0  0  0  0  0  0
   10.5223    0.7509   25.5850 H   0  0  0  0  0  0  0  0  0  0  0  0
    7.0487   -0.4327   27.3130 H   0  0  0  0  0  0  0  0  0  0  0  0
    5.6579   -0.4944   28.3775 H   0  0  0  0  0  0  0  0  0  0  0  0
   12.9327   -1.1676   24.7697 H   0  0  0  0  0  0  0  0  0  0  0  0
   16.0541    0.6641   22.4578 H   0  0  0  0  0  0  0  0  0  0  0  0
   11.9485    1.7463   21.7410 H   0  0  0  0  0  0  0  0  0  0  0  0
    4.5948    0.1789   26.3449 H   0  0  0  0  0  0  0  0  0  0  0  0
    4.0273    2.1425   27.7726 H   0  0  0  0  0  0  0  0  0  0  0  0
    5.7514    3.0577   29.0767 H   0  0  0  0  0  0  0  0  0  0  0  0
    6.8216    3.3053   27.6979 H   0  0  0  0  0  0  0  0  0  0  0  0
  1  2  2  0
  1  7  1  0
  2  3  1  0
  2  4  1  0
  4  5  2  0
  5  6  1  0
  5  8  1  0
  6  7  2  0
  7  9  1  0
  9 29  1  0
 10 12  1  0
 10 28  1  0
 11 19  1  0
 11 30  1  0
 12 13  1  0
 13 14  1  0
 14 15  1  0
 15 16  1  0
 16 17  1  0
 16 18  1  0
 16 20  1  0
 19 28  1  0
 20 21  2  0
 20 27  1  0
 21 22  1  0
 22 23  1  0
 22 24  2  0
 24 25  1  0
 25 26  1  0
 25 27  2  0
 28 29  1  0
 29 30  1  0
  3 31  1  0
  3 32  1  0
  4 33  1  0
  6 34  1  0
  8 35  1  0
  8 36  1  0
  8 37  1  0
  9 38  1  0
  9 39  1  0
 11 40  1  0
 12 41  1  0
 12 42  1  0
 13 43  1  0
 13 44  1  0
 14 45  1  0
 15 46  1  0
 15 47  1  0
 19 48  1  0
 19 49  1  0
 21 50  1  0
 24 51  1  0
 27 52  1  0
 28 53  1  0
 29 54  1  0
 30 55  1  0
 30 56  1  0
A    1
N01
A    2
C02
A    3
N02
A    4
C03
A    5
C04
A    6
C05
A    7
C06
A    8
C07
A    9
C08
A   10
O09
A   11
N1'
A   12
C10
A   13
C11
A   14
N12
A   15
C13
A   16
C14
A   17
F15
A   18
F16
A   19
C2'
A   20
C21
A   21
C22
A   22
C23
A   23
F23
A   24
C24
A   25
C25
A   26
CL25
A   27
C26
A   28
C3'
A   29
C4'
A   30
C5'
M  END
