3SVQ_JK4_A_800
     RDKit          3D

 56 58  0  0  0  0  0  0  0  0999 V2000
    5.1720    5.6700   26.9140 N   0  0  0  0  0  0  0  0  0  0  0  0
    4.5550    6.8220   27.2790 C   0  0  0  0  0  0  0  0  0  0  0  0
    5.2760    7.9790   27.3460 N   0  0  0  0  0  0  0  0  0  0  0  0
    3.1840    6.7870   27.5780 C   0  0  0  0  0  0  0  0  0  0  0  0
    2.4750    5.5800   27.4960 C   0  0  0  0  0  0  0  0  0  0  0  0
    3.1510    4.4160   27.1190 C   0  0  0  0  0  0  0  0  0  0  0  0
    4.5240    4.4780   26.8310 C   0  0  0  0  0  0  0  0  0  0  0  0
    0.9990    5.5330   27.8170 C   0  0  0  0  0  0  0  0  0  0  0  0
    5.3270    3.2560   26.4020 C   0  0  0  0  0  0  0  0  0  0  0  0
    6.9620    1.0830   25.9570 O   0  0  0  0  0  0  0  0  0  0  0  0
    6.5080    0.9080   28.9280 N   0  0  0  0  0  0  0  0  0  0  0  0
    7.0870    0.2660   24.8020 C   0  0  0  0  0  0  0  0  0  0  0  0
    8.2720    0.7800   24.0090 C   0  0  0  0  0  0  0  0  0  0  0  0
    9.4390    0.0410   24.4180 N   0  0  0  0  0  0  0  0  0  0  0  0
   10.6140    0.0240   23.5830 C   0  0  0  0  0  0  0  0  0  0  0  0
   11.6410    0.9770   24.1970 C   0  0  0  0  0  0  0  0  0  0  0  0
   11.7280    0.8160   25.4920 F   0  0  0  0  0  0  0  0  0  0  0  0
   11.2060    2.2120   24.0540 F   0  0  0  0  0  0  0  0  0  0  0  0
    6.2380   -0.0910   27.9160 C   0  0  0  0  0  0  0  0  0  0  0  0
   13.0090    0.7450   23.5770 C   0  0  0  0  0  0  0  0  0  0  0  0
   13.3820    1.4800   22.4760 C   0  0  0  0  0  0  0  0  0  0  0  0
   12.6080    2.3960   21.9220 F   0  0  0  0  0  0  0  0  0  0  0  0
   14.5740    1.3200   21.8780 C   0  0  0  0  0  0  0  0  0  0  0  0
   14.7530    2.1220   20.8040 F   0  0  0  0  0  0  0  0  0  0  0  0
   15.4780    0.3890   22.3780 C   0  0  0  0  0  0  0  0  0  0  0  0
   15.1420   -0.3890   23.4860 C   0  0  0  0  0  0  0  0  0  0  0  0
   13.9040   -0.2020   24.0720 C   0  0  0  0  0  0  0  0  0  0  0  0
    5.8030    0.7560   26.7250 C   0  0  0  0  0  0  0  0  0  0  0  0
    5.1960    2.0300   27.3140 C   0  0  0  0  0  0  0  0  0  0  0  0
    5.9280    2.2140   28.6380 C   0  0  0  0  0  0  0  0  0  0  0  0
    5.5249    8.3784   28.2622 H   0  0  0  0  0  0  0  0  0  0  0  0
    5.5712    8.4527   26.4803 H   0  0  0  0  0  0  0  0  0  0  0  0
    2.6643    7.7091   27.8775 H   0  0  0  0  0  0  0  0  0  0  0  0
    2.6121    3.4597   27.0485 H   0  0  0  0  0  0  0  0  0  0  0  0
    0.8611    5.5286   28.9083 H   0  0  0  0  0  0  0  0  0  0  0  0
    0.5022    6.4158   27.3882 H   0  0  0  0  0  0  0  0  0  0  0  0
    0.5594    4.6204   27.3882 H   0  0  0  0  0  0  0  0  0  0  0  0
    4.9930    2.9669   25.3946 H   0  0  0  0  0  0  0  0  0  0  0  0
    6.3842    3.5564   26.4477 H   0  0  0  0  0  0  0  0  0  0  0  0
    6.1243    0.5743   29.8237 H   0  0  0  0  0  0  0  0  0  0  0  0
    7.2577   -0.7796   25.0978 H   0  0  0  0  0  0  0  0  0  0  0  0
    6.1688    0.3052   24.1975 H   0  0  0  0  0  0  0  0  0  0  0  0
    8.0941    0.6307   22.9338 H   0  0  0  0  0  0  0  0  0  0  0  0
    8.4172    1.8545   24.1943 H   0  0  0  0  0  0  0  0  0  0  0  0
    9.7282    0.4236   25.3295 H   0  0  0  0  0  0  0  0  0  0  0  0
   11.0277   -0.9944   23.5406 H   0  0  0  0  0  0  0  0  0  0  0  0
   10.3617    0.3400   22.5600 H   0  0  0  0  0  0  0  0  0  0  0  0
    7.1412   -0.6733   27.6811 H   0  0  0  0  0  0  0  0  0  0  0  0
    5.4879   -0.8348   28.2228 H   0  0  0  0  0  0  0  0  0  0  0  0
   16.4604    0.2658   21.8986 H   0  0  0  0  0  0  0  0  0  0  0  0
   15.8461   -1.1343   23.8844 H   0  0  0  0  0  0  0  0  0  0  0  0
   13.6205   -0.8106   24.9433 H   0  0  0  0  0  0  0  0  0  0  0  0
    5.0825    0.2344   26.0779 H   0  0  0  0  0  0  0  0  0  0  0  0
    4.1076    1.9316   27.4396 H   0  0  0  0  0  0  0  0  0  0  0  0
    5.2258    2.5108   29.4310 H   0  0  0  0  0  0  0  0  0  0  0  0
    6.6912    3.0044   28.5840 H   0  0  0  0  0  0  0  0  0  0  0  0
  1  2  2  0
  1  7  1  0
  2  3  1  0
  2  4  1  0
  4  5  2  0
  5  6  1  0
  5  8  1  0
  6  7  2  0
  7  9  1  0
  9 29  1  0
 10 12  1  0
 10 28  1  0
 11 19  1  0
 11 30  1  0
 12 13  1  0
 13 14  1  0
 14 15  1  0
 15 16  1  0
 16 17  1  0
 16 18  1  0
 16 20  1  0
 19 28  1  0
 20 21  2  0
 20 27  1  0
 21 22  1  0
 21 23  1  0
 23 24  1  0
 23 25  2  0
 25 26  1  0
 26 27  2  0
 28 29  1  0
 29 30  1  0
  3 31  1  0
  3 32  1  0
  4 33  1  0
  6 34  1  0
  8 35  1  0
  8 36  1  0
  8 37  1  0
  9 38  1  0
  9 39  1  0
 11 40  1  0
 12 41  1  0
 12 42  1  0
 13 43  1  0
 13 44  1  0
 14 45  1  0
 15 46  1  0
 15 47  1  0
 19 48  1  0
 19 49  1  0
 25 50  1  0
 26 51  1  0
 27 52  1  0
 28 53  1  0
 29 54  1  0
 30 55  1  0
 30 56  1  0
A    1
N01
A    2
C02
A    3
N02
A    4
C03
A    5
C04
A    6
C05
A    7
C06
A    8
C07
A    9
C08
A   10
O09
A   11
N1'
A   12
C10
A   13
C11
A   14
N12
A   15
C13
A   16
C14
A   17
F15
A   18
F16
A   19
C2'
A   20
C21
A   21
C22
A   22
F22
A   23
C23
A   24
F23
A   25
C24
A   26
C25
A   27
C26
A   28
C3'
A   29
C4'
A   30
C5'
M  END
