3SW7_19K_A_299
     RDKit          3D

 44 46  0  0  0  0  0  0  0  0999 V2000
   13.0150    7.2400  -10.8720 S   0  0  0  0  0  0  0  0  0  0  0  0
   14.3780    5.3150   -9.3090 C   0  0  0  0  0  0  0  0  0  0  0  0
   15.2580    6.1370  -11.4630 N   0  0  0  0  0  0  0  0  0  0  0  0
    7.1530   13.4840  -10.1070 O   0  0  0  0  0  0  0  0  0  0  0  0
   14.3330    6.1540  -10.5460 C   0  0  0  0  0  0  0  0  0  0  0  0
   11.3680   10.2960  -14.6630 N   0  0  0  0  0  0  0  0  0  0  0  0
   14.9800    7.0000  -12.5100 C   0  0  0  0  0  0  0  0  0  0  0  0
   10.1430   10.6200  -12.7430 N   0  0  0  0  0  0  0  0  0  0  0  0
   16.0020    7.1620  -13.5850 C   0  0  0  0  0  0  0  0  0  0  0  0
    8.0820   10.1240   -7.4370 N   0  0  0  0  0  0  0  0  0  0  0  0
   13.7580    7.6900  -12.3850 C   0  0  0  0  0  0  0  0  0  0  0  0
    7.1290   12.4640   -9.4340 N   0  0  0  0  0  0  0  0  0  0  0  0
   12.9690    8.5720  -13.2650 C   0  0  0  0  0  0  0  0  0  0  0  0
   11.9440    9.1700  -12.6380 N   0  0  0  0  0  0  0  0  0  0  0  0
   13.2600    8.7940  -14.6060 C   0  0  0  0  0  0  0  0  0  0  0  0
   12.4030    9.6700  -15.2520 C   0  0  0  0  0  0  0  0  0  0  0  0
   11.1760   10.0040  -13.3690 C   0  0  0  0  0  0  0  0  0  0  0  0
    9.5820   10.5120  -11.4500 C   0  0  0  0  0  0  0  0  0  0  0  0
    9.9510    9.4790  -10.5990 C   0  0  0  0  0  0  0  0  0  0  0  0
    9.4170    9.3920   -9.3280 C   0  0  0  0  0  0  0  0  0  0  0  0
    8.4970   10.3100   -8.8520 C   0  0  0  0  0  0  0  0  0  0  0  0
    6.6500    9.7330   -7.2880 C   0  0  0  0  0  0  0  0  0  0  0  0
    8.4480   11.2710   -6.5530 C   0  0  0  0  0  0  0  0  0  0  0  0
    8.0820   11.3880   -9.7630 C   0  0  0  0  0  0  0  0  0  0  0  0
    8.6630   11.4640  -11.0170 C   0  0  0  0  0  0  0  0  0  0  0  0
    6.4730   12.3710   -8.4130 O   0  0  0  0  0  0  0  0  0  0  0  0
   14.3431    5.9660   -8.4230 H   0  0  0  0  0  0  0  0  0  0  0  0
   13.5152    4.6328   -9.2970 H   0  0  0  0  0  0  0  0  0  0  0  0
   15.3089    4.7290   -9.2970 H   0  0  0  0  0  0  0  0  0  0  0  0
    9.6656   11.3142  -13.3355 H   0  0  0  0  0  0  0  0  0  0  0  0
   16.9911    7.3188  -13.1300 H   0  0  0  0  0  0  0  0  0  0  0  0
   16.0248    6.2563  -14.2088 H   0  0  0  0  0  0  0  0  0  0  0  0
   15.7435    8.0304  -14.2088 H   0  0  0  0  0  0  0  0  0  0  0  0
   14.1066    8.3107  -15.1156 H   0  0  0  0  0  0  0  0  0  0  0  0
   12.5809    9.8672  -16.3195 H   0  0  0  0  0  0  0  0  0  0  0  0
   10.6745    8.7237  -10.9396 H   0  0  0  0  0  0  0  0  0  0  0  0
    9.7331    8.5666   -8.6731 H   0  0  0  0  0  0  0  0  0  0  0  0
    6.3980    9.6642   -6.2195 H   0  0  0  0  0  0  0  0  0  0  0  0
    6.0115   10.4897   -7.7673 H   0  0  0  0  0  0  0  0  0  0  0  0
    6.4847    8.7568   -7.7673 H   0  0  0  0  0  0  0  0  0  0  0  0
    8.3513   10.9678   -5.5000 H   0  0  0  0  0  0  0  0  0  0  0  0
    9.4868   11.5719   -6.7540 H   0  0  0  0  0  0  0  0  0  0  0  0
    7.7755   12.1180   -6.7540 H   0  0  0  0  0  0  0  0  0  0  0  0
    8.3928   12.2944  -11.6859 H   0  0  0  0  0  0  0  0  0  0  0  0
  1  5  1  0
  3  5  2  0
  4 12  2  0
  5  2  1  0
  6 17  2  0
  7  3  1  0
  7 11  2  0
  8 18  1  0
  9  7  1  0
 10 22  1  0
 10 23  1  0
 11  1  1  0
 13 11  1  0
 13 14  2  0
 15 13  1  0
 16  6  1  0
 16 15  2  0
 17  8  1  0
 17 14  1  0
 18 25  1  0
 18 19  2  0
 19 20  1  0
 20 21  2  0
 21 10  1  0
 24 12  1  0
 24 21  1  0
 25 24  2  0
 12 26  1  0
  2 27  1  0
  2 28  1  0
  2 29  1  0
  8 30  1  0
  9 31  1  0
  9 32  1  0
  9 33  1  0
 15 34  1  0
 16 35  1  0
 19 36  1  0
 20 37  1  0
 22 38  1  0
 22 39  1  0
 22 40  1  0
 23 41  1  0
 23 42  1  0
 23 43  1  0
 25 44  1  0
M  CHG  2  12   1  26  -1
A    1
S
A    2
C1
A    3
N1
A    4
O1
A    5
C2
A    6
N2
A    7
C3
A    8
N3
A    9
C4
A   10
N4
A   11
C5
A   12
N5
A   13
C6
A   14
N6
A   15
C7
A   16
C8
A   17
C9
A   18
C10
A   19
C11
A   20
C12
A   21
C13
A   22
C14
A   23
C15
A   24
C16
A   25
C17
A   26
O2
M  END
