3SWW_KXB_A_1
     RDKit          3D

 44 46  0  0  0  0  0  0  0  0999 V2000
   47.4920   49.1780   37.1850 C   0  0  0  0  0  0  0  0  0  0  0  0
   47.3570   48.7020   38.4730 C   0  0  0  0  0  0  0  0  0  0  0  0
   48.4700   50.6910   39.3500 C   0  0  0  0  0  0  0  0  0  0  0  0
   48.1080   50.3960   36.9650 C   0  0  0  0  0  0  0  0  0  0  0  0
   48.2770   50.9190   35.5920 C   0  0  0  0  0  0  0  0  0  0  0  0
   49.4990   50.7830   34.9660 C   0  0  0  0  0  0  0  0  0  0  0  0
   47.2530   51.5740   34.8820 C   0  0  0  0  0  0  0  0  0  0  0  0
   47.8410   49.4750   39.5290 C   0  0  0  0  0  0  0  0  0  0  0  0
   48.5910   51.1260   38.0500 C   0  0  0  0  0  0  0  0  0  0  0  0
   49.6700   51.3040   33.6750 C   0  0  0  0  0  0  0  0  0  0  0  0
   47.5140   52.0690   33.5880 C   0  0  0  0  0  0  0  0  0  0  0  0
   51.0550   51.0200   33.2140 C   0  0  0  0  0  0  0  0  0  0  0  0
   50.7740   50.1510   35.4430 C   0  0  0  0  0  0  0  0  0  0  0  0
   46.4840   52.7710   32.7570 C   0  0  0  0  0  0  0  0  0  0  0  0
   55.2990   51.9390   35.8610 C   0  0  0  0  0  0  0  0  0  0  0  0
   45.8890   51.7420   35.5030 C   0  0  0  0  0  0  0  0  0  0  0  0
   53.0290   49.8000   34.1790 C   0  0  0  0  0  0  0  0  0  0  0  0
   53.8620   50.0310   35.5200 C   0  0  0  0  0  0  0  0  0  0  0  0
   48.7200   51.9360   32.9470 N   0  0  0  0  0  0  0  0  0  0  0  0
   51.6560   50.3210   34.2530 N   0  0  0  0  0  0  0  0  0  0  0  0
   45.9580   52.7170   36.5580 N   0  0  0  0  0  0  0  0  0  0  0  0
   51.5850   51.2810   32.1410 O   0  0  0  0  0  0  0  0  0  0  0  0
   53.9400   51.4400   35.7520 O   0  0  0  0  0  0  0  0  0  0  0  0
   47.6770   48.8860   41.1160 Cl  0  0  0  0  0  0  0  0  0  0  0  0
   49.3490   52.6190   37.7680 Cl  0  0  0  0  0  0  0  0  0  0  0  0
   47.1110   48.5907   36.3365 H   0  0  0  0  0  0  0  0  0  0  0  0
   46.8767   47.7310   38.6638 H   0  0  0  0  0  0  0  0  0  0  0  0
   48.8524   51.2783   40.1978 H   0  0  0  0  0  0  0  0  0  0  0  0
   51.1785   50.6762   36.3208 H   0  0  0  0  0  0  0  0  0  0  0  0
   50.6608   49.1071   35.7708 H   0  0  0  0  0  0  0  0  0  0  0  0
   45.7565   53.2668   33.4165 H   0  0  0  0  0  0  0  0  0  0  0  0
   46.9754   53.5230   32.1222 H   0  0  0  0  0  0  0  0  0  0  0  0
   45.9638   52.0387   32.1222 H   0  0  0  0  0  0  0  0  0  0  0  0
   55.5691   52.0382   36.9227 H   0  0  0  0  0  0  0  0  0  0  0  0
   55.9883   51.2353   35.3714 H   0  0  0  0  0  0  0  0  0  0  0  0
   55.3692   52.9216   35.3714 H   0  0  0  0  0  0  0  0  0  0  0  0
   45.1767   52.0813   34.7365 H   0  0  0  0  0  0  0  0  0  0  0  0
   45.5535   50.7791   35.9157 H   0  0  0  0  0  0  0  0  0  0  0  0
   53.5504   50.3047   33.3523 H   0  0  0  0  0  0  0  0  0  0  0  0
   52.9584   48.7137   34.0211 H   0  0  0  0  0  0  0  0  0  0  0  0
   53.3549   49.5408   36.3641 H   0  0  0  0  0  0  0  0  0  0  0  0
   54.8704   49.6023   35.4233 H   0  0  0  0  0  0  0  0  0  0  0  0
   45.9242   52.2392   37.4698 H   0  0  0  0  0  0  0  0  0  0  0  0
   46.8385   53.2457   36.4799 H   0  0  0  0  0  0  0  0  0  0  0  0
  2  1  2  0
  1  4  1  0
  8  2  1  0
  8  3  2  0
  3  9  1  0
  9  4  2  0
  4  5  1  0
  5  6  1  0
  5  7  2  0
 13  6  1  0
  6 10  2  0
 16  7  1  0
  7 11  1  0
 24  8  1  0
  9 25  1  0
 10 12  1  0
 10 19  1  0
 11 19  2  0
 11 14  1  0
 20 12  1  0
 12 22  2  0
 13 20  1  0
 15 23  1  0
 21 16  1  0
 18 17  1  0
 20 17  1  0
 23 18  1  0
  1 26  1  0
  2 27  1  0
  3 28  1  0
 13 29  1  0
 13 30  1  0
 14 31  1  0
 14 32  1  0
 14 33  1  0
 15 34  1  0
 15 35  1  0
 15 36  1  0
 16 37  1  0
 16 38  1  0
 17 39  1  0
 17 40  1  0
 18 41  1  0
 18 42  1  0
 21 43  1  0
 21 44  1  0
A    1
C01
A    2
C02
A    3
C03
A    4
C04
A    5
C05
A    6
C06
A    7
C07
A    8
C08
A    9
C09
A   10
C10
A   11
C11
A   12
C12
A   13
C13
A   14
C14
A   15
C15
A   16
C16
A   17
C17
A   18
C18
A   19
N19
A   20
N20
A   21
N21
A   22
O22
A   23
O23
A   24
CL1
A   25
CL2
M  END
