3SWZ_TOK_A_601
     RDKit          3D

 61 66  0  0  0  0  0  0  0  0999 V2000
   16.3930   -0.7610   35.4900 C   0  0  0  0  0  0  0  0  0  0  0  0
   16.0930   -2.2270   35.2660 C   0  0  0  0  0  0  0  0  0  0  0  0
   14.8400   -2.4630   34.4220 C   0  0  0  0  0  0  0  0  0  0  0  0
   14.6920   -3.8790   34.2180 O   0  0  0  0  0  0  0  0  0  0  0  0
   14.9130   -1.7050   33.0960 C   0  0  0  0  0  0  0  0  0  0  0  0
   15.1340   -0.2480   33.4320 C   0  0  0  0  0  0  0  0  0  0  0  0
   14.2600    0.6920   33.0190 C   0  0  0  0  0  0  0  0  0  0  0  0
   14.6510    2.1490   32.8730 C   0  0  0  0  0  0  0  0  0  0  0  0
   15.9190    2.5500   33.6510 C   0  0  0  0  0  0  0  0  0  0  0  0
   16.2030    1.5700   34.7790 C   0  0  0  0  0  0  0  0  0  0  0  0
   16.3470    0.1360   34.2500 C   0  0  0  0  0  0  0  0  0  0  0  0
   17.3640    1.9800   35.7260 C   0  0  0  0  0  0  0  0  0  0  0  0
   17.5330    3.4760   36.0700 C   0  0  0  0  0  0  0  0  0  0  0  0
   17.1600    4.4080   34.9250 C   0  0  0  0  0  0  0  0  0  0  0  0
   15.8310    3.9170   34.3450 C   0  0  0  0  0  0  0  0  0  0  0  0
   15.1950    5.1020   33.6250 C   0  0  0  0  0  0  0  0  0  0  0  0
   15.8010    6.2160   34.4540 C   0  0  0  0  0  0  0  0  0  0  0  0
   16.7530    5.8060   35.3060 C   0  0  0  0  0  0  0  0  0  0  0  0
   18.2790    4.5720   33.8850 C   0  0  0  0  0  0  0  0  0  0  0  0
   17.6060    0.0230   33.3580 C   0  0  0  0  0  0  0  0  0  0  0  0
   17.2190    6.5860   36.3680 N   0  0  0  0  0  0  0  0  0  0  0  0
   18.4700    6.6170   36.8970 C   0  0  0  0  0  0  0  0  0  0  0  0
   18.3780    7.5430   37.9440 C   0  0  0  0  0  0  0  0  0  0  0  0
   17.1130    8.0070   37.9740 N   0  0  0  0  0  0  0  0  0  0  0  0
   16.3940    7.4110   37.0010 C   0  0  0  0  0  0  0  0  0  0  0  0
   19.7020    5.9980   36.6400 C   0  0  0  0  0  0  0  0  0  0  0  0
   20.8120    6.3070   37.4410 C   0  0  0  0  0  0  0  0  0  0  0  0
   20.7190    7.2420   38.4720 C   0  0  0  0  0  0  0  0  0  0  0  0
   19.4940    7.8530   38.7220 C   0  0  0  0  0  0  0  0  0  0  0  0
   15.6578   -0.3745   36.2112 H   0  0  0  0  0  0  0  0  0  0  0  0
   17.4348   -0.7242   35.8412 H   0  0  0  0  0  0  0  0  0  0  0  0
   16.9515   -2.6852   34.7531 H   0  0  0  0  0  0  0  0  0  0  0  0
   15.9124   -2.6783   36.2528 H   0  0  0  0  0  0  0  0  0  0  0  0
   13.9562   -2.0762   34.9505 H   0  0  0  0  0  0  0  0  0  0  0  0
   14.6443   -4.3356   35.0951 H   0  0  0  0  0  0  0  0  0  0  0  0
   15.7489   -2.0839   32.4897 H   0  0  0  0  0  0  0  0  0  0  0  0
   13.9879   -1.8384   32.5159 H   0  0  0  0  0  0  0  0  0  0  0  0
   13.2292    0.3915   32.7801 H   0  0  0  0  0  0  0  0  0  0  0  0
   14.8233    2.3535   31.8060 H   0  0  0  0  0  0  0  0  0  0  0  0
   13.8244    2.7392   33.2954 H   0  0  0  0  0  0  0  0  0  0  0  0
   16.6995    2.5662   32.8761 H   0  0  0  0  0  0  0  0  0  0  0  0
   15.3142    1.6050   35.4261 H   0  0  0  0  0  0  0  0  0  0  0  0
   17.2166    1.4422   36.6742 H   0  0  0  0  0  0  0  0  0  0  0  0
   18.2754    1.7252   35.1652 H   0  0  0  0  0  0  0  0  0  0  0  0
   16.8914    3.7097   36.9324 H   0  0  0  0  0  0  0  0  0  0  0  0
   18.5989    3.6399   36.2868 H   0  0  0  0  0  0  0  0  0  0  0  0
   15.1081    3.6223   35.1199 H   0  0  0  0  0  0  0  0  0  0  0  0
   15.4990    5.1579   32.5693 H   0  0  0  0  0  0  0  0  0  0  0  0
   14.0967    5.0927   33.5653 H   0  0  0  0  0  0  0  0  0  0  0  0
   15.4885    7.2669   34.3653 H   0  0  0  0  0  0  0  0  0  0  0  0
   19.2406    4.7129   34.4002 H   0  0  0  0  0  0  0  0  0  0  0  0
   18.3290    3.6716   33.2551 H   0  0  0  0  0  0  0  0  0  0  0  0
   18.0685    5.4489   33.2551 H   0  0  0  0  0  0  0  0  0  0  0  0
   18.4999   -0.0572   33.9940 H   0  0  0  0  0  0  0  0  0  0  0  0
   17.5263   -0.8716   32.7229 H   0  0  0  0  0  0  0  0  0  0  0  0
   17.6869    0.9175   32.7229 H   0  0  0  0  0  0  0  0  0  0  0  0
   15.3301    7.5765   36.7757 H   0  0  0  0  0  0  0  0  0  0  0  0
   19.7975    5.2753   35.8162 H   0  0  0  0  0  0  0  0  0  0  0  0
   21.7717    5.8034   37.2527 H   0  0  0  0  0  0  0  0  0  0  0  0
   21.6015    7.4928   39.0788 H   0  0  0  0  0  0  0  0  0  0  0  0
   19.4049    8.5851   39.5382 H   0  0  0  0  0  0  0  0  0  0  0  0
  2  1  1  0
  3  2  1  0
  4  3  1  0
  5  3  1  0
  5  6  1  0
  6 11  1  0
  7  6  2  0
  7  8  1  0
  8  9  1  0
  9 15  1  0
  9 10  1  0
 10 12  1  0
 11  1  1  0
 11 10  1  0
 12 13  1  0
 14 13  1  0
 14 18  1  0
 15 14  1  0
 16 15  1  0
 16 17  1  0
 17 18  2  0
 18 21  1  0
 19 14  1  0
 20 11  1  0
 21 25  1  0
 21 22  1  0
 22 26  1  0
 22 23  2  0
 23 29  1  0
 24 23  1  0
 25 24  2  0
 26 27  2  0
 27 28  1  0
 29 28  2  0
  1 30  1  0
  1 31  1  0
  2 32  1  0
  2 33  1  0
  3 34  1  0
  4 35  1  0
  5 36  1  0
  5 37  1  0
  7 38  1  0
  8 39  1  0
  8 40  1  0
  9 41  1  0
 10 42  1  0
 12 43  1  0
 12 44  1  0
 13 45  1  0
 13 46  1  0
 15 47  1  0
 16 48  1  0
 16 49  1  0
 17 50  1  0
 19 51  1  0
 19 52  1  0
 19 53  1  0
 20 54  1  0
 20 55  1  0
 20 56  1  0
 25 57  1  0
 26 58  1  0
 27 59  1  0
 28 60  1  0
 29 61  1  0
A    1
C1
A    2
C2
A    3
C3
A    4
O3
A    5
C4
A    6
C5
A    7
C6
A    8
C7
A    9
C8
A   10
C9
A   11
C10
A   12
C11
A   13
C12
A   14
C13
A   15
C14
A   16
C15
A   17
C16
A   18
C17
A   19
C18
A   20
C19
A   21
N48
A   22
C49
A   23
C50
A   24
N51
A   25
C52
A   26
C53
A   27
C54
A   28
C55
A   29
C56
M  END
