3SX0_SX0_A_421
     RDKit          3D

 47 49  0  0  0  0  0  0  0  0999 V2000
   25.3500   63.2440   -2.7190 C   0  0  0  0  0  0  0  0  0  0  0  0
   23.3590   61.9100   -3.2290 N   0  0  0  0  0  0  0  0  0  0  0  0
   24.5680   63.9170   -2.0330 O   0  0  0  0  0  0  0  0  0  0  0  0
   15.3910   64.4800  -10.8750 Br  0  0  0  0  0  0  0  0  0  0  0  0
   16.0280   59.6590  -10.2380 N   0  0  0  0  0  0  0  0  0  0  0  0
   17.2710   59.3290   -9.8880 C   0  0  0  0  0  0  0  0  0  0  0  0
   18.2470   60.2190   -9.7440 N   0  0  0  0  0  0  0  0  0  0  0  0
   17.9940   61.5140   -9.9400 C   0  0  0  0  0  0  0  0  0  0  0  0
   16.7190   61.9050  -10.3040 C   0  0  0  0  0  0  0  0  0  0  0  0
   15.7120   60.9380  -10.4630 C   0  0  0  0  0  0  0  0  0  0  0  0
   14.4610   61.2350  -10.8160 N   0  0  0  0  0  0  0  0  0  0  0  0
   16.8150   63.2770  -10.4250 C   0  0  0  0  0  0  0  0  0  0  0  0
   18.0660   63.6780  -10.1520 C   0  0  0  0  0  0  0  0  0  0  0  0
   18.7780   62.5900   -9.8640 N   0  0  0  0  0  0  0  0  0  0  0  0
   24.7190   62.2730   -3.7250 C   0  0  0  0  0  0  0  0  0  0  0  0
   24.6380   62.9410   -5.1170 C   0  0  0  0  0  0  0  0  0  0  0  0
   23.6470   65.0270   -6.7590 S   0  0  0  0  0  0  0  0  0  0  0  0
   23.7880   64.2110   -5.1050 C   0  0  0  0  0  0  0  0  0  0  0  0
   20.2210   62.5460   -9.4720 C   0  0  0  0  0  0  0  0  0  0  0  0
   21.1210   63.3770  -10.3880 C   0  0  0  0  0  0  0  0  0  0  0  0
   21.4010   62.5260  -11.4500 O   0  0  0  0  0  0  0  0  0  0  0  0
   22.3850   63.5560   -9.5050 C   0  0  0  0  0  0  0  0  0  0  0  0
   23.2910   62.4590   -9.7550 O   0  0  0  0  0  0  0  0  0  0  0  0
   21.8150   63.4200   -8.0770 C   0  0  0  0  0  0  0  0  0  0  0  0
   20.3690   63.2320   -8.2230 O   0  0  0  0  0  0  0  0  0  0  0  0
   21.9180   64.6680   -7.2330 C   0  0  0  0  0  0  0  0  0  0  0  0
   26.5930   63.3110   -2.6710 O   0  0  0  0  0  0  0  0  0  0  0  0
   23.3580   61.9097   -2.1990 H   0  0  0  0  0  0  0  0  0  0  0  0
   22.6733   62.5974   -3.5728 H   0  0  0  0  0  0  0  0  0  0  0  0
   24.6154   63.8762   -1.0450 H   0  0  0  0  0  0  0  0  0  0  0  0
   17.5000   58.2680   -9.7096 H   0  0  0  0  0  0  0  0  0  0  0  0
   13.7480   61.4043  -10.0922 H   0  0  0  0  0  0  0  0  0  0  0  0
   14.2076   61.2952  -11.8125 H   0  0  0  0  0  0  0  0  0  0  0  0
   18.4353   64.7141  -10.1639 H   0  0  0  0  0  0  0  0  0  0  0  0
   25.3302   61.3636   -3.8222 H   0  0  0  0  0  0  0  0  0  0  0  0
   25.6557   63.2001   -5.4443 H   0  0  0  0  0  0  0  0  0  0  0  0
   24.1632   62.2261   -5.8051 H   0  0  0  0  0  0  0  0  0  0  0  0
   22.7770   63.9490   -4.7597 H   0  0  0  0  0  0  0  0  0  0  0  0
   24.2880   64.9262   -4.4353 H   0  0  0  0  0  0  0  0  0  0  0  0
   20.4973   61.4813   -9.4830 H   0  0  0  0  0  0  0  0  0  0  0  0
   20.7275   64.3348  -10.7593 H   0  0  0  0  0  0  0  0  0  0  0  0
   21.6905   61.6462  -11.1004 H   0  0  0  0  0  0  0  0  0  0  0  0
   22.9281   64.4957   -9.6838 H   0  0  0  0  0  0  0  0  0  0  0  0
   23.6008   62.0839   -8.8928 H   0  0  0  0  0  0  0  0  0  0  0  0
   22.3816   62.6089   -7.5964 H   0  0  0  0  0  0  0  0  0  0  0  0
   21.3198   64.5308   -6.3201 H   0  0  0  0  0  0  0  0  0  0  0  0
   21.5439   65.5145   -7.8276 H   0  0  0  0  0  0  0  0  0  0  0  0
 15  1  1  0
  1 27  2  0
  1  3  1  0
 15  2  1  0
  4 12  1  0
 10  5  2  0
  5  6  1  0
  6  7  2  0
  8  7  1  0
  9  8  2  0
  8 14  1  0
 10  9  1  0
 12  9  1  0
 11 10  1  0
 12 13  2  0
 13 14  1  0
 14 19  1  0
 16 15  1  0
 16 18  1  0
 26 17  1  0
 17 18  1  0
 20 19  1  0
 19 25  1  0
 21 20  1  0
 20 22  1  0
 23 22  1  0
 22 24  1  0
 25 24  1  0
 24 26  1  0
  2 28  1  0
  2 29  1  0
  3 30  1  0
  6 31  1  0
 11 32  1  0
 11 33  1  0
 13 34  1  0
 15 35  1  0
 16 36  1  0
 16 37  1  0
 18 38  1  0
 18 39  1  0
 19 40  1  0
 20 41  1  0
 21 42  1  0
 22 43  1  0
 23 44  1  0
 24 45  1  0
 26 46  1  0
 26 47  1  0
A    1
C
A    2
N
A    3
O
A    4
BR
A    5
N1
A    6
C2
A    7
N3
A    8
C4
A    9
C5
A   10
C6
A   11
N6
A   12
C7
A   13
C8
A   14
N9
A   15
CA
A   16
CB
A   17
SD
A   18
CG
A   19
C1'
A   20
C2'
A   21
O2'
A   22
C3'
A   23
O3'
A   24
C4'
A   25
O4'
A   26
C5'
A   27
OXT
M  END
