3SX4_KXA_A_1
     RDKit          3D

 48 51  0  0  0  0  0  0  0  0999 V2000
   54.7610   49.1450   35.2790 C   0  0  0  0  0  0  0  0  0  0  0  0
   55.0240   47.9750   34.5730 C   0  0  0  0  0  0  0  0  0  0  0  0
   47.1290   48.7440   36.9820 C   0  0  0  0  0  0  0  0  0  0  0  0
   53.5090   49.7260   35.2480 C   0  0  0  0  0  0  0  0  0  0  0  0
   54.0350   47.3790   33.8310 C   0  0  0  0  0  0  0  0  0  0  0  0
   46.9500   48.2300   38.2580 C   0  0  0  0  0  0  0  0  0  0  0  0
   47.9920   50.2010   39.2270 C   0  0  0  0  0  0  0  0  0  0  0  0
   47.7200   49.9830   36.8440 C   0  0  0  0  0  0  0  0  0  0  0  0
   47.9430   50.5060   35.5240 C   0  0  0  0  0  0  0  0  0  0  0  0
   49.1610   50.2820   34.9590 C   0  0  0  0  0  0  0  0  0  0  0  0
   47.0420   51.2610   34.7870 C   0  0  0  0  0  0  0  0  0  0  0  0
   52.5140   49.1270   34.4910 C   0  0  0  0  0  0  0  0  0  0  0  0
   52.7750   47.9610   33.7910 C   0  0  0  0  0  0  0  0  0  0  0  0
   47.3900   48.9790   39.3410 C   0  0  0  0  0  0  0  0  0  0  0  0
   48.1630   50.6900   37.9540 C   0  0  0  0  0  0  0  0  0  0  0  0
   49.4460   50.7790   33.7050 C   0  0  0  0  0  0  0  0  0  0  0  0
   47.4170   51.7190   33.5240 C   0  0  0  0  0  0  0  0  0  0  0  0
   50.8260   50.3900   33.3310 C   0  0  0  0  0  0  0  0  0  0  0  0
   50.3060   49.5460   35.5020 C   0  0  0  0  0  0  0  0  0  0  0  0
   46.4940   52.5140   32.6870 C   0  0  0  0  0  0  0  0  0  0  0  0
   52.1090   46.2940   32.3360 C   0  0  0  0  0  0  0  0  0  0  0  0
   45.6750   51.5540   35.3160 C   0  0  0  0  0  0  0  0  0  0  0  0
   48.6370   51.4920   32.9360 N   0  0  0  0  0  0  0  0  0  0  0  0
   51.2670   49.6730   34.4430 N   0  0  0  0  0  0  0  0  0  0  0  0
   45.7920   52.1690   36.5920 N   0  0  0  0  0  0  0  0  0  0  0  0
   51.4420   50.6270   32.3210 O   0  0  0  0  0  0  0  0  0  0  0  0
   51.7480   47.4310   33.0780 O   0  0  0  0  0  0  0  0  0  0  0  0
   47.1790   48.3600   40.8800 Cl  0  0  0  0  0  0  0  0  0  0  0  0
   48.9070   52.2080   37.7520 Cl  0  0  0  0  0  0  0  0  0  0  0  0
   55.5618   49.6134   35.8700 H   0  0  0  0  0  0  0  0  0  0  0  0
   56.0277   47.5264   34.6097 H   0  0  0  0  0  0  0  0  0  0  0  0
   46.8061   48.1750   36.0977 H   0  0  0  0  0  0  0  0  0  0  0  0
   53.3047   50.6471   35.8135 H   0  0  0  0  0  0  0  0  0  0  0  0
   54.2381   46.4519   33.2750 H   0  0  0  0  0  0  0  0  0  0  0  0
   46.4705   47.2515   38.4083 H   0  0  0  0  0  0  0  0  0  0  0  0
   48.3234   50.7654   40.1111 H   0  0  0  0  0  0  0  0  0  0  0  0
   50.6723   50.0049   36.4322 H   0  0  0  0  0  0  0  0  0  0  0  0
   50.0776   48.5047   35.7733 H   0  0  0  0  0  0  0  0  0  0  0  0
   45.8200   53.0945   33.3341 H   0  0  0  0  0  0  0  0  0  0  0  0
   47.0737   53.2001   32.0520 H   0  0  0  0  0  0  0  0  0  0  0  0
   45.9014   51.8391   32.0520 H   0  0  0  0  0  0  0  0  0  0  0  0
   52.3690   45.4752   33.0230 H   0  0  0  0  0  0  0  0  0  0  0  0
   51.2643   45.9865   31.7020 H   0  0  0  0  0  0  0  0  0  0  0  0
   52.9764   46.5301   31.7020 H   0  0  0  0  0  0  0  0  0  0  0  0
   45.1509   52.2325   34.6268 H   0  0  0  0  0  0  0  0  0  0  0  0
   45.1043   50.6180   35.4067 H   0  0  0  0  0  0  0  0  0  0  0  0
   45.6573   51.4611   37.3280 H   0  0  0  0  0  0  0  0  0  0  0  0
   46.7279   52.5886   36.6864 H   0  0  0  0  0  0  0  0  0  0  0  0
  2  1  2  0
  4  1  1  0
  5  2  1  0
  8  3  2  0
  3  6  1  0
 12  4  2  0
 13  5  2  0
  6 14  2  0
 15  7  2  0
  7 14  1  0
  9  8  1  0
  8 15  1  0
 11  9  2  0
 10  9  1  0
 16 10  2  0
 10 19  1  0
 17 11  1  0
 11 22  1  0
 13 12  1  0
 24 12  1  0
 27 13  1  0
 14 28  1  0
 29 15  1  0
 23 16  1  0
 18 16  1  0
 20 17  1  0
 23 17  2  0
 26 18  2  0
 18 24  1  0
 24 19  1  0
 21 27  1  0
 22 25  1  0
  1 30  1  0
  2 31  1  0
  3 32  1  0
  4 33  1  0
  5 34  1  0
  6 35  1  0
  7 36  1  0
 19 37  1  0
 19 38  1  0
 20 39  1  0
 20 40  1  0
 20 41  1  0
 21 42  1  0
 21 43  1  0
 21 44  1  0
 22 45  1  0
 22 46  1  0
 25 47  1  0
 25 48  1  0
A    1
C01
A    2
C02
A    3
C03
A    4
C04
A    5
C05
A    6
C06
A    7
C07
A    8
C08
A    9
C09
A   10
C10
A   11
C11
A   12
C12
A   13
C13
A   14
C14
A   15
C15
A   16
C16
A   17
C17
A   18
C18
A   19
C19
A   20
C20
A   21
C21
A   22
C22
A   23
N23
A   24
N24
A   25
N25
A   26
O26
A   27
O27
A   28
CL1
A   29
CL2
M  END
