3H28_DCQ_A_500
     RDKit          3D

 53 53  0  0  0  0  0  0  0  0999 V2000
   71.1150  112.4540  122.3060 O   0  0  0  0  0  0  0  0  0  0  0  0
   70.0500  112.5880  122.9470 C   0  0  0  0  0  0  0  0  0  0  0  0
   69.1250  113.5410  122.5380 C   0  0  0  0  0  0  0  0  0  0  0  0
   69.3700  114.3120  121.4260 O   0  0  0  0  0  0  0  0  0  0  0  0
   70.0900  115.5440  121.4810 C   0  0  0  0  0  0  0  0  0  0  0  0
   67.9410  113.6990  123.2470 C   0  0  0  0  0  0  0  0  0  0  0  0
   67.0240  114.6360  122.8360 O   0  0  0  0  0  0  0  0  0  0  0  0
   66.8410  115.8640  123.5410 C   0  0  0  0  0  0  0  0  0  0  0  0
   67.6890  112.9060  124.3620 C   0  0  0  0  0  0  0  0  0  0  0  0
   66.6190  113.0570  124.9930 O   0  0  0  0  0  0  0  0  0  0  0  0
   69.8030  111.7950  124.0650 C   0  0  0  0  0  0  0  0  0  0  0  0
   70.8290  110.7690  124.4890 C   0  0  0  0  0  0  0  0  0  0  0  0
   68.6160  111.9560  124.7810 C   0  0  0  0  0  0  0  0  0  0  0  0
   68.3240  111.0980  126.0010 C   0  0  0  0  0  0  0  0  0  0  0  0
   68.4570  111.8890  127.2990 C   0  0  0  0  0  0  0  0  0  0  0  0
   69.0940  111.0440  128.3940 C   0  0  0  0  0  0  0  0  0  0  0  0
   68.1570  110.8760  129.5860 C   0  0  0  0  0  0  0  0  0  0  0  0
   68.6830  111.6320  130.8000 C   0  0  0  0  0  0  0  0  0  0  0  0
   68.6740  110.7560  132.0460 C   0  0  0  0  0  0  0  0  0  0  0  0
   67.5450  111.1610  132.9920 C   0  0  0  0  0  0  0  0  0  0  0  0
   67.7740  110.6200  134.4000 C   0  0  0  0  0  0  0  0  0  0  0  0
   66.5550  110.8420  135.2890 C   0  0  0  0  0  0  0  0  0  0  0  0
   66.9580  110.8900  136.7470 C   0  0  0  0  0  0  0  0  0  0  0  0
   70.2547  115.8258  122.5314 H   0  0  0  0  0  0  0  0  0  0  0  0
   71.0604  115.4244  120.9770 H   0  0  0  0  0  0  0  0  0  0  0  0
   69.5095  116.3308  120.9770 H   0  0  0  0  0  0  0  0  0  0  0  0
   66.8695  115.6729  124.6239 H   0  0  0  0  0  0  0  0  0  0  0  0
   67.6446  116.5650  123.2711 H   0  0  0  0  0  0  0  0  0  0  0  0
   65.8679  116.3002  123.2711 H   0  0  0  0  0  0  0  0  0  0  0  0
   70.8722  110.7258  125.5873 H   0  0  0  0  0  0  0  0  0  0  0  0
   70.5456  109.7822  124.0941 H   0  0  0  0  0  0  0  0  0  0  0  0
   71.8158  111.0524  124.0941 H   0  0  0  0  0  0  0  0  0  0  0  0
   67.2977  110.7096  125.9250 H   0  0  0  0  0  0  0  0  0  0  0  0
   69.0578  110.2788  126.0247 H   0  0  0  0  0  0  0  0  0  0  0  0
   69.0845  112.7740  127.1175 H   0  0  0  0  0  0  0  0  0  0  0  0
   67.4516  112.1887  127.6297 H   0  0  0  0  0  0  0  0  0  0  0  0
   69.3343  110.0514  127.9854 H   0  0  0  0  0  0  0  0  0  0  0  0
   70.0043  111.5557  128.7397 H   0  0  0  0  0  0  0  0  0  0  0  0
   67.1633  111.2663  129.3211 H   0  0  0  0  0  0  0  0  0  0  0  0
   68.0947  109.8068  129.8369 H   0  0  0  0  0  0  0  0  0  0  0  0
   69.7141  111.9585  130.5993 H   0  0  0  0  0  0  0  0  0  0  0  0
   68.0280  112.4972  130.9800 H   0  0  0  0  0  0  0  0  0  0  0  0
   68.5338  109.7067  131.7470 H   0  0  0  0  0  0  0  0  0  0  0  0
   69.6327  110.8826  132.5702 H   0  0  0  0  0  0  0  0  0  0  0  0
   67.4915  112.2588  133.0353 H   0  0  0  0  0  0  0  0  0  0  0  0
   66.6049  110.7379  132.6084 H   0  0  0  0  0  0  0  0  0  0  0  0
   67.9804  109.5413  134.3393 H   0  0  0  0  0  0  0  0  0  0  0  0
   68.6260  111.1574  134.8419 H   0  0  0  0  0  0  0  0  0  0  0  0
   66.0768  111.7940  135.0150 H   0  0  0  0  0  0  0  0  0  0  0  0
   65.8540  110.0069  135.1431 H   0  0  0  0  0  0  0  0  0  0  0  0
   66.0635  110.7835  137.3783 H   0  0  0  0  0  0  0  0  0  0  0  0
   67.6579  110.0689  136.9612 H   0  0  0  0  0  0  0  0  0  0  0  0
   67.4455  111.8526  136.9612 H   0  0  0  0  0  0  0  0  0  0  0  0
  1  2  2  0
  2  3  1  0
  2 11  1  0
  3  4  1  0
  3  6  2  0
  4  5  1  0
  6  7  1  0
  6  9  1  0
  7  8  1  0
  9 10  2  0
  9 13  1  0
 11 12  1  0
 11 13  2  0
 13 14  1  0
 14 15  1  0
 15 16  1  0
 16 17  1  0
 17 18  1  0
 18 19  1  0
 19 20  1  0
 20 21  1  0
 21 22  1  0
 22 23  1  0
  5 24  1  0
  5 25  1  0
  5 26  1  0
  8 27  1  0
  8 28  1  0
  8 29  1  0
 12 30  1  0
 12 31  1  0
 12 32  1  0
 14 33  1  0
 14 34  1  0
 15 35  1  0
 15 36  1  0
 16 37  1  0
 16 38  1  0
 17 39  1  0
 17 40  1  0
 18 41  1  0
 18 42  1  0
 19 43  1  0
 19 44  1  0
 20 45  1  0
 20 46  1  0
 21 47  1  0
 21 48  1  0
 22 49  1  0
 22 50  1  0
 23 51  1  0
 23 52  1  0
 23 53  1  0
A    1
O2
A    2
C2
A    3
C3
A    4
O3
A    5
C3M
A    6
C4
A    7
O4
A    8
C4M
A    9
C5
A   10
O5
A   11
C1
A   12
C1M
A   13
C6
A   14
C7
A   15
C8
A   16
C9
A   17
C10
A   18
C11
A   19
C12
A   20
C13
A   21
C14
A   22
C15
A   23
C16
M  END
