3T03_3T0_A_2
     RDKit          3D

 41 43  0  0  0  0  0  0  0  0999 V2000
  -17.7410   22.0290  -17.4400 C   0  0  0  0  0  0  0  0  0  0  0  0
  -15.1420   20.3890   -7.7010 C   0  0  0  0  0  0  0  0  0  0  0  0
  -18.7080   26.4060  -10.3380 O   0  0  0  0  0  0  0  0  0  0  0  0
  -19.7640   22.4480  -12.8040 O   0  0  0  0  0  0  0  0  0  0  0  0
  -21.4580   27.8980  -18.7520 Br  0  0  0  0  0  0  0  0  0  0  0  0
  -19.3750   23.9980  -14.9160 C   0  0  0  0  0  0  0  0  0  0  0  0
  -16.4810   21.2160   -9.8760 C   0  0  0  0  0  0  0  0  0  0  0  0
  -17.2540   21.8640   -7.5540 C   0  0  0  0  0  0  0  0  0  0  0  0
  -19.4870   25.7140  -18.9040 C   0  0  0  0  0  0  0  0  0  0  0  0
  -17.5650   22.0150  -10.4880 C   0  0  0  0  0  0  0  0  0  0  0  0
  -18.3790   22.6620   -8.1600 C   0  0  0  0  0  0  0  0  0  0  0  0
  -18.7290   24.5370  -18.4930 C   0  0  0  0  0  0  0  0  0  0  0  0
  -20.4800   26.0290  -16.4870 C   0  0  0  0  0  0  0  0  0  0  0  0
  -19.6440   23.5260  -10.1130 C   0  0  0  0  0  0  0  0  0  0  0  0
  -18.0710   23.0630  -16.5940 O   0  0  0  0  0  0  0  0  0  0  0  0
  -18.6260   26.1050  -12.9910 S   0  0  0  0  0  0  0  0  0  0  0  0
  -16.2880   21.1430   -8.3900 C   0  0  0  0  0  0  0  0  0  0  0  0
  -20.3900   26.4300  -18.0100 C   0  0  0  0  0  0  0  0  0  0  0  0
  -18.5020   22.7440   -9.5960 C   0  0  0  0  0  0  0  0  0  0  0  0
  -19.7120   24.8060  -16.1050 C   0  0  0  0  0  0  0  0  0  0  0  0
  -18.8220   24.1030  -17.0690 C   0  0  0  0  0  0  0  0  0  0  0  0
  -18.9100   25.6910  -11.2910 C   0  0  0  0  0  0  0  0  0  0  0  0
  -19.4140   23.6720  -12.5180 C   0  0  0  0  0  0  0  0  0  0  0  0
  -19.1530   24.5850  -13.5890 C   0  0  0  0  0  0  0  0  0  0  0  0
  -19.3140   24.3230  -11.2880 N   0  0  0  0  0  0  0  0  0  0  0  0
  -17.4592   21.1461  -16.8474 H   0  0  0  0  0  0  0  0  0  0  0  0
  -18.6056   21.7841  -18.0744 H   0  0  0  0  0  0  0  0  0  0  0  0
  -16.8944   22.3303  -18.0744 H   0  0  0  0  0  0  0  0  0  0  0  0
  -15.2571   20.4648   -6.6097 H   0  0  0  0  0  0  0  0  0  0  0  0
  -15.1675   19.3307   -7.9998 H   0  0  0  0  0  0  0  0  0  0  0  0
  -14.1802   20.8313   -7.9998 H   0  0  0  0  0  0  0  0  0  0  0  0
  -19.2863   22.9075  -15.0297 H   0  0  0  0  0  0  0  0  0  0  0  0
  -15.7952   20.6581  -10.5306 H   0  0  0  0  0  0  0  0  0  0  0  0
  -17.1547   21.8210   -6.4593 H   0  0  0  0  0  0  0  0  0  0  0  0
  -19.3722   26.0781  -19.9356 H   0  0  0  0  0  0  0  0  0  0  0  0
  -17.6747   22.0681  -11.5812 H   0  0  0  0  0  0  0  0  0  0  0  0
  -19.1023   23.1790   -7.5122 H   0  0  0  0  0  0  0  0  0  0  0  0
  -18.1066   23.9853  -19.2129 H   0  0  0  0  0  0  0  0  0  0  0  0
  -21.0662   26.6084  -15.7585 H   0  0  0  0  0  0  0  0  0  0  0  0
  -20.4519   22.8288  -10.3800 H   0  0  0  0  0  0  0  0  0  0  0  0
  -19.9448   24.2258   -9.3194 H   0  0  0  0  0  0  0  0  0  0  0  0
  1 15  1  0
  4 23  2  0
  5 18  1  0
  6 24  2  0
  7 17  2  0
  9 12  2  0
  9 18  1  0
 10  7  1  0
 10 19  2  0
 11  8  2  0
 12 21  1  0
 13 20  1  0
 14 19  1  0
 16 22  1  0
 17  2  1  0
 17  8  1  0
 18 13  2  0
 19 11  1  0
 20  6  1  0
 21 15  1  0
 21 20  2  0
 22  3  2  0
 22 25  1  0
 23 25  1  0
 24 16  1  0
 24 23  1  0
 25 14  1  0
  1 26  1  0
  1 27  1  0
  1 28  1  0
  2 29  1  0
  2 30  1  0
  2 31  1  0
  6 32  1  0
  7 33  1  0
  8 34  1  0
  9 35  1  0
 10 36  1  0
 11 37  1  0
 12 38  1  0
 13 39  1  0
 14 40  1  0
 14 41  1  0
A    1
CAA
A    2
CAB
A    3
OAC
A    4
OAD
A    5
BRAE
A    6
CAF
A    7
CAG
A    8
CAH
A    9
CAI
A   10
CAJ
A   11
CAK
A   12
CAL
A   13
CAM
A   14
CAN
A   15
OAO
A   16
SAP
A   17
CAQ
A   18
CAR
A   19
CAS
A   20
CAT
A   21
CAU
A   22
CAV
A   23
CAW
A   24
CAX
A   25
NAY
M  END
