3T0L_1CT_A_232
     RDKit          3D

 38 39  0  0  0  0  0  0  0  0999 V2000
   25.4620    8.9450  -10.5270 O   0  0  0  0  0  0  0  0  0  0  0  0
   21.7880   13.2270  -11.6880 O   0  0  0  0  0  0  0  0  0  0  0  0
   22.0240   12.5990   -9.1860 O   0  0  0  0  0  0  0  0  0  0  0  0
   21.0390   14.8130   -9.7350 O   0  0  0  0  0  0  0  0  0  0  0  0
   22.5720    8.3890   -6.2280 F   0  0  0  0  0  0  0  0  0  0  0  0
   24.1680    9.1360   -7.3720 F   0  0  0  0  0  0  0  0  0  0  0  0
   22.4020   10.3630   -7.0860 F   0  0  0  0  0  0  0  0  0  0  0  0
   21.4400    7.2330  -10.9060 C   0  0  0  0  0  0  0  0  0  0  0  0
   26.2500   15.6210  -10.3610 C   0  0  0  0  0  0  0  0  0  0  0  0
   21.0870    6.7600   -9.6440 C   0  0  0  0  0  0  0  0  0  0  0  0
   25.1450   16.4400  -10.0890 C   0  0  0  0  0  0  0  0  0  0  0  0
   22.2910    8.3490  -11.0030 C   0  0  0  0  0  0  0  0  0  0  0  0
   26.1060   14.2300  -10.5870 C   0  0  0  0  0  0  0  0  0  0  0  0
   21.5380    7.3690   -8.4940 C   0  0  0  0  0  0  0  0  0  0  0  0
   23.8250   15.9030  -10.0520 C   0  0  0  0  0  0  0  0  0  0  0  0
   25.6210   11.3570  -10.5000 C   0  0  0  0  0  0  0  0  0  0  0  0
   23.5660   10.0590  -10.0080 N   0  0  0  0  0  0  0  0  0  0  0  0
   24.5500   12.3820  -10.7730 O   0  0  0  0  0  0  0  0  0  0  0  0
   24.8610   10.0140  -10.3360 C   0  0  0  0  0  0  0  0  0  0  0  0
   22.7740    8.9560   -9.8510 C   0  0  0  0  0  0  0  0  0  0  0  0
   24.7920   13.7190  -10.5570 C   0  0  0  0  0  0  0  0  0  0  0  0
   22.3800    8.4840   -8.5840 C   0  0  0  0  0  0  0  0  0  0  0  0
   23.7010   14.5280  -10.2530 C   0  0  0  0  0  0  0  0  0  0  0  0
   22.8690    9.1240   -7.2870 C   0  0  0  0  0  0  0  0  0  0  0  0
   22.0210   13.7650  -10.2810 P   0  0  0  0  0  0  0  0  0  0  0  0
   22.0230   12.9974   -8.2797 H   0  0  0  0  0  0  0  0  0  0  0  0
   21.0549   14.7960   -8.7453 H   0  0  0  0  0  0  0  0  0  0  0  0
   21.0589    6.7411  -11.8131 H   0  0  0  0  0  0  0  0  0  0  0  0
   27.2536   16.0697  -10.3999 H   0  0  0  0  0  0  0  0  0  0  0  0
   20.4327    5.8794   -9.5642 H   0  0  0  0  0  0  0  0  0  0  0  0
   25.2989   17.5129   -9.9014 H   0  0  0  0  0  0  0  0  0  0  0  0
   22.5738    8.7408  -11.9912 H   0  0  0  0  0  0  0  0  0  0  0  0
   26.9744   13.5819  -10.7761 H   0  0  0  0  0  0  0  0  0  0  0  0
   21.2381    6.9812   -7.5093 H   0  0  0  0  0  0  0  0  0  0  0  0
   22.9472   16.5415   -9.8737 H   0  0  0  0  0  0  0  0  0  0  0  0
   26.3264   11.3015  -11.3422 H   0  0  0  0  0  0  0  0  0  0  0  0
   26.2139   11.6072   -9.6079 H   0  0  0  0  0  0  0  0  0  0  0  0
   23.1372   10.9844   -9.8643 H   0  0  0  0  0  0  0  0  0  0  0  0
  1 19  2  0
  2 25  2  0
 25  3  1  0
 25  4  1  0
 24  5  1  0
  6 24  1  0
 24  7  1  0
 12  8  2  0
  8 10  1  0
 13  9  2  0
  9 11  1  0
 10 14  2  0
 11 15  2  0
 12 20  1  0
 13 21  1  0
 22 14  1  0
 23 15  1  0
 18 16  1  0
 16 19  1  0
 19 17  1  0
 17 20  1  0
 18 21  1  0
 20 22  2  0
 21 23  2  0
 22 24  1  0
 25 23  1  0
  3 26  1  0
  4 27  1  0
  8 28  1  0
  9 29  1  0
 10 30  1  0
 11 31  1  0
 12 32  1  0
 13 33  1  0
 14 34  1  0
 15 35  1  0
 16 36  1  0
 16 37  1  0
 17 38  1  0
A    1
OAA
A    2
OAB
A    3
OAC
A    4
OAD
A    5
FAE
A    6
FAF
A    7
FAG
A    8
CAH
A    9
CAI
A   10
CAJ
A   11
CAK
A   12
CAL
A   13
CAM
A   14
CAN
A   15
CAO
A   16
CAP
A   17
NAQ
A   18
OAR
A   19
CAS
A   20
CAT
A   21
CAU
A   22
CAV
A   23
CAW
A   24
CAX
A   25
PAY
M  END
