3T0M_2CT_A_232
     RDKit          3D

 43 44  0  0  0  0  0  0  0  0999 V2000
   21.1890    7.2430   -5.2040 C   0  0  0  0  0  0  0  0  0  0  0  0
   21.3420    6.9050  -11.4640 C   0  0  0  0  0  0  0  0  0  0  0  0
   25.2550    9.4420   -8.5610 O   0  0  0  0  0  0  0  0  0  0  0  0
   21.8320   12.5200   -9.2150 O   0  0  0  0  0  0  0  0  0  0  0  0
   20.8760   14.7540   -9.6380 O   0  0  0  0  0  0  0  0  0  0  0  0
   21.7290   13.1780  -11.6870 O   0  0  0  0  0  0  0  0  0  0  0  0
   26.1210   15.6270  -10.3040 C   0  0  0  0  0  0  0  0  0  0  0  0
   24.9960   16.4440  -10.1750 C   0  0  0  0  0  0  0  0  0  0  0  0
   25.9910   14.2230  -10.3950 C   0  0  0  0  0  0  0  0  0  0  0  0
   21.0850    7.1970   -7.9000 C   0  0  0  0  0  0  0  0  0  0  0  0
   23.7070   15.8770  -10.1770 C   0  0  0  0  0  0  0  0  0  0  0  0
   21.3030    7.0790   -9.2690 C   0  0  0  0  0  0  0  0  0  0  0  0
   22.4050    9.1920   -7.8540 C   0  0  0  0  0  0  0  0  0  0  0  0
   25.4280   11.3100  -10.0330 C   0  0  0  0  0  0  0  0  0  0  0  0
   23.4040    9.9960   -9.8000 N   0  0  0  0  0  0  0  0  0  0  0  0
   21.4360    8.4560   -5.8570 O   0  0  0  0  0  0  0  0  0  0  0  0
   22.3290    7.9170  -11.2110 O   0  0  0  0  0  0  0  0  0  0  0  0
   24.4460   12.3170  -10.4440 O   0  0  0  0  0  0  0  0  0  0  0  0
   24.6680   10.1710   -9.3820 C   0  0  0  0  0  0  0  0  0  0  0  0
   21.6280    8.2680   -7.1960 C   0  0  0  0  0  0  0  0  0  0  0  0
   22.6550    9.0680   -9.2110 C   0  0  0  0  0  0  0  0  0  0  0  0
   22.1040    8.0260   -9.9070 C   0  0  0  0  0  0  0  0  0  0  0  0
   24.6950   13.6730  -10.3660 C   0  0  0  0  0  0  0  0  0  0  0  0
   23.5780   14.4960  -10.2240 C   0  0  0  0  0  0  0  0  0  0  0  0
   21.8790   13.6880  -10.2030 P   0  0  0  0  0  0  0  0  0  0  0  0
   21.2208    7.3994   -4.1156 H   0  0  0  0  0  0  0  0  0  0  0  0
   20.1959    6.8673   -5.4916 H   0  0  0  0  0  0  0  0  0  0  0  0
   21.9561    6.5089   -5.4916 H   0  0  0  0  0  0  0  0  0  0  0  0
   20.9624    6.5158  -10.5077 H   0  0  0  0  0  0  0  0  0  0  0  0
   20.5108    7.3391  -12.0390 H   0  0  0  0  0  0  0  0  0  0  0  0
   21.7968    6.0849  -12.0390 H   0  0  0  0  0  0  0  0  0  0  0  0
   21.8461   12.8702   -8.2891 H   0  0  0  0  0  0  0  0  0  0  0  0
   20.8954   14.7334   -8.6484 H   0  0  0  0  0  0  0  0  0  0  0  0
   27.1218   16.0825  -10.3352 H   0  0  0  0  0  0  0  0  0  0  0  0
   25.1169   17.5324  -10.0716 H   0  0  0  0  0  0  0  0  0  0  0  0
   26.8772   13.5778  -10.4859 H   0  0  0  0  0  0  0  0  0  0  0  0
   20.4824    6.4426   -7.3730 H   0  0  0  0  0  0  0  0  0  0  0  0
   22.8149   16.5196  -10.1418 H   0  0  0  0  0  0  0  0  0  0  0  0
   20.8515    6.2532   -9.8384 H   0  0  0  0  0  0  0  0  0  0  0  0
   22.8327   10.0387   -7.2970 H   0  0  0  0  0  0  0  0  0  0  0  0
   25.9776   10.9410  -10.9115 H   0  0  0  0  0  0  0  0  0  0  0  0
   26.1550   11.7424   -9.3298 H   0  0  0  0  0  0  0  0  0  0  0  0
   23.0208   10.5708  -10.5640 H   0  0  0  0  0  0  0  0  0  0  0  0
 16  1  1  0
  2 17  1  0
 19  3  2  0
 25  4  1  0
 25  5  1  0
  6 25  2  0
  9  7  2  0
  7  8  1  0
 11  8  2  0
  9 23  1  0
 12 10  2  0
 10 20  1  0
 24 11  1  0
 22 12  1  0
 21 13  1  0
 13 20  2  0
 18 14  1  0
 14 19  1  0
 15 19  1  0
 15 21  1  0
 20 16  1  0
 17 22  1  0
 18 23  1  0
 22 21  2  0
 23 24  2  0
 24 25  1  0
  1 26  1  0
  1 27  1  0
  1 28  1  0
  2 29  1  0
  2 30  1  0
  2 31  1  0
  4 32  1  0
  5 33  1  0
  7 34  1  0
  8 35  1  0
  9 36  1  0
 10 37  1  0
 11 38  1  0
 12 39  1  0
 13 40  1  0
 14 41  1  0
 14 42  1  0
 15 43  1  0
A    1
CAA
A    2
CAB
A    3
OAC
A    4
OAD
A    5
OAE
A    6
OAF
A    7
CAG
A    8
CAH
A    9
CAI
A   10
CAJ
A   11
CAK
A   12
CAL
A   13
CAM
A   14
CAN
A   15
NAO
A   16
OAP
A   17
OAQ
A   18
OAR
A   19
CAS
A   20
CAT
A   21
CAU
A   22
CAV
A   23
CAW
A   24
CAX
A   25
PAY
M  END
