3T0T_I30_A_586
     RDKit          3D

 36 38  0  0  0  0  0  0  0  0999 V2000
   27.1840    0.6450  -12.0500 C   0  0  0  0  0  0  0  0  0  0  0  0
   29.1600   -1.6040  -15.9720 O   0  0  0  0  0  0  0  0  0  0  0  0
   29.4630   -1.9300  -11.9330 O   0  0  0  0  0  0  0  0  0  0  0  0
   33.0090   -5.8460  -14.8230 Br  0  0  0  0  0  0  0  0  0  0  0  0
   23.8950    4.1860  -17.0780 C   0  0  0  0  0  0  0  0  0  0  0  0
   23.4280    4.6900  -15.8690 C   0  0  0  0  0  0  0  0  0  0  0  0
   31.8420   -4.5620  -12.6560 C   0  0  0  0  0  0  0  0  0  0  0  0
   31.0400   -3.6760  -11.9800 C   0  0  0  0  0  0  0  0  0  0  0  0
   24.8310    3.1700  -17.0600 C   0  0  0  0  0  0  0  0  0  0  0  0
   23.8900    4.1840  -14.6490 C   0  0  0  0  0  0  0  0  0  0  0  0
   31.0470   -3.6530  -14.7420 C   0  0  0  0  0  0  0  0  0  0  0  0
   27.7810   -0.1180  -14.3510 N   0  0  0  0  0  0  0  0  0  0  0  0
   26.1780    1.6940  -15.5550 N   0  0  0  0  0  0  0  0  0  0  0  0
   28.5650   -0.9420  -13.8940 N   0  0  0  0  0  0  0  0  0  0  0  0
   25.4430    2.4760  -13.6670 N   0  0  0  0  0  0  0  0  0  0  0  0
   27.0830    0.6870  -13.5770 C   0  0  0  0  0  0  0  0  0  0  0  0
   29.2760   -1.7040  -14.7430 C   0  0  0  0  0  0  0  0  0  0  0  0
   31.8510   -4.5580  -14.0310 C   0  0  0  0  0  0  0  0  0  0  0  0
   30.2420   -2.7810  -12.6580 C   0  0  0  0  0  0  0  0  0  0  0  0
   30.2280   -2.7480  -14.0500 C   0  0  0  0  0  0  0  0  0  0  0  0
   26.2620    1.5850  -14.2290 C   0  0  0  0  0  0  0  0  0  0  0  0
   25.3010    2.6560  -15.8500 C   0  0  0  0  0  0  0  0  0  0  0  0
   24.8310    3.1550  -14.6410 C   0  0  0  0  0  0  0  0  0  0  0  0
   26.2530    1.0321  -11.6102 H   0  0  0  0  0  0  0  0  0  0  0  0
   27.3409   -0.3930  -11.7213 H   0  0  0  0  0  0  0  0  0  0  0  0
   28.0306    1.2656  -11.7213 H   0  0  0  0  0  0  0  0  0  0  0  0
   29.4880   -1.9573  -10.9437 H   0  0  0  0  0  0  0  0  0  0  0  0
   23.5255    4.5894  -18.0323 H   0  0  0  0  0  0  0  0  0  0  0  0
   22.6833    5.4996  -15.8718 H   0  0  0  0  0  0  0  0  0  0  0  0
   32.4737   -5.2710  -12.1008 H   0  0  0  0  0  0  0  0  0  0  0  0
   31.0346   -3.6810  -10.8800 H   0  0  0  0  0  0  0  0  0  0  0  0
   25.2098    2.7619  -18.0087 H   0  0  0  0  0  0  0  0  0  0  0  0
   23.5129    4.5958  -13.7013 H   0  0  0  0  0  0  0  0  0  0  0  0
   31.0591   -3.6534  -15.8419 H   0  0  0  0  0  0  0  0  0  0  0  0
   26.7027    1.1296  -16.2384 H   0  0  0  0  0  0  0  0  0  0  0  0
   28.6772   -1.0488  -12.8757 H   0  0  0  0  0  0  0  0  0  0  0  0
  1 16  1  0
  2 17  2  0
  3 19  1  0
  4 18  1  0
  5  6  2  0
  5  9  1  0
  6 10  1  0
  7  8  2  0
  7 18  1  0
  8 19  1  0
  9 22  2  0
 10 23  2  0
 11 18  2  0
 11 20  1  0
 12 14  1  0
 12 16  2  0
 13 21  1  0
 13 22  1  0
 14 17  1  0
 15 21  2  0
 15 23  1  0
 16 21  1  0
 17 20  1  0
 19 20  2  0
 22 23  1  0
  1 24  1  0
  1 25  1  0
  1 26  1  0
  3 27  1  0
  5 28  1  0
  6 29  1  0
  7 30  1  0
  8 31  1  0
  9 32  1  0
 10 33  1  0
 11 34  1  0
 13 35  1  0
 14 36  1  0
A    1
CAA
A    2
OAB
A    3
OAC
A    4
BRAD
A    5
CAE
A    6
CAF
A    7
CAG
A    8
CAH
A    9
CAI
A   10
CAJ
A   11
CAK
A   12
NAL
A   13
NAM
A   14
NAN
A   15
NAO
A   16
CAP
A   17
CAQ
A   18
CAR
A   19
CAS
A   20
CAT
A   21
CAU
A   22
CAV
A   23
CAW
M  END
