3T19_5MA_A_561
     RDKit          3D

 45 49  0  0  0  0  0  0  0  0999 V2000
   11.3870   12.3610   15.3650 C   0  0  0  0  0  0  0  0  0  0  0  0
    7.3070   12.5430   15.1800 N   0  0  0  0  0  0  0  0  0  0  0  0
   11.1930   11.9960   17.6970 O   0  0  0  0  0  0  0  0  0  0  0  0
   10.8630   12.6530   14.0860 C   0  0  0  0  0  0  0  0  0  0  0  0
   13.0790   12.2250   15.5890 Cl  0  0  0  0  0  0  0  0  0  0  0  0
    9.4630   12.6800   13.8960 C   0  0  0  0  0  0  0  0  0  0  0  0
   10.6900   16.4660   19.9800 Cl  0  0  0  0  0  0  0  0  0  0  0  0
    8.6530   12.5210   15.0010 C   0  0  0  0  0  0  0  0  0  0  0  0
   10.1380   10.3050   19.7970 Cl  0  0  0  0  0  0  0  0  0  0  0  0
    9.1410   12.2940   16.2680 C   0  0  0  0  0  0  0  0  0  0  0  0
   10.5510   12.2230   16.4720 C   0  0  0  0  0  0  0  0  0  0  0  0
   10.9250   14.0770   18.8440 C   0  0  0  0  0  0  0  0  0  0  0  0
   10.7920   12.7110   18.8120 C   0  0  0  0  0  0  0  0  0  0  0  0
   10.2640   12.0120   19.9180 C   0  0  0  0  0  0  0  0  0  0  0  0
    9.8560   12.6620   21.1000 C   0  0  0  0  0  0  0  0  0  0  0  0
    9.9930   14.0700   21.1620 C   0  0  0  0  0  0  0  0  0  0  0  0
   10.5190   14.7490   20.0180 C   0  0  0  0  0  0  0  0  0  0  0  0
    6.9790   12.3500   16.5090 N   0  0  0  0  0  0  0  0  0  0  0  0
    8.1080   12.1730   17.1640 N   0  0  0  0  0  0  0  0  0  0  0  0
    6.2360   12.6060   14.1440 C   0  0  0  0  0  0  0  0  0  0  0  0
    6.2490   11.0760   13.8690 C   0  0  0  0  0  0  0  0  0  0  0  0
    6.6750   10.6380   12.6720 N   0  0  0  0  0  0  0  0  0  0  0  0
    6.6550    9.2840   12.7590 N   0  0  0  0  0  0  0  0  0  0  0  0
    6.2670    8.7940   13.9660 C   0  0  0  0  0  0  0  0  0  0  0  0
    5.9720    9.9290   14.7460 C   0  0  0  0  0  0  0  0  0  0  0  0
    6.1700    7.4620   14.3640 N   0  0  0  0  0  0  0  0  0  0  0  0
    5.7460    7.2680   15.6980 C   0  0  0  0  0  0  0  0  0  0  0  0
    5.3980    8.3070   16.6000 C   0  0  0  0  0  0  0  0  0  0  0  0
    5.5220    9.6450   16.1100 C   0  0  0  0  0  0  0  0  0  0  0  0
    9.2650   11.8870   22.2500 C   0  0  0  0  0  0  0  0  0  0  0  0
   10.1720   11.2490   23.2260 N   0  0  0  0  0  0  0  0  0  0  0  0
   11.5402   12.8580   13.2437 H   0  0  0  0  0  0  0  0  0  0  0  0
    9.0312   12.8238   12.8946 H   0  0  0  0  0  0  0  0  0  0  0  0
   11.3337   14.6291   17.9849 H   0  0  0  0  0  0  0  0  0  0  0  0
    9.7028   14.6266   22.0653 H   0  0  0  0  0  0  0  0  0  0  0  0
    5.2742   12.9657   14.5385 H   0  0  0  0  0  0  0  0  0  0  0  0
    6.3798   13.2863   13.2916 H   0  0  0  0  0  0  0  0  0  0  0  0
    6.9565   11.2082   11.8617 H   0  0  0  0  0  0  0  0  0  0  0  0
    5.6807    6.2331   16.0652 H   0  0  0  0  0  0  0  0  0  0  0  0
    5.0512    8.0945   17.6220 H   0  0  0  0  0  0  0  0  0  0  0  0
    5.2724   10.4838   16.7764 H   0  0  0  0  0  0  0  0  0  0  0  0
    8.6248   12.5828   22.8122 H   0  0  0  0  0  0  0  0  0  0  0  0
    8.7614   11.0381   21.7644 H   0  0  0  0  0  0  0  0  0  0  0  0
    9.8580   11.4699   24.1818 H   0  0  0  0  0  0  0  0  0  0  0  0
   10.1613   10.2283   23.0884 H   0  0  0  0  0  0  0  0  0  0  0  0
  4  1  2  0
  1  5  1  0
  1 11  1  0
 20  2  1  0
  8  2  1  0
  2 18  1  0
 11  3  1  0
  3 13  1  0
  6  4  1  0
  6  8  2  0
 17  7  1  0
  8 10  1  0
  9 14  1  0
 10 11  2  0
 10 19  1  0
 13 12  2  0
 12 17  1  0
 13 14  1  0
 14 15  2  0
 15 16  1  0
 15 30  1  0
 17 16  2  0
 18 19  2  0
 21 20  1  0
 22 21  1  0
 21 25  2  0
 22 23  1  0
 23 24  2  0
 24 26  1  0
 24 25  1  0
 25 29  1  0
 26 27  2  0
 27 28  1  0
 29 28  2  0
 30 31  1  0
  4 32  1  0
  6 33  1  0
 12 34  1  0
 16 35  1  0
 20 36  1  0
 20 37  1  0
 22 38  1  0
 27 39  1  0
 28 40  1  0
 29 41  1  0
 30 42  1  0
 30 43  1  0
 31 44  1  0
 31 45  1  0
A    1
C
A    2
N
A    3
O
A    4
C1
A    5
CL1
A    6
C2
A    7
CL2
A    8
C3
A    9
CL3
A   10
C4
A   11
C5
A   12
C6
A   13
C7
A   14
C8
A   15
C9
A   16
C10
A   17
C11
A   18
N12
A   19
N13
A   20
C14
A   21
C15
A   22
N16
A   23
N17
A   24
C18
A   25
C19
A   26
N20
A   27
C21
A   28
C22
A   29
C23
A   30
C24
A   31
N26
M  END
