3T1D_TD1_A_186
     RDKit          3D

 39 39  0  0  0  0  0  0  0  0999 V2000
   52.4930   40.8760   43.2100 C   0  0  0  0  0  0  0  0  0  0  0  0
   51.1830   40.5860   43.5680 C   0  0  0  0  0  0  0  0  0  0  0  0
   50.6410   41.0010   44.7460 C   0  0  0  0  0  0  0  0  0  0  0  0
   51.4150   41.7330   45.6310 C   0  0  0  0  0  0  0  0  0  0  0  0
   52.7280   42.0430   45.3010 C   0  0  0  0  0  0  0  0  0  0  0  0
   53.2650   41.6150   44.0970 C   0  0  0  0  0  0  0  0  0  0  0  0
   53.1050   40.4290   41.9030 C   0  0  0  0  0  0  0  0  0  0  0  0
   54.3180   40.3470   41.8310 O   0  0  0  0  0  0  0  0  0  0  0  0
   52.3330   40.1380   40.8510 N   0  0  0  0  0  0  0  0  0  0  0  0
   50.3230   39.8840   42.8000 O   0  0  0  0  0  0  0  0  0  0  0  0
   49.3440   40.6310   44.9770 O   0  0  0  0  0  0  0  0  0  0  0  0
   52.8240   39.6880   39.5420 C   0  0  0  0  0  0  0  0  0  0  0  0
   51.8290   40.0540   38.4720 C   0  0  0  0  0  0  0  0  0  0  0  0
   52.9630   38.1540   39.5830 C   0  0  0  0  0  0  0  0  0  0  0  0
   54.1850   37.6990   40.1850 O   0  0  0  0  0  0  0  0  0  0  0  0
   50.8150   40.6700   38.7590 O   0  0  0  0  0  0  0  0  0  0  0  0
   52.0550   39.6690   37.0860 O   0  0  0  0  0  0  0  0  0  0  0  0
   54.1420   36.8680   41.3920 C   0  0  0  0  0  0  0  0  0  0  0  0
   53.8610   37.3740   42.4670 O   0  0  0  0  0  0  0  0  0  0  0  0
   54.4350   35.3950   41.3370 C   0  0  0  0  0  0  0  0  0  0  0  0
   54.8930   34.9710   42.6450 N   0  0  0  0  0  0  0  0  0  0  0  0
   53.1980   34.5710   40.9690 C   0  0  0  0  0  0  0  0  0  0  0  0
   52.4490   35.1720   39.8990 O   0  0  0  0  0  0  0  0  0  0  0  0
   50.9922   42.0670   46.5900 H   0  0  0  0  0  0  0  0  0  0  0  0
   53.3440   42.6304   45.9978 H   0  0  0  0  0  0  0  0  0  0  0  0
   54.3065   41.8616   43.8431 H   0  0  0  0  0  0  0  0  0  0  0  0
   51.3144   40.2371   40.9676 H   0  0  0  0  0  0  0  0  0  0  0  0
   49.6298   39.3181   43.2235 H   0  0  0  0  0  0  0  0  0  0  0  0
   49.0140   40.5369   45.9056 H   0  0  0  0  0  0  0  0  0  0  0  0
   53.7903   40.1646   39.3203 H   0  0  0  0  0  0  0  0  0  0  0  0
   52.1195   37.7445   40.1582 H   0  0  0  0  0  0  0  0  0  0  0  0
   52.9701   37.8048   38.5399 H   0  0  0  0  0  0  0  0  0  0  0  0
   50.5761   40.8151   39.7087 H   0  0  0  0  0  0  0  0  0  0  0  0
   55.1973   35.2292   40.5615 H   0  0  0  0  0  0  0  0  0  0  0  0
   54.3584   35.4660   43.3731 H   0  0  0  0  0  0  0  0  0  0  0  0
   54.7518   33.9557   42.7458 H   0  0  0  0  0  0  0  0  0  0  0  0
   53.5204   33.5668   40.6564 H   0  0  0  0  0  0  0  0  0  0  0  0
   52.5466   34.5224   41.8541 H   0  0  0  0  0  0  0  0  0  0  0  0
   51.7353   35.7447   40.2768 H   0  0  0  0  0  0  0  0  0  0  0  0
  7  1  1  0
  1  2  2  0
  1  6  1  0
 10  2  1  0
  2  3  1  0
  3 11  1  0
  3  4  2  0
  5  4  1  0
  6  5  2  0
  9  7  1  0
  8  7  2  0
 12  9  1  0
 13 12  1  0
 12 14  1  0
 17 13  2  0
 13 16  1  0
 14 15  1  0
 15 18  1  0
 20 18  1  0
 18 19  2  0
 22 20  1  0
 20 21  1  0
 23 22  1  0
  4 24  1  0
  5 25  1  0
  6 26  1  0
  9 27  1  0
 10 28  1  0
 11 29  1  0
 12 30  1  0
 14 31  1  0
 14 32  1  0
 16 33  1  0
 20 34  1  0
 21 35  1  0
 21 36  1  0
 22 37  1  0
 22 38  1  0
 23 39  1  0
A    1
C1
A    2
C2
A    3
C3
A    4
C4
A    5
C5
A    6
C6
A    7
C7
A    8
O8
A    9
N9
A   10
O10
A   11
O11
A   12
C12
A   13
C13
A   14
C14
A   15
O15
A   16
O16
A   17
O17
A   18
C24
A   19
O25
A   20
C26
A   21
N27
A   22
C28
A   23
O45
M  END
