3T3Y_MD6_A_401
     RDKit          3D

 22 22  0  0  0  0  0  0  0  0999 V2000
   -4.5550    2.0150   -1.0340 C   0  0  0  0  0  0  0  0  0  0  0  0
   -3.3510    2.3330    1.0150 N   0  0  0  0  0  0  0  0  0  0  0  0
   -4.3460    3.2900   -1.3020 O   0  0  0  0  0  0  0  0  0  0  0  0
   -4.2540    1.5010    0.3520 C   0  0  0  0  0  0  0  0  0  0  0  0
   -1.5960    2.4280    4.2610 N   0  0  0  0  0  0  0  0  0  0  0  0
   -4.9610    1.2460   -1.8950 O   0  0  0  0  0  0  0  0  0  0  0  0
   -2.9920    2.0360    2.3550 C   0  0  0  0  0  0  0  0  0  0  0  0
   -3.4660    1.0410    2.8880 O   0  0  0  0  0  0  0  0  0  0  0  0
   -2.0390    2.8830    3.0840 C   0  0  0  0  0  0  0  0  0  0  0  0
   -2.1360    4.5090    1.3480 O   0  0  0  0  0  0  0  0  0  0  0  0
   -0.7130    3.1390    4.9650 C   0  0  0  0  0  0  0  0  0  0  0  0
   -0.2720    4.3590    4.4890 C   0  0  0  0  0  0  0  0  0  0  0  0
   -0.7400    4.8560    3.2640 C   0  0  0  0  0  0  0  0  0  0  0  0
   -1.6430    4.0900    2.5440 C   0  0  0  0  0  0  0  0  0  0  0  0
   -2.9500    3.1527    0.5373 H   0  0  0  0  0  0  0  0  0  0  0  0
   -5.1896    1.4556    0.9286 H   0  0  0  0  0  0  0  0  0  0  0  0
   -3.8042    0.5012    0.2620 H   0  0  0  0  0  0  0  0  0  0  0  0
   -5.4069    0.4015   -1.6340 H   0  0  0  0  0  0  0  0  0  0  0  0
   -2.8901    5.1499    1.3206 H   0  0  0  0  0  0  0  0  0  0  0  0
   -0.3363    2.7540    5.9241 H   0  0  0  0  0  0  0  0  0  0  0  0
    0.4514    4.9446    5.0752 H   0  0  0  0  0  0  0  0  0  0  0  0
   -0.3986    5.8302    2.8839 H   0  0  0  0  0  0  0  0  0  0  0  0
  3  1  2  0
  6  1  1  0
  1  4  1  0
  4  2  1  0
  2  7  1  0
  9  5  2  0
  5 11  1  0
  7  8  2  0
  7  9  1  0
 14  9  1  0
 10 14  1  0
 12 11  2  0
 13 12  1  0
 14 13  2  0
  2 15  1  0
  4 16  1  0
  4 17  1  0
  6 18  1  0
 10 19  1  0
 11 20  1  0
 12 21  1  0
 13 22  1  0
A    1
C
A    2
N
A    3
O
A    4
CA
A    5
N2
A    6
OXT
A    7
C3
A    8
O3
A    9
C4
A   10
O4
A   11
C5
A   12
C6
A   13
C7
A   14
C8
M  END
