3T3Q_9PL_A_501
     RDKit          3D

 31 32  0  0  0  0  0  0  0  0999 V2000
  -35.2800   29.3340  -50.2800 N   0  0  0  0  0  0  0  0  0  0  0  0
  -36.2520   29.9530  -50.9510 C   0  0  0  0  0  0  0  0  0  0  0  0
  -36.8690   30.8170  -50.1200 N   0  0  0  0  0  0  0  0  0  0  0  0
  -36.2750   30.7290  -48.9110 C   0  0  0  0  0  0  0  0  0  0  0  0
  -35.2650   29.7860  -49.0210 C   0  0  0  0  0  0  0  0  0  0  0  0
  -34.3680   28.3100  -50.8370 C   0  0  0  0  0  0  0  0  0  0  0  0
  -34.3150   29.3420  -47.9300 C   0  0  0  0  0  0  0  0  0  0  0  0
  -33.6790   30.5430  -47.2290 C   0  0  0  0  0  0  0  0  0  0  0  0
  -33.0400   30.1640  -45.8870 C   0  0  0  0  0  0  0  0  0  0  0  0
  -31.9150   31.0310  -45.7670 O   0  0  0  0  0  0  0  0  0  0  0  0
  -31.7730   31.8540  -46.9530 C   0  0  0  0  0  0  0  0  0  0  0  0
  -32.7140   31.4340  -48.0310 C   0  0  0  0  0  0  0  0  0  0  0  0
  -31.9600   30.7630  -49.1840 C   0  0  0  0  0  0  0  0  0  0  0  0
  -30.8000   29.8800  -48.7630 C   0  0  0  0  0  0  0  0  0  0  0  0
  -30.9880   32.7780  -47.0440 O   0  0  0  0  0  0  0  0  0  0  0  0
  -36.5081   29.7863  -52.0077 H   0  0  0  0  0  0  0  0  0  0  0  0
  -36.5421   31.2984  -48.0085 H   0  0  0  0  0  0  0  0  0  0  0  0
  -33.8825   27.7649  -50.0141 H   0  0  0  0  0  0  0  0  0  0  0  0
  -34.9426   27.6047  -51.4554 H   0  0  0  0  0  0  0  0  0  0  0  0
  -33.6011   28.7994  -51.4554 H   0  0  0  0  0  0  0  0  0  0  0  0
  -34.8709   28.7475  -47.1900 H   0  0  0  0  0  0  0  0  0  0  0  0
  -33.5149   28.7415  -48.3875 H   0  0  0  0  0  0  0  0  0  0  0  0
  -34.5626   31.1814  -47.0816 H   0  0  0  0  0  0  0  0  0  0  0  0
  -33.7467   30.3282  -45.0602 H   0  0  0  0  0  0  0  0  0  0  0  0
  -32.7549   29.1024  -45.8457 H   0  0  0  0  0  0  0  0  0  0  0  0
  -33.2520   32.2316  -48.5643 H   0  0  0  0  0  0  0  0  0  0  0  0
  -32.6751   30.1429  -49.7445 H   0  0  0  0  0  0  0  0  0  0  0  0
  -31.5255   31.5772  -49.7826 H   0  0  0  0  0  0  0  0  0  0  0  0
  -30.7487   29.8409  -47.6649 H   0  0  0  0  0  0  0  0  0  0  0  0
  -30.9492   28.8648  -49.1595 H   0  0  0  0  0  0  0  0  0  0  0  0
  -29.8612   30.2941  -49.1595 H   0  0  0  0  0  0  0  0  0  0  0  0
  5  1  1  0
  1  2  1  0
  1  6  1  0
  3  2  2  0
  4  3  1  0
  4  5  2  0
  7  5  1  0
  8  7  1  0
 12  8  1  0
  9  8  1  0
 10  9  1  0
 11 10  1  0
 15 11  2  0
 11 12  1  0
 13 12  1  0
 14 13  1  0
  2 16  1  0
  4 17  1  0
  6 18  1  0
  6 19  1  0
  6 20  1  0
  7 21  1  0
  7 22  1  0
  8 23  1  0
  9 24  1  0
  9 25  1  0
 12 26  1  0
 13 27  1  0
 13 28  1  0
 14 29  1  0
 14 30  1  0
 14 31  1  0
A    1
N1
A    2
C2
A    3
N3
A    4
C4
A    5
C5
A    6
C6
A    7
C7
A    8
C8
A    9
C9
A   10
O10
A   11
C11
A   12
C12
A   13
C13
A   14
C14
A   15
O15
M  END
