3T42_3T4_A_317
     RDKit          3D

 39 40  0  0  0  0  0  0  0  0999 V2000
   -1.7990    3.4840   12.8740 C   0  0  0  0  0  0  0  0  0  0  0  0
   -8.6400   -3.7130    7.6840 Cl  0  0  0  0  0  0  0  0  0  0  0  0
   -1.1090    4.5980   13.3900 N   0  0  0  0  0  0  0  0  0  0  0  0
   -1.4860    5.7240   13.1020 O   0  0  0  0  0  0  0  0  0  0  0  0
   -0.0990    4.4520   14.0690 O   0  0  0  0  0  0  0  0  0  0  0  0
   -2.8820    3.7170   12.0280 C   0  0  0  0  0  0  0  0  0  0  0  0
   -3.5890    2.6570   11.4760 C   0  0  0  0  0  0  0  0  0  0  0  0
   -4.7650    2.9540   10.5670 C   0  0  0  0  0  0  0  0  0  0  0  0
   -5.3110    1.7760    9.9090 N   0  0  0  0  0  0  0  0  0  0  0  0
   -6.3280    1.1030   10.4020 C   0  0  0  0  0  0  0  0  0  0  0  0
   -6.8700   -0.0880    9.6830 C   0  0  0  0  0  0  0  0  0  0  0  0
   -7.5300   -1.0370   10.4460 C   0  0  0  0  0  0  0  0  0  0  0  0
   -8.0620   -2.1520    9.8270 C   0  0  0  0  0  0  0  0  0  0  0  0
   -7.9380   -2.2930    8.4530 C   0  0  0  0  0  0  0  0  0  0  0  0
   -7.2990   -1.3520    7.6770 C   0  0  0  0  0  0  0  0  0  0  0  0
   -6.7640   -0.2380    8.2990 C   0  0  0  0  0  0  0  0  0  0  0  0
   -6.1330    0.7240    7.5890 O   0  0  0  0  0  0  0  0  0  0  0  0
   -5.7040    0.4190    6.2790 C   0  0  0  0  0  0  0  0  0  0  0  0
   -4.3290   -0.1680    6.4990 C   0  0  0  0  0  0  0  0  0  0  0  0
   -3.7970   -0.6660    5.5230 O   0  0  0  0  0  0  0  0  0  0  0  0
   -3.7780   -0.1240    7.6300 O   0  0  0  0  0  0  0  0  0  0  0  0
   -6.8300    1.4280   11.4740 O   0  0  0  0  0  0  0  0  0  0  0  0
   -3.2040    1.3600   11.7770 C   0  0  0  0  0  0  0  0  0  0  0  0
   -2.1250    1.1170   12.6140 C   0  0  0  0  0  0  0  0  0  0  0  0
   -1.4140    2.1810   13.1530 C   0  0  0  0  0  0  0  0  0  0  0  0
   -0.4260    1.9120   13.9380 C   0  0  0  0  0  0  0  0  0  0  0  0
    0.4640    1.6710   14.6460 N   0  0  0  0  0  0  0  0  0  0  0  0
   -3.1794    4.7502   11.7955 H   0  0  0  0  0  0  0  0  0  0  0  0
   -5.5614    3.4151   11.1696 H   0  0  0  0  0  0  0  0  0  0  0  0
   -4.3966    3.6219    9.7744 H   0  0  0  0  0  0  0  0  0  0  0  0
   -4.8860    1.4582    9.0262 H   0  0  0  0  0  0  0  0  0  0  0  0
   -7.6296   -0.9045   11.5334 H   0  0  0  0  0  0  0  0  0  0  0  0
   -8.5795   -2.9212   10.4191 H   0  0  0  0  0  0  0  0  0  0  0  0
   -7.2158   -1.4829    6.5880 H   0  0  0  0  0  0  0  0  0  0  0  0
   -6.3745   -0.3121    5.8037 H   0  0  0  0  0  0  0  0  0  0  0  0
   -5.7004    1.2922    5.6100 H   0  0  0  0  0  0  0  0  0  0  0  0
   -4.3292   -0.1680    8.4512 H   0  0  0  0  0  0  0  0  0  0  0  0
   -3.7604    0.5139   11.3473 H   0  0  0  0  0  0  0  0  0  0  0  0
   -1.8330    0.0831   12.8504 H   0  0  0  0  0  0  0  0  0  0  0  0
  1  3  1  0
  1  6  2  0
  1 25  1  0
  2 14  1  0
  3  4  1  0
  3  5  2  0
  6  7  1  0
  7  8  1  0
  7 23  2  0
  8  9  1  0
  9 10  1  0
 10 11  1  0
 10 22  2  0
 11 12  2  0
 11 16  1  0
 12 13  1  0
 13 14  2  0
 14 15  1  0
 15 16  2  0
 16 17  1  0
 17 18  1  0
 18 19  1  0
 19 20  2  0
 19 21  1  0
 23 24  1  0
 24 25  2  0
 25 26  1  0
 26 27  3  0
  6 28  1  0
  8 29  1  0
  8 30  1  0
  9 31  1  0
 12 32  1  0
 13 33  1  0
 15 34  1  0
 18 35  1  0
 18 36  1  0
 21 37  1  0
 23 38  1  0
 24 39  1  0
M  CHG  2   3   1   4  -1
A    1
C1
A    2
CL1
A    3
N2
A    4
O3
A    5
O4
A    6
C5
A    7
C6
A    8
C7
A    9
N8
A   10
C9
A   11
C10
A   12
C11
A   13
C12
A   14
C13
A   15
C15
A   16
C16
A   17
O17
A   18
C18
A   19
C19
A   20
O20
A   21
O21
A   22
O22
A   23
C23
A   24
C24
A   25
C25
A   26
C26
A   27
N27
M  END
