1W1R_ZEA_A_1536
     RDKit          3D

 29 30  0  0  0  0  0  0  0  0999 V2000
   68.3400   33.2250   18.9760 O   0  0  0  0  0  0  0  0  0  0  0  0
   67.8240   33.4880   20.2770 C   0  0  0  0  0  0  0  0  0  0  0  0
   68.8650   34.1860   21.1250 C   0  0  0  0  0  0  0  0  0  0  0  0
   68.4220   35.2670   22.0730 C   0  0  0  0  0  0  0  0  0  0  0  0
   70.1570   33.8190   21.0120 C   0  0  0  0  0  0  0  0  0  0  0  0
   71.3020   34.4150   21.8030 C   0  0  0  0  0  0  0  0  0  0  0  0
   72.5490   33.7740   21.4180 N   0  0  0  0  0  0  0  0  0  0  0  0
   73.7840   34.0810   21.8930 C   0  0  0  0  0  0  0  0  0  0  0  0
   74.0710   35.1850   22.8610 C   0  0  0  0  0  0  0  0  0  0  0  0
   73.2960   36.1090   23.5500 N   0  0  0  0  0  0  0  0  0  0  0  0
   75.3580   35.3760   23.2010 C   0  0  0  0  0  0  0  0  0  0  0  0
   75.5190   36.4060   24.1090 N   0  0  0  0  0  0  0  0  0  0  0  0
   74.2170   36.8260   24.2910 C   0  0  0  0  0  0  0  0  0  0  0  0
   76.3620   34.6260   22.6930 N   0  0  0  0  0  0  0  0  0  0  0  0
   76.0940   33.6450   21.8130 C   0  0  0  0  0  0  0  0  0  0  0  0
   74.8380   33.3790   21.4140 N   0  0  0  0  0  0  0  0  0  0  0  0
   69.2193   32.7768   19.0541 H   0  0  0  0  0  0  0  0  0  0  0  0
   66.9354   34.1308   20.1916 H   0  0  0  0  0  0  0  0  0  0  0  0
   67.5554   32.5341   20.7544 H   0  0  0  0  0  0  0  0  0  0  0  0
   68.5618   34.9258   23.1093 H   0  0  0  0  0  0  0  0  0  0  0  0
   69.0212   36.1734   21.9014 H   0  0  0  0  0  0  0  0  0  0  0  0
   67.3591   35.4922   21.9014 H   0  0  0  0  0  0  0  0  0  0  0  0
   70.3980   33.0254   20.2895 H   0  0  0  0  0  0  0  0  0  0  0  0
   71.3664   35.4936   21.5970 H   0  0  0  0  0  0  0  0  0  0  0  0
   71.1258   34.2541   22.8768 H   0  0  0  0  0  0  0  0  0  0  0  0
   72.4905   33.0178   20.7212 H   0  0  0  0  0  0  0  0  0  0  0  0
   76.3839   36.7656   24.5374 H   0  0  0  0  0  0  0  0  0  0  0  0
   73.9386   37.6523   24.9616 H   0  0  0  0  0  0  0  0  0  0  0  0
   76.9232   33.0452   21.4096 H   0  0  0  0  0  0  0  0  0  0  0  0
  1  2  1  0
  2  3  1  0
  3  4  1  0
  3  5  2  0
  5  6  1  0
  6  7  1  0
  7  8  1  0
  8  9  2  0
  8 16  1  0
  9 10  1  0
  9 11  1  0
 10 13  2  0
 11 12  1  0
 11 14  2  0
 12 13  1  0
 14 15  1  0
 15 16  2  0
  1 17  1  0
  2 18  1  0
  2 19  1  0
  4 20  1  0
  4 21  1  0
  4 22  1  0
  5 23  1  0
  6 24  1  0
  6 25  1  0
  7 26  1  0
 12 27  1  0
 13 28  1  0
 15 29  1  0
A    1
O16
A    2
C14
A    3
C13
A    4
C15
A    5
C12
A    6
C11
A    7
N10
A    8
C6
A    9
C5
A   10
N9
A   11
C4
A   12
N7
A   13
C8
A   14
N3
A   15
C2
A   16
N1
M  END
