3T4O_WA2_A_400
     RDKit          3D

 31 32  0  0  0  0  0  0  0  0999 V2000
    3.8390   23.1640   26.1910 N   0  0  0  0  0  0  0  0  0  0  0  0
    3.3660   24.2200   26.9100 C   0  0  0  0  0  0  0  0  0  0  0  0
    4.1670   24.9670   27.6720 N   0  0  0  0  0  0  0  0  0  0  0  0
    5.4790   24.7150   27.7140 C   0  0  0  0  0  0  0  0  0  0  0  0
    6.0260   23.6200   26.9880 C   0  0  0  0  0  0  0  0  0  0  0  0
    5.1560   22.8460   26.2130 C   0  0  0  0  0  0  0  0  0  0  0  0
    5.6190   21.7560   25.4390 N   0  0  0  0  0  0  0  0  0  0  0  0
    7.3950   23.6120   27.2610 N   0  0  0  0  0  0  0  0  0  0  0  0
    7.6630   24.6660   28.1210 C   0  0  0  0  0  0  0  0  0  0  0  0
    6.5210   25.3140   28.3790 N   0  0  0  0  0  0  0  0  0  0  0  0
    4.2470   20.9380   21.5670 C   0  0  0  0  0  0  0  0  0  0  0  0
    6.3360   17.9980   22.0660 O   0  0  0  0  0  0  0  0  0  0  0  0
    6.0190   19.1990   21.4610 C   0  0  0  0  0  0  0  0  0  0  0  0
    4.7440   21.0520   24.5490 C   0  0  0  0  0  0  0  0  0  0  0  0
    5.6310   20.2810   23.6200 C   0  0  0  0  0  0  0  0  0  0  0  0
    4.9960   19.8660   22.3400 C   0  0  0  0  0  0  0  0  0  0  0  0
    2.2944   24.4635   26.8610 H   0  0  0  0  0  0  0  0  0  0  0  0
    6.6034   21.4630   25.5167 H   0  0  0  0  0  0  0  0  0  0  0  0
    8.0836   22.9421   26.8896 H   0  0  0  0  0  0  0  0  0  0  0  0
    8.6523   24.9268   28.5250 H   0  0  0  0  0  0  0  0  0  0  0  0
    3.7640   21.6293   22.2732 H   0  0  0  0  0  0  0  0  0  0  0  0
    4.9536   21.4949   20.9340 H   0  0  0  0  0  0  0  0  0  0  0  0
    3.4811   20.4660   20.9340 H   0  0  0  0  0  0  0  0  0  0  0  0
    6.3074   18.1063   23.0496 H   0  0  0  0  0  0  0  0  0  0  0  0
    6.9161   19.8299   21.3765 H   0  0  0  0  0  0  0  0  0  0  0  0
    5.6268   19.0405   20.4456 H   0  0  0  0  0  0  0  0  0  0  0  0
    4.0950   20.3668   25.1140 H   0  0  0  0  0  0  0  0  0  0  0  0
    4.0887   21.7432   23.9986 H   0  0  0  0  0  0  0  0  0  0  0  0
    6.5016   20.9092   23.3805 H   0  0  0  0  0  0  0  0  0  0  0  0
    5.8929   19.3518   24.1473 H   0  0  0  0  0  0  0  0  0  0  0  0
    4.2026   19.1661   22.6410 H   0  0  0  0  0  0  0  0  0  0  0  0
  1  6  2  0
  1  2  1  0
  2  3  2  0
  3  4  1  0
  5  4  2  0
  4 10  1  0
  6  5  1  0
  5  8  1  0
  7  6  1  0
 14  7  1  0
  8  9  1  0
  9 10  2  0
 11 16  1  0
 13 12  1  0
 13 16  1  0
 15 14  1  0
 16 15  1  0
  2 17  1  0
  7 18  1  0
  8 19  1  0
  9 20  1  0
 11 21  1  0
 11 22  1  0
 11 23  1  0
 12 24  1  0
 13 25  1  0
 13 26  1  0
 14 27  1  0
 14 28  1  0
 15 29  1  0
 15 30  1  0
 16 31  1  0
A    1
N1
A    2
C2
A    3
N3
A    4
C4
A    5
C5
A    6
C6
A    7
N6
A    8
N7
A    9
C8
A   10
N9
A   11
CAA
A   12
OAB
A   13
CAE
A   14
CAF
A   15
CAG
A   16
CAP
M  END
