2C1S_BSO_A_1125
     RDKit          3D

 33 34  0  0  0  0  0  0  0  0999 V2000
   31.0440   11.3960   15.0980 C   0  0  0  0  0  0  0  0  0  0  0  0
   31.0300   12.4400   14.4060 O   0  0  0  0  0  0  0  0  0  0  0  0
   30.3320   10.4010   14.8710 O   0  0  0  0  0  0  0  0  0  0  0  0
   31.9670   11.3090   16.3330 C   0  0  0  0  0  0  0  0  0  0  0  0
   33.2870   12.1120   16.2590 C   0  0  0  0  0  0  0  0  0  0  0  0
   34.2510   11.3950   15.3210 C   0  0  0  0  0  0  0  0  0  0  0  0
   35.4820   12.2860   15.0590 C   0  0  0  0  0  0  0  0  0  0  0  0
   36.4340   11.5600   14.0810 C   0  0  0  0  0  0  0  0  0  0  0  0
   37.2440   10.1030   14.7610 S   0  0  0  0  0  0  0  0  0  0  0  0
   38.4340   10.0060   13.3930 C   0  0  0  0  0  0  0  0  0  0  0  0
   38.7850   11.4720   13.0680 C   0  0  0  0  0  0  0  0  0  0  0  0
   39.9370   11.8770   13.8870 N   0  0  0  0  0  0  0  0  0  0  0  0
   39.5840   12.8460   14.7400 C   0  0  0  0  0  0  0  0  0  0  0  0
   40.4060   13.3610   15.5040 O   0  0  0  0  0  0  0  0  0  0  0  0
   38.3020   13.2210   14.6370 N   0  0  0  0  0  0  0  0  0  0  0  0
   37.6390   12.4190   13.5640 C   0  0  0  0  0  0  0  0  0  0  0  0
   36.2470    8.9910   14.5780 O   0  0  0  0  0  0  0  0  0  0  0  0
   31.0181   13.3262   14.8472 H   0  0  0  0  0  0  0  0  0  0  0  0
   31.4001   11.6750   17.2017 H   0  0  0  0  0  0  0  0  0  0  0  0
   32.2688   10.2534   16.4002 H   0  0  0  0  0  0  0  0  0  0  0  0
   33.0830   13.1229   15.8762 H   0  0  0  0  0  0  0  0  0  0  0  0
   33.7322   12.1893   17.2619 H   0  0  0  0  0  0  0  0  0  0  0  0
   34.5750   10.4504   15.7822 H   0  0  0  0  0  0  0  0  0  0  0  0
   33.7434   11.1861   14.3677 H   0  0  0  0  0  0  0  0  0  0  0  0
   35.1586   13.2403   14.6178 H   0  0  0  0  0  0  0  0  0  0  0  0
   36.0047   12.4833   16.0066 H   0  0  0  0  0  0  0  0  0  0  0  0
   35.7230   11.3143   13.2784 H   0  0  0  0  0  0  0  0  0  0  0  0
   39.3330    9.4518   13.7006 H   0  0  0  0  0  0  0  0  0  0  0  0
   38.0213    9.4760   12.5219 H   0  0  0  0  0  0  0  0  0  0  0  0
   38.9603   11.5429   11.9844 H   0  0  0  0  0  0  0  0  0  0  0  0
   40.8815   11.4725   13.8145 H   0  0  0  0  0  0  0  0  0  0  0  0
   37.8454   13.9472   15.2071 H   0  0  0  0  0  0  0  0  0  0  0  0
   37.2089   13.0711   12.7895 H   0  0  0  0  0  0  0  0  0  0  0  0
  1  2  1  0
  1  3  2  0
  1  4  1  0
  4  5  1  0
  5  6  1  0
  6  7  1  0
  7  8  1  0
  8  9  1  0
  8 16  1  0
  9 10  1  0
  9 17  2  0
 10 11  1  0
 11 12  1  0
 11 16  1  0
 12 13  1  0
 13 14  2  0
 13 15  1  0
 15 16  1  0
  2 18  1  0
  4 19  1  0
  4 20  1  0
  5 21  1  0
  5 22  1  0
  6 23  1  0
  6 24  1  0
  7 25  1  0
  7 26  1  0
  8 27  1  0
 10 28  1  0
 10 29  1  0
 11 30  1  0
 12 31  1  0
 15 32  1  0
 16 33  1  0
A    1
C11
A    2
O11
A    3
O12
A    4
C10
A    5
C9
A    6
C8
A    7
C7
A    8
C2
A    9
S1
A   10
C6
A   11
C5
A   12
N1
A   13
C3
A   14
O3
A   15
N2
A   16
C4
A   17
O10
M  END
