3T6I_NC9_A_2001
     RDKit          3D

 60 62  0  0  0  0  0  0  0  0999 V2000
   -8.0190    0.1470    4.0360 C   0  0  0  0  0  0  0  0  0  0  0  0
   -7.7320    1.3780    4.7110 N   0  0  0  0  0  0  0  0  0  0  0  0
   -3.4790    3.2240    5.3480 O   0  0  0  0  0  0  0  0  0  0  0  0
   -6.3450    1.5190    5.0900 C   0  0  0  0  0  0  0  0  0  0  0  0
   -4.4030    2.2450    7.2490 N   0  0  0  0  0  0  0  0  0  0  0  0
   -8.5740   -3.4560    5.9320 O   0  0  0  0  0  0  0  0  0  0  0  0
   -5.9040    0.5750    6.1810 C   0  0  0  0  0  0  0  0  0  0  0  0
   -0.4950    2.2530   12.4560 N   0  0  0  0  0  0  0  0  0  0  0  0
   -4.4440    0.9150    6.6040 C   0  0  0  0  0  0  0  0  0  0  0  0
   -8.2620    7.7770    5.3170 N   0  0  0  0  0  0  0  0  0  0  0  0
   -4.8720    2.3870    8.5920 C   0  0  0  0  0  0  0  0  0  0  0  0
   -3.7080    2.3640    9.6380 C   0  0  0  0  0  0  0  0  0  0  0  0
   -3.8720    3.3760    6.4880 C   0  0  0  0  0  0  0  0  0  0  0  0
   -4.9990    5.5670    6.6540 C   0  0  0  0  0  0  0  0  0  0  0  0
   -5.9590   -0.8700    5.7990 C   0  0  0  0  0  0  0  0  0  0  0  0
   -7.3210   -1.4560    5.8980 C   0  0  0  0  0  0  0  0  0  0  0  0
   -7.5060   -2.7530    6.5710 C   0  0  0  0  0  0  0  0  0  0  0  0
   -8.3730   -0.9430    4.9740 C   0  0  0  0  0  0  0  0  0  0  0  0
   -3.7700    3.1540   10.7420 C   0  0  0  0  0  0  0  0  0  0  0  0
   -2.7110    3.1230   11.6850 C   0  0  0  0  0  0  0  0  0  0  0  0
   -1.6080    2.2810   11.4800 C   0  0  0  0  0  0  0  0  0  0  0  0
   -1.5460    1.4810   10.3580 C   0  0  0  0  0  0  0  0  0  0  0  0
   -2.5890    1.5100    9.4310 C   0  0  0  0  0  0  0  0  0  0  0  0
   -6.2440    5.3990    7.2570 C   0  0  0  0  0  0  0  0  0  0  0  0
   -7.3070    6.1170    6.8250 C   0  0  0  0  0  0  0  0  0  0  0  0
   -7.1530    7.0250    5.7680 C   0  0  0  0  0  0  0  0  0  0  0  0
   -5.9150    7.1930    5.1670 C   0  0  0  0  0  0  0  0  0  0  0  0
   -4.8460    6.4670    5.5990 C   0  0  0  0  0  0  0  0  0  0  0  0
   -3.8070    4.7660    7.1310 C   0  0  0  0  0  0  0  0  0  0  0  0
   -8.8625    0.3094    3.3489 H   0  0  0  0  0  0  0  0  0  0  0  0
   -7.1110   -0.1581    3.4952 H   0  0  0  0  0  0  0  0  0  0  0  0
   -7.9797    2.1580    4.0856 H   0  0  0  0  0  0  0  0  0  0  0  0
   -8.2850    1.3825    5.5800 H   0  0  0  0  0  0  0  0  0  0  0  0
   -5.7238    1.3337    4.2013 H   0  0  0  0  0  0  0  0  0  0  0  0
   -6.2273    2.5382    5.4866 H   0  0  0  0  0  0  0  0  0  0  0  0
   -9.1691   -3.8477    6.6194 H   0  0  0  0  0  0  0  0  0  0  0  0
   -6.6153    0.7178    7.0078 H   0  0  0  0  0  0  0  0  0  0  0  0
   -0.6957    2.2580   13.4662 H   0  0  0  0  0  0  0  0  0  0  0  0
    0.4800    2.2285   12.1247 H   0  0  0  0  0  0  0  0  0  0  0  0
   -4.0833    0.1549    7.3126 H   0  0  0  0  0  0  0  0  0  0  0  0
   -3.8018    0.9259    5.7110 H   0  0  0  0  0  0  0  0  0  0  0  0
   -8.9015    8.2106    5.9981 H   0  0  0  0  0  0  0  0  0  0  0  0
   -8.4305    7.8912    4.3073 H   0  0  0  0  0  0  0  0  0  0  0  0
   -5.4065    3.3444    8.6798 H   0  0  0  0  0  0  0  0  0  0  0  0
   -5.5326    1.5343    8.8077 H   0  0  0  0  0  0  0  0  0  0  0  0
   -5.2883   -1.4324    6.4653 H   0  0  0  0  0  0  0  0  0  0  0  0
   -5.6521   -0.9388    4.7449 H   0  0  0  0  0  0  0  0  0  0  0  0
   -6.5800   -3.3424    6.4985 H   0  0  0  0  0  0  0  0  0  0  0  0
   -7.7469   -2.5921    7.6322 H   0  0  0  0  0  0  0  0  0  0  0  0
   -9.3889   -1.3646    4.9888 H   0  0  0  0  0  0  0  0  0  0  0  0
   -4.6358    3.8131   10.9032 H   0  0  0  0  0  0  0  0  0  0  0  0
   -2.7548    3.7612   12.5799 H   0  0  0  0  0  0  0  0  0  0  0  0
   -0.6792    0.8237   10.1947 H   0  0  0  0  0  0  0  0  0  0  0  0
   -2.5457    0.8703    8.5372 H   0  0  0  0  0  0  0  0  0  0  0  0
   -6.3629    4.6832    8.0837 H   0  0  0  0  0  0  0  0  0  0  0  0
   -8.2897    5.9883    7.3023 H   0  0  0  0  0  0  0  0  0  0  0  0
   -5.7959    7.9114    4.3425 H   0  0  0  0  0  0  0  0  0  0  0  0
   -3.8648    6.5902    5.1172 H   0  0  0  0  0  0  0  0  0  0  0  0
   -3.8373    4.6708    8.2264 H   0  0  0  0  0  0  0  0  0  0  0  0
   -2.8725    5.2716    6.8464 H   0  0  0  0  0  0  0  0  0  0  0  0
  1  2  1  0
  1 18  1  0
  2  4  1  0
 18 16  2  0
  4  7  1  0
 27 28  2  0
 27 26  1  0
 10 26  1  0
  3 13  2  0
 28 14  1  0
 26 25  2  0
 15 16  1  0
 15  7  1  0
 16 17  1  0
  6 17  1  0
  7  9  1  0
 13 29  1  0
 13  5  1  0
  9  5  1  0
 14 29  1  0
 14 24  2  0
 25 24  1  0
  5 11  1  0
 11 12  1  0
 23 12  1  0
 23 22  2  0
 12 19  2  0
 22 21  1  0
 19 20  1  0
 21 20  2  0
 21  8  1  0
  1 30  1  0
  1 31  1  0
  2 32  1  0
  2 33  1  0
  4 34  1  0
  4 35  1  0
  6 36  1  0
  7 37  1  0
  8 38  1  0
  8 39  1  0
  9 40  1  0
  9 41  1  0
 10 42  1  0
 10 43  1  0
 11 44  1  0
 11 45  1  0
 15 46  1  0
 15 47  1  0
 17 48  1  0
 17 49  1  0
 18 50  1  0
 19 51  1  0
 20 52  1  0
 22 53  1  0
 23 54  1  0
 24 55  1  0
 25 56  1  0
 27 57  1  0
 28 58  1  0
 29 59  1  0
 29 60  1  0
M  CHG  1   2   1
A    1
C1
A    2
N1
A    3
O1
A    4
C2
A    5
N2
A    6
O2
A    7
C3
A    8
N3
A    9
C4
A   10
N4
A   11
C5
A   12
C6
A   13
C7
A   14
C8
A   15
C9
A   16
C10
A   17
C11
A   18
C14
A   19
C20
A   20
C21
A   21
C22
A   22
C23
A   23
C24
A   24
C25
A   25
C26
A   26
C27
A   27
C28
A   28
C29
A   29
C30
M  END
