3T78_5RG_A_273
     RDKit          3D

 17 17  0  0  0  0  0  0  0  0999 V2000
  -16.8130    3.0770   -9.5180 N   0  0  0  0  0  0  0  0  0  0  0  0
  -19.3690    3.2150  -10.3220 O   0  0  0  0  0  0  0  0  0  0  0  0
  -20.1930    2.1450  -12.1980 O   0  0  0  0  0  0  0  0  0  0  0  0
  -16.3680   -1.1300  -13.7890 F   0  0  0  0  0  0  0  0  0  0  0  0
  -15.4380    1.1090  -10.6000 C   0  0  0  0  0  0  0  0  0  0  0  0
  -15.3250   -0.0080  -11.7370 C   0  0  0  0  0  0  0  0  0  0  0  0
  -17.7480    0.7820  -12.7700 C   0  0  0  0  0  0  0  0  0  0  0  0
  -19.0960    2.8100  -11.6360 C   0  0  0  0  0  0  0  0  0  0  0  0
  -16.7010    2.0520  -10.5510 C   0  0  0  0  0  0  0  0  0  0  0  0
  -16.4690   -0.1700  -12.8130 C   0  0  0  0  0  0  0  0  0  0  0  0
  -17.8580    1.8760  -11.6460 C   0  0  0  0  0  0  0  0  0  0  0  0
  -16.7839    2.8111   -8.5233 H   0  0  0  0  0  0  0  0  0  0  0  0
  -16.9211    4.0663   -9.7837 H   0  0  0  0  0  0  0  0  0  0  0  0
  -19.0162    2.6916   -9.5593 H   0  0  0  0  0  0  0  0  0  0  0  0
  -14.6374    1.2198   -9.8539 H   0  0  0  0  0  0  0  0  0  0  0  0
  -14.4454   -0.6677  -11.7702 H   0  0  0  0  0  0  0  0  0  0  0  0
  -18.5457    0.6742  -13.5197 H   0  0  0  0  0  0  0  0  0  0  0  0
  1  9  1  0
  2  8  1  0
  3  8  2  0
  4 10  1  0
  5  6  2  0
  5  9  1  0
  6 10  1  0
  7 10  2  0
  7 11  1  0
  8 11  1  0
  9 11  2  0
  1 12  1  0
  1 13  1  0
  2 14  1  0
  5 15  1  0
  6 16  1  0
  7 17  1  0
A    1
NAA
A    2
OAB
A    3
OAC
A    4
FAD
A    5
CAE
A    6
CAF
A    7
CAG
A    8
CAH
A    9
CAI
A   10
CAJ
A   11
CAK
M  END
