2GXP_7SP_?_25
     RDKit          3D

 41 38  0  0  0  0  0  0  0  0999 V2000
   13.9440   27.9540   31.1770 C   0  0  0  0  0  0  0  0  0  0  0  0
   14.6870   28.8800   30.4600 C   0  0  0  0  0  0  0  0  0  0  0  0
   14.5530   30.2270   30.6550 C   0  0  0  0  0  0  0  0  0  0  0  0
   13.6450   30.7120   31.4590 C   0  0  0  0  0  0  0  0  0  0  0  0
   12.8950   29.8620   32.2550 C   0  0  0  0  0  0  0  0  0  0  0  0
   13.0140   28.4550   32.1460 C   0  0  0  0  0  0  0  0  0  0  0  0
   12.3150   27.5810   33.0240 C   0  0  0  0  0  0  0  0  0  0  0  0
   10.8800   26.7500   34.1730 C   0  0  0  0  0  0  0  0  0  0  0  0
    9.6990   26.5170   34.9800 C   0  0  0  0  0  0  0  0  0  0  0  0
    9.5010   25.2100   35.4290 C   0  0  0  0  0  0  0  0  0  0  0  0
   10.3820   24.2010   35.1570 C   0  0  0  0  0  0  0  0  0  0  0  0
   10.1360   22.8400   35.6480 C   0  0  0  0  0  0  0  0  0  0  0  0
   10.7750   20.5990   35.6190 C   0  0  0  0  0  0  0  0  0  0  0  0
    9.6400   20.2710   36.2350 C   0  0  0  0  0  0  0  0  0  0  0  0
    8.6190   21.3190   36.5230 C   0  0  0  0  0  0  0  0  0  0  0  0
   13.8656   26.8582   31.2323 H   0  0  0  0  0  0  0  0  0  0  0  0
   15.4070   28.5195   29.7106 H   0  0  0  0  0  0  0  0  0  0  0  0
   15.1601   30.9310   30.0669 H   0  0  0  0  0  0  0  0  0  0  0  0
   13.8381   30.6065   31.4000 H   0  0  0  0  0  0  0  0  0  0  0  0
   14.5577   31.2241   31.7976 H   0  0  0  0  0  0  0  0  0  0  0  0
   13.6242   31.4572   30.6502 H   0  0  0  0  0  0  0  0  0  0  0  0
   12.1406   29.9951   33.0444 H   0  0  0  0  0  0  0  0  0  0  0  0
   12.5822   28.1100   31.1949 H   0  0  0  0  0  0  0  0  0  0  0  0
   13.8541   28.4603   32.8560 H   0  0  0  0  0  0  0  0  0  0  0  0
   12.5346   27.8556   34.0663 H   0  0  0  0  0  0  0  0  0  0  0  0
   11.2335   27.6667   32.8423 H   0  0  0  0  0  0  0  0  0  0  0  0
   12.6363   26.5448   32.8423 H   0  0  0  0  0  0  0  0  0  0  0  0
   11.0931   27.7583   33.7883 H   0  0  0  0  0  0  0  0  0  0  0  0
   11.5633   25.9186   33.9452 H   0  0  0  0  0  0  0  0  0  0  0  0
    8.9961   27.3267   35.2256 H   0  0  0  0  0  0  0  0  0  0  0  0
    8.6034   24.9840   36.0233 H   0  0  0  0  0  0  0  0  0  0  0  0
   11.2844   24.4112   34.5642 H   0  0  0  0  0  0  0  0  0  0  0  0
   10.1363   22.8414   36.7480 H   0  0  0  0  0  0  0  0  0  0  0  0
    9.1599   22.4890   35.2820 H   0  0  0  0  0  0  0  0  0  0  0  0
   10.9275   22.1695   35.2820 H   0  0  0  0  0  0  0  0  0  0  0  0
   11.5285   19.8263   35.4063 H   0  0  0  0  0  0  0  0  0  0  0  0
   10.9585   21.6424   35.3231 H   0  0  0  0  0  0  0  0  0  0  0  0
    9.4562   19.2276   36.5310 H   0  0  0  0  0  0  0  0  0  0  0  0
    8.5077   21.4332   37.6114 H   0  0  0  0  0  0  0  0  0  0  0  0
    8.9414   22.2752   36.0850 H   0  0  0  0  0  0  0  0  0  0  0  0
    7.6547   21.0217   36.0850 H   0  0  0  0  0  0  0  0  0  0  0  0
  5  1  2  0
  1  2  1  0
  3  2  2  0
  6  4  1  0
  4  5  1  0
  6  7  1  0
  9  8  2  0
  9 10  1  0
 10 11  2  0
 11 12  1  0
 13 14  2  3
 14 15  1  0
  1 16  1  0
  2 17  1  0
  3 18  1  0
  3 19  1  0
  4 20  1  0
  4 21  1  0
  5 22  1  0
  6 23  1  0
  6 24  1  0
  7 25  1  0
  7 26  1  0
  7 27  1  0
  8 28  1  0
  8 29  1  0
  9 30  1  0
 10 31  1  0
 11 32  1  0
 12 33  1  0
 12 34  1  0
 12 35  1  0
 13 36  1  0
 13 37  1  0
 14 38  1  0
 15 39  1  0
 15 40  1  0
 15 41  1  0
A    1
C1
A    2
C2
A    3
C3
A    4
C5
A    5
C6
A    6
C7
A    7
C8
A    8
C13
A    9
C14
A   10
C15
A   11
C16
A   12
C17
A   13
C19
A   14
C20
A   15
C21
M  END
