3T83_SG5_A_300
     RDKit          3D

 53 53  0  0  0  0  0  0  0  0999 V2000
   17.2500    0.1640   12.0210 C   0  0  0  0  0  0  0  0  0  0  0  0
   16.9470    0.2990   13.3080 O   0  0  0  0  0  0  0  0  0  0  0  0
   16.5780    1.1660   11.2220 C   0  0  0  0  0  0  0  0  0  0  0  0
   17.0280    2.6100   11.5970 C   0  0  0  0  0  0  0  0  0  0  0  0
   17.2010    2.7990   13.2620 C   0  0  0  0  0  0  0  0  0  0  0  0
   17.6150    1.3570   13.9260 C   0  0  0  0  0  0  0  0  0  0  0  0
   18.5050   -0.2200   11.6140 O   0  0  0  0  0  0  0  0  0  0  0  0
   16.6380    0.9710    9.8500 O   0  0  0  0  0  0  0  0  0  0  0  0
   15.6410    1.1640    9.0760 C   0  0  0  0  0  0  0  0  0  0  0  0
   14.6960    1.9050    9.4540 O   0  0  0  0  0  0  0  0  0  0  0  0
   15.8760    0.9360    7.6080 C   0  0  0  0  0  0  0  0  0  0  0  0
   15.9440    2.1330    6.7210 C   0  0  0  0  0  0  0  0  0  0  0  0
   16.3310    3.6600   10.9970 O   0  0  0  0  0  0  0  0  0  0  0  0
   16.8990    4.5000   10.2080 C   0  0  0  0  0  0  0  0  0  0  0  0
   18.0100    4.2240    9.7000 O   0  0  0  0  0  0  0  0  0  0  0  0
   16.0330    5.5950    9.6370 C   0  0  0  0  0  0  0  0  0  0  0  0
   16.4810    6.2490    8.3450 C   0  0  0  0  0  0  0  0  0  0  0  0
   17.9540    3.9120   13.6600 O   0  0  0  0  0  0  0  0  0  0  0  0
   17.3890    5.0340   13.9370 C   0  0  0  0  0  0  0  0  0  0  0  0
   16.1500    5.1520   13.8350 O   0  0  0  0  0  0  0  0  0  0  0  0
   18.2450    6.2150   14.3090 C   0  0  0  0  0  0  0  0  0  0  0  0
   19.3530    6.5700   13.3590 C   0  0  0  0  0  0  0  0  0  0  0  0
   17.4650    1.4870   15.4260 C   0  0  0  0  0  0  0  0  0  0  0  0
   16.1520    1.8700   15.7610 O   0  0  0  0  0  0  0  0  0  0  0  0
   15.5310    1.1290   16.8980 S   0  0  0  0  0  0  0  0  0  0  0  0
   14.1040    1.4670   16.9110 O   0  0  0  0  0  0  0  0  0  0  0  0
   16.2480    1.5170   18.1050 O   0  0  0  0  0  0  0  0  0  0  0  0
   15.8200   -0.3960   16.7090 N   0  0  0  0  0  0  0  0  0  0  0  0
   16.8256   -0.8243   11.7905 H   0  0  0  0  0  0  0  0  0  0  0  0
   15.5169    1.0412   11.4836 H   0  0  0  0  0  0  0  0  0  0  0  0
   18.0226    2.7003   11.1358 H   0  0  0  0  0  0  0  0  0  0  0  0
   16.2259    3.0786   13.6874 H   0  0  0  0  0  0  0  0  0  0  0  0
   18.6676    1.0949   13.7437 H   0  0  0  0  0  0  0  0  0  0  0  0
   19.0708   -0.3931   12.4078 H   0  0  0  0  0  0  0  0  0  0  0  0
   16.8307    0.3988    7.5080 H   0  0  0  0  0  0  0  0  0  0  0  0
   14.9854    0.3881    7.2665 H   0  0  0  0  0  0  0  0  0  0  0  0
   15.9957    3.0431    7.3367 H   0  0  0  0  0  0  0  0  0  0  0  0
   16.8399    2.0684    6.0861 H   0  0  0  0  0  0  0  0  0  0  0  0
   15.0465    2.1703    6.0861 H   0  0  0  0  0  0  0  0  0  0  0  0
   15.0361    5.1656    9.4589 H   0  0  0  0  0  0  0  0  0  0  0  0
   16.0761    6.4006   10.3848 H   0  0  0  0  0  0  0  0  0  0  0  0
   17.0889    7.1365    8.5748 H   0  0  0  0  0  0  0  0  0  0  0  0
   17.0806    5.5350    7.7613 H   0  0  0  0  0  0  0  0  0  0  0  0
   15.5986    6.5501    7.7613 H   0  0  0  0  0  0  0  0  0  0  0  0
   17.5854    7.0912   14.3944 H   0  0  0  0  0  0  0  0  0  0  0  0
   18.7470    5.9255   15.2440 H   0  0  0  0  0  0  0  0  0  0  0  0
   20.2481    6.8568   13.9304 H   0  0  0  0  0  0  0  0  0  0  0  0
   19.5852    5.7013   12.7254 H   0  0  0  0  0  0  0  0  0  0  0  0
   19.0371    7.4119   12.7254 H   0  0  0  0  0  0  0  0  0  0  0  0
   17.6907    0.5190   15.8972 H   0  0  0  0  0  0  0  0  0  0  0  0
   18.1623    2.2574   15.7869 H   0  0  0  0  0  0  0  0  0  0  0  0
   15.9053   -0.8462   17.6315 H   0  0  0  0  0  0  0  0  0  0  0  0
   15.0462   -0.8298   16.1855 H   0  0  0  0  0  0  0  0  0  0  0  0
  1  2  1  0
  1  3  1  0
  1  7  1  0
  2  6  1  0
  3  4  1  0
  3  8  1  0
  4  5  1  0
  4 13  1  0
  5  6  1  0
  5 18  1  0
  6 23  1  0
  8  9  1  0
  9 10  2  0
  9 11  1  0
 11 12  1  0
 13 14  1  0
 14 15  2  0
 14 16  1  0
 16 17  1  0
 18 19  1  0
 19 20  2  0
 19 21  1  0
 21 22  1  0
 23 24  1  0
 24 25  1  0
 25 26  2  0
 25 27  2  0
 25 28  1  0
  1 29  1  0
  3 30  1  0
  4 31  1  0
  5 32  1  0
  6 33  1  0
  7 34  1  0
 11 35  1  0
 11 36  1  0
 12 37  1  0
 12 38  1  0
 12 39  1  0
 16 40  1  0
 16 41  1  0
 17 42  1  0
 17 43  1  0
 17 44  1  0
 21 45  1  0
 21 46  1  0
 22 47  1  0
 22 48  1  0
 22 49  1  0
 23 50  1  0
 23 51  1  0
 28 52  1  0
 28 53  1  0
A    1
C1
A    2
O5
A    3
C2
A    4
C3
A    5
C4
A    6
C5
A    7
O1A
A    8
O2A
A    9
C2B
A   10
O2C
A   11
C2D
A   12
C2E
A   13
O3A
A   14
C3B
A   15
O3C
A   16
C3D
A   17
C3E
A   18
O4A
A   19
C4B
A   20
O4C
A   21
C4D
A   22
C4E
A   23
C5A
A   24
O5B
A   25
S5C
A   26
O5D
A   27
O5E
A   28
N5F
M  END
