3T8M_3T8_A_1
     RDKit          3D

 67 71  0  0  0  0  0  0  0  0999 V2000
   13.1760   62.6100   23.1590 C   0  0  0  0  0  0  0  0  0  0  0  0
   14.6110   62.3060   23.0680 N   0  0  0  0  0  0  0  0  0  0  0  0
   15.5580   63.0380   22.4090 C   0  0  0  0  0  0  0  0  0  0  0  0
   15.3070   64.0690   21.7980 O   0  0  0  0  0  0  0  0  0  0  0  0
   16.9690   62.5530   22.4320 C   0  0  0  0  0  0  0  0  0  0  0  0
   17.9700   63.2590   21.7460 C   0  0  0  0  0  0  0  0  0  0  0  0
   19.2770   62.7980   21.7610 C   0  0  0  0  0  0  0  0  0  0  0  0
   19.6490   61.6460   22.4670 C   0  0  0  0  0  0  0  0  0  0  0  0
   18.6430   60.9270   23.1550 C   0  0  0  0  0  0  0  0  0  0  0  0
   17.3350   61.3880   23.1270 C   0  0  0  0  0  0  0  0  0  0  0  0
   18.9810   59.8030   23.8290 O   0  0  0  0  0  0  0  0  0  0  0  0
   19.9900   59.8790   24.8130 C   0  0  0  0  0  0  0  0  0  0  0  0
   21.3500   59.4490   24.2690 C   0  0  0  0  0  0  0  0  0  0  0  0
   21.8700   60.3310   23.1510 C   0  0  0  0  0  0  0  0  0  0  0  0
   21.0980   61.2430   22.4160 C   0  0  0  0  0  0  0  0  0  0  0  0
   22.1520   62.0100   21.2610 S   0  0  0  0  0  0  0  0  0  0  0  0
   23.6040   61.1500   21.7290 C   0  0  0  0  0  0  0  0  0  0  0  0
   23.2080   60.3060   22.7490 C   0  0  0  0  0  0  0  0  0  0  0  0
   24.9670   61.2800   21.1350 C   0  0  0  0  0  0  0  0  0  0  0  0
   25.8170   60.5190   21.5400 O   0  0  0  0  0  0  0  0  0  0  0  0
   25.3570   62.1690   20.1490 N   0  0  0  0  0  0  0  0  0  0  0  0
   26.7200   62.1280   19.6690 C   0  0  0  0  0  0  0  0  0  0  0  0
   24.5210   63.1150   19.5100 C   0  0  0  0  0  0  0  0  0  0  0  0
   24.4320   64.4630   19.8770 C   0  0  0  0  0  0  0  0  0  0  0  0
   23.5620   65.3120   19.1930 C   0  0  0  0  0  0  0  0  0  0  0  0
   22.7430   64.8620   18.1260 C   0  0  0  0  0  0  0  0  0  0  0  0
   22.8470   63.5160   17.7660 C   0  0  0  0  0  0  0  0  0  0  0  0
   23.7280   62.6870   18.4410 C   0  0  0  0  0  0  0  0  0  0  0  0
   23.7950   61.0290   17.9670 Cl  0  0  0  0  0  0  0  0  0  0  0  0
   21.8070   65.7890   17.4090 C   0  0  0  0  0  0  0  0  0  0  0  0
   22.0660   66.1760   16.2910 O   0  0  0  0  0  0  0  0  0  0  0  0
   20.6560   66.2390   17.9830 N   0  0  0  0  0  0  0  0  0  0  0  0
   19.7400   67.1620   17.2810 C   0  0  0  0  0  0  0  0  0  0  0  0
   19.4450   68.3540   18.2060 C   0  0  0  0  0  0  0  0  0  0  0  0
   18.8180   67.8460   19.4270 N   0  0  0  0  0  0  0  0  0  0  0  0
   19.7980   67.0270   20.1590 C   0  0  0  0  0  0  0  0  0  0  0  0
   20.2370   65.8180   19.3260 C   0  0  0  0  0  0  0  0  0  0  0  0
   18.3570   68.9560   20.2740 C   0  0  0  0  0  0  0  0  0  0  0  0
   12.8808   62.6725   24.2168 H   0  0  0  0  0  0  0  0  0  0  0  0
   12.9727   63.5711   22.6642 H   0  0  0  0  0  0  0  0  0  0  0  0
   12.6004   61.8139   22.6642 H   0  0  0  0  0  0  0  0  0  0  0  0
   14.9356   61.4553   23.5496 H   0  0  0  0  0  0  0  0  0  0  0  0
   17.7170   64.1779   21.1967 H   0  0  0  0  0  0  0  0  0  0  0  0
   20.0451   63.3528   21.2022 H   0  0  0  0  0  0  0  0  0  0  0  0
   16.5597   60.8236   23.6660 H   0  0  0  0  0  0  0  0  0  0  0  0
   20.0617   60.9172   25.1692 H   0  0  0  0  0  0  0  0  0  0  0  0
   19.7193   59.1963   25.6319 H   0  0  0  0  0  0  0  0  0  0  0  0
   22.0764   59.4717   25.0947 H   0  0  0  0  0  0  0  0  0  0  0  0
   21.2217   58.4410   23.8477 H   0  0  0  0  0  0  0  0  0  0  0  0
   23.9289   59.6306   23.2329 H   0  0  0  0  0  0  0  0  0  0  0  0
   27.4099   62.1072   20.5255 H   0  0  0  0  0  0  0  0  0  0  0  0
   26.8666   61.2250   19.0581 H   0  0  0  0  0  0  0  0  0  0  0  0
   26.9206   63.0205   19.0581 H   0  0  0  0  0  0  0  0  0  0  0  0
   25.0465   64.8516   20.7025 H   0  0  0  0  0  0  0  0  0  0  0  0
   23.5091   66.3693   19.4920 H   0  0  0  0  0  0  0  0  0  0  0  0
   22.2304   63.1153   16.9480 H   0  0  0  0  0  0  0  0  0  0  0  0
   20.2122   67.5196   16.3541 H   0  0  0  0  0  0  0  0  0  0  0  0
   18.8045   66.6427   17.0256 H   0  0  0  0  0  0  0  0  0  0  0  0
   20.3831   68.8706   18.4572 H   0  0  0  0  0  0  0  0  0  0  0  0
   18.7732   69.0656   17.7036 H   0  0  0  0  0  0  0  0  0  0  0  0
   20.6794   67.6429   20.3909 H   0  0  0  0  0  0  0  0  0  0  0  0
   19.3277   66.6622   21.0841 H   0  0  0  0  0  0  0  0  0  0  0  0
   19.3955   65.1150   19.2382 H   0  0  0  0  0  0  0  0  0  0  0  0
   21.0880   65.3331   19.8267 H   0  0  0  0  0  0  0  0  0  0  0  0
   18.4712   68.6811   21.3330 H   0  0  0  0  0  0  0  0  0  0  0  0
   18.9569   69.8531   20.0613 H   0  0  0  0  0  0  0  0  0  0  0  0
   17.2980   69.1642   20.0613 H   0  0  0  0  0  0  0  0  0  0  0  0
  1  2  1  0
  2  3  1  0
  3  4  2  0
  3  5  1  0
  5  6  2  0
  5 10  1  0
  6  7  1  0
  7  8  2  0
  8  9  1  0
  8 15  1  0
  9 10  2  0
  9 11  1  0
 11 12  1  0
 12 13  1  0
 13 14  1  0
 14 15  2  0
 14 18  1  0
 15 16  1  0
 16 17  1  0
 17 18  2  0
 17 19  1  0
 19 20  2  0
 19 21  1  0
 21 22  1  0
 21 23  1  0
 23 24  2  0
 23 28  1  0
 24 25  1  0
 25 26  2  0
 26 27  1  0
 26 30  1  0
 27 28  2  0
 28 29  1  0
 30 31  2  0
 30 32  1  0
 32 33  1  0
 32 37  1  0
 33 34  1  0
 34 35  1  0
 35 36  1  0
 35 38  1  0
 36 37  1  0
  1 39  1  0
  1 40  1  0
  1 41  1  0
  2 42  1  0
  6 43  1  0
  7 44  1  0
 10 45  1  0
 12 46  1  0
 12 47  1  0
 13 48  1  0
 13 49  1  0
 18 50  1  0
 22 51  1  0
 22 52  1  0
 22 53  1  0
 24 54  1  0
 25 55  1  0
 27 56  1  0
 33 57  1  0
 33 58  1  0
 34 59  1  0
 34 60  1  0
 36 61  1  0
 36 62  1  0
 37 63  1  0
 37 64  1  0
 38 65  1  0
 38 66  1  0
 38 67  1  0
A    1
C1
A    2
N2
A    3
C3
A    4
O4
A    5
C5
A    6
C6
A    7
C7
A    8
C8
A    9
C9
A   10
C10
A   11
O11
A   12
C12
A   13
C13
A   14
C14
A   15
C15
A   16
S16
A   17
C17
A   18
C18
A   19
C19
A   20
O20
A   21
N21
A   22
C22
A   23
C23
A   24
C24
A   25
C25
A   26
C26
A   27
C27
A   28
C28
A   29
CL29
A   30
C30
A   31
O31
A   32
N32
A   33
C33
A   34
C34
A   35
N35
A   36
C36
A   37
C37
A   38
C38
M  END
