3T8X_ULI_A_305
     RDKit          3D

122121  0  0  0  0  0  0  0  0999 V2000
   47.2760  -45.3770   22.8150 C   0  0  0  0  0  0  0  0  0  0  0  0
   47.9770  -45.9290   21.5290 C   0  0  0  0  0  0  0  0  0  0  0  0
   47.1000  -46.2630   20.3060 C   0  0  0  0  0  0  0  0  0  0  0  0
   45.5720  -46.1700   20.6320 C   0  0  0  0  0  0  0  0  0  0  0  0
   45.1690  -44.6950   20.7590 C   0  0  0  0  0  0  0  0  0  0  0  0
   43.6880  -44.4330   20.9730 C   0  0  0  0  0  0  0  0  0  0  0  0
   43.6450  -43.0070   21.5570 C   0  0  0  0  0  0  0  0  0  0  0  0
   42.5700  -42.1900   20.9420 C   0  0  0  0  0  0  0  0  0  0  0  0
   42.1410  -41.1180   21.9080 C   0  0  0  0  0  0  0  0  0  0  0  0
   41.2080  -41.7700   22.9030 C   0  0  0  0  0  0  0  0  0  0  0  0
   40.4170  -40.6780   23.4940 C   0  0  0  0  0  0  0  0  0  0  0  0
   39.1930  -41.1770   24.1490 C   0  0  0  0  0  0  0  0  0  0  0  0
   39.4460  -41.7960   25.4600 C   0  0  0  0  0  0  0  0  0  0  0  0
   39.3780  -40.8440   26.5520 C   0  0  0  0  0  0  0  0  0  0  0  0
   39.7820  -41.5080   27.8720 C   0  0  0  0  0  0  0  0  0  0  0  0
   40.2930  -40.3710   28.7510 C   0  0  0  0  0  0  0  0  0  0  0  0
   40.6490  -40.9650   30.0870 C   0  0  0  0  0  0  0  0  0  0  0  0
   40.7740  -39.9360   31.1900 C   0  0  0  0  0  0  0  0  0  0  0  0
   40.2520  -40.6130   32.4290 C   0  0  0  0  0  0  0  0  0  0  0  0
   39.6040  -39.7560   33.5100 C   0  0  0  0  0  0  0  0  0  0  0  0
   38.1020  -39.7010   33.6610 C   0  0  0  0  0  0  0  0  0  0  0  0
   37.7950  -40.0090   35.0890 C   0  0  0  0  0  0  0  0  0  0  0  0
   36.4250  -39.6280   35.6000 C   0  0  0  0  0  0  0  0  0  0  0  0
   30.5380  -44.6790   37.7870 C   0  0  0  0  0  0  0  0  0  0  0  0
   29.5120  -44.0290   38.4780 C   0  0  0  0  0  0  0  0  0  0  0  0
   29.1660  -42.7630   38.0180 C   0  0  0  0  0  0  0  0  0  0  0  0
   28.5330  -41.9660   39.1310 C   0  0  0  0  0  0  0  0  0  0  0  0
   28.5060  -40.4570   38.8790 C   0  0  0  0  0  0  0  0  0  0  0  0
   27.1140  -40.0140   38.4150 C   0  0  0  0  0  0  0  0  0  0  0  0
   26.9550  -38.5120   38.4750 C   0  0  0  0  0  0  0  0  0  0  0  0
   28.1610  -37.9880   39.2000 C   0  0  0  0  0  0  0  0  0  0  0  0
   29.1950  -37.3990   38.2540 C   0  0  0  0  0  0  0  0  0  0  0  0
   30.2800  -36.8120   39.1080 C   0  0  0  0  0  0  0  0  0  0  0  0
   31.4710  -36.2990   38.2830 C   0  0  0  0  0  0  0  0  0  0  0  0
   32.4250  -37.4330   38.1270 C   0  0  0  0  0  0  0  0  0  0  0  0
   33.7020  -36.8730   37.5790 C   0  0  0  0  0  0  0  0  0  0  0  0
   34.5640  -38.0420   37.2010 C   0  0  0  0  0  0  0  0  0  0  0  0
   35.8780  -37.4520   36.7720 C   0  0  0  0  0  0  0  0  0  0  0  0
   36.1660  -38.1880   35.4600 C   0  0  0  0  0  0  0  0  0  0  0  0
   31.0650  -46.0980   38.1020 C   0  0  0  0  0  0  0  0  0  0  0  0
   47.7812  -45.7748   23.7074 H   0  0  0  0  0  0  0  0  0  0  0  0
   47.3327  -44.2785   22.8207 H   0  0  0  0  0  0  0  0  0  0  0  0
   46.2214  -45.6897   22.8207 H   0  0  0  0  0  0  0  0  0  0  0  0
   48.7100  -45.1743   21.2080 H   0  0  0  0  0  0  0  0  0  0  0  0
   48.3907  -46.8996   21.8402 H   0  0  0  0  0  0  0  0  0  0  0  0
   47.3338  -45.5541   19.4981 H   0  0  0  0  0  0  0  0  0  0  0  0
   47.3191  -47.2982   20.0056 H   0  0  0  0  0  0  0  0  0  0  0  0
   44.9944  -46.6403   19.8226 H   0  0  0  0  0  0  0  0  0  0  0  0
   45.3649  -46.6912   21.5783 H   0  0  0  0  0  0  0  0  0  0  0  0
   45.7147  -44.2679   21.6133 H   0  0  0  0  0  0  0  0  0  0  0  0
   45.4191  -44.2315   19.7933 H   0  0  0  0  0  0  0  0  0  0  0  0
   43.1400  -44.4826   20.0205 H   0  0  0  0  0  0  0  0  0  0  0  0
   43.2164  -45.1762   21.6327 H   0  0  0  0  0  0  0  0  0  0  0  0
   43.4670  -43.0716   22.6406 H   0  0  0  0  0  0  0  0  0  0  0  0
   44.6081  -42.5211   21.3419 H   0  0  0  0  0  0  0  0  0  0  0  0
   42.9460  -41.7235   20.0195 H   0  0  0  0  0  0  0  0  0  0  0  0
   41.7108  -42.8339   20.7028 H   0  0  0  0  0  0  0  0  0  0  0  0
   43.0179  -40.7039   22.4271 H   0  0  0  0  0  0  0  0  0  0  0  0
   41.6401  -40.2920   21.3819 H   0  0  0  0  0  0  0  0  0  0  0  0
   40.5479  -42.4880   22.3942 H   0  0  0  0  0  0  0  0  0  0  0  0
   41.7642  -42.3263   23.6719 H   0  0  0  0  0  0  0  0  0  0  0  0
   41.0331  -40.1569   24.2416 H   0  0  0  0  0  0  0  0  0  0  0  0
   40.1166  -39.9976   22.6836 H   0  0  0  0  0  0  0  0  0  0  0  0
   38.5026  -40.3322   24.2891 H   0  0  0  0  0  0  0  0  0  0  0  0
   38.7686  -41.9551   23.4975 H   0  0  0  0  0  0  0  0  0  0  0  0
   38.6936  -42.5803   25.6297 H   0  0  0  0  0  0  0  0  0  0  0  0
   40.4660  -42.2073   25.4414 H   0  0  0  0  0  0  0  0  0  0  0  0
   40.0606  -40.0067   26.3447 H   0  0  0  0  0  0  0  0  0  0  0  0
   38.3441  -40.4790   26.6405 H   0  0  0  0  0  0  0  0  0  0  0  0
   38.9145  -41.9970   28.3393 H   0  0  0  0  0  0  0  0  0  0  0  0
   40.5437  -42.2877   27.7240 H   0  0  0  0  0  0  0  0  0  0  0  0
   41.1821  -39.9120   28.2940 H   0  0  0  0  0  0  0  0  0  0  0  0
   39.5263  -39.5902   28.8633 H   0  0  0  0  0  0  0  0  0  0  0  0
   39.8656  -41.6840   30.3685 H   0  0  0  0  0  0  0  0  0  0  0  0
   41.6334  -41.4433   29.9770 H   0  0  0  0  0  0  0  0  0  0  0  0
   41.8255  -39.6429   31.3256 H   0  0  0  0  0  0  0  0  0  0  0  0
   40.2139  -39.0180   30.9585 H   0  0  0  0  0  0  0  0  0  0  0  0
   39.5012  -41.3486   32.1048 H   0  0  0  0  0  0  0  0  0  0  0  0
   41.1526  -41.0193   32.9125 H   0  0  0  0  0  0  0  0  0  0  0  0
   40.0025  -40.1112   34.4718 H   0  0  0  0  0  0  0  0  0  0  0  0
   39.8533  -38.7333   33.1906 H   0  0  0  0  0  0  0  0  0  0  0  0
   37.7330  -38.6973   33.4033 H   0  0  0  0  0  0  0  0  0  0  0  0
   37.6135  -40.4229   32.9901 H   0  0  0  0  0  0  0  0  0  0  0  0
   37.9084  -41.0947   35.2248 H   0  0  0  0  0  0  0  0  0  0  0  0
   38.4954  -39.3899   35.6688 H   0  0  0  0  0  0  0  0  0  0  0  0
   35.6660  -40.1825   35.0287 H   0  0  0  0  0  0  0  0  0  0  0  0
   36.3796  -39.8789   36.6700 H   0  0  0  0  0  0  0  0  0  0  0  0
   30.2065  -44.7164   36.7388 H   0  0  0  0  0  0  0  0  0  0  0  0
   31.4010  -44.0746   38.1033 H   0  0  0  0  0  0  0  0  0  0  0  0
   28.6151  -44.6632   38.4208 H   0  0  0  0  0  0  0  0  0  0  0  0
   29.8955  -43.8763   39.4976 H   0  0  0  0  0  0  0  0  0  0  0  0
   30.0695  -42.2436   37.6661 H   0  0  0  0  0  0  0  0  0  0  0  0
   28.4476  -42.8627   37.1910 H   0  0  0  0  0  0  0  0  0  0  0  0
   27.4974  -42.3137   39.2596 H   0  0  0  0  0  0  0  0  0  0  0  0
   29.1488  -42.1277   40.0280 H   0  0  0  0  0  0  0  0  0  0  0  0
   28.7617  -39.9301   39.8101 H   0  0  0  0  0  0  0  0  0  0  0  0
   29.2363  -40.2149   38.0928 H   0  0  0  0  0  0  0  0  0  0  0  0
   26.9614  -40.3472   37.3779 H   0  0  0  0  0  0  0  0  0  0  0  0
   26.3694  -40.4642   39.0880 H   0  0  0  0  0  0  0  0  0  0  0  0
   26.9099  -38.0931   37.4589 H   0  0  0  0  0  0  0  0  0  0  0  0
   26.0252  -38.2291   38.9902 H   0  0  0  0  0  0  0  0  0  0  0  0
   27.8385  -37.2054   39.9025 H   0  0  0  0  0  0  0  0  0  0  0  0
   28.6299  -38.8329   39.7256 H   0  0  0  0  0  0  0  0  0  0  0  0
   29.6075  -38.1865   37.6061 H   0  0  0  0  0  0  0  0  0  0  0  0
   28.7452  -36.6326   37.6056 H   0  0  0  0  0  0  0  0  0  0  0  0
   29.8610  -35.9719   39.6814 H   0  0  0  0  0  0  0  0  0  0  0  0
   30.6517  -37.6095   39.7682 H   0  0  0  0  0  0  0  0  0  0  0  0
   31.1259  -35.9591   37.2954 H   0  0  0  0  0  0  0  0  0  0  0  0
   31.9557  -35.4495   38.7865 H   0  0  0  0  0  0  0  0  0  0  0  0
   32.6101  -37.9055   39.1030 H   0  0  0  0  0  0  0  0  0  0  0  0
   32.0136  -38.1959   37.4497 H   0  0  0  0  0  0  0  0  0  0  0  0
   33.4944  -36.2541   36.6936 H   0  0  0  0  0  0  0  0  0  0  0  0
   34.2046  -36.2376   38.3231 H   0  0  0  0  0  0  0  0  0  0  0  0
   34.7060  -38.7095   38.0638 H   0  0  0  0  0  0  0  0  0  0  0  0
   34.1070  -38.6435   36.4014 H   0  0  0  0  0  0  0  0  0  0  0  0
   35.7911  -36.3678   36.6077 H   0  0  0  0  0  0  0  0  0  0  0  0
   36.6743  -37.5691   37.5218 H   0  0  0  0  0  0  0  0  0  0  0  0
   37.0499  -37.7257   34.9962 H   0  0  0  0  0  0  0  0  0  0  0  0
   35.2552  -38.0972   34.8500 H   0  0  0  0  0  0  0  0  0  0  0  0
   31.1164  -46.2364   39.1920 H   0  0  0  0  0  0  0  0  0  0  0  0
   30.3848  -46.8462   37.6690 H   0  0  0  0  0  0  0  0  0  0  0  0
   32.0687  -46.2209   37.6690 H   0  0  0  0  0  0  0  0  0  0  0  0
  1  2  1  0
  2  3  1  0
  4  3  1  0
  4  5  1  0
  6  5  1  0
  6  7  1  0
  7  8  1  0
  8  9  1  0
  9 10  1  0
 10 11  1  0
 11 12  1  0
 12 13  1  0
 13 14  1  0
 14 15  1  0
 15 16  1  0
 16 17  1  0
 17 18  1  0
 18 19  1  0
 19 20  1  0
 20 21  1  0
 21 22  1  0
 22 23  1  0
 23 39  1  0
 24 25  1  0
 25 26  1  0
 26 27  1  0
 28 27  1  0
 28 29  1  0
 30 29  1  0
 30 31  1  0
 32 31  1  0
 32 33  1  0
 34 33  1  0
 34 35  1  0
 36 35  1  0
 37 36  1  0
 38 37  1  0
 39 38  1  0
 24 40  1  0
  1 41  1  0
  1 42  1  0
  1 43  1  0
  2 44  1  0
  2 45  1  0
  3 46  1  0
  3 47  1  0
  4 48  1  0
  4 49  1  0
  5 50  1  0
  5 51  1  0
  6 52  1  0
  6 53  1  0
  7 54  1  0
  7 55  1  0
  8 56  1  0
  8 57  1  0
  9 58  1  0
  9 59  1  0
 10 60  1  0
 10 61  1  0
 11 62  1  0
 11 63  1  0
 12 64  1  0
 12 65  1  0
 13 66  1  0
 13 67  1  0
 14 68  1  0
 14 69  1  0
 15 70  1  0
 15 71  1  0
 16 72  1  0
 16 73  1  0
 17 74  1  0
 17 75  1  0
 18 76  1  0
 18 77  1  0
 19 78  1  0
 19 79  1  0
 20 80  1  0
 20 81  1  0
 21 82  1  0
 21 83  1  0
 22 84  1  0
 22 85  1  0
 23 86  1  0
 23 87  1  0
 24 88  1  0
 24 89  1  0
 25 90  1  0
 25 91  1  0
 26 92  1  0
 26 93  1  0
 27 94  1  0
 27 95  1  0
 28 96  1  0
 28 97  1  0
 29 98  1  0
 29 99  1  0
 30100  1  0
 30101  1  0
 31102  1  0
 31103  1  0
 32104  1  0
 32105  1  0
 33106  1  0
 33107  1  0
 34108  1  0
 34109  1  0
 35110  1  0
 35111  1  0
 36112  1  0
 36113  1  0
 37114  1  0
 37115  1  0
 38116  1  0
 38117  1  0
 39118  1  0
 39119  1  0
 40120  1  0
 40121  1  0
 40122  1  0
A    1
CAA
A    2
CAB
A    3
CAC
A    4
CAD
A    5
CAE
A    6
CAF
A    7
CAG
A    8
CAH
A    9
CAI
A   10
CAJ
A   11
CAK
A   12
CAL
A   13
CAM
A   14
CAN
A   15
CAO
A   16
CAP
A   17
CAQ
A   18
CAR
A   19
CAS
A   20
CAT
A   21
CAU
A   22
CAV
A   23
CAW
A   24
CAX
A   25
CAY
A   26
CAZ
A   27
CBA
A   28
CBB
A   29
CBC
A   30
CBD
A   31
CBE
A   32
CBF
A   33
CBG
A   34
CBH
A   35
CBI
A   36
CBJ
A   37
CBK
A   38
CBL
A   39
CBM
A   40
C40
M  END
