3T8X_T8X_A_304
     RDKit          3D

177178  0  0  0  0  0  0  0  0999 V2000
   29.0540  -55.4970   34.1020 C   0  0  0  0  0  0  0  0  0  0  0  0
   28.3750  -54.5970   33.0960 O   0  0  0  0  0  0  0  0  0  0  0  0
   30.4570  -54.9560   34.1830 C   0  0  0  0  0  0  0  0  0  0  0  0
   30.3550  -53.7390   34.9510 O   0  0  0  0  0  0  0  0  0  0  0  0
   30.7210  -54.8290   32.6790 C   0  0  0  0  0  0  0  0  0  0  0  0
   31.8910  -54.1300   32.4180 O   0  0  0  0  0  0  0  0  0  0  0  0
   30.9250  -56.2290   32.0780 C   0  0  0  0  0  0  0  0  0  0  0  0
   31.0810  -56.1430   30.6260 O   0  0  0  0  0  0  0  0  0  0  0  0
   29.7550  -57.1580   32.4650 C   0  0  0  0  0  0  0  0  0  0  0  0
   29.3040  -56.9400   33.8360 O   0  0  0  0  0  0  0  0  0  0  0  0
   30.1880  -58.5890   32.1060 C   0  0  0  0  0  0  0  0  0  0  0  0
   30.1860  -58.5910   30.6700 O   0  0  0  0  0  0  0  0  0  0  0  0
   39.7100  -43.6050   38.4900 C   0  0  0  0  0  0  0  0  0  0  0  0
   38.4540  -43.4580   37.6220 C   0  0  0  0  0  0  0  0  0  0  0  0
   38.5680  -43.8700   36.1540 C   0  0  0  0  0  0  0  0  0  0  0  0
   37.1590  -43.7850   35.4730 C   0  0  0  0  0  0  0  0  0  0  0  0
   36.2580  -45.0030   35.7640 C   0  0  0  0  0  0  0  0  0  0  0  0
   34.7310  -44.8090   35.9210 C   0  0  0  0  0  0  0  0  0  0  0  0
   33.9370  -45.5390   34.8080 C   0  0  0  0  0  0  0  0  0  0  0  0
   32.6730  -46.3080   35.2470 C   0  0  0  0  0  0  0  0  0  0  0  0
   31.7010  -46.5460   34.0820 C   0  0  0  0  0  0  0  0  0  0  0  0
   32.2320  -47.4860   33.0200 C   0  0  0  0  0  0  0  0  0  0  0  0
   31.3310  -48.7180   32.8760 C   0  0  0  0  0  0  0  0  0  0  0  0
   31.6420  -49.5000   31.5950 C   0  0  0  0  0  0  0  0  0  0  0  0
   31.1620  -50.9450   31.7100 C   0  0  0  0  0  0  0  0  0  0  0  0
   32.0200  -51.7350   32.7470 C   0  0  0  0  0  0  0  0  0  0  0  0
   31.5290  -51.6160   34.2000 C   0  0  0  0  0  0  0  0  0  0  0  0
   31.4750  -52.9530   35.0010 C   0  0  0  0  0  0  0  0  0  0  0  0
   32.3850  -53.2680   35.7710 O   0  0  0  0  0  0  0  0  0  0  0  0
   45.0370  -44.7500   31.2580 C   0  0  0  0  0  0  0  0  0  0  0  0
   43.7250  -44.7950   31.9920 C   0  0  0  0  0  0  0  0  0  0  0  0
   42.5230  -44.7020   31.0860 C   0  0  0  0  0  0  0  0  0  0  0  0
   41.2850  -44.7290   31.9300 C   0  0  0  0  0  0  0  0  0  0  0  0
   40.1150  -45.3300   31.1930 C   0  0  0  0  0  0  0  0  0  0  0  0
   39.2950  -46.2210   32.1380 C   0  0  0  0  0  0  0  0  0  0  0  0
   38.7320  -47.3810   31.3570 C   0  0  0  0  0  0  0  0  0  0  0  0
   38.3670  -48.5030   32.2730 C   0  0  0  0  0  0  0  0  0  0  0  0
   37.0070  -49.0290   31.8630 C   0  0  0  0  0  0  0  0  0  0  0  0
   37.1000  -50.5170   31.6460 C   0  0  0  0  0  0  0  0  0  0  0  0
   36.8910  -50.8720   30.2060 C   0  0  0  0  0  0  0  0  0  0  0  0
   36.1460  -52.2340   30.1660 C   0  0  0  0  0  0  0  0  0  0  0  0
   36.9350  -53.4920   29.6940 C   0  0  0  0  0  0  0  0  0  0  0  0
   36.8440  -54.5490   30.8280 C   0  0  0  0  0  0  0  0  0  0  0  0
   36.1740  -53.9090   32.0810 C   0  0  0  0  0  0  0  0  0  0  0  0
   34.6230  -54.0330   32.1100 C   0  0  0  0  0  0  0  0  0  0  0  0
   33.7870  -54.4360   31.0460 C   0  0  0  0  0  0  0  0  0  0  0  0
   32.4200  -54.4620   31.2100 C   0  0  0  0  0  0  0  0  0  0  0  0
   31.6330  -54.8810   30.1890 O   0  0  0  0  0  0  0  0  0  0  0  0
   26.6270  -54.9170   31.1730 O   0  0  0  0  0  0  0  0  0  0  0  0
   26.0840  -52.2720   29.8160 O   0  0  0  0  0  0  0  0  0  0  0  0
   27.3640  -50.0330   31.2470 O   0  0  0  0  0  0  0  0  0  0  0  0
   27.2320  -52.6490   34.0280 O   0  0  0  0  0  0  0  0  0  0  0  0
   26.6660  -50.2280   34.8340 O   0  0  0  0  0  0  0  0  0  0  0  0
   27.0960  -53.8870   33.3140 C   0  0  0  0  0  0  0  0  0  0  0  0
   26.3830  -53.7060   31.9330 C   0  0  0  0  0  0  0  0  0  0  0  0
   26.8230  -52.4500   31.0970 C   0  0  0  0  0  0  0  0  0  0  0  0
   26.8780  -51.1840   32.0050 C   0  0  0  0  0  0  0  0  0  0  0  0
   27.7710  -51.5280   33.2390 C   0  0  0  0  0  0  0  0  0  0  0  0
   27.9390  -50.3860   34.2080 C   0  0  0  0  0  0  0  0  0  0  0  0
   34.2600  -54.8160   29.6520 C   0  0  0  0  0  0  0  0  0  0  0  0
   36.7430  -54.4690   33.3810 C   0  0  0  0  0  0  0  0  0  0  0  0
   45.0090  -44.2950   29.8530 C   0  0  0  0  0  0  0  0  0  0  0  0
   46.4970  -44.1520   29.3680 C   0  0  0  0  0  0  0  0  0  0  0  0
   46.7910  -45.4050   28.4820 C   0  0  0  0  0  0  0  0  0  0  0  0
   47.3730  -45.0860   27.1140 C   0  0  0  0  0  0  0  0  0  0  0  0
   25.6870  -55.9730   31.5320 S   0  0  0  0  0  0  0  0  0  0  0  0
   25.4540  -56.8540   30.3200 O   0  0  0  0  0  0  0  0  0  0  0  0
   26.2950  -56.7710   32.6280 O   0  0  0  0  0  0  0  0  0  0  0  0
   24.3810  -55.3120   31.9670 O   0  0  0  0  0  0  0  0  0  0  0  0
   36.4090  -54.0360   28.3240 C   0  0  0  0  0  0  0  0  0  0  0  0
   36.0300  -49.8140   29.5190 C   0  0  0  0  0  0  0  0  0  0  0  0
   47.7060  -46.2990   26.2660 C   0  0  0  0  0  0  0  0  0  0  0  0
   47.7860  -45.8810   24.8010 C   0  0  0  0  0  0  0  0  0  0  0  0
   28.3554  -55.4814   34.9515 H   0  0  0  0  0  0  0  0  0  0  0  0
   31.2692  -55.5110   34.6752 H   0  0  0  0  0  0  0  0  0  0  0  0
   29.8575  -54.3025   32.2465 H   0  0  0  0  0  0  0  0  0  0  0  0
   31.8481  -56.6617   32.4910 H   0  0  0  0  0  0  0  0  0  0  0  0
   31.9275  -55.6763   30.4121 H   0  0  0  0  0  0  0  0  0  0  0  0
   28.8409  -56.9336   31.8958 H   0  0  0  0  0  0  0  0  0  0  0  0
   31.1928  -58.8055   32.4978 H   0  0  0  0  0  0  0  0  0  0  0  0
   29.5275  -59.3564   32.5359 H   0  0  0  0  0  0  0  0  0  0  0  0
   29.5255  -59.2515   30.3418 H   0  0  0  0  0  0  0  0  0  0  0  0
   39.4273  -43.5719   39.5525 H   0  0  0  0  0  0  0  0  0  0  0  0
   40.1973  -44.5663   38.2700 H   0  0  0  0  0  0  0  0  0  0  0  0
   40.4061  -42.7822   38.2700 H   0  0  0  0  0  0  0  0  0  0  0  0
   37.6630  -44.0717   38.0776 H   0  0  0  0  0  0  0  0  0  0  0  0
   38.2500  -42.3773   37.5986 H   0  0  0  0  0  0  0  0  0  0  0  0
   39.2656  -43.1945   35.6373 H   0  0  0  0  0  0  0  0  0  0  0  0
   38.9417  -44.9027   36.0924 H   0  0  0  0  0  0  0  0  0  0  0  0
   36.6501  -42.8808   35.8383 H   0  0  0  0  0  0  0  0  0  0  0  0
   37.3269  -43.7603   34.3862 H   0  0  0  0  0  0  0  0  0  0  0  0
   36.4056  -45.7133   34.9372 H   0  0  0  0  0  0  0  0  0  0  0  0
   36.5789  -45.3244   36.7658 H   0  0  0  0  0  0  0  0  0  0  0  0
   34.4208  -45.2072   36.8984 H   0  0  0  0  0  0  0  0  0  0  0  0
   34.5148  -43.7332   35.8436 H   0  0  0  0  0  0  0  0  0  0  0  0
   33.6281  -44.7844   34.0697 H   0  0  0  0  0  0  0  0  0  0  0  0
   34.6225  -46.3075   34.4214 H   0  0  0  0  0  0  0  0  0  0  0  0
   32.9766  -47.2818   35.6588 H   0  0  0  0  0  0  0  0  0  0  0  0
   32.1526  -45.6978   35.9999 H   0  0  0  0  0  0  0  0  0  0  0  0
   30.7718  -46.9722   34.4881 H   0  0  0  0  0  0  0  0  0  0  0  0
   31.5426  -45.5723   33.5953 H   0  0  0  0  0  0  0  0  0  0  0  0
   32.2720  -46.9552   32.0574 H   0  0  0  0  0  0  0  0  0  0  0  0
   33.2368  -47.8198   33.3183 H   0  0  0  0  0  0  0  0  0  0  0  0
   31.4867  -49.3770   33.7429 H   0  0  0  0  0  0  0  0  0  0  0  0
   30.2869  -48.3756   32.8243 H   0  0  0  0  0  0  0  0  0  0  0  0
   31.1344  -49.0181   30.7464 H   0  0  0  0  0  0  0  0  0  0  0  0
   32.7310  -49.5022   31.4396 H   0  0  0  0  0  0  0  0  0  0  0  0
   30.1106  -50.9508   32.0333 H   0  0  0  0  0  0  0  0  0  0  0  0
   31.2640  -51.4289   30.7274 H   0  0  0  0  0  0  0  0  0  0  0  0
   32.0071  -52.7983   32.4655 H   0  0  0  0  0  0  0  0  0  0  0  0
   33.0284  -51.2964   32.7194 H   0  0  0  0  0  0  0  0  0  0  0  0
   32.2048  -50.9296   34.7311 H   0  0  0  0  0  0  0  0  0  0  0  0
   30.4909  -51.2572   34.1400 H   0  0  0  0  0  0  0  0  0  0  0  0
   45.7032  -44.0724   31.8121 H   0  0  0  0  0  0  0  0  0  0  0  0
   45.3715  -45.7968   31.2105 H   0  0  0  0  0  0  0  0  0  0  0  0
   43.6695  -45.7429   32.5473 H   0  0  0  0  0  0  0  0  0  0  0  0
   43.6968  -43.9188   32.6564 H   0  0  0  0  0  0  0  0  0  0  0  0
   42.5615  -43.7629   30.5145 H   0  0  0  0  0  0  0  0  0  0  0  0
   42.5166  -45.5474   30.3822 H   0  0  0  0  0  0  0  0  0  0  0  0
   41.4824  -45.3271   32.8318 H   0  0  0  0  0  0  0  0  0  0  0  0
   41.0274  -43.6918   32.1905 H   0  0  0  0  0  0  0  0  0  0  0  0
   39.4747  -44.5228   30.8076 H   0  0  0  0  0  0  0  0  0  0  0  0
   40.4911  -45.9410   30.3592 H   0  0  0  0  0  0  0  0  0  0  0  0
   39.9428  -46.5985   32.9429 H   0  0  0  0  0  0  0  0  0  0  0  0
   38.4734  -45.6370   32.5783 H   0  0  0  0  0  0  0  0  0  0  0  0
   37.8339  -47.0500   30.8148 H   0  0  0  0  0  0  0  0  0  0  0  0
   39.4950  -47.7353   30.6483 H   0  0  0  0  0  0  0  0  0  0  0  0
   39.1152  -49.3055   32.1946 H   0  0  0  0  0  0  0  0  0  0  0  0
   38.3379  -48.1482   33.3138 H   0  0  0  0  0  0  0  0  0  0  0  0
   36.2754  -48.8173   32.6567 H   0  0  0  0  0  0  0  0  0  0  0  0
   36.6842  -48.5379   30.9332 H   0  0  0  0  0  0  0  0  0  0  0  0
   38.0960  -50.8631   31.9593 H   0  0  0  0  0  0  0  0  0  0  0  0
   36.3134  -51.0041   32.2409 H   0  0  0  0  0  0  0  0  0  0  0  0
   37.8586  -50.9284   29.6859 H   0  0  0  0  0  0  0  0  0  0  0  0
   35.7856  -52.4385   31.1850 H   0  0  0  0  0  0  0  0  0  0  0  0
   35.3688  -52.0968   29.3998 H   0  0  0  0  0  0  0  0  0  0  0  0
   37.9882  -53.2338   29.5095 H   0  0  0  0  0  0  0  0  0  0  0  0
   36.2413  -55.4032   30.4858 H   0  0  0  0  0  0  0  0  0  0  0  0
   37.8549  -54.8952   31.0890 H   0  0  0  0  0  0  0  0  0  0  0  0
   36.4157  -52.8391   31.9977 H   0  0  0  0  0  0  0  0  0  0  0  0
   34.1262  -53.7803   33.0583 H   0  0  0  0  0  0  0  0  0  0  0  0
   25.1399  -52.0446   30.0085 H   0  0  0  0  0  0  0  0  0  0  0  0
   27.6621  -49.3271   31.8738 H   0  0  0  0  0  0  0  0  0  0  0  0
   26.7779  -50.2419   35.8176 H   0  0  0  0  0  0  0  0  0  0  0  0
   26.4707  -54.5051   33.9751 H   0  0  0  0  0  0  0  0  0  0  0  0
   25.3170  -53.5274   32.1374 H   0  0  0  0  0  0  0  0  0  0  0  0
   27.8488  -52.6334   30.7447 H   0  0  0  0  0  0  0  0  0  0  0  0
   25.8769  -50.9021   32.3631 H   0  0  0  0  0  0  0  0  0  0  0  0
   28.7395  -51.7823   32.7838 H   0  0  0  0  0  0  0  0  0  0  0  0
   28.7084  -50.6266   34.9564 H   0  0  0  0  0  0  0  0  0  0  0  0
   28.2623  -49.4646   33.7015 H   0  0  0  0  0  0  0  0  0  0  0  0
   35.1154  -55.5032   29.7297 H   0  0  0  0  0  0  0  0  0  0  0  0
   33.4409  -55.3100   29.1089 H   0  0  0  0  0  0  0  0  0  0  0  0
   34.5659  -53.9097   29.1089 H   0  0  0  0  0  0  0  0  0  0  0  0
   36.2499  -53.9837   34.2362 H   0  0  0  0  0  0  0  0  0  0  0  0
   36.5647  -55.5537   33.4221 H   0  0  0  0  0  0  0  0  0  0  0  0
   37.8247  -54.2734   33.4221 H   0  0  0  0  0  0  0  0  0  0  0  0
   44.4812  -45.0327   29.2306 H   0  0  0  0  0  0  0  0  0  0  0  0
   44.4822  -43.3329   29.7698 H   0  0  0  0  0  0  0  0  0  0  0  0
   46.6187  -43.2314   28.7784 H   0  0  0  0  0  0  0  0  0  0  0  0
   47.1912  -44.0920   30.2191 H   0  0  0  0  0  0  0  0  0  0  0  0
   47.5061  -46.0456   29.0189 H   0  0  0  0  0  0  0  0  0  0  0  0
   45.8233  -45.8969   28.3039 H   0  0  0  0  0  0  0  0  0  0  0  0
   46.6415  -44.4749   26.5649 H   0  0  0  0  0  0  0  0  0  0  0  0
   48.3244  -44.5647   27.2960 H   0  0  0  0  0  0  0  0  0  0  0  0
   25.2125  -57.7670   30.6172 H   0  0  0  0  0  0  0  0  0  0  0  0
   35.6547  -54.8161   28.5045 H   0  0  0  0  0  0  0  0  0  0  0  0
   35.9556  -53.2128   27.7523 H   0  0  0  0  0  0  0  0  0  0  0  0
   37.2470  -54.4614   27.7523 H   0  0  0  0  0  0  0  0  0  0  0  0
   35.5288  -49.1982   30.2803 H   0  0  0  0  0  0  0  0  0  0  0  0
   36.6671  -49.1740   28.8909 H   0  0  0  0  0  0  0  0  0  0  0  0
   35.2739  -50.3078   28.8909 H   0  0  0  0  0  0  0  0  0  0  0  0
   48.6736  -46.7150   26.5831 H   0  0  0  0  0  0  0  0  0  0  0  0
   46.9237  -47.0623   26.3901 H   0  0  0  0  0  0  0  0  0  0  0  0
   47.9924  -44.8024   24.7382 H   0  0  0  0  0  0  0  0  0  0  0  0
   48.5938  -46.4384   24.3042 H   0  0  0  0  0  0  0  0  0  0  0  0
   46.8295  -46.1008   24.3042 H   0  0  0  0  0  0  0  0  0  0  0  0
  1  3  1  0
  2  1  1  0
  2 54  1  0
  3  4  1  0
  4 28  1  0
  5  3  1  0
  6  5  1  0
  7  5  1  0
  7  9  1  0
  8  7  1  0
  9 10  1  0
 10  1  1  0
 11  9  1  0
 12 11  1  0
 14 13  1  0
 15 14  1  0
 16 15  1  0
 16 17  1  0
 17 18  1  0
 19 18  1  0
 19 20  1  0
 21 20  1  0
 22 21  1  0
 23 22  1  0
 24 23  1  0
 24 25  1  0
 25 26  1  0
 26 27  1  0
 27 28  1  0
 28 29  2  0
 30 31  1  0
 32 31  1  0
 32 33  1  0
 34 33  1  0
 34 35  1  0
 36 35  1  0
 36 37  1  0
 38 37  1  0
 39 38  1  0
 40 39  1  0
 41 40  1  0
 42 41  1  0
 42 43  1  0
 43 44  1  0
 44 45  1  0
 44 61  1  0
 46 45  2  0
 46 47  1  0
 47  6  1  0
 48 47  2  0
 49 66  1  0
 49 55  1  0
 50 56  1  0
 51 57  1  0
 54 52  1  0
 55 54  1  0
 56 55  1  0
 56 57  1  0
 57 58  1  0
 58 52  1  0
 58 59  1  0
 59 53  1  0
 60 46  1  0
 62 30  1  0
 63 62  1  0
 64 63  1  0
 65 64  1  0
 66 69  2  0
 66 67  1  0
 68 66  2  0
 70 42  1  0
 71 40  1  0
 72 65  1  0
 73 72  1  0
  1 74  1  0
  3 75  1  0
  5 76  1  0
  7 77  1  0
  8 78  1  0
  9 79  1  0
 11 80  1  0
 11 81  1  0
 12 82  1  0
 13 83  1  0
 13 84  1  0
 13 85  1  0
 14 86  1  0
 14 87  1  0
 15 88  1  0
 15 89  1  0
 16 90  1  0
 16 91  1  0
 17 92  1  0
 17 93  1  0
 18 94  1  0
 18 95  1  0
 19 96  1  0
 19 97  1  0
 20 98  1  0
 20 99  1  0
 21100  1  0
 21101  1  0
 22102  1  0
 22103  1  0
 23104  1  0
 23105  1  0
 24106  1  0
 24107  1  0
 25108  1  0
 25109  1  0
 26110  1  0
 26111  1  0
 27112  1  0
 27113  1  0
 30114  1  0
 30115  1  0
 31116  1  0
 31117  1  0
 32118  1  0
 32119  1  0
 33120  1  0
 33121  1  0
 34122  1  0
 34123  1  0
 35124  1  0
 35125  1  0
 36126  1  0
 36127  1  0
 37128  1  0
 37129  1  0
 38130  1  0
 38131  1  0
 39132  1  0
 39133  1  0
 40134  1  0
 41135  1  0
 41136  1  0
 42137  1  0
 43138  1  0
 43139  1  0
 44140  1  0
 45141  1  0
 50142  1  0
 51143  1  0
 53144  1  0
 54145  1  0
 55146  1  0
 56147  1  0
 57148  1  0
 58149  1  0
 59150  1  0
 59151  1  0
 60152  1  0
 60153  1  0
 60154  1  0
 61155  1  0
 61156  1  0
 61157  1  0
 62158  1  0
 62159  1  0
 63160  1  0
 63161  1  0
 64162  1  0
 64163  1  0
 65164  1  0
 65165  1  0
 67166  1  0
 70167  1  0
 70168  1  0
 70169  1  0
 71170  1  0
 71171  1  0
 71172  1  0
 72173  1  0
 72174  1  0
 73175  1  0
 73176  1  0
 73177  1  0
A    1
C1
A    2
O1
A    3
C2
A    4
O2
A    5
C3
A    6
O3
A    7
C4
A    8
O4
A    9
C5
A   10
O5
A   11
C6
A   12
O6
A   13
C7
A   14
C8
A   15
C9
A   16
C10
A   17
C11
A   18
C12
A   19
C13
A   20
C14
A   21
C15
A   22
C16
A   23
C17
A   24
C18
A   25
C19
A   26
C20
A   27
C21
A   28
C22
A   29
O7
A   30
C23
A   31
C24
A   32
C25
A   33
C26
A   34
C27
A   35
C28
A   36
C29
A   37
C30
A   38
C31
A   39
C32
A   40
C33
A   41
C34
A   42
C35
A   43
C36
A   44
C37
A   45
C38
A   46
C39
A   47
C40
A   48
O8
A   49
O9
A   50
O10
A   51
O11
A   52
O12
A   53
O13
A   54
C41
A   55
C42
A   56
C43
A   57
C44
A   58
C45
A   59
C46
A   60
C47
A   61
C48
A   62
C49
A   63
C50
A   64
C51
A   65
C52
A   66
S1
A   67
O14
A   68
O15
A   69
O16
A   70
C53
A   71
C54
A   72
C55
A   73
C56
M  END
