1AD5_ANP_A_1
     RDKit          3D

 48 50  0  0  0  0  0  0  0  0999 V2000
   22.2240   47.7590  101.6020 P   0  0  0  0  0  0  0  0  0  0  0  0
   21.0710   47.2370  102.3920 O   0  0  0  0  0  0  0  0  0  0  0  0
   22.7660   46.8070  100.5920 O   0  0  0  0  0  0  0  0  0  0  0  0
   22.0550   49.1540  101.1170 O   0  0  0  0  0  0  0  0  0  0  0  0
   24.7130   48.8900  102.8110 P   0  0  0  0  0  0  0  0  0  0  0  0
   25.3930   48.6280  104.0920 O   0  0  0  0  0  0  0  0  0  0  0  0
   24.2790   50.2870  102.5060 O   0  0  0  0  0  0  0  0  0  0  0  0
   23.4110   47.8840  102.7070 N   0  0  0  0  0  0  0  0  0  0  0  0
   26.8470   48.7350  100.8070 P   0  0  0  0  0  0  0  0  0  0  0  0
   26.6110   49.9270   99.9590 O   0  0  0  0  0  0  0  0  0  0  0  0
   28.0370   48.7170  101.6740 O   0  0  0  0  0  0  0  0  0  0  0  0
   25.5700   48.3360  101.6510 O   0  0  0  0  0  0  0  0  0  0  0  0
   26.8700   47.4640   99.9060 O   0  0  0  0  0  0  0  0  0  0  0  0
   27.0370   46.1820  100.5200 C   0  0  0  0  0  0  0  0  0  0  0  0
   27.0520   45.0830   99.5200 C   0  0  0  0  0  0  0  0  0  0  0  0
   28.1980   45.3120   98.6920 O   0  0  0  0  0  0  0  0  0  0  0  0
   27.1890   43.7050  100.1450 C   0  0  0  0  0  0  0  0  0  0  0  0
   26.0610   42.9680   99.6690 O   0  0  0  0  0  0  0  0  0  0  0  0
   28.5030   43.1620   99.6240 C   0  0  0  0  0  0  0  0  0  0  0  0
   28.3460   42.0520   98.7360 O   0  0  0  0  0  0  0  0  0  0  0  0
   29.1740   44.2770   98.8190 C   0  0  0  0  0  0  0  0  0  0  0  0
   30.4160   44.8250   99.4550 N   0  0  0  0  0  0  0  0  0  0  0  0
   30.5660   45.9590  100.2250 C   0  0  0  0  0  0  0  0  0  0  0  0
   31.7840   46.1890  100.6320 N   0  0  0  0  0  0  0  0  0  0  0  0
   32.4980   45.1220  100.0910 C   0  0  0  0  0  0  0  0  0  0  0  0
   33.8790   44.7640  100.1520 C   0  0  0  0  0  0  0  0  0  0  0  0
   34.7540   45.5050  100.8080 N   0  0  0  0  0  0  0  0  0  0  0  0
   34.2680   43.6460   99.5120 N   0  0  0  0  0  0  0  0  0  0  0  0
   33.3680   42.9280   98.8550 C   0  0  0  0  0  0  0  0  0  0  0  0
   32.0540   43.1420   98.7220 N   0  0  0  0  0  0  0  0  0  0  0  0
   31.6780   44.2830   99.3800 C   0  0  0  0  0  0  0  0  0  0  0  0
   23.1991   46.0463  101.0545 H   0  0  0  0  0  0  0  0  0  0  0  0
   21.9809   49.7660  101.8916 H   0  0  0  0  0  0  0  0  0  0  0  0
   24.1266   50.7774  103.3524 H   0  0  0  0  0  0  0  0  0  0  0  0
   22.9054   48.0489  103.5891 H   0  0  0  0  0  0  0  0  0  0  0  0
   27.7542   48.7213  102.6227 H   0  0  0  0  0  0  0  0  0  0  0  0
   27.9890   46.1736  101.0711 H   0  0  0  0  0  0  0  0  0  0  0  0
   26.1847   46.0152  101.1950 H   0  0  0  0  0  0  0  0  0  0  0  0
   26.0985   45.0911   98.9716 H   0  0  0  0  0  0  0  0  0  0  0  0
   27.2009   43.6720  101.2444 H   0  0  0  0  0  0  0  0  0  0  0  0
   25.5402   42.6278  100.4392 H   0  0  0  0  0  0  0  0  0  0  0  0
   29.0867   42.8251  100.4934 H   0  0  0  0  0  0  0  0  0  0  0  0
   28.2286   41.2220   99.2628 H   0  0  0  0  0  0  0  0  0  0  0  0
   29.5036   43.8709   97.8513 H   0  0  0  0  0  0  0  0  0  0  0  0
   29.7231   46.6193  100.4769 H   0  0  0  0  0  0  0  0  0  0  0  0
   34.7571   45.5076  101.8380 H   0  0  0  0  0  0  0  0  0  0  0  0
   35.4332   46.0802  100.2895 H   0  0  0  0  0  0  0  0  0  0  0  0
   33.7554   42.0315   98.3487 H   0  0  0  0  0  0  0  0  0  0  0  0
  1  2  2  0
  1  3  1  0
  1  4  1  0
  1  8  1  0
  5  6  2  0
  5  7  1  0
  5  8  1  0
  5 12  1  0
  9 10  2  0
  9 11  1  0
  9 12  1  0
  9 13  1  0
 13 14  1  0
 14 15  1  0
 15 16  1  0
 15 17  1  0
 16 21  1  0
 17 18  1  0
 17 19  1  0
 19 20  1  0
 19 21  1  0
 21 22  1  0
 22 23  1  0
 22 31  1  0
 23 24  2  0
 24 25  1  0
 25 26  1  0
 25 31  2  0
 26 27  1  0
 26 28  2  0
 28 29  1  0
 29 30  2  0
 30 31  1  0
  3 32  1  0
  4 33  1  0
  7 34  1  0
  8 35  1  0
 11 36  1  0
 14 37  1  0
 14 38  1  0
 15 39  1  0
 17 40  1  0
 18 41  1  0
 19 42  1  0
 20 43  1  0
 21 44  1  0
 23 45  1  0
 27 46  1  0
 27 47  1  0
 29 48  1  0
A    1
PG
A    2
O1G
A    3
O2G
A    4
O3G
A    5
PB
A    6
O1B
A    7
O2B
A    8
N3B
A    9
PA
A   10
O1A
A   11
O2A
A   12
O3A
A   13
O5'
A   14
C5'
A   15
C4'
A   16
O4'
A   17
C3'
A   18
O3'
A   19
C2'
A   20
O2'
A   21
C1'
A   22
N9
A   23
C8
A   24
N7
A   25
C5
A   26
C6
A   27
N6
A   28
N1
A   29
C2
A   30
N3
A   31
C4
M  END
