3TAJ_NBO_A_700
     RDKit          3D

 33 34  0  0  0  0  0  0  0  0999 V2000
    7.5330   18.3450   19.7110 C   0  0  0  0  0  0  0  0  0  0  0  0
    9.9150   18.7430   19.6970 O   0  0  0  0  0  0  0  0  0  0  0  0
    8.9060   18.4630   19.1180 C   0  0  0  0  0  0  0  0  0  0  0  0
    9.1020   18.2240   17.6450 C   0  0  0  0  0  0  0  0  0  0  0  0
   10.6290   18.1210   17.6080 C   0  0  0  0  0  0  0  0  0  0  0  0
   10.2760   15.9840   16.3550 C   0  0  0  0  0  0  0  0  0  0  0  0
   11.1270   16.9050   16.8920 C   0  0  0  0  0  0  0  0  0  0  0  0
   14.8480   12.7000   12.8680 C   0  0  0  0  0  0  0  0  0  0  0  0
   12.4710   16.7720   16.7820 C   0  0  0  0  0  0  0  0  0  0  0  0
   14.6180   12.5190   14.2100 O   0  0  0  0  0  0  0  0  0  0  0  0
   13.0060   15.6930   16.1260 C   0  0  0  0  0  0  0  0  0  0  0  0
   14.3730   15.5760   16.0420 C   0  0  0  0  0  0  0  0  0  0  0  0
   14.8950   14.5210   15.3810 C   0  0  0  0  0  0  0  0  0  0  0  0
   14.0850   13.5700   14.8650 C   0  0  0  0  0  0  0  0  0  0  0  0
   12.7230   13.6990   14.9360 C   0  0  0  0  0  0  0  0  0  0  0  0
   12.1650   14.7650   15.5830 C   0  0  0  0  0  0  0  0  0  0  0  0
   10.7950   14.8900   15.7000 C   0  0  0  0  0  0  0  0  0  0  0  0
    7.6059   18.3513   20.8086 H   0  0  0  0  0  0  0  0  0  0  0  0
    6.9163   19.1935   19.3796 H   0  0  0  0  0  0  0  0  0  0  0  0
    7.0701   17.4038   19.3796 H   0  0  0  0  0  0  0  0  0  0  0  0
    8.6195   17.2931   17.3124 H   0  0  0  0  0  0  0  0  0  0  0  0
    8.6677   18.9887   16.9843 H   0  0  0  0  0  0  0  0  0  0  0  0
   11.0260   19.0118   17.0993 H   0  0  0  0  0  0  0  0  0  0  0  0
   10.9742   18.0476   18.6499 H   0  0  0  0  0  0  0  0  0  0  0  0
    9.1874   16.1140   16.4443 H   0  0  0  0  0  0  0  0  0  0  0  0
   15.7057   13.3750   12.7307 H   0  0  0  0  0  0  0  0  0  0  0  0
   15.0667   11.7292   12.3993 H   0  0  0  0  0  0  0  0  0  0  0  0
   13.9558   13.1408   12.3993 H   0  0  0  0  0  0  0  0  0  0  0  0
   13.1349   17.5318   17.2202 H   0  0  0  0  0  0  0  0  0  0  0  0
   15.0292   16.3279   16.5047 H   0  0  0  0  0  0  0  0  0  0  0  0
   15.9851   14.4349   15.2617 H   0  0  0  0  0  0  0  0  0  0  0  0
   12.0760   12.9411   14.4701 H   0  0  0  0  0  0  0  0  0  0  0  0
   10.1272   14.1258   15.2756 H   0  0  0  0  0  0  0  0  0  0  0  0
  1  3  1  0
  2  3  2  0
  3  4  1  0
  4  5  1  0
  5  7  1  0
  6  7  2  0
  6 17  1  0
  7  9  1  0
  8 10  1  0
  9 11  2  0
 10 14  1  0
 11 12  1  0
 11 16  1  0
 12 13  2  0
 13 14  1  0
 14 15  2  0
 15 16  1  0
 16 17  2  0
  1 18  1  0
  1 19  1  0
  1 20  1  0
  4 21  1  0
  4 22  1  0
  5 23  1  0
  5 24  1  0
  6 25  1  0
  8 26  1  0
  8 27  1  0
  8 28  1  0
  9 29  1  0
 12 30  1  0
 13 31  1  0
 15 32  1  0
 17 33  1  0
A    1
C1
A    2
O1
A    3
C2
A    4
C3
A    5
C4
A    6
C10'
A    7
C1'
A    8
C11'
A    9
C2'
A   10
O2'
A   11
C3'
A   12
C4'
A   13
C5'
A   14
C6'
A   15
C7'
A   16
C8'
A   17
C9'
M  END
