3TCP_CKJ_A_1
     RDKit          3D

 58 61  0  0  0  0  0  0  0  0999 V2000
    3.2030  -17.3630   12.9520 C   0  0  0  0  0  0  0  0  0  0  0  0
    0.7580  -17.4990   10.2840 F   0  0  0  0  0  0  0  0  0  0  0  0
    4.1910  -17.2690   15.7150 N   0  0  0  0  0  0  0  0  0  0  0  0
    5.0680  -15.7990   18.4230 C   0  0  0  0  0  0  0  0  0  0  0  0
    2.9440  -21.2910   19.7400 N   0  0  0  0  0  0  0  0  0  0  0  0
    3.7640  -20.9110   20.8810 C   0  0  0  0  0  0  0  0  0  0  0  0
    4.5510  -17.7050   16.9850 N   0  0  0  0  0  0  0  0  0  0  0  0
    3.4270  -19.5530   21.4960 C   0  0  0  0  0  0  0  0  0  0  0  0
    4.3200  -19.2500   22.6950 C   0  0  0  0  0  0  0  0  0  0  0  0
    5.6380  -18.6380   22.2770 C   0  0  0  0  0  0  0  0  0  0  0  0
    2.5000  -17.9760   13.9940 C   0  0  0  0  0  0  0  0  0  0  0  0
    1.1950  -18.4260   13.7890 C   0  0  0  0  0  0  0  0  0  0  0  0
    0.6110  -18.2660   12.5340 C   0  0  0  0  0  0  0  0  0  0  0  0
    1.3210  -17.6540   11.4940 C   0  0  0  0  0  0  0  0  0  0  0  0
    2.6200  -17.2060   11.6990 C   0  0  0  0  0  0  0  0  0  0  0  0
    2.0470  -20.1180   16.4680 C   0  0  0  0  0  0  0  0  0  0  0  0
    2.0790  -20.8340   17.6070 N   0  0  0  0  0  0  0  0  0  0  0  0
    2.9430  -20.5580   18.6040 C   0  0  0  0  0  0  0  0  0  0  0  0
    3.8110  -19.5280   18.4830 N   0  0  0  0  0  0  0  0  0  0  0  0
    2.9310  -19.0550   16.3330 C   0  0  0  0  0  0  0  0  0  0  0  0
    3.7690  -18.7820   17.3100 C   0  0  0  0  0  0  0  0  0  0  0  0
    3.1810  -18.1100   15.3170 C   0  0  0  0  0  0  0  0  0  0  0  0
    5.5860  -17.1080   17.8270 C   0  0  0  0  0  0  0  0  0  0  0  0
    3.7350  -15.9770   19.1660 C   0  0  0  0  0  0  0  0  0  0  0  0
    6.1080  -15.2520   19.3990 C   0  0  0  0  0  0  0  0  0  0  0  0
    5.6610  -13.9150   19.9980 C   0  0  0  0  0  0  0  0  0  0  0  0
    4.3100  -14.0260   20.7130 C   0  0  0  0  0  0  0  0  0  0  0  0
    3.2490  -14.6650   19.8020 C   0  0  0  0  0  0  0  0  0  0  0  0
    3.9110  -12.6910   21.1150 N   0  0  0  0  0  0  0  0  0  0  0  0
    4.2273  -17.0014   13.1251 H   0  0  0  0  0  0  0  0  0  0  0  0
    4.8952  -15.1012   17.5904 H   0  0  0  0  0  0  0  0  0  0  0  0
    2.3541  -22.1332   19.7991 H   0  0  0  0  0  0  0  0  0  0  0  0
    3.6412  -21.6780   21.6598 H   0  0  0  0  0  0  0  0  0  0  0  0
    4.7947  -20.8306   20.5052 H   0  0  0  0  0  0  0  0  0  0  0  0
    3.5696  -18.7704   20.7363 H   0  0  0  0  0  0  0  0  0  0  0  0
    2.3821  -19.5771   21.8389 H   0  0  0  0  0  0  0  0  0  0  0  0
    3.7965  -18.5469   23.3595 H   0  0  0  0  0  0  0  0  0  0  0  0
    4.5329  -20.1987   23.2094 H   0  0  0  0  0  0  0  0  0  0  0  0
    6.2176  -18.3689   23.1723 H   0  0  0  0  0  0  0  0  0  0  0  0
    6.2058  -19.3646   21.6773 H   0  0  0  0  0  0  0  0  0  0  0  0
    5.4493  -17.7354   21.6773 H   0  0  0  0  0  0  0  0  0  0  0  0
    0.6345  -18.9010   14.6077 H   0  0  0  0  0  0  0  0  0  0  0  0
   -0.4147  -18.6229   12.3592 H   0  0  0  0  0  0  0  0  0  0  0  0
    3.1810  -16.7326   10.8798 H   0  0  0  0  0  0  0  0  0  0  0  0
    1.3388  -20.3681   15.6643 H   0  0  0  0  0  0  0  0  0  0  0  0
    6.4806  -16.9054   17.2198 H   0  0  0  0  0  0  0  0  0  0  0  0
    5.8432  -17.8036   18.6394 H   0  0  0  0  0  0  0  0  0  0  0  0
    2.9751  -16.3282   18.4524 H   0  0  0  0  0  0  0  0  0  0  0  0
    3.8916  -16.7076   19.9733 H   0  0  0  0  0  0  0  0  0  0  0  0
    6.2529  -15.9783   20.2123 H   0  0  0  0  0  0  0  0  0  0  0  0
    7.0473  -15.0895   18.8500 H   0  0  0  0  0  0  0  0  0  0  0  0
    6.4186  -13.5796   20.7215 H   0  0  0  0  0  0  0  0  0  0  0  0
    5.5497  -13.1951   19.1738 H   0  0  0  0  0  0  0  0  0  0  0  0
    4.4044  -14.6771   21.5946 H   0  0  0  0  0  0  0  0  0  0  0  0
    2.9987  -13.9552   18.9998 H   0  0  0  0  0  0  0  0  0  0  0  0
    2.3713  -14.8985   20.4226 H   0  0  0  0  0  0  0  0  0  0  0  0
    3.8936  -12.6329   22.1432 H   0  0  0  0  0  0  0  0  0  0  0  0
    4.5838  -12.0051   20.7437 H   0  0  0  0  0  0  0  0  0  0  0  0
 15  1  2  0
  1 11  1  0
  2 14  1  0
 22  3  2  0
  3  7  1  0
 23  4  1  0
  4 24  1  0
  4 25  1  0
 18  5  1  0
  5  6  1  0
  6  8  1  0
  7 21  1  0
  7 23  1  0
  8  9  1  0
 10  9  1  0
 12 11  2  0
 11 22  1  0
 13 12  1  0
 14 13  2  0
 14 15  1  0
 20 16  2  0
 16 17  1  0
 17 18  2  0
 19 18  1  0
 21 19  2  0
 22 20  1  0
 20 21  1  0
 24 28  1  0
 25 26  1  0
 26 27  1  0
 28 27  1  0
 27 29  1  0
  1 30  1  0
  4 31  1  0
  5 32  1  0
  6 33  1  0
  6 34  1  0
  8 35  1  0
  8 36  1  0
  9 37  1  0
  9 38  1  0
 10 39  1  0
 10 40  1  0
 10 41  1  0
 12 42  1  0
 13 43  1  0
 15 44  1  0
 16 45  1  0
 23 46  1  0
 23 47  1  0
 24 48  1  0
 24 49  1  0
 25 50  1  0
 25 51  1  0
 26 52  1  0
 26 53  1  0
 27 54  1  0
 28 55  1  0
 28 56  1  0
 29 57  1  0
 29 58  1  0
A    1
C
A    2
F
A    3
N
A    4
C01
A    5
N01
A    6
C02
A    7
N02
A    8
C03
A    9
C04
A   10
C05
A   11
C06
A   12
C07
A   13
C08
A   14
C09
A   15
C10
A   16
C23
A   17
N24
A   18
C25
A   19
N26
A   20
C27
A   21
C28
A   22
C31
A   23
C32
A   24
C33
A   25
C35
A   26
C36
A   27
C37
A   28
C38
A   29
N39
M  END
