3TCT_3MI_A_128
     RDKit          3D

 27 29  0  0  0  0  0  0  0  0999 V2000
    0.6100   -1.0360    0.4330 O   0  0  0  0  0  0  0  0  0  0  0  0
    2.2530   -2.0740   -0.6340 O   0  0  0  0  0  0  0  0  0  0  0  0
   -0.0630    0.4020   -1.8210 C   0  0  0  0  0  0  0  0  0  0  0  0
   -0.5380    1.0350   -2.9580 C   0  0  0  0  0  0  0  0  0  0  0  0
   -0.0700   -0.0250  -10.4080 C   0  0  0  0  0  0  0  0  0  0  0  0
   -0.3970    1.1700   -8.3640 C   0  0  0  0  0  0  0  0  0  0  0  0
    0.3050   -1.1730   -8.3510 C   0  0  0  0  0  0  0  0  0  0  0  0
    1.0980   -1.2750   -3.1550 C   0  0  0  0  0  0  0  0  0  0  0  0
   -0.5380    0.8830   -5.4330 N   0  0  0  0  0  0  0  0  0  0  0  0
    0.6900   -0.9510   -5.6040 O   0  0  0  0  0  0  0  0  0  0  0  0
    1.2510   -1.3330   -0.6040 C   0  0  0  0  0  0  0  0  0  0  0  0
   -0.4150    1.1300   -9.7300 C   0  0  0  0  0  0  0  0  0  0  0  0
    0.2880   -1.1650   -9.7170 C   0  0  0  0  0  0  0  0  0  0  0  0
    0.7640   -0.7080   -1.9130 C   0  0  0  0  0  0  0  0  0  0  0  0
   -0.0460    0.0030   -7.6950 C   0  0  0  0  0  0  0  0  0  0  0  0
   -0.0030    0.0110   -6.2930 C   0  0  0  0  0  0  0  0  0  0  0  0
   -0.2270    0.4890   -4.1900 C   0  0  0  0  0  0  0  0  0  0  0  0
    0.5810   -0.6430   -4.2790 C   0  0  0  0  0  0  0  0  0  0  0  0
   -0.8250    2.5390  -10.6170 Cl  0  0  0  0  0  0  0  0  0  0  0  0
    0.6920   -2.5930  -10.5760 Cl  0  0  0  0  0  0  0  0  0  0  0  0
    1.0000   -1.2167    1.3248 H   0  0  0  0  0  0  0  0  0  0  0  0
   -0.3460    0.7855   -0.8296 H   0  0  0  0  0  0  0  0  0  0  0  0
   -1.1467    1.9482   -2.8829 H   0  0  0  0  0  0  0  0  0  0  0  0
   -0.0810   -0.0352  -11.5079 H   0  0  0  0  0  0  0  0  0  0  0  0
   -0.6502    2.0893   -7.8156 H   0  0  0  0  0  0  0  0  0  0  0  0
    0.5860   -2.0764   -7.7899 H   0  0  0  0  0  0  0  0  0  0  0  0
    1.7335   -2.1695   -3.2327 H   0  0  0  0  0  0  0  0  0  0  0  0
 11  1  1  0
  2 11  2  0
  4  3  2  0
 14  3  1  0
 17  4  1  0
  5 12  2  0
  5 13  1  0
 12  6  1  0
  6 15  2  0
 13  7  2  0
  7 15  1  0
 18  8  1  0
  8 14  2  0
 16  9  2  0
  9 17  1  0
 16 10  1  0
 10 18  1  0
 14 11  1  0
 19 12  1  0
 20 13  1  0
 15 16  1  0
 18 17  2  0
  1 21  1  0
  3 22  1  0
  4 23  1  0
  5 24  1  0
  6 25  1  0
  7 26  1  0
  8 27  1  0
A    1
OAA
A    2
OAB
A    3
CAE
A    4
CAF
A    5
CAG
A    6
CAH
A    7
CAI
A    8
CAJ
A    9
NAK
A   10
OAL
A   11
CAM
A   12
CAN
A   13
CAO
A   14
CAP
A   15
CAQ
A   16
CAR
A   17
CAS
A   18
CAT
A   19
CLC
A   20
CLD
M  END
