3TD8_D2R_A_302
     RDKit          3D

 53 55  0  0  0  0  0  0  0  0999 V2000
   10.3280   -1.2690   13.1140 N   0  0  0  0  0  0  0  0  0  0  0  0
   10.6290   -2.1000   12.1000 C   0  0  0  0  0  0  0  0  0  0  0  0
   11.6560   -1.8720   11.2790 N   0  0  0  0  0  0  0  0  0  0  0  0
   12.3830   -0.7550   11.4300 C   0  0  0  0  0  0  0  0  0  0  0  0
   12.1480    0.1490   12.5120 C   0  0  0  0  0  0  0  0  0  0  0  0
   11.0600   -0.1900   13.4000 C   0  0  0  0  0  0  0  0  0  0  0  0
   18.1600    2.3660   15.4310 C   0  0  0  0  0  0  0  0  0  0  0  0
   12.8520    2.4190   13.7090 C   0  0  0  0  0  0  0  0  0  0  0  0
    9.8870   -3.2100   11.8780 N   0  0  0  0  0  0  0  0  0  0  0  0
   10.7220    0.5680   14.4510 N   0  0  0  0  0  0  0  0  0  0  0  0
   11.5420    4.9540    7.0480 O   0  0  0  0  0  0  0  0  0  0  0  0
   12.0690    6.5540    5.6200 O   0  0  0  0  0  0  0  0  0  0  0  0
   16.2630    3.3810    8.3950 C   0  0  0  0  0  0  0  0  0  0  0  0
   16.7330    3.0650    9.4700 C   0  0  0  0  0  0  0  0  0  0  0  0
   19.1820    2.0170   12.0960 C   0  0  0  0  0  0  0  0  0  0  0  0
   18.6620    2.4060   10.8630 C   0  0  0  0  0  0  0  0  0  0  0  0
   14.1290    0.5520   10.6830 C   0  0  0  0  0  0  0  0  0  0  0  0
   16.9190    2.1510   13.0570 C   0  0  0  0  0  0  0  0  0  0  0  0
   15.7670    3.7770    7.0630 C   0  0  0  0  0  0  0  0  0  0  0  0
   14.2800    4.0420    7.1810 C   0  0  0  0  0  0  0  0  0  0  0  0
   13.8040    5.0530    6.1520 C   0  0  0  0  0  0  0  0  0  0  0  0
   14.9320    2.7700   11.6970 C   0  0  0  0  0  0  0  0  0  0  0  0
   13.3720   -0.5460   10.5490 N   0  0  0  0  0  0  0  0  0  0  0  0
   18.7740    1.5370   14.4300 O   0  0  0  0  0  0  0  0  0  0  0  0
   12.3590    5.5540    6.3010 C   0  0  0  0  0  0  0  0  0  0  0  0
   12.9640    1.3230   12.6220 C   0  0  0  0  0  0  0  0  0  0  0  0
   18.2950    1.9090   13.2040 C   0  0  0  0  0  0  0  0  0  0  0  0
   17.2810    2.6560   10.7320 C   0  0  0  0  0  0  0  0  0  0  0  0
   13.9930    1.5120   11.6850 C   0  0  0  0  0  0  0  0  0  0  0  0
   16.4050    2.5040   11.8220 C   0  0  0  0  0  0  0  0  0  0  0  0
   18.4332    1.9971   16.4306 H   0  0  0  0  0  0  0  0  0  0  0  0
   18.5102    3.4022   15.3142 H   0  0  0  0  0  0  0  0  0  0  0  0
   17.0667    2.3331   15.3142 H   0  0  0  0  0  0  0  0  0  0  0  0
   12.8995    1.9540   14.7048 H   0  0  0  0  0  0  0  0  0  0  0  0
   13.6819    3.1323   13.5974 H   0  0  0  0  0  0  0  0  0  0  0  0
   11.8949    2.9497   13.5974 H   0  0  0  0  0  0  0  0  0  0  0  0
    9.5234   -3.7540   12.6735 H   0  0  0  0  0  0  0  0  0  0  0  0
    9.6860   -3.5107   10.9136 H   0  0  0  0  0  0  0  0  0  0  0  0
   10.8771    0.2201   15.4080 H   0  0  0  0  0  0  0  0  0  0  0  0
   10.3069    1.4989   14.3024 H   0  0  0  0  0  0  0  0  0  0  0  0
   11.8229    7.4026    6.0666 H   0  0  0  0  0  0  0  0  0  0  0  0
   20.2539    1.7983   12.2104 H   0  0  0  0  0  0  0  0  0  0  0  0
   19.3275    2.5177    9.9943 H   0  0  0  0  0  0  0  0  0  0  0  0
   14.9246    0.7090    9.9398 H   0  0  0  0  0  0  0  0  0  0  0  0
   16.2494    2.0597   13.9249 H   0  0  0  0  0  0  0  0  0  0  0  0
   16.2837    4.6882    6.7272 H   0  0  0  0  0  0  0  0  0  0  0  0
   15.9576    2.9793    6.3299 H   0  0  0  0  0  0  0  0  0  0  0  0
   13.7369    3.0974    7.0299 H   0  0  0  0  0  0  0  0  0  0  0  0
   14.0845    4.4546    8.1818 H   0  0  0  0  0  0  0  0  0  0  0  0
   14.4687    5.9275    6.2103 H   0  0  0  0  0  0  0  0  0  0  0  0
   13.8305    4.5226    5.1887 H   0  0  0  0  0  0  0  0  0  0  0  0
   14.7696    3.3176   10.7569 H   0  0  0  0  0  0  0  0  0  0  0  0
   14.6586    3.3295   12.6038 H   0  0  0  0  0  0  0  0  0  0  0  0
  2  1  2  0
  1  6  1  0
  3  2  1  0
  9  2  1  0
  3  4  2  0
 23  4  1  0
  4  5  1  0
  5 26  1  0
  5  6  2  0
  6 10  1  0
 24  7  1  0
 26  8  1  0
 11 25  2  0
 25 12  1  0
 19 13  1  0
 13 14  3  0
 14 28  1  0
 16 15  2  0
 15 27  1  0
 28 16  1  0
 23 17  2  0
 17 29  1  0
 30 18  1  0
 18 27  2  0
 19 20  1  0
 21 20  1  0
 21 25  1  0
 29 22  1  0
 22 30  1  0
 27 24  1  0
 29 26  2  0
 28 30  2  0
  7 31  1  0
  7 32  1  0
  7 33  1  0
  8 34  1  0
  8 35  1  0
  8 36  1  0
  9 37  1  0
  9 38  1  0
 10 39  1  0
 10 40  1  0
 12 41  1  0
 15 42  1  0
 16 43  1  0
 17 44  1  0
 18 45  1  0
 19 46  1  0
 19 47  1  0
 20 48  1  0
 20 49  1  0
 21 50  1  0
 21 51  1  0
 22 52  1  0
 22 53  1  0
A    1
N1
A    2
C2
A    3
N3
A    4
C4
A    5
C5
A    6
C6
A    7
CAA
A    8
CAB
A    9
NAC
A   10
NAD
A   11
OAE
A   12
OAF
A   13
CAG
A   14
CAH
A   15
CAI
A   16
CAJ
A   17
CAK
A   18
CAL
A   19
CAM
A   20
CAN
A   21
CAO
A   22
CAP
A   23
NAQ
A   24
OAT
A   25
CAU
A   26
CAX
A   27
CAY
A   28
CAZ
A   29
CBA
A   30
CBB
M  END
