3TDT_26P_A_281
     RDKit          3D

 24 23  0  0  0  0  0  0  0  0999 V2000
   14.6240    3.6980    1.2680 C   0  0  0  0  0  0  0  0  0  0  0  0
   14.7200    2.6580    0.6280 O   0  0  0  0  0  0  0  0  0  0  0  0
   15.5860    4.1860    2.0160 O   0  0  0  0  0  0  0  0  0  0  0  0
   13.3320    4.4840    1.2010 C   0  0  0  0  0  0  0  0  0  0  0  0
   12.9890    4.9160    2.5530 N   0  0  0  0  0  0  0  0  0  0  0  0
   13.5770    5.6920    0.3090 C   0  0  0  0  0  0  0  0  0  0  0  0
   13.8210    5.2420   -1.1090 C   0  0  0  0  0  0  0  0  0  0  0  0
   13.9980    6.4150   -2.0330 C   0  0  0  0  0  0  0  0  0  0  0  0
   14.2990    5.9840   -3.4370 C   0  0  0  0  0  0  0  0  0  0  0  0
   14.4970    4.8080   -3.7370 O   0  0  0  0  0  0  0  0  0  0  0  0
   14.3960    7.0020   -4.5420 C   0  0  0  0  0  0  0  0  0  0  0  0
   14.2850    6.5930   -5.6920 O   0  0  0  0  0  0  0  0  0  0  0  0
   14.5620    8.2560   -4.2290 O   0  0  0  0  0  0  0  0  0  0  0  0
   15.5131    4.1490    3.0026 H   0  0  0  0  0  0  0  0  0  0  0  0
   12.5071    3.8803    0.7948 H   0  0  0  0  0  0  0  0  0  0  0  0
   13.4675    4.3134    3.2377 H   0  0  0  0  0  0  0  0  0  0  0  0
   13.2874    5.8926    2.6875 H   0  0  0  0  0  0  0  0  0  0  0  0
   12.6960    6.3501    0.3363 H   0  0  0  0  0  0  0  0  0  0  0  0
   14.4602    6.2375    0.6728 H   0  0  0  0  0  0  0  0  0  0  0  0
   14.7303    4.6237   -1.1370 H   0  0  0  0  0  0  0  0  0  0  0  0
   12.9468    4.6650   -1.4449 H   0  0  0  0  0  0  0  0  0  0  0  0
   13.0719    7.0086   -2.0346 H   0  0  0  0  0  0  0  0  0  0  0  0
   14.8503    7.0079   -1.6697 H   0  0  0  0  0  0  0  0  0  0  0  0
   14.5980    8.5282   -3.2778 H   0  0  0  0  0  0  0  0  0  0  0  0
  1  2  2  0
  1  3  1  0
  1  4  1  0
  4  5  1  0
  4  6  1  0
  6  7  1  0
  7  8  1  0
  8  9  1  0
  9 10  2  0
  9 11  1  0
 11 12  2  0
 11 13  1  0
  3 14  1  0
  4 15  1  0
  5 16  1  0
  5 17  1  0
  6 18  1  0
  6 19  1  0
  7 20  1  0
  7 21  1  0
  8 22  1  0
  8 23  1  0
 13 24  1  0
A    1
C1
A    2
O11
A    3
O12
A    4
C2
A    5
N2
A    6
C3
A    7
C4
A    8
C5
A    9
C6
A   10
O6
A   11
C7
A   12
O71
A   13
O72
M  END
