3TE7_TE7_A_1
     RDKit          3D

 45 48  0  0  0  0  0  0  0  0999 V2000
   -1.7370   10.3780   16.9290 C   0  0  0  0  0  0  0  0  0  0  0  0
   -8.8610    0.4860   12.8120 C   0  0  0  0  0  0  0  0  0  0  0  0
   -8.6790    2.8000   12.5940 C   0  0  0  0  0  0  0  0  0  0  0  0
   -5.1190    6.0020   14.3270 O   0  0  0  0  0  0  0  0  0  0  0  0
   -1.7370    7.8710   17.2790 C   0  0  0  0  0  0  0  0  0  0  0  0
   -4.3560    1.8160   14.6480 C   0  0  0  0  0  0  0  0  0  0  0  0
   -3.3370    1.4270   15.5160 C   0  0  0  0  0  0  0  0  0  0  0  0
   -1.6100    6.5060   17.3230 C   0  0  0  0  0  0  0  0  0  0  0  0
   -1.4270    3.7160   17.3060 C   0  0  0  0  0  0  0  0  0  0  0  0
   -3.5450    7.6300   15.7560 C   0  0  0  0  0  0  0  0  0  0  0  0
   -6.4570    2.4490   13.0700 C   0  0  0  0  0  0  0  0  0  0  0  0
   -7.2970    1.7610   14.1290 C   0  0  0  0  0  0  0  0  0  0  0  0
   -1.6390    2.4660   17.0710 N   0  0  0  0  0  0  0  0  0  0  0  0
   -5.6650    3.4640   13.6520 N   0  0  0  0  0  0  0  0  0  0  0  0
   -2.8930    9.7380   16.4430 O   0  0  0  0  0  0  0  0  0  0  0  0
   -2.7320    8.4280   16.4960 C   0  0  0  0  0  0  0  0  0  0  0  0
   -4.7230    3.1380   14.4620 C   0  0  0  0  0  0  0  0  0  0  0  0
   -4.2480    5.4960   15.0140 C   0  0  0  0  0  0  0  0  0  0  0  0
   -2.6360    2.4070   16.1730 C   0  0  0  0  0  0  0  0  0  0  0  0
   -3.4120    6.2930   15.7910 C   0  0  0  0  0  0  0  0  0  0  0  0
   -2.4470    5.7440   16.5880 C   0  0  0  0  0  0  0  0  0  0  0  0
   -4.0320    4.1380   15.1070 C   0  0  0  0  0  0  0  0  0  0  0  0
   -3.0190    3.6960   15.9460 C   0  0  0  0  0  0  0  0  0  0  0  0
   -8.6080    1.7020   13.5550 N   0  0  0  0  0  0  0  0  0  0  0  0
   -2.2560    4.4530   16.6490 N   0  0  0  0  0  0  0  0  0  0  0  0
   -1.7491   10.3713   18.0289 H   0  0  0  0  0  0  0  0  0  0  0  0
   -0.8443    9.8456   16.5689 H   0  0  0  0  0  0  0  0  0  0  0  0
   -1.7144   11.4171   16.5689 H   0  0  0  0  0  0  0  0  0  0  0  0
   -9.0335   -0.3433   13.5138 H   0  0  0  0  0  0  0  0  0  0  0  0
   -9.7502    0.6215   12.1788 H   0  0  0  0  0  0  0  0  0  0  0  0
   -7.9916    0.2556   12.1788 H   0  0  0  0  0  0  0  0  0  0  0  0
   -8.7408    3.7564   13.1339 H   0  0  0  0  0  0  0  0  0  0  0  0
   -7.7785    2.7931   11.9622 H   0  0  0  0  0  0  0  0  0  0  0  0
   -9.5711    2.6772   11.9622 H   0  0  0  0  0  0  0  0  0  0  0  0
   -1.0574    8.5135   17.8580 H   0  0  0  0  0  0  0  0  0  0  0  0
   -4.8926    1.0377   14.0856 H   0  0  0  0  0  0  0  0  0  0  0  0
   -3.1012    0.3637   15.6701 H   0  0  0  0  0  0  0  0  0  0  0  0
   -0.8359    6.0384   17.9493 H   0  0  0  0  0  0  0  0  0  0  0  0
   -0.6446    4.1014   17.9764 H   0  0  0  0  0  0  0  0  0  0  0  0
   -4.3207    8.0830   15.1212 H   0  0  0  0  0  0  0  0  0  0  0  0
   -7.1205    2.8954   12.3146 H   0  0  0  0  0  0  0  0  0  0  0  0
   -5.7958    1.7057   12.6006 H   0  0  0  0  0  0  0  0  0  0  0  0
   -6.9150    0.7500   14.3337 H   0  0  0  0  0  0  0  0  0  0  0  0
   -7.2821    2.2948   15.0907 H   0  0  0  0  0  0  0  0  0  0  0  0
   -5.8410    4.4541   13.4293 H   0  0  0  0  0  0  0  0  0  0  0  0
 15  1  1  0
  2 24  1  0
  3 24  1  0
  4 18  2  0
 16  5  2  0
  5  8  1  0
 17  6  1  0
  6  7  2  0
  7 19  1  0
 21  8  2  0
 25  9  1  0
 13  9  2  0
 10 20  2  0
 10 16  1  0
 11 14  1  0
 11 12  1  0
 24 12  1  0
 19 13  1  0
 14 17  1  0
 15 16  1  0
 17 22  2  0
 18 22  1  0
 18 20  1  0
 23 19  2  0
 20 21  1  0
 21 25  1  0
 22 23  1  0
 23 25  1  0
  1 26  1  0
  1 27  1  0
  1 28  1  0
  2 29  1  0
  2 30  1  0
  2 31  1  0
  3 32  1  0
  3 33  1  0
  3 34  1  0
  5 35  1  0
  6 36  1  0
  7 37  1  0
  8 38  1  0
  9 39  1  0
 10 40  1  0
 11 41  1  0
 11 42  1  0
 12 43  1  0
 12 44  1  0
 14 45  1  0
A    1
CAA
A    2
CAB
A    3
CAC
A    4
OAD
A    5
CAE
A    6
CAF
A    7
CAG
A    8
CAH
A    9
CAI
A   10
CAJ
A   11
CAK
A   12
CAL
A   13
NAM
A   14
NAN
A   15
OAO
A   16
CAP
A   17
CAQ
A   18
CAR
A   19
CAS
A   20
CAT
A   21
CAU
A   22
CAV
A   23
CAW
A   24
NAX
A   25
NAY
M  END
