3TFN_2CJ_A_301
     RDKit          3D

 63 66  0  0  0  0  0  0  0  0999 V2000
    6.0010   21.1640    5.6370 O   0  0  0  0  0  0  0  0  0  0  0  0
    2.0990   23.8690    7.6700 O   0  0  0  0  0  0  0  0  0  0  0  0
    7.2810   21.9940    7.1850 O   0  0  0  0  0  0  0  0  0  0  0  0
   -4.4530   29.5170    8.2570 C   0  0  0  0  0  0  0  0  0  0  0  0
   -1.2460   29.9900    2.8400 C   0  0  0  0  0  0  0  0  0  0  0  0
   -3.4110   30.1130    8.8770 C   0  0  0  0  0  0  0  0  0  0  0  0
   -4.2150   28.6750    7.2120 C   0  0  0  0  0  0  0  0  0  0  0  0
   -1.8510   28.8670    3.3480 C   0  0  0  0  0  0  0  0  0  0  0  0
   -0.3920   30.7400    3.6070 C   0  0  0  0  0  0  0  0  0  0  0  0
   -2.1520   29.8650    8.4190 C   0  0  0  0  0  0  0  0  0  0  0  0
   -2.9530   28.4400    6.7530 C   0  0  0  0  0  0  0  0  0  0  0  0
   -1.6200   28.4690    4.6410 C   0  0  0  0  0  0  0  0  0  0  0  0
   -0.1660   30.3500    4.8940 C   0  0  0  0  0  0  0  0  0  0  0  0
    2.6910   21.3420    4.8520 C   0  0  0  0  0  0  0  0  0  0  0  0
    4.0930   21.2180    4.3640 C   0  0  0  0  0  0  0  0  0  0  0  0
    2.8360   27.2930    6.9880 C   0  0  0  0  0  0  0  0  0  0  0  0
    1.4420   26.2840    8.7390 C   0  0  0  0  0  0  0  0  0  0  0  0
    1.5740   27.9630    6.4000 C   0  0  0  0  0  0  0  0  0  0  0  0
    0.7630   27.6380    8.5700 C   0  0  0  0  0  0  0  0  0  0  0  0
    2.8740   22.0050    6.2170 C   0  0  0  0  0  0  0  0  0  0  0  0
    4.5510   22.6410    4.6520 C   0  0  0  0  0  0  0  0  0  0  0  0
    5.0620   22.7740    7.0270 C   0  0  0  0  0  0  0  0  0  0  0  0
    3.5040   24.4940    5.9290 C   0  0  0  0  0  0  0  0  0  0  0  0
    6.2160   21.9270    6.5630 C   0  0  0  0  0  0  0  0  0  0  0  0
    2.6110   24.8150    7.1140 C   0  0  0  0  0  0  0  0  0  0  0  0
   -1.9100   29.0070    7.4090 C   0  0  0  0  0  0  0  0  0  0  0  0
   -0.7480   29.1970    5.4140 C   0  0  0  0  0  0  0  0  0  0  0  0
   -0.4880   28.8700    6.8990 C   0  0  0  0  0  0  0  0  0  0  0  0
    2.3530   26.0470    7.5970 N   0  0  0  0  0  0  0  0  0  0  0  0
    0.3370   27.6960    7.1750 N   0  0  0  0  0  0  0  0  0  0  0  0
    3.9930   23.0090    5.9750 C   0  0  0  0  0  0  0  0  0  0  0  0
    7.2769   21.9937    8.1750 H   0  0  0  0  0  0  0  0  0  0  0  0
   -5.4829   29.7093    8.5922 H   0  0  0  0  0  0  0  0  0  0  0  0
   -1.4495   30.2925    1.8022 H   0  0  0  0  0  0  0  0  0  0  0  0
   -3.5755   30.7839    9.7330 H   0  0  0  0  0  0  0  0  0  0  0  0
   -5.0638   28.1717    6.7260 H   0  0  0  0  0  0  0  0  0  0  0  0
   -2.5287   28.2795    2.7112 H   0  0  0  0  0  0  0  0  0  0  0  0
    0.0986   31.6340    3.1944 H   0  0  0  0  0  0  0  0  0  0  0  0
   -1.3038   30.3833    8.8902 H   0  0  0  0  0  0  0  0  0  0  0  0
   -2.7844   27.8050    5.8707 H   0  0  0  0  0  0  0  0  0  0  0  0
   -2.1245   27.5820    5.0516 H   0  0  0  0  0  0  0  0  0  0  0  0
    0.4894   30.9587    5.5343 H   0  0  0  0  0  0  0  0  0  0  0  0
    2.0906   21.9734    4.1805 H   0  0  0  0  0  0  0  0  0  0  0  0
    2.1561   20.3819    4.8987 H   0  0  0  0  0  0  0  0  0  0  0  0
    4.6673   20.4731    4.9343 H   0  0  0  0  0  0  0  0  0  0  0  0
    4.2116   20.8761    3.3252 H   0  0  0  0  0  0  0  0  0  0  0  0
    3.5659   27.0780    6.1936 H   0  0  0  0  0  0  0  0  0  0  0  0
    3.3467   27.9395    7.7169 H   0  0  0  0  0  0  0  0  0  0  0  0
    2.0180   26.2763    9.6761 H   0  0  0  0  0  0  0  0  0  0  0  0
    0.6799   25.4915    8.7726 H   0  0  0  0  0  0  0  0  0  0  0  0
    1.7389   29.0503    6.3740 H   0  0  0  0  0  0  0  0  0  0  0  0
    1.4223   27.5357    5.3978 H   0  0  0  0  0  0  0  0  0  0  0  0
   -0.1059   27.7174    9.2398 H   0  0  0  0  0  0  0  0  0  0  0  0
    1.4417   28.4663    8.8216 H   0  0  0  0  0  0  0  0  0  0  0  0
    1.9514   22.5129    6.5346 H   0  0  0  0  0  0  0  0  0  0  0  0
    3.1080   21.2857    7.0157 H   0  0  0  0  0  0  0  0  0  0  0  0
    5.6497   22.6876    4.6778 H   0  0  0  0  0  0  0  0  0  0  0  0
    4.2053   23.3336    3.8704 H   0  0  0  0  0  0  0  0  0  0  0  0
    4.5934   22.2749    7.8880 H   0  0  0  0  0  0  0  0  0  0  0  0
    5.4781   23.7610    7.2773 H   0  0  0  0  0  0  0  0  0  0  0  0
    2.9390   24.6570    4.9994 H   0  0  0  0  0  0  0  0  0  0  0  0
    4.3846   25.1520    5.9682 H   0  0  0  0  0  0  0  0  0  0  0  0
    0.2063   29.5127    7.4601 H   0  0  0  0  0  0  0  0  0  0  0  0
  1 24  2  0
  2 25  2  0
  3 24  1  0
  4  6  2  0
  4  7  1  0
  5  8  2  0
  5  9  1  0
  6 10  1  0
  7 11  2  0
  8 12  1  0
  9 13  2  0
 10 26  2  0
 11 26  1  0
 12 27  2  0
 13 27  1  0
 14 15  1  0
 14 20  1  0
 15 21  1  0
 16 18  1  0
 16 29  1  0
 17 19  1  0
 17 29  1  0
 18 30  1  0
 19 30  1  0
 20 31  1  0
 21 31  1  0
 22 24  1  0
 22 31  1  0
 23 25  1  0
 23 31  1  0
 25 29  1  0
 26 28  1  0
 27 28  1  0
 28 30  1  0
  3 32  1  0
  4 33  1  0
  5 34  1  0
  6 35  1  0
  7 36  1  0
  8 37  1  0
  9 38  1  0
 10 39  1  0
 11 40  1  0
 12 41  1  0
 13 42  1  0
 14 43  1  0
 14 44  1  0
 15 45  1  0
 15 46  1  0
 16 47  1  0
 16 48  1  0
 17 49  1  0
 17 50  1  0
 18 51  1  0
 18 52  1  0
 19 53  1  0
 19 54  1  0
 20 55  1  0
 20 56  1  0
 21 57  1  0
 21 58  1  0
 22 59  1  0
 22 60  1  0
 23 61  1  0
 23 62  1  0
 28 63  1  0
A    1
OAA
A    2
OAB
A    3
OAC
A    4
CAD
A    5
CAE
A    6
CAF
A    7
CAG
A    8
CAH
A    9
CAI
A   10
CAJ
A   11
CAK
A   12
CAL
A   13
CAM
A   14
CAN
A   15
CAO
A   16
CAP
A   17
CAQ
A   18
CAR
A   19
CAS
A   20
CAT
A   21
CAU
A   22
CAV
A   23
CAW
A   24
CAX
A   25
CAY
A   26
CAZ
A   27
CBA
A   28
CBB
A   29
NBC
A   30
NBD
A   31
CBE
M  END
