3TG6_0MM_A_1
     RDKit          3D

 48 51  0  0  0  0  0  0  0  0999 V2000
   25.8580  -33.5330   21.1210 C   0  0  0  0  0  0  0  0  0  0  0  0
   24.7620  -34.2530   21.5830 C   0  0  0  0  0  0  0  0  0  0  0  0
   26.4590  -35.7110   15.4720 C   0  0  0  0  0  0  0  0  0  0  0  0
   27.2230  -35.0840   14.4880 C   0  0  0  0  0  0  0  0  0  0  0  0
   25.5320  -33.3870   14.2490 C   0  0  0  0  0  0  0  0  0  0  0  0
   26.9600  -34.2430   20.6820 C   0  0  0  0  0  0  0  0  0  0  0  0
   24.7940  -35.6420   21.5970 C   0  0  0  0  0  0  0  0  0  0  0  0
   22.9140  -37.3810   21.4270 C   0  0  0  0  0  0  0  0  0  0  0  0
   25.2270  -35.1750   15.8460 C   0  0  0  0  0  0  0  0  0  0  0  0
   26.7530  -33.9220   13.8820 C   0  0  0  0  0  0  0  0  0  0  0  0
   24.7760  -34.0150   15.2240 C   0  0  0  0  0  0  0  0  0  0  0  0
   23.6490  -36.3690   22.0790 C   0  0  0  0  0  0  0  0  0  0  0  0
   21.9390  -37.7160   22.3370 C   0  0  0  0  0  0  0  0  0  0  0  0
   25.9470  -36.2600   21.1400 C   0  0  0  0  0  0  0  0  0  0  0  0
   23.0820  -38.0060   20.1070 C   0  0  0  0  0  0  0  0  0  0  0  0
   24.1600  -35.0830   18.0730 C   0  0  0  0  0  0  0  0  0  0  0  0
   24.6190  -37.2680   16.9780 C   0  0  0  0  0  0  0  0  0  0  0  0
   23.1380  -35.7730   18.9870 C   0  0  0  0  0  0  0  0  0  0  0  0
   23.3510  -37.8070   17.6180 C   0  0  0  0  0  0  0  0  0  0  0  0
   20.8310  -38.6800   22.3480 C   0  0  0  0  0  0  0  0  0  0  0  0
   27.0320  -35.5910   20.6800 N   0  0  0  0  0  0  0  0  0  0  0  0
   23.1560  -36.1000   23.2890 N   0  0  0  0  0  0  0  0  0  0  0  0
   24.4710  -35.8230   16.8330 N   0  0  0  0  0  0  0  0  0  0  0  0
   23.1930  -37.2350   18.9530 N   0  0  0  0  0  0  0  0  0  0  0  0
   27.4890  -33.2490   12.8800 N   0  0  0  0  0  0  0  0  0  0  0  0
   28.6080  -33.7020   12.5150 O   0  0  0  0  0  0  0  0  0  0  0  0
   23.1120  -39.2310   20.1040 O   0  0  0  0  0  0  0  0  0  0  0  0
   26.9810  -32.2060   12.3880 O   0  0  0  0  0  0  0  0  0  0  0  0
   22.0690  -36.9560   23.4520 O   0  0  0  0  0  0  0  0  0  0  0  0
   23.2740  -33.2890   15.6140 Cl  0  0  0  0  0  0  0  0  0  0  0  0
   26.1250  -37.9830   21.1050 Cl  0  0  0  0  0  0  0  0  0  0  0  0
   25.8486  -32.4332   21.1053 H   0  0  0  0  0  0  0  0  0  0  0  0
   23.8670  -33.7215   21.9385 H   0  0  0  0  0  0  0  0  0  0  0  0
   26.8283  -36.6286   15.9533 H   0  0  0  0  0  0  0  0  0  0  0  0
   28.1944  -35.5064   14.1915 H   0  0  0  0  0  0  0  0  0  0  0  0
   25.1636  -32.4682   13.7693 H   0  0  0  0  0  0  0  0  0  0  0  0
   27.8281  -33.6770   20.3131 H   0  0  0  0  0  0  0  0  0  0  0  0
   23.7603  -34.0970   17.7936 H   0  0  0  0  0  0  0  0  0  0  0  0
   25.0983  -35.0209   18.6438 H   0  0  0  0  0  0  0  0  0  0  0  0
   25.4849  -37.4923   17.6182 H   0  0  0  0  0  0  0  0  0  0  0  0
   24.7807  -37.7364   15.9959 H   0  0  0  0  0  0  0  0  0  0  0  0
   23.3228  -35.4449   20.0205 H   0  0  0  0  0  0  0  0  0  0  0  0
   22.1416  -35.4858   18.6201 H   0  0  0  0  0  0  0  0  0  0  0  0
   22.4840  -37.5345   16.9983 H   0  0  0  0  0  0  0  0  0  0  0  0
   23.4189  -38.9021   17.6961 H   0  0  0  0  0  0  0  0  0  0  0  0
   20.5602  -38.9156   23.3878 H   0  0  0  0  0  0  0  0  0  0  0  0
   19.9619  -38.2456   21.8322 H   0  0  0  0  0  0  0  0  0  0  0  0
   21.1410  -39.6008   21.8322 H   0  0  0  0  0  0  0  0  0  0  0  0
  1  2  2  0
  1  6  1  0
  2  7  1  0
  3  4  2  0
  3  9  1  0
  4 10  1  0
  5 10  2  0
  5 11  1  0
  6 21  2  0
  7 12  1  0
  7 14  2  0
  8 12  1  0
  8 13  2  0
  8 15  1  0
  9 11  2  0
  9 23  1  0
 10 25  1  0
 11 30  1  0
 12 22  2  0
 13 20  1  0
 13 29  1  0
 14 21  1  0
 14 31  1  0
 15 24  1  0
 15 27  2  0
 16 18  1  0
 16 23  1  0
 17 19  1  0
 17 23  1  0
 18 24  1  0
 19 24  1  0
 22 29  1  0
 25 26  2  0
 25 28  1  0
  1 32  1  0
  2 33  1  0
  3 34  1  0
  4 35  1  0
  5 36  1  0
  6 37  1  0
 16 38  1  0
 16 39  1  0
 17 40  1  0
 17 41  1  0
 18 42  1  0
 18 43  1  0
 19 44  1  0
 19 45  1  0
 20 46  1  0
 20 47  1  0
 20 48  1  0
M  CHG  2  25   1  28  -1
A    1
C1
A    2
C2
A    3
C3
A    4
C4
A    5
C5
A    6
C6
A    7
C7
A    8
C8
A    9
C9
A   10
C10
A   11
C11
A   12
C12
A   13
C13
A   14
C14
A   15
C15
A   16
C16
A   17
C17
A   18
C18
A   19
C19
A   20
C20
A   21
N21
A   22
N22
A   23
N23
A   24
N24
A   25
N25
A   26
O26
A   27
O27
A   28
O28
A   29
O29
A   30
CL30
A   31
CL31
M  END
