2AJC_AES_A_801
     RDKit          3D

 23 23  0  0  0  0  0  0  0  0999 V2000
   -7.4150   23.1850    5.3930 C   0  0  0  0  0  0  0  0  0  0  0  0
   -7.8330   24.0760    4.3870 C   0  0  0  0  0  0  0  0  0  0  0  0
   -6.9690   24.4400    3.3250 C   0  0  0  0  0  0  0  0  0  0  0  0
   -7.5890   25.5680    2.0810 S   0  0  0  0  0  0  0  0  0  0  0  0
   -6.5210   25.7680    1.0720 O   0  0  0  0  0  0  0  0  0  0  0  0
   -8.0990   26.7860    2.7050 O   0  0  0  0  0  0  0  0  0  0  0  0
   -5.6430   23.8920    3.2690 C   0  0  0  0  0  0  0  0  0  0  0  0
   -5.2120   22.9770    4.2940 C   0  0  0  0  0  0  0  0  0  0  0  0
   -6.1140   22.6270    5.3590 C   0  0  0  0  0  0  0  0  0  0  0  0
   -5.6990   21.6510    6.4590 C   0  0  0  0  0  0  0  0  0  0  0  0
   -6.5250   20.3550    6.2920 C   0  0  0  0  0  0  0  0  0  0  0  0
   -5.9680   19.2950    7.1150 N   0  0  0  0  0  0  0  0  0  0  0  0
   -8.1025   22.9207    6.2100 H   0  0  0  0  0  0  0  0  0  0  0  0
   -8.8484   24.4972    4.4260 H   0  0  0  0  0  0  0  0  0  0  0  0
   -8.6714   25.0570    1.4145 H   0  0  0  0  0  0  0  0  0  0  0  0
   -4.9624   24.1687    2.4503 H   0  0  0  0  0  0  0  0  0  0  0  0
   -4.1995   22.5483    4.2630 H   0  0  0  0  0  0  0  0  0  0  0  0
   -4.6266   21.4232    6.3694 H   0  0  0  0  0  0  0  0  0  0  0  0
   -5.8830   22.0938    7.4490 H   0  0  0  0  0  0  0  0  0  0  0  0
   -7.5643   20.5446    6.5983 H   0  0  0  0  0  0  0  0  0  0  0  0
   -6.4949   20.0438    5.2374 H   0  0  0  0  0  0  0  0  0  0  0  0
   -6.0922   19.5314    8.1098 H   0  0  0  0  0  0  0  0  0  0  0  0
   -6.4529   18.4099    6.9093 H   0  0  0  0  0  0  0  0  0  0  0  0
  1  2  2  0
  1  9  1  0
  2  3  1  0
  3  4  1  0
  3  7  2  0
  4  5  2  0
  4  6  2  0
  7  8  1  0
  8  9  2  0
  9 10  1  0
 10 11  1  0
 11 12  1  0
  1 13  1  0
  2 14  1  0
  4 15  1  0
  7 16  1  0
  8 17  1  0
 10 18  1  0
 10 19  1  0
 11 20  1  0
 11 21  1  0
 12 22  1  0
 12 23  1  0
A    1
C3
A    2
C2
A    3
C1
A    4
S
A    5
O1S
A    6
O2S
A    7
C6
A    8
C5
A    9
C4
A   10
C7
A   11
C8
A   12
N8
M  END
