3TH9_9Y9_A_100
     RDKit          3D

 67 69  0  0  0  0  0  0  0  0999 V2000
    9.2940   27.2360    8.4290 C   0  0  0  0  0  0  0  0  0  0  0  0
    8.3830   27.6290    7.4490 C   0  0  0  0  0  0  0  0  0  0  0  0
    8.1240   26.8590    6.2690 C   0  0  0  0  0  0  0  0  0  0  0  0
    9.9620   26.0230    8.2600 C   0  0  0  0  0  0  0  0  0  0  0  0
    7.7290   28.7630    7.6430 F   0  0  0  0  0  0  0  0  0  0  0  0
    8.7970   25.6250    6.0930 C   0  0  0  0  0  0  0  0  0  0  0  0
    9.7340   25.2360    7.0940 C   0  0  0  0  0  0  0  0  0  0  0  0
   10.6470   23.7340    6.9630 S   0  0  0  0  0  0  0  0  0  0  0  0
    8.5200   24.8350    4.8230 C   0  0  0  0  0  0  0  0  0  0  0  0
   11.4890   23.8930    5.5210 N   0  0  0  0  0  0  0  0  0  0  0  0
    9.7060   24.6400    3.8540 C   0  0  0  0  0  0  0  0  0  0  0  0
   10.7950   23.6310    4.2430 C   0  0  0  0  0  0  0  0  0  0  0  0
    9.2280   24.1810    2.4730 C   0  0  0  0  0  0  0  0  0  0  0  0
   12.7600   24.6490    5.4760 C   0  0  0  0  0  0  0  0  0  0  0  0
    9.7110   22.7300    6.7990 O   0  0  0  0  0  0  0  0  0  0  0  0
   11.6690   23.7170    7.9920 O   0  0  0  0  0  0  0  0  0  0  0  0
   13.9060   23.6980    5.0790 C   0  0  0  0  0  0  0  0  0  0  0  0
   14.3550   22.6270    6.0800 C   0  0  0  0  0  0  0  0  0  0  0  0
   15.1940   21.5910    5.3670 N   0  0  0  0  0  0  0  0  0  0  0  0
   15.0590   23.1340    7.3350 C   0  0  0  0  0  0  0  0  0  0  0  0
   15.2670   21.9790    8.2340 C   0  0  0  0  0  0  0  0  0  0  0  0
   14.1970   21.5250    9.0310 C   0  0  0  0  0  0  0  0  0  0  0  0
   14.4070   20.4080    9.8380 C   0  0  0  0  0  0  0  0  0  0  0  0
   15.6520   19.7460    9.8530 C   0  0  0  0  0  0  0  0  0  0  0  0
   16.7260   20.1970    9.0440 C   0  0  0  0  0  0  0  0  0  0  0  0
   16.5280   21.3230    8.2440 C   0  0  0  0  0  0  0  0  0  0  0  0
   14.6530   20.4550    4.8730 C   0  0  0  0  0  0  0  0  0  0  0  0
   13.4500   20.2120    4.9740 O   0  0  0  0  0  0  0  0  0  0  0  0
   15.6500   19.6910    4.2810 O   0  0  0  0  0  0  0  0  0  0  0  0
   15.0560   24.4320    4.7060 O   0  0  0  0  0  0  0  0  0  0  0  0
   15.3190   18.6040    3.4150 C   0  0  0  0  0  0  0  0  0  0  0  0
   14.5550   19.1570    2.2090 C   0  0  0  0  0  0  0  0  0  0  0  0
   16.6330   17.9920    2.9180 C   0  0  0  0  0  0  0  0  0  0  0  0
   14.5740   17.5490    4.2490 C   0  0  0  0  0  0  0  0  0  0  0  0
    9.4808   27.8655    9.3115 H   0  0  0  0  0  0  0  0  0  0  0  0
    7.4134   27.2205    5.5112 H   0  0  0  0  0  0  0  0  0  0  0  0
   10.6666   25.6731    9.0288 H   0  0  0  0  0  0  0  0  0  0  0  0
    8.1664   23.8372    5.1218 H   0  0  0  0  0  0  0  0  0  0  0  0
    7.7864   25.4347    4.2643 H   0  0  0  0  0  0  0  0  0  0  0  0
   10.1541   25.6443    3.8787 H   0  0  0  0  0  0  0  0  0  0  0  0
   11.5507   23.6255    3.4437 H   0  0  0  0  0  0  0  0  0  0  0  0
   10.2771   22.6698    4.3765 H   0  0  0  0  0  0  0  0  0  0  0  0
    8.4392   23.4235    2.5911 H   0  0  0  0  0  0  0  0  0  0  0  0
    8.8287   25.0428    1.9181 H   0  0  0  0  0  0  0  0  0  0  0  0
   10.0729   23.7471    1.9181 H   0  0  0  0  0  0  0  0  0  0  0  0
   12.6803   25.4576    4.7345 H   0  0  0  0  0  0  0  0  0  0  0  0
   12.9666   25.0808    6.4664 H   0  0  0  0  0  0  0  0  0  0  0  0
   13.4429   23.1390    4.2525 H   0  0  0  0  0  0  0  0  0  0  0  0
   13.4261   22.1833    6.4676 H   0  0  0  0  0  0  0  0  0  0  0  0
   16.2046   21.7551    5.2547 H   0  0  0  0  0  0  0  0  0  0  0  0
   16.0286   23.5786    7.0664 H   0  0  0  0  0  0  0  0  0  0  0  0
   14.4506   23.9036    7.8326 H   0  0  0  0  0  0  0  0  0  0  0  0
   13.2238   22.0375    9.0166 H   0  0  0  0  0  0  0  0  0  0  0  0
   13.5889   20.0372   10.4730 H   0  0  0  0  0  0  0  0  0  0  0  0
   15.7920   18.8681   10.5008 H   0  0  0  0  0  0  0  0  0  0  0  0
   17.6924   19.6715    9.0471 H   0  0  0  0  0  0  0  0  0  0  0  0
   17.3496   21.7039    7.6196 H   0  0  0  0  0  0  0  0  0  0  0  0
   15.5318   24.7357    5.5193 H   0  0  0  0  0  0  0  0  0  0  0  0
   13.7103   19.7684    2.5590 H   0  0  0  0  0  0  0  0  0  0  0  0
   15.2295   19.7775    1.6007 H   0  0  0  0  0  0  0  0  0  0  0  0
   14.1763   18.3224    1.6007 H   0  0  0  0  0  0  0  0  0  0  0  0
   17.2523   17.7035    3.7801 H   0  0  0  0  0  0  0  0  0  0  0  0
   16.4158   17.1024    2.3086 H   0  0  0  0  0  0  0  0  0  0  0  0
   17.1742   18.7307    2.3086 H   0  0  0  0  0  0  0  0  0  0  0  0
   14.7208   17.7569    5.3191 H   0  0  0  0  0  0  0  0  0  0  0  0
   13.5004   17.5857    4.0123 H   0  0  0  0  0  0  0  0  0  0  0  0
   14.9677   16.5495    4.0123 H   0  0  0  0  0  0  0  0  0  0  0  0
  1  4  2  0
  1  2  1  0
  5  2  1  0
  2  3  2  0
  3  6  1  0
  4  7  1  0
  7  6  2  0
  6  9  1  0
  7  8  1  0
 16  8  2  0
  8 10  1  0
  8 15  2  0
  9 11  1  0
 14 10  1  0
 10 12  1  0
 12 11  1  0
 11 13  1  0
 14 17  1  0
 30 17  1  0
 18 17  1  0
 20 18  1  0
 18 19  1  0
 19 27  1  0
 21 20  1  0
 26 21  1  0
 21 22  2  0
 23 22  1  0
 24 23  2  0
 25 24  1  0
 25 26  2  0
 27 29  1  0
 27 28  2  0
 29 31  1  0
 31 33  1  0
 31 34  1  0
 31 32  1  0
  1 35  1  0
  3 36  1  0
  4 37  1  0
  9 38  1  0
  9 39  1  0
 11 40  1  0
 12 41  1  0
 12 42  1  0
 13 43  1  0
 13 44  1  0
 13 45  1  0
 14 46  1  0
 14 47  1  0
 17 48  1  0
 18 49  1  0
 19 50  1  0
 20 51  1  0
 20 52  1  0
 22 53  1  0
 23 54  1  0
 24 55  1  0
 25 56  1  0
 26 57  1  0
 30 58  1  0
 32 59  1  0
 32 60  1  0
 32 61  1  0
 33 62  1  0
 33 63  1  0
 33 64  1  0
 34 65  1  0
 34 66  1  0
 34 67  1  0
A    1
C1
A    2
C2
A    3
C3
A    4
C4
A    5
F5
A    6
C6
A    7
C7
A    8
S8
A    9
C9
A   10
N10
A   11
C11
A   12
C12
A   13
C13
A   14
C14
A   15
O15
A   16
O16
A   17
C17
A   18
C18
A   19
N19
A   20
C20
A   21
C21
A   22
C22
A   23
C23
A   24
C24
A   25
C25
A   26
C26
A   27
C27
A   28
O28
A   29
O29
A   30
O30
A   31
C31
A   32
C32
A   33
C33
A   34
C34
M  END
