3TI3_LNV_A_801
     RDKit          3D

 46 46  0  0  0  0  0  0  0  0999 V2000
   29.4460   13.2070  -22.7790 C   0  0  0  0  0  0  0  0  0  0  0  0
   30.8780   13.7230  -22.6260 C   0  0  0  0  0  0  0  0  0  0  0  0
   31.2210   14.5310  -21.3690 C   0  0  0  0  0  0  0  0  0  0  0  0
   30.0190   14.8570  -20.4400 C   0  0  0  0  0  0  0  0  0  0  0  0
   28.5810   14.5620  -20.9410 C   0  0  0  0  0  0  0  0  0  0  0  0
   28.3670   13.7620  -22.0880 O   0  0  0  0  0  0  0  0  0  0  0  0
   29.0450   12.5680  -24.0610 C   0  0  0  0  0  0  0  0  0  0  0  0
   30.0140   11.9730  -24.8350 O   0  0  0  0  0  0  0  0  0  0  0  0
   27.8520   12.4960  -24.3280 O   0  0  0  0  0  0  0  0  0  0  0  0
   27.4890   14.4280  -19.9420 C   0  0  0  0  0  0  0  0  0  0  0  0
   26.1260   14.6870  -20.5460 C   0  0  0  0  0  0  0  0  0  0  0  0
   25.0060   14.3680  -19.5850 C   0  0  0  0  0  0  0  0  0  0  0  0
   24.9720   15.1890  -18.4370 O   0  0  0  0  0  0  0  0  0  0  0  0
   27.6190   13.1670  -19.4160 O   0  0  0  0  0  0  0  0  0  0  0  0
   27.6650   13.0100  -18.0390 C   0  0  0  0  0  0  0  0  0  0  0  0
   26.0210   15.9410  -21.1130 O   0  0  0  0  0  0  0  0  0  0  0  0
   32.5430   14.3650  -20.8130 N   0  0  0  0  0  0  0  0  0  0  0  0
   33.3070   15.3990  -20.1700 C   0  0  0  0  0  0  0  0  0  0  0  0
   34.4020   15.0350  -19.5400 N   0  0  0  0  0  0  0  0  0  0  0  0
   32.9740   16.6840  -20.2710 N   0  0  0  0  0  0  0  0  0  0  0  0
   30.8320   15.4290  -18.0860 C   0  0  0  0  0  0  0  0  0  0  0  0
   30.9680   16.5840  -17.1480 C   0  0  0  0  0  0  0  0  0  0  0  0
   31.0600   14.2780  -17.7250 O   0  0  0  0  0  0  0  0  0  0  0  0
   30.1530   15.7300  -19.3080 N   0  0  0  0  0  0  0  0  0  0  0  0
   31.6385   13.5205  -23.3945 H   0  0  0  0  0  0  0  0  0  0  0  0
   31.4125   15.5444  -21.7515 H   0  0  0  0  0  0  0  0  0  0  0  0
   30.2796   13.9556  -19.8659 H   0  0  0  0  0  0  0  0  0  0  0  0
   28.4912   15.5812  -21.3449 H   0  0  0  0  0  0  0  0  0  0  0  0
   30.7738   11.5064  -24.4048 H   0  0  0  0  0  0  0  0  0  0  0  0
   27.5711   15.1857  -19.1489 H   0  0  0  0  0  0  0  0  0  0  0  0
   26.0149   13.9821  -21.3832 H   0  0  0  0  0  0  0  0  0  0  0  0
   24.0511   14.4831  -20.1189 H   0  0  0  0  0  0  0  0  0  0  0  0
   25.1781   13.3406  -19.2317 H   0  0  0  0  0  0  0  0  0  0  0  0
   24.9955   14.6226  -17.6254 H   0  0  0  0  0  0  0  0  0  0  0  0
   27.3876   13.9568  -17.5525 H   0  0  0  0  0  0  0  0  0  0  0  0
   26.9600   12.2218  -17.7361 H   0  0  0  0  0  0  0  0  0  0  0  0
   28.6839   12.7269  -17.7361 H   0  0  0  0  0  0  0  0  0  0  0  0
   25.9639   16.6229  -20.3976 H   0  0  0  0  0  0  0  0  0  0  0  0
   32.9728   13.4316  -20.8826 H   0  0  0  0  0  0  0  0  0  0  0  0
   34.9816   15.7413  -19.0645 H   0  0  0  0  0  0  0  0  0  0  0  0
   32.8282   17.2466  -19.4206 H   0  0  0  0  0  0  0  0  0  0  0  0
   32.8622   17.1156  -21.1995 H   0  0  0  0  0  0  0  0  0  0  0  0
   30.9252   16.2208  -16.1106 H   0  0  0  0  0  0  0  0  0  0  0  0
   31.9314   17.0857  -17.3214 H   0  0  0  0  0  0  0  0  0  0  0  0
   30.1475   17.2958  -17.3214 H   0  0  0  0  0  0  0  0  0  0  0  0
   29.7190   16.6611  -19.3832 H   0  0  0  0  0  0  0  0  0  0  0  0
  1  2  2  0
  1  6  1  0
  1  7  1  0
  2  3  1  0
  3  4  1  0
  3 17  1  0
  4  5  1  0
  4 24  1  0
  5  6  1  0
  5 10  1  0
  7  8  1  0
  7  9  2  0
 10 11  1  0
 10 14  1  0
 11 12  1  0
 11 16  1  0
 12 13  1  0
 14 15  1  0
 17 18  1  0
 18 19  2  3
 18 20  1  0
 21 22  1  0
 21 23  2  0
 21 24  1  0
  2 25  1  0
  3 26  1  0
  4 27  1  0
  5 28  1  0
  8 29  1  0
 10 30  1  0
 11 31  1  0
 12 32  1  0
 12 33  1  0
 13 34  1  0
 15 35  1  0
 15 36  1  0
 15 37  1  0
 16 38  1  0
 17 39  1  0
 19 40  1  0
 20 41  1  0
 20 42  1  0
 22 43  1  0
 22 44  1  0
 22 45  1  0
 24 46  1  0
A    1
CAA
A    2
CAB
A    3
CAC
A    4
CAD
A    5
CAE
A    6
OAF
A    7
CAG
A    8
OAH
A    9
OAI
A   10
CAJ
A   11
CAK
A   12
CAL
A   13
OAM
A   14
OAW
A   15
CAX
A   16
OAY
A   17
NAZ
A   18
CBA
A   19
NBB
A   20
NBC
A   21
CBD
A   22
CBE
A   23
OBF
A   24
NBG
M  END
