3TI4_LVO_A_801
     RDKit          3D

 48 48  0  0  0  0  0  0  0  0999 V2000
   29.5670   13.3780  -22.7790 C   0  0  0  0  0  0  0  0  0  0  0  0
   31.0040   13.6470  -22.5320 C   0  0  0  0  0  0  0  0  0  0  0  0
   31.3290   14.5130  -21.2880 C   0  0  0  0  0  0  0  0  0  0  0  0
   30.1860   14.5580  -20.2550 C   0  0  0  0  0  0  0  0  0  0  0  0
   28.7710   14.5230  -20.8810 C   0  0  0  0  0  0  0  0  0  0  0  0
   28.6370   13.5180  -21.8210 O   0  0  0  0  0  0  0  0  0  0  0  0
   29.1870   12.5060  -23.9290 C   0  0  0  0  0  0  0  0  0  0  0  0
   30.1800   11.9660  -24.6480 O   0  0  0  0  0  0  0  0  0  0  0  0
   28.0670   12.4120  -24.1740 O   0  0  0  0  0  0  0  0  0  0  0  0
   27.7160   14.3790  -19.8320 C   0  0  0  0  0  0  0  0  0  0  0  0
   26.4080   14.2930  -20.5380 C   0  0  0  0  0  0  0  0  0  0  0  0
   25.3630   13.8430  -19.5360 C   0  0  0  0  0  0  0  0  0  0  0  0
   24.4300   12.9300  -20.0160 O   0  0  0  0  0  0  0  0  0  0  0  0
   24.6250   11.6640  -20.0770 C   0  0  0  0  0  0  0  0  0  0  0  0
   24.8680   10.9640  -19.1020 O   0  0  0  0  0  0  0  0  0  0  0  0
   27.9460   13.2280  -19.1190 O   0  0  0  0  0  0  0  0  0  0  0  0
   27.6530   13.3740  -17.8090 C   0  0  0  0  0  0  0  0  0  0  0  0
   26.0830   15.4430  -21.1580 O   0  0  0  0  0  0  0  0  0  0  0  0
   32.6560   14.3550  -20.7300 N   0  0  0  0  0  0  0  0  0  0  0  0
   33.4400   15.3880  -20.1770 C   0  0  0  0  0  0  0  0  0  0  0  0
   34.5220   15.0320  -19.5590 N   0  0  0  0  0  0  0  0  0  0  0  0
   33.1710   16.6080  -20.4360 N   0  0  0  0  0  0  0  0  0  0  0  0
   30.9800   15.3190  -18.0600 C   0  0  0  0  0  0  0  0  0  0  0  0
   31.2150   16.5870  -17.3250 C   0  0  0  0  0  0  0  0  0  0  0  0
   31.2400   14.3060  -17.6250 O   0  0  0  0  0  0  0  0  0  0  0  0
   30.3310   15.5690  -19.2800 N   0  0  0  0  0  0  0  0  0  0  0  0
   31.7922   13.2555  -23.1919 H   0  0  0  0  0  0  0  0  0  0  0  0
   31.3849   15.5343  -21.6927 H   0  0  0  0  0  0  0  0  0  0  0  0
   30.2859   13.6098  -19.7065 H   0  0  0  0  0  0  0  0  0  0  0  0
   28.6368   15.4866  -21.3942 H   0  0  0  0  0  0  0  0  0  0  0  0
   30.9512   11.5466  -24.1903 H   0  0  0  0  0  0  0  0  0  0  0  0
   27.7216   15.2289  -19.1337 H   0  0  0  0  0  0  0  0  0  0  0  0
   26.4707   13.5530  -21.3495 H   0  0  0  0  0  0  0  0  0  0  0  0
   25.8853   13.3794  -18.6861 H   0  0  0  0  0  0  0  0  0  0  0  0
   24.7936   14.7447  -19.2665 H   0  0  0  0  0  0  0  0  0  0  0  0
   24.5708   11.1785  -21.0626 H   0  0  0  0  0  0  0  0  0  0  0  0
   28.4740   12.9649  -17.2018 H   0  0  0  0  0  0  0  0  0  0  0  0
   27.5237   14.4419  -17.5790 H   0  0  0  0  0  0  0  0  0  0  0  0
   26.7226   12.8341  -17.5790 H   0  0  0  0  0  0  0  0  0  0  0  0
   25.8864   16.1385  -20.4815 H   0  0  0  0  0  0  0  0  0  0  0  0
   33.0612   13.4081  -20.7378 H   0  0  0  0  0  0  0  0  0  0  0  0
   34.5479   15.0235  -18.5294 H   0  0  0  0  0  0  0  0  0  0  0  0
   35.3561   14.7576  -20.0974 H   0  0  0  0  0  0  0  0  0  0  0  0
   33.7463   17.3597  -20.0299 H   0  0  0  0  0  0  0  0  0  0  0  0
   31.1795   16.3953  -16.2424 H   0  0  0  0  0  0  0  0  0  0  0  0
   32.2029   16.9890  -17.5939 H   0  0  0  0  0  0  0  0  0  0  0  0
   30.4367   17.3164  -17.5939 H   0  0  0  0  0  0  0  0  0  0  0  0
   29.9532   16.5087  -19.4674 H   0  0  0  0  0  0  0  0  0  0  0  0
  1  2  2  0
  1  6  1  0
  2  3  1  0
  3 19  1  0
  3  4  1  0
  4 26  1  0
  5  4  1  0
  5 10  1  0
  6  5  1  0
  7  1  1  0
  8  7  1  0
  9  7  2  0
 10 16  1  0
 11 10  1  0
 11 12  1  0
 13 12  1  0
 14 13  1  0
 14 15  2  0
 16 17  1  0
 18 11  1  0
 19 20  1  0
 20 21  1  0
 22 20  2  3
 23 25  2  0
 23 24  1  0
 26 23  1  0
  2 27  1  0
  3 28  1  0
  4 29  1  0
  5 30  1  0
  8 31  1  0
 10 32  1  0
 11 33  1  0
 12 34  1  0
 12 35  1  0
 14 36  1  0
 17 37  1  0
 17 38  1  0
 17 39  1  0
 18 40  1  0
 19 41  1  0
 21 42  1  0
 21 43  1  0
 22 44  1  0
 24 45  1  0
 24 46  1  0
 24 47  1  0
 26 48  1  0
A    1
CAA
A    2
CAB
A    3
CAC
A    4
CAD
A    5
CAE
A    6
OAF
A    7
CAG
A    8
OAH
A    9
OAI
A   10
CAJ
A   11
CAK
A   12
CAL
A   13
OAM
A   14
CAN
A   15
OAV
A   16
OAW
A   17
CAX
A   18
OAY
A   19
NAZ
A   20
CBA
A   21
NBB
A   22
NBC
A   23
CBD
A   24
CBE
A   25
OBF
A   26
NBG
M  END
