3TJP_13K_A_1
     RDKit          3D

 53 56  0  0  0  0  0  0  0  0999 V2000
   27.5550   11.5490   20.2980 N   0  0  0  0  0  0  0  0  0  0  0  0
   26.2650   12.0250   20.4680 C   0  0  0  0  0  0  0  0  0  0  0  0
   25.8840   13.1070   19.7570 N   0  0  0  0  0  0  0  0  0  0  0  0
   24.6200   13.5520   19.9430 C   0  0  0  0  0  0  0  0  0  0  0  0
   25.4520   11.3850   21.3360 N   0  0  0  0  0  0  0  0  0  0  0  0
   24.1980   11.8750   21.4770 C   0  0  0  0  0  0  0  0  0  0  0  0
   23.6960   12.9790   20.8030 C   0  0  0  0  0  0  0  0  0  0  0  0
   22.3240   13.4740   20.9910 C   0  0  0  0  0  0  0  0  0  0  0  0
   21.8880   14.7010   20.5130 C   0  0  0  0  0  0  0  0  0  0  0  0
   21.4880   12.6510   21.6680 N   0  0  0  0  0  0  0  0  0  0  0  0
   20.2080   13.0330   21.8810 C   0  0  0  0  0  0  0  0  0  0  0  0
   19.3440   12.1860   22.5680 N   0  0  0  0  0  0  0  0  0  0  0  0
   17.9190   12.4940   22.6820 C   0  0  0  0  0  0  0  0  0  0  0  0
   17.4090   12.1990   24.0880 C   0  0  0  0  0  0  0  0  0  0  0  0
   17.7780   10.8770   24.4830 O   0  0  0  0  0  0  0  0  0  0  0  0
   19.2000   10.7740   24.5620 C   0  0  0  0  0  0  0  0  0  0  0  0
   19.8150   10.9430   23.1780 C   0  0  0  0  0  0  0  0  0  0  0  0
   19.7470   14.2240   21.4280 N   0  0  0  0  0  0  0  0  0  0  0  0
   20.5720   15.0590   20.7490 C   0  0  0  0  0  0  0  0  0  0  0  0
   20.0370   16.2820   20.3090 N   0  0  0  0  0  0  0  0  0  0  0  0
   18.8800   17.0230   20.6110 C   0  0  0  0  0  0  0  0  0  0  0  0
   17.8910   16.5990   21.5020 C   0  0  0  0  0  0  0  0  0  0  0  0
   16.7650   17.3860   21.7590 C   0  0  0  0  0  0  0  0  0  0  0  0
   18.7110   18.2690   19.9800 C   0  0  0  0  0  0  0  0  0  0  0  0
   17.5880   19.0690   20.2300 C   0  0  0  0  0  0  0  0  0  0  0  0
   17.3550   20.2940   19.6510 O   0  0  0  0  0  0  0  0  0  0  0  0
   18.2770   20.7420   18.6650 C   0  0  0  0  0  0  0  0  0  0  0  0
   16.6050   18.6220   21.1290 C   0  0  0  0  0  0  0  0  0  0  0  0
   15.5370   19.4640   21.3160 O   0  0  0  0  0  0  0  0  0  0  0  0
   14.4610   18.9870   22.1150 C   0  0  0  0  0  0  0  0  0  0  0  0
   28.1372   11.3342   21.1201 H   0  0  0  0  0  0  0  0  0  0  0  0
   27.9318   11.4100   19.3495 H   0  0  0  0  0  0  0  0  0  0  0  0
   24.3016   14.4346   19.3688 H   0  0  0  0  0  0  0  0  0  0  0  0
   23.5263   11.3590   22.1789 H   0  0  0  0  0  0  0  0  0  0  0  0
   22.5673   15.3690   19.9632 H   0  0  0  0  0  0  0  0  0  0  0  0
   17.7619   13.5595   22.4582 H   0  0  0  0  0  0  0  0  0  0  0  0
   17.3657   11.8656   21.9686 H   0  0  0  0  0  0  0  0  0  0  0  0
   17.8458   12.9230   24.7916 H   0  0  0  0  0  0  0  0  0  0  0  0
   16.3121   12.2809   24.0948 H   0  0  0  0  0  0  0  0  0  0  0  0
   19.5851   11.5589   25.2296 H   0  0  0  0  0  0  0  0  0  0  0  0
   19.4678    9.7827   24.9564 H   0  0  0  0  0  0  0  0  0  0  0  0
   19.5232   10.0929   22.5438 H   0  0  0  0  0  0  0  0  0  0  0  0
   20.9103   10.9804   23.2725 H   0  0  0  0  0  0  0  0  0  0  0  0
   20.6287   16.7418   19.6023 H   0  0  0  0  0  0  0  0  0  0  0  0
   18.0004   15.6294   22.0098 H   0  0  0  0  0  0  0  0  0  0  0  0
   15.9988   17.0291   22.4630 H   0  0  0  0  0  0  0  0  0  0  0  0
   19.4774   18.6231   19.2748 H   0  0  0  0  0  0  0  0  0  0  0  0
   19.1613   21.1717   19.1583 H   0  0  0  0  0  0  0  0  0  0  0  0
   18.5839   19.8926   18.0371 H   0  0  0  0  0  0  0  0  0  0  0  0
   17.7988   21.5082   18.0371 H   0  0  0  0  0  0  0  0  0  0  0  0
   14.7162   19.1001   23.1790 H   0  0  0  0  0  0  0  0  0  0  0  0
   13.5534   19.5671   21.8919 H   0  0  0  0  0  0  0  0  0  0  0  0
   14.2814   17.9249   21.8919 H   0  0  0  0  0  0  0  0  0  0  0  0
  1  2  1  0
  3  2  2  0
  2  5  1  0
  3  4  1  0
  4  7  2  0
  5  6  2  0
  7  6  1  0
  7  8  1  0
  9  8  2  0
  8 10  1  0
  9 19  1  0
 10 11  2  0
 18 11  1  0
 11 12  1  0
 12 13  1  0
 12 17  1  0
 13 14  1  0
 14 15  1  0
 15 16  1  0
 17 16  1  0
 19 18  2  0
 20 19  1  0
 20 21  1  0
 24 21  1  0
 21 22  2  0
 22 23  1  0
 28 23  2  0
 24 25  2  0
 26 25  1  0
 25 28  1  0
 27 26  1  0
 28 29  1  0
 29 30  1  0
  1 31  1  0
  1 32  1  0
  4 33  1  0
  6 34  1  0
  9 35  1  0
 13 36  1  0
 13 37  1  0
 14 38  1  0
 14 39  1  0
 16 40  1  0
 16 41  1  0
 17 42  1  0
 17 43  1  0
 20 44  1  0
 22 45  1  0
 23 46  1  0
 24 47  1  0
 27 48  1  0
 27 49  1  0
 27 50  1  0
 30 51  1  0
 30 52  1  0
 30 53  1  0
A    1
N01
A    2
C02
A    3
N03
A    4
C04
A    5
N05
A    6
C06
A    7
C07
A    8
C08
A    9
C09
A   10
N10
A   11
C11
A   12
N12
A   13
C13
A   14
C14
A   15
O15
A   16
C16
A   17
C17
A   18
N18
A   19
C19
A   20
N20
A   21
C21
A   22
C22
A   23
C23
A   24
C24
A   25
C25
A   26
O26
A   27
C27
A   28
C28
A   29
O29
A   30
C30
M  END
