2CV2_GSU_A_601
     RDKit          3D

 53 55  0  0  0  0  0  0  0  0999 V2000
   31.4170   74.8180   54.3990 C   0  0  0  0  0  0  0  0  0  0  0  0
   39.3430   78.8040   54.7460 S   0  0  0  0  0  0  0  0  0  0  0  0
   40.7570   82.2620   52.6240 N   0  0  0  0  0  0  0  0  0  0  0  0
   39.3160   82.3990   52.9350 C   0  0  0  0  0  0  0  0  0  0  0  0
   38.6670   82.3730   51.5400 C   0  0  0  0  0  0  0  0  0  0  0  0
   37.2690   82.9320   51.3970 C   0  0  0  0  0  0  0  0  0  0  0  0
   36.8360   83.0000   49.9500 C   0  0  0  0  0  0  0  0  0  0  0  0
   36.5180   84.0510   49.4080 O   0  0  0  0  0  0  0  0  0  0  0  0
   36.8370   81.8570   49.3110 O   0  0  0  0  0  0  0  0  0  0  0  0
   38.7690   81.1940   53.7280 C   0  0  0  0  0  0  0  0  0  0  0  0
   37.6050   81.0890   54.1270 O   0  0  0  0  0  0  0  0  0  0  0  0
   39.6720   80.2130   53.9450 N   0  0  0  0  0  0  0  0  0  0  0  0
   38.9210   79.1240   56.1050 O   0  0  0  0  0  0  0  0  0  0  0  0
   40.5410   77.9550   54.7490 O   0  0  0  0  0  0  0  0  0  0  0  0
   38.1370   78.0250   54.0640 O   0  0  0  0  0  0  0  0  0  0  0  0
   38.1890   77.8900   52.6850 C   0  0  0  0  0  0  0  0  0  0  0  0
   36.8800   77.6110   51.9810 C   0  0  0  0  0  0  0  0  0  0  0  0
   36.1180   76.6500   52.7220 O   0  0  0  0  0  0  0  0  0  0  0  0
   34.9180   77.2810   53.1870 C   0  0  0  0  0  0  0  0  0  0  0  0
   34.4570   76.7170   54.5320 N   0  0  0  0  0  0  0  0  0  0  0  0
   33.3300   75.9580   54.7640 C   0  0  0  0  0  0  0  0  0  0  0  0
   32.4110   75.5570   53.8370 N   0  0  0  0  0  0  0  0  0  0  0  0
   31.2780   74.4810   55.6870 N   0  0  0  0  0  0  0  0  0  0  0  0
   32.2310   74.9030   56.5940 C   0  0  0  0  0  0  0  0  0  0  0  0
   32.0930   74.5690   57.8920 N   0  0  0  0  0  0  0  0  0  0  0  0
   33.3190   75.6890   56.1100 C   0  0  0  0  0  0  0  0  0  0  0  0
   34.3860   76.2440   56.7160 N   0  0  0  0  0  0  0  0  0  0  0  0
   35.0330   76.8470   55.7490 C   0  0  0  0  0  0  0  0  0  0  0  0
   35.1830   78.8180   53.1700 C   0  0  0  0  0  0  0  0  0  0  0  0
   33.9760   79.5750   53.1390 O   0  0  0  0  0  0  0  0  0  0  0  0
   36.0670   78.9010   51.9400 C   0  0  0  0  0  0  0  0  0  0  0  0
   35.2790   78.9640   50.7560 O   0  0  0  0  0  0  0  0  0  0  0  0
   30.6359   74.4547   53.7150 H   0  0  0  0  0  0  0  0  0  0  0  0
   41.2942   82.2109   53.5013 H   0  0  0  0  0  0  0  0  0  0  0  0
   40.9100   81.4027   52.0772 H   0  0  0  0  0  0  0  0  0  0  0  0
   39.1178   83.2951   53.5414 H   0  0  0  0  0  0  0  0  0  0  0  0
   39.3193   82.9465   50.8650 H   0  0  0  0  0  0  0  0  0  0  0  0
   38.5605   81.3034   51.3063 H   0  0  0  0  0  0  0  0  0  0  0  0
   36.5694   82.2862   51.9479 H   0  0  0  0  0  0  0  0  0  0  0  0
   37.2668   83.9545   51.8026 H   0  0  0  0  0  0  0  0  0  0  0  0
   36.2796   84.8391   49.9577 H   0  0  0  0  0  0  0  0  0  0  0  0
   40.6282   80.3516   53.5882 H   0  0  0  0  0  0  0  0  0  0  0  0
   38.5963   78.8253   52.2735 H   0  0  0  0  0  0  0  0  0  0  0  0
   38.8102   77.0003   52.5044 H   0  0  0  0  0  0  0  0  0  0  0  0
   37.0906   77.2309   50.9705 H   0  0  0  0  0  0  0  0  0  0  0  0
   34.0634   77.0673   52.5282 H   0  0  0  0  0  0  0  0  0  0  0  0
   32.3684   75.2355   58.6274 H   0  0  0  0  0  0  0  0  0  0  0  0
   31.7121   73.6471   58.1489 H   0  0  0  0  0  0  0  0  0  0  0  0
   35.9637   77.4100   55.9127 H   0  0  0  0  0  0  0  0  0  0  0  0
   35.6551   79.2524   54.0635 H   0  0  0  0  0  0  0  0  0  0  0  0
   33.6793   79.7611   54.0650 H   0  0  0  0  0  0  0  0  0  0  0  0
   36.7006   79.8002   51.9337 H   0  0  0  0  0  0  0  0  0  0  0  0
   34.3225   79.0405   50.9998 H   0  0  0  0  0  0  0  0  0  0  0  0
  1 22  2  0
  1 23  1  0
  2 12  1  0
  2 13  2  0
  2 14  2  0
  2 15  1  0
  3  4  1  0
  4  5  1  0
  4 10  1  0
  5  6  1  0
  6  7  1  0
  7  8  1  0
  7  9  2  0
 10 11  2  0
 10 12  1  0
 15 16  1  0
 16 17  1  0
 17 18  1  0
 17 31  1  0
 18 19  1  0
 19 20  1  0
 19 29  1  0
 20 21  1  0
 20 28  1  0
 21 22  1  0
 21 26  2  0
 23 24  2  0
 24 25  1  0
 24 26  1  0
 26 27  1  0
 27 28  2  0
 29 30  1  0
 29 31  1  0
 31 32  1  0
  1 33  1  0
  3 34  1  0
  3 35  1  0
  4 36  1  0
  5 37  1  0
  5 38  1  0
  6 39  1  0
  6 40  1  0
  8 41  1  0
 12 42  1  0
 16 43  1  0
 16 44  1  0
 17 45  1  0
 19 46  1  0
 25 47  1  0
 25 48  1  0
 28 49  1  0
 29 50  1  0
 30 51  1  0
 31 52  1  0
 32 53  1  0
A    1
C2
A    2
S
A    3
N
A    4
CA
A    5
CB
A    6
CG
A    7
CD
A    8
OE1
A    9
OE2
A   10
C
A   11
O
A   12
N10
A   13
O1S
A   14
O2S
A   15
O5'
A   16
C5'
A   17
C4'
A   18
O4'
A   19
C1'
A   20
N9
A   21
C4
A   22
N3
A   23
N1
A   24
C6
A   25
N6
A   26
C5
A   27
N7
A   28
C8
A   29
C2'
A   30
O2'
A   31
C3'
A   32
O3'
M  END
