3TLL_62D_A_501
     RDKit          3D

 33 35  0  0  0  0  0  0  0  0999 V2000
   17.5470   17.5420   17.3130 N   0  0  0  0  0  0  0  0  0  0  0  0
   19.5340   18.1670   17.9430 N   0  0  0  0  0  0  0  0  0  0  0  0
   18.8410   18.0110   16.8850 C   0  0  0  0  0  0  0  0  0  0  0  0
   18.2510   17.9700   14.5420 C   0  0  0  0  0  0  0  0  0  0  0  0
   18.8250   17.8400   19.1360 C   0  0  0  0  0  0  0  0  0  0  0  0
   19.1840   17.8660   20.4440 C   0  0  0  0  0  0  0  0  0  0  0  0
   18.1170   17.4510   21.4030 C   0  0  0  0  0  0  0  0  0  0  0  0
   16.0980   16.6700   23.1160 C   0  0  0  0  0  0  0  0  0  0  0  0
   16.8010   17.0430   20.8620 C   0  0  0  0  0  0  0  0  0  0  0  0
   16.4930   17.0070   19.5400 C   0  0  0  0  0  0  0  0  0  0  0  0
   17.5260   17.4310   18.6210 C   0  0  0  0  0  0  0  0  0  0  0  0
   19.1530   18.2310   15.6410 N   0  0  0  0  0  0  0  0  0  0  0  0
   18.2580   17.4530   22.7500 C   0  0  0  0  0  0  0  0  0  0  0  0
   19.3710   17.8760   23.3190 O   0  0  0  0  0  0  0  0  0  0  0  0
   17.2680   17.1280   23.5770 N   0  0  0  0  0  0  0  0  0  0  0  0
   15.1750   16.3130   23.9690 N   0  0  0  0  0  0  0  0  0  0  0  0
   13.8360   15.8110   23.6820 C   0  0  0  0  0  0  0  0  0  0  0  0
   15.8430   16.6250   21.8390 N   0  0  0  0  0  0  0  0  0  0  0  0
   13.8340   14.2760   23.8680 C   0  0  0  0  0  0  0  0  0  0  0  0
   16.7579   17.3265   16.6871 H   0  0  0  0  0  0  0  0  0  0  0  0
   17.2648   17.6846   14.9369 H   0  0  0  0  0  0  0  0  0  0  0  0
   18.1513   18.8761   13.9264 H   0  0  0  0  0  0  0  0  0  0  0  0
   18.6505   17.1506   13.9264 H   0  0  0  0  0  0  0  0  0  0  0  0
   20.1881   18.1706   20.7742 H   0  0  0  0  0  0  0  0  0  0  0  0
   15.5069   16.6720   19.1858 H   0  0  0  0  0  0  0  0  0  0  0  0
   20.0874   18.6092   15.4293 H   0  0  0  0  0  0  0  0  0  0  0  0
   17.4047   17.2309   24.5927 H   0  0  0  0  0  0  0  0  0  0  0  0
   15.4231   16.3962   24.9652 H   0  0  0  0  0  0  0  0  0  0  0  0
   13.1127   16.2689   24.3727 H   0  0  0  0  0  0  0  0  0  0  0  0
   13.5529   16.0647   22.6498 H   0  0  0  0  0  0  0  0  0  0  0  0
   13.8337   14.0368   24.9417 H   0  0  0  0  0  0  0  0  0  0  0  0
   12.9353   13.8508   23.3973 H   0  0  0  0  0  0  0  0  0  0  0  0
   14.7316   13.8484   23.3973 H   0  0  0  0  0  0  0  0  0  0  0  0
  1  3  1  0
  1 11  1  0
  2  3  2  0
  2  5  1  0
  3 12  1  0
  4 12  1  0
  5  6  1  0
  5 11  2  0
  6  7  2  0
  7  9  1  0
  7 13  1  0
  8 15  1  0
  8 16  1  0
  8 18  2  0
  9 10  2  0
  9 18  1  0
 10 11  1  0
 13 14  2  0
 13 15  1  0
 16 17  1  0
 17 19  1  0
  1 20  1  0
  4 21  1  0
  4 22  1  0
  4 23  1  0
  6 24  1  0
 10 25  1  0
 12 26  1  0
 15 27  1  0
 16 28  1  0
 17 29  1  0
 17 30  1  0
 19 31  1  0
 19 32  1  0
 19 33  1  0
A    1
N1
A    2
N3
A    3
C4
A    4
C5
A    5
C6
A    6
C7
A    7
C8
A    8
C10
A    9
C1
A   10
C2
A   11
C3
A   12
N2
A   13
C9
A   14
O1
A   15
N4
A   16
N5
A   17
C11
A   18
N6
A   19
C12
M  END
