3TMZ_06X_A_503
     RDKit          3D

 53 54  0  0  0  0  0  0  0  0999 V2000
   30.6200   -5.0280    6.3530 Cl  0  0  0  0  0  0  0  0  0  0  0  0
   31.8430   -3.9850    5.6980 C   0  0  0  0  0  0  0  0  0  0  0  0
   31.4260   -2.7320    5.2440 C   0  0  0  0  0  0  0  0  0  0  0  0
   32.3430   -1.8370    4.7110 C   0  0  0  0  0  0  0  0  0  0  0  0
   33.6830   -2.1880    4.6300 C   0  0  0  0  0  0  0  0  0  0  0  0
   34.1060   -3.4340    5.0800 C   0  0  0  0  0  0  0  0  0  0  0  0
   33.2020   -4.3670    5.6230 C   0  0  0  0  0  0  0  0  0  0  0  0
   34.1420   -5.4360    5.8400 C   0  0  0  0  0  0  0  0  0  0  0  0
   34.6380   -5.6110    7.2210 C   0  0  0  0  0  0  0  0  0  0  0  0
   34.0290   -5.1080    8.3590 C   0  0  0  0  0  0  0  0  0  0  0  0
   34.6230   -5.1910    9.3930 O   0  0  0  0  0  0  0  0  0  0  0  0
   32.7890   -4.6990    8.3240 O   0  0  0  0  0  0  0  0  0  0  0  0
   32.5440   -4.1640    9.5330 C   0  0  0  0  0  0  0  0  0  0  0  0
   32.4240   -2.6590    9.3930 C   0  0  0  0  0  0  0  0  0  0  0  0
   34.3330   -6.5300    4.9770 C   0  0  0  0  0  0  0  0  0  0  0  0
   33.4070   -7.0440    3.9250 C   0  0  0  0  0  0  0  0  0  0  0  0
   32.2580   -6.6530    3.8960 O   0  0  0  0  0  0  0  0  0  0  0  0
   33.8000   -7.9900    3.0920 O   0  0  0  0  0  0  0  0  0  0  0  0
   32.6370   -8.5100    2.5990 C   0  0  0  0  0  0  0  0  0  0  0  0
   35.6400   -6.9460    5.0500 C   0  0  0  0  0  0  0  0  0  0  0  0
   36.0960   -7.8170    4.0870 C   0  0  0  0  0  0  0  0  0  0  0  0
   36.4950   -6.6800    6.1560 N   0  0  0  0  0  0  0  0  0  0  0  0
   35.9470   -6.0120    7.1300 C   0  0  0  0  0  0  0  0  0  0  0  0
   36.8070   -6.0480    8.3190 C   0  0  0  0  0  0  0  0  0  0  0  0
   38.0300   -6.4480    8.0400 O   0  0  0  0  0  0  0  0  0  0  0  0
   38.7790   -5.5370    7.2130 C   0  0  0  0  0  0  0  0  0  0  0  0
   40.0690   -5.3540    7.3290 C   0  0  0  0  0  0  0  0  0  0  0  0
   40.5260   -4.8760    8.6110 N   0  0  0  0  0  0  0  0  0  0  0  0
   30.3641   -2.4526    5.3092 H   0  0  0  0  0  0  0  0  0  0  0  0
   32.0084   -0.8519    4.3537 H   0  0  0  0  0  0  0  0  0  0  0  0
   34.4118   -1.4796    4.2092 H   0  0  0  0  0  0  0  0  0  0  0  0
   35.1718   -3.6969    5.0101 H   0  0  0  0  0  0  0  0  0  0  0  0
   34.8241   -4.8573    5.1998 H   0  0  0  0  0  0  0  0  0  0  0  0
   31.6047   -4.5730    9.9336 H   0  0  0  0  0  0  0  0  0  0  0  0
   33.3670   -4.4083   10.2207 H   0  0  0  0  0  0  0  0  0  0  0  0
   32.3874   -2.1996   10.3918 H   0  0  0  0  0  0  0  0  0  0  0  0
   33.2941   -2.2714    8.8428 H   0  0  0  0  0  0  0  0  0  0  0  0
   31.5035   -2.4142    8.8428 H   0  0  0  0  0  0  0  0  0  0  0  0
   31.9831   -8.8024    3.4339 H   0  0  0  0  0  0  0  0  0  0  0  0
   32.1291   -7.7533    1.9831 H   0  0  0  0  0  0  0  0  0  0  0  0
   32.8623   -9.3931    1.9831 H   0  0  0  0  0  0  0  0  0  0  0  0
   36.5541   -8.6920    4.5713 H   0  0  0  0  0  0  0  0  0  0  0  0
   35.2535   -8.1442    3.4600 H   0  0  0  0  0  0  0  0  0  0  0  0
   36.8449   -7.3110    3.4600 H   0  0  0  0  0  0  0  0  0  0  0  0
   37.4759   -6.9931    6.1840 H   0  0  0  0  0  0  0  0  0  0  0  0
   36.8554   -5.0376    8.7511 H   0  0  0  0  0  0  0  0  0  0  0  0
   36.3712   -6.7679    9.0274 H   0  0  0  0  0  0  0  0  0  0  0  0
   38.3200   -4.5485    7.3618 H   0  0  0  0  0  0  0  0  0  0  0  0
   38.7189   -6.0351    6.2341 H   0  0  0  0  0  0  0  0  0  0  0  0
   40.5647   -6.3160    7.1321 H   0  0  0  0  0  0  0  0  0  0  0  0
   40.3226   -4.5620    6.6090 H   0  0  0  0  0  0  0  0  0  0  0  0
   40.0384   -5.3860    9.3613 H   0  0  0  0  0  0  0  0  0  0  0  0
   41.5408   -5.0315    8.6935 H   0  0  0  0  0  0  0  0  0  0  0  0
 19 18  1  0
 18 16  1  0
 17 16  2  0
 16 15  1  0
 21 20  1  0
  5  4  2  0
  5  6  1  0
  4  3  1  0
  6  7  2  0
 15 20  2  0
 15  8  1  0
 20 22  1  0
  3  2  2  0
  7  2  1  0
  7  8  1  0
  2  1  1  0
  8  9  1  0
 22 23  1  0
 23  9  2  0
 23 24  1  0
  9 10  1  0
 26 27  1  0
 26 25  1  0
 27 28  1  0
 25 24  1  0
 12 10  1  0
 12 13  1  0
 10 11  2  0
 14 13  1  0
  3 29  1  0
  4 30  1  0
  5 31  1  0
  6 32  1  0
  8 33  1  0
 13 34  1  0
 13 35  1  0
 14 36  1  0
 14 37  1  0
 14 38  1  0
 19 39  1  0
 19 40  1  0
 19 41  1  0
 21 42  1  0
 21 43  1  0
 21 44  1  0
 22 45  1  0
 24 46  1  0
 24 47  1  0
 26 48  1  0
 26 49  1  0
 27 50  1  0
 27 51  1  0
 28 52  1  0
 28 53  1  0
A    1
CLAG
A    2
CAZ
A    3
CAJ
A    4
CAH
A    5
CAI
A    6
CAK
A    7
CBA
A    8
CBB
A    9
CAY
A   10
CAV
A   11
OAF
A   12
OAS
A   13
CAL
A   14
CAA
A   15
CAX
A   16
CAU
A   17
OAE
A   18
OAQ
A   19
CAB
A   20
CAT
A   21
CAC
A   22
NAP
A   23
CAW
A   24
CAO
A   25
OAR
A   26
CAN
A   27
CAM
A   28
NAD
M  END
