3TSK_QEG_A_306
     RDKit          3D

 72 74  0  0  0  0  0  0  0  0999 V2000
    9.7400   26.2240    4.4400 O   0  0  0  0  0  0  0  0  0  0  0  0
    2.4460   22.3030    8.4120 S   0  0  0  0  0  0  0  0  0  0  0  0
    8.5610   26.3170    4.3850 C   0  0  0  0  0  0  0  0  0  0  0  0
    7.7730   25.1900    3.7690 C   0  0  0  0  0  0  0  0  0  0  0  0
    7.6830   23.8750    4.5200 C   0  0  0  0  0  0  0  0  0  0  0  0
    5.1640   24.2160    4.5080 C   0  0  0  0  0  0  0  0  0  0  0  0
    4.8770   22.7090    6.7400 C   0  0  0  0  0  0  0  0  0  0  0  0
    3.7230   23.2350    6.1920 C   0  0  0  0  0  0  0  0  0  0  0  0
    3.8940   24.0030    5.0500 C   0  0  0  0  0  0  0  0  0  0  0  0
    2.3880   22.9330    6.8600 C   0  0  0  0  0  0  0  0  0  0  0  0
    1.0410   22.9600    6.6160 C   0  0  0  0  0  0  0  0  0  0  0  0
    0.2250   22.4620    7.6840 C   0  0  0  0  0  0  0  0  0  0  0  0
   -1.2390   22.4170    7.7510 C   0  0  0  0  0  0  0  0  0  0  0  0
   -1.8500   21.2850    8.1820 C   0  0  0  0  0  0  0  0  0  0  0  0
   -3.2140   21.2120    8.2760 C   0  0  0  0  0  0  0  0  0  0  0  0
   -3.9630   22.3130    7.9830 C   0  0  0  0  0  0  0  0  0  0  0  0
   -3.3530   23.4680    7.5780 C   0  0  0  0  0  0  0  0  0  0  0  0
   -1.9860   23.5290    7.4710 C   0  0  0  0  0  0  0  0  0  0  0  0
    6.3030   23.6610    5.0810 C   0  0  0  0  0  0  0  0  0  0  0  0
    6.1420   22.9080    6.2190 C   0  0  0  0  0  0  0  0  0  0  0  0
    0.8590   22.0460    8.8030 C   0  0  0  0  0  0  0  0  0  0  0  0
    7.8800   27.3640    4.8260 N   0  0  0  0  0  0  0  0  0  0  0  0
    8.4140   28.5690    5.4320 C   0  0  0  0  0  0  0  0  0  0  0  0
    7.7580   28.8110    6.7840 C   0  0  0  0  0  0  0  0  0  0  0  0
    6.6890   28.3540    7.1000 O   0  0  0  0  0  0  0  0  0  0  0  0
    8.2420   29.7180    4.4090 C   0  0  0  0  0  0  0  0  0  0  0  0
    9.5000   30.5670    4.1040 C   0  0  0  0  0  0  0  0  0  0  0  0
    9.5690   31.4830    2.8770 C   0  0  0  0  0  0  0  0  0  0  0  0
    8.8960   31.3830    1.8950 O   0  0  0  0  0  0  0  0  0  0  0  0
   10.4770   32.4300    2.9030 N   0  0  0  0  0  0  0  0  0  0  0  0
    8.4220   29.5400    7.6470 N   0  0  0  0  0  0  0  0  0  0  0  0
    7.8550   29.7800    8.9520 C   0  0  0  0  0  0  0  0  0  0  0  0
    6.5850   30.5830    8.9020 C   0  0  0  0  0  0  0  0  0  0  0  0
    6.4480   31.5120    8.1780 O   0  0  0  0  0  0  0  0  0  0  0  0
    8.8210   30.4380    9.8880 C   0  0  0  0  0  0  0  0  0  0  0  0
    8.9700   29.8870   11.2870 C   0  0  0  0  0  0  0  0  0  0  0  0
    9.8300   30.4360   12.3560 C   0  0  0  0  0  0  0  0  0  0  0  0
    9.8160   29.8460   13.4300 O   0  0  0  0  0  0  0  0  0  0  0  0
   10.5260   31.4550   12.2140 O   0  0  0  0  0  0  0  0  0  0  0  0
    5.6170   30.1980    9.6890 N   0  0  0  0  0  0  0  0  0  0  0  0
    6.7446   25.5532    3.6256 H   0  0  0  0  0  0  0  0  0  0  0  0
    8.3304   24.9402    2.8542 H   0  0  0  0  0  0  0  0  0  0  0  0
    7.9217   23.0514    3.8310 H   0  0  0  0  0  0  0  0  0  0  0  0
    8.3979   23.9019    5.3555 H   0  0  0  0  0  0  0  0  0  0  0  0
    5.2653   24.8377    3.6062 H   0  0  0  0  0  0  0  0  0  0  0  0
    4.7835   22.0938    7.6470 H   0  0  0  0  0  0  0  0  0  0  0  0
    3.0156   24.4517    4.5631 H   0  0  0  0  0  0  0  0  0  0  0  0
    0.6175   23.3351    5.6726 H   0  0  0  0  0  0  0  0  0  0  0  0
   -1.2404   20.4126    8.4601 H   0  0  0  0  0  0  0  0  0  0  0  0
   -3.7005   20.2749    8.5847 H   0  0  0  0  0  0  0  0  0  0  0  0
   -5.0586   22.2722    8.0724 H   0  0  0  0  0  0  0  0  0  0  0  0
   -3.9609   24.3525    7.3368 H   0  0  0  0  0  0  0  0  0  0  0  0
   -1.4950   24.4638    7.1628 H   0  0  0  0  0  0  0  0  0  0  0  0
    7.0181   22.4643    6.7146 H   0  0  0  0  0  0  0  0  0  0  0  0
    0.4310   21.6417    9.7322 H   0  0  0  0  0  0  0  0  0  0  0  0
    6.8558   27.3173    4.7276 H   0  0  0  0  0  0  0  0  0  0  0  0
    9.4876   28.4857    5.6565 H   0  0  0  0  0  0  0  0  0  0  0  0
    7.9012   29.2739    3.4621 H   0  0  0  0  0  0  0  0  0  0  0  0
    7.5268   30.4141    4.8715 H   0  0  0  0  0  0  0  0  0  0  0  0
    9.6603   31.2108    4.9814 H   0  0  0  0  0  0  0  0  0  0  0  0
   10.2523   29.7996    3.8691 H   0  0  0  0  0  0  0  0  0  0  0  0
   10.8211   32.7889    3.8050 H   0  0  0  0  0  0  0  0  0  0  0  0
   10.8456   32.8144    2.0214 H   0  0  0  0  0  0  0  0  0  0  0  0
    9.3387   29.9374    7.3965 H   0  0  0  0  0  0  0  0  0  0  0  0
    7.6153   28.7789    9.3397 H   0  0  0  0  0  0  0  0  0  0  0  0
    9.8128   30.3906    9.4147 H   0  0  0  0  0  0  0  0  0  0  0  0
    8.3999   31.4425   10.0415 H   0  0  0  0  0  0  0  0  0  0  0  0
    7.9532   29.8905   11.7066 H   0  0  0  0  0  0  0  0  0  0  0  0
    9.5217   28.9621   11.0632 H   0  0  0  0  0  0  0  0  0  0  0  0
   10.8586   31.9420   13.0092 H   0  0  0  0  0  0  0  0  0  0  0  0
    5.7348   30.2448   10.7112 H   0  0  0  0  0  0  0  0  0  0  0  0
    4.7356   29.8474    9.2877 H   0  0  0  0  0  0  0  0  0  0  0  0
 33 32  1  0
 33 40  1  0
 33 34  2  0
 31 32  1  0
 31 24  1  0
 25 24  2  0
 32 35  1  0
 22 23  1  0
 22  3  1  0
  1  3  2  0
 35 36  1  0
 36 37  1  0
 30 28  1  0
 37 39  1  0
 37 38  2  0
 24 23  1  0
 23 26  1  0
  2 10  1  0
  2 21  1  0
 26 27  1  0
 27 28  1  0
 28 29  2  0
  3  4  1  0
  4  5  1  0
  5 19  1  0
  6  9  2  0
  6 19  1  0
  7  8  2  0
  7 20  1  0
  8  9  1  0
  8 10  1  0
 10 11  2  0
 11 12  1  0
 12 13  1  0
 12 21  2  0
 13 14  2  0
 13 18  1  0
 14 15  1  0
 15 16  2  0
 16 17  1  0
 17 18  2  0
 19 20  2  0
  4 41  1  0
  4 42  1  0
  5 43  1  0
  5 44  1  0
  6 45  1  0
  7 46  1  0
  9 47  1  0
 11 48  1  0
 14 49  1  0
 15 50  1  0
 16 51  1  0
 17 52  1  0
 18 53  1  0
 20 54  1  0
 21 55  1  0
 22 56  1  0
 23 57  1  0
 26 58  1  0
 26 59  1  0
 27 60  1  0
 27 61  1  0
 30 62  1  0
 30 63  1  0
 31 64  1  0
 32 65  1  0
 35 66  1  0
 35 67  1  0
 36 68  1  0
 36 69  1  0
 39 70  1  0
 40 71  1  0
 40 72  1  0
A    1
O2
A    2
S7
A    3
C11
A    4
C12
A    5
C13
A    6
C14
A    7
C15
A    8
C16
A    9
C17
A   10
C18
A   11
C19
A   12
C20
A   13
C21
A   14
C22
A   15
C23
A   16
C24
A   17
C25
A   18
C26
A   19
C27
A   20
C28
A   21
C29
A   22
N2
A   23
C7
A   24
C6
A   25
O1
A   26
C8
A   27
C9
A   28
C10
A   29
O4E
A   30
N4
A   31
N1
A   32
C2
A   33
C1
A   34
O9
A   35
C3
A   36
C4
A   37
C5
A   38
O8E
A   39
O8
A   40
N9
M  END
