3TT0_07J_A_1
     RDKit          3D

 69 72  0  0  0  0  0  0  0  0999 V2000
  -14.7870    7.6160   11.0550 O   0  0  0  0  0  0  0  0  0  0  0  0
  -15.0830    8.6010   11.7220 C   0  0  0  0  0  0  0  0  0  0  0  0
  -14.2230    9.6760   11.8470 N   0  0  0  0  0  0  0  0  0  0  0  0
  -12.9940    9.6860   11.1660 C   0  0  0  0  0  0  0  0  0  0  0  0
  -11.8980    8.9800   11.6190 C   0  0  0  0  0  0  0  0  0  0  0  0
  -11.9720    8.0680   13.0810 Cl  0  0  0  0  0  0  0  0  0  0  0  0
  -10.7150    9.0150   10.9080 C   0  0  0  0  0  0  0  0  0  0  0  0
   -9.6610    8.2710   11.4250 O   0  0  0  0  0  0  0  0  0  0  0  0
   -8.5480    8.2950   10.5400 C   0  0  0  0  0  0  0  0  0  0  0  0
  -10.6310    9.7380    9.7320 C   0  0  0  0  0  0  0  0  0  0  0  0
  -11.7240   10.4550    9.2800 C   0  0  0  0  0  0  0  0  0  0  0  0
  -11.7250   11.2120    8.1100 O   0  0  0  0  0  0  0  0  0  0  0  0
  -10.4850   11.0810    7.4190 C   0  0  0  0  0  0  0  0  0  0  0  0
  -12.9000   10.4130    9.9980 C   0  0  0  0  0  0  0  0  0  0  0  0
  -14.2670   11.2940    9.4520 Cl  0  0  0  0  0  0  0  0  0  0  0  0
  -16.2870    8.7110   12.4160 N   0  0  0  0  0  0  0  0  0  0  0  0
  -17.2270    7.6110   12.3330 C   0  0  0  0  0  0  0  0  0  0  0  0
  -16.6840    9.8550   13.1610 C   0  0  0  0  0  0  0  0  0  0  0  0
  -18.0240   10.0120   13.4610 C   0  0  0  0  0  0  0  0  0  0  0  0
  -18.4230   11.1230   14.1770 C   0  0  0  0  0  0  0  0  0  0  0  0
  -17.5340   12.0480   14.5600 N   0  0  0  0  0  0  0  0  0  0  0  0
  -16.2620   11.8130   14.2190 C   0  0  0  0  0  0  0  0  0  0  0  0
  -15.7790   10.7660   13.5430 N   0  0  0  0  0  0  0  0  0  0  0  0
  -19.7720   11.3540   14.5090 N   0  0  0  0  0  0  0  0  0  0  0  0
  -20.8340   10.4330   14.5710 C   0  0  0  0  0  0  0  0  0  0  0  0
  -21.2860    9.7510   13.4590 C   0  0  0  0  0  0  0  0  0  0  0  0
  -22.3480    8.8740   13.5560 C   0  0  0  0  0  0  0  0  0  0  0  0
  -22.9940    8.6710   14.7650 C   0  0  0  0  0  0  0  0  0  0  0  0
  -22.5480    9.3700   15.8690 C   0  0  0  0  0  0  0  0  0  0  0  0
  -21.4830   10.2410   15.7750 C   0  0  0  0  0  0  0  0  0  0  0  0
  -24.0890    7.7890   14.9220 N   0  0  0  0  0  0  0  0  0  0  0  0
  -25.2060    8.4450   15.6040 C   0  0  0  0  0  0  0  0  0  0  0  0
  -26.2870    7.4190   15.8840 C   0  0  0  0  0  0  0  0  0  0  0  0
  -26.6260    6.7980   14.5730 N   0  0  0  0  0  0  0  0  0  0  0  0
  -27.8920    6.0240   14.6160 C   0  0  0  0  0  0  0  0  0  0  0  0
  -29.0250    7.0140   14.7620 C   0  0  0  0  0  0  0  0  0  0  0  0
  -25.4980    6.0430   13.9490 C   0  0  0  0  0  0  0  0  0  0  0  0
  -24.3750    7.0340   13.7000 C   0  0  0  0  0  0  0  0  0  0  0  0
  -14.4847   10.4744   12.4429 H   0  0  0  0  0  0  0  0  0  0  0  0
   -7.6158    8.3151   11.1237 H   0  0  0  0  0  0  0  0  0  0  0  0
   -8.5643    7.3963    9.9059 H   0  0  0  0  0  0  0  0  0  0  0  0
   -8.6030    9.1922    9.9059 H   0  0  0  0  0  0  0  0  0  0  0  0
   -9.6941    9.7428    9.1556 H   0  0  0  0  0  0  0  0  0  0  0  0
   -9.6661   10.9945    8.1484 H   0  0  0  0  0  0  0  0  0  0  0  0
  -10.5104   10.1805    6.7877 H   0  0  0  0  0  0  0  0  0  0  0  0
  -10.3217   11.9669    6.7877 H   0  0  0  0  0  0  0  0  0  0  0  0
  -17.5034    7.2876   13.3474 H   0  0  0  0  0  0  0  0  0  0  0  0
  -18.1283    7.9388   11.7943 H   0  0  0  0  0  0  0  0  0  0  0  0
  -16.7627    6.7718   11.7943 H   0  0  0  0  0  0  0  0  0  0  0  0
  -18.7610    9.2635   13.1344 H   0  0  0  0  0  0  0  0  0  0  0  0
  -15.5276   12.5700   14.5315 H   0  0  0  0  0  0  0  0  0  0  0  0
  -20.0139   12.3288   14.7373 H   0  0  0  0  0  0  0  0  0  0  0  0
  -20.7956    9.9077   12.4869 H   0  0  0  0  0  0  0  0  0  0  0  0
  -22.6857    8.3294   12.6619 H   0  0  0  0  0  0  0  0  0  0  0  0
  -23.0496    9.2300   16.8379 H   0  0  0  0  0  0  0  0  0  0  0  0
  -21.1469   10.7884   16.6680 H   0  0  0  0  0  0  0  0  0  0  0  0
  -24.8553    8.8788   16.5520 H   0  0  0  0  0  0  0  0  0  0  0  0
  -25.6105    9.2457   14.9674 H   0  0  0  0  0  0  0  0  0  0  0  0
  -27.1735    7.9079   16.3141 H   0  0  0  0  0  0  0  0  0  0  0  0
  -25.9432    6.6640   16.6063 H   0  0  0  0  0  0  0  0  0  0  0  0
  -28.0128    5.4495   13.6857 H   0  0  0  0  0  0  0  0  0  0  0  0
  -27.8850    5.3162   15.4580 H   0  0  0  0  0  0  0  0  0  0  0  0
  -29.2244    7.1882   15.8297 H   0  0  0  0  0  0  0  0  0  0  0  0
  -28.7466    7.9634   14.2813 H   0  0  0  0  0  0  0  0  0  0  0  0
  -29.9285    6.6108   14.2813 H   0  0  0  0  0  0  0  0  0  0  0  0
  -25.8241    5.5968   12.9979 H   0  0  0  0  0  0  0  0  0  0  0  0
  -25.1610    5.2301   14.6090 H   0  0  0  0  0  0  0  0  0  0  0  0
  -23.4714    6.4891   13.3892 H   0  0  0  0  0  0  0  0  0  0  0  0
  -24.6815    7.7335   12.9083 H   0  0  0  0  0  0  0  0  0  0  0  0
 13 12  1  0
 12 11  1  0
 11 10  2  0
 11 14  1  0
 15 14  1  0
 10  7  1  0
 14  4  2  0
  9  8  1  0
  7  8  1  0
  7  5  2  0
  1  2  2  0
  4  5  1  0
  4  3  1  0
  5  6  1  0
  2  3  1  0
  2 16  1  0
 17 16  1  0
 16 18  1  0
 18 19  2  0
 18 23  1  0
 26 27  2  0
 26 25  1  0
 19 20  1  0
 23 22  2  0
 27 28  1  0
 38 37  1  0
 38 31  1  0
 37 34  1  0
 20 24  1  0
 20 21  2  0
 22 21  1  0
 24 25  1  0
 25 30  2  0
 34 35  1  0
 34 33  1  0
 35 36  1  0
 28 31  1  0
 28 29  2  0
 31 32  1  0
 32 33  1  0
 30 29  1  0
  3 39  1  0
  9 40  1  0
  9 41  1  0
  9 42  1  0
 10 43  1  0
 13 44  1  0
 13 45  1  0
 13 46  1  0
 17 47  1  0
 17 48  1  0
 17 49  1  0
 19 50  1  0
 22 51  1  0
 24 52  1  0
 26 53  1  0
 27 54  1  0
 29 55  1  0
 30 56  1  0
 32 57  1  0
 32 58  1  0
 33 59  1  0
 33 60  1  0
 35 61  1  0
 35 62  1  0
 36 63  1  0
 36 64  1  0
 36 65  1  0
 37 66  1  0
 37 67  1  0
 38 68  1  0
 38 69  1  0
A    1
O1
A    2
C2
A    3
N3
A    4
C4
A    5
C5
A    6
CL1
A    7
C7
A    8
O8
A    9
C9
A   10
C10
A   11
C11
A   12
O12
A   13
C13
A   14
C14
A   15
CL2
A   16
N16
A   17
C17
A   18
C18
A   19
C19
A   20
C20
A   21
N21
A   22
C22
A   23
N23
A   24
N24
A   25
C25
A   26
C26
A   27
C27
A   28
C28
A   29
C29
A   30
C30
A   31
N31
A   32
C32
A   33
C33
A   34
N34
A   35
C35
A   36
C36
A   37
C37
A   38
C38
M  END
