3TU1_07G_A_1
     RDKit          3D

 54 56  0  0  0  0  0  0  0  0999 V2000
    7.2600    2.2350   20.9840 C   0  0  0  0  0  0  0  0  0  0  0  0
    6.7170    3.4980   20.7750 C   0  0  0  0  0  0  0  0  0  0  0  0
    7.4630    4.6110   20.9280 F   0  0  0  0  0  0  0  0  0  0  0  0
    5.3860    3.6090   20.4110 C   0  0  0  0  0  0  0  0  0  0  0  0
    4.8660    4.8280   20.2120 F   0  0  0  0  0  0  0  0  0  0  0  0
    4.6050    2.4680   20.2480 C   0  0  0  0  0  0  0  0  0  0  0  0
    5.1530    1.2030   20.4620 C   0  0  0  0  0  0  0  0  0  0  0  0
    6.4880    1.0800   20.8290 C   0  0  0  0  0  0  0  0  0  0  0  0
    7.1230   -0.2900   21.1030 C   0  0  0  0  0  0  0  0  0  0  0  0
    6.6320   -1.3660   20.2320 N   0  0  0  0  0  0  0  0  0  0  0  0
    5.6610   -2.1920   20.5980 C   0  0  0  0  0  0  0  0  0  0  0  0
    5.0690   -2.0370   21.6680 O   0  0  0  0  0  0  0  0  0  0  0  0
    7.4400   -1.4280   19.0360 C   0  0  0  0  0  0  0  0  0  0  0  0
    8.4890   -2.4580   18.8870 C   0  0  0  0  0  0  0  0  0  0  0  0
    9.1050   -2.7100   19.9160 O   0  0  0  0  0  0  0  0  0  0  0  0
    8.8010   -2.9060   17.6550 N   0  0  0  0  0  0  0  0  0  0  0  0
    9.9610   -3.7900   17.3680 C   0  0  0  0  0  0  0  0  0  0  0  0
    9.9380   -5.0580   18.2180 C   0  0  0  0  0  0  0  0  0  0  0  0
    9.9680   -4.1620   15.8870 C   0  0  0  0  0  0  0  0  0  0  0  0
   11.2300   -2.9800   17.6630 C   0  0  0  0  0  0  0  0  0  0  0  0
    7.1730   -0.4030   17.9290 C   0  0  0  0  0  0  0  0  0  0  0  0
    8.1940    0.4940   17.7010 C   0  0  0  0  0  0  0  0  0  0  0  0
    9.4800    0.6030   18.2310 C   0  0  0  0  0  0  0  0  0  0  0  0
   10.3200    1.6060   17.7850 C   0  0  0  0  0  0  0  0  0  0  0  0
    9.8850    2.4920   16.8080 C   0  0  0  0  0  0  0  0  0  0  0  0
   10.9280    3.7540   16.2560 Cl  0  0  0  0  0  0  0  0  0  0  0  0
    8.6020    2.3730   16.2800 C   0  0  0  0  0  0  0  0  0  0  0  0
    7.7500    1.3690   16.7250 C   0  0  0  0  0  0  0  0  0  0  0  0
    6.4950    1.0340   16.3990 N   0  0  0  0  0  0  0  0  0  0  0  0
    6.1120   -0.0270   17.1220 C   0  0  0  0  0  0  0  0  0  0  0  0
    4.7310   -0.6430   16.9740 C   0  0  0  0  0  0  0  0  0  0  0  0
    4.3320   -1.4890   17.7940 O   0  0  0  0  0  0  0  0  0  0  0  0
    4.0650   -0.2090   16.0230 O   0  0  0  0  0  0  0  0  0  0  0  0
    8.3164    2.1431   21.2767 H   0  0  0  0  0  0  0  0  0  0  0  0
    3.5508    2.5644   19.9490 H   0  0  0  0  0  0  0  0  0  0  0  0
    4.5298    0.3047   20.3405 H   0  0  0  0  0  0  0  0  0  0  0  0
    8.2102   -0.2008   20.9617 H   0  0  0  0  0  0  0  0  0  0  0  0
    6.8482   -0.5658   22.1318 H   0  0  0  0  0  0  0  0  0  0  0  0
    5.3803   -3.0262   19.9382 H   0  0  0  0  0  0  0  0  0  0  0  0
    8.2018   -2.6197   16.8677 H   0  0  0  0  0  0  0  0  0  0  0  0
    9.9429   -4.7852   19.2836 H   0  0  0  0  0  0  0  0  0  0  0  0
    9.0292   -5.6349   17.9914 H   0  0  0  0  0  0  0  0  0  0  0  0
   10.8252   -5.6675   17.9914 H   0  0  0  0  0  0  0  0  0  0  0  0
    9.9886   -5.2570   15.7841 H   0  0  0  0  0  0  0  0  0  0  0  0
    9.0622   -3.7654   15.4050 H   0  0  0  0  0  0  0  0  0  0  0  0
   10.8582   -3.7316   15.4050 H   0  0  0  0  0  0  0  0  0  0  0  0
   11.3652   -2.8937   18.7512 H   0  0  0  0  0  0  0  0  0  0  0  0
   12.1006   -3.4898   17.2246 H   0  0  0  0  0  0  0  0  0  0  0  0
   11.1341   -1.9757   17.2246 H   0  0  0  0  0  0  0  0  0  0  0  0
    9.8235   -0.1052   18.9994 H   0  0  0  0  0  0  0  0  0  0  0  0
   11.3326    1.7024   18.2037 H   0  0  0  0  0  0  0  0  0  0  0  0
    8.2610    3.0772   15.5068 H   0  0  0  0  0  0  0  0  0  0  0  0
    5.9135    1.5177   15.6998 H   0  0  0  0  0  0  0  0  0  0  0  0
    4.4143   -1.3145   18.7650 H   0  0  0  0  0  0  0  0  0  0  0  0
  2  3  1  0
  2  1  2  0
  4  2  1  0
  5  4  1  0
  6  4  2  0
  6  7  1  0
  7  8  2  0
  8  1  1  0
  8  9  1  0
 10 11  1  0
 10  9  1  0
 11 12  2  0
 13 10  1  0
 14 13  1  0
 14 15  2  0
 16 14  1  0
 17 16  1  0
 17 20  1  0
 17 18  1  0
 19 17  1  0
 21 13  1  0
 22 21  1  0
 22 23  2  0
 24 23  1  0
 25 24  2  0
 26 25  1  0
 27 28  2  0
 27 25  1  0
 28 22  1  0
 29 28  1  0
 29 30  1  0
 30 21  2  0
 31 30  1  0
 31 32  1  0
 33 31  2  0
  1 34  1  0
  6 35  1  0
  7 36  1  0
  9 37  1  0
  9 38  1  0
 11 39  1  0
 16 40  1  0
 18 41  1  0
 18 42  1  0
 18 43  1  0
 19 44  1  0
 19 45  1  0
 19 46  1  0
 20 47  1  0
 20 48  1  0
 20 49  1  0
 23 50  1  0
 24 51  1  0
 27 52  1  0
 29 53  1  0
 32 54  1  0
M  CHG  1  13   1
A    1
C3
A    2
C4
A    3
F1
A    4
C5
A    5
F2
A    6
C6
A    7
C1
A    8
C2
A    9
C7
A   10
N1
A   11
C8
A   12
O1
A   13
C9
A   14
C10
A   15
O2
A   16
N3
A   17
C20
A   18
C22
A   19
C23
A   20
C21
A   21
C11
A   22
C14
A   23
C15
A   24
C16
A   25
C17
A   26
CL1
A   27
C18
A   28
C13
A   29
N2
A   30
C12
A   31
C19
A   32
O4
A   33
O3
M  END
