3TUB_FPU_A_999
     RDKit          3D

 58 62  0  0  0  0  0  0  0  0999 V2000
   18.1390   -9.8670   -6.5410 C   0  0  0  0  0  0  0  0  0  0  0  0
   19.8660   -3.8780   -4.9630 N   0  0  0  0  0  0  0  0  0  0  0  0
   17.5990   -8.8790   -5.7020 O   0  0  0  0  0  0  0  0  0  0  0  0
   18.2730   -7.6990   -5.6120 C   0  0  0  0  0  0  0  0  0  0  0  0
   23.3410   -4.6420  -10.1960 N   0  0  0  0  0  0  0  0  0  0  0  0
   16.3590   -7.0020   -4.3050 O   0  0  0  0  0  0  0  0  0  0  0  0
   19.4610   -7.3890   -6.2230 C   0  0  0  0  0  0  0  0  0  0  0  0
   25.3890   -5.0780  -11.3500 N   0  0  0  0  0  0  0  0  0  0  0  0
   21.7890   -6.5920   -7.4850 O   0  0  0  0  0  0  0  0  0  0  0  0
   20.0200   -6.0990   -6.0270 C   0  0  0  0  0  0  0  0  0  0  0  0
   26.3840   -3.7760  -13.0430 N   0  0  0  0  0  0  0  0  0  0  0  0
   24.1770   -3.4060  -12.4590 O   0  0  0  0  0  0  0  0  0  0  0  0
   21.2140   -5.6560   -6.6720 C   0  0  0  0  0  0  0  0  0  0  0  0
   21.7150   -4.3990   -6.4490 C   0  0  0  0  0  0  0  0  0  0  0  0
   20.9760   -3.5340   -5.5960 C   0  0  0  0  0  0  0  0  0  0  0  0
   19.3920   -5.1680   -5.1780 C   0  0  0  0  0  0  0  0  0  0  0  0
   18.1720   -5.5170   -4.5350 C   0  0  0  0  0  0  0  0  0  0  0  0
   17.6180   -6.7420   -4.7780 C   0  0  0  0  0  0  0  0  0  0  0  0
   16.3540   -7.7850   -3.1380 C   0  0  0  0  0  0  0  0  0  0  0  0
   22.6930   -6.1330   -8.4100 C   0  0  0  0  0  0  0  0  0  0  0  0
   23.8220   -6.9300   -8.5980 C   0  0  0  0  0  0  0  0  0  0  0  0
   24.7140   -6.5810   -9.5950 C   0  0  0  0  0  0  0  0  0  0  0  0
   24.4470   -5.4320  -10.3740 C   0  0  0  0  0  0  0  0  0  0  0  0
   22.4760   -5.0190   -9.2320 C   0  0  0  0  0  0  0  0  0  0  0  0
   25.2220   -4.0150  -12.2830 C   0  0  0  0  0  0  0  0  0  0  0  0
   26.2840   -2.9380  -14.2050 C   0  0  0  0  0  0  0  0  0  0  0  0
   27.4930   -2.1360  -14.6490 C   0  0  0  0  0  0  0  0  0  0  0  0
   26.3000   -1.4130  -14.0520 C   0  0  0  0  0  0  0  0  0  0  0  0
   25.3360   -0.6790  -14.8860 C   0  0  0  0  0  0  0  0  0  0  0  0
   25.4460   -0.6470  -16.2730 C   0  0  0  0  0  0  0  0  0  0  0  0
   24.4700   -0.0070  -17.0280 C   0  0  0  0  0  0  0  0  0  0  0  0
   23.3890    0.6000  -16.4030 C   0  0  0  0  0  0  0  0  0  0  0  0
   23.2910    0.5830  -15.0160 C   0  0  0  0  0  0  0  0  0  0  0  0
   24.2590   -0.0560  -14.2560 C   0  0  0  0  0  0  0  0  0  0  0  0
   18.5772  -10.6687   -5.9285 H   0  0  0  0  0  0  0  0  0  0  0  0
   17.3433  -10.2839   -7.1759 H   0  0  0  0  0  0  0  0  0  0  0  0
   18.9195   -9.4224   -7.1759 H   0  0  0  0  0  0  0  0  0  0  0  0
   19.9731   -8.1290   -6.8556 H   0  0  0  0  0  0  0  0  0  0  0  0
   26.2613   -5.6238  -11.3954 H   0  0  0  0  0  0  0  0  0  0  0  0
   27.2856   -4.1932  -12.7711 H   0  0  0  0  0  0  0  0  0  0  0  0
   22.6564   -4.0711   -6.9141 H   0  0  0  0  0  0  0  0  0  0  0  0
   21.3522   -2.5103   -5.4527 H   0  0  0  0  0  0  0  0  0  0  0  0
   17.6808   -4.8095   -3.8508 H   0  0  0  0  0  0  0  0  0  0  0  0
   16.3582   -7.1281   -2.2557 H   0  0  0  0  0  0  0  0  0  0  0  0
   15.4518   -8.4141   -3.1224 H   0  0  0  0  0  0  0  0  0  0  0  0
   17.2481   -8.4256   -3.1224 H   0  0  0  0  0  0  0  0  0  0  0  0
   23.9984   -7.8146   -7.9684 H   0  0  0  0  0  0  0  0  0  0  0  0
   25.6143   -7.1859   -9.7786 H   0  0  0  0  0  0  0  0  0  0  0  0
   21.5610   -4.4265   -9.0848 H   0  0  0  0  0  0  0  0  0  0  0  0
   25.6074   -3.6633  -14.6805 H   0  0  0  0  0  0  0  0  0  0  0  0
   28.4333   -2.2028  -14.0822 H   0  0  0  0  0  0  0  0  0  0  0  0
   28.0614   -2.0480  -15.5867 H   0  0  0  0  0  0  0  0  0  0  0  0
   26.2082   -0.6721  -13.2442 H   0  0  0  0  0  0  0  0  0  0  0  0
   26.3022   -1.1264  -16.7700 H   0  0  0  0  0  0  0  0  0  0  0  0
   24.5544    0.0186  -18.1245 H   0  0  0  0  0  0  0  0  0  0  0  0
   22.6112    1.0936  -17.0041 H   0  0  0  0  0  0  0  0  0  0  0  0
   22.4430    1.0780  -14.5201 H   0  0  0  0  0  0  0  0  0  0  0  0
   24.1776   -0.0715  -13.1591 H   0  0  0  0  0  0  0  0  0  0  0  0
  1  3  1  0
  2 15  2  0
  2 16  1  0
  3  4  1  0
  4  7  2  0
  4 18  1  0
  5 23  2  0
  5 24  1  0
  6 18  1  0
  6 19  1  0
  7 10  1  0
  8 23  1  0
  8 25  1  0
  9 13  1  0
  9 20  1  0
 10 13  1  0
 10 16  2  0
 11 25  1  0
 11 26  1  0
 12 25  2  0
 13 14  2  0
 14 15  1  0
 16 17  1  0
 17 18  2  0
 20 21  1  0
 20 24  2  0
 21 22  2  0
 22 23  1  0
 26 27  1  0
 26 28  1  0
 27 28  1  0
 28 29  1  0
 29 30  2  0
 29 34  1  0
 30 31  1  0
 31 32  2  0
 32 33  1  0
 33 34  2  0
  1 35  1  0
  1 36  1  0
  1 37  1  0
  7 38  1  0
  8 39  1  0
 11 40  1  0
 14 41  1  0
 15 42  1  0
 17 43  1  0
 19 44  1  0
 19 45  1  0
 19 46  1  0
 21 47  1  0
 22 48  1  0
 24 49  1  0
 26 50  1  0
 27 51  1  0
 27 52  1  0
 28 53  1  0
 30 54  1  0
 31 55  1  0
 32 56  1  0
 33 57  1  0
 34 58  1  0
A    1
C1
A    2
N1
A    3
O1
A    4
C2
A    5
N2
A    6
O2
A    7
C3
A    8
N3
A    9
O3
A   10
C4
A   11
N4
A   12
O4
A   13
C5
A   14
C6
A   15
C7
A   16
C8
A   17
C9
A   18
C10
A   19
C11
A   20
C12
A   21
C13
A   22
C14
A   23
C15
A   24
C16
A   25
C17
A   26
C18
A   27
C19
A   28
C20
A   29
C21
A   30
C22
A   31
C23
A   32
C24
A   33
C25
A   34
C26
M  END
