3TUD_FPX_A_1
     RDKit          3D

 61 65  0  0  0  0  0  0  0  0999 V2000
  -25.6620   -5.8090    5.3800 C   0  0  0  0  0  0  0  0  0  0  0  0
  -25.6620   -5.1560    6.7380 C   0  0  0  0  0  0  0  0  0  0  0  0
  -26.8730   -5.0770    7.4740 C   0  0  0  0  0  0  0  0  0  0  0  0
  -26.9020   -4.4230    8.7160 C   0  0  0  0  0  0  0  0  0  0  0  0
  -25.7270   -3.9040    9.2890 C   0  0  0  0  0  0  0  0  0  0  0  0
  -25.8760   -3.2920   10.5700 N   0  0  0  0  0  0  0  0  0  0  0  0
  -25.1390   -2.2780   11.1250 C   0  0  0  0  0  0  0  0  0  0  0  0
  -24.1870   -1.7710   10.5760 O   0  0  0  0  0  0  0  0  0  0  0  0
  -25.4900   -1.7280   12.4310 C   0  0  0  0  0  0  0  0  0  0  0  0
  -26.5760   -2.2150   13.2230 C   0  0  0  0  0  0  0  0  0  0  0  0
  -26.8460   -1.5930   14.4430 C   0  0  0  0  0  0  0  0  0  0  0  0
  -26.0260   -0.5060   14.8870 C   0  0  0  0  0  0  0  0  0  0  0  0
  -24.9670   -0.0400   14.0970 C   0  0  0  0  0  0  0  0  0  0  0  0
  -24.7050   -0.6490   12.8820 C   0  0  0  0  0  0  0  0  0  0  0  0
  -24.1370    1.1270   14.5150 C   0  0  0  0  0  0  0  0  0  0  0  0
  -23.5470    0.9870   15.7640 F   0  0  0  0  0  0  0  0  0  0  0  0
  -23.2230    1.5070   13.5520 F   0  0  0  0  0  0  0  0  0  0  0  0
  -24.9960    2.1930   14.5380 F   0  0  0  0  0  0  0  0  0  0  0  0
  -24.5210   -3.9770    8.5650 C   0  0  0  0  0  0  0  0  0  0  0  0
  -24.4680   -4.5880    7.3000 C   0  0  0  0  0  0  0  0  0  0  0  0
  -23.1520   -4.6810    6.5650 C   0  0  0  0  0  0  0  0  0  0  0  0
  -22.5970   -3.6260    5.8690 C   0  0  0  0  0  0  0  0  0  0  0  0
  -21.3020   -3.8580    5.2130 C   0  0  0  0  0  0  0  0  0  0  0  0
  -20.6080   -2.8470    4.4990 C   0  0  0  0  0  0  0  0  0  0  0  0
  -19.4260   -3.1490    3.9240 N   0  0  0  0  0  0  0  0  0  0  0  0
  -18.8910   -4.3870    4.0140 C   0  0  0  0  0  0  0  0  0  0  0  0
  -17.6630   -4.6310    3.4150 N   0  0  0  0  0  0  0  0  0  0  0  0
  -16.9040   -5.8230    3.4010 C   0  0  0  0  0  0  0  0  0  0  0  0
  -17.0900   -6.8930    4.3560 C   0  0  0  0  0  0  0  0  0  0  0  0
  -16.2220   -8.0160    4.2940 C   0  0  0  0  0  0  0  0  0  0  0  0
  -15.1780   -8.0920    3.2960 C   0  0  0  0  0  0  0  0  0  0  0  0
  -15.0100   -7.0490    2.4190 C   0  0  0  0  0  0  0  0  0  0  0  0
  -15.9020   -5.9180    2.4270 C   0  0  0  0  0  0  0  0  0  0  0  0
  -19.5280   -5.3420    4.6530 N   0  0  0  0  0  0  0  0  0  0  0  0
  -20.6860   -5.1480    5.2600 C   0  0  0  0  0  0  0  0  0  0  0  0
  -21.2740   -6.1990    5.9400 N   0  0  0  0  0  0  0  0  0  0  0  0
  -20.6150   -7.5580    5.9970 C   0  0  0  0  0  0  0  0  0  0  0  0
  -22.4630   -6.0020    6.5880 C   0  0  0  0  0  0  0  0  0  0  0  0
  -22.9590   -6.9350    7.1910 O   0  0  0  0  0  0  0  0  0  0  0  0
  -24.6249   -5.9679    5.0496 H   0  0  0  0  0  0  0  0  0  0  0  0
  -26.1805   -6.7773    5.4388 H   0  0  0  0  0  0  0  0  0  0  0  0
  -26.1805   -5.1585    4.6603 H   0  0  0  0  0  0  0  0  0  0  0  0
  -27.7909   -5.5292    7.0704 H   0  0  0  0  0  0  0  0  0  0  0  0
  -27.8581   -4.3149    9.2490 H   0  0  0  0  0  0  0  0  0  0  0  0
  -26.6388   -3.6615   11.1553 H   0  0  0  0  0  0  0  0  0  0  0  0
  -27.1864   -3.0626   12.8780 H   0  0  0  0  0  0  0  0  0  0  0  0
  -27.6873   -1.9372   15.0625 H   0  0  0  0  0  0  0  0  0  0  0  0
  -26.2298   -0.0320   15.8585 H   0  0  0  0  0  0  0  0  0  0  0  0
  -23.8731   -0.2857   12.2607 H   0  0  0  0  0  0  0  0  0  0  0  0
  -23.6046   -3.5484    8.9969 H   0  0  0  0  0  0  0  0  0  0  0  0
  -23.1032   -2.6513    5.8077 H   0  0  0  0  0  0  0  0  0  0  0  0
  -21.0273   -1.8334    4.4158 H   0  0  0  0  0  0  0  0  0  0  0  0
  -17.2479   -3.8340    2.9116 H   0  0  0  0  0  0  0  0  0  0  0  0
  -17.8858   -6.8386    5.1135 H   0  0  0  0  0  0  0  0  0  0  0  0
  -16.3456   -8.8382    5.0142 H   0  0  0  0  0  0  0  0  0  0  0  0
  -14.5256   -8.9759    3.2402 H   0  0  0  0  0  0  0  0  0  0  0  0
  -14.1799   -7.0776    1.6978 H   0  0  0  0  0  0  0  0  0  0  0  0
  -15.7962   -5.1288    1.6681 H   0  0  0  0  0  0  0  0  0  0  0  0
  -20.4722   -7.8525    7.0472 H   0  0  0  0  0  0  0  0  0  0  0  0
  -21.2547   -8.2972    5.4927 H   0  0  0  0  0  0  0  0  0  0  0  0
  -19.6385   -7.5134    5.4927 H   0  0  0  0  0  0  0  0  0  0  0  0
  1  2  1  0
  2  3  2  0
  2 20  1  0
  3  4  1  0
  4  5  2  0
  5  6  1  0
  5 19  1  0
  6  7  1  0
  7  8  2  0
  7  9  1  0
  9 10  2  0
  9 14  1  0
 10 11  1  0
 11 12  2  0
 12 13  1  0
 13 14  2  0
 13 15  1  0
 15 16  1  0
 15 17  1  0
 15 18  1  0
 19 20  2  0
 20 21  1  0
 21 22  2  0
 21 38  1  0
 22 23  1  0
 23 24  2  0
 23 35  1  0
 24 25  1  0
 25 26  2  0
 26 27  1  0
 26 34  1  0
 27 28  1  0
 28 29  2  0
 28 33  1  0
 29 30  1  0
 30 31  2  0
 31 32  1  0
 32 33  2  0
 34 35  2  0
 35 36  1  0
 36 37  1  0
 36 38  1  0
 38 39  2  0
  1 40  1  0
  1 41  1  0
  1 42  1  0
  3 43  1  0
  4 44  1  0
  6 45  1  0
 10 46  1  0
 11 47  1  0
 12 48  1  0
 14 49  1  0
 19 50  1  0
 22 51  1  0
 24 52  1  0
 27 53  1  0
 29 54  1  0
 30 55  1  0
 31 56  1  0
 32 57  1  0
 33 58  1  0
 37 59  1  0
 37 60  1  0
 37 61  1  0
A    1
C1
A    2
C2
A    3
C3
A    4
C4
A    5
C5
A    6
N6
A    7
C7
A    8
O8
A    9
C9
A   10
C10
A   11
C11
A   12
C12
A   13
C13
A   14
C14
A   15
C15
A   16
F16
A   17
F17
A   18
F18
A   19
C19
A   20
C20
A   21
C21
A   22
C22
A   23
C23
A   24
C24
A   25
N25
A   26
C26
A   27
N27
A   28
C28
A   29
C29
A   30
C30
A   31
C31
A   32
C32
A   33
C33
A   34
N34
A   35
C35
A   36
N36
A   37
C37
A   38
C38
A   39
O39
M  END
