3TV4_TV4_A_1
     RDKit          3D

 41 42  0  0  0  0  0  0  0  0999 V2000
   18.3810  -25.6150   -0.6190 N   0  0  0  0  0  0  0  0  0  0  0  0
   18.0520  -24.3380   -0.3160 C   0  0  0  0  0  0  0  0  0  0  0  0
   16.7420  -23.8490   -0.4090 C   0  0  0  0  0  0  0  0  0  0  0  0
   15.7270  -24.7220   -0.8380 C   0  0  0  0  0  0  0  0  0  0  0  0
   16.0450  -26.0510   -1.1690 C   0  0  0  0  0  0  0  0  0  0  0  0
   17.3870  -26.4370   -1.0370 C   0  0  0  0  0  0  0  0  0  0  0  0
   19.1310  -23.5380    0.1050 N   0  0  0  0  0  0  0  0  0  0  0  0
   16.3760  -22.0330    0.0410 Br  0  0  0  0  0  0  0  0  0  0  0  0
   15.0820  -27.0230   -1.5870 N   0  0  0  0  0  0  0  0  0  0  0  0
   13.9650  -26.9080   -2.3940 C   0  0  0  0  0  0  0  0  0  0  0  0
   13.6270  -25.8740   -2.9440 O   0  0  0  0  0  0  0  0  0  0  0  0
   13.1360  -28.1180   -2.6430 C   0  0  0  0  0  0  0  0  0  0  0  0
   12.6050  -28.9260   -1.6360 C   0  0  0  0  0  0  0  0  0  0  0  0
   11.8250  -30.0420   -1.9570 C   0  0  0  0  0  0  0  0  0  0  0  0
   11.5540  -30.3650   -3.2860 C   0  0  0  0  0  0  0  0  0  0  0  0
   12.0710  -29.5560   -4.2940 C   0  0  0  0  0  0  0  0  0  0  0  0
   12.8460  -28.4490   -3.9580 C   0  0  0  0  0  0  0  0  0  0  0  0
   13.3470  -27.6760   -4.9220 F   0  0  0  0  0  0  0  0  0  0  0  0
   12.8430  -28.6370   -0.3510 F   0  0  0  0  0  0  0  0  0  0  0  0
   11.8710  -29.7900   -5.6570 N   0  0  0  0  0  0  0  0  0  0  0  0
   10.9680  -31.1190   -6.1760 S   0  0  0  0  0  0  0  0  0  0  0  0
   10.9440  -31.0460   -7.6260 O   0  0  0  0  0  0  0  0  0  0  0  0
    9.7840  -31.1940   -5.3580 O   0  0  0  0  0  0  0  0  0  0  0  0
   12.0310  -32.4750   -5.6610 C   0  0  0  0  0  0  0  0  0  0  0  0
   13.0570  -32.9150   -6.7030 C   0  0  0  0  0  0  0  0  0  0  0  0
   14.3300  -32.0820   -6.7210 C   0  0  0  0  0  0  0  0  0  0  0  0
   14.6887  -24.3669   -0.9144 H   0  0  0  0  0  0  0  0  0  0  0  0
   17.6504  -27.4748   -1.2892 H   0  0  0  0  0  0  0  0  0  0  0  0
   19.3115  -23.4042    1.1102 H   0  0  0  0  0  0  0  0  0  0  0  0
   19.7401  -23.0864   -0.5922 H   0  0  0  0  0  0  0  0  0  0  0  0
   15.2497  -27.9723   -1.2242 H   0  0  0  0  0  0  0  0  0  0  0  0
   11.4206  -30.6723   -1.1513 H   0  0  0  0  0  0  0  0  0  0  0  0
   10.9418  -31.2446   -3.5339 H   0  0  0  0  0  0  0  0  0  0  0  0
   12.2778  -29.1465   -6.3508 H   0  0  0  0  0  0  0  0  0  0  0  0
   12.5740  -32.1602   -4.7576 H   0  0  0  0  0  0  0  0  0  0  0  0
   11.3713  -33.3388   -5.4916 H   0  0  0  0  0  0  0  0  0  0  0  0
   13.3321  -33.9596   -6.4955 H   0  0  0  0  0  0  0  0  0  0  0  0
   12.5820  -32.7845   -7.6865 H   0  0  0  0  0  0  0  0  0  0  0  0
   14.6471  -31.8745   -5.6883 H   0  0  0  0  0  0  0  0  0  0  0  0
   15.1234  -32.6361   -7.2438 H   0  0  0  0  0  0  0  0  0  0  0  0
   14.1399  -31.1331   -7.2438 H   0  0  0  0  0  0  0  0  0  0  0  0
  2  1  2  0
  1  6  1  0
  7  2  1  0
  3  2  1  0
  8  3  1  0
  3  4  2  0
  4  5  1  0
  5  6  2  0
  5  9  1  0
  9 10  1  0
 10 12  1  0
 10 11  2  0
 13 12  2  0
 12 17  1  0
 19 13  1  0
 13 14  1  0
 14 15  2  0
 15 16  1  0
 17 16  2  0
 16 20  1  0
 17 18  1  0
 20 21  1  0
 23 21  2  0
 24 21  1  0
 21 22  2  0
 24 25  1  0
 26 25  1  0
  4 27  1  0
  6 28  1  0
  7 29  1  0
  7 30  1  0
  9 31  1  0
 14 32  1  0
 15 33  1  0
 20 34  1  0
 24 35  1  0
 24 36  1  0
 25 37  1  0
 25 38  1  0
 26 39  1  0
 26 40  1  0
 26 41  1  0
A    1
N1
A    2
C2
A    3
C3
A    4
C4
A    5
C5
A    6
C6
A    7
N7
A    8
BR8
A    9
N9
A   10
C10
A   11
O11
A   12
C12
A   13
C13
A   14
C14
A   15
C15
A   16
C16
A   17
C17
A   18
F18
A   19
F19
A   20
N20
A   21
S21
A   22
O22
A   23
O23
A   24
C24
A   25
C25
A   26
C26
M  END
