3S5Y_DGJ_A_801
     RDKit          3D

 24 24  0  0  0  0  0  0  0  0999 V2000
   39.1650   16.0310   31.3510 C   0  0  0  0  0  0  0  0  0  0  0  0
   39.9530   16.1960   30.0620 C   0  0  0  0  0  0  0  0  0  0  0  0
   41.0940   17.0270   30.2770 O   0  0  0  0  0  0  0  0  0  0  0  0
   39.0140   16.7460   28.9920 C   0  0  0  0  0  0  0  0  0  0  0  0
   39.7440   17.0680   27.7990 O   0  0  0  0  0  0  0  0  0  0  0  0
   37.9450   15.7000   28.7120 C   0  0  0  0  0  0  0  0  0  0  0  0
   38.5840   14.5650   28.1190 O   0  0  0  0  0  0  0  0  0  0  0  0
   37.1990   15.2780   29.9840 C   0  0  0  0  0  0  0  0  0  0  0  0
   38.1340   15.0600   31.0690 N   0  0  0  0  0  0  0  0  0  0  0  0
   36.3920   14.0070   29.7670 C   0  0  0  0  0  0  0  0  0  0  0  0
   35.4890   13.8040   30.8510 O   0  0  0  0  0  0  0  0  0  0  0  0
   38.7153   16.9897   31.6488 H   0  0  0  0  0  0  0  0  0  0  0  0
   39.8116   15.7018   32.1778 H   0  0  0  0  0  0  0  0  0  0  0  0
   40.3419   15.2269   29.7161 H   0  0  0  0  0  0  0  0  0  0  0  0
   41.2441   17.1363   31.2494 H   0  0  0  0  0  0  0  0  0  0  0  0
   38.5395   17.6732   29.3457 H   0  0  0  0  0  0  0  0  0  0  0  0
   40.6217   17.4552   28.0436 H   0  0  0  0  0  0  0  0  0  0  0  0
   37.1943   16.1313   28.0335 H   0  0  0  0  0  0  0  0  0  0  0  0
   38.9211   13.9663   28.8318 H   0  0  0  0  0  0  0  0  0  0  0  0
   36.5082   16.0948   30.2403 H   0  0  0  0  0  0  0  0  0  0  0  0
   38.6126   14.1694   30.8724 H   0  0  0  0  0  0  0  0  0  0  0  0
   35.8213   14.0948   28.8307 H   0  0  0  0  0  0  0  0  0  0  0  0
   37.0805   13.1511   29.7094 H   0  0  0  0  0  0  0  0  0  0  0  0
   35.9725   13.9127   31.7080 H   0  0  0  0  0  0  0  0  0  0  0  0
  9  1  1  0
  2  1  1  0
  4  2  1  0
  2  3  1  0
  6  4  1  0
  5  4  1  0
  7  6  1  0
  6  8  1  0
 10  8  1  0
  8  9  1  0
 10 11  1  0
  1 12  1  0
  1 13  1  0
  2 14  1  0
  3 15  1  0
  4 16  1  0
  5 17  1  0
  6 18  1  0
  7 19  1  0
  8 20  1  0
  9 21  1  0
 10 22  1  0
 10 23  1  0
 11 24  1  0
A    1
C1
A    2
C2
A    3
O2
A    4
C3
A    5
O3
A    6
C4
A    7
O4
A    8
C5
A    9
N5
A   10
C6
A   11
O6
M  END
