1GP5_DQH_A_380
     RDKit          3D

 34 36  0  0  0  0  0  0  0  0999 V2000
   18.0760   30.4740    0.9130 C   0  0  0  0  0  0  0  0  0  0  0  0
   18.3130   29.3510    1.7230 C   0  0  0  0  0  0  0  0  0  0  0  0
   17.2220   28.6250    2.3520 C   0  0  0  0  0  0  0  0  0  0  0  0
   15.8710   29.1070    2.0810 C   0  0  0  0  0  0  0  0  0  0  0  0
   15.6480   30.2280    1.2730 C   0  0  0  0  0  0  0  0  0  0  0  0
   16.7370   30.8970    0.7030 C   0  0  0  0  0  0  0  0  0  0  0  0
   17.4040   27.4550    3.2180 C   0  0  0  0  0  0  0  0  0  0  0  0
   16.1520   26.8130    3.8280 C   0  0  0  0  0  0  0  0  0  0  0  0
   14.9330   27.0360    2.9310 C   0  0  0  0  0  0  0  0  0  0  0  0
   13.5930   26.3470    3.2140 C   0  0  0  0  0  0  0  0  0  0  0  0
   12.3660   27.0600    3.1470 C   0  0  0  0  0  0  0  0  0  0  0  0
   11.1120   26.4210    3.3500 C   0  0  0  0  0  0  0  0  0  0  0  0
   11.0870   25.0450    3.6310 C   0  0  0  0  0  0  0  0  0  0  0  0
   12.3010   24.3190    3.7100 C   0  0  0  0  0  0  0  0  0  0  0  0
   13.5340   24.9580    3.5010 C   0  0  0  0  0  0  0  0  0  0  0  0
   14.7560   28.4670    2.6150 O   0  0  0  0  0  0  0  0  0  0  0  0
   18.5460   26.9830    3.4790 O   0  0  0  0  0  0  0  0  0  0  0  0
   12.2670   22.9670    3.9910 O   0  0  0  0  0  0  0  0  0  0  0  0
    9.9160   24.3450    3.8350 O   0  0  0  0  0  0  0  0  0  0  0  0
   16.3810   25.4520    4.1320 O   0  0  0  0  0  0  0  0  0  0  0  0
   16.5400   31.9900   -0.0820 O   0  0  0  0  0  0  0  0  0  0  0  0
   19.5920   28.9650    1.9160 O   0  0  0  0  0  0  0  0  0  0  0  0
   18.9133   31.0163    0.4495 H   0  0  0  0  0  0  0  0  0  0  0  0
   14.6229   30.5810    1.0872 H   0  0  0  0  0  0  0  0  0  0  0  0
   15.9263   27.3085    4.7838 H   0  0  0  0  0  0  0  0  0  0  0  0
   15.2431   26.4473    2.0550 H   0  0  0  0  0  0  0  0  0  0  0  0
   12.3866   28.1385    2.9317 H   0  0  0  0  0  0  0  0  0  0  0  0
   10.1760   26.9954    3.2879 H   0  0  0  0  0  0  0  0  0  0  0  0
   14.4651   24.3753    3.5604 H   0  0  0  0  0  0  0  0  0  0  0  0
   12.2592   22.6569    4.9311 H   0  0  0  0  0  0  0  0  0  0  0  0
    9.6046   24.1589    4.7561 H   0  0  0  0  0  0  0  0  0  0  0  0
   16.4012   25.3322    5.1145 H   0  0  0  0  0  0  0  0  0  0  0  0
   16.3805   32.8748    0.3324 H   0  0  0  0  0  0  0  0  0  0  0  0
   19.9437   28.8589    2.8353 H   0  0  0  0  0  0  0  0  0  0  0  0
  1  2  2  0
  1  6  1  0
  2  3  1  0
  2 22  1  0
  3  4  2  0
  3  7  1  0
  4  5  1  0
  4 16  1  0
  5  6  2  0
  6 21  1  0
  7  8  1  0
  7 17  2  0
  8  9  1  0
  8 20  1  0
  9 10  1  0
  9 16  1  0
 10 11  2  0
 10 15  1  0
 11 12  1  0
 12 13  2  0
 13 14  1  0
 13 19  1  0
 14 15  2  0
 14 18  1  0
  1 23  1  0
  5 24  1  0
  8 25  1  0
  9 26  1  0
 11 27  1  0
 12 28  1  0
 15 29  1  0
 18 30  1  0
 19 31  1  0
 20 32  1  0
 21 33  1  0
 22 34  1  0
A    1
C1
A    2
C2
A    3
C3
A    4
C4
A    5
C5
A    6
C6
A    7
C9
A    8
C10
A    9
C11
A   10
C14
A   11
C15
A   12
C16
A   13
C17
A   14
C18
A   15
C19
A   16
O12
A   17
O13
A   18
O23
A   19
O24
A   20
O27
A   21
O29
A   22
O30
M  END
