3TY0_082_A_1
     RDKit          3D

 56 61  0  0  0  0  0  0  0  0999 V2000
   18.2580    5.0890   15.2170 C   0  0  0  0  0  0  0  0  0  0  0  0
   19.0460    5.2010   14.0880 C   0  0  0  0  0  0  0  0  0  0  0  0
   18.5860    8.1050    8.5420 C   0  0  0  0  0  0  0  0  0  0  0  0
   12.4090    3.2260   13.0600 C   0  0  0  0  0  0  0  0  0  0  0  0
   17.7500    9.1820    8.7610 C   0  0  0  0  0  0  0  0  0  0  0  0
   18.2610    6.8550    9.0270 C   0  0  0  0  0  0  0  0  0  0  0  0
   16.8800    5.0650   15.1180 C   0  0  0  0  0  0  0  0  0  0  0  0
   18.4940    5.2950   12.8240 C   0  0  0  0  0  0  0  0  0  0  0  0
   11.2010    2.5870   13.2610 C   0  0  0  0  0  0  0  0  0  0  0  0
   16.2580    7.7610    9.9410 C   0  0  0  0  0  0  0  0  0  0  0  0
   10.8540    3.6360   15.4070 C   0  0  0  0  0  0  0  0  0  0  0  0
   12.8410    4.0930   14.0540 C   0  0  0  0  0  0  0  0  0  0  0  0
   16.5650    9.0210    9.4590 C   0  0  0  0  0  0  0  0  0  0  0  0
   17.0910    6.6770    9.7360 C   0  0  0  0  0  0  0  0  0  0  0  0
   16.3460    5.1650   13.8520 C   0  0  0  0  0  0  0  0  0  0  0  0
   17.1250    5.2750   12.7390 C   0  0  0  0  0  0  0  0  0  0  0  0
   12.0580    4.2570   15.1760 C   0  0  0  0  0  0  0  0  0  0  0  0
   10.4470    2.7890   14.3970 C   0  0  0  0  0  0  0  0  0  0  0  0
   13.9580    4.9480   14.2790 C   0  0  0  0  0  0  0  0  0  0  0  0
   14.5640   10.0290    8.6890 C   0  0  0  0  0  0  0  0  0  0  0  0
   15.9940   11.4750    7.9960 C   0  0  0  0  0  0  0  0  0  0  0  0
   14.9590    5.2960   12.0340 C   0  0  0  0  0  0  0  0  0  0  0  0
   15.5920   10.1370    9.7710 C   0  0  0  0  0  0  0  0  0  0  0  0
   15.0610   10.2080   11.1760 C   0  0  0  0  0  0  0  0  0  0  0  0
    8.8540    2.1210   15.8730 C   0  0  0  0  0  0  0  0  0  0  0  0
   16.7400    5.3240   10.2570 C   0  0  0  0  0  0  0  0  0  0  0  0
   13.8610    5.5710   15.4600 N   0  0  0  0  0  0  0  0  0  0  0  0
   14.9310   10.7610    7.6490 N   0  0  0  0  0  0  0  0  0  0  0  0
   15.0220    5.1570   13.4120 N   0  0  0  0  0  0  0  0  0  0  0  0
   16.2810    5.3560   11.6260 N   0  0  0  0  0  0  0  0  0  0  0  0
   13.6350    9.2360    8.7200 O   0  0  0  0  0  0  0  0  0  0  0  0
   16.5390   12.3330    7.3210 O   0  0  0  0  0  0  0  0  0  0  0  0
   13.9640    5.3700   11.3280 O   0  0  0  0  0  0  0  0  0  0  0  0
   12.6700    5.1290   16.0230 O   0  0  0  0  0  0  0  0  0  0  0  0
   16.2970   11.2730    9.3090 O   0  0  0  0  0  0  0  0  0  0  0  0
    9.2430    2.1080   14.5010 O   0  0  0  0  0  0  0  0  0  0  0  0
   18.7331    5.0181   16.2066 H   0  0  0  0  0  0  0  0  0  0  0  0
   20.1404    5.2158   14.1975 H   0  0  0  0  0  0  0  0  0  0  0  0
   19.5189    8.2449    7.9761 H   0  0  0  0  0  0  0  0  0  0  0  0
   13.0036    3.0549   12.1505 H   0  0  0  0  0  0  0  0  0  0  0  0
   18.0275   10.1752    8.3781 H   0  0  0  0  0  0  0  0  0  0  0  0
   18.9330    6.0025    8.8489 H   0  0  0  0  0  0  0  0  0  0  0  0
   16.2399    4.9706   16.0076 H   0  0  0  0  0  0  0  0  0  0  0  0
   19.1243    5.3819   11.9267 H   0  0  0  0  0  0  0  0  0  0  0  0
   10.8292    1.8955   12.4906 H   0  0  0  0  0  0  0  0  0  0  0  0
   15.3238    7.6176   10.5038 H   0  0  0  0  0  0  0  0  0  0  0  0
   10.2642    3.8005   16.3208 H   0  0  0  0  0  0  0  0  0  0  0  0
   15.8920   10.0969   11.8881 H   0  0  0  0  0  0  0  0  0  0  0  0
   14.5703   11.1797   11.3339 H   0  0  0  0  0  0  0  0  0  0  0  0
   14.3322    9.3993   11.3339 H   0  0  0  0  0  0  0  0  0  0  0  0
    9.7512    2.0910   16.5088 H   0  0  0  0  0  0  0  0  0  0  0  0
    8.2854    3.0386   16.0842 H   0  0  0  0  0  0  0  0  0  0  0  0
    8.2254    1.2434   16.0842 H   0  0  0  0  0  0  0  0  0  0  0  0
   15.9428    4.9007    9.6283 H   0  0  0  0  0  0  0  0  0  0  0  0
   17.6517    4.7093   10.2264 H   0  0  0  0  0  0  0  0  0  0  0  0
   14.4702   10.7740    6.7279 H   0  0  0  0  0  0  0  0  0  0  0  0
 32 21  2  0
 28 21  1  0
 28 20  1  0
 21 35  1  0
  3  5  2  0
  3  6  1  0
 20 31  2  0
 20 23  1  0
  5 13  1  0
  6 14  2  0
 35 23  1  0
 13 23  1  0
 13 10  2  0
 14 10  1  0
 14 26  1  0
 23 24  1  0
 26 30  1  0
 33 22  2  0
 30 22  1  0
 30 16  1  0
 22 29  1  0
 16  8  2  0
 16 15  1  0
  8  2  1  0
  4  9  2  0
  4 12  1  0
  9 18  1  0
 29 15  1  0
 29 19  1  0
 15  7  2  0
 12 19  1  0
 12 17  2  0
  2  1  2  0
 19 27  2  0
 18 36  1  0
 18 11  2  0
 36 25  1  0
  7  1  1  0
 17 11  1  0
 17 34  1  0
 27 34  1  0
  1 37  1  0
  2 38  1  0
  3 39  1  0
  4 40  1  0
  5 41  1  0
  6 42  1  0
  7 43  1  0
  8 44  1  0
  9 45  1  0
 10 46  1  0
 11 47  1  0
 24 48  1  0
 24 49  1  0
 24 50  1  0
 25 51  1  0
 25 52  1  0
 25 53  1  0
 26 54  1  0
 26 55  1  0
 28 56  1  0
A    1
C11
A    2
C10
A    3
C21
A    4
C2
A    5
C20
A    6
C22
A    7
C12
A    8
C13
A    9
C3
A   10
C18
A   11
C5
A   12
C1
A   13
C19
A   14
C17
A   15
C8
A   16
C7
A   17
C6
A   18
C4
A   19
C14
A   20
C24
A   21
C25
A   22
C9
A   23
C23
A   24
C26
A   25
C15
A   26
C16
A   27
N3
A   28
N4
A   29
N1
A   30
N2
A   31
O6
A   32
O5
A   33
O1
A   34
O2
A   35
O4
A   36
O3
M  END
