3TYO_DXW_A_800
     RDKit          3D

 50 52  0  0  0  0  0  0  0  0999 V2000
   15.4720   -0.6840   23.7860 N   0  0  0  0  0  0  0  0  0  0  0  0
   14.5470    0.1660   23.2980 C   0  0  0  0  0  0  0  0  0  0  0  0
   14.8370    0.9820   22.1960 C   0  0  0  0  0  0  0  0  0  0  0  0
   13.8530    1.8550   21.7210 C   0  0  0  0  0  0  0  0  0  0  0  0
   12.6090    1.8710   22.3380 C   0  0  0  0  0  0  0  0  0  0  0  0
   14.0930    2.7720   20.5390 C   0  0  0  0  0  0  0  0  0  0  0  0
   13.3270    0.2100   23.8950 N   0  0  0  0  0  0  0  0  0  0  0  0
   12.3610    1.0410   23.4370 C   0  0  0  0  0  0  0  0  0  0  0  0
   10.9880    1.0500   24.1070 C   0  0  0  0  0  0  0  0  0  0  0  0
   10.0450    0.0470   23.4290 C   0  0  0  0  0  0  0  0  0  0  0  0
    8.7110    0.0370   24.1570 C   0  0  0  0  0  0  0  0  0  0  0  0
    8.9160   -0.8910   25.3670 C   0  0  0  0  0  0  0  0  0  0  0  0
    9.9170   -1.8320   24.8590 N   0  0  0  0  0  0  0  0  0  0  0  0
   10.4950   -1.4090   23.5770 C   0  0  0  0  0  0  0  0  0  0  0  0
    8.3540    1.3760   24.4820 O   0  0  0  0  0  0  0  0  0  0  0  0
    6.9420    1.5850   24.5100 C   0  0  0  0  0  0  0  0  0  0  0  0
    6.7660    3.0610   24.8270 C   0  0  0  0  0  0  0  0  0  0  0  0
    7.0430    3.3120   26.2260 N   0  0  0  0  0  0  0  0  0  0  0  0
    6.0890    2.8890   27.2610 C   0  0  0  0  0  0  0  0  0  0  0  0
    4.8600    3.7770   27.2970 C   0  0  0  0  0  0  0  0  0  0  0  0
    4.8390    5.1410   27.4940 O   0  0  0  0  0  0  0  0  0  0  0  0
    3.5200    5.5560   27.4460 C   0  0  0  0  0  0  0  0  0  0  0  0
    2.7160    4.4520   27.2210 C   0  0  0  0  0  0  0  0  0  0  0  0
    3.5420    3.3470   27.1230 C   0  0  0  0  0  0  0  0  0  0  0  0
   15.5876   -0.7903   24.8040 H   0  0  0  0  0  0  0  0  0  0  0  0
   16.0633   -1.2274   23.1410 H   0  0  0  0  0  0  0  0  0  0  0  0
   15.8237    0.9365   21.7120 H   0  0  0  0  0  0  0  0  0  0  0  0
   11.8179    2.5367   21.9625 H   0  0  0  0  0  0  0  0  0  0  0  0
   14.3559    3.7766   20.9018 H   0  0  0  0  0  0  0  0  0  0  0  0
   14.9175    2.3752   19.9285 H   0  0  0  0  0  0  0  0  0  0  0  0
   13.1798    2.8300   19.9285 H   0  0  0  0  0  0  0  0  0  0  0  0
   10.5563    2.0589   24.0314 H   0  0  0  0  0  0  0  0  0  0  0  0
   11.1084    0.7635   25.1622 H   0  0  0  0  0  0  0  0  0  0  0  0
   10.0133    0.3617   22.3754 H   0  0  0  0  0  0  0  0  0  0  0  0
    7.8677   -0.3448   23.5627 H   0  0  0  0  0  0  0  0  0  0  0  0
    9.2944   -0.3355   26.2378 H   0  0  0  0  0  0  0  0  0  0  0  0
    7.9920   -1.3722   25.7200 H   0  0  0  0  0  0  0  0  0  0  0  0
    9.4701   -2.7512   24.7314 H   0  0  0  0  0  0  0  0  0  0  0  0
   10.1070   -2.0238   22.7515 H   0  0  0  0  0  0  0  0  0  0  0  0
   11.5892   -1.5184   23.5498 H   0  0  0  0  0  0  0  0  0  0  0  0
    6.4966    1.3440   23.5335 H   0  0  0  0  0  0  0  0  0  0  0  0
    6.4450    0.9423   25.2515 H   0  0  0  0  0  0  0  0  0  0  0  0
    7.4593    3.6500   24.2086 H   0  0  0  0  0  0  0  0  0  0  0  0
    5.7274    3.3517   24.6105 H   0  0  0  0  0  0  0  0  0  0  0  0
    7.9361    2.8451   26.4388 H   0  0  0  0  0  0  0  0  0  0  0  0
    5.7746    1.8555   27.0533 H   0  0  0  0  0  0  0  0  0  0  0  0
    6.5910    2.9634   28.2370 H   0  0  0  0  0  0  0  0  0  0  0  0
    3.1686    6.5914   27.5666 H   0  0  0  0  0  0  0  0  0  0  0  0
    1.6193    4.4532   27.1356 H   0  0  0  0  0  0  0  0  0  0  0  0
    3.2183    2.3117   26.9402 H   0  0  0  0  0  0  0  0  0  0  0  0
  6  4  1  0
  4  3  1  0
  4  5  2  0
  3  2  2  0
  5  8  1  0
  2  1  1  0
  2  7  1  0
 10 14  1  0
 10  9  1  0
 10 11  1  0
  8  7  2  0
  8  9  1  0
 14 13  1  0
 11 15  1  0
 11 12  1  0
 15 16  1  0
 16 17  1  0
 17 18  1  0
 13 12  1  0
 18 19  1  0
 24 23  1  0
 24 20  2  0
 23 22  2  0
 19 20  1  0
 20 21  1  0
 22 21  1  0
  1 25  1  0
  1 26  1  0
  3 27  1  0
  5 28  1  0
  6 29  1  0
  6 30  1  0
  6 31  1  0
  9 32  1  0
  9 33  1  0
 10 34  1  0
 11 35  1  0
 12 36  1  0
 12 37  1  0
 13 38  1  0
 14 39  1  0
 14 40  1  0
 16 41  1  0
 16 42  1  0
 17 43  1  0
 17 44  1  0
 18 45  1  0
 19 46  1  0
 19 47  1  0
 22 48  1  0
 23 49  1  0
 24 50  1  0
A    1
N02
A    2
C02
A    3
C03
A    4
C04
A    5
C05
A    6
C07
A    7
N01
A    8
C06
A    9
C08
A   10
C3'
A   11
C4'
A   12
C5'
A   13
N1'
A   14
C2'
A   15
O09
A   16
C10
A   17
C11
A   18
N12
A   19
C13
A   20
C22
A   21
O21
A   22
C23
A   23
C24
A   24
C25
M  END
