3TYQ_HI4_A_577
     RDKit          3D

 50 53  0  0  0  0  0  0  0  0999 V2000
   26.9250   43.0110   42.9140 C   0  0  0  0  0  0  0  0  0  0  0  0
   25.1150   43.1700   44.6140 N   0  0  0  0  0  0  0  0  0  0  0  0
   24.0600   46.1750   42.9430 O   0  0  0  0  0  0  0  0  0  0  0  0
   26.7260   44.0590   41.9870 C   0  0  0  0  0  0  0  0  0  0  0  0
   21.0940   47.2500   45.4970 N   0  0  0  0  0  0  0  0  0  0  0  0
   21.4810   45.3170   44.3130 O   0  0  0  0  0  0  0  0  0  0  0  0
   27.8410   44.6940   41.3950 C   0  0  0  0  0  0  0  0  0  0  0  0
   27.6490   45.7790   40.4410 N   0  0  0  0  0  0  0  0  0  0  0  0
   23.7670   44.0790   42.1630 O   0  0  0  0  0  0  0  0  0  0  0  0
   29.1470   44.2970   41.7020 C   0  0  0  0  0  0  0  0  0  0  0  0
   28.6360   46.4920   40.1830 O   0  0  0  0  0  0  0  0  0  0  0  0
   29.3440   43.2630   42.6210 C   0  0  0  0  0  0  0  0  0  0  0  0
   26.5290   45.8980   39.9120 O   0  0  0  0  0  0  0  0  0  0  0  0
   28.2460   42.6390   43.2230 C   0  0  0  0  0  0  0  0  0  0  0  0
   23.1530   45.9410   45.9300 C   0  0  0  0  0  0  0  0  0  0  0  0
   24.4370   43.8550   48.0520 C   0  0  0  0  0  0  0  0  0  0  0  0
   25.0650   42.8140   48.7580 C   0  0  0  0  0  0  0  0  0  0  0  0
   24.4980   43.8980   46.6410 C   0  0  0  0  0  0  0  0  0  0  0  0
   25.2020   42.8920   45.9610 C   0  0  0  0  0  0  0  0  0  0  0  0
   24.3800   44.3280   44.3990 C   0  0  0  0  0  0  0  0  0  0  0  0
   23.9730   44.7820   45.6580 C   0  0  0  0  0  0  0  0  0  0  0  0
   25.7540   41.8200   48.0550 C   0  0  0  0  0  0  0  0  0  0  0  0
   25.8360   41.8450   46.6510 C   0  0  0  0  0  0  0  0  0  0  0  0
   24.0830   44.9700   43.1320 C   0  0  0  0  0  0  0  0  0  0  0  0
   25.7460   42.3260   43.5730 C   0  0  0  0  0  0  0  0  0  0  0  0
   21.8470   46.1290   45.1750 C   0  0  0  0  0  0  0  0  0  0  0  0
   21.4760   48.1670   46.4540 C   0  0  0  0  0  0  0  0  0  0  0  0
   22.6190   47.9980   47.1370 C   0  0  0  0  0  0  0  0  0  0  0  0
   23.4710   46.8560   46.8660 C   0  0  0  0  0  0  0  0  0  0  0  0
   24.9970   42.7670   50.2720 C   0  0  0  0  0  0  0  0  0  0  0  0
   23.9360   41.7910   50.7480 C   0  0  0  0  0  0  0  0  0  0  0  0
   24.0481   46.7967   43.7133 H   0  0  0  0  0  0  0  0  0  0  0  0
   25.7063   44.3794   41.7271 H   0  0  0  0  0  0  0  0  0  0  0  0
   20.2069   47.4045   44.9969 H   0  0  0  0  0  0  0  0  0  0  0  0
   30.0067   44.7919   41.2266 H   0  0  0  0  0  0  0  0  0  0  0  0
   30.3648   42.9389   42.8717 H   0  0  0  0  0  0  0  0  0  0  0  0
   28.4200   41.8376   43.9561 H   0  0  0  0  0  0  0  0  0  0  0  0
   23.8956   44.6397   48.6007 H   0  0  0  0  0  0  0  0  0  0  0  0
   26.2403   41.0043   48.6101 H   0  0  0  0  0  0  0  0  0  0  0  0
   26.3841   41.0626   46.1056 H   0  0  0  0  0  0  0  0  0  0  0  0
   24.9957   42.0944   42.8027 H   0  0  0  0  0  0  0  0  0  0  0  0
   26.1171   41.4122   44.0601 H   0  0  0  0  0  0  0  0  0  0  0  0
   20.8406   49.0413   46.6585 H   0  0  0  0  0  0  0  0  0  0  0  0
   22.9108   48.7288   47.9056 H   0  0  0  0  0  0  0  0  0  0  0  0
   24.4014   46.7339   47.4400 H   0  0  0  0  0  0  0  0  0  0  0  0
   25.9751   42.4522   50.6647 H   0  0  0  0  0  0  0  0  0  0  0  0
   24.7343   43.7704   50.6384 H   0  0  0  0  0  0  0  0  0  0  0  0
   23.9191   41.7754   51.8478 H   0  0  0  0  0  0  0  0  0  0  0  0
   22.9520   42.1062   50.3706 H   0  0  0  0  0  0  0  0  0  0  0  0
   24.1681   40.7842   50.3706 H   0  0  0  0  0  0  0  0  0  0  0  0
  1  4  2  0
  1 14  1  0
  1 25  1  0
  2 19  1  0
  3 24  1  0
  4  7  1  0
  5 27  1  0
  6 26  2  0
  7 10  2  0
  8  7  1  0
  9 24  2  0
 10 12  1  0
 11  8  2  0
 12 14  2  0
 13  8  1  0
 15 29  2  0
 16 17  2  0
 17 30  1  0
 18 16  1  0
 19 18  2  0
 19 23  1  0
 20  2  1  0
 20 21  2  0
 21 15  1  0
 21 18  1  0
 22 17  1  0
 23 22  2  0
 24 20  1  0
 25  2  1  0
 26  5  1  0
 26 15  1  0
 27 28  2  0
 29 28  1  0
 30 31  1  0
  3 32  1  0
  4 33  1  0
  5 34  1  0
 10 35  1  0
 12 36  1  0
 14 37  1  0
 16 38  1  0
 22 39  1  0
 23 40  1  0
 25 41  1  0
 25 42  1  0
 27 43  1  0
 28 44  1  0
 29 45  1  0
 30 46  1  0
 30 47  1  0
 31 48  1  0
 31 49  1  0
 31 50  1  0
M  CHG  2   8   1  13  -1
A    1
C1
A    2
N1
A    3
O1
A    4
C2
A    5
N2
A    6
O2
A    7
C3
A    8
N3
A    9
O3
A   10
C4
A   11
O4
A   12
C5
A   13
O5
A   14
C6
A   15
C7
A   16
C8
A   17
C9
A   18
C10
A   19
C11
A   20
C12
A   21
C13
A   22
C14
A   23
C15
A   24
C16
A   25
C17
A   26
C18
A   27
C19
A   28
C20
A   29
C21
A   30
C22
A   31
C23
M  END
