3TYV_HI3_A_578
     RDKit          3D

 56 60  0  0  0  0  0  0  0  0999 V2000
   29.6190   45.0430   42.6510 C   0  0  0  0  0  0  0  0  0  0  0  0
   29.2330   46.3300   44.6090 F   0  0  0  0  0  0  0  0  0  0  0  0
   25.1840   43.5020   44.4850 N   0  0  0  0  0  0  0  0  0  0  0  0
   21.5600   45.6500   44.1330 O   0  0  0  0  0  0  0  0  0  0  0  0
   24.2650   45.2990   40.4500 S   0  0  0  0  0  0  0  0  0  0  0  0
   29.1940   44.0230   41.7920 C   0  0  0  0  0  0  0  0  0  0  0  0
   27.5940   42.3560   41.2550 F   0  0  0  0  0  0  0  0  0  0  0  0
   21.0890   47.4830   45.4480 N   0  0  0  0  0  0  0  0  0  0  0  0
   24.3540   46.6540   43.0750 O   0  0  0  0  0  0  0  0  0  0  0  0
   24.3420   43.9590   47.9310 C   0  0  0  0  0  0  0  0  0  0  0  0
   26.2940   40.9330   48.3990 F   0  0  0  0  0  0  0  0  0  0  0  0
   24.0850   44.6680   41.9920 N   0  0  0  0  0  0  0  0  0  0  0  0
   23.8690   44.2510   39.5310 O   0  0  0  0  0  0  0  0  0  0  0  0
   27.6930   44.6440   44.0650 C   0  0  0  0  0  0  0  0  0  0  0  0
   23.6720   46.5930   40.3360 O   0  0  0  0  0  0  0  0  0  0  0  0
   25.8050   42.0410   46.4200 C   0  0  0  0  0  0  0  0  0  0  0  0
   24.4530   44.0760   46.5210 C   0  0  0  0  0  0  0  0  0  0  0  0
   23.9650   45.0180   45.5880 C   0  0  0  0  0  0  0  0  0  0  0  0
   24.9840   42.8910   48.5780 C   0  0  0  0  0  0  0  0  0  0  0  0
   27.2460   43.6000   43.2150 C   0  0  0  0  0  0  0  0  0  0  0  0
   25.1900   43.1230   45.8030 C   0  0  0  0  0  0  0  0  0  0  0  0
   28.8650   45.3460   43.7740 C   0  0  0  0  0  0  0  0  0  0  0  0
   28.0140   43.3160   42.0780 C   0  0  0  0  0  0  0  0  0  0  0  0
   25.6770   41.9510   47.8070 C   0  0  0  0  0  0  0  0  0  0  0  0
   24.4630   44.6690   44.3290 C   0  0  0  0  0  0  0  0  0  0  0  0
   22.5050   48.1260   47.2370 C   0  0  0  0  0  0  0  0  0  0  0  0
   23.3870   47.0160   46.9370 C   0  0  0  0  0  0  0  0  0  0  0  0
   21.3990   48.3320   46.4930 C   0  0  0  0  0  0  0  0  0  0  0  0
   23.1320   46.1590   45.9050 C   0  0  0  0  0  0  0  0  0  0  0  0
   21.8670   46.3970   45.0920 C   0  0  0  0  0  0  0  0  0  0  0  0
   24.3030   45.4280   43.1210 C   0  0  0  0  0  0  0  0  0  0  0  0
   26.6340   46.7300   40.5350 C   0  0  0  0  0  0  0  0  0  0  0  0
   26.4440   46.3480   39.0890 C   0  0  0  0  0  0  0  0  0  0  0  0
   26.0540   45.4010   40.1820 C   0  0  0  0  0  0  0  0  0  0  0  0
   24.9070   42.7410   50.0810 C   0  0  0  0  0  0  0  0  0  0  0  0
   25.9820   42.8120   43.4670 C   0  0  0  0  0  0  0  0  0  0  0  0
   30.5434   45.5994   42.4368 H   0  0  0  0  0  0  0  0  0  0  0  0
   29.7819   43.7757   40.8958 H   0  0  0  0  0  0  0  0  0  0  0  0
   20.2333   47.6689   44.9057 H   0  0  0  0  0  0  0  0  0  0  0  0
   23.7618   44.6939   48.5083 H   0  0  0  0  0  0  0  0  0  0  0  0
   23.8031   43.6831   42.0992 H   0  0  0  0  0  0  0  0  0  0  0  0
   27.1111   44.9032   44.9618 H   0  0  0  0  0  0  0  0  0  0  0  0
   26.3660   41.2910   45.8431 H   0  0  0  0  0  0  0  0  0  0  0  0
   22.7379   48.8018   48.0731 H   0  0  0  0  0  0  0  0  0  0  0  0
   24.2833   46.8601   47.5554 H   0  0  0  0  0  0  0  0  0  0  0  0
   20.7389   49.1822   46.7199 H   0  0  0  0  0  0  0  0  0  0  0  0
   27.6471   46.7932   40.9589 H   0  0  0  0  0  0  0  0  0  0  0  0
   26.3181   47.5746   41.1649 H   0  0  0  0  0  0  0  0  0  0  0  0
   25.6687   46.8426   38.4855 H   0  0  0  0  0  0  0  0  0  0  0  0
   27.0952   46.2931   38.2042 H   0  0  0  0  0  0  0  0  0  0  0  0
   26.2951   44.3563   40.4280 H   0  0  0  0  0  0  0  0  0  0  0  0
   25.3590   43.6215   50.5610 H   0  0  0  0  0  0  0  0  0  0  0  0
   23.8540   42.6564   50.3876 H   0  0  0  0  0  0  0  0  0  0  0  0
   25.4520   41.8360   50.3876 H   0  0  0  0  0  0  0  0  0  0  0  0
   25.4034   42.7350   42.5346 H   0  0  0  0  0  0  0  0  0  0  0  0
   26.2380   41.8013   43.8177 H   0  0  0  0  0  0  0  0  0  0  0  0
  1  6  2  0
  1 22  1  0
  3 21  1  0
  4 30  2  0
  5 12  1  0
  6 23  1  0
  7 23  1  0
  8 28  1  0
  9 31  2  0
 10 19  2  0
 12 31  1  0
 13  5  2  0
 15  5  2  0
 16 24  2  0
 17 10  1  0
 18 17  1  0
 18 29  1  0
 19 35  1  0
 20 14  1  0
 20 36  1  0
 21 16  1  0
 21 17  2  0
 22  2  1  0
 22 14  2  0
 23 20  2  0
 24 11  1  0
 24 19  1  0
 25  3  1  0
 25 18  2  0
 27 26  1  0
 28 26  2  0
 29 27  2  0
 30  8  1  0
 30 29  1  0
 31 25  1  0
 33 32  1  0
 33 34  1  0
 34  5  1  0
 34 32  1  0
 36  3  1  0
  1 37  1  0
  6 38  1  0
  8 39  1  0
 10 40  1  0
 12 41  1  0
 14 42  1  0
 16 43  1  0
 26 44  1  0
 27 45  1  0
 28 46  1  0
 32 47  1  0
 32 48  1  0
 33 49  1  0
 33 50  1  0
 34 51  1  0
 35 52  1  0
 35 53  1  0
 35 54  1  0
 36 55  1  0
 36 56  1  0
A    1
C1
A    2
F1
A    3
N1
A    4
O1
A    5
S1
A    6
C2
A    7
F2
A    8
N2
A    9
O2
A   10
C3
A   11
F3
A   12
N3
A   13
O3
A   14
C4
A   15
O4
A   16
C5
A   17
C6
A   18
C7
A   19
C8
A   20
C9
A   21
C10
A   22
C11
A   23
C12
A   24
C13
A   25
C14
A   26
C15
A   27
C16
A   28
C17
A   29
C18
A   30
C19
A   31
C20
A   32
C21
A   33
C22
A   34
C23
A   35
C24
A   36
C25
M  END
