3TZ0_03H_A_389
     RDKit          3D

 20 19  0  0  0  0  0  0  0  0999 V2000
   -7.7750  -29.3900   14.5210 Cl  0  0  0  0  0  0  0  0  0  0  0  0
   -7.4330  -31.7810   13.3540 C   0  0  0  0  0  0  0  0  0  0  0  0
   -6.9230  -32.8860   13.3030 O   0  0  0  0  0  0  0  0  0  0  0  0
   -7.7060  -31.1750   14.6980 C   0  0  0  0  0  0  0  0  0  0  0  0
   -8.1450  -31.3740   12.3040 O   0  0  0  0  0  0  0  0  0  0  0  0
   -9.0170  -31.7530   15.2180 C   0  0  0  0  0  0  0  0  0  0  0  0
   -9.2270  -31.4850   16.7030 C   0  0  0  0  0  0  0  0  0  0  0  0
  -10.6830  -31.7190   17.0670 C   0  0  0  0  0  0  0  0  0  0  0  0
   -8.3340  -32.3510   17.5830 C   0  0  0  0  0  0  0  0  0  0  0  0
   -6.7007  -33.3676   14.1389 H   0  0  0  0  0  0  0  0  0  0  0  0
   -6.9120  -31.4088   15.4225 H   0  0  0  0  0  0  0  0  0  0  0  0
   -9.8484  -31.3008   14.6573 H   0  0  0  0  0  0  0  0  0  0  0  0
   -8.9792  -32.8434   15.0782 H   0  0  0  0  0  0  0  0  0  0  0  0
   -8.9529  -30.4357   16.8870 H   0  0  0  0  0  0  0  0  0  0  0  0
  -10.7891  -31.7360   18.1617 H   0  0  0  0  0  0  0  0  0  0  0  0
  -11.2997  -30.9084   16.6514 H   0  0  0  0  0  0  0  0  0  0  0  0
  -11.0146  -32.6820   16.6514 H   0  0  0  0  0  0  0  0  0  0  0  0
   -8.5491  -32.1424   18.6414 H   0  0  0  0  0  0  0  0  0  0  0  0
   -8.5294  -33.4126   17.3714 H   0  0  0  0  0  0  0  0  0  0  0  0
   -7.2789  -32.1231   17.3714 H   0  0  0  0  0  0  0  0  0  0  0  0
  1  4  1  0
  5  2  2  0
  3  2  1  0
  2  4  1  0
  4  6  1  0
  6  7  1  0
  7  9  1  0
  7  8  1  0
  3 10  1  0
  4 11  1  0
  6 12  1  0
  6 13  1  0
  7 14  1  0
  8 15  1  0
  8 16  1  0
  8 17  1  0
  9 18  1  0
  9 19  1  0
  9 20  1  0
A    1
CL
A    2
C1
A    3
O1
A    4
C2
A    5
O2
A    6
C3
A    7
C4
A    8
C5
A    9
C6
M  END
