3TZ8_AQM_A_1
     RDKit          3D

 92 97  0  0  0  0  0  0  0  0999 V2000
  -10.2940   35.7310   -8.3680 N   0  0  0  0  0  0  0  0  0  0  0  0
  -11.5210   35.2570   -8.2100 C   0  0  0  0  0  0  0  0  0  0  0  0
  -12.4310   35.9160   -7.5100 N   0  0  0  0  0  0  0  0  0  0  0  0
  -12.1310   37.0910   -6.9320 C   0  0  0  0  0  0  0  0  0  0  0  0
  -10.8490   37.6280   -7.0690 C   0  0  0  0  0  0  0  0  0  0  0  0
   -9.9120   36.9010   -7.8130 C   0  0  0  0  0  0  0  0  0  0  0  0
   -9.4080   45.5960    1.4820 C   0  0  0  0  0  0  0  0  0  0  0  0
   -2.2430   28.2420   -6.6600 C   0  0  0  0  0  0  0  0  0  0  0  0
   -2.0860   27.2100   -8.9120 C   0  0  0  0  0  0  0  0  0  0  0  0
   -0.0100   27.9260   -7.7230 C   0  0  0  0  0  0  0  0  0  0  0  0
    1.2330   35.6770  -10.1990 N   0  0  0  0  0  0  0  0  0  0  0  0
   -9.1230   41.0540   -5.6150 O   0  0  0  0  0  0  0  0  0  0  0  0
   -4.3010   32.6590   -8.1360 O   0  0  0  0  0  0  0  0  0  0  0  0
    2.0850   32.4170  -11.5190 C   0  0  0  0  0  0  0  0  0  0  0  0
    2.1210   33.7850  -11.2630 C   0  0  0  0  0  0  0  0  0  0  0  0
    1.0910   31.6350  -10.9400 C   0  0  0  0  0  0  0  0  0  0  0  0
   -6.3100   35.6290  -10.1940 C   0  0  0  0  0  0  0  0  0  0  0  0
   -5.7230   35.1620   -7.9140 C   0  0  0  0  0  0  0  0  0  0  0  0
   -7.3850   36.4210   -9.7650 C   0  0  0  0  0  0  0  0  0  0  0  0
   -6.7970   35.9490   -7.4780 C   0  0  0  0  0  0  0  0  0  0  0  0
  -12.8030   38.9790   -5.5930 C   0  0  0  0  0  0  0  0  0  0  0  0
  -13.1010   37.7630   -6.1970 C   0  0  0  0  0  0  0  0  0  0  0  0
    0.1710   33.5770   -9.8440 C   0  0  0  0  0  0  0  0  0  0  0  0
   -2.6020   30.4540   -8.8360 C   0  0  0  0  0  0  0  0  0  0  0  0
  -10.5510   38.8510   -6.4610 C   0  0  0  0  0  0  0  0  0  0  0  0
  -10.1830   42.6660   -4.1980 C   0  0  0  0  0  0  0  0  0  0  0  0
   -8.9920   42.6860   -3.2280 C   0  0  0  0  0  0  0  0  0  0  0  0
   -9.4720   45.6710   -0.9360 C   0  0  0  0  0  0  0  0  0  0  0  0
   -8.1680   43.9640    0.2110 C   0  0  0  0  0  0  0  0  0  0  0  0
   -9.4980   44.8430   -2.2320 C   0  0  0  0  0  0  0  0  0  0  0  0
   -8.1100   43.1560   -1.1030 C   0  0  0  0  0  0  0  0  0  0  0  0
   -0.4630   30.2910   -9.1050 N   0  0  0  0  0  0  0  0  0  0  0  0
  -11.3120   40.7080   -5.0840 N   0  0  0  0  0  0  0  0  0  0  0  0
   -4.4270   34.2460   -9.7380 N   0  0  0  0  0  0  0  0  0  0  0  0
   -2.8180   32.6420   -9.8270 N   0  0  0  0  0  0  0  0  0  0  0  0
   -8.6640   37.3500   -7.9840 N   0  0  0  0  0  0  0  0  0  0  0  0
  -10.1540   41.3850   -5.0370 C   0  0  0  0  0  0  0  0  0  0  0  0
   -3.8760   33.1570   -9.1790 C   0  0  0  0  0  0  0  0  0  0  0  0
    1.1720   34.3650  -10.4290 C   0  0  0  0  0  0  0  0  0  0  0  0
   -5.4730   34.9760   -9.2820 C   0  0  0  0  0  0  0  0  0  0  0  0
   -7.6390   36.5840   -8.4010 C   0  0  0  0  0  0  0  0  0  0  0  0
  -11.5320   39.5400   -5.7230 C   0  0  0  0  0  0  0  0  0  0  0  0
    0.1220   32.2050  -10.1060 C   0  0  0  0  0  0  0  0  0  0  0  0
   -1.5390   29.6720   -8.6400 C   0  0  0  0  0  0  0  0  0  0  0  0
   -2.1180   31.5520   -9.4300 C   0  0  0  0  0  0  0  0  0  0  0  0
   -9.3940   44.7880    0.2480 N   0  0  0  0  0  0  0  0  0  0  0  0
   -9.2900   43.3970   -1.9670 N   0  0  0  0  0  0  0  0  0  0  0  0
   -0.7950   31.3860   -9.5650 N   0  0  0  0  0  0  0  0  0  0  0  0
   -1.4810   28.2640   -7.9890 C   0  0  0  0  0  0  0  0  0  0  0  0
  -11.7895   34.2948   -8.6706 H   0  0  0  0  0  0  0  0  0  0  0  0
   -9.3964   44.9294    2.3569 H   0  0  0  0  0  0  0  0  0  0  0  0
   -8.5210   46.2461    1.5047 H   0  0  0  0  0  0  0  0  0  0  0  0
  -10.3170   46.2150    1.5047 H   0  0  0  0  0  0  0  0  0  0  0  0
   -1.5261   28.2627   -5.8259 H   0  0  0  0  0  0  0  0  0  0  0  0
   -2.9009   29.1215   -6.5999 H   0  0  0  0  0  0  0  0  0  0  0  0
   -2.8491   27.3260   -6.5999 H   0  0  0  0  0  0  0  0  0  0  0  0
   -2.5436   26.4128   -8.3079 H   0  0  0  0  0  0  0  0  0  0  0  0
   -2.8542   27.6759   -9.5467 H   0  0  0  0  0  0  0  0  0  0  0  0
   -1.2963   26.7816   -9.5467 H   0  0  0  0  0  0  0  0  0  0  0  0
    0.1665   27.8854   -6.6380 H   0  0  0  0  0  0  0  0  0  0  0  0
    0.2285   26.9496   -8.1700 H   0  0  0  0  0  0  0  0  0  0  0  0
    0.6308   28.7003   -8.1700 H   0  0  0  0  0  0  0  0  0  0  0  0
    1.2494   36.0300   -9.2315 H   0  0  0  0  0  0  0  0  0  0  0  0
    1.2637   36.3374  -10.9888 H   0  0  0  0  0  0  0  0  0  0  0  0
    2.8384   31.9571  -12.1755 H   0  0  0  0  0  0  0  0  0  0  0  0
    2.9024   34.4086  -11.7219 H   0  0  0  0  0  0  0  0  0  0  0  0
    1.0661   30.5537  -11.1403 H   0  0  0  0  0  0  0  0  0  0  0  0
   -6.1204   35.5185  -11.2719 H   0  0  0  0  0  0  0  0  0  0  0  0
   -5.0662   34.6829   -7.1730 H   0  0  0  0  0  0  0  0  0  0  0  0
   -8.0307   36.9158  -10.5055 H   0  0  0  0  0  0  0  0  0  0  0  0
   -6.9812   36.0697   -6.4003 H   0  0  0  0  0  0  0  0  0  0  0  0
  -13.5742   39.5024   -5.0088 H   0  0  0  0  0  0  0  0  0  0  0  0
  -14.1073   37.3312   -6.0931 H   0  0  0  0  0  0  0  0  0  0  0  0
   -0.5749   34.0378   -9.1797 H   0  0  0  0  0  0  0  0  0  0  0  0
   -3.6478   30.2428   -8.5681 H   0  0  0  0  0  0  0  0  0  0  0  0
   -9.5422   39.2783   -6.5600 H   0  0  0  0  0  0  0  0  0  0  0  0
  -11.1207   42.7045   -3.6243 H   0  0  0  0  0  0  0  0  0  0  0  0
  -10.1187   43.5370   -4.8667 H   0  0  0  0  0  0  0  0  0  0  0  0
   -8.7162   41.6483   -2.9892 H   0  0  0  0  0  0  0  0  0  0  0  0
   -8.1707   43.2237   -3.7243 H   0  0  0  0  0  0  0  0  0  0  0  0
   -8.5951   46.3350   -0.9494 H   0  0  0  0  0  0  0  0  0  0  0  0
  -10.3978   46.2619   -0.8757 H   0  0  0  0  0  0  0  0  0  0  0  0
   -8.1703   43.2703    1.0647 H   0  0  0  0  0  0  0  0  0  0  0  0
   -7.2896   44.6237    0.2665 H   0  0  0  0  0  0  0  0  0  0  0  0
  -10.4737   44.9785   -2.7215 H   0  0  0  0  0  0  0  0  0  0  0  0
   -8.6794   45.1933   -2.8779 H   0  0  0  0  0  0  0  0  0  0  0  0
   -7.2032   43.4440   -1.6551 H   0  0  0  0  0  0  0  0  0  0  0  0
   -8.0995   42.0880   -0.8398 H   0  0  0  0  0  0  0  0  0  0  0  0
  -12.1116   41.1207   -4.5829 H   0  0  0  0  0  0  0  0  0  0  0  0
   -4.0030   34.5652  -10.6207 H   0  0  0  0  0  0  0  0  0  0  0  0
   -2.5156   33.1119  -10.6923 H   0  0  0  0  0  0  0  0  0  0  0  0
   -8.4757   38.3428   -7.7844 H   0  0  0  0  0  0  0  0  0  0  0  0
  1  2  2  0
  1  6  1  0
  2  3  1  0
  3  4  2  0
  4  5  1  0
  4 22  1  0
  5  6  2  0
  5 25  1  0
  6 36  1  0
  7 46  1  0
  8 49  1  0
  9 49  1  0
 10 49  1  0
 11 39  1  0
 12 37  2  0
 13 38  2  0
 14 15  2  0
 14 16  1  0
 15 39  1  0
 16 43  2  0
 17 19  2  0
 17 40  1  0
 18 20  1  0
 18 40  2  0
 19 41  1  0
 20 41  2  0
 21 22  2  0
 21 42  1  0
 23 39  2  0
 23 43  1  0
 24 44  1  0
 24 45  2  0
 25 42  2  0
 26 27  1  0
 26 37  1  0
 27 47  1  0
 28 30  1  0
 28 46  1  0
 29 31  1  0
 29 46  1  0
 30 47  1  0
 31 47  1  0
 32 44  2  0
 32 48  1  0
 33 37  1  0
 33 42  1  0
 34 38  1  0
 34 40  1  0
 35 38  1  0
 35 45  1  0
 36 41  1  0
 43 48  1  0
 44 49  1  0
 45 48  1  0
  2 50  1  0
  7 51  1  0
  7 52  1  0
  7 53  1  0
  8 54  1  0
  8 55  1  0
  8 56  1  0
  9 57  1  0
  9 58  1  0
  9 59  1  0
 10 60  1  0
 10 61  1  0
 10 62  1  0
 11 63  1  0
 11 64  1  0
 14 65  1  0
 15 66  1  0
 16 67  1  0
 17 68  1  0
 18 69  1  0
 19 70  1  0
 20 71  1  0
 21 72  1  0
 22 73  1  0
 23 74  1  0
 24 75  1  0
 25 76  1  0
 26 77  1  0
 26 78  1  0
 27 79  1  0
 27 80  1  0
 28 81  1  0
 28 82  1  0
 29 83  1  0
 29 84  1  0
 30 85  1  0
 30 86  1  0
 31 87  1  0
 31 88  1  0
 33 89  1  0
 34 90  1  0
 35 91  1  0
 36 92  1  0
A    1
N1
A    2
C2
A    3
N3
A    4
C4
A    5
C5
A    6
C6
A    7
CAA
A    8
CAB
A    9
CAC
A   10
CAD
A   11
NAE
A   12
OAF
A   13
OAG
A   14
CAH
A   15
CAI
A   16
CAJ
A   17
CAK
A   18
CAL
A   19
CAM
A   20
CAN
A   21
CAO
A   22
CAQ
A   23
CAR
A   24
CAS
A   25
CAT
A   26
CAU
A   27
CAV
A   28
CAW
A   29
CAX
A   30
CAY
A   31
CAZ
A   32
NBC
A   33
NBD
A   34
NBE
A   35
NBF
A   36
NBG
A   37
CBH
A   38
CBI
A   39
CBJ
A   40
CBK
A   41
CBL
A   42
CBM
A   43
CBN
A   44
CBO
A   45
CBP
A   46
NBT
A   47
NBU
A   48
NBV
A   49
CBW
M  END
