3TZ9_AQU_A_1
     RDKit          3D

 65 69  0  0  0  0  0  0  0  0999 V2000
  -10.6170   35.0960   -7.4200 N   0  0  0  0  0  0  0  0  0  0  0  0
  -11.9020   34.5690   -7.1740 C   0  0  0  0  0  0  0  0  0  0  0  0
  -12.8230   35.3100   -6.3960 N   0  0  0  0  0  0  0  0  0  0  0  0
  -12.4770   36.5090   -5.8920 C   0  0  0  0  0  0  0  0  0  0  0  0
  -11.2020   37.0330   -6.1340 C   0  0  0  0  0  0  0  0  0  0  0  0
  -10.2930   36.3020   -6.9000 C   0  0  0  0  0  0  0  0  0  0  0  0
   -0.8490   27.3390   -7.5570 C   0  0  0  0  0  0  0  0  0  0  0  0
   -1.5300   28.3560   -5.3980 C   0  0  0  0  0  0  0  0  0  0  0  0
   -3.2620   27.6610   -7.0910 C   0  0  0  0  0  0  0  0  0  0  0  0
    0.4410   36.0350   -8.5920 N   0  0  0  0  0  0  0  0  0  0  0  0
   -4.7450   32.5170   -7.0270 O   0  0  0  0  0  0  0  0  0  0  0  0
  -13.0130   38.4620   -4.6060 C   0  0  0  0  0  0  0  0  0  0  0  0
  -11.7400   38.9770   -4.8470 C   0  0  0  0  0  0  0  0  0  0  0  0
    1.8440   33.0170  -10.0710 C   0  0  0  0  0  0  0  0  0  0  0  0
    1.6820   34.3670   -9.7340 C   0  0  0  0  0  0  0  0  0  0  0  0
    0.9520   32.0510   -9.5970 C   0  0  0  0  0  0  0  0  0  0  0  0
   -5.8240   35.4370   -6.8560 C   0  0  0  0  0  0  0  0  0  0  0  0
   -6.7400   34.9830   -9.0460 C   0  0  0  0  0  0  0  0  0  0  0  0
   -6.9830   36.1160   -6.5020 C   0  0  0  0  0  0  0  0  0  0  0  0
   -7.8980   35.6680   -8.6970 C   0  0  0  0  0  0  0  0  0  0  0  0
  -13.3900   37.2260   -5.1280 C   0  0  0  0  0  0  0  0  0  0  0  0
  -10.8250   38.2700   -5.6140 C   0  0  0  0  0  0  0  0  0  0  0  0
   -0.2730   33.7880   -8.4350 C   0  0  0  0  0  0  0  0  0  0  0  0
   -2.8230   30.5170   -7.6530 C   0  0  0  0  0  0  0  0  0  0  0  0
   -0.6700   30.3240   -7.8740 N   0  0  0  0  0  0  0  0  0  0  0  0
   -4.5970   34.2460   -8.4790 N   0  0  0  0  0  0  0  0  0  0  0  0
   -2.9820   32.7320   -8.4940 N   0  0  0  0  0  0  0  0  0  0  0  0
   -9.1130   36.9070   -7.0710 N   0  0  0  0  0  0  0  0  0  0  0  0
   -4.1500   33.1160   -7.9330 C   0  0  0  0  0  0  0  0  0  0  0  0
    0.6170   34.7540   -8.9180 C   0  0  0  0  0  0  0  0  0  0  0  0
   -5.7130   34.8570   -8.1180 C   0  0  0  0  0  0  0  0  0  0  0  0
   -8.0230   36.2270   -7.4230 C   0  0  0  0  0  0  0  0  0  0  0  0
   -0.1220   32.4300   -8.7700 C   0  0  0  0  0  0  0  0  0  0  0  0
   -1.7860   29.7030   -7.4830 C   0  0  0  0  0  0  0  0  0  0  0  0
   -2.3090   31.6370   -8.1480 C   0  0  0  0  0  0  0  0  0  0  0  0
   -0.9870   31.5100   -8.2960 N   0  0  0  0  0  0  0  0  0  0  0  0
   -1.8640   28.2700   -6.8940 C   0  0  0  0  0  0  0  0  0  0  0  0
  -12.1863   33.5887   -7.5841 H   0  0  0  0  0  0  0  0  0  0  0  0
   -0.2740   26.8116   -6.7816 H   0  0  0  0  0  0  0  0  0  0  0  0
   -1.3784   26.6058   -8.1833 H   0  0  0  0  0  0  0  0  0  0  0  0
   -0.1642   27.9296   -8.1833 H   0  0  0  0  0  0  0  0  0  0  0  0
   -2.4289   28.1245   -4.8077 H   0  0  0  0  0  0  0  0  0  0  0  0
   -0.7369   27.6328   -5.1572 H   0  0  0  0  0  0  0  0  0  0  0  0
   -1.1849   29.3723   -5.1572 H   0  0  0  0  0  0  0  0  0  0  0  0
   -3.7172   27.4627   -6.1094 H   0  0  0  0  0  0  0  0  0  0  0  0
   -3.8932   28.3657   -7.6523 H   0  0  0  0  0  0  0  0  0  0  0  0
   -3.1758   26.7189   -7.6523 H   0  0  0  0  0  0  0  0  0  0  0  0
    0.4027   36.3137   -7.6012 H   0  0  0  0  0  0  0  0  0  0  0  0
    0.3433   36.7458   -9.3310 H   0  0  0  0  0  0  0  0  0  0  0  0
  -13.7269   39.0369   -3.9978 H   0  0  0  0  0  0  0  0  0  0  0  0
  -11.4583   39.9530   -4.4251 H   0  0  0  0  0  0  0  0  0  0  0  0
    2.6822   32.7139  -10.7156 H   0  0  0  0  0  0  0  0  0  0  0  0
    2.3908   35.1191  -10.1106 H   0  0  0  0  0  0  0  0  0  0  0  0
    1.0894   30.9944   -9.8703 H   0  0  0  0  0  0  0  0  0  0  0  0
   -4.9932   35.3572   -6.1395 H   0  0  0  0  0  0  0  0  0  0  0  0
   -6.6371   34.5438  -10.0493 H   0  0  0  0  0  0  0  0  0  0  0  0
   -7.0792   36.5630   -5.5015 H   0  0  0  0  0  0  0  0  0  0  0  0
   -8.7166   35.7700   -9.4246 H   0  0  0  0  0  0  0  0  0  0  0  0
  -14.3960   36.8237   -4.9380 H   0  0  0  0  0  0  0  0  0  0  0  0
   -9.8219   38.6777   -5.8078 H   0  0  0  0  0  0  0  0  0  0  0  0
   -1.1039   34.0954   -7.7830 H   0  0  0  0  0  0  0  0  0  0  0  0
   -3.8799   30.3078   -7.4313 H   0  0  0  0  0  0  0  0  0  0  0  0
   -4.0369   34.6716   -9.2314 H   0  0  0  0  0  0  0  0  0  0  0  0
   -2.5869   33.3252   -9.2376 H   0  0  0  0  0  0  0  0  0  0  0  0
   -9.0451   37.9246   -6.9269 H   0  0  0  0  0  0  0  0  0  0  0  0
  1  2  2  0
  1  6  1  0
  2  3  1  0
  3  4  2  0
  4  5  1  0
  4 21  1  0
  5  6  2  0
  5 22  1  0
  6 28  1  0
  7 37  1  0
  8 37  1  0
  9 37  1  0
 10 30  1  0
 11 29  2  0
 12 13  1  0
 12 21  2  0
 13 22  2  0
 14 15  2  0
 14 16  1  0
 15 30  1  0
 16 33  2  0
 17 19  2  0
 17 31  1  0
 18 20  1  0
 18 31  2  0
 19 32  1  0
 20 32  2  0
 23 30  2  0
 23 33  1  0
 24 34  1  0
 24 35  2  0
 25 34  2  0
 25 36  1  0
 26 29  1  0
 26 31  1  0
 27 29  1  0
 27 35  1  0
 28 32  1  0
 33 36  1  0
 34 37  1  0
 35 36  1  0
  2 38  1  0
  7 39  1  0
  7 40  1  0
  7 41  1  0
  8 42  1  0
  8 43  1  0
  8 44  1  0
  9 45  1  0
  9 46  1  0
  9 47  1  0
 10 48  1  0
 10 49  1  0
 12 50  1  0
 13 51  1  0
 14 52  1  0
 15 53  1  0
 16 54  1  0
 17 55  1  0
 18 56  1  0
 19 57  1  0
 20 58  1  0
 21 59  1  0
 22 60  1  0
 23 61  1  0
 24 62  1  0
 26 63  1  0
 27 64  1  0
 28 65  1  0
A    1
N1
A    2
C2
A    3
N3
A    4
C4
A    5
C5
A    6
C6
A    7
CAA
A    8
CAB
A    9
CAC
A   10
NAD
A   11
OAE
A   12
CAF
A   13
CAG
A   14
CAH
A   15
CAJ
A   16
CAK
A   17
CAL
A   18
CAM
A   19
CAN
A   20
CAO
A   21
CAP
A   22
CAQ
A   23
CAR
A   24
CAS
A   25
NAV
A   26
NAW
A   27
NAX
A   28
NAY
A   29
CAZ
A   30
CBA
A   31
CBB
A   32
CBC
A   33
CBD
A   34
CBE
A   35
CBF
A   36
NBJ
A   37
CBK
M  END
