3TZA_TZG_A_261
     RDKit          3D

 34 34  0  0  0  0  0  0  0  0999 V2000
   -7.4540   27.6210   56.5340 N   0  0  0  0  0  0  0  0  0  0  0  0
   -3.8980   27.5870   57.2760 C   0  0  0  0  0  0  0  0  0  0  0  0
   -5.2440   27.9180   57.3640 C   0  0  0  0  0  0  0  0  0  0  0  0
   -6.1580   27.3220   56.4980 C   0  0  0  0  0  0  0  0  0  0  0  0
   -1.9620   26.3680   56.2940 C   0  0  0  0  0  0  0  0  0  0  0  0
   -1.7160   24.9950   56.8920 C   0  0  0  0  0  0  0  0  0  0  0  0
   -4.5090   25.5050   53.0010 C   0  0  0  0  0  0  0  0  0  0  0  0
    0.1040   24.3840   55.5150 O   0  0  0  0  0  0  0  0  0  0  0  0
   -0.2490   24.6280   56.6920 C   0  0  0  0  0  0  0  0  0  0  0  0
    0.4820   24.6060   57.7100 O   0  0  0  0  0  0  0  0  0  0  0  0
   -2.0510   25.0420   58.3160 N   0  0  0  0  0  0  0  0  0  0  0  0
   -3.4570   26.6700   56.3220 C   0  0  0  0  0  0  0  0  0  0  0  0
   -5.7480   29.0520   58.5740 Cl  0  0  0  0  0  0  0  0  0  0  0  0
   -8.4290   26.6620   56.1380 O   0  0  0  0  0  0  0  0  0  0  0  0
   -7.8500   28.9390   56.8480 O   0  0  0  0  0  0  0  0  0  0  0  0
   -5.7160   26.4170   55.5430 C   0  0  0  0  0  0  0  0  0  0  0  0
   -4.3720   26.0810   55.4490 C   0  0  0  0  0  0  0  0  0  0  0  0
   -3.9890   25.0700   54.3680 C   0  0  0  0  0  0  0  0  0  0  0  0
   -5.9850   25.1250   52.8300 C   0  0  0  0  0  0  0  0  0  0  0  0
   -6.6880   25.8970   52.1530 O   0  0  0  0  0  0  0  0  0  0  0  0
   -6.3860   24.0830   53.3880 O   0  0  0  0  0  0  0  0  0  0  0  0
   -3.1751   28.0510   57.9631 H   0  0  0  0  0  0  0  0  0  0  0  0
   -1.4230   27.1263   56.8809 H   0  0  0  0  0  0  0  0  0  0  0  0
   -1.6018   26.3871   55.2548 H   0  0  0  0  0  0  0  0  0  0  0  0
   -2.3404   24.2333   56.4021 H   0  0  0  0  0  0  0  0  0  0  0  0
   -4.4048   26.5960   52.9067 H   0  0  0  0  0  0  0  0  0  0  0  0
   -3.9224   24.9941   52.2233 H   0  0  0  0  0  0  0  0  0  0  0  0
    0.0747   24.6183   58.6122 H   0  0  0  0  0  0  0  0  0  0  0  0
   -1.1939   24.9218   58.8745 H   0  0  0  0  0  0  0  0  0  0  0  0
   -2.4806   25.9515   58.5378 H   0  0  0  0  0  0  0  0  0  0  0  0
   -6.4396   25.9601   54.8518 H   0  0  0  0  0  0  0  0  0  0  0  0
   -4.4214   24.0910   54.6221 H   0  0  0  0  0  0  0  0  0  0  0  0
   -2.8918   25.0072   54.3210 H   0  0  0  0  0  0  0  0  0  0  0  0
   -6.4074   24.0275   54.3762 H   0  0  0  0  0  0  0  0  0  0  0  0
  1  4  1  0
  1 14  1  0
  1 15  2  0
  2  3  2  0
  2 12  1  0
  3  4  1  0
  3 13  1  0
  4 16  2  0
  5  6  1  0
  5 12  1  0
  6  9  1  0
  6 11  1  0
  7 18  1  0
  7 19  1  0
  8  9  2  0
  9 10  1  0
 12 17  2  0
 16 17  1  0
 17 18  1  0
 19 20  2  0
 19 21  1  0
  2 22  1  0
  5 23  1  0
  5 24  1  0
  6 25  1  0
  7 26  1  0
  7 27  1  0
 10 28  1  0
 11 29  1  0
 11 30  1  0
 16 31  1  0
 18 32  1  0
 18 33  1  0
 21 34  1  0
M  CHG  2   1   1  14  -1
A    1
N1
A    2
C4
A    3
C5
A    4
C6
A    5
C7
A    6
C8
A    7
C10
A    8
O4
A    9
C12
A   10
O5
A   11
N2
A   12
C3
A   13
CL1
A   14
O1
A   15
O2
A   16
C1
A   17
C2
A   18
C9
A   19
C11
A   20
O7
A   21
O6
M  END
