3TZB_AA_A_501
     RDKit          3D

 26 28  0  0  0  0  0  0  0  0999 V2000
   15.0860    2.1000   -7.7550 C   0  0  0  0  0  0  0  0  0  0  0  0
   14.0150    1.5000   -8.4270 C   0  0  0  0  0  0  0  0  0  0  0  0
   13.6200    0.1920   -8.0900 C   0  0  0  0  0  0  0  0  0  0  0  0
   14.2960   -0.5110   -7.0930 C   0  0  0  0  0  0  0  0  0  0  0  0
   17.7860   -0.8550   -3.6990 C   0  0  0  0  0  0  0  0  0  0  0  0
   18.8650   -0.3080   -3.0030 C   0  0  0  0  0  0  0  0  0  0  0  0
   19.2980    0.9950   -3.3000 C   0  0  0  0  0  0  0  0  0  0  0  0
   18.6550    1.7490   -4.2830 C   0  0  0  0  0  0  0  0  0  0  0  0
   16.8910    1.9570   -6.0220 C   0  0  0  0  0  0  0  0  0  0  0  0
   16.0560   -0.6130   -5.4180 N   0  0  0  0  0  0  0  0  0  0  0  0
   17.1280   -0.0880   -4.7140 C   0  0  0  0  0  0  0  0  0  0  0  0
   17.5640    1.1850   -5.0070 C   0  0  0  0  0  0  0  0  0  0  0  0
   15.7770    1.3820   -6.7320 C   0  0  0  0  0  0  0  0  0  0  0  0
   15.3940    0.1040   -6.4090 C   0  0  0  0  0  0  0  0  0  0  0  0
   17.3290    3.2890   -6.3250 N   0  0  0  0  0  0  0  0  0  0  0  0
   15.3952    3.1233   -8.0144 H   0  0  0  0  0  0  0  0  0  0  0  0
   13.4829    2.0499   -9.2172 H   0  0  0  0  0  0  0  0  0  0  0  0
   12.7750   -0.2776   -8.6148 H   0  0  0  0  0  0  0  0  0  0  0  0
   13.9870   -1.5342   -6.8329 H   0  0  0  0  0  0  0  0  0  0  0  0
   17.4414   -1.8738   -3.4683 H   0  0  0  0  0  0  0  0  0  0  0  0
   19.3745   -0.8950   -2.2247 H   0  0  0  0  0  0  0  0  0  0  0  0
   20.1506    1.4245   -2.7535 H   0  0  0  0  0  0  0  0  0  0  0  0
   18.9889    2.7748   -4.4983 H   0  0  0  0  0  0  0  0  0  0  0  0
   15.7382   -1.5681   -5.1996 H   0  0  0  0  0  0  0  0  0  0  0  0
   17.5451    3.9462   -5.5619 H   0  0  0  0  0  0  0  0  0  0  0  0
   17.4274    3.5882   -7.3057 H   0  0  0  0  0  0  0  0  0  0  0  0
  1  2  2  0
  1 13  1  0
  2  3  1  0
  3  4  2  0
  4 14  1  0
  5  6  1  0
  5 11  2  0
  6  7  2  0
  7  8  1  0
  8 12  2  0
  9 12  1  0
  9 13  2  0
  9 15  1  0
 10 11  1  0
 10 14  2  0
 11 12  1  0
 13 14  1  0
  1 16  1  0
  2 17  1  0
  3 18  1  0
  4 19  1  0
  5 20  1  0
  6 21  1  0
  7 22  1  0
  8 23  1  0
 10 24  1  0
 15 25  1  0
 15 26  1  0
M  CHG  1  10   1
A    1
C1
A    2
C2
A    3
C3
A    4
C4
A    5
C5
A    6
C6
A    7
C7
A    8
C8
A    9
C9
A   10
N10
A   11
C11
A   12
C12
A   13
C13
A   14
C14
A   15
N9
M  END
