3TZM_085_A_1
     RDKit          3D

 45 49  0  0  0  0  0  0  0  0999 V2000
    2.9800    7.8420    4.4510 C   0  0  0  0  0  0  0  0  0  0  0  0
    2.5850    7.3020    3.2330 C   0  0  0  0  0  0  0  0  0  0  0  0
    1.3620    6.8470    2.8250 O   0  0  0  0  0  0  0  0  0  0  0  0
    1.4870    6.5390    1.4490 C   0  0  0  0  0  0  0  0  0  0  0  0
    2.8900    6.6130    1.1140 O   0  0  0  0  0  0  0  0  0  0  0  0
    3.5140    7.1560    2.1970 C   0  0  0  0  0  0  0  0  0  0  0  0
    4.8300    7.5540    2.3920 C   0  0  0  0  0  0  0  0  0  0  0  0
    5.2140    8.1060    3.6200 C   0  0  0  0  0  0  0  0  0  0  0  0
    4.2910    8.2760    4.6630 C   0  0  0  0  0  0  0  0  0  0  0  0
    4.6500    8.7580    5.9450 C   0  0  0  0  0  0  0  0  0  0  0  0
    4.1290    8.2770    7.0770 N   0  0  0  0  0  0  0  0  0  0  0  0
    4.6870    8.8730    8.1340 C   0  0  0  0  0  0  0  0  0  0  0  0
    4.3700    8.6180    9.4730 C   0  0  0  0  0  0  0  0  0  0  0  0
    4.8810    9.4190   10.5060 C   0  0  0  0  0  0  0  0  0  0  0  0
    4.5510    9.1460   11.8400 C   0  0  0  0  0  0  0  0  0  0  0  0
    3.5460    7.5300    9.8010 C   0  0  0  0  0  0  0  0  0  0  0  0
    3.2260    7.2540   11.1350 C   0  0  0  0  0  0  0  0  0  0  0  0
    3.7190    8.0660   12.1570 C   0  0  0  0  0  0  0  0  0  0  0  0
    3.3650    7.7760   13.6190 C   0  0  0  0  0  0  0  0  0  0  0  0
    4.1680    8.0050   14.5320 O   0  0  0  0  0  0  0  0  0  0  0  0
    2.1350    7.3020   13.8110 N   0  0  0  0  0  0  0  0  0  0  0  0
    5.5940    9.7370    7.6730 N   0  0  0  0  0  0  0  0  0  0  0  0
    5.6050    9.7010    6.3320 C   0  0  0  0  0  0  0  0  0  0  0  0
    6.4230   10.5120    5.5230 C   0  0  0  0  0  0  0  0  0  0  0  0
    7.7050   10.8120    5.9810 C   0  0  0  0  0  0  0  0  0  0  0  0
    8.5460   11.6330    5.2310 C   0  0  0  0  0  0  0  0  0  0  0  0
    8.0800   12.1880    4.0360 C   0  0  0  0  0  0  0  0  0  0  0  0
    6.7740   11.8790    3.6240 C   0  0  0  0  0  0  0  0  0  0  0  0
    5.9840   11.0750    4.3660 N   0  0  0  0  0  0  0  0  0  0  0  0
    2.2453    7.9296    5.2650 H   0  0  0  0  0  0  0  0  0  0  0  0
    0.9186    7.2644    0.8485 H   0  0  0  0  0  0  0  0  0  0  0  0
    1.0907    5.5346    1.2389 H   0  0  0  0  0  0  0  0  0  0  0  0
    5.5679    7.4360    1.5848 H   0  0  0  0  0  0  0  0  0  0  0  0
    6.2598    8.4124    3.7701 H   0  0  0  0  0  0  0  0  0  0  0  0
    3.4009    7.5502    7.1275 H   0  0  0  0  0  0  0  0  0  0  0  0
    5.5431   10.2644   10.2674 H   0  0  0  0  0  0  0  0  0  0  0  0
    4.9482    9.7843   12.6430 H   0  0  0  0  0  0  0  0  0  0  0  0
    3.1479    6.8880    9.0015 H   0  0  0  0  0  0  0  0  0  0  0  0
    2.5841    6.3946   11.3786 H   0  0  0  0  0  0  0  0  0  0  0  0
    1.7794    7.1650   14.7679 H   0  0  0  0  0  0  0  0  0  0  0  0
    1.5395    7.0725   13.0025 H   0  0  0  0  0  0  0  0  0  0  0  0
    8.0547   10.3990    6.9387 H   0  0  0  0  0  0  0  0  0  0  0  0
    9.5689   11.8424    5.5773 H   0  0  0  0  0  0  0  0  0  0  0  0
    8.7199   12.8498    3.4339 H   0  0  0  0  0  0  0  0  0  0  0  0
    6.3891   12.2983    2.6827 H   0  0  0  0  0  0  0  0  0  0  0  0
  5  4  1  0
  5  6  1  0
  4  3  1  0
  6  7  2  0
  6  2  1  0
  7  8  1  0
  3  2  1  0
  2  1  2  0
  8  9  2  0
 28 27  2  0
 28 29  1  0
 27 26  1  0
 29 24  2  0
  1  9  1  0
  9 10  1  0
 26 25  2  0
 24 25  1  0
 24 23  1  0
 10 23  2  0
 10 11  1  0
 23 22  1  0
 11 12  1  0
 22 12  2  0
 12 13  1  0
 13 16  1  0
 13 14  2  0
 16 17  2  0
 14 15  1  0
 17 18  1  0
 15 18  2  0
 18 19  1  0
 19 21  1  0
 19 20  2  0
  1 30  1  0
  4 31  1  0
  4 32  1  0
  7 33  1  0
  8 34  1  0
 11 35  1  0
 14 36  1  0
 15 37  1  0
 16 38  1  0
 17 39  1  0
 21 40  1  0
 21 41  1  0
 25 42  1  0
 26 43  1  0
 27 44  1  0
 28 45  1  0
A    1
CAM
A    2
CAZ
A    3
OAS
A    4
CAN
A    5
OAR
A    6
CAY
A    7
CAL
A    8
CAK
A    9
CAW
A   10
CBB
A   11
NAP
A   12
CBA
A   13
CAV
A   14
CAJ
A   15
CAH
A   16
CAI
A   17
CAG
A   18
CAU
A   19
CAT
A   20
OAB
A   21
NAA
A   22
NAQ
A   23
CBC
A   24
CAX
A   25
CAF
A   26
CAD
A   27
CAC
A   28
CAE
A   29
NAO
M  END
