3TZV_LSC_C_303
     RDKit          3D

 88 87  0  0  0  0  0  0  0  0999 V2000
  -45.2570   -0.8680   84.8760 C   0  0  0  0  0  0  0  0  0  0  0  0
  -45.1330   -1.3320   83.4400 C   0  0  0  0  0  0  0  0  0  0  0  0
  -43.6780   -1.6010   83.0670 C   0  0  0  0  0  0  0  0  0  0  0  0
  -43.5660   -2.0710   81.6240 C   0  0  0  0  0  0  0  0  0  0  0  0
  -42.1150   -2.0740   81.1590 C   0  0  0  0  0  0  0  0  0  0  0  0
  -42.0340   -2.3970   79.6700 C   0  0  0  0  0  0  0  0  0  0  0  0
  -41.5960   -3.8360   79.4160 C   0  0  0  0  0  0  0  0  0  0  0  0
  -40.1620   -3.8620   78.9010 C   0  0  0  0  0  0  0  0  0  0  0  0
  -40.1100   -3.1860   77.5520 C   0  0  0  0  0  0  0  0  0  0  0  0
  -39.0620   -2.4370   77.2220 C   0  0  0  0  0  0  0  0  0  0  0  0
  -39.0180   -1.7650   75.8730 C   0  0  0  0  0  0  0  0  0  0  0  0
  -38.2800   -0.4360   75.9890 C   0  0  0  0  0  0  0  0  0  0  0  0
  -36.9930   -0.4420   75.1750 C   0  0  0  0  0  0  0  0  0  0  0  0
  -36.6450    0.9670   74.7070 C   0  0  0  0  0  0  0  0  0  0  0  0
  -36.3340    0.9930   73.2140 C   0  0  0  0  0  0  0  0  0  0  0  0
  -34.9610    0.3970   72.9190 C   0  0  0  0  0  0  0  0  0  0  0  0
  -34.7300    0.2980   71.4160 C   0  0  0  0  0  0  0  0  0  0  0  0
  -33.3210   -0.1670   71.1370 C   0  0  0  0  0  0  0  0  0  0  0  0
  -32.3340    0.7470   70.5830 O   0  0  0  0  0  0  0  0  0  0  0  0
  -31.1920    0.2100   69.9190 C   0  0  0  0  0  0  0  0  0  0  0  0
  -30.0590    1.2290   69.8680 C   0  0  0  0  0  0  0  0  0  0  0  0
  -30.2560    2.2100   68.7180 C   0  0  0  0  0  0  0  0  0  0  0  0
  -28.9780    2.7230   68.3370 O   0  0  0  0  0  0  0  0  0  0  0  0
  -28.8160    4.1390   67.5810 P   0  0  0  0  0  0  0  0  0  0  0  0
  -29.5930    5.1800   68.3480 O   0  0  0  0  0  0  0  0  0  0  0  0
  -30.9600    3.6200   66.1400 C   0  0  0  0  0  0  0  0  0  0  0  0
  -31.5640    4.1360   64.8400 C   0  0  0  0  0  0  0  0  0  0  0  0
  -32.7780    3.3650   64.5500 N   0  0  0  0  0  0  0  0  0  0  0  0
  -32.9880   -1.3150   71.3820 O   0  0  0  0  0  0  0  0  0  0  0  0
  -33.6570    4.1370   63.6610 C   0  0  0  0  0  0  0  0  0  0  0  0
  -28.8150    0.5400   69.6970 O   0  0  0  0  0  0  0  0  0  0  0  0
  -33.4750    3.0670   65.8100 C   0  0  0  0  0  0  0  0  0  0  0  0
  -27.3470    4.3500   67.3070 O   0  0  0  0  0  0  0  0  0  0  0  0
  -32.3990    2.1110   63.8860 C   0  0  0  0  0  0  0  0  0  0  0  0
  -29.5660    3.9190   66.1740 O   0  0  0  0  0  0  0  0  0  0  0  0
  -45.0331   -1.7058   85.5527 H   0  0  0  0  0  0  0  0  0  0  0  0
  -44.5463   -0.0487   85.0593 H   0  0  0  0  0  0  0  0  0  0  0  0
  -46.2817   -0.5124   85.0593 H   0  0  0  0  0  0  0  0  0  0  0  0
  -45.7128   -2.2579   83.3115 H   0  0  0  0  0  0  0  0  0  0  0  0
  -45.5179   -0.5371   82.7842 H   0  0  0  0  0  0  0  0  0  0  0  0
  -43.0973   -0.6749   83.1904 H   0  0  0  0  0  0  0  0  0  0  0  0
  -43.2863   -2.3903   83.7254 H   0  0  0  0  0  0  0  0  0  0  0  0
  -43.9703   -3.0910   81.5460 H   0  0  0  0  0  0  0  0  0  0  0  0
  -44.1358   -1.3793   80.9861 H   0  0  0  0  0  0  0  0  0  0  0  0
  -41.6747   -1.0822   81.3392 H   0  0  0  0  0  0  0  0  0  0  0  0
  -41.5619   -2.8410   81.7210 H   0  0  0  0  0  0  0  0  0  0  0  0
  -43.0259   -2.2438   79.2197 H   0  0  0  0  0  0  0  0  0  0  0  0
  -41.2831   -1.7308   79.2201 H   0  0  0  0  0  0  0  0  0  0  0  0
  -41.6561   -4.4060   80.3549 H   0  0  0  0  0  0  0  0  0  0  0  0
  -42.2582   -4.2869   78.6623 H   0  0  0  0  0  0  0  0  0  0  0  0
  -39.5076   -3.3284   79.6060 H   0  0  0  0  0  0  0  0  0  0  0  0
  -39.8203   -4.9034   78.8074 H   0  0  0  0  0  0  0  0  0  0  0  0
  -40.9400   -3.3132   76.8414 H   0  0  0  0  0  0  0  0  0  0  0  0
  -38.2304   -2.3082   77.9304 H   0  0  0  0  0  0  0  0  0  0  0  0
  -38.4928   -2.4144   75.1572 H   0  0  0  0  0  0  0  0  0  0  0  0
  -40.0442   -1.5841   75.5207 H   0  0  0  0  0  0  0  0  0  0  0  0
  -38.9327    0.3691   75.6206 H   0  0  0  0  0  0  0  0  0  0  0  0
  -38.0204   -0.2754   77.0458 H   0  0  0  0  0  0  0  0  0  0  0  0
  -36.1732   -0.8283   75.7984 H   0  0  0  0  0  0  0  0  0  0  0  0
  -37.1356   -1.0828   74.2924 H   0  0  0  0  0  0  0  0  0  0  0  0
  -37.4979    1.6321   74.9072 H   0  0  0  0  0  0  0  0  0  0  0  0
  -35.7523    1.3044   75.2540 H   0  0  0  0  0  0  0  0  0  0  0  0
  -37.0989    0.4108   72.6793 H   0  0  0  0  0  0  0  0  0  0  0  0
  -36.3348    2.0408   72.8792 H   0  0  0  0  0  0  0  0  0  0  0  0
  -34.1856    1.0390   73.3623 H   0  0  0  0  0  0  0  0  0  0  0  0
  -34.9127   -0.6130   73.3521 H   0  0  0  0  0  0  0  0  0  0  0  0
  -35.4424   -0.4209   70.9850 H   0  0  0  0  0  0  0  0  0  0  0  0
  -34.8782    1.2894   70.9630 H   0  0  0  0  0  0  0  0  0  0  0  0
  -30.8480   -0.6833   70.4609 H   0  0  0  0  0  0  0  0  0  0  0  0
  -31.4761   -0.0494   68.8885 H   0  0  0  0  0  0  0  0  0  0  0  0
  -30.0547    1.7963   70.8104 H   0  0  0  0  0  0  0  0  0  0  0  0
  -30.7181    1.6930   67.8641 H   0  0  0  0  0  0  0  0  0  0  0  0
  -30.9144    3.0331   69.0327 H   0  0  0  0  0  0  0  0  0  0  0  0
  -29.4791    5.0274   69.3195 H   0  0  0  0  0  0  0  0  0  0  0  0
  -31.4588    4.1042   66.9925 H   0  0  0  0  0  0  0  0  0  0  0  0
  -31.1006    2.5307   66.2000 H   0  0  0  0  0  0  0  0  0  0  0  0
  -31.8178    5.2010   64.9463 H   0  0  0  0  0  0  0  0  0  0  0  0
  -30.8413    4.0225   64.0185 H   0  0  0  0  0  0  0  0  0  0  0  0
  -34.3478    4.7437   64.2649 H   0  0  0  0  0  0  0  0  0  0  0  0
  -33.0479    4.7974   63.0263 H   0  0  0  0  0  0  0  0  0  0  0  0
  -34.2333    3.4478   63.0263 H   0  0  0  0  0  0  0  0  0  0  0  0
  -28.4309    0.3273   70.5843 H   0  0  0  0  0  0  0  0  0  0  0  0
  -32.8317    3.3420   66.6588 H   0  0  0  0  0  0  0  0  0  0  0  0
  -34.4104    3.6438   65.8569 H   0  0  0  0  0  0  0  0  0  0  0  0
  -33.7043    1.9922   65.8569 H   0  0  0  0  0  0  0  0  0  0  0  0
  -32.1687    1.3491   64.6453 H   0  0  0  0  0  0  0  0  0  0  0  0
  -33.2319    1.7625   63.2577 H   0  0  0  0  0  0  0  0  0  0  0  0
  -31.5125    2.2822   63.2577 H   0  0  0  0  0  0  0  0  0  0  0  0
  2  1  1  0
  3  2  1  0
  4  3  1  0
  5  4  1  0
  6  5  1  0
  7  6  1  0
  8  7  1  0
  9  8  1  0
 10  9  2  0
 11 10  1  0
 11 12  1  0
 13 12  1  0
 14 13  1  0
 15 14  1  0
 16 15  1  0
 17 16  1  0
 18 17  1  0
 19 18  1  0
 18 29  2  0
 20 19  1  0
 21 20  1  0
 22 21  1  0
 31 21  1  0
 23 22  1  0
 24 23  1  0
 35 24  1  0
 33 24  2  0
 24 25  1  0
 27 26  1  0
 26 35  1  0
 28 27  1  0
 30 28  1  0
 34 28  1  0
 28 32  1  0
  1 36  1  0
  1 37  1  0
  1 38  1  0
  2 39  1  0
  2 40  1  0
  3 41  1  0
  3 42  1  0
  4 43  1  0
  4 44  1  0
  5 45  1  0
  5 46  1  0
  6 47  1  0
  6 48  1  0
  7 49  1  0
  7 50  1  0
  8 51  1  0
  8 52  1  0
  9 53  1  0
 10 54  1  0
 11 55  1  0
 11 56  1  0
 12 57  1  0
 12 58  1  0
 13 59  1  0
 13 60  1  0
 14 61  1  0
 14 62  1  0
 15 63  1  0
 15 64  1  0
 16 65  1  0
 16 66  1  0
 17 67  1  0
 17 68  1  0
 20 69  1  0
 20 70  1  0
 21 71  1  0
 22 72  1  0
 22 73  1  0
 25 74  1  0
 26 75  1  0
 26 76  1  0
 27 77  1  0
 27 78  1  0
 30 79  1  0
 30 80  1  0
 30 81  1  0
 31 82  1  0
 32 83  1  0
 32 84  1  0
 32 85  1  0
 34 86  1  0
 34 87  1  0
 34 88  1  0
M  CHG  1  28   1
A    1
C1
A    2
C2
A    3
C3
A    4
C4
A    5
C5
A    6
C6
A    7
C7
A    8
C8
A    9
C9
A   10
C10
A   11
C11
A   12
C12
A   13
C13
A   14
C14
A   15
C15
A   16
C16
A   17
C17
A   18
C18
A   19
O19
A   20
C20
A   21
C21
A   22
C22
A   23
O23
A   24
P24
A   25
O25
A   26
C30
A   27
C31
A   28
N32
A   29
O32
A   30
C33
A   31
O33
A   32
C34
A   33
O34
A   34
C35
A   35
O35
M  END
