3U03_488_A_180
     RDKit          3D

 37 39  0  0  0  0  0  0  0  0999 V2000
   27.2340   78.5360   63.7100 C   0  0  0  0  0  0  0  0  0  0  0  0
   28.5570   81.3210   65.4000 N   0  0  0  0  0  0  0  0  0  0  0  0
   27.8310   77.7210   64.6480 O   0  0  0  0  0  0  0  0  0  0  0  0
   29.1090   82.0130   63.1370 S   0  0  0  0  0  0  0  0  0  0  0  0
   26.2880   77.9610   62.8740 C   0  0  0  0  0  0  0  0  0  0  0  0
   29.6120   83.8700   67.0930 N   0  0  0  0  0  0  0  0  0  0  0  0
   27.5170   83.2700   68.2200 S   0  0  0  0  0  0  0  0  0  0  0  0
   25.6320   78.7000   61.9030 C   0  0  0  0  0  0  0  0  0  0  0  0
   25.8900   80.0390   61.6940 C   0  0  0  0  0  0  0  0  0  0  0  0
   26.8220   80.6730   62.4810 C   0  0  0  0  0  0  0  0  0  0  0  0
   27.5130   79.9970   63.4880 C   0  0  0  0  0  0  0  0  0  0  0  0
   28.4260   80.9520   64.1830 C   0  0  0  0  0  0  0  0  0  0  0  0
   28.8380   83.3670   64.2120 C   0  0  0  0  0  0  0  0  0  0  0  0
   28.0960   82.7410   65.4120 C   0  0  0  0  0  0  0  0  0  0  0  0
   28.2490   83.6480   66.6490 C   0  0  0  0  0  0  0  0  0  0  0  0
   28.6500   84.2970   69.1380 C   0  0  0  0  0  0  0  0  0  0  0  0
   29.6140   84.9230   68.1010 C   0  0  0  0  0  0  0  0  0  0  0  0
   30.7930   83.1160   66.6680 C   0  0  0  0  0  0  0  0  0  0  0  0
   30.9840   85.3020   68.6030 C   0  0  0  0  0  0  0  0  0  0  0  0
   31.9330   85.3510   67.7750 O   0  0  0  0  0  0  0  0  0  0  0  0
   31.1250   85.5800   69.8160 O   0  0  0  0  0  0  0  0  0  0  0  0
   27.7006   77.8990   65.6131 H   0  0  0  0  0  0  0  0  0  0  0  0
   26.0530   76.8921   62.9848 H   0  0  0  0  0  0  0  0  0  0  0  0
   24.8783   78.2011   61.2761 H   0  0  0  0  0  0  0  0  0  0  0  0
   25.3565   80.5926   60.9073 H   0  0  0  0  0  0  0  0  0  0  0  0
   27.0285   81.7403   62.3129 H   0  0  0  0  0  0  0  0  0  0  0  0
   29.7923   83.8120   64.5301 H   0  0  0  0  0  0  0  0  0  0  0  0
   28.2694   84.1802   63.7372 H   0  0  0  0  0  0  0  0  0  0  0  0
   26.9975   82.6880   65.3910 H   0  0  0  0  0  0  0  0  0  0  0  0
   27.7075   84.4689   66.1562 H   0  0  0  0  0  0  0  0  0  0  0  0
   28.1005   85.0867   69.6713 H   0  0  0  0  0  0  0  0  0  0  0  0
   29.1996   83.7105   69.8890 H   0  0  0  0  0  0  0  0  0  0  0  0
   29.2917   85.9139   67.7485 H   0  0  0  0  0  0  0  0  0  0  0  0
   31.3425   82.7652   67.5540 H   0  0  0  0  0  0  0  0  0  0  0  0
   30.4786   82.2512   66.0653 H   0  0  0  0  0  0  0  0  0  0  0  0
   31.4452   83.7652   66.0653 H   0  0  0  0  0  0  0  0  0  0  0  0
   30.8051   84.9493   70.5088 H   0  0  0  0  0  0  0  0  0  0  0  0
  1  3  1  0
  1  5  2  0
  1 11  1  0
  2 12  2  0
  2 14  1  0
  4 12  1  0
  4 13  1  0
  5  8  1  0
  6 15  1  0
  6 17  1  0
  6 18  1  0
  7 15  1  0
  7 16  1  0
  8  9  2  0
  9 10  1  0
 10 11  2  0
 11 12  1  0
 13 14  1  0
 14 15  1  0
 16 17  1  0
 17 19  1  0
 19 20  2  0
 19 21  1  0
  3 22  1  0
  5 23  1  0
  8 24  1  0
  9 25  1  0
 10 26  1  0
 13 27  1  0
 13 28  1  0
 14 29  1  0
 15 30  1  0
 16 31  1  0
 16 32  1  0
 17 33  1  0
 18 34  1  0
 18 35  1  0
 18 36  1  0
 21 37  1  0
A    1
C1
A    2
N1
A    3
O1
A    4
S1
A    5
C2
A    6
N2
A    7
S2
A    8
C3
A    9
C4
A   10
C5
A   11
C6
A   12
C12
A   13
C13
A   14
C14
A   15
C15
A   16
C16
A   17
C17
A   18
C18
A   19
C19
A   20
O20
A   21
O21
M  END
