3U0X_GTI_A_1
     RDKit          3D

 31 33  0  0  0  0  0  0  0  0999 V2000
   -2.6300  -53.1120   18.2810 N   0  0  0  0  0  0  0  0  0  0  0  0
   -3.3290  -52.4580   20.3360 N   0  0  0  0  0  0  0  0  0  0  0  0
   -3.8260  -47.6260   21.6640 N   0  0  0  0  0  0  0  0  0  0  0  0
   -3.9250  -50.1420   20.3090 N   0  0  0  0  0  0  0  0  0  0  0  0
   -2.3480  -57.2370   21.2100 C   0  0  0  0  0  0  0  0  0  0  0  0
   -2.0000  -57.0120   19.8810 C   0  0  0  0  0  0  0  0  0  0  0  0
   -2.8660  -56.2100   21.9820 C   0  0  0  0  0  0  0  0  0  0  0  0
   -2.1730  -55.7540   19.3160 C   0  0  0  0  0  0  0  0  0  0  0  0
   -3.0300  -54.9490   21.4200 C   0  0  0  0  0  0  0  0  0  0  0  0
   -3.5230  -48.9020   22.3500 C   0  0  0  0  0  0  0  0  0  0  0  0
   -3.4360  -47.7870   20.2460 C   0  0  0  0  0  0  0  0  0  0  0  0
   -4.3110  -50.0560   21.7320 C   0  0  0  0  0  0  0  0  0  0  0  0
   -4.2170  -48.9140   19.5720 C   0  0  0  0  0  0  0  0  0  0  0  0
   -3.0010  -51.5030   18.1130 S   0  0  0  0  0  0  0  0  0  0  0  0
   -2.6910  -54.7270   20.0890 C   0  0  0  0  0  0  0  0  0  0  0  0
   -2.8660  -53.4570   19.5620 C   0  0  0  0  0  0  0  0  0  0  0  0
   -3.4610  -51.3010   19.7090 C   0  0  0  0  0  0  0  0  0  0  0  0
   -4.8328  -47.4196   21.7316 H   0  0  0  0  0  0  0  0  0  0  0  0
   -2.2109  -58.2360   21.6496 H   0  0  0  0  0  0  0  0  0  0  0  0
   -1.5868  -57.8325   19.2761 H   0  0  0  0  0  0  0  0  0  0  0  0
   -3.1451  -56.3906   23.0305 H   0  0  0  0  0  0  0  0  0  0  0  0
   -1.9013  -55.5752   18.2652 H   0  0  0  0  0  0  0  0  0  0  0  0
   -3.4289  -54.1246   22.0293 H   0  0  0  0  0  0  0  0  0  0  0  0
   -2.4470  -49.1122   22.2601 H   0  0  0  0  0  0  0  0  0  0  0  0
   -3.8100  -48.8082   23.4077 H   0  0  0  0  0  0  0  0  0  0  0  0
   -3.6348  -46.8460   19.7121 H   0  0  0  0  0  0  0  0  0  0  0  0
   -2.3663  -48.0407   20.2102 H   0  0  0  0  0  0  0  0  0  0  0  0
   -5.3905  -49.8627   21.8178 H   0  0  0  0  0  0  0  0  0  0  0  0
   -4.0901  -50.9997   22.2522 H   0  0  0  0  0  0  0  0  0  0  0  0
   -3.8993  -49.0186   18.5241 H   0  0  0  0  0  0  0  0  0  0  0  0
   -5.2961  -48.7007   19.5799 H   0  0  0  0  0  0  0  0  0  0  0  0
 16  1  2  0
  1 14  1  0
  2 16  1  0
  2 17  2  0
 10  3  1  0
  3 11  1  0
 12  4  1  0
 17  4  1  0
  4 13  1  0
  7  5  2  0
  5  6  1  0
  6  8  2  0
  7  9  1  0
 15  8  1  0
  9 15  2  0
 10 12  1  0
 11 13  1  0
 17 14  1  0
 15 16  1  0
  3 18  1  0
  5 19  1  0
  6 20  1  0
  7 21  1  0
  8 22  1  0
  9 23  1  0
 10 24  1  0
 10 25  1  0
 11 26  1  0
 11 27  1  0
 12 28  1  0
 12 29  1  0
 13 30  1  0
 13 31  1  0
A    1
NJ
A    2
NK
A    3
NL
A    4
NQ
A    5
CAA
A    6
CAB
A    7
CAC
A    8
CAD
A    9
CAE
A   10
CAF
A   11
CAG
A   12
CAH
A   13
CAI
A   14
SAM
A   15
CAN
A   16
CAO
A   17
CAP
M  END
