3U2D_08B_A_1
     RDKit          3D

 43 45  0  0  0  0  0  0  0  0999 V2000
    5.6860    7.9840   23.6000 C   0  0  0  0  0  0  0  0  0  0  0  0
    4.4350    7.1580   23.5490 C   0  0  0  0  0  0  0  0  0  0  0  0
    3.5110    7.1520   22.5480 C   0  0  0  0  0  0  0  0  0  0  0  0
    2.5120    6.2340   22.8910 C   0  0  0  0  0  0  0  0  0  0  0  0
    2.8630    5.7130   24.1240 C   0  0  0  0  0  0  0  0  0  0  0  0
    4.0470    6.2830   24.5090 N   0  0  0  0  0  0  0  0  0  0  0  0
    2.1430    4.7040   24.8870 C   0  0  0  0  0  0  0  0  0  0  0  0
    2.6220    4.3330   25.9540 O   0  0  0  0  0  0  0  0  0  0  0  0
    0.9810    4.2000   24.4000 N   0  0  0  0  0  0  0  0  0  0  0  0
    0.2650    3.1550   25.1360 C   0  0  0  0  0  0  0  0  0  0  0  0
   -1.2170    3.0960   24.7230 C   0  0  0  0  0  0  0  0  0  0  0  0
   -1.8650    1.8520   25.3520 C   0  0  0  0  0  0  0  0  0  0  0  0
   -1.1190    0.6830   24.8460 N   0  0  0  0  0  0  0  0  0  0  0  0
    0.2540    0.6260   25.3590 C   0  0  0  0  0  0  0  0  0  0  0  0
    1.0040    1.8430   24.8110 C   0  0  0  0  0  0  0  0  0  0  0  0
   -1.7690   -0.5490   24.7800 C   0  0  0  0  0  0  0  0  0  0  0  0
   -2.8710   -0.7450   23.9350 C   0  0  0  0  0  0  0  0  0  0  0  0
   -3.4560   -2.0050   23.9100 C   0  0  0  0  0  0  0  0  0  0  0  0
   -2.9290   -3.0250   24.7040 C   0  0  0  0  0  0  0  0  0  0  0  0
   -1.8350   -2.7660   25.5030 C   0  0  0  0  0  0  0  0  0  0  0  0
   -1.2960   -1.5580   25.5110 N   0  0  0  0  0  0  0  0  0  0  0  0
   -3.3890    0.2460   23.1520 N   0  0  0  0  0  0  0  0  0  0  0  0
   -4.5910    0.4240   23.0980 O   0  0  0  0  0  0  0  0  0  0  0  0
   -2.6660    0.9650   22.4870 O   0  0  0  0  0  0  0  0  0  0  0  0
    3.5570    8.1980   20.9700 Br  0  0  0  0  0  0  0  0  0  0  0  0
    5.9624    8.1665   24.6490 H   0  0  0  0  0  0  0  0  0  0  0  0
    6.5014    7.4461   23.0942 H   0  0  0  0  0  0  0  0  0  0  0  0
    5.5116    8.9451   23.0942 H   0  0  0  0  0  0  0  0  0  0  0  0
    1.6225    5.9770   22.2971 H   0  0  0  0  0  0  0  0  0  0  0  0
    4.5568    6.0810   25.3809 H   0  0  0  0  0  0  0  0  0  0  0  0
    0.6012    4.5532   23.5101 H   0  0  0  0  0  0  0  0  0  0  0  0
    0.2585    3.3499   26.2186 H   0  0  0  0  0  0  0  0  0  0  0  0
   -1.7344    3.9998   25.0771 H   0  0  0  0  0  0  0  0  0  0  0  0
   -1.2945    3.0404   23.6271 H   0  0  0  0  0  0  0  0  0  0  0  0
   -1.7942    1.9012   26.4486 H   0  0  0  0  0  0  0  0  0  0  0  0
   -2.9309    1.7853   25.0886 H   0  0  0  0  0  0  0  0  0  0  0  0
    0.7428   -0.2995   25.0204 H   0  0  0  0  0  0  0  0  0  0  0  0
    0.2560    0.6342   26.4590 H   0  0  0  0  0  0  0  0  0  0  0  0
    1.0949    1.7450   23.7192 H   0  0  0  0  0  0  0  0  0  0  0  0
    1.9960    1.8792   25.2849 H   0  0  0  0  0  0  0  0  0  0  0  0
   -4.3287   -2.1975   23.2687 H   0  0  0  0  0  0  0  0  0  0  0  0
   -3.3825   -4.0271   24.6925 H   0  0  0  0  0  0  0  0  0  0  0  0
   -1.4115   -3.5625   26.1324 H   0  0  0  0  0  0  0  0  0  0  0  0
 25  3  1  0
 24 22  1  0
  3  4  1  0
  3  2  2  0
  4  5  2  0
 23 22  2  0
 22 17  1  0
  2  1  1  0
  2  6  1  0
 18 17  2  0
 18 19  1  0
 17 16  1  0
  5  6  1  0
  5  7  1  0
  9  7  1  0
  9 10  1  0
 19 20  2  0
 11 10  1  0
 11 12  1  0
 16 13  1  0
 16 21  2  0
 15 10  1  0
 15 14  1  0
 13 12  1  0
 13 14  1  0
  7  8  2  0
 20 21  1  0
  1 26  1  0
  1 27  1  0
  1 28  1  0
  4 29  1  0
  6 30  1  0
  9 31  1  0
 10 32  1  0
 11 33  1  0
 11 34  1  0
 12 35  1  0
 12 36  1  0
 14 37  1  0
 14 38  1  0
 15 39  1  0
 15 40  1  0
 18 41  1  0
 19 42  1  0
 20 43  1  0
M  CHG  2  22   1  24  -1
A    1
C1
A    2
C2
A    3
C3
A    4
C4
A    5
C5
A    6
N6
A    7
C8
A    8
O9
A    9
N10
A   10
C11
A   11
C12
A   12
C13
A   13
N14
A   14
C15
A   15
C16
A   16
C17
A   17
C18
A   18
C19
A   19
C20
A   20
C21
A   21
N22
A   22
N23
A   23
O24
A   24
O25
A   25
BR
M  END
