3U3H_03W_A_400
     RDKit          3D

 15 14  0  0  0  0  0  0  0  0999 V2000
   34.4380   81.4730   57.3560 C   0  0  0  0  0  0  0  0  0  0  0  0
   34.9110   82.7650   57.4770 O   0  0  0  0  0  0  0  0  0  0  0  0
   32.9290   81.4650   57.5300 C   0  0  0  0  0  0  0  0  0  0  0  0
   32.6650   82.1360   58.6990 O   0  0  0  0  0  0  0  0  0  0  0  0
   32.2800   80.1160   57.5770 C   0  0  0  0  0  0  0  0  0  0  0  0
   32.3470   79.4740   56.3650 O   0  0  0  0  0  0  0  0  0  0  0  0
   35.0930   80.5940   58.2440 O   0  0  0  0  0  0  0  0  0  0  0  0
   34.6646   81.1001   56.3462 H   0  0  0  0  0  0  0  0  0  0  0  0
   34.9959   82.9969   58.4357 H   0  0  0  0  0  0  0  0  0  0  0  0
   32.5002   81.9393   56.6349 H   0  0  0  0  0  0  0  0  0  0  0  0
   32.8924   81.5580   59.4699 H   0  0  0  0  0  0  0  0  0  0  0  0
   32.7902   79.5019   58.3336 H   0  0  0  0  0  0  0  0  0  0  0  0
   31.2189   80.2564   57.8307 H   0  0  0  0  0  0  0  0  0  0  0  0
   32.4486   78.5003   56.5125 H   0  0  0  0  0  0  0  0  0  0  0  0
   34.8952   80.8595   59.1770 H   0  0  0  0  0  0  0  0  0  0  0  0
  1  2  1  0
  1  3  1  0
  1  7  1  0
  3  5  1  0
  3  4  1  0
  6  5  1  0
  1  8  1  0
  2  9  1  0
  3 10  1  0
  4 11  1  0
  5 12  1  0
  5 13  1  0
  6 14  1  0
  7 15  1  0
A    1
C1
A    2
O1
A    3
C2
A    4
O2
A    5
C3
A    6
O3
A    7
O5
M  END
