3U4O_08E_A_579
     RDKit          3D

 43 46  0  0  0  0  0  0  0  0999 V2000
   25.8760   41.9110   46.3980 C   0  0  0  0  0  0  0  0  0  0  0  0
   25.7760   41.8360   47.7910 C   0  0  0  0  0  0  0  0  0  0  0  0
   27.4090   42.7130   41.5880 C   0  0  0  0  0  0  0  0  0  0  0  0
   24.4570   43.8860   47.8680 C   0  0  0  0  0  0  0  0  0  0  0  0
   27.6690   44.2720   43.4290 C   0  0  0  0  0  0  0  0  0  0  0  0
   28.5100   43.3100   41.0180 C   0  0  0  0  0  0  0  0  0  0  0  0
   24.5380   43.9790   46.4570 C   0  0  0  0  0  0  0  0  0  0  0  0
   24.0330   44.8860   45.4860 C   0  0  0  0  0  0  0  0  0  0  0  0
   26.9790   43.2020   42.8200 C   0  0  0  0  0  0  0  0  0  0  0  0
   25.2480   42.9950   45.7660 C   0  0  0  0  0  0  0  0  0  0  0  0
   25.0850   42.8110   48.5130 C   0  0  0  0  0  0  0  0  0  0  0  0
   24.4430   44.4640   44.2190 C   0  0  0  0  0  0  0  0  0  0  0  0
   28.7710   44.8190   42.7730 C   0  0  0  0  0  0  0  0  0  0  0  0
   22.6090   48.0220   47.0800 C   0  0  0  0  0  0  0  0  0  0  0  0
   23.4820   46.8970   46.7950 C   0  0  0  0  0  0  0  0  0  0  0  0
   21.5080   48.2100   46.3300 C   0  0  0  0  0  0  0  0  0  0  0  0
   23.2150   46.0250   45.7950 C   0  0  0  0  0  0  0  0  0  0  0  0
   21.9460   46.2330   44.9860 C   0  0  0  0  0  0  0  0  0  0  0  0
   24.2290   44.9900   42.8740 C   0  0  0  0  0  0  0  0  0  0  0  0
   25.7840   42.5140   43.4020 C   0  0  0  0  0  0  0  0  0  0  0  0
   29.1940   44.3460   41.5710 N   0  0  0  0  0  0  0  0  0  0  0  0
   25.1660   43.3180   44.4430 N   0  0  0  0  0  0  0  0  0  0  0  0
   21.1880   47.3310   45.3190 N   0  0  0  0  0  0  0  0  0  0  0  0
   29.4780   45.8700   43.3530 N   0  0  0  0  0  0  0  0  0  0  0  0
   21.6130   45.4410   44.0750 O   0  0  0  0  0  0  0  0  0  0  0  0
   23.9820   44.3320   41.8760 O   0  0  0  0  0  0  0  0  0  0  0  0
   24.1920   46.3310   42.8370 O   0  0  0  0  0  0  0  0  0  0  0  0
   24.9680   42.6760   50.2400 Cl  0  0  0  0  0  0  0  0  0  0  0  0
   26.4244   41.1514   45.8216 H   0  0  0  0  0  0  0  0  0  0  0  0
   26.2479   40.9979   48.3247 H   0  0  0  0  0  0  0  0  0  0  0  0
   26.8883   41.8817   41.0902 H   0  0  0  0  0  0  0  0  0  0  0  0
   23.9106   44.6443   48.4480 H   0  0  0  0  0  0  0  0  0  0  0  0
   27.3435   44.6669   44.4027 H   0  0  0  0  0  0  0  0  0  0  0  0
   28.8600   42.9227   40.0498 H   0  0  0  0  0  0  0  0  0  0  0  0
   22.8458   48.7141   47.9016 H   0  0  0  0  0  0  0  0  0  0  0  0
   24.3836   46.7498   47.4077 H   0  0  0  0  0  0  0  0  0  0  0  0
   20.8567   49.0745   46.5262 H   0  0  0  0  0  0  0  0  0  0  0  0
   25.0490   42.3357   42.6033 H   0  0  0  0  0  0  0  0  0  0  0  0
   26.1135   41.5637   43.8473 H   0  0  0  0  0  0  0  0  0  0  0  0
   20.3284   47.5068   44.7794 H   0  0  0  0  0  0  0  0  0  0  0  0
   29.5321   45.9504   44.3784 H   0  0  0  0  0  0  0  0  0  0  0  0
   29.9466   46.5667   42.7564 H   0  0  0  0  0  0  0  0  0  0  0  0
   24.1777   46.8493   43.6804 H   0  0  0  0  0  0  0  0  0  0  0  0
  6 21  1  0
  6  3  2  0
 21 13  2  0
  3  9  1  0
 26 19  2  0
 13 24  1  0
 13  5  1  0
  9 20  1  0
  9  5  2  0
 27 19  1  0
 19 12  1  0
 20 22  1  0
 25 18  2  0
 12 22  1  0
 12  8  2  0
 22 10  1  0
 18 23  1  0
 18 17  1  0
 23 16  1  0
  8 17  1  0
  8  7  1  0
 10  1  2  0
 10  7  1  0
 17 15  2  0
 16 14  2  0
  1  2  1  0
  7  4  2  0
 15 14  1  0
  2 11  2  0
  4 11  1  0
 11 28  1  0
  1 29  1  0
  2 30  1  0
  3 31  1  0
  4 32  1  0
  5 33  1  0
  6 34  1  0
 14 35  1  0
 15 36  1  0
 16 37  1  0
 20 38  1  0
 20 39  1  0
 23 40  1  0
 24 41  1  0
 24 42  1  0
 27 43  1  0
A    1
C10
A    2
C9
A    3
C21
A    4
C2
A    5
C25
A    6
C22
A    7
C4
A    8
C8
A    9
C20
A   10
C5
A   11
C3
A   12
C7
A   13
C24
A   14
C18
A   15
C17
A   16
C19
A   17
C1
A   18
C15
A   19
C11
A   20
C12
A   21
N23
A   22
N6
A   23
N16
A   24
N27
A   25
O28
A   26
O13
A   27
O14
A   28
CL2
M  END
