3U4U_LNH_A_334
     RDKit          3D

 54 58  0  0  0  0  0  0  0  0999 V2000
   24.4270   27.2100    8.7880 C   0  0  0  0  0  0  0  0  0  0  0  0
   24.2900   26.5880   10.1560 C   0  0  0  0  0  0  0  0  0  0  0  0
   24.1080   25.3830   10.2330 O   0  0  0  0  0  0  0  0  0  0  0  0
   24.4130   27.4150   11.2770 N   0  0  0  0  0  0  0  0  0  0  0  0
   24.3410   28.8320   11.3030 C   0  0  0  0  0  0  0  0  0  0  0  0
   25.1970   29.5240   12.1540 C   0  0  0  0  0  0  0  0  0  0  0  0
   25.1920   30.9010   12.2550 C   0  0  0  0  0  0  0  0  0  0  0  0
   24.2710   31.5230   11.4240 C   0  0  0  0  0  0  0  0  0  0  0  0
   23.4030   30.8720   10.5590 C   0  0  0  0  0  0  0  0  0  0  0  0
   23.4330   29.4900   10.4960 C   0  0  0  0  0  0  0  0  0  0  0  0
   22.6180   31.8540    9.8790 C   0  0  0  0  0  0  0  0  0  0  0  0
   23.0170   33.0900   10.3310 C   0  0  0  0  0  0  0  0  0  0  0  0
   24.0110   32.8590   11.2510 N   0  0  0  0  0  0  0  0  0  0  0  0
   24.6960   33.9120   11.9990 C   0  0  0  0  0  0  0  0  0  0  0  0
   24.1660   33.7880   13.4260 C   0  0  0  0  0  0  0  0  0  0  0  0
   25.0390   34.6680   14.3140 C   0  0  0  0  0  0  0  0  0  0  0  0
   26.2520   34.8770   14.0050 O   0  0  0  0  0  0  0  0  0  0  0  0
   24.4150   35.0480   15.3460 O   0  0  0  0  0  0  0  0  0  0  0  0
   21.5680   31.6050    8.8670 C   0  0  0  0  0  0  0  0  0  0  0  0
   20.7250   32.6890    8.2800 C   0  0  0  0  0  0  0  0  0  0  0  0
   19.7940   32.4470    7.3510 C   0  0  0  0  0  0  0  0  0  0  0  0
   19.6210   31.1540    6.9200 N   0  0  0  0  0  0  0  0  0  0  0  0
   20.3580   30.1280    7.4220 C   0  0  0  0  0  0  0  0  0  0  0  0
   21.3280   30.2550    8.3920 N   0  0  0  0  0  0  0  0  0  0  0  0
   19.9730   28.9640    6.7960 C   0  0  0  0  0  0  0  0  0  0  0  0
   18.9510   29.3530    5.9090 C   0  0  0  0  0  0  0  0  0  0  0  0
   18.7580   30.6820    5.9920 N   0  0  0  0  0  0  0  0  0  0  0  0
   20.5280   27.6680    7.0230 C   0  0  0  0  0  0  0  0  0  0  0  0
   21.0470   26.6420    7.1670 N   0  0  0  0  0  0  0  0  0  0  0  0
   18.9840   33.3990    6.7670 N   0  0  0  0  0  0  0  0  0  0  0  0
   19.1790   34.8150    7.1370 C   0  0  0  0  0  0  0  0  0  0  0  0
   18.6430   35.8920    6.2280 C   0  0  0  0  0  0  0  0  0  0  0  0
   20.1210   35.6780    6.3340 C   0  0  0  0  0  0  0  0  0  0  0  0
   24.6625   28.2793    8.8933 H   0  0  0  0  0  0  0  0  0  0  0  0
   25.2363   26.7089    8.2367 H   0  0  0  0  0  0  0  0  0  0  0  0
   23.4821   27.0952    8.2367 H   0  0  0  0  0  0  0  0  0  0  0  0
   24.5729   26.9457   12.1798 H   0  0  0  0  0  0  0  0  0  0  0  0
   25.9056   28.9515   12.7706 H   0  0  0  0  0  0  0  0  0  0  0  0
   25.8579   31.4550   12.9330 H   0  0  0  0  0  0  0  0  0  0  0  0
   22.7582   28.9353    9.8275 H   0  0  0  0  0  0  0  0  0  0  0  0
   22.6201   34.0672   10.0187 H   0  0  0  0  0  0  0  0  0  0  0  0
   25.7849   33.7577   11.9757 H   0  0  0  0  0  0  0  0  0  0  0  0
   24.5113   34.9095   11.5737 H   0  0  0  0  0  0  0  0  0  0  0  0
   23.1210   34.1286   13.4700 H   0  0  0  0  0  0  0  0  0  0  0  0
   24.1989   32.7415   13.7633 H   0  0  0  0  0  0  0  0  0  0  0  0
   24.7684   34.8328   16.2454 H   0  0  0  0  0  0  0  0  0  0  0  0
   20.8752   33.7230    8.6239 H   0  0  0  0  0  0  0  0  0  0  0  0
   18.3942   28.6728    5.2477 H   0  0  0  0  0  0  0  0  0  0  0  0
   18.2589   33.1278    6.0876 H   0  0  0  0  0  0  0  0  0  0  0  0
   19.0738   34.5634    8.2027 H   0  0  0  0  0  0  0  0  0  0  0  0
   18.1132   35.6173    5.3040 H   0  0  0  0  0  0  0  0  0  0  0  0
   17.9723   36.7542    6.3576 H   0  0  0  0  0  0  0  0  0  0  0  0
   20.7493   36.4249    6.8413 H   0  0  0  0  0  0  0  0  0  0  0  0
   20.9310   35.4833    5.6157 H   0  0  0  0  0  0  0  0  0  0  0  0
  1  2  1  0
  2  3  2  0
  2  4  1  0
  4  5  1  0
 10  5  2  0
  5  6  1  0
  6  7  2  0
  8  7  1  0
  9  8  2  0
 13  8  1  0
 11  9  1  0
 10  9  1  0
 19 11  1  0
 11 12  2  0
 12 13  1  0
 13 14  1  0
 14 15  1  0
 15 16  1  0
 17 16  2  0
 16 18  1  0
 20 19  1  0
 24 19  2  0
 21 20  2  0
 30 21  1  0
 22 21  1  0
 27 22  1  0
 22 23  1  0
 25 23  2  0
 23 24  1  0
 26 25  1  0
 25 28  1  0
 26 27  2  0
 28 29  3  0
 30 31  1  0
 32 31  1  0
 33 31  1  0
 32 33  1  0
  1 34  1  0
  1 35  1  0
  1 36  1  0
  4 37  1  0
  6 38  1  0
  7 39  1  0
 10 40  1  0
 12 41  1  0
 14 42  1  0
 14 43  1  0
 15 44  1  0
 15 45  1  0
 18 46  1  0
 20 47  1  0
 26 48  1  0
 30 49  1  0
 31 50  1  0
 32 51  1  0
 32 52  1  0
 33 53  1  0
 33 54  1  0
A    1
C1
A    2
C2
A    3
O3
A    4
N4
A    5
C5
A    6
C6
A    7
C7
A    8
C8
A    9
C9
A   10
C10
A   11
C11
A   12
C12
A   13
N13
A   14
C14
A   15
C15
A   16
C16
A   17
O17
A   18
O18
A   19
C19
A   20
C20
A   21
C21
A   22
N22
A   23
C23
A   24
N24
A   25
C25
A   26
C26
A   27
N27
A   28
C28
A   29
N29
A   30
N30
A   31
C31
A   32
C32
A   33
C33
M  END
