3U57_DH8_A_1000
     RDKit          3D

 71 77  0  0  0  0  0  0  0  0999 V2000
   34.1340   44.4150   35.2390 C   0  0  0  0  0  0  0  0  0  0  0  0
   33.9860   44.4880   36.6690 O   0  0  0  0  0  0  0  0  0  0  0  0
   34.5180   45.8510   34.7840 C   0  0  0  0  0  0  0  0  0  0  0  0
   33.4590   46.8060   35.0120 O   0  0  0  0  0  0  0  0  0  0  0  0
   35.0150   45.9340   33.3260 C   0  0  0  0  0  0  0  0  0  0  0  0
   35.7250   47.1980   33.1230 O   0  0  0  0  0  0  0  0  0  0  0  0
   35.9340   44.7280   33.0120 C   0  0  0  0  0  0  0  0  0  0  0  0
   36.1980   44.6550   31.6050 O   0  0  0  0  0  0  0  0  0  0  0  0
   35.3310   43.4050   33.5210 C   0  0  0  0  0  0  0  0  0  0  0  0
   35.1740   43.4640   34.9510 O   0  0  0  0  0  0  0  0  0  0  0  0
   36.2390   42.2190   33.1760 C   0  0  0  0  0  0  0  0  0  0  0  0
   37.4390   42.2700   33.9730 O   0  0  0  0  0  0  0  0  0  0  0  0
   30.6700   43.8950   39.5840 C   0  0  0  0  0  0  0  0  0  0  0  0
   35.9980   40.0150   44.0750 C   0  0  0  0  0  0  0  0  0  0  0  0
   34.9640   42.1610   43.7410 O   0  0  0  0  0  0  0  0  0  0  0  0
   31.5740   43.6670   38.3660 C   0  0  0  0  0  0  0  0  0  0  0  0
   40.0420   42.0420   42.6690 C   0  0  0  0  0  0  0  0  0  0  0  0
   39.4500   40.7750   42.6050 C   0  0  0  0  0  0  0  0  0  0  0  0
   39.4880   43.1200   41.9790 C   0  0  0  0  0  0  0  0  0  0  0  0
   38.2910   40.5700   41.8410 C   0  0  0  0  0  0  0  0  0  0  0  0
   34.8310   44.3340   39.7550 C   0  0  0  0  0  0  0  0  0  0  0  0
   36.0540   40.7530   39.2670 C   0  0  0  0  0  0  0  0  0  0  0  0
   37.6230   43.8080   40.4700 N   0  0  0  0  0  0  0  0  0  0  0  0
   35.0730   40.8590   41.9210 O   0  0  0  0  0  0  0  0  0  0  0  0
   35.3060   41.0930   43.2380 C   0  0  0  0  0  0  0  0  0  0  0  0
   32.9420   43.4340   38.5140 C   0  0  0  0  0  0  0  0  0  0  0  0
   36.9700   43.0230   39.4130 C   0  0  0  0  0  0  0  0  0  0  0  0
   38.3340   42.9380   41.2140 C   0  0  0  0  0  0  0  0  0  0  0  0
   37.7390   41.6500   41.1380 C   0  0  0  0  0  0  0  0  0  0  0  0
   33.6220   43.4110   39.8660 C   0  0  0  0  0  0  0  0  0  0  0  0
   35.7980   43.7170   38.7300 C   0  0  0  0  0  0  0  0  0  0  0  0
   34.7860   41.4910   38.7880 C   0  0  0  0  0  0  0  0  0  0  0  0
   33.8550   43.2070   37.3200 C   0  0  0  0  0  0  0  0  0  0  0  0
   35.2480   42.0200   41.1050 C   0  0  0  0  0  0  0  0  0  0  0  0
   34.1210   41.9980   40.0870 C   0  0  0  0  0  0  0  0  0  0  0  0
   35.1040   42.6800   37.9330 N   0  0  0  0  0  0  0  0  0  0  0  0
   36.5110   41.8180   40.2320 C   0  0  0  0  0  0  0  0  0  0  0  0
   33.2247   44.0865   34.7143 H   0  0  0  0  0  0  0  0  0  0  0  0
   35.3704   46.1212   35.4246 H   0  0  0  0  0  0  0  0  0  0  0  0
   33.3264   46.9255   35.9858 H   0  0  0  0  0  0  0  0  0  0  0  0
   34.1557   45.8990   32.6401 H   0  0  0  0  0  0  0  0  0  0  0  0
   35.9484   47.5958   34.0016 H   0  0  0  0  0  0  0  0  0  0  0  0
   36.8842   44.8833   33.5440 H   0  0  0  0  0  0  0  0  0  0  0  0
   37.1418   44.3940   31.4594 H   0  0  0  0  0  0  0  0  0  0  0  0
   34.3554   43.2643   33.0328 H   0  0  0  0  0  0  0  0  0  0  0  0
   35.7050   41.2794   33.3810 H   0  0  0  0  0  0  0  0  0  0  0  0
   36.5099   42.2688   32.1110 H   0  0  0  0  0  0  0  0  0  0  0  0
   37.1981   42.2598   34.9332 H   0  0  0  0  0  0  0  0  0  0  0  0
   31.2524   43.7481   40.5055 H   0  0  0  0  0  0  0  0  0  0  0  0
   30.2743   44.9211   39.5600 H   0  0  0  0  0  0  0  0  0  0  0  0
   29.8350   43.1793   39.5600 H   0  0  0  0  0  0  0  0  0  0  0  0
   35.8574   40.2341   45.1438 H   0  0  0  0  0  0  0  0  0  0  0  0
   35.5612   39.0328   43.8415 H   0  0  0  0  0  0  0  0  0  0  0  0
   37.0729   40.0032   43.8415 H   0  0  0  0  0  0  0  0  0  0  0  0
   31.1359   43.6875   37.3572 H   0  0  0  0  0  0  0  0  0  0  0  0
   40.9523   42.1886   43.2689 H   0  0  0  0  0  0  0  0  0  0  0  0
   39.8963   39.9348   43.1572 H   0  0  0  0  0  0  0  0  0  0  0  0
   39.9594   44.1122   42.0373 H   0  0  0  0  0  0  0  0  0  0  0  0
   37.8222   39.5760   41.7944 H   0  0  0  0  0  0  0  0  0  0  0  0
   34.5116   45.3306   39.4161 H   0  0  0  0  0  0  0  0  0  0  0  0
   35.3237   44.4428   40.7325 H   0  0  0  0  0  0  0  0  0  0  0  0
   35.8263   39.7992   39.7654 H   0  0  0  0  0  0  0  0  0  0  0  0
   36.7709   40.4395   38.4938 H   0  0  0  0  0  0  0  0  0  0  0  0
   37.5512   44.8253   40.6141 H   0  0  0  0  0  0  0  0  0  0  0  0
   37.6310   42.8108   38.5598 H   0  0  0  0  0  0  0  0  0  0  0  0
   32.9527   43.7218   40.6818 H   0  0  0  0  0  0  0  0  0  0  0  0
   36.1573   44.5433   38.0991 H   0  0  0  0  0  0  0  0  0  0  0  0
   34.1575   40.8208   38.1831 H   0  0  0  0  0  0  0  0  0  0  0  0
   33.5142   42.5010   36.5484 H   0  0  0  0  0  0  0  0  0  0  0  0
   35.2941   42.9233   41.7311 H   0  0  0  0  0  0  0  0  0  0  0  0
   33.2724   41.3748   40.4056 H   0  0  0  0  0  0  0  0  0  0  0  0
  1  2  1  0
  1  3  1  0
  1 10  1  0
  2 33  1  0
  3  4  1  0
  3  5  1  0
  5  6  1  0
  5  7  1  0
  7  8  1  0
  7  9  1  0
  9 10  1  0
  9 11  1  0
 11 12  1  0
 13 16  1  0
 14 25  1  0
 15 25  2  0
 16 26  2  0
 17 18  2  0
 17 19  1  0
 18 20  1  0
 19 28  2  0
 20 29  2  0
 21 30  1  0
 21 31  1  0
 22 32  1  0
 22 37  1  0
 23 27  1  0
 23 28  1  0
 24 25  1  0
 24 34  1  0
 26 30  1  0
 26 33  1  0
 27 31  1  0
 27 37  1  0
 28 29  1  0
 29 37  1  0
 30 35  1  0
 31 36  1  0
 32 35  1  0
 32 36  1  0
 33 36  1  0
 34 35  1  0
 34 37  1  0
  1 38  1  0
  3 39  1  0
  4 40  1  0
  5 41  1  0
  6 42  1  0
  7 43  1  0
  8 44  1  0
  9 45  1  0
 11 46  1  0
 11 47  1  0
 12 48  1  0
 13 49  1  0
 13 50  1  0
 13 51  1  0
 14 52  1  0
 14 53  1  0
 14 54  1  0
 16 55  1  0
 17 56  1  0
 18 57  1  0
 19 58  1  0
 20 59  1  0
 21 60  1  0
 21 61  1  0
 22 62  1  0
 22 63  1  0
 23 64  1  0
 27 65  1  0
 30 66  1  0
 31 67  1  0
 32 68  1  0
 33 69  1  0
 34 70  1  0
 35 71  1  0
A    1
C1
A    2
O1
A    3
C2
A    4
O2
A    5
C3
A    6
O3
A    7
C4
A    8
O4
A    9
C5
A   10
O5
A   11
C6
A   12
O6
A   13
CAA
A   14
CAB
A   15
OAC
A   16
CAH
A   17
CAI
A   18
CAJ
A   19
CAK
A   20
CAL
A   21
CAN
A   22
CAO
A   23
NAP
A   24
OAQ
A   25
CAT
A   26
CAU
A   27
CAV
A   28
CAW
A   29
CAX
A   30
CBC
A   31
CBD
A   32
CBF
A   33
CBG
A   34
CBH
A   35
CBI
A   36
NBJ
A   37
CBK
M  END
