3U6H_03X_A_1
     RDKit          3D

 64 68  0  0  0  0  0  0  0  0999 V2000
   23.4690    5.3680  -23.8500 N   0  0  0  0  0  0  0  0  0  0  0  0
   24.8570    0.7100  -12.1500 N   0  0  0  0  0  0  0  0  0  0  0  0
   20.0570    6.0750  -22.7430 C   0  0  0  0  0  0  0  0  0  0  0  0
   21.4070    5.7030  -22.7050 C   0  0  0  0  0  0  0  0  0  0  0  0
   22.1700    5.7340  -23.8730 C   0  0  0  0  0  0  0  0  0  0  0  0
   24.0650    4.9630  -22.7220 C   0  0  0  0  0  0  0  0  0  0  0  0
   23.3510    4.9180  -21.5210 C   0  0  0  0  0  0  0  0  0  0  0  0
   21.6760    4.6320  -19.2390 C   0  0  0  0  0  0  0  0  0  0  0  0
   22.0870    5.4280  -18.1770 C   0  0  0  0  0  0  0  0  0  0  0  0
   22.5960    3.4850  -16.8400 C   0  0  0  0  0  0  0  0  0  0  0  0
   21.7170    3.2360  -19.1050 C   0  0  0  0  0  0  0  0  0  0  0  0
   24.2570    0.3960  -13.3030 C   0  0  0  0  0  0  0  0  0  0  0  0
   24.3470    2.5760  -13.0460 C   0  0  0  0  0  0  0  0  0  0  0  0
   24.0060   -1.0200  -13.8340 C   0  0  0  0  0  0  0  0  0  0  0  0
   25.5010    2.5350  -10.9570 C   0  0  0  0  0  0  0  0  0  0  0  0
   27.6730    3.2190  -10.0790 C   0  0  0  0  0  0  0  0  0  0  0  0
   25.6540    3.5870   -8.8040 C   0  0  0  0  0  0  0  0  0  0  0  0
   20.4320    7.0050  -27.4480 C   0  0  0  0  0  0  0  0  0  0  0  0
   19.6150    6.9250  -26.2600 O   0  0  0  0  0  0  0  0  0  0  0  0
   20.2370    6.5170  -25.1090 C   0  0  0  0  0  0  0  0  0  0  0  0
   21.5820    6.1400  -25.0740 C   0  0  0  0  0  0  0  0  0  0  0  0
   19.4730    6.4810  -23.9470 C   0  0  0  0  0  0  0  0  0  0  0  0
   18.1610    6.8700  -24.0390 O   0  0  0  0  0  0  0  0  0  0  0  0
   17.3670    6.8220  -22.8260 C   0  0  0  0  0  0  0  0  0  0  0  0
   21.9960    5.2830  -21.5050 C   0  0  0  0  0  0  0  0  0  0  0  0
   21.2250    5.2650  -20.3720 O   0  0  0  0  0  0  0  0  0  0  0  0
   22.5560    4.8690  -16.9910 C   0  0  0  0  0  0  0  0  0  0  0  0
   22.0400    6.7580  -18.3060 F   0  0  0  0  0  0  0  0  0  0  0  0
   22.1870    2.6710  -17.9060 C   0  0  0  0  0  0  0  0  0  0  0  0
   23.0950    3.0270  -15.6790 N   0  0  0  0  0  0  0  0  0  0  0  0
   23.2090    1.7580  -15.2730 C   0  0  0  0  0  0  0  0  0  0  0  0
   22.8570    0.7750  -15.9190 O   0  0  0  0  0  0  0  0  0  0  0  0
   23.8940    1.5860  -13.9110 C   0  0  0  0  0  0  0  0  0  0  0  0
   24.2280    3.7940  -13.2070 O   0  0  0  0  0  0  0  0  0  0  0  0
   25.3870   -0.3120  -11.1710 C   0  0  0  0  0  0  0  0  0  0  0  0
   24.8900    1.9470  -11.9880 N   0  0  0  0  0  0  0  0  0  0  0  0
   26.8930    2.6440  -11.0770 C   0  0  0  0  0  0  0  0  0  0  0  0
   27.0410    3.6950   -8.9360 C   0  0  0  0  0  0  0  0  0  0  0  0
   24.8710    3.0090   -9.8080 C   0  0  0  0  0  0  0  0  0  0  0  0
   19.4545    6.0477  -21.8231 H   0  0  0  0  0  0  0  0  0  0  0  0
   25.1233    4.6637  -22.7402 H   0  0  0  0  0  0  0  0  0  0  0  0
   23.8485    4.5982  -20.5935 H   0  0  0  0  0  0  0  0  0  0  0  0
   21.3845    2.5893  -19.9303 H   0  0  0  0  0  0  0  0  0  0  0  0
   23.8833   -1.7124  -12.9881 H   0  0  0  0  0  0  0  0  0  0  0  0
   23.0930   -1.0251  -14.4475 H   0  0  0  0  0  0  0  0  0  0  0  0
   24.8617   -1.3386  -14.4475 H   0  0  0  0  0  0  0  0  0  0  0  0
   28.7646    3.2953  -10.1916 H   0  0  0  0  0  0  0  0  0  0  0  0
   25.1684    3.9643   -7.8919 H   0  0  0  0  0  0  0  0  0  0  0  0
   21.4886    7.1085  -27.1601 H   0  0  0  0  0  0  0  0  0  0  0  0
   20.3024    6.0899  -28.0444 H   0  0  0  0  0  0  0  0  0  0  0  0
   20.1274    7.8776  -28.0444 H   0  0  0  0  0  0  0  0  0  0  0  0
   22.1810    6.1629  -25.9963 H   0  0  0  0  0  0  0  0  0  0  0  0
   18.0320    6.8622  -21.9507 H   0  0  0  0  0  0  0  0  0  0  0  0
   16.6793    7.6802  -22.8037 H   0  0  0  0  0  0  0  0  0  0  0  0
   16.7877    5.8872  -22.8037 H   0  0  0  0  0  0  0  0  0  0  0  0
   22.8952    5.5211  -16.1726 H   0  0  0  0  0  0  0  0  0  0  0  0
   22.2344    1.5768  -17.8031 H   0  0  0  0  0  0  0  0  0  0  0  0
   23.4317    3.7430  -15.0196 H   0  0  0  0  0  0  0  0  0  0  0  0
   25.2063    0.0365  -10.1434 H   0  0  0  0  0  0  0  0  0  0  0  0
   24.8729   -1.2717  -11.3285 H   0  0  0  0  0  0  0  0  0  0  0  0
   26.4675   -0.4447  -11.3285 H   0  0  0  0  0  0  0  0  0  0  0  0
   27.3826    2.2642  -11.9859 H   0  0  0  0  0  0  0  0  0  0  0  0
   27.6341    4.1578   -8.1335 H   0  0  0  0  0  0  0  0  0  0  0  0
   23.7799    2.9301   -9.6931 H   0  0  0  0  0  0  0  0  0  0  0  0
  6  1  2  0
  5  1  1  0
 35  2  1  0
  2 12  1  0
  2 36  1  0
  3  4  1  0
  3 22  2  0
 25  4  1  0
  4  5  2  0
  5 21  1  0
  7  6  1  0
 25  7  2  0
  9  8  2  0
 11  8  1  0
  8 26  1  0
 27  9  1  0
  9 28  1  0
 30 10  1  0
 10 27  2  0
 10 29  1  0
 29 11  2  0
 14 12  1  0
 12 33  2  0
 36 13  1  0
 33 13  1  0
 13 34  2  0
 39 15  1  0
 36 15  1  0
 15 37  2  0
 38 16  2  0
 37 16  1  0
 39 17  2  0
 17 38  1  0
 19 18  1  0
 20 19  1  0
 22 20  1  0
 20 21  2  0
 23 22  1  0
 24 23  1  0
 26 25  1  0
 31 30  1  0
 33 31  1  0
 32 31  2  0
  3 40  1  0
  6 41  1  0
  7 42  1  0
 11 43  1  0
 14 44  1  0
 14 45  1  0
 14 46  1  0
 16 47  1  0
 17 48  1  0
 18 49  1  0
 18 50  1  0
 18 51  1  0
 21 52  1  0
 24 53  1  0
 24 54  1  0
 24 55  1  0
 27 56  1  0
 29 57  1  0
 30 58  1  0
 35 59  1  0
 35 60  1  0
 35 61  1  0
 37 62  1  0
 38 63  1  0
 39 64  1  0
A    1
N1
A    2
N3
A    3
C4
A    4
C5
A    5
C6
A    6
C7
A    7
C8
A    8
C10
A    9
C13
A   10
C15
A   11
C17
A   12
C20
A   13
C21
A   14
C22
A   15
C24
A   16
C26
A   17
C28
A   18
C11
A   19
O3
A   20
C2
A   21
C3
A   22
C1
A   23
O2
A   24
C12
A   25
C9
A   26
O1
A   27
C14
A   28
F1
A   29
C16
A   30
N2
A   31
C18
A   32
O4
A   33
C19
A   34
O5
A   35
C23
A   36
N4
A   37
C25
A   38
C27
A   39
C29
M  END
