3U7K_MDB_A_301
     RDKit          3D

 65 66  0  0  0  0  0  0  0  0999 V2000
  -16.7390   84.8790   68.7910 C   0  0  0  0  0  0  0  0  0  0  0  0
  -15.8440   86.3270   70.3670 N   0  0  0  0  0  0  0  0  0  0  0  0
  -15.9900   85.4150   67.9820 O   0  0  0  0  0  0  0  0  0  0  0  0
  -17.0930   85.6700   70.0330 C   0  0  0  0  0  0  0  0  0  0  0  0
  -18.2490   86.6640   69.8370 C   0  0  0  0  0  0  0  0  0  0  0  0
  -18.5860   87.3400   71.1680 C   0  0  0  0  0  0  0  0  0  0  0  0
  -17.9000   87.7850   68.8540 C   0  0  0  0  0  0  0  0  0  0  0  0
  -19.5090   85.9450   69.3590 C   0  0  0  0  0  0  0  0  0  0  0  0
  -15.1350   86.0770   71.4660 C   0  0  0  0  0  0  0  0  0  0  0  0
  -15.5220   85.2850   72.3130 O   0  0  0  0  0  0  0  0  0  0  0  0
  -13.9970   86.7650   71.5590 N   0  0  0  0  0  0  0  0  0  0  0  0
  -13.0740   86.7280   72.5670 C   0  0  0  0  0  0  0  0  0  0  0  0
  -13.2220   85.9280   73.7000 C   0  0  0  0  0  0  0  0  0  0  0  0
  -12.2490   85.9330   74.7050 C   0  0  0  0  0  0  0  0  0  0  0  0
  -11.1210   86.7440   74.5840 C   0  0  0  0  0  0  0  0  0  0  0  0
  -10.9670   87.5440   73.4490 C   0  0  0  0  0  0  0  0  0  0  0  0
  -11.9460   87.5330   72.4470 C   0  0  0  0  0  0  0  0  0  0  0  0
  -11.7950   88.3150   71.3330 O   0  0  0  0  0  0  0  0  0  0  0  0
  -10.5800   88.2480   70.5830 C   0  0  0  0  0  0  0  0  0  0  0  0
  -17.1970   83.6290   68.5680 N   0  0  0  0  0  0  0  0  0  0  0  0
  -16.7910   82.9620   67.3330 C   0  0  0  0  0  0  0  0  0  0  0  0
  -17.9580   82.5640   66.4440 C   0  0  0  0  0  0  0  0  0  0  0  0
  -18.9580   83.2610   66.3100 O   0  0  0  0  0  0  0  0  0  0  0  0
  -17.7880   81.4060   65.8170 N   0  0  0  0  0  0  0  0  0  0  0  0
  -18.7330   80.8890   64.9380 O   0  0  0  0  0  0  0  0  0  0  0  0
  -18.0860   82.8350   69.4290 C   0  0  0  0  0  0  0  0  0  0  0  0
  -17.2520   82.0260   70.4220 C   0  0  0  0  0  0  0  0  0  0  0  0
  -18.1510   81.4890   71.5380 C   0  0  0  0  0  0  0  0  0  0  0  0
  -17.5490   80.1600   71.9850 C   0  0  0  0  0  0  0  0  0  0  0  0
  -16.5180   79.7560   70.9430 C   0  0  0  0  0  0  0  0  0  0  0  0
  -16.6150   80.7840   69.8120 C   0  0  0  0  0  0  0  0  0  0  0  0
  -15.4815   87.0335   69.7109 H   0  0  0  0  0  0  0  0  0  0  0  0
  -17.4769   85.0236   70.8360 H   0  0  0  0  0  0  0  0  0  0  0  0
  -18.2643   86.6947   71.9988 H   0  0  0  0  0  0  0  0  0  0  0  0
  -18.0642   88.3063   71.2310 H   0  0  0  0  0  0  0  0  0  0  0  0
  -19.6718   87.5049   71.2310 H   0  0  0  0  0  0  0  0  0  0  0  0
  -17.6185   88.6891   69.4138 H   0  0  0  0  0  0  0  0  0  0  0  0
  -17.0578   87.4686   68.2210 H   0  0  0  0  0  0  0  0  0  0  0  0
  -18.7729   88.0026   68.2210 H   0  0  0  0  0  0  0  0  0  0  0  0
  -20.0934   85.6115   70.2293 H   0  0  0  0  0  0  0  0  0  0  0  0
  -20.1157   86.6329   68.7518 H   0  0  0  0  0  0  0  0  0  0  0  0
  -19.2254   85.0728   68.7518 H   0  0  0  0  0  0  0  0  0  0  0  0
  -13.7877   87.4016   70.7768 H   0  0  0  0  0  0  0  0  0  0  0  0
  -14.1107   85.2882   73.8040 H   0  0  0  0  0  0  0  0  0  0  0  0
  -12.3739   85.2957   75.5928 H   0  0  0  0  0  0  0  0  0  0  0  0
  -10.3581   86.7538   75.3764 H   0  0  0  0  0  0  0  0  0  0  0  0
  -10.0775   88.1822   73.3422 H   0  0  0  0  0  0  0  0  0  0  0  0
   -9.7250   88.2009   71.2735 H   0  0  0  0  0  0  0  0  0  0  0  0
  -10.5894   87.3490   69.9492 H   0  0  0  0  0  0  0  0  0  0  0  0
  -10.4905   89.1426   69.9492 H   0  0  0  0  0  0  0  0  0  0  0  0
  -16.1398   83.6444   66.7671 H   0  0  0  0  0  0  0  0  0  0  0  0
  -16.2749   82.0346   67.6220 H   0  0  0  0  0  0  0  0  0  0  0  0
  -16.9245   80.8712   65.9881 H   0  0  0  0  0  0  0  0  0  0  0  0
  -19.4750   80.4831   65.4525 H   0  0  0  0  0  0  0  0  0  0  0  0
  -18.7591   83.5084   69.9799 H   0  0  0  0  0  0  0  0  0  0  0  0
  -18.6791   82.1488   68.8067 H   0  0  0  0  0  0  0  0  0  0  0  0
  -16.4732   82.7198   70.7715 H   0  0  0  0  0  0  0  0  0  0  0  0
  -18.1742   82.1968   72.3797 H   0  0  0  0  0  0  0  0  0  0  0  0
  -19.1841   81.3563   71.1844 H   0  0  0  0  0  0  0  0  0  0  0  0
  -17.0661   80.2769   72.9664 H   0  0  0  0  0  0  0  0  0  0  0  0
  -18.3300   79.3910   72.0780 H   0  0  0  0  0  0  0  0  0  0  0  0
  -15.5094   79.7683   71.3819 H   0  0  0  0  0  0  0  0  0  0  0  0
  -16.7064   78.7379   70.5716 H   0  0  0  0  0  0  0  0  0  0  0  0
  -17.2418   80.3954   68.9959 H   0  0  0  0  0  0  0  0  0  0  0  0
  -15.6254   81.0079   69.3871 H   0  0  0  0  0  0  0  0  0  0  0  0
  1  3  2  0
  1  4  1  0
  1 20  1  0
  2  4  1  0
  2  9  1  0
  4  5  1  0
  5  6  1  0
  5  7  1  0
  5  8  1  0
  9 10  2  0
  9 11  1  0
 11 12  1  0
 12 13  2  0
 12 17  1  0
 13 14  1  0
 14 15  2  0
 15 16  1  0
 16 17  2  0
 17 18  1  0
 18 19  1  0
 20 21  1  0
 20 26  1  0
 21 22  1  0
 22 23  2  0
 22 24  1  0
 24 25  1  0
 26 27  1  0
 27 28  1  0
 27 31  1  0
 28 29  1  0
 29 30  1  0
 30 31  1  0
  2 32  1  0
  4 33  1  0
  6 34  1  0
  6 35  1  0
  6 36  1  0
  7 37  1  0
  7 38  1  0
  7 39  1  0
  8 40  1  0
  8 41  1  0
  8 42  1  0
 11 43  1  0
 13 44  1  0
 14 45  1  0
 15 46  1  0
 16 47  1  0
 19 48  1  0
 19 49  1  0
 19 50  1  0
 21 51  1  0
 21 52  1  0
 24 53  1  0
 25 54  1  0
 26 55  1  0
 26 56  1  0
 27 57  1  0
 28 58  1  0
 28 59  1  0
 29 60  1  0
 29 61  1  0
 30 62  1  0
 30 63  1  0
 31 64  1  0
 31 65  1  0
A    1
C
A    2
N
A    3
O
A    4
CA
A    5
CB
A    6
CAA
A    7
CAC
A    8
CAD
A    9
CAG
A   10
OAH
A   11
NAI
A   12
CAJ
A   13
CAK
A   14
CAL
A   15
CAM
A   16
CAN
A   17
CAP
A   18
OAP
A   19
CAQ
A   20
NAS
A   21
CAT
A   22
CAU
A   23
OAV
A   24
NAW
A   25
OAX
A   26
CAY
A   27
CAZ
A   28
CBA
A   29
CBB
A   30
CBC
A   31
CBD
M  END
