3U8F_FGM_A_3945
     RDKit          3D

 60 59  0  0  0  0  0  0  0  0999 V2000
  -11.1470   21.8580    8.7050 C   0  0  0  0  0  0  0  0  0  0  0  0
  -12.1970   20.7710    8.6490 C   0  0  0  0  0  0  0  0  0  0  0  0
  -12.6350   20.5070    7.2130 C   0  0  0  0  0  0  0  0  0  0  0  0
  -11.5870   21.0020    6.2230 C   0  0  0  0  0  0  0  0  0  0  0  0
  -11.9910   22.3450    5.6260 C   0  0  0  0  0  0  0  0  0  0  0  0
  -11.1930   22.6430    4.3620 C   0  0  0  0  0  0  0  0  0  0  0  0
   -9.7870   22.0620    4.4550 C   0  0  0  0  0  0  0  0  0  0  0  0
   -9.5310   21.0710    3.3260 C   0  0  0  0  0  0  0  0  0  0  0  0
   -9.1140   21.7910    2.0500 C   0  0  0  0  0  0  0  0  0  0  0  0
   -7.7120   21.3750    1.6210 C   0  0  0  0  0  0  0  0  0  0  0  0
   -6.7700   21.3160    2.8180 C   0  0  0  0  0  0  0  0  0  0  0  0
   -6.1880   20.0110    2.9040 O   0  0  0  0  0  0  0  0  0  0  0  0
   -5.6640   22.3580    2.6950 C   0  0  0  0  0  0  0  0  0  0  0  0
   -4.6110   22.1680    3.7790 C   0  0  0  0  0  0  0  0  0  0  0  0
   -5.1760   21.3860    4.9590 C   0  0  0  0  0  0  0  0  0  0  0  0
   -5.6390   22.3250    6.0660 C   0  0  0  0  0  0  0  0  0  0  0  0
   -6.5340   21.5970    7.0620 C   0  0  0  0  0  0  0  0  0  0  0  0
   -5.7330   21.1150    8.2650 C   0  0  0  0  0  0  0  0  0  0  0  0
   -6.4500   21.4490    9.5680 C   0  0  0  0  0  0  0  0  0  0  0  0
   -4.6760   22.4900    1.5980 C   0  0  0  0  0  0  0  0  0  0  0  0
   -5.1540   21.9580    0.5740 O   0  0  0  0  0  0  0  0  0  0  0  0
   -3.5410   23.0120    1.6290 O   0  0  0  0  0  0  0  0  0  0  0  0
  -10.9191   22.0939    9.7550 H   0  0  0  0  0  0  0  0  0  0  0  0
  -10.2331   21.5114    8.2004 H   0  0  0  0  0  0  0  0  0  0  0  0
  -11.5251   22.7593    8.2004 H   0  0  0  0  0  0  0  0  0  0  0  0
  -11.7799   19.8459    9.0735 H   0  0  0  0  0  0  0  0  0  0  0  0
  -13.0729   21.1002    9.2273 H   0  0  0  0  0  0  0  0  0  0  0  0
  -12.7789   19.4254    7.0738 H   0  0  0  0  0  0  0  0  0  0  0  0
  -13.5750   21.0476    7.0281 H   0  0  0  0  0  0  0  0  0  0  0  0
  -10.6248   21.1148    6.7441 H   0  0  0  0  0  0  0  0  0  0  0  0
  -11.5002   20.2681    5.4082 H   0  0  0  0  0  0  0  0  0  0  0  0
  -13.0623   22.3206    5.3777 H   0  0  0  0  0  0  0  0  0  0  0  0
  -11.7846   23.1333    6.3649 H   0  0  0  0  0  0  0  0  0  0  0  0
  -11.7091   22.1997    3.4977 H   0  0  0  0  0  0  0  0  0  0  0  0
  -11.1147   23.7340    4.2456 H   0  0  0  0  0  0  0  0  0  0  0  0
   -9.0545   22.8799    4.3889 H   0  0  0  0  0  0  0  0  0  0  0  0
   -9.6884   21.5337    5.4148 H   0  0  0  0  0  0  0  0  0  0  0  0
   -8.7291   20.3813    3.6280 H   0  0  0  0  0  0  0  0  0  0  0  0
  -10.4612   20.5183    3.1279 H   0  0  0  0  0  0  0  0  0  0  0  0
   -9.8243   21.5418    1.2479 H   0  0  0  0  0  0  0  0  0  0  0  0
   -9.1145   22.8740    2.2427 H   0  0  0  0  0  0  0  0  0  0  0  0
   -7.7594   20.3815    1.1511 H   0  0  0  0  0  0  0  0  0  0  0  0
   -7.3277   22.1199    0.9087 H   0  0  0  0  0  0  0  0  0  0  0  0
   -7.3503   21.5298    3.7277 H   0  0  0  0  0  0  0  0  0  0  0  0
   -6.0767   19.7614    3.8555 H   0  0  0  0  0  0  0  0  0  0  0  0
   -6.3893   23.1828    2.6351 H   0  0  0  0  0  0  0  0  0  0  0  0
   -3.7570   21.6169    3.3582 H   0  0  0  0  0  0  0  0  0  0  0  0
   -4.2927   23.1587    4.1356 H   0  0  0  0  0  0  0  0  0  0  0  0
   -6.0313   20.7854    4.6159 H   0  0  0  0  0  0  0  0  0  0  0  0
   -4.3841   20.7361    5.3596 H   0  0  0  0  0  0  0  0  0  0  0  0
   -4.7587   22.7191    6.5949 H   0  0  0  0  0  0  0  0  0  0  0  0
   -6.2150   23.1447    5.6117 H   0  0  0  0  0  0  0  0  0  0  0  0
   -7.3219   22.2832    7.4060 H   0  0  0  0  0  0  0  0  0  0  0  0
   -6.9759   20.7225    6.5620 H   0  0  0  0  0  0  0  0  0  0  0  0
   -5.6012   20.0251    8.1961 H   0  0  0  0  0  0  0  0  0  0  0  0
   -4.7569   21.6222    8.2621 H   0  0  0  0  0  0  0  0  0  0  0  0
   -5.8189   21.1550   10.4196 H   0  0  0  0  0  0  0  0  0  0  0  0
   -6.6450   22.5307    9.6124 H   0  0  0  0  0  0  0  0  0  0  0  0
   -7.4035   20.9024    9.6124 H   0  0  0  0  0  0  0  0  0  0  0  0
   -3.1107   23.2099    2.4984 H   0  0  0  0  0  0  0  0  0  0  0  0
  1  2  1  0
  2  3  1  0
  3  4  1  0
  4  5  1  0
  5  6  1  0
  6  7  1  0
  7  8  1  0
  8  9  1  0
  9 10  1  0
 10 11  1  0
 11 12  1  0
 11 13  1  0
 13 14  1  0
 13 20  1  0
 14 15  1  0
 15 16  1  0
 16 17  1  0
 17 18  1  0
 18 19  1  0
 20 21  2  0
 20 22  1  0
  1 23  1  0
  1 24  1  0
  1 25  1  0
  2 26  1  0
  2 27  1  0
  3 28  1  0
  3 29  1  0
  4 30  1  0
  4 31  1  0
  5 32  1  0
  5 33  1  0
  6 34  1  0
  6 35  1  0
  7 36  1  0
  7 37  1  0
  8 38  1  0
  8 39  1  0
  9 40  1  0
  9 41  1  0
 10 42  1  0
 10 43  1  0
 11 44  1  0
 12 45  1  0
 13 46  1  0
 14 47  1  0
 14 48  1  0
 15 49  1  0
 15 50  1  0
 16 51  1  0
 16 52  1  0
 17 53  1  0
 17 54  1  0
 18 55  1  0
 18 56  1  0
 19 57  1  0
 19 58  1  0
 19 59  1  0
 22 60  1  0
A    1
CBU
A    2
CBV
A    3
CBW
A    4
CBX
A    5
CBY
A    6
CBZ
A    7
CCA
A    8
CCB
A    9
CCC
A   10
CCD
A   11
CCE
A   12
OCF
A   13
CCG
A   14
CCH
A   15
CCI
A   16
CCJ
A   17
CCK
A   18
CCL
A   19
CCM
A   20
CCQ
A   21
OCR
A   22
OCS
M  END
