3U8K_09P_A_211
     RDKit          3D

 35 36  0  0  0  0  0  0  0  0999 V2000
   86.6930   73.0480  -11.1600 C   0  0  0  0  0  0  0  0  0  0  0  0
   85.7680   73.2550  -12.2950 N   0  0  0  0  0  0  0  0  0  0  0  0
   85.5720   72.1350  -13.2520 C   0  0  0  0  0  0  0  0  0  0  0  0
   84.7560   70.9770  -12.6430 C   0  0  0  0  0  0  0  0  0  0  0  0
   85.3070   70.4590  -11.3050 C   0  0  0  0  0  0  0  0  0  0  0  0
   84.9650   71.3970  -10.2220 N   0  0  0  0  0  0  0  0  0  0  0  0
   86.0170   72.4000   -9.9310 C   0  0  0  0  0  0  0  0  0  0  0  0
   81.4190   71.3480   -8.1490 C   0  0  0  0  0  0  0  0  0  0  0  0
   81.4940   70.5360   -9.2920 C   0  0  0  0  0  0  0  0  0  0  0  0
   82.7190   70.5510  -10.0070 C   0  0  0  0  0  0  0  0  0  0  0  0
   83.7910   71.3550   -9.5570 C   0  0  0  0  0  0  0  0  0  0  0  0
   83.5700   72.1210   -8.3930 C   0  0  0  0  0  0  0  0  0  0  0  0
   82.4150   72.1230   -7.7030 N   0  0  0  0  0  0  0  0  0  0  0  0
   80.3620   69.8160   -9.6520 O   0  0  0  0  0  0  0  0  0  0  0  0
   80.2580   69.2650  -10.9650 C   0  0  0  0  0  0  0  0  0  0  0  0
   80.1880   67.7460  -10.8330 C   0  0  0  0  0  0  0  0  0  0  0  0
   87.5129   72.3944  -11.4925 H   0  0  0  0  0  0  0  0  0  0  0  0
   87.0535   74.0395  -10.8485 H   0  0  0  0  0  0  0  0  0  0  0  0
   86.1200   74.0593  -12.8336 H   0  0  0  0  0  0  0  0  0  0  0  0
   86.5579   71.7518  -13.5539 H   0  0  0  0  0  0  0  0  0  0  0  0
   85.0097   72.5246  -14.1134 H   0  0  0  0  0  0  0  0  0  0  0  0
   83.7262   71.3278  -12.4803 H   0  0  0  0  0  0  0  0  0  0  0  0
   84.8113   70.1403  -13.3549 H   0  0  0  0  0  0  0  0  0  0  0  0
   84.8673   69.4746  -11.0867 H   0  0  0  0  0  0  0  0  0  0  0  0
   86.4013   70.3718  -11.3748 H   0  0  0  0  0  0  0  0  0  0  0  0
   86.8000   71.9043   -9.3385 H   0  0  0  0  0  0  0  0  0  0  0  0
   85.5071   73.2209   -9.4056 H   0  0  0  0  0  0  0  0  0  0  0  0
   80.4770   71.3472   -7.5810 H   0  0  0  0  0  0  0  0  0  0  0  0
   82.8348   69.9367  -10.9121 H   0  0  0  0  0  0  0  0  0  0  0  0
   84.3915   72.7548   -8.0276 H   0  0  0  0  0  0  0  0  0  0  0  0
   81.1389   69.5481  -11.5598 H   0  0  0  0  0  0  0  0  0  0  0  0
   79.3589   69.6472  -11.4705 H   0  0  0  0  0  0  0  0  0  0  0  0
   80.1753   67.4707   -9.7681 H   0  0  0  0  0  0  0  0  0  0  0  0
   79.2719   67.3776  -11.3179 H   0  0  0  0  0  0  0  0  0  0  0  0
   81.0663   67.2949  -11.3179 H   0  0  0  0  0  0  0  0  0  0  0  0
  3  4  1  0
  3  2  1  0
  4  5  1  0
  2  1  1  0
  5  6  1  0
  1  7  1  0
 15 16  1  0
 15 14  1  0
  6  7  1  0
  6 11  1  0
 10 11  2  0
 10  9  1  0
 14  9  1  0
 11 12  1  0
  9  8  2  0
 12 13  2  0
  8 13  1  0
  1 17  1  0
  1 18  1  0
  2 19  1  0
  3 20  1  0
  3 21  1  0
  4 22  1  0
  4 23  1  0
  5 24  1  0
  5 25  1  0
  7 26  1  0
  7 27  1  0
  8 28  1  0
 10 29  1  0
 12 30  1  0
 15 31  1  0
 15 32  1  0
 16 33  1  0
 16 34  1  0
 16 35  1  0
A    1
C1
A    2
N1
A    3
C2
A    4
C3
A    5
C4
A    6
N2
A    7
C5
A    8
C6
A    9
C7
A   10
C8
A   11
C9
A   12
C10
A   13
N3
A   14
O1
A   15
C11
A   16
C12
M  END
