3U8Q_NPU_A_7231
     RDKit          3D

 24 24  0  0  0  0  0  0  0  0999 V2000
   14.3680   16.5560   16.0750 O   0  0  0  0  0  0  0  0  0  0  0  0
   10.8700   15.2460   16.0010 C   0  0  0  0  0  0  0  0  0  0  0  0
   11.8810   17.0890   17.1880 N   0  0  0  0  0  0  0  0  0  0  0  0
   11.9640   16.2900   15.9800 C   0  0  0  0  0  0  0  0  0  0  0  0
   13.3630   15.6210   15.9240 C   0  0  0  0  0  0  0  0  0  0  0  0
   13.5460   14.7810   13.3890 C   0  0  0  0  0  0  0  0  0  0  0  0
   14.5870   13.5290   15.1400 C   0  0  0  0  0  0  0  0  0  0  0  0
   13.9930   13.8630   12.4200 C   0  0  0  0  0  0  0  0  0  0  0  0
   15.0640   12.5860   14.2110 C   0  0  0  0  0  0  0  0  0  0  0  0
   13.8020   14.6510   14.7910 C   0  0  0  0  0  0  0  0  0  0  0  0
   14.7620   12.7550   12.8530 C   0  0  0  0  0  0  0  0  0  0  0  0
   14.5334   16.7099   17.0389 H   0  0  0  0  0  0  0  0  0  0  0  0
   10.6152   15.0028   17.0431 H   0  0  0  0  0  0  0  0  0  0  0  0
    9.9795   15.6377   15.4876 H   0  0  0  0  0  0  0  0  0  0  0  0
   11.2196   14.3382   15.4876 H   0  0  0  0  0  0  0  0  0  0  0  0
   11.9449   16.4738   18.0116 H   0  0  0  0  0  0  0  0  0  0  0  0
   12.6561   17.7671   17.2050 H   0  0  0  0  0  0  0  0  0  0  0  0
   11.8307   16.9186   15.0872 H   0  0  0  0  0  0  0  0  0  0  0  0
   13.2071   14.9254   16.7618 H   0  0  0  0  0  0  0  0  0  0  0  0
   12.9650   15.6506   13.0481 H   0  0  0  0  0  0  0  0  0  0  0  0
   14.8401   13.3843   16.2007 H   0  0  0  0  0  0  0  0  0  0  0  0
   13.7518   14.0022   11.3558 H   0  0  0  0  0  0  0  0  0  0  0  0
   15.6655   11.7281   14.5460 H   0  0  0  0  0  0  0  0  0  0  0  0
   15.1249   12.0217   12.1178 H   0  0  0  0  0  0  0  0  0  0  0  0
  1  5  1  0
  2  4  1  0
  3  4  1  0
  4  5  1  0
  5 10  1  0
  6  8  2  0
  6 10  1  0
  7  9  1  0
  7 10  2  0
  8 11  1  0
  9 11  2  0
  1 12  1  0
  2 13  1  0
  2 14  1  0
  2 15  1  0
  3 16  1  0
  3 17  1  0
  4 18  1  0
  5 19  1  0
  6 20  1  0
  7 21  1  0
  8 22  1  0
  9 23  1  0
 11 24  1  0
A    1
O1
A    2
C2
A    3
N2
A    4
CA2
A    5
CB2
A    6
CD3
A    7
CD4
A    8
CE3
A    9
CE4
A   10
CG2
A   11
CZ2
M  END
