3U8W_09J_A_500
     RDKit          3D

 54 58  0  0  0  0  0  0  0  0999 V2000
    7.7050  -25.2730  -25.8720 C   0  0  0  0  0  0  0  0  0  0  0  0
    6.5200  -25.8870  -25.1300 C   0  0  0  0  0  0  0  0  0  0  0  0
    6.3280  -25.3300  -26.5450 C   0  0  0  0  0  0  0  0  0  0  0  0
    6.1540  -26.3110  -27.6450 N   0  0  0  0  0  0  0  0  0  0  0  0
    5.1370  -27.1850  -27.7210 C   0  0  0  0  0  0  0  0  0  0  0  0
    4.2480  -27.2820  -26.8780 O   0  0  0  0  0  0  0  0  0  0  0  0
    5.1110  -28.1080  -28.9590 C   0  0  0  0  0  0  0  0  0  0  0  0
    3.9240  -28.7730  -29.2710 C   0  0  0  0  0  0  0  0  0  0  0  0
    6.2260  -28.2920  -29.7800 C   0  0  0  0  0  0  0  0  0  0  0  0
    6.1420  -29.1360  -30.8900 C   0  0  0  0  0  0  0  0  0  0  0  0
    4.9500  -29.8000  -31.1960 C   0  0  0  0  0  0  0  0  0  0  0  0
    4.9240  -30.7060  -32.4300 C   0  0  0  0  0  0  0  0  0  0  0  0
    3.8220  -29.6210  -30.3770 C   0  0  0  0  0  0  0  0  0  0  0  0
    2.5700  -30.2300  -30.5780 C   0  0  0  0  0  0  0  0  0  0  0  0
    2.2640  -31.4420  -29.9660 C   0  0  0  0  0  0  0  0  0  0  0  0
    1.5720  -29.6230  -31.3480 C   0  0  0  0  0  0  0  0  0  0  0  0
    1.8110  -28.5430  -31.8930 O   0  0  0  0  0  0  0  0  0  0  0  0
    0.2910  -30.2580  -31.5150 N   0  0  0  0  0  0  0  0  0  0  0  0
   -0.7270  -29.5650  -32.3570 C   0  0  0  0  0  0  0  0  0  0  0  0
   -0.5780  -29.9310  -33.8380 C   0  0  0  0  0  0  0  0  0  0  0  0
    0.0330  -31.3510  -30.9630 N   0  0  0  0  0  0  0  0  0  0  0  0
    0.9990  -32.0000  -30.1670 C   0  0  0  0  0  0  0  0  0  0  0  0
    0.4540  -33.1340  -29.7200 N   0  0  0  0  0  0  0  0  0  0  0  0
   -0.7020  -33.2690  -30.1310 N   0  0  0  0  0  0  0  0  0  0  0  0
   -1.0690  -32.2430  -30.8930 C   0  0  0  0  0  0  0  0  0  0  0  0
   -2.3270  -32.1000  -31.5010 C   0  0  0  0  0  0  0  0  0  0  0  0
   -3.3680  -31.4210  -30.8510 C   0  0  0  0  0  0  0  0  0  0  0  0
   -3.1410  -30.7060  -29.2930 Cl  0  0  0  0  0  0  0  0  0  0  0  0
   -4.6190  -31.2880  -31.4600 C   0  0  0  0  0  0  0  0  0  0  0  0
   -4.8510  -31.8420  -32.7150 C   0  0  0  0  0  0  0  0  0  0  0  0
   -3.8240  -32.5250  -33.3630 C   0  0  0  0  0  0  0  0  0  0  0  0
   -2.5760  -32.6570  -32.7550 C   0  0  0  0  0  0  0  0  0  0  0  0
   -1.5960  -33.3120  -33.3940 F   0  0  0  0  0  0  0  0  0  0  0  0
    8.5206  -25.9166  -26.2334 H   0  0  0  0  0  0  0  0  0  0  0  0
    8.4306  -24.4758  -25.6530 H   0  0  0  0  0  0  0  0  0  0  0  0
    6.0797  -25.3632  -24.2688 H   0  0  0  0  0  0  0  0  0  0  0  0
    6.3250  -26.8536  -24.6426 H   0  0  0  0  0  0  0  0  0  0  0  0
    5.6532  -24.5946  -27.0074 H   0  0  0  0  0  0  0  0  0  0  0  0
    6.8573  -26.3223  -28.3974 H   0  0  0  0  0  0  0  0  0  0  0  0
    3.0439  -28.6253  -28.6279 H   0  0  0  0  0  0  0  0  0  0  0  0
    7.1689  -27.7730  -29.5528 H   0  0  0  0  0  0  0  0  0  0  0  0
    7.0242  -29.2800  -31.5311 H   0  0  0  0  0  0  0  0  0  0  0  0
    4.8938  -31.7585  -32.1116 H   0  0  0  0  0  0  0  0  0  0  0  0
    4.0320  -30.4795  -33.0325 H   0  0  0  0  0  0  0  0  0  0  0  0
    5.8275  -30.5310  -33.0325 H   0  0  0  0  0  0  0  0  0  0  0  0
    3.0060  -31.9523  -29.3343 H   0  0  0  0  0  0  0  0  0  0  0  0
   -0.6037  -28.4778  -32.2438 H   0  0  0  0  0  0  0  0  0  0  0  0
   -1.7251  -29.8841  -32.0225 H   0  0  0  0  0  0  0  0  0  0  0  0
   -0.1645  -30.9466  -33.9249 H   0  0  0  0  0  0  0  0  0  0  0  0
   -1.5631  -29.8932  -34.3260 H   0  0  0  0  0  0  0  0  0  0  0  0
    0.1006  -29.2159  -34.3260 H   0  0  0  0  0  0  0  0  0  0  0  0
   -5.4237  -30.7429  -30.9448 H   0  0  0  0  0  0  0  0  0  0  0  0
   -5.8372  -31.7416  -33.1917 H   0  0  0  0  0  0  0  0  0  0  0  0
   -3.9982  -32.9616  -34.3575 H   0  0  0  0  0  0  0  0  0  0  0  0
 20 19  1  0
 33 32  1  0
 31 32  2  0
 31 30  1  0
 32 26  1  0
 30 29  2  0
 12 11  1  0
 19 18  1  0
 17 16  2  0
 18 16  1  0
 18 21  1  0
 26 25  1  0
 26 27  2  0
 29 27  1  0
 16 14  1  0
 11 10  2  0
 11 13  1  0
 21 25  1  0
 21 22  1  0
 25 24  2  0
 10  9  1  0
 27 28  1  0
 14 13  1  0
 14 15  2  0
 13  8  2  0
 22 15  1  0
 22 23  2  0
 24 23  1  0
  9  7  2  0
  8  7  1  0
  7  5  1  0
  5  4  1  0
  5  6  2  0
  4  3  1  0
  3  1  1  0
  3  2  1  0
  1  2  1  0
  1 34  1  0
  1 35  1  0
  2 36  1  0
  2 37  1  0
  3 38  1  0
  4 39  1  0
  8 40  1  0
  9 41  1  0
 10 42  1  0
 12 43  1  0
 12 44  1  0
 12 45  1  0
 15 46  1  0
 19 47  1  0
 19 48  1  0
 20 49  1  0
 20 50  1  0
 20 51  1  0
 29 52  1  0
 30 53  1  0
 31 54  1  0
A    1
C23
A    2
C24
A    3
C22
A    4
N5
A    5
C21
A    6
O2
A    7
C11
A    8
C10
A    9
C12
A   10
C13
A   11
C14
A   12
C20
A   13
C9
A   14
C4
A   15
C5
A   16
C3
A   17
O1
A   18
N4
A   19
C7
A   20
C8
A   21
N3
A   22
C1
A   23
N1
A   24
N2
A   25
C2
A   26
C6
A   27
C15
A   28
CL1
A   29
C16
A   30
C17
A   31
C18
A   32
C19
A   33
F1
M  END
