3UDD_34M_A_1
     RDKit          3D

 48 51  0  0  0  0  0  0  0  0999 V2000
  -23.9700   -3.1720   10.6020 S   0  0  0  0  0  0  0  0  0  0  0  0
  -24.0280   -3.6140   12.3730 C   0  0  0  0  0  0  0  0  0  0  0  0
  -23.3060   -2.6320   13.2250 C   0  0  0  0  0  0  0  0  0  0  0  0
  -22.6890   -1.5880   12.9300 N   0  0  0  0  0  0  0  0  0  0  0  0
  -22.1330   -1.0080   14.0980 C   0  0  0  0  0  0  0  0  0  0  0  0
  -22.5120   -1.6960   15.1040 N   0  0  0  0  0  0  0  0  0  0  0  0
  -23.2660   -2.7610   14.5660 O   0  0  0  0  0  0  0  0  0  0  0  0
  -21.3910    0.2990   14.1490 C   0  0  0  0  0  0  0  0  0  0  0  0
  -20.8700    0.7460   15.3700 C   0  0  0  0  0  0  0  0  0  0  0  0
  -20.2360    1.9990   15.4360 C   0  0  0  0  0  0  0  0  0  0  0  0
  -20.1890    2.8280   14.3000 C   0  0  0  0  0  0  0  0  0  0  0  0
  -20.7500    2.3710   13.0800 C   0  0  0  0  0  0  0  0  0  0  0  0
  -21.3850    1.1230   13.0090 C   0  0  0  0  0  0  0  0  0  0  0  0
  -19.5310    4.0720   14.4280 O   0  0  0  0  0  0  0  0  0  0  0  0
  -19.5260    5.0570   13.3690 C   0  0  0  0  0  0  0  0  0  0  0  0
  -24.8900   -4.5650   10.0290 C   0  0  0  0  0  0  0  0  0  0  0  0
  -25.0700   -4.8720    8.7550 N   0  0  0  0  0  0  0  0  0  0  0  0
  -25.7690   -5.9780    8.7820 C   0  0  0  0  0  0  0  0  0  0  0  0
  -25.9920   -6.4060    9.9520 N   0  0  0  0  0  0  0  0  0  0  0  0
  -25.3740   -5.4420   10.8030 N   0  0  0  0  0  0  0  0  0  0  0  0
  -26.2870   -6.7560    7.5960 C   0  0  0  0  0  0  0  0  0  0  0  0
  -24.6530   -4.1600    7.6690 C   0  0  0  0  0  0  0  0  0  0  0  0
  -23.6900   -4.6820    6.7770 C   0  0  0  0  0  0  0  0  0  0  0  0
  -23.2590   -3.9210    5.6810 C   0  0  0  0  0  0  0  0  0  0  0  0
  -23.7880   -2.6340    5.4560 C   0  0  0  0  0  0  0  0  0  0  0  0
  -24.7470   -2.1060    6.3580 C   0  0  0  0  0  0  0  0  0  0  0  0
  -25.1940   -2.8800    7.4380 C   0  0  0  0  0  0  0  0  0  0  0  0
  -23.2710   -1.9070    4.3830 O   0  0  0  0  0  0  0  0  0  0  0  0
  -23.4980   -0.5030    4.1560 C   0  0  0  0  0  0  0  0  0  0  0  0
  -25.0796   -3.6539   12.6931 H   0  0  0  0  0  0  0  0  0  0  0  0
  -23.5338   -4.5895   12.4922 H   0  0  0  0  0  0  0  0  0  0  0  0
  -20.9563    0.1209   16.2710 H   0  0  0  0  0  0  0  0  0  0  0  0
  -19.7756    2.3321   16.3778 H   0  0  0  0  0  0  0  0  0  0  0  0
  -20.6863    3.0017   12.1810 H   0  0  0  0  0  0  0  0  0  0  0  0
  -21.8700    0.7940   12.0781 H   0  0  0  0  0  0  0  0  0  0  0  0
  -19.5209    6.0661   13.8068 H   0  0  0  0  0  0  0  0  0  0  0  0
  -18.6285    4.9225   12.7474 H   0  0  0  0  0  0  0  0  0  0  0  0
  -20.4248    4.9316   12.7474 H   0  0  0  0  0  0  0  0  0  0  0  0
  -26.8642   -7.6229    7.9499 H   0  0  0  0  0  0  0  0  0  0  0  0
  -26.9347   -6.1082    6.9870 H   0  0  0  0  0  0  0  0  0  0  0  0
  -25.4395   -7.1037    6.9870 H   0  0  0  0  0  0  0  0  0  0  0  0
  -23.2772   -5.6881    6.9426 H   0  0  0  0  0  0  0  0  0  0  0  0
  -22.5043   -4.3304    4.9934 H   0  0  0  0  0  0  0  0  0  0  0  0
  -25.1399   -1.0893    6.2101 H   0  0  0  0  0  0  0  0  0  0  0  0
  -25.9715   -2.4856    8.1088 H   0  0  0  0  0  0  0  0  0  0  0  0
  -23.5819    0.0158    5.1223 H   0  0  0  0  0  0  0  0  0  0  0  0
  -22.6561   -0.0829    3.5861 H   0  0  0  0  0  0  0  0  0  0  0  0
  -24.4294   -0.3696    3.5861 H   0  0  0  0  0  0  0  0  0  0  0  0
  1  2  1  0
  1 16  1  0
  2  3  1  0
  3  4  2  0
  3  7  1  0
  4  5  1  0
  5  6  2  0
  5  8  1  0
  6  7  1  0
  8  9  2  0
  8 13  1  0
  9 10  1  0
 10 11  2  0
 11 12  1  0
 11 14  1  0
 12 13  2  0
 14 15  1  0
 16 17  1  0
 16 20  2  0
 17 18  1  0
 17 22  1  0
 18 19  2  0
 18 21  1  0
 19 20  1  0
 22 23  2  0
 22 27  1  0
 23 24  1  0
 24 25  2  0
 25 26  1  0
 25 28  1  0
 26 27  2  0
 28 29  1  0
  2 30  1  0
  2 31  1  0
  9 32  1  0
 10 33  1  0
 12 34  1  0
 13 35  1  0
 15 36  1  0
 15 37  1  0
 15 38  1  0
 21 39  1  0
 21 40  1  0
 21 41  1  0
 23 42  1  0
 24 43  1  0
 26 44  1  0
 27 45  1  0
 29 46  1  0
 29 47  1  0
 29 48  1  0
A    1
S1
A    2
C2
A    3
C5
A    4
N6
A    5
C7
A    6
N8
A    7
O9
A    8
C10
A    9
C11
A   10
C13
A   11
C15
A   12
C16
A   13
C18
A   14
O20
A   15
C21
A   16
C25
A   17
N26
A   18
C27
A   19
N28
A   20
N29
A   21
C30
A   22
C34
A   23
C35
A   24
C37
A   25
C39
A   26
C40
A   27
C42
A   28
O44
A   29
C45
M  END
