3UDQ_09E_A_4000
     RDKit          3D

 49 53  0  0  0  0  0  0  0  0999 V2000
   24.3670   37.4750   41.4680 C   0  0  0  0  0  0  0  0  0  0  0  0
   22.9980   36.9410   41.8140 C   0  0  0  0  0  0  0  0  0  0  0  0
   24.9240   37.8430   40.2350 C   0  0  0  0  0  0  0  0  0  0  0  0
   21.8760   37.9320   41.4500 C   0  0  0  0  0  0  0  0  0  0  0  0
   26.2620   38.2890   40.2370 C   0  0  0  0  0  0  0  0  0  0  0  0
   26.4660   38.0000   42.6660 C   0  0  0  0  0  0  0  0  0  0  0  0
   20.8790   37.0920   40.6400 C   0  0  0  0  0  0  0  0  0  0  0  0
   27.0260   38.3350   41.4180 C   0  0  0  0  0  0  0  0  0  0  0  0
   19.7090   36.5690   41.5090 C   0  0  0  0  0  0  0  0  0  0  0  0
   21.6010   35.8980   40.1160 N   0  0  0  0  0  0  0  0  0  0  0  0
   19.1400   35.4790   41.4360 O   0  0  0  0  0  0  0  0  0  0  0  0
   22.6360   35.5840   41.1250 C   0  0  0  0  0  0  0  0  0  0  0  0
   23.0890   36.7320   43.3520 C   0  0  0  0  0  0  0  0  0  0  0  0
   22.2250   36.3400   44.1200 O   0  0  0  0  0  0  0  0  0  0  0  0
   24.3660   37.1350   43.7750 N   0  0  0  0  0  0  0  0  0  0  0  0
   25.1380   37.5710   42.6740 C   0  0  0  0  0  0  0  0  0  0  0  0
   18.2430   37.2200   43.2990 C   0  0  0  0  0  0  0  0  0  0  0  0
   18.8670   36.3770   44.4610 C   0  0  0  0  0  0  0  0  0  0  0  0
   19.3020   37.5150   42.4110 O   0  0  0  0  0  0  0  0  0  0  0  0
   17.8140   36.1880   45.5430 C   0  0  0  0  0  0  0  0  0  0  0  0
   17.5350   37.6430   46.3770 S   0  0  0  0  0  0  0  0  0  0  0  0
   17.3980   38.8030   45.1300 C   0  0  0  0  0  0  0  0  0  0  0  0
   17.6980   38.5690   43.7420 C   0  0  0  0  0  0  0  0  0  0  0  0
   17.4980   39.5700   42.7630 C   0  0  0  0  0  0  0  0  0  0  0  0
   17.0010   40.7980   43.1610 C   0  0  0  0  0  0  0  0  0  0  0  0
   16.6950   41.0910   44.5120 C   0  0  0  0  0  0  0  0  0  0  0  0
   16.8740   40.0980   45.4850 C   0  0  0  0  0  0  0  0  0  0  0  0
   16.7100   42.1160   41.8080 Br  0  0  0  0  0  0  0  0  0  0  0  0
   16.2540   37.5430   46.9760 O   0  0  0  0  0  0  0  0  0  0  0  0
   18.6700   37.8890   47.1990 O   0  0  0  0  0  0  0  0  0  0  0  0
   24.3411   37.7862   39.3039 H   0  0  0  0  0  0  0  0  0  0  0  0
   22.2697   38.7615   40.8442 H   0  0  0  0  0  0  0  0  0  0  0  0
   21.4161   38.3918   42.3372 H   0  0  0  0  0  0  0  0  0  0  0  0
   26.7207   38.6095   39.2900 H   0  0  0  0  0  0  0  0  0  0  0  0
   27.0505   38.0734   43.5950 H   0  0  0  0  0  0  0  0  0  0  0  0
   20.4702   37.7310   39.8434 H   0  0  0  0  0  0  0  0  0  0  0  0
   28.0819   38.6388   41.3652 H   0  0  0  0  0  0  0  0  0  0  0  0
   20.9527   35.1050   40.0072 H   0  0  0  0  0  0  0  0  0  0  0  0
   22.2428   34.8727   41.8663 H   0  0  0  0  0  0  0  0  0  0  0  0
   23.5198   35.1204   40.6624 H   0  0  0  0  0  0  0  0  0  0  0  0
   24.6943   37.1156   44.7511 H   0  0  0  0  0  0  0  0  0  0  0  0
   17.4141   36.6351   42.8736 H   0  0  0  0  0  0  0  0  0  0  0  0
   19.1850   35.3961   44.0779 H   0  0  0  0  0  0  0  0  0  0  0  0
   19.7425   36.8984   44.8755 H   0  0  0  0  0  0  0  0  0  0  0  0
   16.8751   35.8537   45.0776 H   0  0  0  0  0  0  0  0  0  0  0  0
   18.1763   35.4358   46.2591 H   0  0  0  0  0  0  0  0  0  0  0  0
   17.7330   39.3758   41.7061 H   0  0  0  0  0  0  0  0  0  0  0  0
   16.3212   42.0862   44.7947 H   0  0  0  0  0  0  0  0  0  0  0  0
   16.6114   40.3096   46.5320 H   0  0  0  0  0  0  0  0  0  0  0  0
 10  7  1  0
 10 12  1  0
  3  5  2  0
  3  1  1  0
  5  8  1  0
  7  4  1  0
  7  9  1  0
 12  2  1  0
  8  6  2  0
 11  9  2  0
  4  2  1  0
  1  2  1  0
  1 16  2  0
  9 19  1  0
 28 25  1  0
  2 13  1  0
 19 17  1  0
  6 16  1  0
 16 15  1  0
 24 25  2  0
 24 23  1  0
 25 26  1  0
 17 23  1  0
 17 18  1  0
 13 15  1  0
 13 14  2  0
 23 22  2  0
 18 20  1  0
 26 27  2  0
 22 27  1  0
 22 21  1  0
 20 21  1  0
 21 29  2  0
 21 30  2  0
  3 31  1  0
  4 32  1  0
  4 33  1  0
  5 34  1  0
  6 35  1  0
  7 36  1  0
  8 37  1  0
 10 38  1  0
 12 39  1  0
 12 40  1  0
 15 41  1  0
 17 42  1  0
 18 43  1  0
 18 44  1  0
 20 45  1  0
 20 46  1  0
 24 47  1  0
 26 48  1  0
 27 49  1  0
A    1
C1
A    2
C2
A    3
C3
A    4
C4
A    5
C5
A    6
C6
A    7
C7
A    8
C8
A    9
C9
A   10
N1
A   11
O1
A   12
C10
A   13
C11
A   14
O2
A   15
N2
A   16
C12
A   17
C13
A   18
C14
A   19
O3
A   20
C15
A   21
S1
A   22
C16
A   23
C17
A   24
C18
A   25
C19
A   26
C20
A   27
C21
A   28
BR1
A   29
O4
A   30
O5
M  END
