1E7I_STE_A_1001
     RDKit          3D

 41 40  0  0  0  0  0  0  0  0999 V2000
   30.0760   12.6060   36.4080 C   0  0  0  0  0  0  0  0  0  0  0  0
   29.1030   11.8500   36.6210 O   0  0  0  0  0  0  0  0  0  0  0  0
   29.9530   13.7550   35.9260 O   0  0  0  0  0  0  0  0  0  0  0  0
   31.4730   12.0990   36.7550 C   0  0  0  0  0  0  0  0  0  0  0  0
   31.7100   12.2140   38.2640 C   0  0  0  0  0  0  0  0  0  0  0  0
   33.1810   12.5480   38.4110 C   0  0  0  0  0  0  0  0  0  0  0  0
   33.4270   14.0550   38.4450 C   0  0  0  0  0  0  0  0  0  0  0  0
   34.3250   14.4640   37.2910 C   0  0  0  0  0  0  0  0  0  0  0  0
   34.5670   15.9680   37.2310 C   0  0  0  0  0  0  0  0  0  0  0  0
   35.8970   16.2820   36.5530 C   0  0  0  0  0  0  0  0  0  0  0  0
   35.7980   16.1690   35.0410 C   0  0  0  0  0  0  0  0  0  0  0  0
   36.7430   15.1340   34.4620 C   0  0  0  0  0  0  0  0  0  0  0  0
   37.6950   15.7830   33.4610 C   0  0  0  0  0  0  0  0  0  0  0  0
   37.4980   15.3630   31.9810 C   0  0  0  0  0  0  0  0  0  0  0  0
   36.1160   14.8220   31.5850 C   0  0  0  0  0  0  0  0  0  0  0  0
   29.8692   14.5374   36.5267 H   0  0  0  0  0  0  0  0  0  0  0  0
   31.5648   11.0459   36.4507 H   0  0  0  0  0  0  0  0  0  0  0  0
   32.2207   12.7063   36.2239 H   0  0  0  0  0  0  0  0  0  0  0  0
   31.0882   13.0139   38.6923 H   0  0  0  0  0  0  0  0  0  0  0  0
   31.4439   11.2874   38.7937 H   0  0  0  0  0  0  0  0  0  0  0  0
   33.5532   12.1066   39.3473 H   0  0  0  0  0  0  0  0  0  0  0  0
   33.7105   12.1378   37.5384 H   0  0  0  0  0  0  0  0  0  0  0  0
   32.4653   14.5825   38.3621 H   0  0  0  0  0  0  0  0  0  0  0  0
   33.9180   14.3180   39.3936 H   0  0  0  0  0  0  0  0  0  0  0  0
   35.2945   13.9568   37.4041 H   0  0  0  0  0  0  0  0  0  0  0  0
   33.8173   14.1742   36.3592 H   0  0  0  0  0  0  0  0  0  0  0  0
   33.7529   16.4408   36.6620 H   0  0  0  0  0  0  0  0  0  0  0  0
   34.5971   16.3590   38.2587 H   0  0  0  0  0  0  0  0  0  0  0  0
   36.1972   17.3073   36.8149 H   0  0  0  0  0  0  0  0  0  0  0  0
   36.6411   15.5515   36.9033 H   0  0  0  0  0  0  0  0  0  0  0  0
   34.7674   15.8896   34.7769 H   0  0  0  0  0  0  0  0  0  0  0  0
   36.0794   17.1449   34.6186 H   0  0  0  0  0  0  0  0  0  0  0  0
   37.3273   14.6809   35.2765 H   0  0  0  0  0  0  0  0  0  0  0  0
   36.1535   14.3625   33.9449 H   0  0  0  0  0  0  0  0  0  0  0  0
   37.5614   16.8730   33.5243 H   0  0  0  0  0  0  0  0  0  0  0  0
   38.7031   15.4421   33.7393 H   0  0  0  0  0  0  0  0  0  0  0  0
   37.6997   16.2457   31.3564 H   0  0  0  0  0  0  0  0  0  0  0  0
   38.1876   14.5193   31.8305 H   0  0  0  0  0  0  0  0  0  0  0  0
   35.5371   14.5954   32.4925 H   0  0  0  0  0  0  0  0  0  0  0  0
   35.5832   15.5779   30.9895 H   0  0  0  0  0  0  0  0  0  0  0  0
   36.2380   13.9052   30.9895 H   0  0  0  0  0  0  0  0  0  0  0  0
  1  2  2  0
  1  3  1  0
  1  4  1  0
  4  5  1  0
  5  6  1  0
  6  7  1  0
  7  8  1  0
  8  9  1  0
  9 10  1  0
 10 11  1  0
 11 12  1  0
 12 13  1  0
 13 14  1  0
 14 15  1  0
  3 16  1  0
  4 17  1  0
  4 18  1  0
  5 19  1  0
  5 20  1  0
  6 21  1  0
  6 22  1  0
  7 23  1  0
  7 24  1  0
  8 25  1  0
  8 26  1  0
  9 27  1  0
  9 28  1  0
 10 29  1  0
 10 30  1  0
 11 31  1  0
 11 32  1  0
 12 33  1  0
 12 34  1  0
 13 35  1  0
 13 36  1  0
 14 37  1  0
 14 38  1  0
 15 39  1  0
 15 40  1  0
 15 41  1  0
A    1
C1
A    2
O1
A    3
O2
A    4
C2
A    5
C3
A    6
C4
A    7
C5
A    8
C6
A    9
C7
A   10
C8
A   11
C9
A   12
C10
A   13
C11
A   14
C12
A   15
C13
M  END
