3UFQ_HW5_A_800
     RDKit          3D

 55 57  0  0  0  0  0  0  0  0999 V2000
   -0.8100    3.8910   27.8270 F   0  0  0  0  0  0  0  0  0  0  0  0
    0.4870    4.2330   27.6360 C   0  0  0  0  0  0  0  0  0  0  0  0
    1.5190    3.3300   27.9440 C   0  0  0  0  0  0  0  0  0  0  0  0
    2.8640    3.6890   27.7390 C   0  0  0  0  0  0  0  0  0  0  0  0
    3.1710    4.9580   27.2280 C   0  0  0  0  0  0  0  0  0  0  0  0
    2.1440    5.8590   26.9200 C   0  0  0  0  0  0  0  0  0  0  0  0
    0.8070    5.5000   27.1270 C   0  0  0  0  0  0  0  0  0  0  0  0
    3.9490    2.7200   28.0670 C   0  0  0  0  0  0  0  0  0  0  0  0
    5.2390    3.0210   27.8760 C   0  0  0  0  0  0  0  0  0  0  0  0
    5.9650    2.3480   26.7240 C   0  0  0  0  0  0  0  0  0  0  0  0
    6.7630    3.3080   25.8380 C   0  0  0  0  0  0  0  0  0  0  0  0
    7.3420    2.5440   24.6520 C   0  0  0  0  0  0  0  0  0  0  0  0
    8.4730    1.7830   25.0790 O   0  0  0  0  0  0  0  0  0  0  0  0
    8.6060    0.5080   24.4380 C   0  0  0  0  0  0  0  0  0  0  0  0
    9.9700    0.3840   23.7560 C   0  0  0  0  0  0  0  0  0  0  0  0
   10.3120   -1.1010   23.8470 C   0  0  0  0  0  0  0  0  0  0  0  0
    9.6310   -1.5400   25.0660 N   0  0  0  0  0  0  0  0  0  0  0  0
    8.5210   -0.6700   25.4320 C   0  0  0  0  0  0  0  0  0  0  0  0
   11.0560    1.2500   24.4140 C   0  0  0  0  0  0  0  0  0  0  0  0
   12.4020    1.1180   23.7090 C   0  0  0  0  0  0  0  0  0  0  0  0
   12.6590    1.9020   22.5910 C   0  0  0  0  0  0  0  0  0  0  0  0
   13.8680    1.8050   21.9070 C   0  0  0  0  0  0  0  0  0  0  0  0
   14.0830    2.6640   20.6870 C   0  0  0  0  0  0  0  0  0  0  0  0
   14.8350    0.9120   22.3580 C   0  0  0  0  0  0  0  0  0  0  0  0
   14.5630    0.1480   23.4930 C   0  0  0  0  0  0  0  0  0  0  0  0
   13.3630    0.2340   24.1260 N   0  0  0  0  0  0  0  0  0  0  0  0
   15.4830   -0.7300   23.9470 N   0  0  0  0  0  0  0  0  0  0  0  0
    1.2738    2.3366   28.3478 H   0  0  0  0  0  0  0  0  0  0  0  0
    4.2205    5.2465   27.0687 H   0  0  0  0  0  0  0  0  0  0  0  0
    2.3888    6.8517   26.5142 H   0  0  0  0  0  0  0  0  0  0  0  0
    0.0046    6.2140   26.8896 H   0  0  0  0  0  0  0  0  0  0  0  0
    3.6827    1.7341   28.4758 H   0  0  0  0  0  0  0  0  0  0  0  0
    5.7578    3.7342   28.5334 H   0  0  0  0  0  0  0  0  0  0  0  0
    5.2187    1.8391   26.0963 H   0  0  0  0  0  0  0  0  0  0  0  0
    6.6913    1.6533   27.1711 H   0  0  0  0  0  0  0  0  0  0  0  0
    7.5819    3.7518   26.4232 H   0  0  0  0  0  0  0  0  0  0  0  0
    6.0997    4.1053   25.4716 H   0  0  0  0  0  0  0  0  0  0  0  0
    7.6528    3.2566   23.8738 H   0  0  0  0  0  0  0  0  0  0  0  0
    6.5773    1.8657   24.2456 H   0  0  0  0  0  0  0  0  0  0  0  0
    7.7761    0.4573   23.7177 H   0  0  0  0  0  0  0  0  0  0  0  0
    9.9265    0.7486   22.7191 H   0  0  0  0  0  0  0  0  0  0  0  0
    9.9340   -1.6451   22.9689 H   0  0  0  0  0  0  0  0  0  0  0  0
   11.3957   -1.2880   23.8733 H   0  0  0  0  0  0  0  0  0  0  0  0
    9.2683   -2.4924   24.9165 H   0  0  0  0  0  0  0  0  0  0  0  0
    8.6316   -0.3138   26.4668 H   0  0  0  0  0  0  0  0  0  0  0  0
    7.5516   -1.1876   25.3838 H   0  0  0  0  0  0  0  0  0  0  0  0
   11.1725    0.9367   25.4620 H   0  0  0  0  0  0  0  0  0  0  0  0
   10.7391    2.3010   24.3439 H   0  0  0  0  0  0  0  0  0  0  0  0
   11.8946    2.6111   22.2404 H   0  0  0  0  0  0  0  0  0  0  0  0
   14.3391    3.6871   20.9995 H   0  0  0  0  0  0  0  0  0  0  0  0
   14.9047    2.2478   20.0857 H   0  0  0  0  0  0  0  0  0  0  0  0
   13.1621    2.6839   20.0857 H   0  0  0  0  0  0  0  0  0  0  0  0
   15.7947    0.8105   21.8301 H   0  0  0  0  0  0  0  0  0  0  0  0
   15.6169   -0.8578   24.9602 H   0  0  0  0  0  0  0  0  0  0  0  0
   16.0508   -1.2719   23.2801 H   0  0  0  0  0  0  0  0  0  0  0  0
 23 22  1  0
 22 24  1  0
 22 21  2  0
 24 25  2  0
 21 20  1  0
 25 27  1  0
 25 26  1  0
 20 26  2  0
 20 19  1  0
 15 16  1  0
 15 19  1  0
 15 14  1  0
 16 17  1  0
 14 13  1  0
 14 18  1  0
 12 13  1  0
 12 11  1  0
 17 18  1  0
 11 10  1  0
 10  9  1  0
  6  7  1  0
  6  5  2  0
  7  2  2  0
  5  4  1  0
  2  1  1  0
  2  3  1  0
  4  3  2  0
  4  8  1  0
  9  8  2  0
  3 28  1  0
  5 29  1  0
  6 30  1  0
  7 31  1  0
  8 32  1  0
  9 33  1  0
 10 34  1  0
 10 35  1  0
 11 36  1  0
 11 37  1  0
 12 38  1  0
 12 39  1  0
 14 40  1  0
 15 41  1  0
 16 42  1  0
 16 43  1  0
 17 44  1  0
 18 45  1  0
 18 46  1  0
 19 47  1  0
 19 48  1  0
 21 49  1  0
 23 50  1  0
 23 51  1  0
 23 52  1  0
 24 53  1  0
 27 54  1  0
 27 55  1  0
A    1
F23
A    2
C23
A    3
C22
A    4
C21
A    5
C26
A    6
C25
A    7
C24
A    8
C14
A    9
C13
A   10
C12
A   11
C11
A   12
C10
A   13
O09
A   14
C3'
A   15
C4'
A   16
C5'
A   17
N1'
A   18
C2'
A   19
C08
A   20
C06
A   21
C05
A   22
C04
A   23
C07
A   24
C03
A   25
C02
A   26
N01
A   27
N02
M  END
