3UFR_H5W_A_800
     RDKit          3D

 52 54  0  0  0  0  0  0  0  0999 V2000
   -0.0110    3.8190   27.4030 F   0  0  0  0  0  0  0  0  0  0  0  0
    1.1330    4.5350   27.3120 C   0  0  0  0  0  0  0  0  0  0  0  0
    1.0990    5.9440   27.3590 C   0  0  0  0  0  0  0  0  0  0  0  0
    2.2910    6.6700   27.2650 C   0  0  0  0  0  0  0  0  0  0  0  0
    3.5100    5.9840   27.1250 C   0  0  0  0  0  0  0  0  0  0  0  0
    2.3590    3.8560   27.1740 C   0  0  0  0  0  0  0  0  0  0  0  0
    3.5560    4.5810   27.0750 C   0  0  0  0  0  0  0  0  0  0  0  0
    4.8820    3.9140   26.9460 C   0  0  0  0  0  0  0  0  0  0  0  0
    5.0210    2.5860   26.6740 C   0  0  0  0  0  0  0  0  0  0  0  0
    6.3710    2.0320   26.2220 C   0  0  0  0  0  0  0  0  0  0  0  0
    6.9760    2.7410   24.9800 C   0  0  0  0  0  0  0  0  0  0  0  0
    7.9510    1.9190   24.3180 O   0  0  0  0  0  0  0  0  0  0  0  0
    8.7580    1.1600   25.2350 C   0  0  0  0  0  0  0  0  0  0  0  0
    8.2700   -0.2910   25.3230 C   0  0  0  0  0  0  0  0  0  0  0  0
    8.9670   -0.9330   24.2260 N   0  0  0  0  0  0  0  0  0  0  0  0
    9.9380   -0.0430   23.5930 C   0  0  0  0  0  0  0  0  0  0  0  0
   10.1760    0.9360   24.7350 C   0  0  0  0  0  0  0  0  0  0  0  0
   11.0500    2.1590   24.4630 C   0  0  0  0  0  0  0  0  0  0  0  0
   12.3410    1.7160   23.7880 C   0  0  0  0  0  0  0  0  0  0  0  0
   13.1340    0.6890   24.2370 N   0  0  0  0  0  0  0  0  0  0  0  0
   14.2650    0.3510   23.5690 C   0  0  0  0  0  0  0  0  0  0  0  0
   15.0190   -0.6460   24.0190 N   0  0  0  0  0  0  0  0  0  0  0  0
   14.6360    1.0040   22.4100 C   0  0  0  0  0  0  0  0  0  0  0  0
   12.6890    2.3710   22.6200 C   0  0  0  0  0  0  0  0  0  0  0  0
   13.8370    2.0280   21.9300 C   0  0  0  0  0  0  0  0  0  0  0  0
   14.1600    2.7640   20.6520 C   0  0  0  0  0  0  0  0  0  0  0  0
    0.1392    6.4700   27.4691 H   0  0  0  0  0  0  0  0  0  0  0  0
    2.2746    7.7693   27.3004 H   0  0  0  0  0  0  0  0  0  0  0  0
    4.4461    6.5571   27.0532 H   0  0  0  0  0  0  0  0  0  0  0  0
    2.3781    2.7566   27.1438 H   0  0  0  0  0  0  0  0  0  0  0  0
    5.7900    4.5211   27.0762 H   0  0  0  0  0  0  0  0  0  0  0  0
    4.1589    1.9111   26.7802 H   0  0  0  0  0  0  0  0  0  0  0  0
    6.2414    0.9668   25.9801 H   0  0  0  0  0  0  0  0  0  0  0  0
    7.0725    2.2030   27.0519 H   0  0  0  0  0  0  0  0  0  0  0  0
    7.4585    3.6752   25.3033 H   0  0  0  0  0  0  0  0  0  0  0  0
    6.1601    2.9422   24.2702 H   0  0  0  0  0  0  0  0  0  0  0  0
    8.7032    1.7405   26.1677 H   0  0  0  0  0  0  0  0  0  0  0  0
    7.1799   -0.3509   25.1887 H   0  0  0  0  0  0  0  0  0  0  0  0
    8.4700   -0.7586   26.2984 H   0  0  0  0  0  0  0  0  0  0  0  0
    8.2763   -1.2261   23.5203 H   0  0  0  0  0  0  0  0  0  0  0  0
   10.8586   -0.5755   23.3122 H   0  0  0  0  0  0  0  0  0  0  0  0
    9.6039    0.4146   22.6501 H   0  0  0  0  0  0  0  0  0  0  0  0
   10.8465    0.5402   25.5120 H   0  0  0  0  0  0  0  0  0  0  0  0
   11.2857    2.6606   25.4132 H   0  0  0  0  0  0  0  0  0  0  0  0
   10.5116    2.8573   23.8053 H   0  0  0  0  0  0  0  0  0  0  0  0
   15.1290   -0.7915   25.0327 H   0  0  0  0  0  0  0  0  0  0  0  0
   15.4935   -1.2735   23.3542 H   0  0  0  0  0  0  0  0  0  0  0  0
   15.5531    0.7148   21.8758 H   0  0  0  0  0  0  0  0  0  0  0  0
   12.0441    3.1749   22.2355 H   0  0  0  0  0  0  0  0  0  0  0  0
   14.5912    3.7466   20.8937 H   0  0  0  0  0  0  0  0  0  0  0  0
   14.8845    2.1799   20.0655 H   0  0  0  0  0  0  0  0  0  0  0  0
   13.2396    2.9017   20.0655 H   0  0  0  0  0  0  0  0  0  0  0  0
 26 25  1  0
 25 23  2  0
 25 24  1  0
 23 21  1  0
 24 19  2  0
 21 22  1  0
 21 20  2  0
 16 15  1  0
 16 17  1  0
 19 20  1  0
 19 18  1  0
 15 14  1  0
 12 11  1  0
 12 13  1  0
 18 17  1  0
 17 13  1  0
 11 10  1  0
 13 14  1  0
 10  9  1  0
  9  8  2  0
  8  7  1  0
  7  5  2  0
  7  6  1  0
  5  4  1  0
  6  2  2  0
  4  3  2  0
  2  3  1  0
  2  1  1  0
  3 27  1  0
  4 28  1  0
  5 29  1  0
  6 30  1  0
  8 31  1  0
  9 32  1  0
 10 33  1  0
 10 34  1  0
 11 35  1  0
 11 36  1  0
 13 37  1  0
 14 38  1  0
 14 39  1  0
 15 40  1  0
 16 41  1  0
 16 42  1  0
 17 43  1  0
 18 44  1  0
 18 45  1  0
 22 46  1  0
 22 47  1  0
 23 48  1  0
 24 49  1  0
 26 50  1  0
 26 51  1  0
 26 52  1  0
A    1
F23
A    2
C23
A    3
C24
A    4
C25
A    5
C26
A    6
C22
A    7
C21
A    8
C13
A    9
C12
A   10
C11
A   11
C10
A   12
O09
A   13
C3'
A   14
C2'
A   15
N1'
A   16
C5'
A   17
C4'
A   18
C08
A   19
C06
A   20
N01
A   21
C02
A   22
N02
A   23
C03
A   24
C05
A   25
C04
A   26
C07
M  END
