3Q7D_NPX_A_1591
     RDKit          3D

 31 32  0  0  0  0  0  0  0  0999 V2000
  -38.6370   48.3840   21.1520 C   0  0  0  0  0  0  0  0  0  0  0  0
  -37.9270   47.2530   21.0310 O   0  0  0  0  0  0  0  0  0  0  0  0
  -39.3710   48.8740   20.0690 C   0  0  0  0  0  0  0  0  0  0  0  0
  -40.1440   50.0370   20.2090 C   0  0  0  0  0  0  0  0  0  0  0  0
  -40.1690   50.7080   21.4410 C   0  0  0  0  0  0  0  0  0  0  0  0
  -39.4310   50.2110   22.5130 C   0  0  0  0  0  0  0  0  0  0  0  0
  -38.6590   49.0500   22.3820 C   0  0  0  0  0  0  0  0  0  0  0  0
  -40.9360   51.8660   21.5860 C   0  0  0  0  0  0  0  0  0  0  0  0
  -40.9680   52.5090   22.8230 C   0  0  0  0  0  0  0  0  0  0  0  0
  -41.7680   53.7430   23.0400 C   0  0  0  0  0  0  0  0  0  0  0  0
  -41.5310   54.6480   21.8250 C   0  0  0  0  0  0  0  0  0  0  0  0
  -39.4550   50.8700   23.7300 C   0  0  0  0  0  0  0  0  0  0  0  0
  -40.2190   52.0200   23.8770 C   0  0  0  0  0  0  0  0  0  0  0  0
  -37.1650   46.8160   22.1680 C   0  0  0  0  0  0  0  0  0  0  0  0
  -43.9720   53.5530   22.2260 O   0  0  0  0  0  0  0  0  0  0  0  0
  -43.7250   53.6590   24.3560 O   0  0  0  0  0  0  0  0  0  0  0  0
  -43.2230   53.5770   23.2090 C   0  0  0  0  0  0  0  0  0  0  0  0
  -39.3430   48.3469   19.1039 H   0  0  0  0  0  0  0  0  0  0  0  0
  -40.7266   50.4201   19.3582 H   0  0  0  0  0  0  0  0  0  0  0  0
  -38.0782   48.6672   23.2341 H   0  0  0  0  0  0  0  0  0  0  0  0
  -41.5075   52.2658   20.7354 H   0  0  0  0  0  0  0  0  0  0  0  0
  -41.4247   54.1542   24.0008 H   0  0  0  0  0  0  0  0  0  0  0  0
  -41.2662   55.6593   22.1672 H   0  0  0  0  0  0  0  0  0  0  0  0
  -40.7096   54.2394   21.2181 H   0  0  0  0  0  0  0  0  0  0  0  0
  -42.4473   54.6945   21.2181 H   0  0  0  0  0  0  0  0  0  0  0  0
  -38.8706   50.4838   24.5781 H   0  0  0  0  0  0  0  0  0  0  0  0
  -40.2284   52.5475   24.8422 H   0  0  0  0  0  0  0  0  0  0  0  0
  -37.6825   47.1128   23.0922 H   0  0  0  0  0  0  0  0  0  0  0  0
  -37.0614   45.7212   22.1411 H   0  0  0  0  0  0  0  0  0  0  0  0
  -36.1678   47.2795   22.1411 H   0  0  0  0  0  0  0  0  0  0  0  0
  -44.9534   53.5216   22.3521 H   0  0  0  0  0  0  0  0  0  0  0  0
  1  2  1  0
  1  3  2  0
  1  7  1  0
  2 14  1  0
  3  4  1  0
  4  5  2  0
  5  6  1  0
  5  8  1  0
  6  7  2  0
  6 12  1  0
  8  9  2  0
  9 10  1  0
  9 13  1  0
 10 11  1  0
 10 17  1  0
 12 13  2  0
 15 17  1  0
 16 17  2  0
  3 18  1  0
  4 19  1  0
  7 20  1  0
  8 21  1  0
 10 22  1  0
 11 23  1  0
 11 24  1  0
 11 25  1  0
 12 26  1  0
 13 27  1  0
 14 28  1  0
 14 29  1  0
 14 30  1  0
 15 31  1  0
A    1
C1
A    2
O2
A    3
C2
A    4
C3
A    5
C4
A    6
C5
A    7
C6
A    8
C7
A    9
C8
A   10
C9
A   11
C10
A   12
C13
A   13
C11
A   14
C12
A   15
O
A   16
OXT
A   17
C15
M  END
