3UGC_046_A_1201
     RDKit          3D

 71 75  0  0  0  0  0  0  0  0999 V2000
   23.2040  -17.8200  -13.1770 F   0  0  0  0  0  0  0  0  0  0  0  0
   23.3030  -18.9780  -13.8660 C   0  0  0  0  0  0  0  0  0  0  0  0
   24.2100  -19.7150  -13.2050 F   0  0  0  0  0  0  0  0  0  0  0  0
   22.1430  -19.6200  -13.7860 F   0  0  0  0  0  0  0  0  0  0  0  0
   23.7170  -18.6820  -15.2910 C   0  0  0  0  0  0  0  0  0  0  0  0
   25.0240  -18.2990  -15.5910 C   0  0  0  0  0  0  0  0  0  0  0  0
   25.3390  -18.0200  -16.9280 C   0  0  0  0  0  0  0  0  0  0  0  0
   24.3850  -18.1430  -17.9460 C   0  0  0  0  0  0  0  0  0  0  0  0
   23.0970  -18.5460  -17.6170 C   0  0  0  0  0  0  0  0  0  0  0  0
   22.7720  -18.8480  -16.2960 C   0  0  0  0  0  0  0  0  0  0  0  0
   22.1800  -18.6790  -18.6960 N   0  0  0  0  0  0  0  0  0  0  0  0
   20.8360  -18.5630  -18.5920 C   0  0  0  0  0  0  0  0  0  0  0  0
   20.2380  -18.3620  -17.5360 O   0  0  0  0  0  0  0  0  0  0  0  0
   20.1120  -18.7560  -19.7090 N   0  0  0  0  0  0  0  0  0  0  0  0
   20.6690  -19.3950  -20.9030 C   0  0  0  0  0  0  0  0  0  0  0  0
   19.4810  -19.5010  -21.8820 C   0  0  0  0  0  0  0  0  0  0  0  0
   18.3120  -18.8910  -21.1370 C   0  0  0  0  0  0  0  0  0  0  0  0
   18.7410  -18.5030  -19.8780 C   0  0  0  0  0  0  0  0  0  0  0  0
   17.8830  -17.8800  -18.9580 C   0  0  0  0  0  0  0  0  0  0  0  0
   16.5570  -17.6820  -19.3710 C   0  0  0  0  0  0  0  0  0  0  0  0
   16.1410  -18.0930  -20.6360 C   0  0  0  0  0  0  0  0  0  0  0  0
   17.0150  -18.6910  -21.5370 C   0  0  0  0  0  0  0  0  0  0  0  0
   14.8270  -17.8770  -21.0130 O   0  0  0  0  0  0  0  0  0  0  0  0
   13.8310  -18.6020  -20.4360 C   0  0  0  0  0  0  0  0  0  0  0  0
   14.0700  -19.7500  -19.8030 N   0  0  0  0  0  0  0  0  0  0  0  0
   13.0870  -20.4760  -19.2610 C   0  0  0  0  0  0  0  0  0  0  0  0
   11.8220  -20.0160  -19.3410 N   0  0  0  0  0  0  0  0  0  0  0  0
   11.5470  -18.8470  -19.9210 C   0  0  0  0  0  0  0  0  0  0  0  0
   12.5410  -18.0710  -20.4990 C   0  0  0  0  0  0  0  0  0  0  0  0
   10.1730  -18.4790  -19.8140 N   0  0  0  0  0  0  0  0  0  0  0  0
    9.6470  -17.3300  -20.2790 C   0  0  0  0  0  0  0  0  0  0  0  0
   10.2470  -16.4800  -20.8640 O   0  0  0  0  0  0  0  0  0  0  0  0
    8.1610  -17.1710  -20.0410 C   0  0  0  0  0  0  0  0  0  0  0  0
   26.0940  -18.0920  -14.4980 C   0  0  0  0  0  0  0  0  0  0  0  0
   27.1310  -17.1670  -14.9590 N   0  0  0  0  0  0  0  0  0  0  0  0
   28.3190  -17.2630  -14.1020 C   0  0  0  0  0  0  0  0  0  0  0  0
   29.4080  -16.2990  -14.6270 C   0  0  0  0  0  0  0  0  0  0  0  0
   28.8900  -14.9250  -14.6780 N   0  0  0  0  0  0  0  0  0  0  0  0
   27.6980  -14.8360  -15.5590 C   0  0  0  0  0  0  0  0  0  0  0  0
   26.6370  -15.7910  -14.9940 C   0  0  0  0  0  0  0  0  0  0  0  0
   29.9200  -13.9700  -15.1630 C   0  0  0  0  0  0  0  0  0  0  0  0
   26.3590  -17.6970  -17.1836 H   0  0  0  0  0  0  0  0  0  0  0  0
   24.6517  -17.9238  -18.9904 H   0  0  0  0  0  0  0  0  0  0  0  0
   21.7662  -19.2182  -16.0486 H   0  0  0  0  0  0  0  0  0  0  0  0
   22.5691  -18.8791  -19.6285 H   0  0  0  0  0  0  0  0  0  0  0  0
   21.0621  -20.3934  -20.6608 H   0  0  0  0  0  0  0  0  0  0  0  0
   21.5078  -18.8238  -21.3274 H   0  0  0  0  0  0  0  0  0  0  0  0
   19.2761  -20.5528  -22.1306 H   0  0  0  0  0  0  0  0  0  0  0  0
   19.6802  -18.9882  -22.8346 H   0  0  0  0  0  0  0  0  0  0  0  0
   18.2325  -17.5633  -17.9642 H   0  0  0  0  0  0  0  0  0  0  0  0
   15.8401  -17.1986  -18.6911 H   0  0  0  0  0  0  0  0  0  0  0  0
   16.6772  -18.9942  -22.5390 H   0  0  0  0  0  0  0  0  0  0  0  0
   13.3059  -21.4302  -18.7594 H   0  0  0  0  0  0  0  0  0  0  0  0
   12.3274  -17.1026  -20.9749 H   0  0  0  0  0  0  0  0  0  0  0  0
    9.5367  -19.1406  -19.3469 H   0  0  0  0  0  0  0  0  0  0  0  0
    7.9631  -17.1498  -18.9591 H   0  0  0  0  0  0  0  0  0  0  0  0
    7.8154  -16.2308  -20.4954 H   0  0  0  0  0  0  0  0  0  0  0  0
    7.6243  -18.0168  -20.4954 H   0  0  0  0  0  0  0  0  0  0  0  0
   25.6156  -17.6789  -13.5977 H   0  0  0  0  0  0  0  0  0  0  0  0
   26.5603  -19.0620  -14.2708 H   0  0  0  0  0  0  0  0  0  0  0  0
   28.0514  -16.9883  -13.0710 H   0  0  0  0  0  0  0  0  0  0  0  0
   28.7017  -18.2942  -14.1173 H   0  0  0  0  0  0  0  0  0  0  0  0
   29.7118  -16.6102  -15.6374 H   0  0  0  0  0  0  0  0  0  0  0  0
   30.2724  -16.3309  -13.9475 H   0  0  0  0  0  0  0  0  0  0  0  0
   27.9647  -15.1342  -16.5837 H   0  0  0  0  0  0  0  0  0  0  0  0
   27.3150  -13.8053  -15.5912 H   0  0  0  0  0  0  0  0  0  0  0  0
   26.3783  -15.4763  -13.9722 H   0  0  0  0  0  0  0  0  0  0  0  0
   25.7519  -15.7545  -15.6461 H   0  0  0  0  0  0  0  0  0  0  0  0
   30.4224  -13.5042  -14.3024 H   0  0  0  0  0  0  0  0  0  0  0  0
   30.6607  -14.5080  -15.7728 H   0  0  0  0  0  0  0  0  0  0  0  0
   29.4394  -13.1908  -15.7728 H   0  0  0  0  0  0  0  0  0  0  0  0
 16 17  1  0
 16 15  1  0
 22 17  2  0
 22 21  1  0
 17 18  1  0
 23 21  1  0
 23 24  1  0
 15 14  1  0
 32 31  2  0
 21 20  2  0
 29 24  1  0
 29 28  2  0
 24 25  2  0
 31 33  1  0
 31 30  1  0
 28 30  1  0
 28 27  1  0
 18 14  1  0
 18 19  2  0
 25 26  1  0
 14 12  1  0
 20 19  1  0
 27 26  2  0
 11 12  1  0
 11  9  1  0
 12 13  2  0
  8  9  2  0
  8  7  1  0
  9 10  1  0
  7  6  2  0
 10  5  2  0
  6  5  1  0
  6 34  1  0
 39 40  1  0
 39 38  1  0
  5  2  1  0
 41 38  1  0
 40 35  1  0
 35 34  1  0
 35 36  1  0
 38 37  1  0
 37 36  1  0
  2  4  1  0
  2  3  1  0
  2  1  1  0
  7 42  1  0
  8 43  1  0
 10 44  1  0
 11 45  1  0
 15 46  1  0
 15 47  1  0
 16 48  1  0
 16 49  1  0
 19 50  1  0
 20 51  1  0
 22 52  1  0
 26 53  1  0
 29 54  1  0
 30 55  1  0
 33 56  1  0
 33 57  1  0
 33 58  1  0
 34 59  1  0
 34 60  1  0
 36 61  1  0
 36 62  1  0
 37 63  1  0
 37 64  1  0
 39 65  1  0
 39 66  1  0
 40 67  1  0
 40 68  1  0
 41 69  1  0
 41 70  1  0
 41 71  1  0
A    1
F1
A    2
C2
A    3
F3
A    4
F4
A    5
C5
A    6
C6
A    7
C7
A    8
C9
A    9
C11
A   10
C12
A   11
N14
A   12
C16
A   13
O17
A   14
N18
A   15
C19
A   16
C22
A   17
C25
A   18
C26
A   19
C27
A   20
C29
A   21
C31
A   22
C32
A   23
O34
A   24
C35
A   25
N36
A   26
C37
A   27
N39
A   28
C40
A   29
C41
A   30
N43
A   31
C45
A   32
O46
A   33
C47
A   34
C51
A   35
N54
A   36
C55
A   37
C58
A   38
N61
A   39
C62
A   40
C65
A   41
C68
M  END
