3UNK_0BY_A_299
     RDKit          3D

 37 39  0  0  0  0  0  0  0  0999 V2000
   -9.9360   10.7710   13.6520 N   0  0  0  0  0  0  0  0  0  0  0  0
  -11.7600    9.2680   13.2060 N   0  0  0  0  0  0  0  0  0  0  0  0
  -11.3720   10.0300   15.3750 N   0  0  0  0  0  0  0  0  0  0  0  0
  -13.5760    7.7590   12.6680 N   0  0  0  0  0  0  0  0  0  0  0  0
   -8.9770    9.7750   10.1460 C   0  0  0  0  0  0  0  0  0  0  0  0
   -8.1560   10.8680    9.8270 C   0  0  0  0  0  0  0  0  0  0  0  0
   -7.9440   11.8650   10.7600 C   0  0  0  0  0  0  0  0  0  0  0  0
   -8.5470   11.7980   11.9990 C   0  0  0  0  0  0  0  0  0  0  0  0
   -9.3760   10.7370   12.3310 C   0  0  0  0  0  0  0  0  0  0  0  0
   -9.6010    9.7140   11.3980 C   0  0  0  0  0  0  0  0  0  0  0  0
   -7.4600   11.0160    8.5090 C   0  0  0  0  0  0  0  0  0  0  0  0
  -11.0590    9.9940   14.0800 C   0  0  0  0  0  0  0  0  0  0  0  0
  -12.8240    8.5360   13.6050 C   0  0  0  0  0  0  0  0  0  0  0  0
  -13.1590    8.5650   14.9540 C   0  0  0  0  0  0  0  0  0  0  0  0
  -12.4120    9.3290   15.8500 C   0  0  0  0  0  0  0  0  0  0  0  0
  -14.7720    7.0460   13.0430 C   0  0  0  0  0  0  0  0  0  0  0  0
  -15.8360    7.7110   13.6490 C   0  0  0  0  0  0  0  0  0  0  0  0
  -16.9740    6.9980   13.9890 C   0  0  0  0  0  0  0  0  0  0  0  0
  -17.0820    5.6380   13.7130 C   0  0  0  0  0  0  0  0  0  0  0  0
  -16.0340    4.9750   13.0980 C   0  0  0  0  0  0  0  0  0  0  0  0
  -14.8860    5.6850   12.7670 C   0  0  0  0  0  0  0  0  0  0  0  0
   -7.7940   10.2950    7.5320 O   0  0  0  0  0  0  0  0  0  0  0  0
   -6.5210   11.8580    8.3850 O   0  0  0  0  0  0  0  0  0  0  0  0
  -13.5800    4.8660   12.0000 Cl  0  0  0  0  0  0  0  0  0  0  0  0
   -9.4985   11.3993   14.3410 H   0  0  0  0  0  0  0  0  0  0  0  0
  -13.2518    7.7071   11.6917 H   0  0  0  0  0  0  0  0  0  0  0  0
   -9.1298    8.9682    9.4140 H   0  0  0  0  0  0  0  0  0  0  0  0
   -7.2916   12.7157   10.5137 H   0  0  0  0  0  0  0  0  0  0  0  0
   -8.3678   12.5970   12.7335 H   0  0  0  0  0  0  0  0  0  0  0  0
  -10.2620    8.8710   11.6478 H   0  0  0  0  0  0  0  0  0  0  0  0
  -14.0183    7.9819   15.3167 H   0  0  0  0  0  0  0  0  0  0  0  0
  -12.6692    9.3560   16.9192 H   0  0  0  0  0  0  0  0  0  0  0  0
  -15.7730    8.7897   13.8550 H   0  0  0  0  0  0  0  0  0  0  0  0
  -17.8074    7.5160   14.4861 H   0  0  0  0  0  0  0  0  0  0  0  0
  -17.9977    5.0915   13.9829 H   0  0  0  0  0  0  0  0  0  0  0  0
  -16.1088    3.9006   12.8743 H   0  0  0  0  0  0  0  0  0  0  0  0
   -6.0918   12.2429    9.1898 H   0  0  0  0  0  0  0  0  0  0  0  0
 22 11  2  0
 23 11  1  0
 11  6  1  0
  6  5  2  0
  6  7  1  0
  5 10  1  0
  7  8  2  0
 10  9  2  0
  8  9  1  0
 24 21  1  0
  9  1  1  0
  4 16  1  0
  4 13  1  0
 21 16  1  0
 21 20  2  0
 16 17  2  0
 20 19  1  0
  2 13  2  0
  2 12  1  0
 13 14  1  0
 17 18  1  0
  1 12  1  0
 19 18  2  0
 12  3  2  0
 14 15  2  0
  3 15  1  0
  1 25  1  0
  4 26  1  0
  5 27  1  0
  7 28  1  0
  8 29  1  0
 10 30  1  0
 14 31  1  0
 15 32  1  0
 17 33  1  0
 18 34  1  0
 19 35  1  0
 20 36  1  0
 23 37  1  0
A    1
N01
A    2
N02
A    3
N03
A    4
N04
A    5
C05
A    6
C06
A    7
C07
A    8
C08
A    9
C09
A   10
C10
A   11
C11
A   12
C12
A   13
C13
A   14
C14
A   15
C15
A   16
C16
A   17
C17
A   18
C18
A   19
C19
A   20
C20
A   21
C21
A   22
O25
A   23
O26
A   24
CL2
M  END
