3UP2_0C8_A_1
     RDKit          3D

 41 43  0  0  0  0  0  0  0  0999 V2000
    3.8470   31.8080    9.1560 N   0  0  0  0  0  0  0  0  0  0  0  0
    4.5020   30.9520    7.0580 N   0  0  0  0  0  0  0  0  0  0  0  0
    5.7040   28.8430    6.8710 N   0  0  0  0  0  0  0  0  0  0  0  0
    3.3000   33.0480    7.2230 N   0  0  0  0  0  0  0  0  0  0  0  0
    4.4050   30.7600    9.8000 C   0  0  0  0  0  0  0  0  0  0  0  0
    3.8970   31.8900    7.8130 C   0  0  0  0  0  0  0  0  0  0  0  0
    5.0730   29.8730    7.6580 C   0  0  0  0  0  0  0  0  0  0  0  0
    5.0290   29.7550    9.0540 C   0  0  0  0  0  0  0  0  0  0  0  0
    5.9350   29.0050    5.4600 C   0  0  0  0  0  0  0  0  0  0  0  0
    4.8940   29.3620    4.6080 C   0  0  0  0  0  0  0  0  0  0  0  0
    5.1180   29.5190    3.2460 C   0  0  0  0  0  0  0  0  0  0  0  0
    6.3870   29.3060    2.7280 C   0  0  0  0  0  0  0  0  0  0  0  0
    7.4250   28.9340    3.5740 C   0  0  0  0  0  0  0  0  0  0  0  0
    7.2090   28.7920    4.9450 C   0  0  0  0  0  0  0  0  0  0  0  0
    9.3310   29.1990    6.0800 C   0  0  0  0  0  0  0  0  0  0  0  0
    2.9390   33.2330    5.8440 C   0  0  0  0  0  0  0  0  0  0  0  0
    1.8600   34.0660    5.5690 C   0  0  0  0  0  0  0  0  0  0  0  0
    1.4770   34.3250    4.2630 C   0  0  0  0  0  0  0  0  0  0  0  0
    2.1840   33.7280    3.2170 C   0  0  0  0  0  0  0  0  0  0  0  0
    3.2620   32.8820    3.4680 C   0  0  0  0  0  0  0  0  0  0  0  0
    3.6470   32.6570    4.7940 C   0  0  0  0  0  0  0  0  0  0  0  0
    1.7230   34.0080    1.8330 C   0  0  0  0  0  0  0  0  0  0  0  0
    2.5500   34.0330    0.8680 O   0  0  0  0  0  0  0  0  0  0  0  0
    0.4820   34.2340    1.6720 O   0  0  0  0  0  0  0  0  0  0  0  0
    8.2480   28.3950    5.7790 O   0  0  0  0  0  0  0  0  0  0  0  0
    8.9500   30.4610    6.3330 F   0  0  0  0  0  0  0  0  0  0  0  0
   10.1490   29.1930    5.0330 F   0  0  0  0  0  0  0  0  0  0  0  0
    9.9790   28.6740    7.1290 F   0  0  0  0  0  0  0  0  0  0  0  0
    5.9969   27.9689    7.3304 H   0  0  0  0  0  0  0  0  0  0  0  0
    3.1074   33.8369    7.8565 H   0  0  0  0  0  0  0  0  0  0  0  0
    4.3691   30.6978   10.8976 H   0  0  0  0  0  0  0  0  0  0  0  0
    5.4785   28.8851    9.5552 H   0  0  0  0  0  0  0  0  0  0  0  0
    3.8852   29.5212    5.0166 H   0  0  0  0  0  0  0  0  0  0  0  0
    4.2921   29.8111    2.5808 H   0  0  0  0  0  0  0  0  0  0  0  0
    6.5712   29.4312    1.6508 H   0  0  0  0  0  0  0  0  0  0  0  0
    8.4267   28.7497    3.1586 H   0  0  0  0  0  0  0  0  0  0  0  0
    1.3033   34.5253    6.3992 H   0  0  0  0  0  0  0  0  0  0  0  0
    0.6277   34.9917    4.0528 H   0  0  0  0  0  0  0  0  0  0  0  0
    3.8005   32.3998    2.6389 H   0  0  0  0  0  0  0  0  0  0  0  0
    4.5171   32.0191    5.0083 H   0  0  0  0  0  0  0  0  0  0  0  0
   -0.1079   34.3414    2.4598 H   0  0  0  0  0  0  0  0  0  0  0  0
 23 22  2  0
 24 22  1  0
 22 19  1  0
 12 11  1  0
 12 13  2  0
 19 20  2  0
 19 18  1  0
 11 10  2  0
 20 21  1  0
 13 14  1  0
 18 17  2  0
 10  9  1  0
 21 16  2  0
 14  9  2  0
 14 25  1  0
 27 15  1  0
  9  3  1  0
 17 16  1  0
 25 15  1  0
 16  4  1  0
 15 26  1  0
 15 28  1  0
  3  7  1  0
  2  7  2  0
  2  6  1  0
  4  6  1  0
  7  8  1  0
  6  1  2  0
  8  5  2  0
  1  5  1  0
  3 29  1  0
  4 30  1  0
  5 31  1  0
  8 32  1  0
 10 33  1  0
 11 34  1  0
 12 35  1  0
 13 36  1  0
 17 37  1  0
 18 38  1  0
 20 39  1  0
 21 40  1  0
 24 41  1  0
A    1
N01
A    2
N02
A    3
N03
A    4
N04
A    5
C05
A    6
C06
A    7
C07
A    8
C08
A    9
C09
A   10
C10
A   11
C11
A   12
C12
A   13
C13
A   14
C14
A   15
C15
A   16
C16
A   17
C17
A   18
C18
A   19
C19
A   20
C20
A   21
C21
A   22
C22
A   23
O23
A   24
O24
A   25
O25
A   26
F26
A   27
F27
A   28
F28
M  END
