3UPE_0CA_A_481
     RDKit          3D

 74 78  0  0  0  0  0  0  0  0999 V2000
   23.1430   34.4410   36.0060 C   0  0  0  0  0  0  0  0  0  0  0  0
   16.6600   29.6650   35.5630 C   0  0  0  0  0  0  0  0  0  0  0  0
   24.0260   33.3600   36.0860 C   0  0  0  0  0  0  0  0  0  0  0  0
   20.2380   34.8960   38.2670 C   0  0  0  0  0  0  0  0  0  0  0  0
   19.0360   35.5270   38.9710 C   0  0  0  0  0  0  0  0  0  0  0  0
   19.3890   31.7370   39.1330 C   0  0  0  0  0  0  0  0  0  0  0  0
   18.9390   30.7310   40.0020 C   0  0  0  0  0  0  0  0  0  0  0  0
   18.0810   29.7160   39.5640 C   0  0  0  0  0  0  0  0  0  0  0  0
   18.9320   31.7260   37.8090 C   0  0  0  0  0  0  0  0  0  0  0  0
   18.0890   30.6870   37.3750 C   0  0  0  0  0  0  0  0  0  0  0  0
   17.6420   29.6990   38.2520 C   0  0  0  0  0  0  0  0  0  0  0  0
   23.8400   32.3710   37.0560 C   0  0  0  0  0  0  0  0  0  0  0  0
   27.7340   26.4780   35.6820 N   0  0  0  0  0  0  0  0  0  0  0  0
   27.5490   29.3570   35.7790 C   0  0  0  0  0  0  0  0  0  0  0  0
   26.6840   30.0920   36.8230 C   0  0  0  0  0  0  0  0  0  0  0  0
   25.4700   30.7990   36.1540 C   0  0  0  0  0  0  0  0  0  0  0  0
   24.6210   29.8490   35.2950 C   0  0  0  0  0  0  0  0  0  0  0  0
   25.5230   29.1990   34.2450 C   0  0  0  0  0  0  0  0  0  0  0  0
   26.7260   27.1080   35.0420 C   0  0  0  0  0  0  0  0  0  0  0  0
   17.6200   30.7630   35.9620 C   0  0  0  0  0  0  0  0  0  0  0  0
   16.1510   29.6660   34.2560 C   0  0  0  0  0  0  0  0  0  0  0  0
   16.5100   30.6820   33.4320 N   0  0  0  0  0  0  0  0  0  0  0  0
   15.3630   28.6940   33.7660 N   0  0  0  0  0  0  0  0  0  0  0  0
   16.2800   28.6790   36.4940 C   0  0  0  0  0  0  0  0  0  0  0  0
   16.7790   28.6880   37.7820 C   0  0  0  0  0  0  0  0  0  0  0  0
   20.3370   32.8430   39.6990 C   0  0  0  0  0  0  0  0  0  0  0  0
   20.8110   33.7590   38.6290 N   0  0  0  0  0  0  0  0  0  0  0  0
   19.3600   36.9860   39.3650 C   0  0  0  0  0  0  0  0  0  0  0  0
   17.8260   35.4400   38.0810 C   0  0  0  0  0  0  0  0  0  0  0  0
   20.9660   35.5110   37.0950 C   0  0  0  0  0  0  0  0  0  0  0  0
   22.0750   34.4930   36.9120 C   0  0  0  0  0  0  0  0  0  0  0  0
   23.3500   35.5090   34.9350 C   0  0  0  0  0  0  0  0  0  0  0  0
   22.9120   36.6470   35.1510 O   0  0  0  0  0  0  0  0  0  0  0  0
   23.9080   35.1600   33.8540 O   0  0  0  0  0  0  0  0  0  0  0  0
   21.8860   33.4890   37.8690 C   0  0  0  0  0  0  0  0  0  0  0  0
   22.7770   32.4410   37.9410 C   0  0  0  0  0  0  0  0  0  0  0  0
   24.6620   31.2820   37.2420 O   0  0  0  0  0  0  0  0  0  0  0  0
   26.6290   28.5030   34.9850 N   0  0  0  0  0  0  0  0  0  0  0  0
   25.7690   26.2540   34.2690 C   0  0  0  0  0  0  0  0  0  0  0  0
   24.8695   33.2876   35.3836 H   0  0  0  0  0  0  0  0  0  0  0  0
   18.8135   34.9767   39.8971 H   0  0  0  0  0  0  0  0  0  0  0  0
   19.2683   30.7406   41.0515 H   0  0  0  0  0  0  0  0  0  0  0  0
   17.7555   28.9315   40.2630 H   0  0  0  0  0  0  0  0  0  0  0  0
   19.2303   32.5243   37.1135 H   0  0  0  0  0  0  0  0  0  0  0  0
   27.7687   25.4488   35.7006 H   0  0  0  0  0  0  0  0  0  0  0  0
   28.0512   30.0839   35.1238 H   0  0  0  0  0  0  0  0  0  0  0  0
   28.3275   28.7519   36.2666 H   0  0  0  0  0  0  0  0  0  0  0  0
   26.3134   29.3630   37.5586 H   0  0  0  0  0  0  0  0  0  0  0  0
   27.3050   30.8568   37.3122 H   0  0  0  0  0  0  0  0  0  0  0  0
   25.8288   31.5909   35.4801 H   0  0  0  0  0  0  0  0  0  0  0  0
   24.1758   29.0713   35.9330 H   0  0  0  0  0  0  0  0  0  0  0  0
   23.8147   30.4106   34.8005 H   0  0  0  0  0  0  0  0  0  0  0  0
   25.9404   29.9676   33.5778 H   0  0  0  0  0  0  0  0  0  0  0  0
   24.9558   28.4871   33.6274 H   0  0  0  0  0  0  0  0  0  0  0  0
   17.9451   31.5518   35.2677 H   0  0  0  0  0  0  0  0  0  0  0  0
   16.1536   30.7122   32.4661 H   0  0  0  0  0  0  0  0  0  0  0  0
   14.8562   28.0688   34.4088 H   0  0  0  0  0  0  0  0  0  0  0  0
   15.2658   28.5742   32.7476 H   0  0  0  0  0  0  0  0  0  0  0  0
   15.5756   27.8903   36.1911 H   0  0  0  0  0  0  0  0  0  0  0  0
   16.4924   27.8761   38.4666 H   0  0  0  0  0  0  0  0  0  0  0  0
   19.7915   33.4283   40.4539 H   0  0  0  0  0  0  0  0  0  0  0  0
   21.2144   32.3495   40.1423 H   0  0  0  0  0  0  0  0  0  0  0  0
   19.3795   37.0740   40.4613 H   0  0  0  0  0  0  0  0  0  0  0  0
   20.3423   37.2665   38.9571 H   0  0  0  0  0  0  0  0  0  0  0  0
   18.5887   37.6559   38.9571 H   0  0  0  0  0  0  0  0  0  0  0  0
   16.9192   35.3748   38.7003 H   0  0  0  0  0  0  0  0  0  0  0  0
   17.7727   36.3366   37.4460 H   0  0  0  0  0  0  0  0  0  0  0  0
   17.9015   34.5450   37.4460 H   0  0  0  0  0  0  0  0  0  0  0  0
   20.7527   36.4333   36.5347 H   0  0  0  0  0  0  0  0  0  0  0  0
   22.7906   36.9623   36.0816 H   0  0  0  0  0  0  0  0  0  0  0  0
   22.6440   31.6585   38.7026 H   0  0  0  0  0  0  0  0  0  0  0  0
   25.1353   25.6885   34.9680 H   0  0  0  0  0  0  0  0  0  0  0  0
   25.1364   26.8932   33.6356 H   0  0  0  0  0  0  0  0  0  0  0  0
   26.3324   25.5530   33.6356 H   0  0  0  0  0  0  0  0  0  0  0  0
  1  3  2  0
  1 31  1  0
  2 20  2  0
  2 24  1  0
  3 12  1  0
  4 27  1  0
  4  5  1  0
  5 28  1  0
  6 26  1  0
  6  7  2  0
  8  7  1  0
  9  6  1  0
 10  9  2  0
 10 11  1  0
 11  8  2  0
 12 37  1  0
 12 36  2  0
 14 15  1  0
 16 15  1  0
 16 37  1  0
 17 16  1  0
 18 38  1  0
 18 17  1  0
 19 13  2  3
 20 10  1  0
 21  2  1  0
 22 21  2  3
 23 21  1  0
 24 25  2  0
 25 11  1  0
 27 26  1  0
 29  5  1  0
 30  4  2  0
 31 30  1  0
 31 35  2  0
 32 33  1  0
 32  1  1  0
 34 32  2  0
 35 36  1  0
 35 27  1  0
 38 19  1  0
 38 14  1  0
 39 19  1  0
  3 40  1  0
  5 41  1  0
  7 42  1  0
  8 43  1  0
  9 44  1  0
 13 45  1  0
 14 46  1  0
 14 47  1  0
 15 48  1  0
 15 49  1  0
 16 50  1  0
 17 51  1  0
 17 52  1  0
 18 53  1  0
 18 54  1  0
 20 55  1  0
 22 56  1  0
 23 57  1  0
 23 58  1  0
 24 59  1  0
 25 60  1  0
 26 61  1  0
 26 62  1  0
 28 63  1  0
 28 64  1  0
 28 65  1  0
 29 66  1  0
 29 67  1  0
 29 68  1  0
 30 69  1  0
 33 70  1  0
 36 71  1  0
 39 72  1  0
 39 73  1  0
 39 74  1  0
A    1
C13
A    2
C30
A    3
C14
A    4
C16
A    5
C21
A    6
C22
A    7
C23
A    8
C24
A    9
C25
A   10
C26
A   11
C27
A   12
C11
A   13
N9
A   14
C2
A   15
C3
A   16
C4
A   17
C5
A   18
C6
A   19
C7
A   20
C31
A   21
C32
A   22
N33
A   23
N34
A   24
C29
A   25
C28
A   26
C20
A   27
N15
A   28
C38
A   29
C39
A   30
C17
A   31
C18
A   32
C35
A   33
O36
A   34
O37
A   35
C19
A   36
C12
A   37
O10
A   38
N1
A   39
C8
M  END
