3UR4_0BW_A_1000
     RDKit          3D

 53 55  0  0  0  0  0  0  0  0999 V2000
   37.2270    0.3620   10.4530 C   0  0  0  0  0  0  0  0  0  0  0  0
   38.2720    0.8570   11.4670 C   0  0  0  0  0  0  0  0  0  0  0  0
   37.7560    1.9330   12.3400 N   0  0  0  0  0  0  0  0  0  0  0  0
   38.8580    2.3860   13.2070 C   0  0  0  0  0  0  0  0  0  0  0  0
   37.3080    3.0790   11.5380 C   0  0  0  0  0  0  0  0  0  0  0  0
   36.1320    2.6900   10.6650 C   0  0  0  0  0  0  0  0  0  0  0  0
   36.3770    1.4470    9.8750 N   0  0  0  0  0  0  0  0  0  0  0  0
   35.5690    1.1940    8.8110 C   0  0  0  0  0  0  0  0  0  0  0  0
   34.8820   -0.0340    8.8140 C   0  0  0  0  0  0  0  0  0  0  0  0
   33.9880   -0.3820    7.7930 C   0  0  0  0  0  0  0  0  0  0  0  0
   33.7480    0.5040    6.7360 C   0  0  0  0  0  0  0  0  0  0  0  0
   32.8400    0.1870    5.7070 C   0  0  0  0  0  0  0  0  0  0  0  0
   32.5270    1.0180    4.8440 O   0  0  0  0  0  0  0  0  0  0  0  0
   32.2760   -1.0530    5.7860 O   0  0  0  0  0  0  0  0  0  0  0  0
   31.2450   -1.2620    4.7950 C   0  0  0  0  0  0  0  0  0  0  0  0
   34.4150    1.7320    6.7320 C   0  0  0  0  0  0  0  0  0  0  0  0
   35.3020    2.0930    7.7530 C   0  0  0  0  0  0  0  0  0  0  0  0
   35.9370    3.2830    7.6750 N   0  0  0  0  0  0  0  0  0  0  0  0
   35.2910    4.4380    7.9640 C   0  0  0  0  0  0  0  0  0  0  0  0
   34.1280    4.4840    8.3880 O   0  0  0  0  0  0  0  0  0  0  0  0
   36.0210    5.6260    7.7590 C   0  0  0  0  0  0  0  0  0  0  0  0
   36.9670    5.7540    6.7250 C   0  0  0  0  0  0  0  0  0  0  0  0
   35.7800    6.7310    8.5840 C   0  0  0  0  0  0  0  0  0  0  0  0
   36.4620    7.9350    8.4030 C   0  0  0  0  0  0  0  0  0  0  0  0
   37.4030    8.0480    7.3800 C   0  0  0  0  0  0  0  0  0  0  0  0
   37.6610    6.9660    6.5370 C   0  0  0  0  0  0  0  0  0  0  0  0
   38.5990    7.1610    5.5570 O   0  0  0  0  0  0  0  0  0  0  0  0
   38.8370    6.0910    4.6300 C   0  0  0  0  0  0  0  0  0  0  0  0
   36.5691   -0.3598   10.9592 H   0  0  0  0  0  0  0  0  0  0  0  0
   37.7835   -0.0853    9.6162 H   0  0  0  0  0  0  0  0  0  0  0  0
   38.5794    0.0096   12.0974 H   0  0  0  0  0  0  0  0  0  0  0  0
   39.1182    1.2688   10.8974 H   0  0  0  0  0  0  0  0  0  0  0  0
   38.5678    2.2667   14.2613 H   0  0  0  0  0  0  0  0  0  0  0  0
   39.7559    1.7840   13.0035 H   0  0  0  0  0  0  0  0  0  0  0  0
   39.0729    3.4454   13.0035 H   0  0  0  0  0  0  0  0  0  0  0  0
   38.1361    3.4191   10.8989 H   0  0  0  0  0  0  0  0  0  0  0  0
   36.9952    3.8866   12.2162 H   0  0  0  0  0  0  0  0  0  0  0  0
   35.9264    3.5144    9.9664 H   0  0  0  0  0  0  0  0  0  0  0  0
   35.2790    2.4934   11.3311 H   0  0  0  0  0  0  0  0  0  0  0  0
   35.0515   -0.7399    9.6404 H   0  0  0  0  0  0  0  0  0  0  0  0
   33.4734   -1.3538    7.8220 H   0  0  0  0  0  0  0  0  0  0  0  0
   30.2865   -1.4563    5.2985 H   0  0  0  0  0  0  0  0  0  0  0  0
   31.1535   -0.3641    4.1661 H   0  0  0  0  0  0  0  0  0  0  0  0
   31.5103   -2.1246    4.1661 H   0  0  0  0  0  0  0  0  0  0  0  0
   34.2382    2.4341    5.9039 H   0  0  0  0  0  0  0  0  0  0  0  0
   36.9268    3.3124    7.3916 H   0  0  0  0  0  0  0  0  0  0  0  0
   37.1662    4.9018    6.0586 H   0  0  0  0  0  0  0  0  0  0  0  0
   35.0377    6.6485    9.3916 H   0  0  0  0  0  0  0  0  0  0  0  0
   36.2584    8.7905    9.0638 H   0  0  0  0  0  0  0  0  0  0  0  0
   37.9446    8.9946    7.2368 H   0  0  0  0  0  0  0  0  0  0  0  0
   39.0432    5.1640    5.1851 H   0  0  0  0  0  0  0  0  0  0  0  0
   37.9484    5.9496    3.9973 H   0  0  0  0  0  0  0  0  0  0  0  0
   39.7018    6.3396    3.9973 H   0  0  0  0  0  0  0  0  0  0  0  0
 28 27  1  0
 15 14  1  0
 13 12  2  0
 27 26  1  0
 12 14  1  0
 12 11  1  0
 26 22  2  0
 26 25  1  0
 22 21  1  0
 16 11  2  0
 16 17  1  0
 11 10  1  0
 25 24  2  0
 18 17  1  0
 18 19  1  0
 17  8  2  0
 21 19  1  0
 21 23  2  0
 10  9  2  0
 19 20  2  0
 24 23  1  0
  8  9  1  0
  8  7  1  0
  7  1  1  0
  7  6  1  0
  1  2  1  0
  6  5  1  0
  2  3  1  0
  5  3  1  0
  3  4  1  0
  1 29  1  0
  1 30  1  0
  2 31  1  0
  2 32  1  0
  4 33  1  0
  4 34  1  0
  4 35  1  0
  5 36  1  0
  5 37  1  0
  6 38  1  0
  6 39  1  0
  9 40  1  0
 10 41  1  0
 15 42  1  0
 15 43  1  0
 15 44  1  0
 16 45  1  0
 18 46  1  0
 22 47  1  0
 23 48  1  0
 24 49  1  0
 25 50  1  0
 28 51  1  0
 28 52  1  0
 28 53  1  0
A    1
CAO
A    2
CAM
A    3
NBA
A    4
CAC
A    5
CAN
A    6
CAP
A    7
NBB
A    8
CAZ
A    9
CAJ
A   10
CAI
A   11
CAX
A   12
CAU
A   13
OAE
A   14
OAR
A   15
CAA
A   16
CAL
A   17
CAY
A   18
NAQ
A   19
CAT
A   20
OAD
A   21
CAW
A   22
CAK
A   23
CAH
A   24
CAF
A   25
CAG
A   26
CAV
A   27
OAS
A   28
CAB
M  END
