2R1K_DPF_A_1
     RDKit          3D

 20 19  0  0  0  0  0  0  0  0999 V2000
   30.3630   20.1190   -2.6460 O   0  0  0  0  0  0  0  0  0  0  0  0
   29.2380   20.2330   -1.6240 P   0  0  0  0  0  0  0  0  0  0  0  0
   27.8990   19.7890   -2.1690 O   0  0  0  0  0  0  0  0  0  0  0  0
   29.6820   19.4010   -0.3160 O   0  0  0  0  0  0  0  0  0  0  0  0
   30.7040   19.8540    0.5740 C   0  0  0  0  0  0  0  0  0  0  0  0
   31.0550   18.6750    1.4480 C   0  0  0  0  0  0  0  0  0  0  0  0
   29.0050   21.7370   -1.1040 O   0  0  0  0  0  0  0  0  0  0  0  0
   29.0480   22.2180    0.2360 C   0  0  0  0  0  0  0  0  0  0  0  0
   29.2130   23.7110    0.0650 C   0  0  0  0  0  0  0  0  0  0  0  0
   31.2292   20.0312   -2.1748 H   0  0  0  0  0  0  0  0  0  0  0  0
   31.5863   20.1831    0.0054 H   0  0  0  0  0  0  0  0  0  0  0  0
   30.3619   20.7099    1.1743 H   0  0  0  0  0  0  0  0  0  0  0  0
   30.9689   18.9642    2.5058 H   0  0  0  0  0  0  0  0  0  0  0  0
   30.3652   17.8444    1.2377 H   0  0  0  0  0  0  0  0  0  0  0  0
   32.0868   18.3569    1.2377 H   0  0  0  0  0  0  0  0  0  0  0  0
   28.1148   21.9833    0.7690 H   0  0  0  0  0  0  0  0  0  0  0  0
   29.8525   21.7616    0.8314 H   0  0  0  0  0  0  0  0  0  0  0  0
   29.2659   24.1897    1.0540 H   0  0  0  0  0  0  0  0  0  0  0  0
   30.1393   23.9162   -0.4917 H   0  0  0  0  0  0  0  0  0  0  0  0
   28.3539   24.1135   -0.4917 H   0  0  0  0  0  0  0  0  0  0  0  0
  1  2  1  0
  2  4  1  0
  2  3  2  0
  2  7  1  0
  4  5  1  0
  5  6  1  0
  7  8  1  0
  8  9  1  0
  1 10  1  0
  5 11  1  0
  5 12  1  0
  6 13  1  0
  6 14  1  0
  6 15  1  0
  8 16  1  0
  8 17  1  0
  9 18  1  0
  9 19  1  0
  9 20  1  0
A    1
O4
A    2
P1
A    3
O2
A    4
O3
A    5
C1
A    6
C4
A    7
O1
A    8
C2
A    9
C3
M  END
