3URK_0CG_A_318
     RDKit          3D

 18 17  0  0  0  0  0  0  0  0999 V2000
  -25.7070    0.9960  -18.1190 O   0  0  0  0  0  0  0  0  0  0  0  0
  -26.0330    0.8510  -16.6690 P   0  0  0  0  0  0  0  0  0  0  0  0
  -24.7980    0.7880  -15.8220 O   0  0  0  0  0  0  0  0  0  0  0  0
  -27.0870    1.8390  -16.1850 O   0  0  0  0  0  0  0  0  0  0  0  0
  -26.7620   -0.5930  -16.5670 O   0  0  0  0  0  0  0  0  0  0  0  0
  -26.2600   -2.0920  -16.3970 P   0  0  0  0  0  0  0  0  0  0  0  0
  -27.3380   -2.9510  -16.9510 O   0  0  0  0  0  0  0  0  0  0  0  0
  -24.8950   -2.3050  -16.8670 O   0  0  0  0  0  0  0  0  0  0  0  0
  -26.1560   -2.3210  -14.8320 O   0  0  0  0  0  0  0  0  0  0  0  0
  -27.0870   -1.9760  -13.7680 C   0  0  0  0  0  0  0  0  0  0  0  0
  -28.4590   -1.7110  -14.1630 C   0  0  0  0  0  0  0  0  0  0  0  0
  -29.6470   -1.4760  -14.5110 C   0  0  0  0  0  0  0  0  0  0  0  0
  -25.0529    0.8010  -14.8655 H   0  0  0  0  0  0  0  0  0  0  0  0
  -27.0990    1.8502  -15.1951 H   0  0  0  0  0  0  0  0  0  0  0  0
  -24.2893   -2.3995  -16.0896 H   0  0  0  0  0  0  0  0  0  0  0  0
  -27.1014   -2.8122  -13.0534 H   0  0  0  0  0  0  0  0  0  0  0  0
  -26.7160   -1.0260  -13.3558 H   0  0  0  0  0  0  0  0  0  0  0  0
  -30.6841   -1.2708  -14.8148 H   0  0  0  0  0  0  0  0  0  0  0  0
  1  2  2  0
  7  6  2  0
  8  6  1  0
  2  5  1  0
  2  4  1  0
  2  3  1  0
  5  6  1  0
  6  9  1  0
  9 10  1  0
 12 11  3  0
 11 10  1  0
  3 13  1  0
  4 14  1  0
  8 15  1  0
 10 16  1  0
 10 17  1  0
 12 18  1  0
A    1
O20
A    2
P17
A    3
O18
A    4
O19
A    5
O16
A    6
P13
A    7
O14
A    8
O15
A    9
O29
A   10
C28
A   11
C27
A   12
C30
M  END
