3URN_QMP_A_902
     RDKit          3D

 26 26  0  0  0  0  0  0  0  0999 V2000
   13.4120   32.2290   35.8220 C   0  0  0  0  0  0  0  0  0  0  0  0
   14.8090   31.7650   36.2380 C   0  0  0  0  0  0  0  0  0  0  0  0
   15.5120   31.0780   35.0660 C   0  0  0  0  0  0  0  0  0  0  0  0
   14.6770   29.8960   34.5670 C   0  0  0  0  0  0  0  0  0  0  0  0
   13.2810   30.3680   34.1570 C   0  0  0  0  0  0  0  0  0  0  0  0
   12.5710   31.0480   35.3300 C   0  0  0  0  0  0  0  0  0  0  0  0
   11.2960   31.5220   34.8910 O   0  0  0  0  0  0  0  0  0  0  0  0
    9.9460   30.8360   35.4360 P   0  0  0  0  0  0  0  0  0  0  0  0
    8.6290   31.5410   34.4480 C   0  0  0  0  0  0  0  0  0  0  0  0
    9.9920   29.3590   35.3490 O   0  0  0  0  0  0  0  0  0  0  0  0
    9.7240   31.3650   36.9410 O   0  0  0  0  0  0  0  0  0  0  0  0
   13.5037   32.9684   35.0127 H   0  0  0  0  0  0  0  0  0  0  0  0
   12.9146   32.6766   36.6951 H   0  0  0  0  0  0  0  0  0  0  0  0
   15.4008   32.6360   36.5558 H   0  0  0  0  0  0  0  0  0  0  0  0
   14.7155   31.0492   37.0680 H   0  0  0  0  0  0  0  0  0  0  0  0
   15.6439   31.8008   34.2474 H   0  0  0  0  0  0  0  0  0  0  0  0
   16.4918   30.7082   35.4025 H   0  0  0  0  0  0  0  0  0  0  0  0
   15.1756   29.4403   33.6988 H   0  0  0  0  0  0  0  0  0  0  0  0
   14.5817   29.1579   35.3770 H   0  0  0  0  0  0  0  0  0  0  0  0
   12.6884   29.5006   33.8306 H   0  0  0  0  0  0  0  0  0  0  0  0
   13.3810   31.0939   33.3366 H   0  0  0  0  0  0  0  0  0  0  0  0
   12.4386   30.3286   36.1515 H   0  0  0  0  0  0  0  0  0  0  0  0
    7.8550   31.9553   35.1107 H   0  0  0  0  0  0  0  0  0  0  0  0
    9.0354   32.3422   33.8132 H   0  0  0  0  0  0  0  0  0  0  0  0
    8.1877   30.7585   33.8132 H   0  0  0  0  0  0  0  0  0  0  0  0
   10.0160   30.6692   37.5818 H   0  0  0  0  0  0  0  0  0  0  0  0
  9  8  1  0
 10  8  2  0
  8  7  1  0
  8 11  1  0
  1  6  1  0
  1  2  1  0
  7  6  1  0
  6  5  1  0
  2  3  1  0
  3  4  1  0
  5  4  1  0
  1 12  1  0
  1 13  1  0
  2 14  1  0
  2 15  1  0
  3 16  1  0
  3 17  1  0
  4 18  1  0
  4 19  1  0
  5 20  1  0
  5 21  1  0
  6 22  1  0
  9 23  1  0
  9 24  1  0
  9 25  1  0
 11 26  1  0
A    1
CAG
A    2
CAE
A    3
CAD
A    4
CAF
A    5
CAH
A    6
CAJ
A    7
OAI
A    8
PAK
A    9
CAA
A   10
OAC
A   11
OAB
M  END
