3UT3_EMJ_B_401
     RDKit          3D

 47 47  0  0  0  0  0  0  0  0999 V2000
   10.2070   27.3690   42.4680 C   0  0  0  0  0  0  0  0  0  0  0  0
   11.1890   28.3420   42.0890 C   0  0  0  0  0  0  0  0  0  0  0  0
   10.7900   29.3600   41.2390 C   0  0  0  0  0  0  0  0  0  0  0  0
    9.4930   29.4480   40.7510 C   0  0  0  0  0  0  0  0  0  0  0  0
    8.5500   28.5000   41.1230 C   0  0  0  0  0  0  0  0  0  0  0  0
    8.8990   27.4500   41.9860 C   0  0  0  0  0  0  0  0  0  0  0  0
    9.1540   30.3640   39.9660 O   0  0  0  0  0  0  0  0  0  0  0  0
   10.4170   26.3930   43.2410 O   0  0  0  0  0  0  0  0  0  0  0  0
   11.6860   30.3080   40.8850 O   0  0  0  0  0  0  0  0  0  0  0  0
    7.9570   26.5080   42.3470 O   0  0  0  0  0  0  0  0  0  0  0  0
   12.6550   28.3970   42.5720 C   0  0  0  0  0  0  0  0  0  0  0  0
   12.8390   27.3890   43.7220 C   0  0  0  0  0  0  0  0  0  0  0  0
   14.2130   27.2130   44.3890 C   0  0  0  0  0  0  0  0  0  0  0  0
   13.9630   26.7360   45.8500 C   0  0  0  0  0  0  0  0  0  0  0  0
   15.1900   26.2460   46.6480 C   0  0  0  0  0  0  0  0  0  0  0  0
   14.7460   25.2180   47.6900 C   0  0  0  0  0  0  0  0  0  0  0  0
   15.9190   24.6680   48.4960 C   0  0  0  0  0  0  0  0  0  0  0  0
   15.4420   24.1560   49.8620 C   0  0  0  0  0  0  0  0  0  0  0  0
   16.6300   23.6050   50.6720 C   0  0  0  0  0  0  0  0  0  0  0  0
   16.2410   23.0770   52.0670 C   0  0  0  0  0  0  0  0  0  0  0  0
   17.3410   22.2770   52.7550 C   0  0  0  0  0  0  0  0  0  0  0  0
    7.5219   28.5723   40.7386 H   0  0  0  0  0  0  0  0  0  0  0  0
   12.1684   30.8184   41.5828 H   0  0  0  0  0  0  0  0  0  0  0  0
    7.7777   26.3287   43.3040 H   0  0  0  0  0  0  0  0  0  0  0  0
   13.3275   28.1366   41.7414 H   0  0  0  0  0  0  0  0  0  0  0  0
   12.8940   29.4115   42.9236 H   0  0  0  0  0  0  0  0  0  0  0  0
   12.1379   27.6848   44.5164 H   0  0  0  0  0  0  0  0  0  0  0  0
   12.6747   26.4185   43.2309 H   0  0  0  0  0  0  0  0  0  0  0  0
   14.8023   26.4612   43.8436 H   0  0  0  0  0  0  0  0  0  0  0  0
   14.7736   28.1594   44.3797 H   0  0  0  0  0  0  0  0  0  0  0  0
   13.5226   27.5786   46.4032 H   0  0  0  0  0  0  0  0  0  0  0  0
   13.3138   25.8531   45.7546 H   0  0  0  0  0  0  0  0  0  0  0  0
   15.9126   25.7821   45.9605 H   0  0  0  0  0  0  0  0  0  0  0  0
   15.6615   27.1007   47.1552 H   0  0  0  0  0  0  0  0  0  0  0  0
   14.0363   25.6975   48.3802 H   0  0  0  0  0  0  0  0  0  0  0  0
   14.2802   24.3766   47.1560 H   0  0  0  0  0  0  0  0  0  0  0  0
   16.3823   23.8391   47.9408 H   0  0  0  0  0  0  0  0  0  0  0  0
   16.6499   25.4746   48.6547 H   0  0  0  0  0  0  0  0  0  0  0  0
   14.9772   24.9839   50.4175 H   0  0  0  0  0  0  0  0  0  0  0  0
   14.7110   23.3490   49.7058 H   0  0  0  0  0  0  0  0  0  0  0  0
   17.0845   22.7803   50.1035 H   0  0  0  0  0  0  0  0  0  0  0  0
   17.3261   24.4421   50.8292 H   0  0  0  0  0  0  0  0  0  0  0  0
   15.9883   23.9371   52.7045 H   0  0  0  0  0  0  0  0  0  0  0  0
   15.3917   22.3928   51.9233 H   0  0  0  0  0  0  0  0  0  0  0  0
   17.2270   22.3599   53.8459 H   0  0  0  0  0  0  0  0  0  0  0  0
   17.2666   21.2205   52.4578 H   0  0  0  0  0  0  0  0  0  0  0  0
   18.3232   22.6733   52.4578 H   0  0  0  0  0  0  0  0  0  0  0  0
  7  4  2  0
  4  5  1  0
  4  3  1  0
  9  3  1  0
  5  6  2  0
  3  2  2  0
  6 10  1  0
  6  1  1  0
  2  1  1  0
  2 11  1  0
  1  8  2  0
 11 12  1  0
 12 13  1  0
 13 14  1  0
 14 15  1  0
 15 16  1  0
 16 17  1  0
 17 18  1  0
 18 19  1  0
 19 20  1  0
 20 21  1  0
  5 22  1  0
  9 23  1  0
 10 24  1  0
 11 25  1  0
 11 26  1  0
 12 27  1  0
 12 28  1  0
 13 29  1  0
 13 30  1  0
 14 31  1  0
 14 32  1  0
 15 33  1  0
 15 34  1  0
 16 35  1  0
 16 36  1  0
 17 37  1  0
 17 38  1  0
 18 39  1  0
 18 40  1  0
 19 41  1  0
 19 42  1  0
 20 43  1  0
 20 44  1  0
 21 45  1  0
 21 46  1  0
 21 47  1  0
A    1
C2
A    2
C3
A    3
C4
A    4
C5
A    5
C6
A    6
C7
A    7
O8
A    8
O9
A    9
O10
A   10
O11
A   11
C12
A   12
C13
A   13
C14
A   14
C15
A   15
C16
A   16
C17
A   17
C18
A   18
C19
A   19
C20
A   20
C21
A   21
C22
M  END
