3UTD_0CJ_A_318
     RDKit          3D

 27 26  0  0  0  0  0  0  0  0999 V2000
  -28.9690    1.7820  -14.5560 O   0  0  0  0  0  0  0  0  0  0  0  0
  -29.1840    0.7780  -13.8300 C   0  0  0  0  0  0  0  0  0  0  0  0
  -30.5550    0.6440  -13.3030 C   0  0  0  0  0  0  0  0  0  0  0  0
  -28.1430   -0.2310  -13.5700 C   0  0  0  0  0  0  0  0  0  0  0  0
  -28.4140   -1.5800  -14.1840 C   0  0  0  0  0  0  0  0  0  0  0  0
  -27.2890   -2.5610  -14.1000 C   0  0  0  0  0  0  0  0  0  0  0  0
  -26.1060   -2.1840  -14.8460 O   0  0  0  0  0  0  0  0  0  0  0  0
  -26.0840   -1.8700  -16.3670 P   0  0  0  0  0  0  0  0  0  0  0  0
  -24.6510   -2.1100  -16.7610 O   0  0  0  0  0  0  0  0  0  0  0  0
  -27.0940   -2.7330  -16.9790 O   0  0  0  0  0  0  0  0  0  0  0  0
  -26.6190   -0.3590  -16.5520 O   0  0  0  0  0  0  0  0  0  0  0  0
  -25.7770    0.9620  -16.6280 P   0  0  0  0  0  0  0  0  0  0  0  0
  -25.4470    1.2230  -18.0930 O   0  0  0  0  0  0  0  0  0  0  0  0
  -24.5370    0.9260  -15.7600 O   0  0  0  0  0  0  0  0  0  0  0  0
  -26.6840    2.0340  -16.1190 O   0  0  0  0  0  0  0  0  0  0  0  0
  -30.5270    0.6467  -12.2034 H   0  0  0  0  0  0  0  0  0  0  0  0
  -31.1676    1.4865  -13.6563 H   0  0  0  0  0  0  0  0  0  0  0  0
  -30.9929   -0.3012  -13.6563 H   0  0  0  0  0  0  0  0  0  0  0  0
  -28.0542   -0.3605  -12.4813 H   0  0  0  0  0  0  0  0  0  0  0  0
  -27.2196    0.1448  -14.0349 H   0  0  0  0  0  0  0  0  0  0  0  0
  -28.6523   -1.4273  -15.2470 H   0  0  0  0  0  0  0  0  0  0  0  0
  -29.2403   -2.0164  -13.6037 H   0  0  0  0  0  0  0  0  0  0  0  0
  -27.6458   -3.5269  -14.4870 H   0  0  0  0  0  0  0  0  0  0  0  0
  -26.9908   -2.6050  -13.0421 H   0  0  0  0  0  0  0  0  0  0  0  0
  -24.0960   -2.2030  -15.9465 H   0  0  0  0  0  0  0  0  0  0  0  0
  -24.8016    0.9337  -14.8061 H   0  0  0  0  0  0  0  0  0  0  0  0
  -26.6789    2.0280  -15.1290 H   0  0  0  0  0  0  0  0  0  0  0  0
 13 12  2  0
 10  8  2  0
  9  8  1  0
 12 11  1  0
 12 15  1  0
 12 14  1  0
 11  8  1  0
  8  7  1  0
  7  6  1  0
  1  2  2  0
  5  6  1  0
  5  4  1  0
  2  4  1  0
  2  3  1  0
  3 16  1  0
  3 17  1  0
  3 18  1  0
  4 19  1  0
  4 20  1  0
  5 21  1  0
  5 22  1  0
  6 23  1  0
  6 24  1  0
  9 25  1  0
 14 26  1  0
 15 27  1  0
A    1
O25
A    2
C13
A    3
C22
A    4
C30
A    5
C27
A    6
C28
A    7
O29
A    8
P13
A    9
O15
A   10
O14
A   11
O16
A   12
P17
A   13
O20
A   14
O18
A   15
O19
M  END
