3UUZ_0CB_A_481
     RDKit          3D

 69 72  0  0  0  0  0  0  0  0999 V2000
   -3.6410   -7.3090   30.4090 C   0  0  0  0  0  0  0  0  0  0  0  0
   -4.8180   -6.5820   30.4550 C   0  0  0  0  0  0  0  0  0  0  0  0
   -5.4020   -7.6390   32.5570 C   0  0  0  0  0  0  0  0  0  0  0  0
   -6.9480   -5.9570   31.6080 C   0  0  0  0  0  0  0  0  0  0  0  0
   -2.1890   -8.9720   31.3730 C   0  0  0  0  0  0  0  0  0  0  0  0
   -1.9000   -9.8830   32.3800 C   0  0  0  0  0  0  0  0  0  0  0  0
   -2.7710  -10.0280   33.4530 C   0  0  0  0  0  0  0  0  0  0  0  0
   -3.9410   -9.2850   33.5090 C   0  0  0  0  0  0  0  0  0  0  0  0
   -4.2340   -8.3780   32.4940 C   0  0  0  0  0  0  0  0  0  0  0  0
   -3.3590   -8.2190   31.4270 C   0  0  0  0  0  0  0  0  0  0  0  0
    1.1220  -12.0990   34.8220 O   0  0  0  0  0  0  0  0  0  0  0  0
   -0.2870  -12.3690   34.9720 S   0  0  0  0  0  0  0  0  0  0  0  0
   -0.7170  -13.2250   33.9060 O   0  0  0  0  0  0  0  0  0  0  0  0
   -0.5480  -13.0750   36.4570 C   0  0  0  0  0  0  0  0  0  0  0  0
   -0.3470  -14.5700   36.3560 C   0  0  0  0  0  0  0  0  0  0  0  0
   -1.3610  -15.3070   36.3590 O   0  0  0  0  0  0  0  0  0  0  0  0
    0.8280  -15.0060   36.2650 O   0  0  0  0  0  0  0  0  0  0  0  0
   -1.0990  -11.0640   34.9710 N   0  0  0  0  0  0  0  0  0  0  0  0
   -2.4910  -11.0350   34.5510 C   0  0  0  0  0  0  0  0  0  0  0  0
   -5.6850   -6.7350   31.5420 C   0  0  0  0  0  0  0  0  0  0  0  0
   -7.8540   -6.2870   32.5400 N   0  0  0  0  0  0  0  0  0  0  0  0
   -7.1610   -5.0230   30.7690 N   0  0  0  0  0  0  0  0  0  0  0  0
   -0.5100   -9.9140   35.4870 C   0  0  0  0  0  0  0  0  0  0  0  0
   -0.9660   -9.3980   36.7050 C   0  0  0  0  0  0  0  0  0  0  0  0
   -0.3640   -8.2580   37.2360 C   0  0  0  0  0  0  0  0  0  0  0  0
    0.6770   -7.6500   36.5390 C   0  0  0  0  0  0  0  0  0  0  0  0
    1.1170   -8.1630   35.3230 C   0  0  0  0  0  0  0  0  0  0  0  0
    0.5190   -9.2960   34.7950 C   0  0  0  0  0  0  0  0  0  0  0  0
    1.3070   -6.5360   37.0110 O   0  0  0  0  0  0  0  0  0  0  0  0
    0.6770   -5.6660   37.9180 C   0  0  0  0  0  0  0  0  0  0  0  0
   -0.1320   -4.6640   37.1050 C   0  0  0  0  0  0  0  0  0  0  0  0
    0.7350   -3.6900   36.3250 C   0  0  0  0  0  0  0  0  0  0  0  0
    1.6310   -3.0720   37.2890 N   0  0  0  0  0  0  0  0  0  0  0  0
    1.5950   -1.7720   37.6080 C   0  0  0  0  0  0  0  0  0  0  0  0
    0.5750   -0.8640   36.9970 C   0  0  0  0  0  0  0  0  0  0  0  0
    2.3870   -1.2550   38.4460 N   0  0  0  0  0  0  0  0  0  0  0  0
    2.6010   -4.0000   37.8620 C   0  0  0  0  0  0  0  0  0  0  0  0
    1.7850   -4.9700   38.7040 C   0  0  0  0  0  0  0  0  0  0  0  0
   -2.9348   -7.1701   29.5771 H   0  0  0  0  0  0  0  0  0  0  0  0
   -5.0704   -5.8871   29.6405 H   0  0  0  0  0  0  0  0  0  0  0  0
   -6.0971   -7.7660   33.4000 H   0  0  0  0  0  0  0  0  0  0  0  0
   -1.4925   -8.8449   30.5311 H   0  0  0  0  0  0  0  0  0  0  0  0
   -0.9833  -10.4888   32.3286 H   0  0  0  0  0  0  0  0  0  0  0  0
   -4.6353   -9.4120   34.3527 H   0  0  0  0  0  0  0  0  0  0  0  0
    0.1611  -12.6598   37.1884 H   0  0  0  0  0  0  0  0  0  0  0  0
   -1.5786  -12.8683   36.7812 H   0  0  0  0  0  0  0  0  0  0  0  0
   -1.7597  -15.5968   37.2175 H   0  0  0  0  0  0  0  0  0  0  0  0
   -3.1123  -10.7814   35.4226 H   0  0  0  0  0  0  0  0  0  0  0  0
   -2.7271  -12.0298   34.1452 H   0  0  0  0  0  0  0  0  0  0  0  0
   -7.6194   -6.2016   33.5393 H   0  0  0  0  0  0  0  0  0  0  0  0
   -8.7844   -6.6259   32.2565 H   0  0  0  0  0  0  0  0  0  0  0  0
   -8.0361   -4.4816   30.8122 H   0  0  0  0  0  0  0  0  0  0  0  0
   -1.7931   -9.8880   37.2396 H   0  0  0  0  0  0  0  0  0  0  0  0
   -0.7077   -7.8434   38.1952 H   0  0  0  0  0  0  0  0  0  0  0  0
    1.9380   -7.6701   34.7817 H   0  0  0  0  0  0  0  0  0  0  0  0
    0.8595   -9.7027   33.8313 H   0  0  0  0  0  0  0  0  0  0  0  0
    0.0026   -6.1854   38.6147 H   0  0  0  0  0  0  0  0  0  0  0  0
   -0.7713   -4.0905   37.7923 H   0  0  0  0  0  0  0  0  0  0  0  0
   -0.7221   -5.2357   36.3736 H   0  0  0  0  0  0  0  0  0  0  0  0
    1.3132   -4.2260   35.5580 H   0  0  0  0  0  0  0  0  0  0  0  0
    0.1219   -2.9352   35.8109 H   0  0  0  0  0  0  0  0  0  0  0  0
    0.0086   -0.3598   37.7939 H   0  0  0  0  0  0  0  0  0  0  0  0
    1.0804   -0.1114   36.3739 H   0  0  0  0  0  0  0  0  0  0  0  0
   -0.1140   -1.4531   36.3739 H   0  0  0  0  0  0  0  0  0  0  0  0
    3.1091   -1.8343   38.8975 H   0  0  0  0  0  0  0  0  0  0  0  0
    3.1358   -4.5379   37.0654 H   0  0  0  0  0  0  0  0  0  0  0  0
    3.3613   -3.4780   38.4615 H   0  0  0  0  0  0  0  0  0  0  0  0
    2.4621   -5.7374   39.1074 H   0  0  0  0  0  0  0  0  0  0  0  0
    1.3018   -4.3843   39.5000 H   0  0  0  0  0  0  0  0  0  0  0  0
  1  2  2  0
  1 10  1  0
  2 20  1  0
 22  4  2  3
  5 10  2  0
  5  6  1  0
 10  9  1  0
 20  4  1  0
 20  3  2  0
  4 21  1  0
  6  7  2  0
  9  3  1  0
  9  8  2  0
  7  8  1  0
  7 19  1  0
 13 12  2  0
 19 18  1  0
 28 27  2  0
 28 23  1  0
 11 12  2  0
 18 12  1  0
 18 23  1  0
 12 14  1  0
 27 26  1  0
 23 24  2  0
 17 15  2  0
 32 31  1  0
 32 33  1  0
 15 16  1  0
 15 14  1  0
 26 29  1  0
 26 25  2  0
 24 25  1  0
 35 34  1  0
 29 30  1  0
 31 30  1  0
 33 34  1  0
 33 37  1  0
 34 36  2  3
 37 38  1  0
 30 38  1  0
  1 39  1  0
  2 40  1  0
  3 41  1  0
  5 42  1  0
  6 43  1  0
  8 44  1  0
 14 45  1  0
 14 46  1  0
 16 47  1  0
 19 48  1  0
 19 49  1  0
 21 50  1  0
 21 51  1  0
 22 52  1  0
 24 53  1  0
 25 54  1  0
 27 55  1  0
 28 56  1  0
 30 57  1  0
 31 58  1  0
 31 59  1  0
 32 60  1  0
 32 61  1  0
 35 62  1  0
 35 63  1  0
 35 64  1  0
 36 65  1  0
 37 66  1  0
 37 67  1  0
 38 68  1  0
 38 69  1  0
A    1
C13
A    2
C14
A    3
C16
A    4
C22
A    5
C1
A    6
C2
A    7
C3
A    8
C4
A    9
C5
A   10
C6
A   11
O36
A   12
S32
A   13
O38
A   14
C34
A   15
C53
A   16
O57
A   17
O54
A   18
N30
A   19
C28
A   20
C15
A   21
N26
A   22
N24
A   23
C40
A   24
C46
A   25
C45
A   26
C44
A   27
C43
A   28
C42
A   29
O59
A   30
C61
A   31
C67
A   32
C66
A   33
N65
A   34
C74
A   35
C76
A   36
N82
A   37
C64
A   38
C63
M  END
