3UV3_0CM_A_318
     RDKit          3D

 21 20  0  0  0  0  0  0  0  0999 V2000
  -24.6890    0.8650  -15.6510 O   0  0  0  0  0  0  0  0  0  0  0  0
  -25.9140    0.8980  -16.4480 P   0  0  0  0  0  0  0  0  0  0  0  0
  -25.6210    1.0140  -17.9520 O   0  0  0  0  0  0  0  0  0  0  0  0
  -26.8400    1.9670  -16.0040 O   0  0  0  0  0  0  0  0  0  0  0  0
  -26.6050   -0.4910  -16.2920 O   0  0  0  0  0  0  0  0  0  0  0  0
  -26.0860   -1.9750  -16.2290 P   0  0  0  0  0  0  0  0  0  0  0  0
  -24.7150   -2.1540  -16.7940 O   0  0  0  0  0  0  0  0  0  0  0  0
  -27.1580   -2.7690  -16.7610 O   0  0  0  0  0  0  0  0  0  0  0  0
  -25.9290   -2.3200  -14.7340 O   0  0  0  0  0  0  0  0  0  0  0  0
  -26.6110   -1.7960  -13.5040 C   0  0  0  0  0  0  0  0  0  0  0  0
  -28.0290   -1.5780  -13.8160 C   0  0  0  0  0  0  0  0  0  0  0  0
  -29.2330   -1.3750  -14.0620 C   0  0  0  0  0  0  0  0  0  0  0  0
  -30.6400   -1.1310  -14.3060 C   0  0  0  0  0  0  0  0  0  0  0  0
  -24.9212    0.8713  -14.6886 H   0  0  0  0  0  0  0  0  0  0  0  0
  -26.8631    1.9937  -15.0146 H   0  0  0  0  0  0  0  0  0  0  0  0
  -27.6822   -3.1572  -16.0163 H   0  0  0  0  0  0  0  0  0  0  0  0
  -26.1477   -0.8461  -13.1988 H   0  0  0  0  0  0  0  0  0  0  0  0
  -26.5125   -2.5191  -12.6809 H   0  0  0  0  0  0  0  0  0  0  0  0
  -31.1682   -1.0394  -13.3455 H   0  0  0  0  0  0  0  0  0  0  0  0
  -30.7566   -0.1992  -14.8789 H   0  0  0  0  0  0  0  0  0  0  0  0
  -31.0635   -1.9691  -14.8789 H   0  0  0  0  0  0  0  0  0  0  0  0
 10 11  1  0
 10  9  1  0
 11 12  3  0
 12 13  1  0
  9  6  1  0
  3  2  2  0
  4  2  1  0
  6  5  1  0
  6  7  2  0
  6  8  1  0
  5  2  1  0
  2  1  1  0
  1 14  1  0
  4 15  1  0
  8 16  1  0
 10 17  1  0
 10 18  1  0
 13 19  1  0
 13 20  1  0
 13 21  1  0
A    1
O12
A    2
P8
A    3
O13
A    4
O9
A    5
O7
A    6
P6
A    7
O10
A    8
O11
A    9
O5
A   10
C4
A   11
C3
A   12
C2
A   13
C1
M  END
