3UV6_0CH_A_318
     RDKit          3D

 26 25  0  0  0  0  0  0  0  0999 V2000
  -25.5210    1.1680  -18.0010 O   0  0  0  0  0  0  0  0  0  0  0  0
  -25.8180    0.9120  -16.5080 P   0  0  0  0  0  0  0  0  0  0  0  0
  -24.6170    0.8620  -15.6340 O   0  0  0  0  0  0  0  0  0  0  0  0
  -26.8670    1.9210  -16.0190 O   0  0  0  0  0  0  0  0  0  0  0  0
  -26.6450   -0.4550  -16.4500 O   0  0  0  0  0  0  0  0  0  0  0  0
  -26.0310   -1.9210  -16.2860 P   0  0  0  0  0  0  0  0  0  0  0  0
  -24.6850   -2.1480  -16.7900 O   0  0  0  0  0  0  0  0  0  0  0  0
  -27.1190   -2.8490  -16.8860 O   0  0  0  0  0  0  0  0  0  0  0  0
  -25.8460   -2.2700  -14.7270 O   0  0  0  0  0  0  0  0  0  0  0  0
  -27.0050   -2.4980  -13.8590 C   0  0  0  0  0  0  0  0  0  0  0  0
  -27.9100   -1.2440  -13.8330 C   0  0  0  0  0  0  0  0  0  0  0  0
  -29.3850   -1.5750  -14.1860 C   0  0  0  0  0  0  0  0  0  0  0  0
  -30.2670   -0.4150  -13.7390 C   0  0  0  0  0  0  0  0  0  0  0  0
  -29.4770    0.4660  -12.9860 O   0  0  0  0  0  0  0  0  0  0  0  0
  -24.8988    0.8737  -14.6850 H   0  0  0  0  0  0  0  0  0  0  0  0
  -26.8782    1.9318  -15.0291 H   0  0  0  0  0  0  0  0  0  0  0  0
  -24.0609   -2.2532  -16.0287 H   0  0  0  0  0  0  0  0  0  0  0  0
  -27.5814   -3.3538  -14.2403 H   0  0  0  0  0  0  0  0  0  0  0  0
  -26.6524   -2.7065  -12.8381 H   0  0  0  0  0  0  0  0  0  0  0  0
  -27.8774   -0.8050  -12.8249 H   0  0  0  0  0  0  0  0  0  0  0  0
  -27.5324   -0.5406  -14.5897 H   0  0  0  0  0  0  0  0  0  0  0  0
  -29.4826   -1.7169  -15.2724 H   0  0  0  0  0  0  0  0  0  0  0  0
  -29.6941   -2.4990  -13.6755 H   0  0  0  0  0  0  0  0  0  0  0  0
  -30.6722    0.1063  -14.6188 H   0  0  0  0  0  0  0  0  0  0  0  0
  -31.1078   -0.7856  -13.1344 H   0  0  0  0  0  0  0  0  0  0  0  0
  -29.6257    0.3002  -12.0214 H   0  0  0  0  0  0  0  0  0  0  0  0
  1  2  2  0
  8  6  2  0
  2  5  1  0
  2  3  1  0
  2  4  1  0
  7  6  1  0
  5  6  1  0
  6  9  1  0
  9 10  1  0
 11 10  1  0
 11 12  1  0
 13 12  1  0
 13 14  1  0
  3 15  1  0
  4 16  1  0
  7 17  1  0
 10 18  1  0
 10 19  1  0
 11 20  1  0
 11 21  1  0
 12 22  1  0
 12 23  1  0
 13 24  1  0
 13 25  1  0
 14 26  1  0
A    1
O20
A    2
P17
A    3
O19
A    4
O18
A    5
O16
A    6
P13
A    7
O15
A    8
O14
A    9
O29
A   10
C28
A   11
C27
A   12
C30
A   13
C13
A   14
O33
M  END
