3UVP_048_A_361
     RDKit          3D

 50 53  0  0  0  0  0  0  0  0999 V2000
  -18.1660   -1.3740  -26.6470 O   0  0  0  0  0  0  0  0  0  0  0  0
  -18.1280    4.2010  -19.3870 O   0  0  0  0  0  0  0  0  0  0  0  0
  -22.6550    4.7150  -19.4720 F   0  0  0  0  0  0  0  0  0  0  0  0
  -17.7760    7.4170  -15.5520 C   0  0  0  0  0  0  0  0  0  0  0  0
  -17.5450    7.7140  -16.8950 C   0  0  0  0  0  0  0  0  0  0  0  0
  -18.3800    6.2180  -15.1680 C   0  0  0  0  0  0  0  0  0  0  0  0
  -17.9330    6.8050  -17.8810 C   0  0  0  0  0  0  0  0  0  0  0  0
  -18.7610    5.3060  -16.1480 C   0  0  0  0  0  0  0  0  0  0  0  0
  -22.7000    2.6540  -20.6720 C   0  0  0  0  0  0  0  0  0  0  0  0
  -22.0550    1.4590  -21.0010 C   0  0  0  0  0  0  0  0  0  0  0  0
  -20.0570    0.1460  -23.2250 C   0  0  0  0  0  0  0  0  0  0  0  0
  -19.6480   -0.4320  -24.4290 C   0  0  0  0  0  0  0  0  0  0  0  0
  -19.0920   -1.6830  -21.9910 C   0  0  0  0  0  0  0  0  0  0  0  0
  -20.1530    2.0910  -19.6640 C   0  0  0  0  0  0  0  0  0  0  0  0
  -17.6670   -4.4700  -25.2430 C   0  0  0  0  0  0  0  0  0  0  0  0
  -18.2730   -4.7360  -23.8570 C   0  0  0  0  0  0  0  0  0  0  0  0
  -18.6220   -3.6510  -26.1270 C   0  0  0  0  0  0  0  0  0  0  0  0
  -17.8980   -3.5860  -22.9210 C   0  0  0  0  0  0  0  0  0  0  0  0
  -20.2280    4.1880  -18.5060 N   0  0  0  0  0  0  0  0  0  0  0  0
  -20.1240    0.0100  -20.7990 N   0  0  0  0  0  0  0  0  0  0  0  0
  -18.5580   -2.1640  -25.7830 C   0  0  0  0  0  0  0  0  0  0  0  0
  -18.9550    4.5920  -18.5670 C   0  0  0  0  0  0  0  0  0  0  0  0
  -22.0610    3.5620  -19.8280 C   0  0  0  0  0  0  0  0  0  0  0  0
  -19.7810   -0.4810  -21.9970 C   0  0  0  0  0  0  0  0  0  0  0  0
  -20.7660    1.1700  -20.5190 C   0  0  0  0  0  0  0  0  0  0  0  0
  -18.5460    5.6030  -17.5000 C   0  0  0  0  0  0  0  0  0  0  0  0
  -18.6750   -2.2650  -23.1850 C   0  0  0  0  0  0  0  0  0  0  0  0
  -20.7930    3.2930  -19.3310 C   0  0  0  0  0  0  0  0  0  0  0  0
  -18.9510   -1.6410  -24.4000 C   0  0  0  0  0  0  0  0  0  0  0  0
  -17.4766    8.1414  -14.7802 H   0  0  0  0  0  0  0  0  0  0  0  0
  -17.0593    8.6601  -17.1760 H   0  0  0  0  0  0  0  0  0  0  0  0
  -18.5525    5.9970  -14.1043 H   0  0  0  0  0  0  0  0  0  0  0  0
  -17.7599    7.0291  -18.9439 H   0  0  0  0  0  0  0  0  0  0  0  0
  -19.2303    4.3533  -15.8612 H   0  0  0  0  0  0  0  0  0  0  0  0
  -23.6997    2.8759  -21.0738 H   0  0  0  0  0  0  0  0  0  0  0  0
  -22.5649    0.7309  -21.6490 H   0  0  0  0  0  0  0  0  0  0  0  0
  -20.6009    1.1020  -23.2376 H   0  0  0  0  0  0  0  0  0  0  0  0
  -19.8722    0.0591  -25.3874 H   0  0  0  0  0  0  0  0  0  0  0  0
  -18.8727   -2.1814  -21.0352 H   0  0  0  0  0  0  0  0  0  0  0  0
  -19.1587    1.8702  -19.2485 H   0  0  0  0  0  0  0  0  0  0  0  0
  -16.7264   -3.9129  -25.1211 H   0  0  0  0  0  0  0  0  0  0  0  0
  -17.4875   -5.4383  -25.7331 H   0  0  0  0  0  0  0  0  0  0  0  0
  -19.3679   -4.8023  -23.9397 H   0  0  0  0  0  0  0  0  0  0  0  0
  -17.8834   -5.6835  -23.4565 H   0  0  0  0  0  0  0  0  0  0  0  0
  -18.3400   -3.7874  -27.1815 H   0  0  0  0  0  0  0  0  0  0  0  0
  -19.6485   -4.0047  -25.9501 H   0  0  0  0  0  0  0  0  0  0  0  0
  -18.1000   -3.9035  -21.8874 H   0  0  0  0  0  0  0  0  0  0  0  0
  -16.8352   -3.3672  -23.1017 H   0  0  0  0  0  0  0  0  0  0  0  0
  -20.8209    4.5952  -17.7688 H   0  0  0  0  0  0  0  0  0  0  0  0
  -19.8668   -0.5683  -19.9864 H   0  0  0  0  0  0  0  0  0  0  0  0
  1 21  2  0
  2 22  2  0
  3 23  1  0
  4  5  2  0
  4  6  1  0
  5  7  1  0
  6  8  2  0
  7 26  2  0
  8 26  1  0
  9 10  2  0
  9 23  1  0
 10 25  1  0
 11 12  2  0
 11 24  1  0
 12 29  1  0
 13 24  2  0
 13 27  1  0
 14 25  2  0
 14 28  1  0
 15 16  1  0
 15 17  1  0
 16 18  1  0
 17 21  1  0
 18 27  1  0
 19 22  1  0
 19 28  1  0
 20 24  1  0
 20 25  1  0
 21 29  1  0
 22 26  1  0
 23 28  2  0
 27 29  2  0
  4 30  1  0
  5 31  1  0
  6 32  1  0
  7 33  1  0
  8 34  1  0
  9 35  1  0
 10 36  1  0
 11 37  1  0
 12 38  1  0
 13 39  1  0
 14 40  1  0
 15 41  1  0
 15 42  1  0
 16 43  1  0
 16 44  1  0
 17 45  1  0
 17 46  1  0
 18 47  1  0
 18 48  1  0
 19 49  1  0
 20 50  1  0
A    1
OAA
A    2
OAB
A    3
FAC
A    4
CAD
A    5
CAE
A    6
CAF
A    7
CAG
A    8
CAH
A    9
CAI
A   10
CAJ
A   11
CAK
A   12
CAL
A   13
CAM
A   14
CAN
A   15
CAO
A   16
CAP
A   17
CAQ
A   18
CAR
A   19
NAS
A   20
NAT
A   21
CAU
A   22
CAV
A   23
CAW
A   24
CAX
A   25
CAY
A   26
CAZ
A   27
CBA
A   28
CBB
A   29
CBC
M  END
