3UX0_0DV_A_238
     RDKit          3D

 76 79  0  0  0  0  0  0  0  0999 V2000
   26.8490  -18.4510    0.7040 C   0  0  0  0  0  0  0  0  0  0  0  0
   26.0880  -18.3320   -0.6440 C   0  0  0  0  0  0  0  0  0  0  0  0
   26.7310  -17.1870   -1.4570 C   0  0  0  0  0  0  0  0  0  0  0  0
   24.5500  -18.1460   -0.4430 C   0  0  0  0  0  0  0  0  0  0  0  0
   23.5800  -18.9990   -0.9040 C   0  0  0  0  0  0  0  0  0  0  0  0
   24.0280  -17.0540    0.2980 C   0  0  0  0  0  0  0  0  0  0  0  0
   22.5610  -17.0100   -0.1190 C   0  0  0  0  0  0  0  0  0  0  0  0
   22.2960  -18.4870   -0.4350 C   0  0  0  0  0  0  0  0  0  0  0  0
   21.1260  -18.5290   -1.4760 C   0  0  0  0  0  0  0  0  0  0  0  0
   21.8400  -19.0350    0.8000 C   0  0  0  0  0  0  0  0  0  0  0  0
   22.2490  -19.9920    1.6700 C   0  0  0  0  0  0  0  0  0  0  0  0
   21.6090  -20.3020    2.9090 C   0  0  0  0  0  0  0  0  0  0  0  0
   20.1480  -20.7500    2.6770 C   0  0  0  0  0  0  0  0  0  0  0  0
   19.2740  -20.4050    3.7770 O   0  0  0  0  0  0  0  0  0  0  0  0
   22.3940  -21.4140    3.6210 C   0  0  0  0  0  0  0  0  0  0  0  0
   23.6950  -21.5320    2.8690 C   0  0  0  0  0  0  0  0  0  0  0  0
   23.4060  -20.8290    1.4940 C   0  0  0  0  0  0  0  0  0  0  0  0
   23.2960  -21.9190    0.3470 C   0  0  0  0  0  0  0  0  0  0  0  0
   21.8380  -22.3100   -0.1030 C   0  0  0  0  0  0  0  0  0  0  0  0
   24.1450  -21.5160   -0.8650 C   0  0  0  0  0  0  0  0  0  0  0  0
   24.2000  -22.6490   -1.7670 O   0  0  0  0  0  0  0  0  0  0  0  0
   23.6470  -20.2440   -1.6740 C   0  0  0  0  0  0  0  0  0  0  0  0
   24.5160  -20.1190   -2.8300 O   0  0  0  0  0  0  0  0  0  0  0  0
   23.8490  -20.1970   -4.1560 C   0  0  0  0  0  0  0  0  0  0  0  0
   23.0640  -18.9830   -4.4500 O   0  0  0  0  0  0  0  0  0  0  0  0
   23.7790  -17.7330   -4.7460 C   0  0  0  0  0  0  0  0  0  0  0  0
   23.1800  -17.1500   -6.0350 C   0  0  0  0  0  0  0  0  0  0  0  0
   21.8940  -16.6280   -5.7120 O   0  0  0  0  0  0  0  0  0  0  0  0
   25.3000  -17.9450   -4.8810 C   0  0  0  0  0  0  0  0  0  0  0  0
   25.9810  -16.6830   -5.2430 O   0  0  0  0  0  0  0  0  0  0  0  0
   25.5570  -19.1400   -5.8590 C   0  0  0  0  0  0  0  0  0  0  0  0
   26.9470  -19.3110   -6.1560 O   0  0  0  0  0  0  0  0  0  0  0  0
   24.8670  -20.4860   -5.3320 C   0  0  0  0  0  0  0  0  0  0  0  0
   25.8220  -21.5670   -5.0180 O   0  0  0  0  0  0  0  0  0  0  0  0
   26.1391  -18.3400    1.5369 H   0  0  0  0  0  0  0  0  0  0  0  0
   27.3348  -19.4360    0.7651 H   0  0  0  0  0  0  0  0  0  0  0  0
   27.6123  -17.6613    0.7651 H   0  0  0  0  0  0  0  0  0  0  0  0
   26.1816  -19.2717   -1.2081 H   0  0  0  0  0  0  0  0  0  0  0  0
   27.1510  -16.4392   -0.7682 H   0  0  0  0  0  0  0  0  0  0  0  0
   27.5331  -17.5929   -2.0909 H   0  0  0  0  0  0  0  0  0  0  0  0
   25.9669  -16.7134   -2.0909 H   0  0  0  0  0  0  0  0  0  0  0  0
   24.1243  -17.2307    1.3794 H   0  0  0  0  0  0  0  0  0  0  0  0
   24.5579  -16.1103    0.1015 H   0  0  0  0  0  0  0  0  0  0  0  0
   22.4128  -16.3754   -1.0052 H   0  0  0  0  0  0  0  0  0  0  0  0
   21.8888  -16.5833    0.6400 H   0  0  0  0  0  0  0  0  0  0  0  0
   20.1635  -18.5636   -0.9446 H   0  0  0  0  0  0  0  0  0  0  0  0
   21.1643  -17.6289   -2.1072 H   0  0  0  0  0  0  0  0  0  0  0  0
   21.2287  -19.4240   -2.1072 H   0  0  0  0  0  0  0  0  0  0  0  0
   20.9097  -18.5540    1.1364 H   0  0  0  0  0  0  0  0  0  0  0  0
   21.5934  -19.3989    3.5368 H   0  0  0  0  0  0  0  0  0  0  0  0
   19.7724  -20.2646    1.7642 H   0  0  0  0  0  0  0  0  0  0  0  0
   20.1484  -21.8462    2.5859 H   0  0  0  0  0  0  0  0  0  0  0  0
   19.7348  -20.5869    4.6342 H   0  0  0  0  0  0  0  0  0  0  0  0
   21.8390  -22.3629    3.5807 H   0  0  0  0  0  0  0  0  0  0  0  0
   22.5562  -21.1831    4.6842 H   0  0  0  0  0  0  0  0  0  0  0  0
   23.9653  -22.5877    2.7190 H   0  0  0  0  0  0  0  0  0  0  0  0
   24.5380  -21.0755    3.4083 H   0  0  0  0  0  0  0  0  0  0  0  0
   24.2256  -20.1718    1.1679 H   0  0  0  0  0  0  0  0  0  0  0  0
   23.6916  -22.8360    0.8080 H   0  0  0  0  0  0  0  0  0  0  0  0
   21.2124  -22.4778    0.7861 H   0  0  0  0  0  0  0  0  0  0  0  0
   21.4090  -21.4952   -0.7047 H   0  0  0  0  0  0  0  0  0  0  0  0
   21.8743  -23.2301   -0.7047 H   0  0  0  0  0  0  0  0  0  0  0  0
   25.1266  -21.2280   -0.4606 H   0  0  0  0  0  0  0  0  0  0  0  0
   24.2407  -23.4872   -1.2418 H   0  0  0  0  0  0  0  0  0  0  0  0
   22.5982  -20.4068   -1.9628 H   0  0  0  0  0  0  0  0  0  0  0  0
   23.1585  -21.0510   -4.0937 H   0  0  0  0  0  0  0  0  0  0  0  0
   23.6516  -17.0309   -3.9089 H   0  0  0  0  0  0  0  0  0  0  0  0
   23.0848  -17.9392   -6.7953 H   0  0  0  0  0  0  0  0  0  0  0  0
   23.8284  -16.3592   -6.4403 H   0  0  0  0  0  0  0  0  0  0  0  0
   21.7922  -16.5867   -4.7281 H   0  0  0  0  0  0  0  0  0  0  0  0
   25.7468  -18.2257   -3.9158 H   0  0  0  0  0  0  0  0  0  0  0  0
   26.2414  -16.2004   -4.4188 H   0  0  0  0  0  0  0  0  0  0  0  0
   25.0752  -18.8883   -6.8153 H   0  0  0  0  0  0  0  0  0  0  0  0
   27.4596  -19.3741   -5.3114 H   0  0  0  0  0  0  0  0  0  0  0  0
   24.2818  -20.8778   -6.1770 H   0  0  0  0  0  0  0  0  0  0  0  0
   25.9040  -21.6599   -4.0358 H   0  0  0  0  0  0  0  0  0  0  0  0
 32 31  1  0
 27 28  1  0
 27 26  1  0
 31 33  1  0
 31 29  1  0
 33 34  1  0
 33 24  1  0
 30 29  1  0
 29 26  1  0
 26 25  1  0
 25 24  1  0
 24 23  1  0
 23 22  1  0
 21 20  1  0
 22  5  1  0
 22 20  1  0
  9  8  1  0
  3  2  1  0
  5  4  2  0
  5  8  1  0
 20 18  1  0
  2  4  1  0
  2  1  1  0
  4  6  1  0
  8  7  1  0
  8 10  1  0
  7  6  1  0
 19 18  1  0
 18 17  1  0
 10 11  2  0
 17 11  1  0
 17 16  1  0
 11 12  1  0
 13 12  1  0
 13 14  1  0
 16 15  1  0
 12 15  1  0
  1 35  1  0
  1 36  1  0
  1 37  1  0
  2 38  1  0
  3 39  1  0
  3 40  1  0
  3 41  1  0
  6 42  1  0
  6 43  1  0
  7 44  1  0
  7 45  1  0
  9 46  1  0
  9 47  1  0
  9 48  1  0
 10 49  1  0
 12 50  1  0
 13 51  1  0
 13 52  1  0
 14 53  1  0
 15 54  1  0
 15 55  1  0
 16 56  1  0
 16 57  1  0
 17 58  1  0
 18 59  1  0
 19 60  1  0
 19 61  1  0
 19 62  1  0
 20 63  1  0
 21 64  1  0
 22 65  1  0
 24 66  1  0
 26 67  1  0
 27 68  1  0
 27 69  1  0
 28 70  1  0
 29 71  1  0
 30 72  1  0
 31 73  1  0
 32 74  1  0
 33 75  1  0
 34 76  1  0
A    1
CAQ
A    2
CAP
A    3
CAR
A    4
CAN
A    5
CAF
A    6
CAM
A    7
CAL
A    8
CAE
A    9
CAO
A   10
CAD
A   11
CAC
A   12
CAK
A   13
CAV
A   14
OBH
A   15
CAJ
A   16
CAI
A   17
CAB
A   18
CAA
A   19
CAS
A   20
CAH
A   21
OAU
A   22
CAG
A   23
O1
A   24
C1
A   25
O5
A   26
C5
A   27
C6
A   28
O6
A   29
C4
A   30
O4
A   31
C3
A   32
O3
A   33
C2
A   34
O2
M  END
