3UXD_0CU_A_291
     RDKit          3D

 14 15  0  0  0  0  0  0  0  0999 V2000
    8.5550   -0.9930    9.0210 C   0  0  0  0  0  0  0  0  0  0  0  0
    9.5340   -1.4190    8.2540 N   0  0  0  0  0  0  0  0  0  0  0  0
   10.6120   -1.0900    8.7570 N   0  0  0  0  0  0  0  0  0  0  0  0
   10.4700   -0.4670    9.8150 N   0  0  0  0  0  0  0  0  0  0  0  0
    9.1830   -0.3480   10.0640 C   0  0  0  0  0  0  0  0  0  0  0  0
    8.4560    0.2500   11.0660 C   0  0  0  0  0  0  0  0  0  0  0  0
    7.0940    0.1330   10.9720 C   0  0  0  0  0  0  0  0  0  0  0  0
    6.1480    0.8410   12.1700 Cl  0  0  0  0  0  0  0  0  0  0  0  0
    6.4240   -0.4970    9.9360 C   0  0  0  0  0  0  0  0  0  0  0  0
    7.1750   -1.0790    8.9420 C   0  0  0  0  0  0  0  0  0  0  0  0
    6.3910   -1.8970    7.6300 Cl  0  0  0  0  0  0  0  0  0  0  0  0
    9.4198   -1.9431    7.3747 H   0  0  0  0  0  0  0  0  0  0  0  0
    8.9389    0.7901   11.8937 H   0  0  0  0  0  0  0  0  0  0  0  0
    5.3248   -0.5306    9.9094 H   0  0  0  0  0  0  0  0  0  0  0  0
 11 10  1  0
  2  3  1  0
  2  1  1  0
  3  4  2  0
 10  1  2  0
 10  9  1  0
  1  5  1  0
  4  5  1  0
  9  7  2  0
  5  6  2  0
  7  6  1  0
  7  8  1  0
  2 12  1  0
  6 13  1  0
  9 14  1  0
A    1
CAK
A    2
NAG
A    3
NAE
A    4
NAF
A    5
CAJ
A    6
CAD
A    7
CAH
A    8
CLA
A    9
CAC
A   10
CAI
A   11
CLB
M  END
