3UXE_465_A_303
     RDKit          3D

 31 33  0  0  0  0  0  0  0  0999 V2000
   -4.1450   -3.7720  -15.3050 C   0  0  0  0  0  0  0  0  0  0  0  0
   -4.1130   -5.2810  -15.3720 C   0  0  0  0  0  0  0  0  0  0  0  0
   -3.2660   -6.0430  -16.1590 C   0  0  0  0  0  0  0  0  0  0  0  0
   -2.3020   -5.3050  -16.9220 C   0  0  0  0  0  0  0  0  0  0  0  0
   -2.2410   -3.8680  -16.7820 C   0  0  0  0  0  0  0  0  0  0  0  0
   -3.1370   -2.9720  -16.0460 C   0  0  0  0  0  0  0  0  0  0  0  0
   -5.1830   -5.8970  -14.6270 C   0  0  0  0  0  0  0  0  0  0  0  0
   -5.3120   -7.2660  -14.5950 C   0  0  0  0  0  0  0  0  0  0  0  0
   -4.3820   -7.9490  -15.4050 C   0  0  0  0  0  0  0  0  0  0  0  0
   -3.3320   -7.3650  -16.1200 N   0  0  0  0  0  0  0  0  0  0  0  0
   -5.1880   -3.4560  -14.4740 N   0  0  0  0  0  0  0  0  0  0  0  0
   -5.7370   -4.6440  -14.0800 C   0  0  0  0  0  0  0  0  0  0  0  0
   -6.7660   -4.6470  -13.3410 O   0  0  0  0  0  0  0  0  0  0  0  0
   -5.6610   -2.1060  -14.0350 C   0  0  0  0  0  0  0  0  0  0  0  0
   -2.9280   -1.5780  -16.0490 N   0  0  0  0  0  0  0  0  0  0  0  0
   -0.9940   -3.2360  -17.7690 Cl  0  0  0  0  0  0  0  0  0  0  0  0
   -1.3660   -5.9040  -17.6740 N   0  0  0  0  0  0  0  0  0  0  0  0
   -1.2640   -7.3010  -17.7770 C   0  0  0  0  0  0  0  0  0  0  0  0
   -4.3780   -9.4240  -15.4460 C   0  0  0  0  0  0  0  0  0  0  0  0
   -5.2270  -10.0610  -14.7410 O   0  0  0  0  0  0  0  0  0  0  0  0
   -3.4540  -10.0080  -16.1900 N   0  0  0  0  0  0  0  0  0  0  0  0
   -6.0730   -7.7820  -13.9912 H   0  0  0  0  0  0  0  0  0  0  0  0
   -5.6763   -2.0623  -12.9360 H   0  0  0  0  0  0  0  0  0  0  0  0
   -4.9796   -1.3346  -14.4232 H   0  0  0  0  0  0  0  0  0  0  0  0
   -6.6748   -1.9286  -14.4232 H   0  0  0  0  0  0  0  0  0  0  0  0
   -2.8514   -1.0668  -15.1581 H   0  0  0  0  0  0  0  0  0  0  0  0
   -2.8519   -1.0706  -16.9421 H   0  0  0  0  0  0  0  0  0  0  0  0
   -0.4809   -7.7505  -18.4053 H   0  0  0  0  0  0  0  0  0  0  0  0
   -1.9672   -7.9457  -17.2293 H   0  0  0  0  0  0  0  0  0  0  0  0
   -2.6698  -10.5036  -15.7424 H   0  0  0  0  0  0  0  0  0  0  0  0
   -3.5184   -9.9673  -17.2172 H   0  0  0  0  0  0  0  0  0  0  0  0
  6  1  1  0
  2  1  2  0
  1 11  1  0
  3  2  1  0
  2  7  1  0
  4  3  2  0
  3 10  1  0
 17  4  1  0
  4  5  1  0
 16  5  1  0
  5  6  2  0
 15  6  1  0
  7  8  2  0
  7 12  1  0
  9  8  1  0
 10  9  2  0
 19  9  1  0
 11 12  1  0
 11 14  1  0
 12 13  2  0
 18 17  2  3
 21 19  1  0
 19 20  2  0
  8 22  1  0
 14 23  1  0
 14 24  1  0
 14 25  1  0
 15 26  1  0
 15 27  1  0
 18 28  1  0
 18 29  1  0
 21 30  1  0
 21 31  1  0
A    1
C1
A    2
C2
A    3
C3
A    4
C4
A    5
C5
A    6
C6
A    7
C7
A    8
C8
A    9
C9
A   10
N10
A   11
N11
A   12
C12
A   13
O13
A   14
C14
A   15
N15
A   16
CL1
A   17
N17
A   18
C18
A   19
C19
A   20
O20
A   21
N21
M  END
