3UXH_UXH_A_303
     RDKit          3D

 30 32  0  0  0  0  0  0  0  0999 V2000
   -3.3250   -7.4110  -16.2410 N   0  0  0  0  0  0  0  0  0  0  0  0
   -0.8870   -3.1420  -17.8490 Cl  0  0  0  0  0  0  0  0  0  0  0  0
   -3.2070   -6.1120  -16.3290 C   0  0  0  0  0  0  0  0  0  0  0  0
   -4.0810   -5.2640  -15.5800 C   0  0  0  0  0  0  0  0  0  0  0  0
   -5.0960   -5.7900  -14.8390 C   0  0  0  0  0  0  0  0  0  0  0  0
   -5.2880   -7.1470  -14.7720 C   0  0  0  0  0  0  0  0  0  0  0  0
   -4.3540   -7.9340  -15.5210 C   0  0  0  0  0  0  0  0  0  0  0  0
   -2.1210   -5.4220  -17.0600 C   0  0  0  0  0  0  0  0  0  0  0  0
   -2.1340   -3.9640  -16.9520 C   0  0  0  0  0  0  0  0  0  0  0  0
   -3.0700   -3.0920  -16.2030 C   0  0  0  0  0  0  0  0  0  0  0  0
   -4.1180   -3.8660  -15.5190 C   0  0  0  0  0  0  0  0  0  0  0  0
   -1.1830   -6.0880  -17.8220 N   0  0  0  0  0  0  0  0  0  0  0  0
   -2.9300   -1.6880  -16.1780 N   0  0  0  0  0  0  0  0  0  0  0  0
   -4.3140   -9.3800  -15.6080 C   0  0  0  0  0  0  0  0  0  0  0  0
   -5.2210  -10.0050  -14.8460 N   0  0  0  0  0  0  0  0  0  0  0  0
   -3.4580  -10.0090  -16.2660 O   0  0  0  0  0  0  0  0  0  0  0  0
   -5.7120   -4.6070  -14.2570 C   0  0  0  0  0  0  0  0  0  0  0  0
   -5.1120   -3.4720  -14.6720 N   0  0  0  0  0  0  0  0  0  0  0  0
   -6.7580   -4.5920  -13.4470 O   0  0  0  0  0  0  0  0  0  0  0  0
   -5.4730   -2.0660  -14.3520 C   0  0  0  0  0  0  0  0  0  0  0  0
   -6.1013   -7.5986  -14.1849 H   0  0  0  0  0  0  0  0  0  0  0  0
   -0.4313   -6.6217  -17.3627 H   0  0  0  0  0  0  0  0  0  0  0  0
   -1.2346   -6.0514  -18.8501 H   0  0  0  0  0  0  0  0  0  0  0  0
   -2.8805   -1.1913  -15.2770 H   0  0  0  0  0  0  0  0  0  0  0  0
   -2.8773   -1.1599  -17.0607 H   0  0  0  0  0  0  0  0  0  0  0  0
   -5.1519   -9.9574  -13.8194 H   0  0  0  0  0  0  0  0  0  0  0  0
   -5.9876  -10.5333  -15.2866 H   0  0  0  0  0  0  0  0  0  0  0  0
   -5.5065   -1.9354  -13.2603 H   0  0  0  0  0  0  0  0  0  0  0  0
   -4.7199   -1.3877  -14.7795 H   0  0  0  0  0  0  0  0  0  0  0  0
   -6.4597   -1.8344  -14.7795 H   0  0  0  0  0  0  0  0  0  0  0  0
  7  1  2  0
  1  3  1  0
  9  2  1  0
  4  3  2  0
  3  8  1  0
  5  4  1  0
 11  4  1  0
 17  5  1  0
  6  5  2  0
  6  7  1  0
  7 14  1  0
  9  8  2  0
  8 12  1  0
 10  9  1  0
 11 10  2  0
 10 13  1  0
 18 11  1  0
 16 14  2  0
 14 15  1  0
 19 17  2  0
 17 18  1  0
 20 18  1  0
  6 21  1  0
 12 22  1  0
 12 23  1  0
 13 24  1  0
 13 25  1  0
 15 26  1  0
 15 27  1  0
 20 28  1  0
 20 29  1  0
 20 30  1  0
A    1
N1
A    2
CL1
A    3
C2
A    4
C3
A    5
C4
A    6
C5
A    7
C6
A    8
C7
A    9
C8
A   10
C9
A   11
C10
A   12
N11
A   13
N13
A   14
C14
A   15
N15
A   16
O16
A   17
C17
A   18
N18
A   19
O19
A   20
C20
M  END
