3UXL_CFI_A_361
     RDKit          3D

 16 16  0  0  0  0  0  0  0  0999 V2000
  -18.0860  -22.2670   17.8200 O   0  0  0  0  0  0  0  0  0  0  0  0
  -19.1870  -22.7410   17.5930 N   0  0  0  0  0  0  0  0  0  0  0  0
  -20.2360  -21.9250   17.3340 N   0  0  0  0  0  0  0  0  0  0  0  0
  -19.9720  -20.6580   17.2680 O   0  0  0  0  0  0  0  0  0  0  0  0
  -21.5850  -22.4620   17.1600 C   0  0  0  0  0  0  0  0  0  0  0  0
  -22.6380  -21.6890   16.6780 C   0  0  0  0  0  0  0  0  0  0  0  0
  -23.9250  -22.2330   16.5460 C   0  0  0  0  0  0  0  0  0  0  0  0
  -24.1990  -23.5500   16.8940 C   0  0  0  0  0  0  0  0  0  0  0  0
  -23.1560  -24.3240   17.3730 C   0  0  0  0  0  0  0  0  0  0  0  0
  -21.8770  -23.7830   17.4990 C   0  0  0  0  0  0  0  0  0  0  0  0
  -19.8951  -20.2888   18.1834 H   0  0  0  0  0  0  0  0  0  0  0  0
  -22.4592  -20.6405   16.3976 H   0  0  0  0  0  0  0  0  0  0  0  0
  -24.7371  -21.6010   16.1573 H   0  0  0  0  0  0  0  0  0  0  0  0
  -25.2128  -23.9645   16.7921 H   0  0  0  0  0  0  0  0  0  0  0  0
  -23.3372  -25.3715   17.6558 H   0  0  0  0  0  0  0  0  0  0  0  0
  -21.0674  -24.4226   17.8804 H   0  0  0  0  0  0  0  0  0  0  0  0
  7  6  1  0
  7  8  2  0
  6  5  2  0
  8  9  1  0
  5  3  1  0
  5 10  1  0
  4  3  1  0
  3  2  1  0
  9 10  2  0
  2  1  2  0
  4 11  1  0
  6 12  1  0
  7 13  1  0
  8 14  1  0
  9 15  1  0
 10 16  1  0
A    1
O01
A    2
N02
A    3
N03
A    4
O04
A    5
C05
A    6
C06
A    7
C07
A    8
C08
A    9
C09
A   10
C10
M  END
