3UXM_0DN_A_800
     RDKit          3D

 30 31  0  0  0  0  0  0  0  0999 V2000
    7.3710    2.2970   16.4310 O   0  0  0  0  0  0  0  0  0  0  0  0
    6.7330    1.3690   16.9880 C   0  0  0  0  0  0  0  0  0  0  0  0
    5.9540    0.5230   16.2800 N   0  0  0  0  0  0  0  0  0  0  0  0
    5.3060   -0.5000   16.8920 C   0  0  0  0  0  0  0  0  0  0  0  0
    4.5900   -1.2910   16.2430 O   0  0  0  0  0  0  0  0  0  0  0  0
    5.4230   -0.6690   18.3660 C   0  0  0  0  0  0  0  0  0  0  0  0
    4.7370   -1.7810   19.1170 C   0  0  0  0  0  0  0  0  0  0  0  0
    6.2230    0.2190   19.0510 C   0  0  0  0  0  0  0  0  0  0  0  0
    6.8420    1.2320   18.3980 N   0  0  0  0  0  0  0  0  0  0  0  0
    7.7090    2.1650   19.1190 C   0  0  0  0  0  0  0  0  0  0  0  0
    7.0890    3.0570   20.2140 C   0  0  0  0  0  0  0  0  0  0  0  0
    8.2150    3.1800   21.2330 C   0  0  0  0  0  0  0  0  0  0  0  0
    8.9960    4.3460   20.9050 O   0  0  0  0  0  0  0  0  0  0  0  0
    8.7000    1.3810   19.7470 O   0  0  0  0  0  0  0  0  0  0  0  0
    9.0880    1.9450   20.9910 C   0  0  0  0  0  0  0  0  0  0  0  0
    9.0310    0.8580   22.0660 C   0  0  0  0  0  0  0  0  0  0  0  0
    7.7270    0.5670   22.3690 F   0  0  0  0  0  0  0  0  0  0  0  0
    5.8506    0.6559   15.2639 H   0  0  0  0  0  0  0  0  0  0  0  0
    4.8414   -1.6117   20.1989 H   0  0  0  0  0  0  0  0  0  0  0  0
    3.6700   -1.7999   18.8502 H   0  0  0  0  0  0  0  0  0  0  0  0
    5.1988   -2.7430   18.8502 H   0  0  0  0  0  0  0  0  0  0  0  0
    6.3603    0.1048   20.1364 H   0  0  0  0  0  0  0  0  0  0  0  0
    8.0473    2.8771   18.3518 H   0  0  0  0  0  0  0  0  0  0  0  0
    6.8108    4.0421   19.8111 H   0  0  0  0  0  0  0  0  0  0  0  0
    6.1630    2.6421   20.6387 H   0  0  0  0  0  0  0  0  0  0  0  0
    7.8492    3.2565   22.2676 H   0  0  0  0  0  0  0  0  0  0  0  0
    9.2930    4.7895   21.7388 H   0  0  0  0  0  0  0  0  0  0  0  0
   10.1286    2.3012   21.0092 H   0  0  0  0  0  0  0  0  0  0  0  0
    9.5297   -0.0490   21.6938 H   0  0  0  0  0  0  0  0  0  0  0  0
    9.5405    1.2186   22.9717 H   0  0  0  0  0  0  0  0  0  0  0  0
  5  4  2  0
  3  4  1  0
  3  2  1  0
  1  2  2  0
  4  6  1  0
  2  9  1  0
  6  8  2  0
  6  7  1  0
  9  8  1  0
  9 10  1  0
 10 14  1  0
 10 11  1  0
 14 15  1  0
 11 12  1  0
 13 12  1  0
 15 12  1  0
 15 16  1  0
 16 17  1  0
  3 18  1  0
  7 19  1  0
  7 20  1  0
  7 21  1  0
  8 22  1  0
 10 23  1  0
 11 24  1  0
 11 25  1  0
 12 26  1  0
 13 27  1  0
 15 28  1  0
 16 29  1  0
 16 30  1  0
A    1
O4
A    2
C6
A    3
N2
A    4
C7
A    5
O3
A    6
C8
A    7
C10
A    8
C9
A    9
N1
A   10
C4
A   11
C3
A   12
C2
A   13
O2
A   14
O1
A   15
C1
A   16
C5
A   17
F1
M  END
