3V0L_2GW_A_450
     RDKit          3D

 70 73  0  0  0  0  0  0  0  0999 V2000
   15.3570  -20.4350  -11.3140 C   0  0  0  0  0  0  0  0  0  0  0  0
   14.7380  -19.7840  -12.3850 C   0  0  0  0  0  0  0  0  0  0  0  0
   14.3570  -20.5550  -13.4870 C   0  0  0  0  0  0  0  0  0  0  0  0
   14.6050  -21.9270  -13.5150 C   0  0  0  0  0  0  0  0  0  0  0  0
   15.2410  -22.5590  -12.4330 C   0  0  0  0  0  0  0  0  0  0  0  0
   15.6270  -21.7760  -11.3580 C   0  0  0  0  0  0  0  0  0  0  0  0
   16.3550  -22.4810  -10.1640 C   0  0  0  0  0  0  0  0  0  0  0  0
   15.8640  -22.3680   -8.8580 C   0  0  0  0  0  0  0  0  0  0  0  0
   17.5230  -23.2650  -10.3790 C   0  0  0  0  0  0  0  0  0  0  0  0
   18.1230  -23.4500  -11.6340 O   0  0  0  0  0  0  0  0  0  0  0  0
   18.1810  -23.8830   -9.3720 N   0  0  0  0  0  0  0  0  0  0  0  0
   17.6580  -23.7590   -8.1150 C   0  0  0  0  0  0  0  0  0  0  0  0
   18.1900  -24.4000   -7.2090 O   0  0  0  0  0  0  0  0  0  0  0  0
   16.5500  -23.0680   -7.8580 N   0  0  0  0  0  0  0  0  0  0  0  0
   16.0750  -23.0200   -6.4440 C   0  0  0  0  0  0  0  0  0  0  0  0
   14.7190  -22.4630   -6.5000 O   0  0  0  0  0  0  0  0  0  0  0  0
   16.8750  -22.1250   -5.5790 C   0  0  0  0  0  0  0  0  0  0  0  0
   16.8510  -22.6610   -4.2680 O   0  0  0  0  0  0  0  0  0  0  0  0
   16.1410  -20.8510   -5.6880 C   0  0  0  0  0  0  0  0  0  0  0  0
   16.5470  -20.0170   -4.6410 O   0  0  0  0  0  0  0  0  0  0  0  0
   14.6900  -21.2460   -5.7130 C   0  0  0  0  0  0  0  0  0  0  0  0
   13.7380  -20.2550   -6.3510 C   0  0  0  0  0  0  0  0  0  0  0  0
   14.2570  -19.6070   -7.5100 O   0  0  0  0  0  0  0  0  0  0  0  0
   14.6780  -18.1330   -7.4900 P   0  0  0  0  0  0  0  0  0  0  0  0
   15.3400  -17.8240   -6.2090 O   0  0  0  0  0  0  0  0  0  0  0  0
   15.5810  -17.8160   -8.6690 O   0  0  0  0  0  0  0  0  0  0  0  0
   13.3270  -17.2750   -7.7030 O   0  0  0  0  0  0  0  0  0  0  0  0
   12.5520  -16.2650   -6.7540 P   0  0  0  0  0  0  0  0  0  0  0  0
   13.2860  -15.5960   -5.6700 O   0  0  0  0  0  0  0  0  0  0  0  0
   11.7860  -15.3230   -7.6380 O   0  0  0  0  0  0  0  0  0  0  0  0
   11.4710  -17.3220   -6.1980 O   0  0  0  0  0  0  0  0  0  0  0  0
   10.3290  -17.0520   -5.5490 C   0  0  0  0  0  0  0  0  0  0  0  0
    9.2490  -17.4660   -6.4520 O   0  0  0  0  0  0  0  0  0  0  0  0
    9.2640  -18.8190   -6.7390 C   0  0  0  0  0  0  0  0  0  0  0  0
    8.0260  -18.9310   -7.6400 C   0  0  0  0  0  0  0  0  0  0  0  0
    7.7580  -20.1910   -8.0890 O   0  0  0  0  0  0  0  0  0  0  0  0
    9.2930  -19.6850   -5.4680 C   0  0  0  0  0  0  0  0  0  0  0  0
    8.0530  -19.6820   -4.7510 O   0  0  0  0  0  0  0  0  0  0  0  0
   10.4130  -19.2490   -4.5430 C   0  0  0  0  0  0  0  0  0  0  0  0
   10.4190  -20.0060   -3.2790 O   0  0  0  0  0  0  0  0  0  0  0  0
   10.2190  -17.8650   -4.2880 C   0  0  0  0  0  0  0  0  0  0  0  0
   11.1590  -17.2920   -3.3570 O   0  0  0  0  0  0  0  0  0  0  0  0
   15.6324  -19.8584  -10.4186 H   0  0  0  0  0  0  0  0  0  0  0  0
   14.5565  -18.6993  -12.3614 H   0  0  0  0  0  0  0  0  0  0  0  0
   13.8565  -20.0746  -14.3407 H   0  0  0  0  0  0  0  0  0  0  0  0
   14.3005  -22.5190  -14.3907 H   0  0  0  0  0  0  0  0  0  0  0  0
   15.4267  -23.6432  -12.4397 H   0  0  0  0  0  0  0  0  0  0  0  0
   14.9790  -21.7567   -8.6277 H   0  0  0  0  0  0  0  0  0  0  0  0
   19.0401  -24.4243   -9.5448 H   0  0  0  0  0  0  0  0  0  0  0  0
   16.1444  -24.0318   -6.0180 H   0  0  0  0  0  0  0  0  0  0  0  0
   17.9351  -22.0053   -5.8471 H   0  0  0  0  0  0  0  0  0  0  0  0
   16.8840  -21.9229   -3.6091 H   0  0  0  0  0  0  0  0  0  0  0  0
   16.3391  -20.2560   -6.5917 H   0  0  0  0  0  0  0  0  0  0  0  0
   16.3370  -20.4484   -3.7750 H   0  0  0  0  0  0  0  0  0  0  0  0
   14.3038  -21.3296   -4.6864 H   0  0  0  0  0  0  0  0  0  0  0  0
   13.4927  -19.4840   -5.6058 H   0  0  0  0  0  0  0  0  0  0  0  0
   12.8580  -20.8285   -6.6777 H   0  0  0  0  0  0  0  0  0  0  0  0
   14.7534  -18.0978   -5.4599 H   0  0  0  0  0  0  0  0  0  0  0  0
   12.9421  -15.9094   -4.7962 H   0  0  0  0  0  0  0  0  0  0  0  0
   10.2848  -15.9870   -5.2774 H   0  0  0  0  0  0  0  0  0  0  0  0
   10.1630  -19.2044   -7.2422 H   0  0  0  0  0  0  0  0  0  0  0  0
    8.1791  -18.2814   -8.5144 H   0  0  0  0  0  0  0  0  0  0  0  0
    7.1657  -18.6323   -7.0231 H   0  0  0  0  0  0  0  0  0  0  0  0
    7.6293  -20.7963   -7.3162 H   0  0  0  0  0  0  0  0  0  0  0  0
    9.4695  -20.7150   -5.8114 H   0  0  0  0  0  0  0  0  0  0  0  0
    8.2345  -19.6824   -3.7778 H   0  0  0  0  0  0  0  0  0  0  0  0
   11.3851  -19.4420   -5.0201 H   0  0  0  0  0  0  0  0  0  0  0  0
   10.4140  -19.3748   -2.5163 H   0  0  0  0  0  0  0  0  0  0  0  0
    9.2098  -17.8224   -3.8523 H   0  0  0  0  0  0  0  0  0  0  0  0
   10.8595  -17.4746   -2.4312 H   0  0  0  0  0  0  0  0  0  0  0  0
  4  3  2  0
  4  5  1  0
  3  2  1  0
  5  6  2  0
  2  1  2  0
 10  9  2  0
  6  1  1  0
  6  7  1  0
  9  7  1  0
  9 11  1  0
  7  8  2  0
 11 12  1  0
  8 14  1  0
 26 24  2  0
 12 14  1  0
 12 13  2  0
 36 35  1  0
 14 15  1  0
 27 24  1  0
 27 28  1  0
 35 34  1  0
 30 28  2  0
 23 24  1  0
 23 22  1  0
 24 25  1  0
 28 31  1  0
 28 29  1  0
 34 33  1  0
 34 37  1  0
 16 15  1  0
 16 21  1  0
 33 32  1  0
 15 17  1  0
 22 21  1  0
 31 32  1  0
 21 19  1  0
 19 17  1  0
 19 20  1  0
 17 18  1  0
 32 41  1  0
 37 38  1  0
 37 39  1  0
 39 41  1  0
 39 40  1  0
 41 42  1  0
  1 43  1  0
  2 44  1  0
  3 45  1  0
  4 46  1  0
  5 47  1  0
  8 48  1  0
 11 49  1  0
 15 50  1  0
 17 51  1  0
 18 52  1  0
 19 53  1  0
 20 54  1  0
 21 55  1  0
 22 56  1  0
 22 57  1  0
 25 58  1  0
 29 59  1  0
 32 60  1  0
 34 61  1  0
 35 62  1  0
 35 63  1  0
 36 64  1  0
 37 65  1  0
 38 66  1  0
 39 67  1  0
 40 68  1  0
 41 69  1  0
 42 70  1  0
A    1
CAP
A    2
CAN
A    3
CAM
A    4
CAO
A    5
CAQ
A    6
CBA
A    7
CBB
A    8
CAR
A    9
CBC
A   10
OAA
A   11
NAU
A   12
CBD
A   13
OAB
A   14
NBN
A   15
C1'
A   16
O4'
A   17
C2'
A   18
O2'
A   19
C3'
A   20
O3'
A   21
C4'
A   22
C5'
A   23
O5'
A   24
PBO
A   25
OAK
A   26
OAC
A   27
OAZ
A   28
PBP
A   29
OAL
A   30
OAD
A   31
O1
A   32
C1
A   33
O5
A   34
C5
A   35
C6
A   36
O6
A   37
C4
A   38
O4
A   39
C3
A   40
O3
A   41
C2
A   42
O2
M  END
