3V0N_4GW_A_402
     RDKit          3D

 48 50  0  0  0  0  0  0  0  0999 V2000
    1.2700  -56.6400  -23.2810 C   0  0  0  0  0  0  0  0  0  0  0  0
    1.2390  -57.5170  -24.3410 O   0  0  0  0  0  0  0  0  0  0  0  0
    2.4220  -55.7030  -23.2470 C   0  0  0  0  0  0  0  0  0  0  0  0
    3.7320  -55.6890  -24.3210 S   0  0  0  0  0  0  0  0  0  0  0  0
    2.6310  -54.6790  -22.3090 C   0  0  0  0  0  0  0  0  0  0  0  0
    3.8350  -53.9470  -22.5260 C   0  0  0  0  0  0  0  0  0  0  0  0
    4.5990  -54.3990  -23.6150 C   0  0  0  0  0  0  0  0  0  0  0  0
    5.8770  -53.7880  -24.1120 C   0  0  0  0  0  0  0  0  0  0  0  0
    6.2930  -52.5480  -23.5880 C   0  0  0  0  0  0  0  0  0  0  0  0
    6.5480  -54.2880  -25.2320 C   0  0  0  0  0  0  0  0  0  0  0  0
    6.1990  -55.4920  -25.8050 O   0  0  0  0  0  0  0  0  0  0  0  0
    7.6430  -53.6670  -25.7250 N   0  0  0  0  0  0  0  0  0  0  0  0
    8.0460  -52.5080  -25.1610 C   0  0  0  0  0  0  0  0  0  0  0  0
    9.0100  -51.9200  -25.6300 O   0  0  0  0  0  0  0  0  0  0  0  0
    7.3950  -51.9780  -24.1090 N   0  0  0  0  0  0  0  0  0  0  0  0
    7.8900  -50.7040  -23.5730 C   0  0  0  0  0  0  0  0  0  0  0  0
    7.3590  -50.4560  -22.2200 O   0  0  0  0  0  0  0  0  0  0  0  0
    7.4930  -49.5470  -24.3910 C   0  0  0  0  0  0  0  0  0  0  0  0
    8.4820  -48.5690  -24.2790 O   0  0  0  0  0  0  0  0  0  0  0  0
    6.2390  -49.1400  -23.7340 C   0  0  0  0  0  0  0  0  0  0  0  0
    5.9700  -47.8330  -24.0350 O   0  0  0  0  0  0  0  0  0  0  0  0
    6.5850  -49.3000  -22.2830 C   0  0  0  0  0  0  0  0  0  0  0  0
    5.4180  -49.4740  -21.3820 C   0  0  0  0  0  0  0  0  0  0  0  0
    4.4650  -50.3950  -21.8220 O   0  0  0  0  0  0  0  0  0  0  0  0
    3.0810  -49.8350  -22.2900 P   0  0  0  0  0  0  0  0  0  0  0  0
    3.2420  -48.5940  -23.1230 O   0  0  0  0  0  0  0  0  0  0  0  0
    2.3350  -50.9020  -23.0570 O   0  0  0  0  0  0  0  0  0  0  0  0
    2.4140  -49.4910  -20.9230 O   0  0  0  0  0  0  0  0  0  0  0  0
    1.1060  -48.6810  -20.6250 P   0  0  0  0  0  0  0  0  0  0  0  0
   -0.0830  -49.5820  -20.9000 O   0  0  0  0  0  0  0  0  0  0  0  0
    1.0910  -48.3130  -19.1510 O   0  0  0  0  0  0  0  0  0  0  0  0
    0.9470  -47.4150  -21.3830 O   0  0  0  0  0  0  0  0  0  0  0  0
    0.4893  -56.6333  -22.5061 H   0  0  0  0  0  0  0  0  0  0  0  0
    1.9333  -54.4627  -21.4865 H   0  0  0  0  0  0  0  0  0  0  0  0
    4.1401  -53.0998  -21.8941 H   0  0  0  0  0  0  0  0  0  0  0  0
    5.7332  -52.0600  -22.7765 H   0  0  0  0  0  0  0  0  0  0  0  0
    8.1615  -54.0713  -26.5179 H   0  0  0  0  0  0  0  0  0  0  0  0
    8.9856  -50.8022  -23.5692 H   0  0  0  0  0  0  0  0  0  0  0  0
    7.3665  -49.7368  -25.4671 H   0  0  0  0  0  0  0  0  0  0  0  0
    8.6626  -48.3904  -23.3221 H   0  0  0  0  0  0  0  0  0  0  0  0
    5.3508  -49.7144  -24.0361 H   0  0  0  0  0  0  0  0  0  0  0  0
    5.8637  -47.3165  -23.1971 H   0  0  0  0  0  0  0  0  0  0  0  0
    7.0874  -48.3837  -21.9396 H   0  0  0  0  0  0  0  0  0  0  0  0
    4.9235  -48.4976  -21.2716 H   0  0  0  0  0  0  0  0  0  0  0  0
    5.8160  -49.8713  -20.4366 H   0  0  0  0  0  0  0  0  0  0  0  0
    1.9006  -51.5233  -22.4203 H   0  0  0  0  0  0  0  0  0  0  0  0
   -0.4765  -49.8802  -20.0419 H   0  0  0  0  0  0  0  0  0  0  0  0
    1.1246  -49.1379  -18.6046 H   0  0  0  0  0  0  0  0  0  0  0  0
 32 29  2  0
 30 29  1  0
 29 28  1  0
 29 31  1  0
 28 25  1  0
 23 24  1  0
 23 22  1  0
 24 25  1  0
 17 22  1  0
 17 16  1  0
 25 26  2  0
 25 27  1  0
 22 20  1  0
  5  6  1  0
  5  3  2  0
  6  7  2  0
  3  1  1  0
  3  4  1  0
  1  2  2  0
 16 15  1  0
 16 18  1  0
  9 15  1  0
  9  8  2  0
 20 21  1  0
 20 18  1  0
  7  8  1  0
  7  4  1  0
 19 18  1  0
 15 13  1  0
  8 10  1  0
 13 14  2  0
 13 12  1  0
 10 12  1  0
 10 11  2  0
  1 33  1  0
  5 34  1  0
  6 35  1  0
  9 36  1  0
 12 37  1  0
 16 38  1  0
 18 39  1  0
 19 40  1  0
 20 41  1  0
 21 42  1  0
 22 43  1  0
 23 44  1  0
 23 45  1  0
 27 46  1  0
 30 47  1  0
 31 48  1  0
A    1
CBD
A    2
OAD
A    3
CBE
A    4
SBB
A    5
CAP
A    6
CAQ
A    7
CBF
A    8
CBG
A    9
CAR
A   10
CBH
A   11
OAE
A   12
NAV
A   13
CBI
A   14
OAF
A   15
NBS
A   16
C1'
A   17
O4'
A   18
C2'
A   19
O2'
A   20
C3'
A   21
O3'
A   22
C4'
A   23
C5'
A   24
O5'
A   25
PBT
A   26
OAN
A   27
OAG
A   28
OBA
A   29
PBU
A   30
OAO
A   31
OAH
A   32
O1
M  END
