2PUH_HPK_A_289
     RDKit          3D

 25 25  0  0  0  0  0  0  0  0999 V2000
    4.6360   14.2640  -15.8830 C   0  0  0  0  0  0  0  0  0  0  0  0
    4.5810   13.2390  -14.9360 C   0  0  0  0  0  0  0  0  0  0  0  0
    3.3800   12.6160  -14.6530 C   0  0  0  0  0  0  0  0  0  0  0  0
    2.2290   12.9920  -15.3420 C   0  0  0  0  0  0  0  0  0  0  0  0
    2.2730   14.0280  -16.2850 C   0  0  0  0  0  0  0  0  0  0  0  0
    3.4880   14.6650  -16.5590 C   0  0  0  0  0  0  0  0  0  0  0  0
    1.0130   14.4460  -17.0090 C   0  0  0  0  0  0  0  0  0  0  0  0
    0.8820   15.6280  -17.3410 O   0  0  0  0  0  0  0  0  0  0  0  0
   -0.0300   13.3680  -17.2330 C   0  0  0  0  0  0  0  0  0  0  0  0
   -1.4650   13.8320  -17.3420 C   0  0  0  0  0  0  0  0  0  0  0  0
   -1.8300   14.6280  -18.3490 C   0  0  0  0  0  0  0  0  0  0  0  0
   -3.2270   15.0860  -18.4590 C   0  0  0  0  0  0  0  0  0  0  0  0
   -4.0690   14.8470  -17.5770 O   0  0  0  0  0  0  0  0  0  0  0  0
   -3.5720   15.8130  -19.6840 C   0  0  0  0  0  0  0  0  0  0  0  0
   -4.7270   16.2500  -19.8390 O   0  0  0  0  0  0  0  0  0  0  0  0
   -2.6940   15.9500  -20.5620 O   0  0  0  0  0  0  0  0  0  0  0  0
    5.5952   14.7585  -16.0962 H   0  0  0  0  0  0  0  0  0  0  0  0
    5.4970   12.9263  -14.4133 H   0  0  0  0  0  0  0  0  0  0  0  0
    3.3333   11.8273  -13.8876 H   0  0  0  0  0  0  0  0  0  0  0  0
    1.2797   12.4725  -15.1447 H   0  0  0  0  0  0  0  0  0  0  0  0
    3.5352   15.4750  -17.3017 H   0  0  0  0  0  0  0  0  0  0  0  0
    0.2244   12.8453  -18.1669 H   0  0  0  0  0  0  0  0  0  0  0  0
    0.0050   12.7366  -16.3329 H   0  0  0  0  0  0  0  0  0  0  0  0
   -2.2058   13.5144  -16.5935 H   0  0  0  0  0  0  0  0  0  0  0  0
   -1.0879   14.9426  -19.0976 H   0  0  0  0  0  0  0  0  0  0  0  0
  1  6  2  0
  1  2  1  0
  2  3  2  0
  3  4  1  0
  4  5  2  0
  5  7  1  0
  5  6  1  0
  7  8  2  0
  7  9  1  0
  9 10  1  0
 10 11  2  0
 11 12  1  0
 12 14  1  0
 12 13  2  0
 14 16  2  0
 14 15  1  0
  1 17  1  0
  2 18  1  0
  3 19  1  0
  4 20  1  0
  6 21  1  0
  9 22  1  0
  9 23  1  0
 10 24  1  0
 11 25  1  0
M  CHG  1  15  -1
A    1
CB3
A    2
CB4
A    3
CB5
A    4
CB6
A    5
CB1
A    6
CB2
A    7
CA6
A    8
OA4
A    9
CA5
A   10
CA4
A   11
CA3
A   12
CA2
A   13
OA3
A   14
CA1
A   15
OA2
A   16
OA1
M  END
