3V3Q_TMY_A_301
     RDKit          3D

 59 59  0  0  0  0  0  0  0  0999 V2000
  -11.1270   24.2780    5.5580 C   0  0  0  0  0  0  0  0  0  0  0  0
  -11.0360   25.4050    4.7230 C   0  0  0  0  0  0  0  0  0  0  0  0
  -11.1890   26.7030    5.2970 C   0  0  0  0  0  0  0  0  0  0  0  0
  -11.4170   26.8550    6.6590 C   0  0  0  0  0  0  0  0  0  0  0  0
  -11.5010   25.7630    7.4940 C   0  0  0  0  0  0  0  0  0  0  0  0
  -11.3660   24.4770    7.0100 C   0  0  0  0  0  0  0  0  0  0  0  0
  -11.0060   22.8700    5.1430 C   0  0  0  0  0  0  0  0  0  0  0  0
  -12.0770   22.0550    5.2260 C   0  0  0  0  0  0  0  0  0  0  0  0
  -13.2480   22.5660    5.6220 O   0  0  0  0  0  0  0  0  0  0  0  0
  -11.9920   20.6350    4.8820 O   0  0  0  0  0  0  0  0  0  0  0  0
  -11.3350   19.7210    5.7700 C   0  0  0  0  0  0  0  0  0  0  0  0
  -11.7940   19.7960    7.2200 C   0  0  0  0  0  0  0  0  0  0  0  0
  -11.5010   23.3560    8.0100 C   0  0  0  0  0  0  0  0  0  0  0  0
  -12.8570   23.1060    8.6350 C   0  0  0  0  0  0  0  0  0  0  0  0
  -13.1500   21.7060    9.1860 C   0  0  0  0  0  0  0  0  0  0  0  0
  -14.6460   21.4270    9.0110 C   0  0  0  0  0  0  0  0  0  0  0  0
  -15.5380   22.4770    9.6920 C   0  0  0  0  0  0  0  0  0  0  0  0
  -16.4590   23.2130    8.7090 C   0  0  0  0  0  0  0  0  0  0  0  0
  -17.2470   24.3370    9.3790 C   0  0  0  0  0  0  0  0  0  0  0  0
  -17.6020   25.4100    8.3720 C   0  0  0  0  0  0  0  0  0  0  0  0
  -10.5290   22.7060    8.3290 O   0  0  0  0  0  0  0  0  0  0  0  0
  -10.8040   25.2860    3.3790 O   0  0  0  0  0  0  0  0  0  0  0  0
  -11.0790   27.8450    4.5540 O   0  0  0  0  0  0  0  0  0  0  0  0
  -11.5640   28.0730    7.2190 O   0  0  0  0  0  0  0  0  0  0  0  0
  -11.6690   24.4320    2.6230 C   0  0  0  0  0  0  0  0  0  0  0  0
   -9.8830   28.5460    4.7450 C   0  0  0  0  0  0  0  0  0  0  0  0
  -11.0960   28.3040    8.5530 C   0  0  0  0  0  0  0  0  0  0  0  0
  -11.6793   25.9185    8.5683 H   0  0  0  0  0  0  0  0  0  0  0  0
  -10.6889   22.8739    4.0897 H   0  0  0  0  0  0  0  0  0  0  0  0
  -10.3040   22.4461    5.8761 H   0  0  0  0  0  0  0  0  0  0  0  0
  -11.5180   18.6993    5.4058 H   0  0  0  0  0  0  0  0  0  0  0  0
  -10.2708   19.9992    5.7679 H   0  0  0  0  0  0  0  0  0  0  0  0
  -10.9299   19.6548    7.8859 H   0  0  0  0  0  0  0  0  0  0  0  0
  -12.2470   20.7801    7.4108 H   0  0  0  0  0  0  0  0  0  0  0  0
  -12.5367   19.0073    7.4108 H   0  0  0  0  0  0  0  0  0  0  0  0
  -12.9684   23.8151    9.4685 H   0  0  0  0  0  0  0  0  0  0  0  0
  -13.5681   23.2281    7.8047 H   0  0  0  0  0  0  0  0  0  0  0  0
  -12.5642   20.9576    8.6321 H   0  0  0  0  0  0  0  0  0  0  0  0
  -12.8747   21.6506   10.2496 H   0  0  0  0  0  0  0  0  0  0  0  0
  -14.8767   21.4159    7.9355 H   0  0  0  0  0  0  0  0  0  0  0  0
  -14.8572   20.4582    9.4872 H   0  0  0  0  0  0  0  0  0  0  0  0
  -16.1613   21.9719   10.4446 H   0  0  0  0  0  0  0  0  0  0  0  0
  -14.8738   23.2281   10.1445 H   0  0  0  0  0  0  0  0  0  0  0  0
  -15.8448   23.6433    7.9042 H   0  0  0  0  0  0  0  0  0  0  0  0
  -17.1830   22.4832    8.3175 H   0  0  0  0  0  0  0  0  0  0  0  0
  -18.1715   23.9242    9.8090 H   0  0  0  0  0  0  0  0  0  0  0  0
  -16.6266   24.7833   10.1701 H   0  0  0  0  0  0  0  0  0  0  0  0
  -17.9047   26.3249    8.9024 H   0  0  0  0  0  0  0  0  0  0  0  0
  -16.7269   25.6245    7.7409 H   0  0  0  0  0  0  0  0  0  0  0  0
  -18.4323   25.0603    7.7409 H   0  0  0  0  0  0  0  0  0  0  0  0
  -12.2803   23.8284    3.3100 H   0  0  0  0  0  0  0  0  0  0  0  0
  -12.3267   25.0448    1.9890 H   0  0  0  0  0  0  0  0  0  0  0  0
  -11.0647   23.7665    1.9890 H   0  0  0  0  0  0  0  0  0  0  0  0
   -9.6917   28.6581    5.8224 H   0  0  0  0  0  0  0  0  0  0  0  0
   -9.0544   27.9906    4.2814 H   0  0  0  0  0  0  0  0  0  0  0  0
   -9.9627   29.5403    4.2814 H   0  0  0  0  0  0  0  0  0  0  0  0
  -11.8423   27.9357    9.2723 H   0  0  0  0  0  0  0  0  0  0  0  0
  -10.1457   27.7715    8.7055 H   0  0  0  0  0  0  0  0  0  0  0  0
  -10.9407   29.3822    8.7055 H   0  0  0  0  0  0  0  0  0  0  0  0
  1  2  2  0
  1  6  1  0
  1  7  1  0
  2  3  1  0
  2 22  1  0
  3  4  2  0
  3 23  1  0
  4  5  1  0
  4 24  1  0
  5  6  2  0
  6 13  1  0
  7  8  1  0
  8  9  2  0
  8 10  1  0
 10 11  1  0
 11 12  1  0
 13 14  1  0
 13 21  2  0
 14 15  1  0
 15 16  1  0
 16 17  1  0
 17 18  1  0
 18 19  1  0
 19 20  1  0
 22 25  1  0
 23 26  1  0
 24 27  1  0
  5 28  1  0
  7 29  1  0
  7 30  1  0
 11 31  1  0
 11 32  1  0
 12 33  1  0
 12 34  1  0
 12 35  1  0
 14 36  1  0
 14 37  1  0
 15 38  1  0
 15 39  1  0
 16 40  1  0
 16 41  1  0
 17 42  1  0
 17 43  1  0
 18 44  1  0
 18 45  1  0
 19 46  1  0
 19 47  1  0
 20 48  1  0
 20 49  1  0
 20 50  1  0
 25 51  1  0
 25 52  1  0
 25 53  1  0
 26 54  1  0
 26 55  1  0
 26 56  1  0
 27 57  1  0
 27 58  1  0
 27 59  1  0
A    1
C1
A    2
C2
A    3
C3
A    4
C4
A    5
C5
A    6
C6
A    7
C13
A    8
C14
A    9
O15
A   10
O16
A   11
C17
A   12
C18
A   13
C19
A   14
C20
A   15
C21
A   16
C22
A   17
C23
A   18
C24
A   19
C25
A   20
C26
A   21
O27
A   22
O28
A   23
O29
A   24
O30
A   25
C31
A   26
C32
A   27
C33
M  END
