3V49_PK0_A_950
     RDKit          3D

 42 44  0  0  0  0  0  0  0  0999 V2000
   28.8800   -0.1250    3.4150 N   0  0  0  0  0  0  0  0  0  0  0  0
   31.0210    0.8540    3.7490 C   0  0  0  0  0  0  0  0  0  0  0  0
   29.0160   -1.4320    2.7480 C   0  0  0  0  0  0  0  0  0  0  0  0
   29.7270    2.6550    5.3940 O   0  0  0  0  0  0  0  0  0  0  0  0
   29.2620    1.8410    4.6850 C   0  0  0  0  0  0  0  0  0  0  0  0
   26.9340    0.6940    2.3810 O   0  0  0  0  0  0  0  0  0  0  0  0
   27.8920    0.8500    3.0940 C   0  0  0  0  0  0  0  0  0  0  0  0
   29.7090    0.4640    4.4360 C   0  0  0  0  0  0  0  0  0  0  0  0
   29.7180   -0.2290    5.7660 C   0  0  0  0  0  0  0  0  0  0  0  0
   30.7980   -0.1350    6.6420 C   0  0  0  0  0  0  0  0  0  0  0  0
   30.7290   -0.8260    7.8520 C   0  0  0  0  0  0  0  0  0  0  0  0
   29.6280   -1.5550    8.2690 C   0  0  0  0  0  0  0  0  0  0  0  0
   28.5580   -1.6410    7.3670 C   0  0  0  0  0  0  0  0  0  0  0  0
   28.6120   -0.9800    6.1510 C   0  0  0  0  0  0  0  0  0  0  0  0
   29.6210   -2.2520    9.4890 O   0  0  0  0  0  0  0  0  0  0  0  0
   28.3030    2.0430    3.7420 N   0  0  0  0  0  0  0  0  0  0  0  0
   27.4050    3.1250    3.7130 C   0  0  0  0  0  0  0  0  0  0  0  0
   27.9180    4.4260    3.5800 C   0  0  0  0  0  0  0  0  0  0  0  0
   27.1080    5.5460    3.5580 C   0  0  0  0  0  0  0  0  0  0  0  0
   25.7240    5.3740    3.6490 C   0  0  0  0  0  0  0  0  0  0  0  0
   25.1930    4.1120    3.7780 C   0  0  0  0  0  0  0  0  0  0  0  0
   26.0170    2.9880    3.8080 C   0  0  0  0  0  0  0  0  0  0  0  0
   24.8800    6.6060    3.5210 C   0  0  0  0  0  0  0  0  0  0  0  0
   24.3950    7.7410    3.5160 N   0  0  0  0  0  0  0  0  0  0  0  0
   23.7290    3.9800    3.9090 C   0  0  0  0  0  0  0  0  0  0  0  0
   23.0130    4.6640    3.1690 F   0  0  0  0  0  0  0  0  0  0  0  0
   23.2030    4.2520    4.9990 F   0  0  0  0  0  0  0  0  0  0  0  0
   23.2040    2.8810    3.6770 F   0  0  0  0  0  0  0  0  0  0  0  0
   31.7811    1.0799    4.5114 H   0  0  0  0  0  0  0  0  0  0  0  0
   31.3681    0.0202    3.1211 H   0  0  0  0  0  0  0  0  0  0  0  0
   30.8562    1.7420    3.1211 H   0  0  0  0  0  0  0  0  0  0  0  0
   29.0984   -2.2241    3.5068 H   0  0  0  0  0  0  0  0  0  0  0  0
   28.1322   -1.6167    2.1196 H   0  0  0  0  0  0  0  0  0  0  0  0
   29.9189   -1.4308    2.1196 H   0  0  0  0  0  0  0  0  0  0  0  0
   31.6816    0.4682    6.3860 H   0  0  0  0  0  0  0  0  0  0  0  0
   31.6046   -0.7894    8.5168 H   0  0  0  0  0  0  0  0  0  0  0  0
   27.6705   -2.2369    7.6266 H   0  0  0  0  0  0  0  0  0  0  0  0
   27.7528   -1.0511    5.4678 H   0  0  0  0  0  0  0  0  0  0  0  0
   29.6260   -1.7532   10.3441 H   0  0  0  0  0  0  0  0  0  0  0  0
   29.0063    4.5586    3.4899 H   0  0  0  0  0  0  0  0  0  0  0  0
   27.5439    6.5522    3.4706 H   0  0  0  0  0  0  0  0  0  0  0  0
   25.5722    1.9868    3.9071 H   0  0  0  0  0  0  0  0  0  0  0  0
  6  7  2  0
  3  1  1  0
  7  1  1  0
  7 16  1  0
 26 25  1  0
  1  8  1  0
 24 23  3  0
 23 20  1  0
 19 18  2  0
 19 20  1  0
 18 17  1  0
 20 21  2  0
 28 25  1  0
 17 16  1  0
 17 22  2  0
 16  5  1  0
  2  8  1  0
 21 22  1  0
 21 25  1  0
 25 27  1  0
  8  5  1  0
  8  9  1  0
  5  4  2  0
  9 14  1  0
  9 10  2  0
 14 13  2  0
 10 11  1  0
 13 12  1  0
 11 12  2  0
 12 15  1  0
  2 29  1  0
  2 30  1  0
  2 31  1  0
  3 32  1  0
  3 33  1  0
  3 34  1  0
 10 35  1  0
 11 36  1  0
 13 37  1  0
 14 38  1  0
 15 39  1  0
 18 40  1  0
 19 41  1  0
 22 42  1  0
A    1
N4
A    2
C31
A    3
C4
A    4
O2
A    5
C2
A    6
O5
A    7
C5
A    8
C3
A    9
C1B
A   10
C2B
A   11
C3B
A   12
C4B
A   13
C5B
A   14
C6B
A   15
O4
A   16
N1
A   17
C1A
A   18
C2A
A   19
C3A
A   20
C4A
A   21
C5A
A   22
C6A
A   23
C41
A   24
N41
A   25
C51
A   26
F1
A   27
F2
A   28
F3
M  END
